PCS.pdb
     RDKit          3D

 20 20  0  0  1  0  0  0  0  0999 V2000
   23.1838  -29.5521    3.7708 N   0  0  0  0  0  0  0  0  0  0  0  0
   21.8223  -30.0494    3.7850 C   0  0  0  0  0  0  0  0  0  0  0  0
   22.0048  -31.5235    4.0114 C   0  0  0  0  0  0  0  0  0  0  0  0
   23.3077  -31.6254    4.7708 C   0  0  0  0  0  0  0  0  0  0  0  0
   23.7675  -30.1904    4.9147 C   0  0  1  0  0  0  0  0  0  0  0  0
   25.2655  -30.1061    4.8604 C   0  0  0  0  0  0  0  0  0  0  0  0
   25.8710  -29.6942    3.8204 O   0  0  0  0  0  0  0  0  0  0  0  0
   26.0807  -30.4773    5.9548 N   0  0  0  0  0  0  0  0  0  0  0  0
   27.5293  -30.4626    5.9385 C   0  0  1  0  0  0  0  0  0  0  0  0
   28.0492  -29.0873    5.6884 C   0  0  0  0  0  0  0  0  0  0  0  0
   27.1535  -27.9245    6.7696 S   0  0  0  0  0  0  0  0  0  0  0  0
   28.1113  -31.1337    7.1092 C   0  0  0  0  0  0  0  0  0  0  0  0
   27.6691  -30.8130    8.2395 O   0  0  0  0  0  0  0  0  0  0  0  0
   30.5159  -34.1132    6.4600 O   0  0  0  0  0  0  0  0  0  0  0  0
   30.5856  -33.9056    7.8233 C   0  0  0  0  0  0  0  0  0  0  0  0
   29.7092  -32.7222    8.1732 C   0  0  2  0  0  0  0  0  0  0  0  0
   29.1342  -32.1100    6.9960 N   0  0  0  0  0  0  0  0  0  0  0  0
   30.4409  -31.7460    9.0049 C   0  0  0  0  0  0  0  0  0  0  0  0
   30.6490  -30.5634    8.6378 O   0  0  0  0  0  0  0  0  0  0  0  0
   30.9162  -32.1546   10.2421 O   0  0  0  0  0  0  0  0  0  0  0  0
  2  1  1  0
  3  2  1  0
  4  3  1  0
  4  5  1  0
  5  1  1  0
  5  6  1  6
  7  6  2  0
  8  6  1  0
  9  8  1  0
  9 12  1  0
  9 10  1  1
 11 10  1  0
 12 17  1  0
 13 12  2  0
 15 14  1  0
 16 15  1  6
 16 18  1  0
 17 16  1  0
 18 19  2  0
 18 20  1  0
M  END
$$$$
