PCS.pdb
     RDKit          3D

 20 20  0  0  1  0  0  0  0  0999 V2000
   20.8368  -11.4810  -17.0275 N   0  0  0  0  0  0  0  0  0  0  0  0
   20.6727  -12.6715  -17.8380 C   0  0  0  0  0  0  0  0  0  0  0  0
   19.2198  -13.0069  -17.6531 C   0  0  0  0  0  0  0  0  0  0  0  0
   18.5643  -11.6763  -17.3619 C   0  0  0  0  0  0  0  0  0  0  0  0
   19.7056  -10.6828  -17.4020 C   0  0  1  0  0  0  0  0  0  0  0  0
   19.4837   -9.5804  -16.4073 C   0  0  0  0  0  0  0  0  0  0  0  0
   18.4901   -8.7917  -16.4996 O   0  0  0  0  0  0  0  0  0  0  0  0
   20.3608   -9.3594  -15.3202 N   0  0  0  0  0  0  0  0  0  0  0  0
   20.2465   -8.2566  -14.3875 C   0  0  1  0  0  0  0  0  0  0  0  0
   20.5179   -8.7046  -12.9911 C   0  0  0  0  0  0  0  0  0  0  0  0
   22.1247   -9.5652  -12.9613 S   0  0  0  0  0  0  0  0  0  0  0  0
   21.0156   -7.0788  -14.8130 C   0  0  0  0  0  0  0  0  0  0  0  0
   22.0617   -7.2797  -15.4774 O   0  0  0  0  0  0  0  0  0  0  0  0
   21.5581   -3.1376  -16.8428 O   0  0  0  0  0  0  0  0  0  0  0  0
   20.8138   -4.2107  -16.3946 C   0  0  0  0  0  0  0  0  0  0  0  0
   21.3315   -4.6169  -15.0315 C   0  0  2  0  0  0  0  0  0  0  0  0
   20.6148   -5.7547  -14.4994 N   0  0  0  0  0  0  0  0  0  0  0  0
   21.3272   -3.4728  -14.0983 C   0  0  0  0  0  0  0  0  0  0  0  0
   22.3082   -2.6999  -13.9680 O   0  0  0  0  0  0  0  0  0  0  0  0
   20.1913   -3.2444  -13.3359 O   0  0  0  0  0  0  0  0  0  0  0  0
  2  1  1  0
  3  2  1  0
  4  3  1  0
  4  5  1  0
  5  1  1  0
  5  6  1  1
  7  6  2  0
  8  6  1  0
  9  8  1  0
  9 12  1  0
  9 10  1  1
 11 10  1  0
 12 17  1  0
 13 12  2  0
 15 14  1  0
 16 15  1  6
 16 18  1  0
 17 16  1  0
 18 19  2  0
 18 20  1  0
M  END
$$$$
