PCS.pdb
     RDKit          3D

 20 20  0  0  1  0  0  0  0  0999 V2000
   25.9257  -19.6368  -15.2706 N   0  0  0  0  0  0  0  0  0  0  0  0
   27.2731  -19.4016  -15.7507 C   0  0  0  0  0  0  0  0  0  0  0  0
   28.1209  -19.7619  -14.5637 C   0  0  0  0  0  0  0  0  0  0  0  0
   27.2956  -20.7810  -13.8118 C   0  0  0  0  0  0  0  0  0  0  0  0
   26.0333  -20.9182  -14.6358 C   0  0  1  0  0  0  0  0  0  0  0  0
   24.8474  -21.1710  -13.7504 C   0  0  0  0  0  0  0  0  0  0  0  0
   24.7885  -22.1912  -12.9931 O   0  0  0  0  0  0  0  0  0  0  0  0
   23.7379  -20.2949  -13.7095 N   0  0  0  0  0  0  0  0  0  0  0  0
   22.5748  -20.4860  -12.8671 C   0  0  1  0  0  0  0  0  0  0  0  0
   22.3330  -19.2916  -12.0074 C   0  0  0  0  0  0  0  0  0  0  0  0
   21.1001  -19.7316  -10.7387 S   0  0  0  0  0  0  0  0  0  0  0  0
   21.4013  -20.9429  -13.6246 C   0  0  0  0  0  0  0  0  0  0  0  0
   20.9876  -20.2048  -14.5520 O   0  0  0  0  0  0  0  0  0  0  0  0
   18.1942  -24.3904  -14.6523 O   0  0  0  0  0  0  0  0  0  0  0  0
   19.1232  -23.9691  -13.7218 C   0  0  0  0  0  0  0  0  0  0  0  0
   19.5791  -22.5755  -14.0970 C   0  0  2  0  0  0  0  0  0  0  0  0
   20.7418  -22.1664  -13.3407 N   0  0  0  0  0  0  0  0  0  0  0  0
   18.4727  -21.6047  -13.9816 C   0  0  0  0  0  0  0  0  0  0  0  0
   18.1748  -21.0411  -12.8998 O   0  0  0  0  0  0  0  0  0  0  0  0
   17.7340  -21.3045  -15.1165 O   0  0  0  0  0  0  0  0  0  0  0  0
  2  1  1  0
  3  2  1  0
  4  3  1  0
  4  5  1  0
  5  1  1  0
  5  6  1  1
  7  6  2  0
  8  6  1  0
  9  8  1  0
  9 12  1  0
  9 10  1  6
 11 10  1  0
 12 17  1  0
 13 12  2  0
 15 14  1  0
 16 15  1  1
 16 18  1  0
 17 16  1  0
 18 19  2  0
 18 20  1  0
M  END
$$$$
