PCS.pdb
     RDKit          3D

 20 20  0  0  1  0  0  0  0  0999 V2000
   23.7841  -12.7907  -17.6135 N   0  0  0  0  0  0  0  0  0  0  0  0
   24.6127  -13.8233  -17.0233 C   0  0  0  0  0  0  0  0  0  0  0  0
   25.5748  -13.0394  -16.1762 C   0  0  0  0  0  0  0  0  0  0  0  0
   24.8151  -11.7837  -15.8144 C   0  0  0  0  0  0  0  0  0  0  0  0
   23.4721  -11.9533  -16.4919 C   0  0  1  0  0  0  0  0  0  0  0  0
   22.9403  -10.6274  -16.9535 C   0  0  0  0  0  0  0  0  0  0  0  0
   23.3531  -10.0824  -18.0261 O   0  0  0  0  0  0  0  0  0  0  0  0
   21.9578   -9.9158  -16.2265 N   0  0  0  0  0  0  0  0  0  0  0  0
   21.3788   -8.6567  -16.6491 C   0  0  1  0  0  0  0  0  0  0  0  0
   19.9524   -8.8294  -17.0485 C   0  0  0  0  0  0  0  0  0  0  0  0
   19.8920   -9.8678  -18.5456 S   0  0  0  0  0  0  0  0  0  0  0  0
   21.6176   -7.5759  -15.6824 C   0  0  0  0  0  0  0  0  0  0  0  0
   21.4905   -7.8506  -14.4640 O   0  0  0  0  0  0  0  0  0  0  0  0
   23.3106   -3.1721  -14.7134 O   0  0  0  0  0  0  0  0  0  0  0  0
   22.9250   -4.0294  -15.7247 C   0  0  0  0  0  0  0  0  0  0  0  0
   22.2691   -5.2423  -15.1005 C   0  0  2  0  0  0  0  0  0  0  0  0
   21.9789   -6.2637  -16.0823 N   0  0  0  0  0  0  0  0  0  0  0  0
   21.0710   -4.8601  -14.3270 C   0  0  0  0  0  0  0  0  0  0  0  0
   19.9344   -4.7470  -14.8486 O   0  0  0  0  0  0  0  0  0  0  0  0
   21.2094   -4.6171  -12.9685 O   0  0  0  0  0  0  0  0  0  0  0  0
  2  1  1  0
  3  2  1  0
  4  3  1  0
  4  5  1  0
  5  1  1  0
  5  6  1  6
  7  6  2  0
  8  6  1  0
  9  8  1  0
  9 12  1  0
  9 10  1  1
 11 10  1  0
 12 17  1  0
 13 12  2  0
 15 14  1  0
 16 15  1  6
 16 18  1  0
 17 16  1  0
 18 19  2  0
 18 20  1  0
M  END
$$$$
