PCS.pdb
     RDKit          3D

 20 20  0  0  1  0  0  0  0  0999 V2000
   22.2191  -11.9649  -18.9209 N   0  0  0  0  0  0  0  0  0  0  0  0
   21.6377  -13.0892  -19.6275 C   0  0  0  0  0  0  0  0  0  0  0  0
   20.9921  -13.8815  -18.5261 C   0  0  0  0  0  0  0  0  0  0  0  0
   20.6625  -12.8515  -17.4700 C   0  0  0  0  0  0  0  0  0  0  0  0
   21.1530  -11.5458  -18.0581 C   0  0  1  0  0  0  0  0  0  0  0  0
   21.6712  -10.6400  -16.9787 C   0  0  0  0  0  0  0  0  0  0  0  0
   20.9657  -10.3455  -15.9622 O   0  0  0  0  0  0  0  0  0  0  0  0
   22.9636  -10.0681  -17.0319 N   0  0  0  0  0  0  0  0  0  0  0  0
   23.4971   -9.1574  -16.0394 C   0  0  1  0  0  0  0  0  0  0  0  0
   24.9863   -9.2233  -15.9963 C   0  0  0  0  0  0  0  0  0  0  0  0
   25.4735  -10.7871  -15.1959 S   0  0  0  0  0  0  0  0  0  0  0  0
   22.9477   -7.8005  -16.1691 C   0  0  0  0  0  0  0  0  0  0  0  0
   22.9302   -7.2902  -17.3160 O   0  0  0  0  0  0  0  0  0  0  0  0
   19.8117   -6.4233  -14.2392 O   0  0  0  0  0  0  0  0  0  0  0  0
   20.3356   -5.8745  -15.3928 C   0  0  0  0  0  0  0  0  0  0  0  0
   21.8377   -5.7740  -15.2363 C   0  0  2  0  0  0  0  0  0  0  0  0
   22.4496   -7.0722  -15.0583 N   0  0  0  0  0  0  0  0  0  0  0  0
   22.1981   -4.8377  -14.1531 C   0  0  0  0  0  0  0  0  0  0  0  0
   21.9211   -3.6137  -14.1943 O   0  0  0  0  0  0  0  0  0  0  0  0
   22.8699   -5.3334  -13.0455 O   0  0  0  0  0  0  0  0  0  0  0  0
  2  1  1  0
  3  2  1  0
  4  3  1  0
  4  5  1  0
  5  1  1  0
  5  6  1  1
  7  6  2  0
  8  6  1  0
  9  8  1  0
  9 12  1  0
  9 10  1  6
 11 10  1  0
 12 17  1  0
 13 12  2  0
 15 14  1  0
 16 15  1  1
 16 18  1  0
 17 16  1  0
 18 19  2  0
 18 20  1  0
M  END
$$$$
