PCS.pdb
     RDKit          3D

 20 20  0  0  1  0  0  0  0  0999 V2000
   26.5005  -13.4280  -15.6623 N   0  0  0  0  0  0  0  0  0  0  0  0
   27.5616  -14.4079  -15.5391 C   0  0  0  0  0  0  0  0  0  0  0  0
   27.2220  -15.4079  -16.6078 C   0  0  0  0  0  0  0  0  0  0  0  0
   26.4701  -14.6047  -17.6443 C   0  0  0  0  0  0  0  0  0  0  0  0
   26.4393  -13.2016  -17.0771 C   0  0  1  0  0  0  0  0  0  0  0  0
   25.1598  -12.5086  -17.4469 C   0  0  0  0  0  0  0  0  0  0  0  0
   24.8636  -12.2619  -18.6591 O   0  0  0  0  0  0  0  0  0  0  0  0
   24.2197  -12.0945  -16.4749 N   0  0  0  0  0  0  0  0  0  0  0  0
   22.9751  -11.4170  -16.7766 C   0  0  1  0  0  0  0  0  0  0  0  0
   21.8021  -12.2433  -16.3697 C   0  0  0  0  0  0  0  0  0  0  0  0
   21.9750  -12.6642  -14.6044 S   0  0  0  0  0  0  0  0  0  0  0  0
   22.9527  -10.0346  -16.2781 C   0  0  0  0  0  0  0  0  0  0  0  0
   23.5764   -9.7922  -15.2159 O   0  0  0  0  0  0  0  0  0  0  0  0
   22.7748   -6.6875  -18.4808 O   0  0  0  0  0  0  0  0  0  0  0  0
   21.8488   -6.6307  -17.4582 C   0  0  0  0  0  0  0  0  0  0  0  0
   22.2294   -7.6538  -16.4097 C   0  0  2  0  0  0  0  0  0  0  0  0
   22.2614   -8.9945  -16.9509 N   0  0  0  0  0  0  0  0  0  0  0  0
   21.3522   -7.5542  -15.2262 C   0  0  0  0  0  0  0  0  0  0  0  0
   20.4476   -8.3896  -14.9801 O   0  0  0  0  0  0  0  0  0  0  0  0
   21.5374   -6.4935  -14.3520 O   0  0  0  0  0  0  0  0  0  0  0  0
  2  1  1  0
  3  2  1  0
  4  3  1  0
  4  5  1  0
  5  1  1  0
  5  6  1  1
  7  6  2  0
  8  6  1  0
  9  8  1  0
  9 12  1  0
  9 10  1  1
 11 10  1  0
 12 17  1  0
 13 12  2  0
 15 14  1  0
 16 15  1  6
 16 18  1  0
 17 16  1  0
 18 19  2  0
 18 20  1  0
M  END
$$$$
