PCS.pdb
     RDKit          3D

 20 20  0  0  1  0  0  0  0  0999 V2000
   21.6614   -8.9105  -15.3102 N   0  0  0  0  0  0  0  0  0  0  0  0
   22.9020   -9.5175  -15.7505 C   0  0  0  0  0  0  0  0  0  0  0  0
   23.5993   -9.8337  -14.4577 C   0  0  0  0  0  0  0  0  0  0  0  0
   22.4754  -10.0287  -13.4660 C   0  0  0  0  0  0  0  0  0  0  0  0
   21.2186   -9.8036  -14.2791 C   0  0  1  0  0  0  0  0  0  0  0  0
   20.1539   -9.1573  -13.4410 C   0  0  0  0  0  0  0  0  0  0  0  0
   18.9976   -9.6735  -13.3208 O   0  0  0  0  0  0  0  0  0  0  0  0
   20.3759   -7.9472  -12.7435 N   0  0  0  0  0  0  0  0  0  0  0  0
   19.3743   -7.2642  -11.9500 C   0  0  1  0  0  0  0  0  0  0  0  0
   19.7788   -7.1988  -10.5161 C   0  0  0  0  0  0  0  0  0  0  0  0
   18.5661   -6.1755   -9.6187 S   0  0  0  0  0  0  0  0  0  0  0  0
   18.9780   -5.9751  -12.5339 C   0  0  0  0  0  0  0  0  0  0  0  0
   19.8458   -5.0690  -12.5792 O   0  0  0  0  0  0  0  0  0  0  0  0
   15.5540   -5.5832  -14.7154 O   0  0  0  0  0  0  0  0  0  0  0  0
   16.5646   -4.6709  -14.9459 C   0  0  0  0  0  0  0  0  0  0  0  0
   17.3365   -4.4755  -13.6588 C   0  0  2  0  0  0  0  0  0  0  0  0
   17.6725   -5.7360  -13.0346 N   0  0  0  0  0  0  0  0  0  0  0  0
   16.6151   -3.5752  -12.7374 C   0  0  0  0  0  0  0  0  0  0  0  0
   16.1609   -3.9587  -11.6313 O   0  0  0  0  0  0  0  0  0  0  0  0
   16.4334   -2.2520  -13.1113 O   0  0  0  0  0  0  0  0  0  0  0  0
  2  1  1  0
  3  2  1  0
  4  3  1  0
  4  5  1  0
  5  1  1  0
  5  6  1  1
  7  6  2  0
  8  6  1  0
  9  8  1  0
  9 12  1  0
  9 10  1  1
 11 10  1  0
 12 17  1  0
 13 12  2  0
 15 14  1  0
 16 15  1  6
 16 18  1  0
 17 16  1  0
 18 19  2  0
 18 20  1  0
M  END
$$$$
