PCS.pdb
     RDKit          3D

 20 20  0  0  1  0  0  0  0  0999 V2000
   28.4631  -11.6283  -18.1171 N   0  0  0  0  0  0  0  0  0  0  0  0
   27.5369  -12.7204  -18.3425 C   0  0  0  0  0  0  0  0  0  0  0  0
   28.2850  -13.6038  -19.3004 C   0  0  0  0  0  0  0  0  0  0  0  0
   29.7409  -13.3329  -18.9976 C   0  0  0  0  0  0  0  0  0  0  0  0
   29.7049  -12.3072  -17.8851 C   0  0  1  0  0  0  0  0  0  0  0  0
   30.8590  -11.3545  -18.0052 C   0  0  0  0  0  0  0  0  0  0  0  0
   32.0636  -11.7601  -17.9596 O   0  0  0  0  0  0  0  0  0  0  0  0
   30.6719   -9.9629  -18.1745 N   0  0  0  0  0  0  0  0  0  0  0  0
   31.7468   -9.0091  -18.3589 C   0  0  1  0  0  0  0  0  0  0  0  0
   31.5401   -8.2000  -19.5945 C   0  0  0  0  0  0  0  0  0  0  0  0
   31.4365   -9.3339  -21.0182 S   0  0  0  0  0  0  0  0  0  0  0  0
   32.0118   -8.2202  -17.1476 C   0  0  0  0  0  0  0  0  0  0  0  0
   31.0216   -7.8408  -16.4757 O   0  0  0  0  0  0  0  0  0  0  0  0
   35.1718   -8.5700  -14.6887 O   0  0  0  0  0  0  0  0  0  0  0  0
   34.9620   -7.2459  -15.0189 C   0  0  0  0  0  0  0  0  0  0  0  0
   33.5473   -7.0995  -15.5367 C   0  0  2  0  0  0  0  0  0  0  0  0
   33.3257   -7.8857  -16.7300 N   0  0  0  0  0  0  0  0  0  0  0  0
   33.1982   -5.6787  -15.7358 C   0  0  0  0  0  0  0  0  0  0  0  0
   33.0982   -4.8651  -14.7847 O   0  0  0  0  0  0  0  0  0  0  0  0
   32.9724   -5.2270  -17.0276 O   0  0  0  0  0  0  0  0  0  0  0  0
  2  1  1  0
  3  2  1  0
  4  3  1  0
  4  5  1  0
  5  1  1  0
  5  6  1  6
  7  6  2  0
  8  6  1  0
  9  8  1  0
  9 12  1  0
  9 10  1  6
 11 10  1  0
 12 17  1  0
 13 12  2  0
 15 14  1  0
 16 15  1  6
 16 18  1  0
 17 16  1  0
 18 19  2  0
 18 20  1  0
M  END
$$$$
