PCS.pdb
     RDKit          3D

 20 20  0  0  1  0  0  0  0  0999 V2000
   22.6848  -11.6416  -18.5726 N   0  0  0  0  0  0  0  0  0  0  0  0
   22.9117  -12.7660  -19.4589 C   0  0  0  0  0  0  0  0  0  0  0  0
   21.8512  -13.7444  -19.0395 C   0  0  0  0  0  0  0  0  0  0  0  0
   20.7409  -12.8778  -18.4907 C   0  0  0  0  0  0  0  0  0  0  0  0
   21.2632  -11.4650  -18.6403 C   0  0  1  0  0  0  0  0  0  0  0  0
   20.7833  -10.6004  -17.5106 C   0  0  0  0  0  0  0  0  0  0  0  0
   19.5440  -10.3979  -17.3083 O   0  0  0  0  0  0  0  0  0  0  0  0
   21.6764   -9.9675  -16.6150 N   0  0  0  0  0  0  0  0  0  0  0  0
   21.2678   -9.2228  -15.4413 C   0  0  1  0  0  0  0  0  0  0  0  0
   21.7147   -9.9031  -14.1917 C   0  0  0  0  0  0  0  0  0  0  0  0
   23.5240  -10.1143  -14.2630 S   0  0  0  0  0  0  0  0  0  0  0  0
   21.6262   -7.8001  -15.5258 C   0  0  0  0  0  0  0  0  0  0  0  0
   22.6818   -7.5044  -16.1377 O   0  0  0  0  0  0  0  0  0  0  0  0
   20.4082   -3.1801  -15.2630 O   0  0  0  0  0  0  0  0  0  0  0  0
   19.9816   -4.4821  -15.0914 C   0  0  0  0  0  0  0  0  0  0  0  0
   21.1952   -5.3865  -15.0811 C   0  0  2  0  0  0  0  0  0  0  0  0
   20.8289   -6.7791  -14.9476 N   0  0  0  0  0  0  0  0  0  0  0  0
   22.1631   -4.9661  -14.0485 C   0  0  0  0  0  0  0  0  0  0  0  0
   22.1464   -5.4203  -12.8780 O   0  0  0  0  0  0  0  0  0  0  0  0
   23.1296   -4.0312  -14.3883 O   0  0  0  0  0  0  0  0  0  0  0  0
  2  1  1  0
  3  2  1  0
  4  3  1  0
  4  5  1  0
  5  1  1  0
  5  6  1  1
  7  6  2  0
  8  6  1  0
  9  8  1  0
  9 12  1  0
  9 10  1  1
 11 10  1  0
 12 17  1  0
 13 12  2  0
 15 14  1  0
 16 15  1  1
 16 18  1  0
 17 16  1  0
 18 19  2  0
 18 20  1  0
M  END
$$$$
