PCS.pdb
     RDKit          3D

 20 20  0  0  1  0  0  0  0  0999 V2000
   21.1147  -11.9542  -17.9945 N   0  0  0  0  0  0  0  0  0  0  0  0
   21.2096  -13.2153  -18.7029 C   0  0  0  0  0  0  0  0  0  0  0  0
   19.9600  -13.2276  -19.5372 C   0  0  0  0  0  0  0  0  0  0  0  0
   19.6487  -11.7659  -19.7636 C   0  0  0  0  0  0  0  0  0  0  0  0
   20.7529  -11.0328  -19.0323 C   0  0  1  0  0  0  0  0  0  0  0  0
   20.2389   -9.7502  -18.4452 C   0  0  0  0  0  0  0  0  0  0  0  0
   19.7816   -8.8186  -19.1806 O   0  0  0  0  0  0  0  0  0  0  0  0
   20.2347   -9.5084  -17.0518 N   0  0  0  0  0  0  0  0  0  0  0  0
   19.7753   -8.2802  -16.4356 C   0  0  1  0  0  0  0  0  0  0  0  0
   18.6217   -8.5354  -15.5256 C   0  0  0  0  0  0  0  0  0  0  0  0
   19.1721   -9.6495  -14.1917 S   0  0  0  0  0  0  0  0  0  0  0  0
   20.8720   -7.5096  -15.8328 C   0  0  0  0  0  0  0  0  0  0  0  0
   21.8935   -8.1430  -15.4703 O   0  0  0  0  0  0  0  0  0  0  0  0
   22.0697   -4.0492  -17.0134 O   0  0  0  0  0  0  0  0  0  0  0  0
   22.0175   -3.9715  -15.6358 C   0  0  0  0  0  0  0  0  0  0  0  0
   21.9151   -5.3756  -15.0801 C   0  0  2  0  0  0  0  0  0  0  0  0
   20.8059   -6.1038  -15.6554 N   0  0  0  0  0  0  0  0  0  0  0  0
   21.8636   -5.3612  -13.6046 C   0  0  0  0  0  0  0  0  0  0  0  0
   20.8844   -5.8050  -12.9557 O   0  0  0  0  0  0  0  0  0  0  0  0
   22.9426   -4.8359  -12.9094 O   0  0  0  0  0  0  0  0  0  0  0  0
  2  1  1  0
  3  2  1  0
  4  3  1  0
  4  5  1  0
  5  1  1  0
  5  6  1  1
  7  6  2  0
  8  6  1  0
  9  8  1  0
  9 12  1  0
  9 10  1  1
 11 10  1  0
 12 17  1  0
 13 12  2  0
 15 14  1  0
 16 15  1  6
 16 18  1  0
 17 16  1  0
 18 19  2  0
 18 20  1  0
M  END
$$$$
