PCS.pdb
     RDKit          3D

 20 20  0  0  1  0  0  0  0  0999 V2000
   22.2986  -19.8967  -16.0695 N   0  0  0  0  0  0  0  0  0  0  0  0
   23.0957  -19.5509  -17.2298 C   0  0  0  0  0  0  0  0  0  0  0  0
   24.4050  -19.1292  -16.6250 C   0  0  0  0  0  0  0  0  0  0  0  0
   24.4807  -19.8990  -15.3264 C   0  0  0  0  0  0  0  0  0  0  0  0
   23.1976  -20.7014  -15.2942 C   0  0  1  0  0  0  0  0  0  0  0  0
   22.6979  -20.8454  -13.8858 C   0  0  0  0  0  0  0  0  0  0  0  0
   23.3718  -21.4624  -13.0010 O   0  0  0  0  0  0  0  0  0  0  0  0
   21.4589  -20.3066  -13.4678 N   0  0  0  0  0  0  0  0  0  0  0  0
   20.9344  -20.4093  -12.1212 C   0  0  1  0  0  0  0  0  0  0  0  0
   20.6123  -19.0628  -11.5668 C   0  0  0  0  0  0  0  0  0  0  0  0
   20.2373  -19.2423   -9.7918 S   0  0  0  0  0  0  0  0  0  0  0  0
   19.8462  -21.3913  -12.0154 C   0  0  0  0  0  0  0  0  0  0  0  0
   19.0069  -21.4281  -12.9483 O   0  0  0  0  0  0  0  0  0  0  0  0
   17.8647  -25.1578   -9.7436 O   0  0  0  0  0  0  0  0  0  0  0  0
   18.7151  -24.0804   -9.5939 C   0  0  0  0  0  0  0  0  0  0  0  0
   18.6460  -23.2373  -10.8490 C   0  0  2  0  0  0  0  0  0  0  0  0
   19.7243  -22.2759  -10.9131 N   0  0  0  0  0  0  0  0  0  0  0  0
   17.3229  -22.5968  -10.9873 C   0  0  0  0  0  0  0  0  0  0  0  0
   16.2838  -23.2412  -11.2735 O   0  0  0  0  0  0  0  0  0  0  0  0
   17.2266  -21.2270  -10.7921 O   0  0  0  0  0  0  0  0  0  0  0  0
  2  1  1  0
  3  2  1  0
  4  3  1  0
  4  5  1  0
  5  1  1  0
  5  6  1  1
  7  6  2  0
  8  6  1  0
  9  8  1  0
  9 12  1  0
  9 10  1  6
 11 10  1  0
 12 17  1  0
 13 12  2  0
 15 14  1  0
 16 15  1  1
 16 18  1  0
 17 16  1  0
 18 19  2  0
 18 20  1  0
M  END
$$$$
