PCS.pdb
     RDKit          3D

 20 20  0  0  1  0  0  0  0  0999 V2000
   19.9104   -9.3051  -16.1269 N   0  0  0  0  0  0  0  0  0  0  0  0
   20.0103  -10.3475  -17.1293 C   0  0  0  0  0  0  0  0  0  0  0  0
   20.2011  -11.5894  -16.3054 C   0  0  0  0  0  0  0  0  0  0  0  0
   19.5214  -11.2740  -14.9927 C   0  0  0  0  0  0  0  0  0  0  0  0
   18.9963   -9.8660  -15.1747 C   0  0  1  0  0  0  0  0  0  0  0  0
   19.0509   -9.1086  -13.8796 C   0  0  0  0  0  0  0  0  0  0  0  0
   18.4104   -9.5002  -12.8528 O   0  0  0  0  0  0  0  0  0  0  0  0
   19.8122   -7.9260  -13.7305 N   0  0  0  0  0  0  0  0  0  0  0  0
   19.8839   -7.1472  -12.5109 C   0  0  1  0  0  0  0  0  0  0  0  0
   21.1455   -6.3539  -12.4544 C   0  0  0  0  0  0  0  0  0  0  0  0
   21.1884   -5.2317  -13.8905 S   0  0  0  0  0  0  0  0  0  0  0  0
   18.6605   -6.3700  -12.2678 C   0  0  0  0  0  0  0  0  0  0  0  0
   17.9773   -6.0382  -13.2674 O   0  0  0  0  0  0  0  0  0  0  0  0
   16.6167   -6.4032   -8.8369 O   0  0  0  0  0  0  0  0  0  0  0  0
   16.6547   -5.1101   -9.3194 C   0  0  0  0  0  0  0  0  0  0  0  0
   17.0849   -5.1524  -10.7700 C   0  0  2  0  0  0  0  0  0  0  0  0
   18.2436   -5.9955  -10.9646 N   0  0  0  0  0  0  0  0  0  0  0  0
   17.2935   -3.7913  -11.3028 C   0  0  0  0  0  0  0  0  0  0  0  0
   18.4089   -3.3877  -11.7147 O   0  0  0  0  0  0  0  0  0  0  0  0
   16.2112   -2.9253  -11.3495 O   0  0  0  0  0  0  0  0  0  0  0  0
  2  1  1  0
  3  2  1  0
  4  3  1  0
  4  5  1  0
  5  1  1  0
  5  6  1  1
  7  6  2  0
  8  6  1  0
  9  8  1  0
  9 12  1  0
  9 10  1  6
 11 10  1  0
 12 17  1  0
 13 12  2  0
 15 14  1  0
 16 15  1  1
 16 18  1  0
 17 16  1  0
 18 19  2  0
 18 20  1  0
M  END
$$$$
