WYA.pdb
     RDKit          3D

 32 34  0  0  1  0  0  0  0  0999 V2000
    5.8552  -18.1611   24.0507 N   0  0  0  0  0  0  0  0  0  0  0  0
    6.6329  -16.9576   24.2384 C   0  0  1  0  0  0  0  0  0  0  0  0
    6.7286  -16.5562   25.6922 C   0  0  0  0  0  0  0  0  0  0  0  0
    6.1720  -15.2208   25.9490 C   0  0  0  0  0  0  0  0  0  0  0  0
    4.8302  -14.8782   26.0141 C   0  0  0  0  0  0  0  0  0  0  0  0
    4.7259  -13.5634   26.2705 N   0  0  0  0  0  0  0  0  0  0  0  0
    5.9419  -12.9934   26.3832 C   0  0  0  0  0  0  0  0  0  0  0  0
    6.3858  -11.7143   26.6334 C   0  0  0  0  0  0  0  0  0  0  0  0
    7.7342  -11.4474   26.6871 C   0  0  0  0  0  0  0  0  0  0  0  0
    8.6642  -12.4743   26.4878 C   0  0  0  0  0  0  0  0  0  0  0  0
    8.1880  -13.7566   26.2369 C   0  0  0  0  0  0  0  0  0  0  0  0
    6.8487  -14.0415   26.1798 C   0  0  0  0  0  0  0  0  0  0  0  0
    7.9749  -17.0582   23.6271 C   0  0  0  0  0  0  0  0  0  0  0  0
    8.5053  -18.1621   23.3250 O   0  0  0  0  0  0  0  0  0  0  0  0
    6.7665  -13.8653   17.6674 O   0  0  0  0  0  0  0  0  0  0  0  0
    7.6534  -14.1466   18.6759 C   0  0  0  0  0  0  0  0  0  0  0  0
    8.2400  -15.3998   18.8390 C   0  0  0  0  0  0  0  0  0  0  0  0
    9.1176  -15.6384   19.8558 C   0  0  0  0  0  0  0  0  0  0  0  0
    9.4570  -14.6699   20.7497 C   0  0  0  0  0  0  0  0  0  0  0  0
   10.3852  -14.8325   21.8677 C   0  0  0  0  0  0  0  0  0  0  0  0
   10.0756  -15.9458   22.8092 C   0  0  2  0  0  0  0  0  0  0  0  0
    8.7450  -15.9011   23.3458 N   0  0  0  0  0  0  0  0  0  0  0  0
   11.1069  -16.0486   23.9043 C   0  0  0  0  0  0  0  0  0  0  0  0
   12.3316  -16.1553   23.6551 O   0  0  0  0  0  0  0  0  0  0  0  0
    8.8793  -13.4208   20.5959 C   0  0  0  0  0  0  0  0  0  0  0  0
    7.9960  -13.1561   19.5843 C   0  0  0  0  0  0  0  0  0  0  0  0
   11.2391  -15.3506   27.5828 C   0  0  0  0  0  0  0  0  0  0  0  0
   11.6585  -16.1587   26.3793 C   0  0  2  0  0  0  0  0  0  0  0  0
   10.7368  -16.0292   25.2764 N   0  0  0  0  0  0  0  0  0  0  0  0
   11.9516  -17.5518   26.7259 C   0  0  0  0  0  0  0  0  0  0  0  0
   12.9105  -17.9142   27.6741 O   0  0  0  0  0  0  0  0  0  0  0  0
   11.3330  -18.4917   26.1662 O   0  0  0  0  0  0  0  0  0  0  0  0
  2  1  1  1
  3  4  1  0
  3  2  1  0
  4  5  2  0
  6  5  1  0
  7  6  1  0
  8  7  2  0
  9  8  1  0
 10  9  2  0
 10 11  1  0
 11 12  2  0
 12  7  1  0
 12  4  1  0
 13  2  1  0
 13 14  2  0
 15 16  1  0
 16 17  2  0
 17 18  1  0
 19 20  1  0
 19 18  2  0
 21 20  1  1
 21 22  1  0
 22 13  1  0
 23 21  1  0
 24 23  2  0
 25 19  1  0
 26 25  2  0
 26 16  1  0
 28 27  1  1
 28 29  1  0
 28 30  1  0
 29 23  1  0
 30 31  1  0
 32 30  2  0
M  END
$$$$
