WYA.pdb
     RDKit          3D

 32 34  0  0  1  0  0  0  0  0999 V2000
    7.0969  -16.2865   26.3455 N   0  0  0  0  0  0  0  0  0  0  0  0
    8.1494  -16.3752   25.3591 C   0  0  1  0  0  0  0  0  0  0  0  0
    8.7711  -15.0308   25.0595 C   0  0  0  0  0  0  0  0  0  0  0  0
    7.8247  -14.0953   24.4364 C   0  0  0  0  0  0  0  0  0  0  0  0
    6.9560  -13.2341   25.0889 C   0  0  0  0  0  0  0  0  0  0  0  0
    6.2578  -12.5404   24.1743 N   0  0  0  0  0  0  0  0  0  0  0  0
    6.6139  -12.8924   22.9231 C   0  0  0  0  0  0  0  0  0  0  0  0
    6.2197  -12.4998   21.6637 C   0  0  0  0  0  0  0  0  0  0  0  0
    6.7934  -13.0679   20.5499 C   0  0  0  0  0  0  0  0  0  0  0  0
    7.7819  -14.0489   20.6893 C   0  0  0  0  0  0  0  0  0  0  0  0
    8.1609  -14.4265   21.9729 C   0  0  0  0  0  0  0  0  0  0  0  0
    7.6008  -13.8719   23.0941 C   0  0  0  0  0  0  0  0  0  0  0  0
    9.1820  -17.3652   25.7312 C   0  0  0  0  0  0  0  0  0  0  0  0
    9.6994  -17.4113   26.8806 O   0  0  0  0  0  0  0  0  0  0  0  0
    5.6457  -21.8330   28.1399 O   0  0  0  0  0  0  0  0  0  0  0  0
    6.7887  -21.5689   27.4281 C   0  0  0  0  0  0  0  0  0  0  0  0
    8.0657  -21.7338   27.9602 C   0  0  0  0  0  0  0  0  0  0  0  0
    9.1773  -21.4598   27.2185 C   0  0  0  0  0  0  0  0  0  0  0  0
    9.0891  -21.0164   25.9348 C   0  0  0  0  0  0  0  0  0  0  0  0
   10.2211  -20.6978   25.0658 C   0  0  0  0  0  0  0  0  0  0  0  0
   10.6814  -19.2804   25.0960 C   0  0  2  0  0  0  0  0  0  0  0  0
    9.6498  -18.3271   24.8001 N   0  0  0  0  0  0  0  0  0  0  0  0
   11.8908  -19.0716   24.2203 C   0  0  0  0  0  0  0  0  0  0  0  0
   12.8848  -19.8351   24.2680 O   0  0  0  0  0  0  0  0  0  0  0  0
    7.8240  -20.8495   25.3968 C   0  0  0  0  0  0  0  0  0  0  0  0
    6.6933  -21.1174   26.1202 C   0  0  0  0  0  0  0  0  0  0  0  0
   12.7571  -16.7954   21.3058 C   0  0  0  0  0  0  0  0  0  0  0  0
   13.1040  -17.6921   22.4690 C   0  0  2  0  0  0  0  0  0  0  0  0
   11.9604  -17.9945   23.2957 N   0  0  0  0  0  0  0  0  0  0  0  0
   14.2498  -17.1884   23.2306 C   0  0  0  0  0  0  0  0  0  0  0  0
   14.2358  -17.0435   24.6193 O   0  0  0  0  0  0  0  0  0  0  0  0
   15.3116  -16.8614   22.6432 O   0  0  0  0  0  0  0  0  0  0  0  0
  2  1  1  1
  3  4  1  0
  3  2  1  0
  4  5  2  0
  6  5  1  0
  7  6  1  0
  8  7  2  0
  9  8  1  0
 10  9  2  0
 10 11  1  0
 11 12  2  0
 12  7  1  0
 12  4  1  0
 13  2  1  0
 13 14  2  0
 15 16  1  0
 16 17  2  0
 17 18  1  0
 19 20  1  0
 19 18  2  0
 21 20  1  6
 21 22  1  0
 22 13  1  0
 23 21  1  0
 24 23  2  0
 25 19  1  0
 26 25  2  0
 26 16  1  0
 28 27  1  6
 28 29  1  0
 28 30  1  0
 29 23  1  0
 30 31  1  0
 32 30  2  0
M  END
$$$$
