WYA.pdb
     RDKit          3D

 32 34  0  0  1  0  0  0  0  0999 V2000
    9.1037  -18.9730   20.5924 N   0  0  0  0  0  0  0  0  0  0  0  0
    8.4725  -17.7553   21.0475 C   0  0  1  0  0  0  0  0  0  0  0  0
    7.5113  -17.1903   20.0273 C   0  0  0  0  0  0  0  0  0  0  0  0
    7.9741  -15.9176   19.4571 C   0  0  0  0  0  0  0  0  0  0  0  0
    8.5866  -15.7317   18.2274 C   0  0  0  0  0  0  0  0  0  0  0  0
    8.8567  -14.4256   18.0656 N   0  0  0  0  0  0  0  0  0  0  0  0
    8.4538  -13.7110   19.1348 C   0  0  0  0  0  0  0  0  0  0  0  0
    8.4915  -12.3762   19.4701 C   0  0  0  0  0  0  0  0  0  0  0  0
    7.9816  -11.9500   20.6746 C   0  0  0  0  0  0  0  0  0  0  0  0
    7.4208  -12.8705   21.5675 C   0  0  0  0  0  0  0  0  0  0  0  0
    7.3958  -14.2124   21.2033 C   0  0  0  0  0  0  0  0  0  0  0  0
    7.8988  -14.6555   20.0080 C   0  0  0  0  0  0  0  0  0  0  0  0
    7.8133  -17.9241   22.3597 C   0  0  0  0  0  0  0  0  0  0  0  0
    6.6044  -18.2645   22.4765 O   0  0  0  0  0  0  0  0  0  0  0  0
    7.0895  -10.9418   27.3281 O   0  0  0  0  0  0  0  0  0  0  0  0
    7.1842  -12.1176   26.6271 C   0  0  0  0  0  0  0  0  0  0  0  0
    8.3758  -12.5667   26.0618 C   0  0  0  0  0  0  0  0  0  0  0  0
    8.4274  -13.7424   25.3718 C   0  0  0  0  0  0  0  0  0  0  0  0
    7.3253  -14.5234   25.2062 C   0  0  0  0  0  0  0  0  0  0  0  0
    7.2848  -15.7946   24.4848 C   0  0  0  0  0  0  0  0  0  0  0  0
    8.6065  -16.4307   24.2198 C   0  0  2  0  0  0  0  0  0  0  0  0
    8.5179  -17.7082   23.5713 N   0  0  0  0  0  0  0  0  0  0  0  0
    9.4462  -16.5057   25.4699 C   0  0  0  0  0  0  0  0  0  0  0  0
    9.7372  -15.4838   26.1365 O   0  0  0  0  0  0  0  0  0  0  0  0
    6.1360  -14.0856   25.7646 C   0  0  0  0  0  0  0  0  0  0  0  0
    6.0580  -12.9099   26.4612 C   0  0  0  0  0  0  0  0  0  0  0  0
   10.5000  -19.0446   27.9622 C   0  0  0  0  0  0  0  0  0  0  0  0
   10.8585  -17.8859   27.0644 C   0  0  2  0  0  0  0  0  0  0  0  0
    9.9490  -17.7442   25.9529 N   0  0  0  0  0  0  0  0  0  0  0  0
   12.2658  -17.9185   26.6581 C   0  0  0  0  0  0  0  0  0  0  0  0
   13.3213  -17.9376   27.5722 O   0  0  0  0  0  0  0  0  0  0  0  0
   12.5778  -17.9307   25.4408 O   0  0  0  0  0  0  0  0  0  0  0  0
  2  1  1  6
  3  4  1  0
  3  2  1  0
  4  5  2  0
  6  5  1  0
  7  6  1  0
  8  7  2  0
  9  8  1  0
 10  9  2  0
 10 11  1  0
 11 12  2  0
 12  7  1  0
 12  4  1  0
 13  2  1  0
 13 14  2  0
 15 16  1  0
 16 17  2  0
 17 18  1  0
 19 20  1  0
 19 18  2  0
 21 20  1  1
 21 22  1  0
 22 13  1  0
 23 21  1  0
 24 23  2  0
 25 19  1  0
 26 25  2  0
 26 16  1  0
 28 27  1  6
 28 29  1  0
 28 30  1  0
 29 23  1  0
 30 31  1  0
 32 30  2  0
M  END
$$$$
