WYA.pdb
     RDKit          3D

 32 34  0  0  1  0  0  0  0  0999 V2000
    5.9253  -18.2917   23.8672 N   0  0  0  0  0  0  0  0  0  0  0  0
    6.6001  -17.0520   24.1773 C   0  0  1  0  0  0  0  0  0  0  0  0
    6.6147  -16.7610   25.6602 C   0  0  0  0  0  0  0  0  0  0  0  0
    6.1795  -15.3929   25.9732 C   0  0  0  0  0  0  0  0  0  0  0  0
    4.8858  -14.8982   25.9140 C   0  0  0  0  0  0  0  0  0  0  0  0
    4.8944  -13.6047   26.2771 N   0  0  0  0  0  0  0  0  0  0  0  0
    6.1415  -13.1950   26.5821 C   0  0  0  0  0  0  0  0  0  0  0  0
    6.6877  -12.0020   26.9993 C   0  0  0  0  0  0  0  0  0  0  0  0
    8.0397  -11.9035   27.2332 C   0  0  0  0  0  0  0  0  0  0  0  0
    8.8694  -13.0155   27.0488 C   0  0  0  0  0  0  0  0  0  0  0  0
    8.2913  -14.2078   26.6269 C   0  0  0  0  0  0  0  0  0  0  0  0
    6.9467  -14.3249   26.3889 C   0  0  0  0  0  0  0  0  0  0  0  0
    7.9660  -17.0031   23.6145 C   0  0  0  0  0  0  0  0  0  0  0  0
    8.6133  -18.0406   23.3052 O   0  0  0  0  0  0  0  0  0  0  0  0
    7.3901  -13.8878   17.3648 O   0  0  0  0  0  0  0  0  0  0  0  0
    8.0643  -13.9852   18.5559 C   0  0  0  0  0  0  0  0  0  0  0  0
    7.7277  -13.2322   19.6788 C   0  0  0  0  0  0  0  0  0  0  0  0
    8.4240  -13.3590   20.8450 C   0  0  0  0  0  0  0  0  0  0  0  0
    9.4711  -14.2205   20.9627 C   0  0  0  0  0  0  0  0  0  0  0  0
   10.2737  -14.4232   22.1680 C   0  0  0  0  0  0  0  0  0  0  0  0
    9.9848  -15.6674   22.9362 C   0  0  2  0  0  0  0  0  0  0  0  0
    8.6270  -15.7686   23.3910 N   0  0  0  0  0  0  0  0  0  0  0  0
   10.9601  -15.8578   24.0701 C   0  0  0  0  0  0  0  0  0  0  0  0
   12.1962  -15.9427   23.8754 O   0  0  0  0  0  0  0  0  0  0  0  0
    9.8133  -14.9735   19.8520 C   0  0  0  0  0  0  0  0  0  0  0  0
    9.1306  -14.8647   18.6707 C   0  0  0  0  0  0  0  0  0  0  0  0
   10.8466  -15.4056   27.7915 C   0  0  0  0  0  0  0  0  0  0  0  0
   11.3933  -16.0863   26.5606 C   0  0  2  0  0  0  0  0  0  0  0  0
   10.5212  -15.9502   25.4188 N   0  0  0  0  0  0  0  0  0  0  0  0
   11.7850  -17.4729   26.8257 C   0  0  0  0  0  0  0  0  0  0  0  0
   12.6789  -17.8308   27.8371 O   0  0  0  0  0  0  0  0  0  0  0  0
   11.3167  -18.4112   26.1331 O   0  0  0  0  0  0  0  0  0  0  0  0
  2  1  1  1
  3  4  1  0
  3  2  1  0
  4  5  2  0
  6  5  1  0
  7  6  1  0
  8  7  2  0
  9  8  1  0
 10  9  2  0
 10 11  1  0
 11 12  2  0
 12  7  1  0
 12  4  1  0
 13  2  1  0
 13 14  2  0
 15 16  1  0
 16 17  2  0
 17 18  1  0
 19 20  1  0
 19 18  2  0
 21 20  1  1
 21 22  1  0
 22 13  1  0
 23 21  1  0
 24 23  2  0
 25 19  1  0
 26 25  2  0
 26 16  1  0
 28 27  1  1
 28 29  1  0
 28 30  1  0
 29 23  1  0
 30 31  1  0
 32 30  2  0
M  END
$$$$
