WYA.pdb
     RDKit          3D

 32 34  0  0  1  0  0  0  0  0999 V2000
    6.3630  -18.1565   25.7321 N   0  0  0  0  0  0  0  0  0  0  0  0
    6.9841  -16.9165   25.3260 C   0  0  1  0  0  0  0  0  0  0  0  0
    8.2875  -16.6632   26.0477 C   0  0  0  0  0  0  0  0  0  0  0  0
    8.2152  -15.5149   26.9615 C   0  0  0  0  0  0  0  0  0  0  0  0
    8.4925  -15.5149   28.3198 C   0  0  0  0  0  0  0  0  0  0  0  0
    8.3147  -14.2739   28.8031 N   0  0  0  0  0  0  0  0  0  0  0  0
    7.9271  -13.4256   27.8304 C   0  0  0  0  0  0  0  0  0  0  0  0
    7.6200  -12.0841   27.7892 C   0  0  0  0  0  0  0  0  0  0  0  0
    7.2466  -11.4952   26.6034 C   0  0  0  0  0  0  0  0  0  0  0  0
    7.1764  -12.2558   25.4305 C   0  0  0  0  0  0  0  0  0  0  0  0
    7.4919  -13.6083   25.5009 C   0  0  0  0  0  0  0  0  0  0  0  0
    7.8659  -14.2123   26.6729 C   0  0  0  0  0  0  0  0  0  0  0  0
    7.1652  -16.8355   23.8613 C   0  0  0  0  0  0  0  0  0  0  0  0
    7.2090  -17.8569   23.1224 O   0  0  0  0  0  0  0  0  0  0  0  0
    8.1765  -13.6255   15.7145 O   0  0  0  0  0  0  0  0  0  0  0  0
    7.9568  -13.7159   17.0659 C   0  0  0  0  0  0  0  0  0  0  0  0
    8.5759  -12.8770   17.9902 C   0  0  0  0  0  0  0  0  0  0  0  0
    8.3301  -13.0000   19.3263 C   0  0  0  0  0  0  0  0  0  0  0  0
    7.4753  -13.9407   19.8127 C   0  0  0  0  0  0  0  0  0  0  0  0
    7.1510  -14.1465   21.2235 C   0  0  0  0  0  0  0  0  0  0  0  0
    7.5717  -15.4551   21.8001 C   0  0  2  0  0  0  0  0  0  0  0  0
    7.3012  -15.5865   23.2036 N   0  0  0  0  0  0  0  0  0  0  0  0
    9.0146  -15.7605   21.4872 C   0  0  0  0  0  0  0  0  0  0  0  0
    9.3960  -16.0485   20.3276 O   0  0  0  0  0  0  0  0  0  0  0  0
    6.8549  -14.7793   18.9018 C   0  0  0  0  0  0  0  0  0  0  0  0
    7.0847  -14.6763   17.5564 C   0  0  0  0  0  0  0  0  0  0  0  0
   12.2984  -14.8378   22.5896 C   0  0  0  0  0  0  0  0  0  0  0  0
   11.4123  -16.0191   22.2787 C   0  0  2  0  0  0  0  0  0  0  0  0
   10.0142  -15.7358   22.4973 N   0  0  0  0  0  0  0  0  0  0  0  0
   11.8657  -17.2399   22.9501 C   0  0  0  0  0  0  0  0  0  0  0  0
   13.0897  -17.8516   22.6716 O   0  0  0  0  0  0  0  0  0  0  0  0
   11.1486  -17.7915   23.8224 O   0  0  0  0  0  0  0  0  0  0  0  0
  2  1  1  6
  3  4  1  0
  3  2  1  0
  4  5  2  0
  6  5  1  0
  7  6  1  0
  8  7  2  0
  9  8  1  0
 10  9  2  0
 10 11  1  0
 11 12  2  0
 12  7  1  0
 12  4  1  0
 13  2  1  0
 13 14  2  0
 15 16  1  0
 16 17  2  0
 17 18  1  0
 19 20  1  0
 19 18  2  0
 21 20  1  1
 21 22  1  0
 22 13  1  0
 23 21  1  0
 24 23  2  0
 25 19  1  0
 26 25  2  0
 26 16  1  0
 28 27  1  1
 28 29  1  0
 28 30  1  0
 29 23  1  0
 30 31  1  0
 32 30  2  0
M  END
$$$$
