WYA.pdb
     RDKit          3D

 32 34  0  0  1  0  0  0  0  0999 V2000
    6.7925  -19.3550   25.4816 N   0  0  0  0  0  0  0  0  0  0  0  0
    6.8425  -17.9193   25.3246 C   0  0  1  0  0  0  0  0  0  0  0  0
    7.5965  -17.2444   26.4470 C   0  0  0  0  0  0  0  0  0  0  0  0
    7.1895  -15.8461   26.6421 C   0  0  0  0  0  0  0  0  0  0  0  0
    5.9500  -15.2939   26.3584 C   0  0  0  0  0  0  0  0  0  0  0  0
    5.9685  -13.9889   26.6773 N   0  0  0  0  0  0  0  0  0  0  0  0
    7.1704  -13.6264   27.1674 C   0  0  0  0  0  0  0  0  0  0  0  0
    7.7047  -12.4448   27.6299 C   0  0  0  0  0  0  0  0  0  0  0  0
    9.0050  -12.4008   28.0768 C   0  0  0  0  0  0  0  0  0  0  0  0
    9.7938  -13.5569   28.0643 C   0  0  0  0  0  0  0  0  0  0  0  0
    9.2287  -14.7365   27.5920 C   0  0  0  0  0  0  0  0  0  0  0  0
    7.9354  -14.7997   27.1430 C   0  0  0  0  0  0  0  0  0  0  0  0
    7.3827  -17.5195   24.0081 C   0  0  0  0  0  0  0  0  0  0  0  0
    8.1612  -18.2530   23.3394 O   0  0  0  0  0  0  0  0  0  0  0  0
    8.2491  -13.1828   16.3852 O   0  0  0  0  0  0  0  0  0  0  0  0
    7.9664  -13.4686   17.6972 C   0  0  0  0  0  0  0  0  0  0  0  0
    8.3620  -12.6483   18.7517 C   0  0  0  0  0  0  0  0  0  0  0  0
    8.0607  -12.9687   20.0430 C   0  0  0  0  0  0  0  0  0  0  0  0
    7.3652  -14.0957   20.3566 C   0  0  0  0  0  0  0  0  0  0  0  0
    6.9976  -14.5196   21.7068 C   0  0  0  0  0  0  0  0  0  0  0  0
    7.4987  -15.8602   22.1232 C   0  0  2  0  0  0  0  0  0  0  0  0
    7.0478  -16.2723   23.4222 N   0  0  0  0  0  0  0  0  0  0  0  0
    8.9992  -15.9516   22.0075 C   0  0  0  0  0  0  0  0  0  0  0  0
    9.5735  -16.0725   20.8989 O   0  0  0  0  0  0  0  0  0  0  0  0
    6.9675  -14.9175   19.3153 C   0  0  0  0  0  0  0  0  0  0  0  0
    7.2573  -14.6183   18.0115 C   0  0  0  0  0  0  0  0  0  0  0  0
   11.8826  -15.1317   24.2721 C   0  0  0  0  0  0  0  0  0  0  0  0
   11.2790  -15.8999   23.1219 C   0  0  2  0  0  0  0  0  0  0  0  0
    9.8362  -15.9045   23.1551 N   0  0  0  0  0  0  0  0  0  0  0  0
   11.8576  -17.2395   22.9899 C   0  0  0  0  0  0  0  0  0  0  0  0
   13.2236  -17.4635   22.8062 O   0  0  0  0  0  0  0  0  0  0  0  0
   11.1237  -18.2585   23.0392 O   0  0  0  0  0  0  0  0  0  0  0  0
  2  1  1  1
  3  4  1  0
  3  2  1  0
  4  5  2  0
  6  5  1  0
  7  6  1  0
  8  7  2  0
  9  8  1  0
 10  9  2  0
 10 11  1  0
 11 12  2  0
 12  7  1  0
 12  4  1  0
 13  2  1  0
 13 14  2  0
 15 16  1  0
 16 17  2  0
 17 18  1  0
 19 20  1  0
 19 18  2  0
 21 20  1  1
 21 22  1  0
 22 13  1  0
 23 21  1  0
 24 23  2  0
 25 19  1  0
 26 25  2  0
 26 16  1  0
 28 27  1  1
 28 29  1  0
 28 30  1  0
 29 23  1  0
 30 31  1  0
 32 30  2  0
M  END
$$$$
