WYA.pdb
     RDKit          3D

 32 34  0  0  1  0  0  0  0  0999 V2000
   10.5005  -16.6628   17.2513 N   0  0  0  0  0  0  0  0  0  0  0  0
   11.1894  -15.9232   18.2841 C   0  0  1  0  0  0  0  0  0  0  0  0
   10.5633  -16.1187   19.6456 C   0  0  0  0  0  0  0  0  0  0  0  0
    9.2056  -15.5633   19.7298 C   0  0  0  0  0  0  0  0  0  0  0  0
    8.0247  -16.2739   19.8798 C   0  0  0  0  0  0  0  0  0  0  0  0
    6.9959  -15.4107   19.9183 N   0  0  0  0  0  0  0  0  0  0  0  0
    7.4255  -14.1387   19.8007 C   0  0  0  0  0  0  0  0  0  0  0  0
    6.8033  -12.9107   19.7802 C   0  0  0  0  0  0  0  0  0  0  0  0
    7.5454  -11.7606   19.6422 C   0  0  0  0  0  0  0  0  0  0  0  0
    8.9381  -11.8310   19.5216 C   0  0  0  0  0  0  0  0  0  0  0  0
    9.5403  -13.0843   19.5454 C   0  0  0  0  0  0  0  0  0  0  0  0
    8.8176  -14.2407   19.6822 C   0  0  0  0  0  0  0  0  0  0  0  0
   12.6359  -16.2256   18.3179 C   0  0  0  0  0  0  0  0  0  0  0  0
   13.1169  -17.3057   17.8785 O   0  0  0  0  0  0  0  0  0  0  0  0
   17.7435  -12.6924   14.1561 O   0  0  0  0  0  0  0  0  0  0  0  0
   17.2996  -13.1727   15.3623 C   0  0  0  0  0  0  0  0  0  0  0  0
   17.4236  -14.5093   15.7357 C   0  0  0  0  0  0  0  0  0  0  0  0
   16.9687  -14.9466   16.9452 C   0  0  0  0  0  0  0  0  0  0  0  0
   16.3776  -14.1029   17.8346 C   0  0  0  0  0  0  0  0  0  0  0  0
   15.8611  -14.4797   19.1495 C   0  0  0  0  0  0  0  0  0  0  0  0
   14.9278  -15.6418   19.1696 C   0  0  2  0  0  0  0  0  0  0  0  0
   13.5692  -15.3025   18.8544 N   0  0  0  0  0  0  0  0  0  0  0  0
   15.0175  -16.4024   20.4683 C   0  0  0  0  0  0  0  0  0  0  0  0
   14.8213  -15.8491   21.5767 O   0  0  0  0  0  0  0  0  0  0  0  0
   16.2498  -12.7723   17.4726 C   0  0  0  0  0  0  0  0  0  0  0  0
   16.6980  -12.3087   16.2653 C   0  0  0  0  0  0  0  0  0  0  0  0
   15.1741  -20.0529   21.4349 C   0  0  0  0  0  0  0  0  0  0  0  0
   15.4228  -18.5873   21.6948 C   0  0  2  0  0  0  0  0  0  0  0  0
   15.3301  -17.7886   20.4963 N   0  0  0  0  0  0  0  0  0  0  0  0
   16.6621  -18.3629   22.4435 C   0  0  0  0  0  0  0  0  0  0  0  0
   17.7092  -17.5740   21.9627 O   0  0  0  0  0  0  0  0  0  0  0  0
   16.8279  -18.8871   23.5736 O   0  0  0  0  0  0  0  0  0  0  0  0
  2  1  1  6
  3  4  1  0
  3  2  1  0
  4  5  2  0
  6  5  1  0
  7  6  1  0
  8  7  2  0
  9  8  1  0
 10  9  2  0
 10 11  1  0
 11 12  2  0
 12  7  1  0
 12  4  1  0
 13  2  1  0
 13 14  2  0
 15 16  1  0
 16 17  2  0
 17 18  1  0
 19 20  1  0
 19 18  2  0
 21 20  1  1
 21 22  1  0
 22 13  1  0
 23 21  1  0
 24 23  2  0
 25 19  1  0
 26 25  2  0
 26 16  1  0
 28 27  1  6
 28 29  1  0
 28 30  1  0
 29 23  1  0
 30 31  1  0
 32 30  2  0
M  END
$$$$
