WYA.pdb
     RDKit          3D

 32 34  0  0  1  0  0  0  0  0999 V2000
    7.5905  -19.1397   25.4803 N   0  0  0  0  0  0  0  0  0  0  0  0
    7.3920  -17.7303   25.2298 C   0  0  1  0  0  0  0  0  0  0  0  0
    7.9609  -16.8653   26.3306 C   0  0  0  0  0  0  0  0  0  0  0  0
    7.2273  -15.6029   26.4954 C   0  0  0  0  0  0  0  0  0  0  0  0
    5.8527  -15.4285   26.4511 C   0  0  0  0  0  0  0  0  0  0  0  0
    5.5693  -14.1301   26.6486 N   0  0  0  0  0  0  0  0  0  0  0  0
    6.6944  -13.4098   26.8261 C   0  0  0  0  0  0  0  0  0  0  0  0
    6.9584  -12.0786   27.0581 C   0  0  0  0  0  0  0  0  0  0  0  0
    8.2560  -11.6441   27.1979 C   0  0  0  0  0  0  0  0  0  0  0  0
    9.3170  -12.5523   27.1054 C   0  0  0  0  0  0  0  0  0  0  0  0
    9.0216  -13.8908   26.8705 C   0  0  0  0  0  0  0  0  0  0  0  0
    7.7354  -14.3421   26.7285 C   0  0  0  0  0  0  0  0  0  0  0  0
    7.9134  -17.3184   23.9095 C   0  0  0  0  0  0  0  0  0  0  0  0
    8.8089  -17.9635   23.2988 O   0  0  0  0  0  0  0  0  0  0  0  0
    8.4314  -13.0164   16.1491 O   0  0  0  0  0  0  0  0  0  0  0  0
    8.0781  -13.4563   17.3999 C   0  0  0  0  0  0  0  0  0  0  0  0
    7.4667  -14.6882   17.6232 C   0  0  0  0  0  0  0  0  0  0  0  0
    7.1311  -15.0884   18.8834 C   0  0  0  0  0  0  0  0  0  0  0  0
    7.3768  -14.3079   19.9709 C   0  0  0  0  0  0  0  0  0  0  0  0
    7.0534  -14.6520   21.3547 C   0  0  0  0  0  0  0  0  0  0  0  0
    7.8914  -15.7208   21.9687 C   0  0  2  0  0  0  0  0  0  0  0  0
    7.4256  -16.1596   23.2536 N   0  0  0  0  0  0  0  0  0  0  0  0
    9.3458  -15.3260   22.0165 C   0  0  0  0  0  0  0  0  0  0  0  0
    9.8107  -14.6146   22.9390 O   0  0  0  0  0  0  0  0  0  0  0  0
    7.9843  -13.0815   19.7592 C   0  0  0  0  0  0  0  0  0  0  0  0
    8.3307  -12.6571   18.5049 C   0  0  0  0  0  0  0  0  0  0  0  0
   11.8141  -13.8473   20.8568 C   0  0  0  0  0  0  0  0  0  0  0  0
   11.6466  -15.3445   20.9451 C   0  0  2  0  0  0  0  0  0  0  0  0
   10.2615  -15.7440   21.0131 N   0  0  0  0  0  0  0  0  0  0  0  0
   12.4688  -15.9293   22.0076 C   0  0  0  0  0  0  0  0  0  0  0  0
   13.8527  -15.7578   22.0801 O   0  0  0  0  0  0  0  0  0  0  0  0
   11.9413  -16.6230   22.9130 O   0  0  0  0  0  0  0  0  0  0  0  0
  2  1  1  1
  3  4  1  0
  3  2  1  0
  4  5  2  0
  6  5  1  0
  7  6  1  0
  8  7  2  0
  9  8  1  0
 10  9  2  0
 10 11  1  0
 11 12  2  0
 12  7  1  0
 12  4  1  0
 13  2  1  0
 13 14  2  0
 15 16  1  0
 16 17  2  0
 17 18  1  0
 19 20  1  0
 19 18  2  0
 21 20  1  1
 21 22  1  0
 22 13  1  0
 23 21  1  0
 24 23  2  0
 25 19  1  0
 26 25  2  0
 26 16  1  0
 28 27  1  1
 28 29  1  0
 28 30  1  0
 29 23  1  0
 30 31  1  0
 32 30  2  0
M  END
$$$$
