WYA.pdb
     RDKit          3D

 32 34  0  0  1  0  0  0  0  0999 V2000
    6.0730  -18.3542   24.0168 N   0  0  0  0  0  0  0  0  0  0  0  0
    6.7675  -17.0949   24.1584 C   0  0  1  0  0  0  0  0  0  0  0  0
    6.9244  -16.6846   25.6044 C   0  0  0  0  0  0  0  0  0  0  0  0
    6.5230  -15.2917   25.8448 C   0  0  0  0  0  0  0  0  0  0  0  0
    5.2367  -14.7771   25.7949 C   0  0  0  0  0  0  0  0  0  0  0  0
    5.2792  -13.4639   26.0761 N   0  0  0  0  0  0  0  0  0  0  0  0
    6.5423  -13.0600   26.3160 C   0  0  0  0  0  0  0  0  0  0  0  0
    7.1220  -11.8541   26.6407 C   0  0  0  0  0  0  0  0  0  0  0  0
    8.4823  -11.7671   26.8260 C   0  0  0  0  0  0  0  0  0  0  0  0
    9.2865  -12.9041   26.6857 C   0  0  0  0  0  0  0  0  0  0  0  0
    8.6748  -14.1090   26.3573 C   0  0  0  0  0  0  0  0  0  0  0  0
    7.3214  -14.2149   26.1689 C   0  0  0  0  0  0  0  0  0  0  0  0
    8.0720  -17.0948   23.4633 C   0  0  0  0  0  0  0  0  0  0  0  0
    8.6779  -18.1560   23.1507 O   0  0  0  0  0  0  0  0  0  0  0  0
    6.6379  -13.6398   17.5064 O   0  0  0  0  0  0  0  0  0  0  0  0
    7.5052  -13.8212   18.5541 C   0  0  0  0  0  0  0  0  0  0  0  0
    7.6538  -12.8924   19.5819 C   0  0  0  0  0  0  0  0  0  0  0  0
    8.5278  -13.1109   20.6062 C   0  0  0  0  0  0  0  0  0  0  0  0
    9.2883  -14.2378   20.6693 C   0  0  0  0  0  0  0  0  0  0  0  0
   10.2488  -14.5572   21.7245 C   0  0  0  0  0  0  0  0  0  0  0  0
    9.9992  -15.8269   22.4643 C   0  0  2  0  0  0  0  0  0  0  0  0
    8.7174  -15.8830   23.1080 N   0  0  0  0  0  0  0  0  0  0  0  0
   11.1142  -16.1330   23.4319 C   0  0  0  0  0  0  0  0  0  0  0  0
   12.3122  -16.1967   23.0658 O   0  0  0  0  0  0  0  0  0  0  0  0
    9.1477  -15.1672   19.6524 C   0  0  0  0  0  0  0  0  0  0  0  0
    8.2779  -14.9714   18.6138 C   0  0  0  0  0  0  0  0  0  0  0  0
   11.4033  -16.5165   27.2004 C   0  0  0  0  0  0  0  0  0  0  0  0
   11.8551  -16.7505   25.7796 C   0  0  2  0  0  0  0  0  0  0  0  0
   10.8578  -16.3647   24.8105 N   0  0  0  0  0  0  0  0  0  0  0  0
   12.3590  -18.1115   25.5787 C   0  0  0  0  0  0  0  0  0  0  0  0
   11.7126  -19.0508   24.7727 O   0  0  0  0  0  0  0  0  0  0  0  0
   13.4182  -18.4885   26.1403 O   0  0  0  0  0  0  0  0  0  0  0  0
  2  1  1  1
  3  4  1  0
  3  2  1  0
  4  5  2  0
  6  5  1  0
  7  6  1  0
  8  7  2  0
  9  8  1  0
 10  9  2  0
 10 11  1  0
 11 12  2  0
 12  7  1  0
 12  4  1  0
 13  2  1  0
 13 14  2  0
 15 16  1  0
 16 17  2  0
 17 18  1  0
 19 20  1  0
 19 18  2  0
 21 20  1  1
 21 22  1  0
 22 13  1  0
 23 21  1  0
 24 23  2  0
 25 19  1  0
 26 25  2  0
 26 16  1  0
 28 27  1  1
 28 29  1  0
 28 30  1  0
 29 23  1  0
 30 31  1  0
 32 30  2  0
M  END
$$$$
