WYA.pdb
     RDKit          3D

 32 34  0  0  1  0  0  0  0  0999 V2000
    6.7469  -18.0624   25.7142 N   0  0  0  0  0  0  0  0  0  0  0  0
    7.1259  -16.7722   25.1849 C   0  0  1  0  0  0  0  0  0  0  0  0
    8.3987  -16.2469   25.8077 C   0  0  0  0  0  0  0  0  0  0  0  0
    8.1477  -15.2258   26.8340 C   0  0  0  0  0  0  0  0  0  0  0  0
    8.4914  -15.2933   28.1753 C   0  0  0  0  0  0  0  0  0  0  0  0
    8.0958  -14.1640   28.7863 N   0  0  0  0  0  0  0  0  0  0  0  0
    7.4955  -13.3272   27.9171 C   0  0  0  0  0  0  0  0  0  0  0  0
    6.9253  -12.0783   28.0210 C   0  0  0  0  0  0  0  0  0  0  0  0
    6.3792  -11.4720   26.9134 C   0  0  0  0  0  0  0  0  0  0  0  0
    6.3997  -12.1206   25.6733 C   0  0  0  0  0  0  0  0  0  0  0  0
    6.9819  -13.3812   25.5970 C   0  0  0  0  0  0  0  0  0  0  0  0
    7.5308  -14.0008   26.6893 C   0  0  0  0  0  0  0  0  0  0  0  0
    7.2217  -16.7793   23.7099 C   0  0  0  0  0  0  0  0  0  0  0  0
    7.5391  -17.8079   23.0524 O   0  0  0  0  0  0  0  0  0  0  0  0
    8.6483  -13.4437   15.6560 O   0  0  0  0  0  0  0  0  0  0  0  0
    8.2586  -13.5805   16.9646 C   0  0  0  0  0  0  0  0  0  0  0  0
    8.6914  -12.7249   17.9755 C   0  0  0  0  0  0  0  0  0  0  0  0
    8.2801  -12.8955   19.2649 C   0  0  0  0  0  0  0  0  0  0  0  0
    7.4348  -13.9018   19.6189 C   0  0  0  0  0  0  0  0  0  0  0  0
    6.9418  -14.1619   20.9706 C   0  0  0  0  0  0  0  0  0  0  0  0
    7.4390  -15.4126   21.6113 C   0  0  2  0  0  0  0  0  0  0  0  0
    6.9577  -15.6122   22.9488 N   0  0  0  0  0  0  0  0  0  0  0  0
    8.9423  -15.5081   21.5478 C   0  0  0  0  0  0  0  0  0  0  0  0
    9.6754  -15.0582   22.4607 O   0  0  0  0  0  0  0  0  0  0  0  0
    6.9990  -14.7574   18.6210 C   0  0  0  0  0  0  0  0  0  0  0  0
    7.3970  -14.6076   17.3200 C   0  0  0  0  0  0  0  0  0  0  0  0
   11.6048  -17.0050   21.5529 C   0  0  0  0  0  0  0  0  0  0  0  0
   11.0278  -16.3103   20.3438 C   0  0  2  0  0  0  0  0  0  0  0  0
    9.6013  -16.1157   20.4448 N   0  0  0  0  0  0  0  0  0  0  0  0
   11.4353  -16.9533   19.0920 C   0  0  0  0  0  0  0  0  0  0  0  0
   12.7717  -17.1270   18.7259 O   0  0  0  0  0  0  0  0  0  0  0  0
   10.5724  -17.3814   18.2848 O   0  0  0  0  0  0  0  0  0  0  0  0
  2  1  1  1
  3  4  1  0
  3  2  1  0
  4  5  2  0
  6  5  1  0
  7  6  1  0
  8  7  2  0
  9  8  1  0
 10  9  2  0
 10 11  1  0
 11 12  2  0
 12  7  1  0
 12  4  1  0
 13  2  1  0
 13 14  2  0
 15 16  1  0
 16 17  2  0
 17 18  1  0
 19 20  1  0
 19 18  2  0
 21 20  1  1
 21 22  1  0
 22 13  1  0
 23 21  1  0
 24 23  2  0
 25 19  1  0
 26 25  2  0
 26 16  1  0
 28 27  1  1
 28 29  1  0
 28 30  1  0
 29 23  1  0
 30 31  1  0
 32 30  2  0
M  END
$$$$
