WYA.pdb
     RDKit          3D

 32 34  0  0  1  0  0  0  0  0999 V2000
    5.9600  -18.2559   23.5035 N   0  0  0  0  0  0  0  0  0  0  0  0
    6.7292  -17.0670   23.7919 C   0  0  1  0  0  0  0  0  0  0  0  0
    6.8914  -16.8334   25.2761 C   0  0  0  0  0  0  0  0  0  0  0  0
    6.4545  -15.4928   25.6896 C   0  0  0  0  0  0  0  0  0  0  0  0
    5.1501  -15.0285   25.7593 C   0  0  0  0  0  0  0  0  0  0  0  0
    5.1610  -13.7536   26.1831 N   0  0  0  0  0  0  0  0  0  0  0  0
    6.4200  -13.3275   26.4061 C   0  0  0  0  0  0  0  0  0  0  0  0
    6.9731  -12.1421   26.8355 C   0  0  0  0  0  0  0  0  0  0  0  0
    8.3373  -12.0208   26.9640 C   0  0  0  0  0  0  0  0  0  0  0  0
    9.1725  -13.1018   26.6591 C   0  0  0  0  0  0  0  0  0  0  0  0
    8.5872  -14.2872   26.2277 C   0  0  0  0  0  0  0  0  0  0  0  0
    7.2304  -14.4266   26.0936 C   0  0  0  0  0  0  0  0  0  0  0  0
    8.0406  -17.0705   23.1099 C   0  0  0  0  0  0  0  0  0  0  0  0
    8.5561  -18.1166   22.6293 O   0  0  0  0  0  0  0  0  0  0  0  0
    6.5827  -13.4964   17.4455 O   0  0  0  0  0  0  0  0  0  0  0  0
    7.4704  -13.7116   18.4694 C   0  0  0  0  0  0  0  0  0  0  0  0
    7.5581  -12.8772   19.5818 C   0  0  0  0  0  0  0  0  0  0  0  0
    8.4552  -13.1264   20.5788 C   0  0  0  0  0  0  0  0  0  0  0  0
    9.2986  -14.1935   20.5317 C   0  0  0  0  0  0  0  0  0  0  0  0
   10.2898  -14.5392   21.5495 C   0  0  0  0  0  0  0  0  0  0  0  0
   10.0550  -15.8214   22.2724 C   0  0  2  0  0  0  0  0  0  0  0  0
    8.7961  -15.8799   22.9597 N   0  0  0  0  0  0  0  0  0  0  0  0
   11.2006  -16.1562   23.1937 C   0  0  0  0  0  0  0  0  0  0  0  0
   12.3963  -15.9870   22.8549 O   0  0  0  0  0  0  0  0  0  0  0  0
    9.2191  -15.0288   19.4300 C   0  0  0  0  0  0  0  0  0  0  0  0
    8.3278  -14.8005   18.4166 C   0  0  0  0  0  0  0  0  0  0  0  0
   11.5467  -16.9856   26.8649 C   0  0  0  0  0  0  0  0  0  0  0  0
   12.0180  -17.0303   25.4320 C   0  0  2  0  0  0  0  0  0  0  0  0
   10.9770  -16.6815   24.4953 N   0  0  0  0  0  0  0  0  0  0  0  0
   12.6840  -18.2950   25.1101 C   0  0  0  0  0  0  0  0  0  0  0  0
   13.8509  -18.7237   25.7461 O   0  0  0  0  0  0  0  0  0  0  0  0
   12.2142  -19.0562   24.2273 O   0  0  0  0  0  0  0  0  0  0  0  0
  2  1  1  1
  3  4  1  0
  3  2  1  0
  4  5  2  0
  6  5  1  0
  7  6  1  0
  8  7  2  0
  9  8  1  0
 10  9  2  0
 10 11  1  0
 11 12  2  0
 12  7  1  0
 12  4  1  0
 13  2  1  0
 13 14  2  0
 15 16  1  0
 16 17  2  0
 17 18  1  0
 19 20  1  0
 19 18  2  0
 21 20  1  1
 21 22  1  0
 22 13  1  0
 23 21  1  0
 24 23  2  0
 25 19  1  0
 26 25  2  0
 26 16  1  0
 28 27  1  1
 28 29  1  0
 28 30  1  0
 29 23  1  0
 30 31  1  0
 32 30  2  0
M  END
$$$$
