WYA.pdb
     RDKit          3D

 32 34  0  0  1  0  0  0  0  0999 V2000
    7.2495  -17.7862   23.5838 N   0  0  0  0  0  0  0  0  0  0  0  0
    8.0561  -16.5936   23.4597 C   0  0  1  0  0  0  0  0  0  0  0  0
    8.4603  -16.0309   24.8028 C   0  0  0  0  0  0  0  0  0  0  0  0
    7.3686  -15.3025   25.4635 C   0  0  0  0  0  0  0  0  0  0  0  0
    6.1885  -15.8397   25.9543 C   0  0  0  0  0  0  0  0  0  0  0  0
    5.4478  -14.8544   26.4890 N   0  0  0  0  0  0  0  0  0  0  0  0
    6.0737  -13.6655   26.3837 C   0  0  0  0  0  0  0  0  0  0  0  0
    5.7627  -12.3777   26.7582 C   0  0  0  0  0  0  0  0  0  0  0  0
    6.6406  -11.3504   26.5006 C   0  0  0  0  0  0  0  0  0  0  0  0
    7.8562  -11.6075   25.8560 C   0  0  0  0  0  0  0  0  0  0  0  0
    8.1446  -12.9174   25.4888 C   0  0  0  0  0  0  0  0  0  0  0  0
    7.2826  -13.9535   25.7371 C   0  0  0  0  0  0  0  0  0  0  0  0
    9.2374  -16.8050   22.5968 C   0  0  0  0  0  0  0  0  0  0  0  0
    9.8558  -17.9032   22.5448 O   0  0  0  0  0  0  0  0  0  0  0  0
   15.9830  -15.0663   17.1333 O   0  0  0  0  0  0  0  0  0  0  0  0
   14.8532  -14.9478   17.9029 C   0  0  0  0  0  0  0  0  0  0  0  0
   14.8076  -14.1817   19.0657 C   0  0  0  0  0  0  0  0  0  0  0  0
   13.6634  -14.0901   19.8029 C   0  0  0  0  0  0  0  0  0  0  0  0
   12.5237  -14.7383   19.4381 C   0  0  0  0  0  0  0  0  0  0  0  0
   11.2545  -14.6995   20.1630 C   0  0  0  0  0  0  0  0  0  0  0  0
   10.9993  -15.8441   21.0830 C   0  0  2  0  0  0  0  0  0  0  0  0
    9.7423  -15.7679   21.7718 N   0  0  0  0  0  0  0  0  0  0  0  0
   12.1422  -16.0473   22.0451 C   0  0  0  0  0  0  0  0  0  0  0  0
   12.2890  -15.3290   23.0629 O   0  0  0  0  0  0  0  0  0  0  0  0
   12.5590  -15.5023   18.2836 C   0  0  0  0  0  0  0  0  0  0  0  0
   13.6943  -15.6104   17.5266 C   0  0  0  0  0  0  0  0  0  0  0  0
   14.0770  -18.6687   23.4341 C   0  0  0  0  0  0  0  0  0  0  0  0
   14.2156  -17.3416   22.7291 C   0  0  2  0  0  0  0  0  0  0  0  0
   13.1107  -17.0675   21.8421 N   0  0  0  0  0  0  0  0  0  0  0  0
   15.5232  -17.1937   22.0850 C   0  0  0  0  0  0  0  0  0  0  0  0
   16.7236  -17.1662   22.7979 O   0  0  0  0  0  0  0  0  0  0  0  0
   15.6099  -17.0837   20.8361 O   0  0  0  0  0  0  0  0  0  0  0  0
  2  1  1  1
  3  4  1  0
  3  2  1  0
  4  5  2  0
  6  5  1  0
  7  6  1  0
  8  7  2  0
  9  8  1  0
 10  9  2  0
 10 11  1  0
 11 12  2  0
 12  7  1  0
 12  4  1  0
 13  2  1  0
 13 14  2  0
 15 16  1  0
 16 17  2  0
 17 18  1  0
 19 20  1  0
 19 18  2  0
 21 20  1  1
 21 22  1  0
 22 13  1  0
 23 21  1  0
 24 23  2  0
 25 19  1  0
 26 25  2  0
 26 16  1  0
 28 27  1  6
 28 29  1  0
 28 30  1  0
 29 23  1  0
 30 31  1  0
 32 30  2  0
M  END
$$$$
