WYA.pdb
     RDKit          3D

 32 34  0  0  1  0  0  0  0  0999 V2000
    6.1674  -18.8711   24.4375 N   0  0  0  0  0  0  0  0  0  0  0  0
    6.5472  -17.4779   24.4934 C   0  0  1  0  0  0  0  0  0  0  0  0
    6.8237  -17.0138   25.9048 C   0  0  0  0  0  0  0  0  0  0  0  0
    6.4657  -15.6048   26.1181 C   0  0  0  0  0  0  0  0  0  0  0  0
    5.2104  -15.0349   25.9721 C   0  0  0  0  0  0  0  0  0  0  0  0
    5.2880  -13.7247   26.2596 N   0  0  0  0  0  0  0  0  0  0  0  0
    6.5455  -13.3758   26.5961 C   0  0  0  0  0  0  0  0  0  0  0  0
    7.1502  -12.1961   26.9676 C   0  0  0  0  0  0  0  0  0  0  0  0
    8.4950  -12.1681   27.2560 C   0  0  0  0  0  0  0  0  0  0  0  0
    9.2577  -13.3388   27.1739 C   0  0  0  0  0  0  0  0  0  0  0  0
    8.6213  -14.5162   26.7963 C   0  0  0  0  0  0  0  0  0  0  0  0
    7.2829  -14.5634   26.5052 C   0  0  0  0  0  0  0  0  0  0  0  0
    7.6868  -17.1731   23.6028 C   0  0  0  0  0  0  0  0  0  0  0  0
    8.4406  -18.0671   23.1300 O   0  0  0  0  0  0  0  0  0  0  0  0
    7.0952  -13.7820   16.4401 O   0  0  0  0  0  0  0  0  0  0  0  0
    7.5323  -13.9162   17.7338 C   0  0  0  0  0  0  0  0  0  0  0  0
    7.3534  -15.0824   18.4750 C   0  0  0  0  0  0  0  0  0  0  0  0
    7.8033  -15.1751   19.7595 C   0  0  0  0  0  0  0  0  0  0  0  0
    8.4423  -14.1400   20.3699 C   0  0  0  0  0  0  0  0  0  0  0  0
    8.9574  -14.1473   21.7383 C   0  0  0  0  0  0  0  0  0  0  0  0
    9.0910  -15.4896   22.3724 C   0  0  2  0  0  0  0  0  0  0  0  0
    7.9945  -15.8399   23.2300 N   0  0  0  0  0  0  0  0  0  0  0  0
   10.4131  -15.6385   23.0818 C   0  0  0  0  0  0  0  0  0  0  0  0
   11.5069  -15.5083   22.4818 O   0  0  0  0  0  0  0  0  0  0  0  0
    8.6250  -12.9766   19.6414 C   0  0  0  0  0  0  0  0  0  0  0  0
    8.1831  -12.8585   18.3513 C   0  0  0  0  0  0  0  0  0  0  0  0
   11.5656  -15.7030   26.6617 C   0  0  0  0  0  0  0  0  0  0  0  0
   11.7045  -16.1105   25.2153 C   0  0  2  0  0  0  0  0  0  0  0  0
   10.4811  -15.9346   24.4702 N   0  0  0  0  0  0  0  0  0  0  0  0
   12.2793  -17.4506   25.0731 C   0  0  0  0  0  0  0  0  0  0  0  0
   11.6663  -18.4672   24.3377 O   0  0  0  0  0  0  0  0  0  0  0  0
   13.3724  -17.7371   25.6230 O   0  0  0  0  0  0  0  0  0  0  0  0
  2  1  1  1
  3  4  1  0
  3  2  1  0
  4  5  2  0
  6  5  1  0
  7  6  1  0
  8  7  2  0
  9  8  1  0
 10  9  2  0
 10 11  1  0
 11 12  2  0
 12  7  1  0
 12  4  1  0
 13  2  1  0
 13 14  2  0
 15 16  1  0
 16 17  2  0
 17 18  1  0
 19 20  1  0
 19 18  2  0
 21 20  1  1
 21 22  1  0
 22 13  1  0
 23 21  1  0
 24 23  2  0
 25 19  1  0
 26 25  2  0
 26 16  1  0
 28 27  1  1
 28 29  1  0
 28 30  1  0
 29 23  1  0
 30 31  1  0
 32 30  2  0
M  END
$$$$
