EQP.pdb
     RDKit          3D

 26 26  0  0  1  0  0  0  0  0999 V2000
   28.1963  -22.2469  -16.7282 N   0  0  0  0  0  0  0  0  0  0  0  0
   27.7137  -21.0889  -15.9481 C   0  0  1  0  0  0  0  0  0  0  0  0
   27.5216  -19.9845  -16.9251 C   0  0  0  0  0  0  0  0  0  0  0  0
   27.7588  -20.4381  -18.3250 C   0  0  0  0  0  0  0  0  0  0  0  0
   28.5642  -19.5221  -19.1526 C   0  0  0  0  0  0  0  0  0  0  0  0
   29.0522  -18.4574  -18.7543 O   0  0  0  0  0  0  0  0  0  0  0  0
   26.5076  -21.4912  -15.2009 C   0  0  0  0  0  0  0  0  0  0  0  0
   25.7232  -22.3983  -15.5879 O   0  0  0  0  0  0  0  0  0  0  0  0
   28.8122  -19.8546  -20.4928 O   0  0  0  0  0  0  0  0  0  0  0  0
   25.6722  -21.1772   -9.3723 N   0  0  0  0  0  0  0  0  0  0  0  0
   24.2746  -21.0628   -9.6700 C   0  0  0  0  0  0  0  0  0  0  0  0
   23.4227  -21.3054   -8.7863 O   0  0  0  0  0  0  0  0  0  0  0  0
   23.8581  -20.6542  -11.0363 C   0  0  0  0  0  0  0  0  0  0  0  0
   25.1027  -20.4711  -11.8731 C   0  0  0  0  0  0  0  0  0  0  0  0
   24.9641  -21.1593  -13.2396 C   0  0  2  0  0  0  0  0  0  0  0  0
   26.1975  -20.8370  -13.9834 N   0  0  0  0  0  0  0  0  0  0  0  0
   23.8412  -20.5033  -13.9356 C   0  0  0  0  0  0  0  0  0  0  0  0
   24.0752  -19.3310  -14.4093 O   0  0  0  0  0  0  0  0  0  0  0  0
   22.5505  -21.0377  -14.1285 N   0  0  0  0  0  0  0  0  0  0  0  0
   22.0972  -22.3010  -13.5017 C   0  0  0  0  0  0  0  0  0  0  0  0
   21.3189  -23.0084  -14.5829 C   0  0  0  0  0  0  0  0  0  0  0  0
   20.8239  -21.8831  -15.4743 C   0  0  0  0  0  0  0  0  0  0  0  0
   21.4033  -20.6043  -14.8564 C   0  0  1  0  0  0  0  0  0  0  0  0
   20.3384  -20.0559  -13.9418 C   0  0  0  0  0  0  0  0  0  0  0  0
   20.5527  -20.1070  -12.5719 O   0  0  0  0  0  0  0  0  0  0  0  0
   19.2820  -19.5635  -14.3927 O   0  0  0  0  0  0  0  0  0  0  0  0
  2  1  1  6
  2  3  1  0
  3  4  1  0
  4  5  1  0
  5  6  2  0
  5  9  1  0
  7 16  1  0
  7  2  1  0
  8  7  2  0
 10 11  1  0
 11 12  2  0
 11 13  1  0
 13 14  1  0
 15 14  1  1
 15 16  1  0
 17 15  1  0
 17 18  2  0
 19 17  1  0
 20 19  1  0
 21 20  1  0
 21 22  1  0
 23 22  1  0
 23 19  1  0
 23 24  1  1
 25 24  1  0
 26 24  2  0
M  END
$$$$
