EQP.pdb
     RDKit          3D

 26 26  0  0  1  0  0  0  0  0999 V2000
   29.7984  -23.0232  -17.1501 N   0  0  0  0  0  0  0  0  0  0  0  0
   28.8258  -22.0277  -17.6455 C   0  0  1  0  0  0  0  0  0  0  0  0
   28.1452  -22.6586  -18.8072 C   0  0  0  0  0  0  0  0  0  0  0  0
   27.1913  -23.7207  -18.3784 C   0  0  0  0  0  0  0  0  0  0  0  0
   26.4221  -24.3492  -19.4675 C   0  0  0  0  0  0  0  0  0  0  0  0
   25.4962  -25.1530  -19.3034 O   0  0  0  0  0  0  0  0  0  0  0  0
   27.9437  -21.6331  -16.5316 C   0  0  0  0  0  0  0  0  0  0  0  0
   28.0915  -22.0470  -15.3506 O   0  0  0  0  0  0  0  0  0  0  0  0
   26.7398  -24.0325  -20.7967 O   0  0  0  0  0  0  0  0  0  0  0  0
   22.8685  -18.6608  -17.2512 N   0  0  0  0  0  0  0  0  0  0  0  0
   23.0251  -18.2402  -15.8899 C   0  0  0  0  0  0  0  0  0  0  0  0
   22.0648  -17.7205  -15.2790 O   0  0  0  0  0  0  0  0  0  0  0  0
   24.3382  -18.4308  -15.2214 C   0  0  0  0  0  0  0  0  0  0  0  0
   25.3034  -19.0024  -16.2335 C   0  0  0  0  0  0  0  0  0  0  0  0
   26.0308  -20.2361  -15.6779 C   0  0  2  0  0  0  0  0  0  0  0  0
   26.8696  -20.7439  -16.7810 N   0  0  0  0  0  0  0  0  0  0  0  0
   24.9976  -21.2519  -15.4015 C   0  0  0  0  0  0  0  0  0  0  0  0
   24.5617  -21.9081  -16.4178 O   0  0  0  0  0  0  0  0  0  0  0  0
   24.4513  -21.5670  -14.1401 N   0  0  0  0  0  0  0  0  0  0  0  0
   24.8199  -20.8491  -12.8980 C   0  0  0  0  0  0  0  0  0  0  0  0
   24.9442  -21.9293  -11.8526 C   0  0  0  0  0  0  0  0  0  0  0  0
   24.0329  -23.0343  -12.3571 C   0  0  0  0  0  0  0  0  0  0  0  0
   23.4863  -22.5175  -13.6939 C   0  0  1  0  0  0  0  0  0  0  0  0
   22.1633  -21.8646  -13.3863 C   0  0  0  0  0  0  0  0  0  0  0  0
   21.0520  -22.6754  -13.2049 O   0  0  0  0  0  0  0  0  0  0  0  0
   22.0548  -20.6231  -13.2938 O   0  0  0  0  0  0  0  0  0  0  0  0
  2  1  1  1
  2  3  1  0
  3  4  1  0
  4  5  1  0
  5  6  2  0
  5  9  1  0
  7 16  1  0
  7  2  1  0
  8  7  2  0
 10 11  1  0
 11 12  2  0
 11 13  1  0
 13 14  1  0
 15 14  1  6
 15 16  1  0
 17 15  1  0
 17 18  2  0
 19 17  1  0
 20 19  1  0
 21 20  1  0
 21 22  1  0
 23 22  1  0
 23 19  1  0
 23 24  1  1
 25 24  1  0
 26 24  2  0
M  END
$$$$
