EQP.pdb
     RDKit          3D

 26 26  0  0  1  0  0  0  0  0999 V2000
   20.3963  -20.4146  -14.6040 N   0  0  0  0  0  0  0  0  0  0  0  0
   21.1453  -20.1441  -15.8482 C   0  0  1  0  0  0  0  0  0  0  0  0
   20.3348  -19.1586  -16.6117 C   0  0  0  0  0  0  0  0  0  0  0  0
   18.8888  -19.2421  -16.2600 C   0  0  0  0  0  0  0  0  0  0  0  0
   17.9574  -19.0143  -17.3795 C   0  0  0  0  0  0  0  0  0  0  0  0
   18.2999  -18.7555  -18.5397 O   0  0  0  0  0  0  0  0  0  0  0  0
   22.5081  -19.7057  -15.4943 C   0  0  0  0  0  0  0  0  0  0  0  0
   22.8682  -18.4981  -15.4896 O   0  0  0  0  0  0  0  0  0  0  0  0
   16.5766  -19.0898  -17.1432 O   0  0  0  0  0  0  0  0  0  0  0  0
   25.7929  -22.1567  -11.1280 N   0  0  0  0  0  0  0  0  0  0  0  0
   24.7410  -21.1851  -11.0618 C   0  0  0  0  0  0  0  0  0  0  0  0
   24.1704  -20.9509   -9.9732 O   0  0  0  0  0  0  0  0  0  0  0  0
   24.3429  -20.4660  -12.2994 C   0  0  0  0  0  0  0  0  0  0  0  0
   25.1527  -21.0210  -13.4478 C   0  0  0  0  0  0  0  0  0  0  0  0
   24.8464  -20.2795  -14.7579 C   0  0  2  0  0  0  0  0  0  0  0  0
   23.4766  -20.6761  -15.1382 N   0  0  0  0  0  0  0  0  0  0  0  0
   25.7647  -20.8193  -15.7782 C   0  0  0  0  0  0  0  0  0  0  0  0
   25.2866  -21.7356  -16.5432 O   0  0  0  0  0  0  0  0  0  0  0  0
   27.1025  -20.4265  -15.9905 N   0  0  0  0  0  0  0  0  0  0  0  0
   27.8416  -19.5407  -15.0615 C   0  0  0  0  0  0  0  0  0  0  0  0
   28.6140  -18.6041  -15.9567 C   0  0  0  0  0  0  0  0  0  0  0  0
   28.7985  -19.3934  -17.2408 C   0  0  0  0  0  0  0  0  0  0  0  0
   28.0673  -20.7199  -16.9990 C   0  0  1  0  0  0  0  0  0  0  0  0
   29.1075  -21.6933  -16.5075 C   0  0  0  0  0  0  0  0  0  0  0  0
   30.0630  -22.1492  -17.4044 O   0  0  0  0  0  0  0  0  0  0  0  0
   29.1215  -22.0893  -15.3223 O   0  0  0  0  0  0  0  0  0  0  0  0
  2  1  1  1
  2  3  1  0
  3  4  1  0
  4  5  1  0
  5  6  2  0
  5  9  1  0
  7 16  1  0
  7  2  1  0
  8  7  2  0
 10 11  1  0
 11 12  2  0
 11 13  1  0
 13 14  1  0
 15 14  1  1
 15 16  1  0
 17 15  1  0
 17 18  2  0
 19 17  1  0
 20 19  1  0
 21 20  1  0
 21 22  1  0
 23 22  1  0
 23 19  1  0
 23 24  1  1
 25 24  1  0
 26 24  2  0
M  END
$$$$
