EQP.pdb
     RDKit          3D

 26 26  0  0  1  0  0  0  0  0999 V2000
   26.7550  -21.0055  -19.9763 N   0  0  0  0  0  0  0  0  0  0  0  0
   27.4691  -21.4564  -18.7642 C   0  0  1  0  0  0  0  0  0  0  0  0
   28.9172  -21.4139  -19.0986 C   0  0  0  0  0  0  0  0  0  0  0  0
   29.4001  -22.7206  -19.6288 C   0  0  0  0  0  0  0  0  0  0  0  0
   29.4759  -23.8094  -18.6381 C   0  0  0  0  0  0  0  0  0  0  0  0
   30.1223  -23.7598  -17.5845 O   0  0  0  0  0  0  0  0  0  0  0  0
   27.0554  -20.6105  -17.6292 C   0  0  0  0  0  0  0  0  0  0  0  0
   27.4511  -19.4250  -17.4683 O   0  0  0  0  0  0  0  0  0  0  0  0
   28.7748  -25.0003  -18.8797 O   0  0  0  0  0  0  0  0  0  0  0  0
   21.7455  -19.3631  -15.8674 N   0  0  0  0  0  0  0  0  0  0  0  0
   22.5515  -19.1522  -17.0338 C   0  0  0  0  0  0  0  0  0  0  0  0
   22.0322  -18.7153  -18.0850 O   0  0  0  0  0  0  0  0  0  0  0  0
   24.0038  -19.4592  -16.9735 C   0  0  0  0  0  0  0  0  0  0  0  0
   24.3076  -20.0338  -15.6096 C   0  0  0  0  0  0  0  0  0  0  0  0
   25.8012  -20.3607  -15.4604 C   0  0  2  0  0  0  0  0  0  0  0  0
   26.1683  -21.1388  -16.6596 N   0  0  0  0  0  0  0  0  0  0  0  0
   25.9276  -21.2551  -14.2944 C   0  0  0  0  0  0  0  0  0  0  0  0
   25.5207  -22.4635  -14.4602 O   0  0  0  0  0  0  0  0  0  0  0  0
   26.4490  -20.9116  -13.0299 N   0  0  0  0  0  0  0  0  0  0  0  0
   26.9964  -19.5707  -12.7188 C   0  0  0  0  0  0  0  0  0  0  0  0
   28.2313  -19.8414  -11.8961 C   0  0  0  0  0  0  0  0  0  0  0  0
   27.9537  -21.1874  -11.2503 C   0  0  0  0  0  0  0  0  0  0  0  0
   26.5852  -21.6141  -11.7963 C   0  0  1  0  0  0  0  0  0  0  0  0
   25.5654  -21.1620  -10.7829 C   0  0  0  0  0  0  0  0  0  0  0  0
   25.4027  -21.9132   -9.6277 O   0  0  0  0  0  0  0  0  0  0  0  0
   24.8752  -20.1363  -10.9656 O   0  0  0  0  0  0  0  0  0  0  0  0
  2  1  1  6
  2  3  1  0
  3  4  1  0
  4  5  1  0
  5  6  2  0
  5  9  1  0
  7 16  1  0
  7  2  1  0
  8  7  2  0
 10 11  1  0
 11 12  2  0
 11 13  1  0
 13 14  1  0
 15 14  1  6
 15 16  1  0
 17 15  1  0
 17 18  2  0
 19 17  1  0
 20 19  1  0
 21 20  1  0
 21 22  1  0
 23 22  1  0
 23 19  1  0
 23 24  1  1
 25 24  1  0
 26 24  2  0
M  END
$$$$
