EQP.pdb
     RDKit          3D

 26 26  0  0  1  0  0  0  0  0999 V2000
   26.7964  -23.5191  -17.0135 N   0  0  0  0  0  0  0  0  0  0  0  0
   27.8047  -22.7165  -16.2914 C   0  0  1  0  0  0  0  0  0  0  0  0
   28.7144  -22.1652  -17.3304 C   0  0  0  0  0  0  0  0  0  0  0  0
   27.9883  -21.2844  -18.2890 C   0  0  0  0  0  0  0  0  0  0  0  0
   28.7226  -20.0781  -18.7113 C   0  0  0  0  0  0  0  0  0  0  0  0
   28.3093  -18.9195  -18.5800 O   0  0  0  0  0  0  0  0  0  0  0  0
   27.1077  -21.7152  -15.4630 C   0  0  0  0  0  0  0  0  0  0  0  0
   27.7058  -20.9043  -14.7063 O   0  0  0  0  0  0  0  0  0  0  0  0
   29.9839  -20.2223  -19.3082 O   0  0  0  0  0  0  0  0  0  0  0  0
   21.2810  -20.4704  -16.0952 N   0  0  0  0  0  0  0  0  0  0  0  0
   21.5779  -19.3815  -15.2115 C   0  0  0  0  0  0  0  0  0  0  0  0
   20.6512  -18.6873  -14.7374 O   0  0  0  0  0  0  0  0  0  0  0  0
   22.9950  -19.0936  -14.8705 C   0  0  0  0  0  0  0  0  0  0  0  0
   23.8671  -20.0830  -15.6076 C   0  0  0  0  0  0  0  0  0  0  0  0
   24.9560  -20.6604  -14.6905 C   0  0  2  0  0  0  0  0  0  0  0  0
   25.6936  -21.6448  -15.5060 N   0  0  0  0  0  0  0  0  0  0  0  0
   24.2629  -21.4007  -13.6194 C   0  0  0  0  0  0  0  0  0  0  0  0
   23.7788  -22.5468  -13.9443 O   0  0  0  0  0  0  0  0  0  0  0  0
   24.0859  -20.9732  -12.2872 N   0  0  0  0  0  0  0  0  0  0  0  0
   24.6591  -19.7131  -11.7602 C   0  0  0  0  0  0  0  0  0  0  0  0
   25.1663  -20.0676  -10.3846 C   0  0  0  0  0  0  0  0  0  0  0  0
   24.2993  -21.2419   -9.9657 C   0  0  0  0  0  0  0  0  0  0  0  0
   23.3824  -21.5057  -11.1668 C   0  0  1  0  0  0  0  0  0  0  0  0
   22.1068  -20.7489  -10.8998 C   0  0  0  0  0  0  0  0  0  0  0  0
   21.2114  -21.2670   -9.9751 O   0  0  0  0  0  0  0  0  0  0  0  0
   21.8482  -19.6782  -11.4902 O   0  0  0  0  0  0  0  0  0  0  0  0
  2  1  1  6
  2  3  1  0
  3  4  1  0
  4  5  1  0
  5  6  2  0
  5  9  1  0
  7 16  1  0
  7  2  1  0
  8  7  2  0
 10 11  1  0
 11 12  2  0
 11 13  1  0
 13 14  1  0
 15 14  1  6
 15 16  1  0
 17 15  1  0
 17 18  2  0
 19 17  1  0
 20 19  1  0
 21 20  1  0
 21 22  1  0
 23 22  1  0
 23 19  1  0
 23 24  1  1
 25 24  1  0
 26 24  2  0
M  END
$$$$
