EQP.pdb
     RDKit          3D

 26 26  0  0  1  0  0  0  0  0999 V2000
   17.5757  -12.2554  -15.1759 N   0  0  0  0  0  0  0  0  0  0  0  0
   17.5343  -10.9658  -15.8952 C   0  0  1  0  0  0  0  0  0  0  0  0
   16.2308  -10.3408  -15.5468 C   0  0  0  0  0  0  0  0  0  0  0  0
   15.0995  -10.9788  -16.2781 C   0  0  0  0  0  0  0  0  0  0  0  0
   13.7855  -10.3411  -16.0790 C   0  0  0  0  0  0  0  0  0  0  0  0
   13.5643   -9.4145  -15.2899 O   0  0  0  0  0  0  0  0  0  0  0  0
   18.7300  -10.1828  -15.5319 C   0  0  0  0  0  0  0  0  0  0  0  0
   19.0901   -9.9799  -14.3415 O   0  0  0  0  0  0  0  0  0  0  0  0
   12.6875  -10.7962  -16.8242 O   0  0  0  0  0  0  0  0  0  0  0  0
   23.6826  -10.4858  -16.7563 N   0  0  0  0  0  0  0  0  0  0  0  0
   23.9998   -9.0935  -16.8806 C   0  0  0  0  0  0  0  0  0  0  0  0
   25.1700   -8.6964  -16.6843 O   0  0  0  0  0  0  0  0  0  0  0  0
   22.9228   -8.1368  -17.2440 C   0  0  0  0  0  0  0  0  0  0  0  0
   21.6479   -8.9201  -17.4533 C   0  0  0  0  0  0  0  0  0  0  0  0
   20.7140   -8.8033  -16.2392 C   0  0  2  0  0  0  0  0  0  0  0  0
   19.5281   -9.6217  -16.5589 N   0  0  0  0  0  0  0  0  0  0  0  0
   20.2774   -7.3961  -16.1708 C   0  0  0  0  0  0  0  0  0  0  0  0
   19.2502   -7.0862  -16.8796 O   0  0  0  0  0  0  0  0  0  0  0  0
   20.8746   -6.3716  -15.4075 N   0  0  0  0  0  0  0  0  0  0  0  0
   22.1115   -6.5697  -14.6169 C   0  0  0  0  0  0  0  0  0  0  0  0
   21.8622   -5.8349  -13.3234 C   0  0  0  0  0  0  0  0  0  0  0  0
   20.8544   -4.7629  -13.6990 C   0  0  0  0  0  0  0  0  0  0  0  0
   20.5621   -4.9978  -15.1864 C   0  0  1  0  0  0  0  0  0  0  0  0
   21.4891   -4.0866  -15.9490 C   0  0  0  0  0  0  0  0  0  0  0  0
   21.1832   -2.7347  -16.0128 O   0  0  0  0  0  0  0  0  0  0  0  0
   22.5132   -4.5245  -16.5158 O   0  0  0  0  0  0  0  0  0  0  0  0
  2  1  1  1
  2  3  1  0
  3  4  1  0
  4  5  1  0
  5  6  2  0
  5  9  1  0
  7 16  1  0
  7  2  1  0
  8  7  2  0
 10 11  1  0
 11 12  2  0
 11 13  1  0
 13 14  1  0
 15 14  1  6
 15 16  1  0
 17 15  1  0
 17 18  2  0
 19 17  1  0
 20 19  1  0
 21 20  1  0
 21 22  1  0
 23 22  1  0
 23 19  1  0
 23 24  1  6
 25 24  1  0
 26 24  2  0
M  END
$$$$
