EQP.pdb
     RDKit          3D

 26 26  0  0  1  0  0  0  0  0999 V2000
   15.9524  -11.0571  -10.5101 N   0  0  0  0  0  0  0  0  0  0  0  0
   15.6477  -10.9904  -11.9541 C   0  0  1  0  0  0  0  0  0  0  0  0
   14.5077  -11.9183  -12.1786 C   0  0  0  0  0  0  0  0  0  0  0  0
   14.8970  -13.3380  -11.9448 C   0  0  0  0  0  0  0  0  0  0  0  0
   15.5109  -14.0178  -13.0997 C   0  0  0  0  0  0  0  0  0  0  0  0
   15.7938  -13.4690  -14.1717 O   0  0  0  0  0  0  0  0  0  0  0  0
   15.4018   -9.5835  -12.3213 C   0  0  0  0  0  0  0  0  0  0  0  0
   15.0123   -9.2236  -13.4644 O   0  0  0  0  0  0  0  0  0  0  0  0
   15.8074  -15.3858  -13.0064 O   0  0  0  0  0  0  0  0  0  0  0  0
   14.9622   -5.1105   -8.0147 N   0  0  0  0  0  0  0  0  0  0  0  0
   13.8550   -5.9498   -8.3678 C   0  0  0  0  0  0  0  0  0  0  0  0
   12.8881   -6.0761   -7.5838 O   0  0  0  0  0  0  0  0  0  0  0  0
   13.8754   -6.6621   -9.6714 C   0  0  0  0  0  0  0  0  0  0  0  0
   15.2256   -6.4362  -10.3106 C   0  0  0  0  0  0  0  0  0  0  0  0
   15.3304   -7.1538  -11.6648 C   0  0  2  0  0  0  0  0  0  0  0  0
   15.6078   -8.5696  -11.3538 N   0  0  0  0  0  0  0  0  0  0  0  0
   16.5190   -6.6074  -12.3462 C   0  0  0  0  0  0  0  0  0  0  0  0
   17.6555   -7.0695  -11.9610 O   0  0  0  0  0  0  0  0  0  0  0  0
   16.5238   -5.6376  -13.3701 N   0  0  0  0  0  0  0  0  0  0  0  0
   15.2849   -5.0876  -13.9675 C   0  0  0  0  0  0  0  0  0  0  0  0
   15.5736   -5.0092  -15.4459 C   0  0  0  0  0  0  0  0  0  0  0  0
   17.0846   -4.8764  -15.5179 C   0  0  0  0  0  0  0  0  0  0  0  0
   17.5576   -4.9382  -14.0600 C   0  0  1  0  0  0  0  0  0  0  0  0
   17.6721   -3.5106  -13.5911 C   0  0  0  0  0  0  0  0  0  0  0  0
   16.7017   -3.0169  -12.7310 O   0  0  0  0  0  0  0  0  0  0  0  0
   18.6140   -2.7767  -13.9602 O   0  0  0  0  0  0  0  0  0  0  0  0
  2  1  1  1
  2  3  1  0
  3  4  1  0
  4  5  1  0
  5  6  2  0
  5  9  1  0
  7 16  1  0
  7  2  1  0
  8  7  2  0
 10 11  1  0
 11 12  2  0
 11 13  1  0
 13 14  1  0
 15 14  1  1
 15 16  1  0
 17 15  1  0
 17 18  2  0
 19 17  1  0
 20 19  1  0
 21 20  1  0
 21 22  1  0
 23 22  1  0
 23 19  1  0
 23 24  1  1
 25 24  1  0
 26 24  2  0
M  END
$$$$
