EQP.pdb
     RDKit          3D

 26 26  0  0  1  0  0  0  0  0999 V2000
   15.1329  -13.9982  -15.2405 N   0  0  0  0  0  0  0  0  0  0  0  0
   16.2757  -13.3114  -14.6044 C   0  0  1  0  0  0  0  0  0  0  0  0
   17.4455  -13.5494  -15.4909 C   0  0  0  0  0  0  0  0  0  0  0  0
   17.9208  -14.9599  -15.4112 C   0  0  0  0  0  0  0  0  0  0  0  0
   18.9731  -15.3221  -16.3779 C   0  0  0  0  0  0  0  0  0  0  0  0
   20.1782  -15.4027  -16.1104 O   0  0  0  0  0  0  0  0  0  0  0  0
   15.9187  -11.8964  -14.3921 C   0  0  0  0  0  0  0  0  0  0  0  0
   15.2778  -11.2098  -15.2323 O   0  0  0  0  0  0  0  0  0  0  0  0
   18.6126  -15.6012  -17.7046 O   0  0  0  0  0  0  0  0  0  0  0  0
   15.4835   -6.9280   -8.9305 N   0  0  0  0  0  0  0  0  0  0  0  0
   16.0989   -8.0363   -9.5996 C   0  0  0  0  0  0  0  0  0  0  0  0
   16.7495   -8.8817   -8.9458 O   0  0  0  0  0  0  0  0  0  0  0  0
   15.9518   -8.1630  -11.0726 C   0  0  0  0  0  0  0  0  0  0  0  0
   16.1051   -9.6211  -11.4375 C   0  0  0  0  0  0  0  0  0  0  0  0
   16.0139   -9.8300  -12.9567 C   0  0  2  0  0  0  0  0  0  0  0  0
   16.3065  -11.2579  -13.1886 N   0  0  0  0  0  0  0  0  0  0  0  0
   17.1089   -9.0481  -13.5612 C   0  0  0  0  0  0  0  0  0  0  0  0
   18.2811   -9.5731  -13.4998 O   0  0  0  0  0  0  0  0  0  0  0  0
   16.9899   -7.7936  -14.1942 N   0  0  0  0  0  0  0  0  0  0  0  0
   15.7072   -7.0600  -14.2989 C   0  0  0  0  0  0  0  0  0  0  0  0
   15.6989   -6.4989  -15.6990 C   0  0  0  0  0  0  0  0  0  0  0  0
   17.1704   -6.3698  -16.0509 C   0  0  0  0  0  0  0  0  0  0  0  0
   17.9194   -6.9185  -14.8299 C   0  0  1  0  0  0  0  0  0  0  0  0
   18.2458   -5.7292  -13.9638 C   0  0  0  0  0  0  0  0  0  0  0  0
   17.5758   -5.5859  -12.7572 O   0  0  0  0  0  0  0  0  0  0  0  0
   19.0979   -4.8837  -14.3114 O   0  0  0  0  0  0  0  0  0  0  0  0
  2  1  1  6
  2  3  1  0
  3  4  1  0
  4  5  1  0
  5  6  2  0
  5  9  1  0
  7 16  1  0
  7  2  1  0
  8  7  2  0
 10 11  1  0
 11 12  2  0
 11 13  1  0
 13 14  1  0
 15 14  1  1
 15 16  1  0
 17 15  1  0
 17 18  2  0
 19 17  1  0
 20 19  1  0
 21 20  1  0
 21 22  1  0
 23 22  1  0
 23 19  1  0
 23 24  1  1
 25 24  1  0
 26 24  2  0
M  END
$$$$
