EQP.pdb
     RDKit          3D

 26 26  0  0  1  0  0  0  0  0999 V2000
   28.7786  -22.6884  -16.4359 N   0  0  0  0  0  0  0  0  0  0  0  0
   27.7371  -21.6652  -16.6608 C   0  0  1  0  0  0  0  0  0  0  0  0
   27.3795  -21.7502  -18.1016 C   0  0  0  0  0  0  0  0  0  0  0  0
   28.5883  -21.7217  -18.9731 C   0  0  0  0  0  0  0  0  0  0  0  0
   28.8468  -20.4351  -19.6443 C   0  0  0  0  0  0  0  0  0  0  0  0
   28.0317  -19.8350  -20.3556 O   0  0  0  0  0  0  0  0  0  0  0  0
   26.6288  -21.9029  -15.7174 C   0  0  0  0  0  0  0  0  0  0  0  0
   25.7564  -22.7968  -15.8844 O   0  0  0  0  0  0  0  0  0  0  0  0
   30.0985  -19.8222  -19.4837 O   0  0  0  0  0  0  0  0  0  0  0  0
   26.1271  -21.9905  -10.3215 N   0  0  0  0  0  0  0  0  0  0  0  0
   24.8634  -21.3138  -10.3311 C   0  0  0  0  0  0  0  0  0  0  0  0
   24.0268  -21.5336   -9.4271 O   0  0  0  0  0  0  0  0  0  0  0  0
   24.5663  -20.3538  -11.4254 C   0  0  0  0  0  0  0  0  0  0  0  0
   25.7155  -20.3868  -12.4058 C   0  0  0  0  0  0  0  0  0  0  0  0
   25.3690  -21.2254  -13.6454 C   0  0  2  0  0  0  0  0  0  0  0  0
   26.5217  -21.0962  -14.5581 N   0  0  0  0  0  0  0  0  0  0  0  0
   24.2148  -20.5735  -14.2923 C   0  0  0  0  0  0  0  0  0  0  0  0
   24.4591  -19.4738  -14.9123 O   0  0  0  0  0  0  0  0  0  0  0  0
   22.8841  -21.0406  -14.2949 N   0  0  0  0  0  0  0  0  0  0  0  0
   22.4451  -22.2333  -13.5341 C   0  0  0  0  0  0  0  0  0  0  0  0
   21.5056  -22.9583  -14.4652 C   0  0  0  0  0  0  0  0  0  0  0  0
   20.9653  -21.8625  -15.3670 C   0  0  0  0  0  0  0  0  0  0  0  0
   21.6812  -20.5850  -14.9107 C   0  0  1  0  0  0  0  0  0  0  0  0
   20.7652  -19.9184  -13.9168 C   0  0  0  0  0  0  0  0  0  0  0  0
   21.1306  -19.9168  -12.5782 O   0  0  0  0  0  0  0  0  0  0  0  0
   19.6983  -19.3756  -14.2755 O   0  0  0  0  0  0  0  0  0  0  0  0
  2  1  1  1
  2  3  1  0
  3  4  1  0
  4  5  1  0
  5  6  2  0
  5  9  1  0
  7 16  1  0
  7  2  1  0
  8  7  2  0
 10 11  1  0
 11 12  2  0
 11 13  1  0
 13 14  1  0
 15 14  1  1
 15 16  1  0
 17 15  1  0
 17 18  2  0
 19 17  1  0
 20 19  1  0
 21 20  1  0
 21 22  1  0
 23 22  1  0
 23 19  1  0
 23 24  1  1
 25 24  1  0
 26 24  2  0
M  END
$$$$
