EQP.pdb
     RDKit          3D

 26 26  0  0  1  0  0  0  0  0999 V2000
   18.9508  -28.0792    2.4512 N   0  0  0  0  0  0  0  0  0  0  0  0
   18.3153  -26.7511    2.3300 C   0  0  1  0  0  0  0  0  0  0  0  0
   17.3942  -26.8391    1.1661 C   0  0  0  0  0  0  0  0  0  0  0  0
   16.3113  -27.8379    1.3933 C   0  0  0  0  0  0  0  0  0  0  0  0
   15.3151  -27.9390    0.3116 C   0  0  0  0  0  0  0  0  0  0  0  0
   15.4484  -28.6283   -0.7070 O   0  0  0  0  0  0  0  0  0  0  0  0
   17.6803  -26.4112    3.6169 C   0  0  0  0  0  0  0  0  0  0  0  0
   16.4478  -26.1803    3.7417 O   0  0  0  0  0  0  0  0  0  0  0  0
   14.1194  -27.2128    0.4165 O   0  0  0  0  0  0  0  0  0  0  0  0
   14.4812  -27.6247    5.5443 N   0  0  0  0  0  0  0  0  0  0  0  0
   15.4995  -28.4056    4.9055 C   0  0  0  0  0  0  0  0  0  0  0  0
   15.1911  -29.2400    4.0255 O   0  0  0  0  0  0  0  0  0  0  0  0
   16.9172  -28.2087    5.3035 C   0  0  0  0  0  0  0  0  0  0  0  0
   16.9548  -27.2030    6.4304 C   0  0  0  0  0  0  0  0  0  0  0  0
   17.8804  -26.0233    6.0966 C   0  0  2  0  0  0  0  0  0  0  0  0
   18.4791  -26.3356    4.7842 N   0  0  0  0  0  0  0  0  0  0  0  0
   18.9661  -26.0374    7.0949 C   0  0  0  0  0  0  0  0  0  0  0  0
   19.9663  -26.8021    6.8338 O   0  0  0  0  0  0  0  0  0  0  0  0
   19.0085  -25.2968    8.2943 N   0  0  0  0  0  0  0  0  0  0  0  0
   17.8732  -24.4779    8.7787 C   0  0  0  0  0  0  0  0  0  0  0  0
   18.5076  -23.2136    9.3024 C   0  0  0  0  0  0  0  0  0  0  0  0
   19.9115  -23.6420    9.6919 C   0  0  0  0  0  0  0  0  0  0  0  0
   19.9924  -25.1261    9.3126 C   0  0  1  0  0  0  0  0  0  0  0  0
   19.6448  -25.9008   10.5576 C   0  0  0  0  0  0  0  0  0  0  0  0
   18.4091  -26.5286   10.6227 O   0  0  0  0  0  0  0  0  0  0  0  0
   20.4412  -25.9846   11.5170 O   0  0  0  0  0  0  0  0  0  0  0  0
  2  1  1  1
  2  3  1  0
  3  4  1  0
  4  5  1  0
  5  6  2  0
  5  9  1  0
  7 16  1  0
  7  2  1  0
  8  7  2  0
 10 11  1  0
 11 12  2  0
 11 13  1  0
 13 14  1  0
 15 14  1  1
 15 16  1  0
 17 15  1  0
 17 18  2  0
 19 17  1  0
 20 19  1  0
 21 20  1  0
 21 22  1  0
 23 22  1  0
 23 19  1  0
 23 24  1  1
 25 24  1  0
 26 24  2  0
M  END
$$$$
