EQP.pdb
     RDKit          3D

 26 26  0  0  1  0  0  0  0  0999 V2000
   22.0555  -17.5586  -17.3529 N   0  0  0  0  0  0  0  0  0  0  0  0
   22.1115  -16.6466  -16.1921 C   0  0  1  0  0  0  0  0  0  0  0  0
   22.8277  -17.3870  -15.1198 C   0  0  0  0  0  0  0  0  0  0  0  0
   22.1175  -18.6435  -14.7475 C   0  0  0  0  0  0  0  0  0  0  0  0
   22.5961  -19.8595  -15.4294 C   0  0  0  0  0  0  0  0  0  0  0  0
   23.5038  -19.8854  -16.2694 O   0  0  0  0  0  0  0  0  0  0  0  0
   22.7380  -15.3803  -16.6152 C   0  0  0  0  0  0  0  0  0  0  0  0
   23.9214  -15.3010  -17.0409 O   0  0  0  0  0  0  0  0  0  0  0  0
   21.9984  -21.0916  -15.1246 O   0  0  0  0  0  0  0  0  0  0  0  0
   19.8587  -11.0588  -19.5335 N   0  0  0  0  0  0  0  0  0  0  0  0
   21.0657  -10.3231  -19.2955 C   0  0  0  0  0  0  0  0  0  0  0  0
   21.2329   -9.2025  -19.8263 O   0  0  0  0  0  0  0  0  0  0  0  0
   22.1075  -10.9100  -18.4137 C   0  0  0  0  0  0  0  0  0  0  0  0
   21.6401  -12.2796  -17.9796 C   0  0  0  0  0  0  0  0  0  0  0  0
   22.5856  -12.8872  -16.9323 C   0  0  2  0  0  0  0  0  0  0  0  0
   21.9879  -14.1807  -16.5475 N   0  0  0  0  0  0  0  0  0  0  0  0
   22.5362  -12.0058  -15.7507 C   0  0  0  0  0  0  0  0  0  0  0  0
   21.5603  -12.2030  -14.9369 O   0  0  0  0  0  0  0  0  0  0  0  0
   23.4506  -10.9799  -15.4340 N   0  0  0  0  0  0  0  0  0  0  0  0
   24.5986  -10.6252  -16.3004 C   0  0  0  0  0  0  0  0  0  0  0  0
   25.7416  -10.3878  -15.3453 C   0  0  0  0  0  0  0  0  0  0  0  0
   25.0596   -9.9745  -14.0530 C   0  0  0  0  0  0  0  0  0  0  0  0
   23.5578  -10.0541  -14.3546 C   0  0  1  0  0  0  0  0  0  0  0  0
   23.1347   -8.6676  -14.7667 C   0  0  0  0  0  0  0  0  0  0  0  0
   22.9417   -7.7136  -13.7779 O   0  0  0  0  0  0  0  0  0  0  0  0
   22.9580   -8.3698  -15.9675 O   0  0  0  0  0  0  0  0  0  0  0  0
  2  1  1  6
  2  3  1  0
  3  4  1  0
  4  5  1  0
  5  6  2  0
  5  9  1  0
  7 16  1  0
  7  2  1  0
  8  7  2  0
 10 11  1  0
 11 12  2  0
 11 13  1  0
 13 14  1  0
 15 14  1  6
 15 16  1  0
 17 15  1  0
 17 18  2  0
 19 17  1  0
 20 19  1  0
 21 20  1  0
 21 22  1  0
 23 22  1  0
 23 19  1  0
 23 24  1  6
 25 24  1  0
 26 24  2  0
M  END
$$$$
