EQP.pdb
     RDKit          3D

 26 26  0  0  1  0  0  0  0  0999 V2000
   22.0473  -17.0410  -14.8995 N   0  0  0  0  0  0  0  0  0  0  0  0
   23.4106  -16.9743  -15.4648 C   0  0  1  0  0  0  0  0  0  0  0  0
   23.5403  -18.1477  -16.3687 C   0  0  0  0  0  0  0  0  0  0  0  0
   22.4861  -19.1677  -16.1042 C   0  0  0  0  0  0  0  0  0  0  0  0
   22.5968  -20.4040  -16.8993 C   0  0  0  0  0  0  0  0  0  0  0  0
   23.5206  -20.6583  -17.6817 O   0  0  0  0  0  0  0  0  0  0  0  0
   23.5937  -15.6581  -16.1043 C   0  0  0  0  0  0  0  0  0  0  0  0
   24.6123  -15.3517  -16.7799 O   0  0  0  0  0  0  0  0  0  0  0  0
   21.5976  -21.3817  -16.7813 O   0  0  0  0  0  0  0  0  0  0  0  0
   19.2694  -12.5813  -18.8197 N   0  0  0  0  0  0  0  0  0  0  0  0
   20.2196  -13.4627  -19.4321 C   0  0  0  0  0  0  0  0  0  0  0  0
   19.9772  -13.9673  -20.5511 O   0  0  0  0  0  0  0  0  0  0  0  0
   21.4882  -13.7646  -18.7202 C   0  0  0  0  0  0  0  0  0  0  0  0
   21.4417  -13.0909  -17.3686 C   0  0  0  0  0  0  0  0  0  0  0  0
   22.7336  -13.3391  -16.5753 C   0  0  2  0  0  0  0  0  0  0  0  0
   22.5845  -14.6741  -15.9639 N   0  0  0  0  0  0  0  0  0  0  0  0
   22.7592  -12.3498  -15.4816 C   0  0  0  0  0  0  0  0  0  0  0  0
   21.9643  -12.5739  -14.4960 O   0  0  0  0  0  0  0  0  0  0  0  0
   23.5666  -11.1954  -15.4172 N   0  0  0  0  0  0  0  0  0  0  0  0
   24.4907  -10.7943  -16.5033 C   0  0  0  0  0  0  0  0  0  0  0  0
   25.7373  -10.3274  -15.7939 C   0  0  0  0  0  0  0  0  0  0  0  0
   25.2366   -9.8714  -14.4347 C   0  0  0  0  0  0  0  0  0  0  0  0
   23.7301  -10.1600  -14.4502 C   0  0  1  0  0  0  0  0  0  0  0  0
   23.0588   -8.8824  -14.8841 C   0  0  0  0  0  0  0  0  0  0  0  0
   22.9119   -7.8634  -13.9538 O   0  0  0  0  0  0  0  0  0  0  0  0
   22.6393   -8.7301  -16.0514 O   0  0  0  0  0  0  0  0  0  0  0  0
  2  1  1  6
  2  3  1  0
  3  4  1  0
  4  5  1  0
  5  6  2  0
  5  9  1  0
  7 16  1  0
  7  2  1  0
  8  7  2  0
 10 11  1  0
 11 12  2  0
 11 13  1  0
 13 14  1  0
 15 14  1  6
 15 16  1  0
 17 15  1  0
 17 18  2  0
 19 17  1  0
 20 19  1  0
 21 20  1  0
 21 22  1  0
 23 22  1  0
 23 19  1  0
 23 24  1  6
 25 24  1  0
 26 24  2  0
M  END
$$$$
