EQP.pdb
     RDKit          3D

 26 26  0  0  1  0  0  0  0  0999 V2000
   26.0428  -20.3403  -19.6095 N   0  0  0  0  0  0  0  0  0  0  0  0
   26.5990  -19.2563  -18.7740 C   0  0  1  0  0  0  0  0  0  0  0  0
   26.4383  -18.0050  -19.5610 C   0  0  0  0  0  0  0  0  0  0  0  0
   26.2614  -18.2855  -21.0142 C   0  0  0  0  0  0  0  0  0  0  0  0
   25.1618  -17.5505  -21.6650 C   0  0  0  0  0  0  0  0  0  0  0  0
   24.8476  -16.3815  -21.4099 O   0  0  0  0  0  0  0  0  0  0  0  0
   25.9211  -19.2730  -17.4644 C   0  0  0  0  0  0  0  0  0  0  0  0
   26.2922  -18.5750  -16.4831 O   0  0  0  0  0  0  0  0  0  0  0  0
   24.3987  -18.1969  -22.6489 O   0  0  0  0  0  0  0  0  0  0  0  0
   20.4025  -19.0282  -16.4565 N   0  0  0  0  0  0  0  0  0  0  0  0
   20.5636  -19.7924  -15.2545 C   0  0  0  0  0  0  0  0  0  0  0  0
   19.6961  -19.7373  -14.3546 O   0  0  0  0  0  0  0  0  0  0  0  0
   21.7701  -20.6450  -15.0968 C   0  0  0  0  0  0  0  0  0  0  0  0
   22.6131  -20.5033  -16.3426 C   0  0  0  0  0  0  0  0  0  0  0  0
   24.0625  -20.1293  -15.9975 C   0  0  2  0  0  0  0  0  0  0  0  0
   24.7931  -20.1097  -17.2797 N   0  0  0  0  0  0  0  0  0  0  0  0
   24.6087  -21.2376  -15.1918 C   0  0  0  0  0  0  0  0  0  0  0  0
   25.1632  -22.1950  -15.8470 O   0  0  0  0  0  0  0  0  0  0  0  0
   24.5805  -21.3419  -13.7857 N   0  0  0  0  0  0  0  0  0  0  0  0
   23.9171  -20.3441  -12.9147 C   0  0  0  0  0  0  0  0  0  0  0  0
   24.8594  -20.1635  -11.7508 C   0  0  0  0  0  0  0  0  0  0  0  0
   25.6160  -21.4785  -11.6842 C   0  0  0  0  0  0  0  0  0  0  0  0
   25.0778  -22.3051  -12.8590 C   0  0  1  0  0  0  0  0  0  0  0  0
   23.9717  -23.1634  -12.3012 C   0  0  0  0  0  0  0  0  0  0  0  0
   24.3146  -24.3018  -11.5858 O   0  0  0  0  0  0  0  0  0  0  0  0
   22.7692  -22.8689  -12.4712 O   0  0  0  0  0  0  0  0  0  0  0  0
  2  1  1  6
  2  3  1  0
  3  4  1  0
  4  5  1  0
  5  6  2  0
  5  9  1  0
  7 16  1  0
  7  2  1  0
  8  7  2  0
 10 11  1  0
 11 12  2  0
 11 13  1  0
 13 14  1  0
 15 14  1  6
 15 16  1  0
 17 15  1  0
 17 18  2  0
 19 17  1  0
 20 19  1  0
 21 20  1  0
 21 22  1  0
 23 22  1  0
 23 19  1  0
 23 24  1  1
 25 24  1  0
 26 24  2  0
M  END
$$$$
