GSP.pdb
     RDKit          3D

 18 18  0  0  1  0  0  0  0  0999 V2000
    9.6715  -18.3182   15.4205 N   0  0  0  0  0  0  0  0  0  0  0  0
    9.0518  -18.7046   16.6649 C   0  0  0  0  0  0  0  0  0  0  0  0
    8.5024  -17.4995   17.3136 C   0  0  0  0  0  0  0  0  0  0  0  0
    8.7826  -16.3739   16.8724 O   0  0  0  0  0  0  0  0  0  0  0  0
    6.2806  -18.0459   20.7097 O   0  0  0  0  0  0  0  0  0  0  0  0
    5.8808  -17.0007   19.8755 C   0  0  0  0  0  0  0  0  0  0  0  0
    7.0890  -16.4389   19.1279 C   0  0  2  0  0  0  0  0  0  0  0  0
    7.6526  -17.5976   18.4415 N   0  0  0  0  0  0  0  0  0  0  0  0
    8.0596  -15.9822   20.1454 C   0  0  0  0  0  0  0  0  0  0  0  0
    9.1058  -16.6800   20.3048 O   0  0  0  0  0  0  0  0  0  0  0  0
    7.9040  -14.8232   20.9507 N   0  0  0  0  0  0  0  0  0  0  0  0
    6.6954  -13.9994   20.9716 C   0  0  0  0  0  0  0  0  0  0  0  0
    7.2382  -12.6206   21.1541 C   0  0  0  0  0  0  0  0  0  0  0  0
    8.6704  -12.7388   21.5751 C   0  0  0  0  0  0  0  0  0  0  0  0
    8.7978  -14.2090   21.9001 C   0  0  1  0  0  0  0  0  0  0  0  0
    8.3208  -14.3809   23.3146 C   0  0  0  0  0  0  0  0  0  0  0  0
    7.1665  -14.7791   23.5767 O   0  0  0  0  0  0  0  0  0  0  0  0
    9.1549  -14.0989   24.3577 O   0  0  0  0  0  0  0  0  0  0  0  0
  1  2  1  0
  3  2  1  0
  4  3  2  0
  5  6  1  0
  7  6  1  1
  7  8  1  0
  7  9  1  0
  8  3  1  0
  9 10  2  0
 11  9  1  0
 11 12  1  0
 13 12  1  0
 14 13  1  0
 15 14  1  0
 15 11  1  0
 15 16  1  1
 16 18  1  0
 17 16  2  0
M  END
$$$$
