GSP.pdb
     RDKit          3D

 18 18  0  0  1  0  0  0  0  0999 V2000
    4.9444  -19.3717   23.1142 N   0  0  0  0  0  0  0  0  0  0  0  0
    6.3043  -18.8910   23.1480 C   0  0  0  0  0  0  0  0  0  0  0  0
    6.2992  -17.4394   22.8881 C   0  0  0  0  0  0  0  0  0  0  0  0
    5.3913  -16.9326   22.2107 O   0  0  0  0  0  0  0  0  0  0  0  0
    9.6131  -15.5365   24.1316 O   0  0  0  0  0  0  0  0  0  0  0  0
    8.5491  -14.6588   23.9177 C   0  0  0  0  0  0  0  0  0  0  0  0
    7.5792  -15.2540   22.8982 C   0  0  2  0  0  0  0  0  0  0  0  0
    7.3181  -16.6000   23.3995 N   0  0  0  0  0  0  0  0  0  0  0  0
    8.3068  -15.3670   21.6161 C   0  0  0  0  0  0  0  0  0  0  0  0
    8.6094  -16.5326   21.2206 O   0  0  0  0  0  0  0  0  0  0  0  0
    8.6870  -14.2684   20.8009 N   0  0  0  0  0  0  0  0  0  0  0  0
    8.6424  -12.8730   21.2378 C   0  0  0  0  0  0  0  0  0  0  0  0
    8.2487  -12.1492   19.9928 C   0  0  0  0  0  0  0  0  0  0  0  0
    8.4237  -13.0858   18.8377 C   0  0  0  0  0  0  0  0  0  0  0  0
    9.1983  -14.2276   19.4540 C   0  0  1  0  0  0  0  0  0  0  0  0
   10.6485  -13.8357   19.4142 C   0  0  0  0  0  0  0  0  0  0  0  0
   11.2211  -13.3283   20.4013 O   0  0  0  0  0  0  0  0  0  0  0  0
   11.3794  -14.0299   18.2778 O   0  0  0  0  0  0  0  0  0  0  0  0
  1  2  1  0
  3  2  1  0
  4  3  2  0
  5  6  1  0
  7  6  1  1
  7  8  1  0
  7  9  1  0
  8  3  1  0
  9 10  2  0
 11  9  1  0
 11 12  1  0
 13 12  1  0
 14 13  1  0
 15 14  1  0
 15 11  1  0
 15 16  1  1
 16 18  1  0
 17 16  2  0
M  END
$$$$
