GSP.pdb
     RDKit          3D

 18 18  0  0  1  0  0  0  0  0999 V2000
    4.6065  -19.5442   22.5176 N   0  0  0  0  0  0  0  0  0  0  0  0
    5.6969  -18.9919   23.2842 C   0  0  0  0  0  0  0  0  0  0  0  0
    5.8714  -17.5771   22.9064 C   0  0  0  0  0  0  0  0  0  0  0  0
    5.0990  -17.0525   22.0889 O   0  0  0  0  0  0  0  0  0  0  0  0
    9.0763  -15.7581   24.5070 O   0  0  0  0  0  0  0  0  0  0  0  0
    8.0770  -14.8587   24.1321 C   0  0  0  0  0  0  0  0  0  0  0  0
    7.2426  -15.4497   22.9968 C   0  0  2  0  0  0  0  0  0  0  0  0
    6.9120  -16.7937   23.4610 N   0  0  0  0  0  0  0  0  0  0  0  0
    8.1282  -15.5680   21.8188 C   0  0  0  0  0  0  0  0  0  0  0  0
    8.4915  -16.7341   21.4799 O   0  0  0  0  0  0  0  0  0  0  0  0
    8.5964  -14.4740   21.0442 N   0  0  0  0  0  0  0  0  0  0  0  0
    8.5001  -13.0758   21.4633 C   0  0  0  0  0  0  0  0  0  0  0  0
    8.2487  -12.3615   20.1767 C   0  0  0  0  0  0  0  0  0  0  0  0
    8.5550  -13.3055   19.0554 C   0  0  0  0  0  0  0  0  0  0  0  0
    9.2569  -14.4411   19.7635 C   0  0  1  0  0  0  0  0  0  0  0  0
   10.7015  -14.0458   19.8854 C   0  0  0  0  0  0  0  0  0  0  0  0
   11.1647  -13.5592   20.9382 O   0  0  0  0  0  0  0  0  0  0  0  0
   11.5489  -14.2136   18.8285 O   0  0  0  0  0  0  0  0  0  0  0  0
  1  2  1  0
  3  2  1  0
  4  3  2  0
  5  6  1  0
  7  6  1  1
  7  8  1  0
  7  9  1  0
  8  3  1  0
  9 10  2  0
 11  9  1  0
 11 12  1  0
 13 12  1  0
 14 13  1  0
 15 14  1  0
 15 11  1  0
 15 16  1  1
 16 18  1  0
 17 16  2  0
M  END
$$$$
