GSP.pdb
     RDKit          3D

 18 18  0  0  1  0  0  0  0  0999 V2000
    9.1165  -25.6059   28.6769 N   0  0  0  0  0  0  0  0  0  0  0  0
    9.2415  -24.8678   29.9103 C   0  0  0  0  0  0  0  0  0  0  0  0
   10.4293  -23.9981   29.8225 C   0  0  0  0  0  0  0  0  0  0  0  0
   11.1474  -24.0274   28.8107 O   0  0  0  0  0  0  0  0  0  0  0  0
   10.6874  -21.1091   32.5220 O   0  0  0  0  0  0  0  0  0  0  0  0
   11.4716  -20.9265   31.3820 C   0  0  0  0  0  0  0  0  0  0  0  0
   11.9661  -22.2775   30.8674 C   0  0  2  0  0  0  0  0  0  0  0  0
   10.7739  -23.1200   30.8780 N   0  0  0  0  0  0  0  0  0  0  0  0
   12.9185  -22.8048   31.8678 C   0  0  0  0  0  0  0  0  0  0  0  0
   12.4519  -23.5603   32.7723 O   0  0  0  0  0  0  0  0  0  0  0  0
   14.3108  -22.5273   31.8857 N   0  0  0  0  0  0  0  0  0  0  0  0
   14.9721  -21.6059   30.9618 C   0  0  0  0  0  0  0  0  0  0  0  0
   16.2971  -22.2563   30.7379 C   0  0  0  0  0  0  0  0  0  0  0  0
   16.4788  -23.3100   31.7862 C   0  0  0  0  0  0  0  0  0  0  0  0
   15.3564  -23.0100   32.7525 C   0  0  1  0  0  0  0  0  0  0  0  0
   15.8593  -21.9384   33.6782 C   0  0  0  0  0  0  0  0  0  0  0  0
   15.6032  -20.7308   33.4889 O   0  0  0  0  0  0  0  0  0  0  0  0
   16.6197  -22.2712   34.7619 O   0  0  0  0  0  0  0  0  0  0  0  0
  1  2  1  0
  3  2  1  0
  4  3  2  0
  5  6  1  0
  7  6  1  1
  7  8  1  0
  7  9  1  0
  8  3  1  0
  9 10  2  0
 11  9  1  0
 11 12  1  0
 13 12  1  0
 14 13  1  0
 15 14  1  0
 15 11  1  0
 15 16  1  1
 16 18  1  0
 17 16  2  0
M  END
$$$$
