GSP.pdb
     RDKit          3D

 18 18  0  0  1  0  0  0  0  0999 V2000
    8.5674  -15.1500   12.9600 N   0  0  0  0  0  0  0  0  0  0  0  0
    9.1161  -16.0198   13.9720 C   0  0  0  0  0  0  0  0  0  0  0  0
    8.4917  -15.6911   15.2670 C   0  0  0  0  0  0  0  0  0  0  0  0
    8.1498  -14.5239   15.5135 O   0  0  0  0  0  0  0  0  0  0  0  0
    6.7246  -17.6932   19.3473 O   0  0  0  0  0  0  0  0  0  0  0  0
    7.3119  -17.8070   18.0863 C   0  0  0  0  0  0  0  0  0  0  0  0
    7.6512  -16.4202   17.5421 C   0  0  2  0  0  0  0  0  0  0  0  0
    8.2704  -16.6880   16.2475 N   0  0  0  0  0  0  0  0  0  0  0  0
    8.6741  -15.8374   18.4365 C   0  0  0  0  0  0  0  0  0  0  0  0
    9.8790  -16.1789   18.2414 O   0  0  0  0  0  0  0  0  0  0  0  0
    8.4034  -14.9264   19.4915 N   0  0  0  0  0  0  0  0  0  0  0  0
    7.0564  -14.5495   19.9199 C   0  0  0  0  0  0  0  0  0  0  0  0
    7.2186  -13.1138   20.2957 C   0  0  0  0  0  0  0  0  0  0  0  0
    8.6842  -12.8260   20.4035 C   0  0  0  0  0  0  0  0  0  0  0  0
    9.2945  -14.2079   20.3673 C   0  0  1  0  0  0  0  0  0  0  0  0
    9.2489  -14.7364   21.7733 C   0  0  0  0  0  0  0  0  0  0  0  0
    9.9992  -14.2936   22.6681 O   0  0  0  0  0  0  0  0  0  0  0  0
    8.3715  -15.7284   22.1039 O   0  0  0  0  0  0  0  0  0  0  0  0
  1  2  1  0
  3  2  1  0
  4  3  2  0
  5  6  1  0
  7  6  1  1
  7  8  1  0
  7  9  1  0
  8  3  1  0
  9 10  2  0
 11  9  1  0
 11 12  1  0
 13 12  1  0
 14 13  1  0
 15 14  1  0
 15 11  1  0
 15 16  1  1
 16 18  1  0
 17 16  2  0
M  END
$$$$
