GSP.pdb
     RDKit          3D

 18 18  0  0  1  0  0  0  0  0999 V2000
    6.9477  -21.6581   18.9755 N   0  0  0  0  0  0  0  0  0  0  0  0
    6.6328  -21.5822   20.3815 C   0  0  0  0  0  0  0  0  0  0  0  0
    7.0285  -20.2532   20.8835 C   0  0  0  0  0  0  0  0  0  0  0  0
    7.5501  -19.4291   20.1160 O   0  0  0  0  0  0  0  0  0  0  0  0
    6.2688  -19.4336   24.8285 O   0  0  0  0  0  0  0  0  0  0  0  0
    6.1783  -18.3763   23.9220 C   0  0  0  0  0  0  0  0  0  0  0  0
    7.1731  -18.5816   22.7806 C   0  0  2  0  0  0  0  0  0  0  0  0
    6.8250  -19.8909   22.2368 N   0  0  0  0  0  0  0  0  0  0  0  0
    8.5197  -18.6706   23.3845 C   0  0  0  0  0  0  0  0  0  0  0  0
    9.0291  -19.8254   23.5006 O   0  0  0  0  0  0  0  0  0  0  0  0
    9.2785  -17.5601   23.8395 N   0  0  0  0  0  0  0  0  0  0  0  0
    8.7374  -16.2100   23.9956 C   0  0  0  0  0  0  0  0  0  0  0  0
    9.8911  -15.3448   23.6092 C   0  0  0  0  0  0  0  0  0  0  0  0
   11.1225  -16.1966   23.5892 C   0  0  0  0  0  0  0  0  0  0  0  0
   10.6544  -17.4678   24.2588 C   0  0  1  0  0  0  0  0  0  0  0  0
   10.7776  -17.2455   25.7399 C   0  0  0  0  0  0  0  0  0  0  0  0
    9.7960  -16.9232   26.4415 O   0  0  0  0  0  0  0  0  0  0  0  0
   11.9864  -17.3935   26.3564 O   0  0  0  0  0  0  0  0  0  0  0  0
  1  2  1  0
  3  2  1  0
  4  3  2  0
  5  6  1  0
  7  6  1  1
  7  8  1  0
  7  9  1  0
  8  3  1  0
  9 10  2  0
 11  9  1  0
 11 12  1  0
 13 12  1  0
 14 13  1  0
 15 14  1  0
 15 11  1  0
 15 16  1  1
 16 18  1  0
 17 16  2  0
M  END
$$$$
