GSP.pdb
     RDKit          3D

 18 18  0  0  1  0  0  0  0  0999 V2000
    5.4987  -19.4430   21.1696 N   0  0  0  0  0  0  0  0  0  0  0  0
    6.5642  -18.5486   21.5525 C   0  0  0  0  0  0  0  0  0  0  0  0
    6.1830  -17.8676   22.8037 C   0  0  0  0  0  0  0  0  0  0  0  0
    4.9849  -17.7334   23.0980 O   0  0  0  0  0  0  0  0  0  0  0  0
    8.6383  -17.7097   26.0741 O   0  0  0  0  0  0  0  0  0  0  0  0
    7.2485  -17.5887   26.0313 C   0  0  0  0  0  0  0  0  0  0  0  0
    6.8428  -16.6302   24.9127 C   0  0  2  0  0  0  0  0  0  0  0  0
    7.1636  -17.3570   23.6880 N   0  0  0  0  0  0  0  0  0  0  0  0
    7.7318  -15.4521   25.0021 C   0  0  0  0  0  0  0  0  0  0  0  0
    8.7319  -15.4187   24.2242 O   0  0  0  0  0  0  0  0  0  0  0  0
    7.5443  -14.3616   25.8918 N   0  0  0  0  0  0  0  0  0  0  0  0
    6.4839  -14.3009   26.8977 C   0  0  0  0  0  0  0  0  0  0  0  0
    6.1243  -12.8520   26.9121 C   0  0  0  0  0  0  0  0  0  0  0  0
    7.2022  -12.1002   26.1943 C   0  0  0  0  0  0  0  0  0  0  0  0
    8.2905  -13.1391   26.0536 C   0  0  1  0  0  0  0  0  0  0  0  0
    9.0712  -13.1222   27.3375 C   0  0  0  0  0  0  0  0  0  0  0  0
    9.8106  -12.1642   27.6462 O   0  0  0  0  0  0  0  0  0  0  0  0
    8.9857  -14.1727   28.2049 O   0  0  0  0  0  0  0  0  0  0  0  0
  1  2  1  0
  3  2  1  0
  4  3  2  0
  5  6  1  0
  7  6  1  1
  7  8  1  0
  7  9  1  0
  8  3  1  0
  9 10  2  0
 11  9  1  0
 11 12  1  0
 13 12  1  0
 14 13  1  0
 15 14  1  0
 15 11  1  0
 15 16  1  1
 16 18  1  0
 17 16  2  0
M  END
$$$$
