GSP.pdb
     RDKit          3D

 18 18  0  0  1  0  0  0  0  0999 V2000
    5.8069  -18.8611   20.8677 N   0  0  0  0  0  0  0  0  0  0  0  0
    6.7951  -18.8817   21.9187 C   0  0  0  0  0  0  0  0  0  0  0  0
    6.3482  -17.9903   23.0052 C   0  0  0  0  0  0  0  0  0  0  0  0
    5.3176  -17.3125   22.8686 O   0  0  0  0  0  0  0  0  0  0  0  0
    8.5814  -17.8614   26.5079 O   0  0  0  0  0  0  0  0  0  0  0  0
    7.2099  -17.6063   26.5506 C   0  0  0  0  0  0  0  0  0  0  0  0
    6.7673  -16.9174   25.2607 C   0  0  2  0  0  0  0  0  0  0  0  0
    7.0761  -17.8882   24.2151 N   0  0  0  0  0  0  0  0  0  0  0  0
    7.6386  -15.7376   25.0736 C   0  0  0  0  0  0  0  0  0  0  0  0
    8.5400  -15.8161   24.1861 O   0  0  0  0  0  0  0  0  0  0  0  0
    7.5362  -14.5296   25.8128 N   0  0  0  0  0  0  0  0  0  0  0  0
    6.5921  -14.3212   26.9106 C   0  0  0  0  0  0  0  0  0  0  0  0
    6.2181  -12.8840   26.7566 C   0  0  0  0  0  0  0  0  0  0  0  0
    7.2011  -12.2471   25.8237 C   0  0  0  0  0  0  0  0  0  0  0  0
    8.2804  -13.2992   25.7141 C   0  0  1  0  0  0  0  0  0  0  0  0
    9.1971  -13.1002   26.8880 C   0  0  0  0  0  0  0  0  0  0  0  0
    9.1097  -13.8008   27.9182 O   0  0  0  0  0  0  0  0  0  0  0  0
   10.1588  -12.1323   26.8496 O   0  0  0  0  0  0  0  0  0  0  0  0
  1  2  1  0
  3  2  1  0
  4  3  2  0
  5  6  1  0
  7  6  1  1
  7  8  1  0
  7  9  1  0
  8  3  1  0
  9 10  2  0
 11  9  1  0
 11 12  1  0
 13 12  1  0
 14 13  1  0
 15 14  1  0
 15 11  1  0
 15 16  1  1
 16 18  1  0
 17 16  2  0
M  END
$$$$
