GSP.pdb
     RDKit          3D

 18 18  0  0  1  0  0  0  0  0999 V2000
    4.7332  -19.8440   21.3569 N   0  0  0  0  0  0  0  0  0  0  0  0
    5.6464  -18.7325   21.4675 C   0  0  0  0  0  0  0  0  0  0  0  0
    5.5327  -18.1602   22.8218 C   0  0  0  0  0  0  0  0  0  0  0  0
    4.4558  -18.2248   23.4353 O   0  0  0  0  0  0  0  0  0  0  0  0
    8.4400  -18.0516   25.4145 O   0  0  0  0  0  0  0  0  0  0  0  0
    7.1209  -17.7355   25.7431 C   0  0  0  0  0  0  0  0  0  0  0  0
    6.5363  -16.7866   24.6981 C   0  0  2  0  0  0  0  0  0  0  0  0
    6.6365  -17.5310   23.4463 N   0  0  0  0  0  0  0  0  0  0  0  0
    7.4361  -15.6162   24.6177 C   0  0  0  0  0  0  0  0  0  0  0  0
    8.1661  -15.5144   23.5866 O   0  0  0  0  0  0  0  0  0  0  0  0
    7.5384  -14.6036   25.6078 N   0  0  0  0  0  0  0  0  0  0  0  0
    6.7671  -14.5955   26.8507 C   0  0  0  0  0  0  0  0  0  0  0  0
    6.5055  -13.1419   27.0681 C   0  0  0  0  0  0  0  0  0  0  0  0
    7.4117  -12.3676   26.1616 C   0  0  0  0  0  0  0  0  0  0  0  0
    8.3697  -13.4278   25.6700 C   0  0  1  0  0  0  0  0  0  0  0  0
    9.4452  -13.5536   26.7120 C   0  0  0  0  0  0  0  0  0  0  0  0
    9.4607  -14.4951   27.5323 O   0  0  0  0  0  0  0  0  0  0  0  0
   10.4421  -12.6238   26.7829 O   0  0  0  0  0  0  0  0  0  0  0  0
  1  2  1  0
  3  2  1  0
  4  3  2  0
  5  6  1  0
  7  6  1  1
  7  8  1  0
  7  9  1  0
  8  3  1  0
  9 10  2  0
 11  9  1  0
 11 12  1  0
 13 12  1  0
 14 13  1  0
 15 14  1  0
 15 11  1  0
 15 16  1  1
 16 18  1  0
 17 16  2  0
M  END
$$$$
