GSP.pdb
     RDKit          3D

 18 18  0  0  1  0  0  0  0  0999 V2000
    4.2262  -21.5376   22.6360 N   0  0  0  0  0  0  0  0  0  0  0  0
    5.3354  -21.1547   23.4757 C   0  0  0  0  0  0  0  0  0  0  0  0
    5.4009  -19.6825   23.5300 C   0  0  0  0  0  0  0  0  0  0  0  0
    4.5324  -19.0005   22.9636 O   0  0  0  0  0  0  0  0  0  0  0  0
    8.3312  -17.9818   25.8349 O   0  0  0  0  0  0  0  0  0  0  0  0
    7.1802  -17.2368   25.5736 C   0  0  0  0  0  0  0  0  0  0  0  0
    6.6446  -17.5752   24.1832 C   0  0  2  0  0  0  0  0  0  0  0  0
    6.4439  -19.0207   24.2216 N   0  0  0  0  0  0  0  0  0  0  0  0
    7.7224  -17.2797   23.2152 C   0  0  0  0  0  0  0  0  0  0  0  0
    8.2784  -18.2663   22.6458 O   0  0  0  0  0  0  0  0  0  0  0  0
    8.1749  -15.9764   22.8796 N   0  0  0  0  0  0  0  0  0  0  0  0
    7.7402  -14.7592   23.5646 C   0  0  0  0  0  0  0  0  0  0  0  0
    7.6989  -13.7552   22.4604 C   0  0  0  0  0  0  0  0  0  0  0  0
    8.4312  -14.3277   21.2863 C   0  0  0  0  0  0  0  0  0  0  0  0
    9.1178  -15.5344   21.8831 C   0  0  1  0  0  0  0  0  0  0  0  0
   10.3973  -15.0419   22.4983 C   0  0  0  0  0  0  0  0  0  0  0  0
   10.5064  -14.8512   23.7277 O   0  0  0  0  0  0  0  0  0  0  0  0
   11.4829  -14.7886   21.7105 O   0  0  0  0  0  0  0  0  0  0  0  0
  1  2  1  0
  3  2  1  0
  4  3  2  0
  5  6  1  0
  7  6  1  1
  7  8  1  0
  7  9  1  0
  8  3  1  0
  9 10  2  0
 11  9  1  0
 11 12  1  0
 13 12  1  0
 14 13  1  0
 15 14  1  0
 15 11  1  0
 15 16  1  1
 16 18  1  0
 17 16  2  0
M  END
$$$$
