GSP.pdb
     RDKit          3D

 18 18  0  0  1  0  0  0  0  0999 V2000
    4.7791  -19.7590   22.9316 N   0  0  0  0  0  0  0  0  0  0  0  0
    6.1398  -19.2887   23.0271 C   0  0  0  0  0  0  0  0  0  0  0  0
    6.1412  -17.8187   22.9095 C   0  0  0  0  0  0  0  0  0  0  0  0
    5.1835  -17.2372   22.3757 O   0  0  0  0  0  0  0  0  0  0  0  0
    9.5390  -16.0084   24.1418 O   0  0  0  0  0  0  0  0  0  0  0  0
    8.4460  -15.1444   24.0601 C   0  0  0  0  0  0  0  0  0  0  0  0
    7.4541  -15.6556   23.0164 C   0  0  2  0  0  0  0  0  0  0  0  0
    7.2224  -17.0457   23.3971 N   0  0  0  0  0  0  0  0  0  0  0  0
    8.1463  -15.6392   21.7100 C   0  0  0  0  0  0  0  0  0  0  0  0
    8.4655  -16.7582   21.2076 O   0  0  0  0  0  0  0  0  0  0  0  0
    8.4754  -14.4652   20.9823 N   0  0  0  0  0  0  0  0  0  0  0  0
    8.3769  -13.1115   21.5279 C   0  0  0  0  0  0  0  0  0  0  0  0
    7.9450  -12.3091   20.3454 C   0  0  0  0  0  0  0  0  0  0  0  0
    8.1498  -13.1440   19.1193 C   0  0  0  0  0  0  0  0  0  0  0  0
    8.9749  -14.2977   19.6407 C   0  0  1  0  0  0  0  0  0  0  0  0
   10.4075  -13.8444   19.6261 C   0  0  0  0  0  0  0  0  0  0  0  0
   10.9692  -13.4030   20.6505 O   0  0  0  0  0  0  0  0  0  0  0  0
   11.1339  -13.9069   18.4721 O   0  0  0  0  0  0  0  0  0  0  0  0
  1  2  1  0
  3  2  1  0
  4  3  2  0
  5  6  1  0
  7  6  1  1
  7  8  1  0
  7  9  1  0
  8  3  1  0
  9 10  2  0
 11  9  1  0
 11 12  1  0
 13 12  1  0
 14 13  1  0
 15 14  1  0
 15 11  1  0
 15 16  1  1
 16 18  1  0
 17 16  2  0
M  END
$$$$
