GSP.pdb
     RDKit          3D

 18 18  0  0  1  0  0  0  0  0999 V2000
    7.8957  -13.1565   18.8258 N   0  0  0  0  0  0  0  0  0  0  0  0
    8.5100  -14.0988   19.7294 C   0  0  0  0  0  0  0  0  0  0  0  0
    7.7483  -14.1085   20.9921 C   0  0  0  0  0  0  0  0  0  0  0  0
    6.8534  -13.2705   21.1843 O   0  0  0  0  0  0  0  0  0  0  0  0
    6.3076  -16.7853   24.6708 O   0  0  0  0  0  0  0  0  0  0  0  0
    6.9842  -16.5946   23.4650 C   0  0  0  0  0  0  0  0  0  0  0  0
    7.3016  -15.1123   23.2740 C   0  0  2  0  0  0  0  0  0  0  0  0
    8.0172  -15.0629   22.0025 N   0  0  0  0  0  0  0  0  0  0  0  0
    8.2370  -14.7228   24.3508 C   0  0  0  0  0  0  0  0  0  0  0  0
    9.4747  -14.8873   24.1327 O   0  0  0  0  0  0  0  0  0  0  0  0
    7.8487  -14.1795   25.6038 N   0  0  0  0  0  0  0  0  0  0  0  0
    6.4587  -14.0354   26.0362 C   0  0  0  0  0  0  0  0  0  0  0  0
    6.4860  -12.7642   26.8186 C   0  0  0  0  0  0  0  0  0  0  0  0
    7.9170  -12.4226   27.0973 C   0  0  0  0  0  0  0  0  0  0  0  0
    8.6406  -13.6895   26.7039 C   0  0  1  0  0  0  0  0  0  0  0  0
    8.5810  -14.6068   27.8926 C   0  0  0  0  0  0  0  0  0  0  0  0
    7.8152  -15.5928   27.9261 O   0  0  0  0  0  0  0  0  0  0  0  0
    9.3764  -14.3746   28.9774 O   0  0  0  0  0  0  0  0  0  0  0  0
  1  2  1  0
  3  2  1  0
  4  3  2  0
  5  6  1  0
  7  6  1  1
  7  8  1  0
  7  9  1  0
  8  3  1  0
  9 10  2  0
 11  9  1  0
 11 12  1  0
 13 12  1  0
 14 13  1  0
 15 14  1  0
 15 11  1  0
 15 16  1  1
 16 18  1  0
 17 16  2  0
M  END
$$$$
