VKC.pdb
     RDKit          3D

 23 22  0  0  1  0  0  0  0  0999 V2000
   25.2279  -22.4725  -12.5782 C   0  0  0  0  0  0  0  0  0  0  0  0
   25.7630  -21.3141  -11.7243 C   0  0  2  0  0  0  0  0  0  0  0  0
   25.6634  -21.7730  -10.2881 C   0  0  0  0  0  0  0  0  0  0  0  0
   24.8921  -20.1259  -12.0433 C   0  0  2  0  0  0  0  0  0  0  0  0
   23.5239  -20.5489  -11.6760 N   0  0  0  0  0  0  0  0  0  0  0  0
   24.8859  -19.7144  -13.4414 C   0  0  0  0  0  0  0  0  0  0  0  0
   26.0122  -19.3575  -13.9528 O   0  0  0  0  0  0  0  0  0  0  0  0
   23.7992  -19.6557  -14.3210 N   0  0  0  0  0  0  0  0  0  0  0  0
   23.9044  -19.1953  -15.7093 C   0  0  1  0  0  0  0  0  0  0  0  0
   22.6302  -19.6510  -16.3666 C   0  0  0  0  0  0  0  0  0  0  0  0
   22.6214  -21.1091  -16.6941 C   0  0  0  0  0  0  0  0  0  0  0  0
   21.2790  -21.5321  -17.2806 C   0  0  0  0  0  0  0  0  0  0  0  0
   21.3599  -23.0395  -17.4638 C   0  0  0  0  0  0  0  0  0  0  0  0
   20.0796  -23.5243  -17.9718 N   0  0  0  0  0  0  0  0  0  0  0  0
   24.1022  -17.7639  -15.8296 C   0  0  0  0  0  0  0  0  0  0  0  0
   23.2663  -16.9542  -15.3160 O   0  0  0  0  0  0  0  0  0  0  0  0
   25.1880  -17.1172  -16.4952 N   0  0  0  0  0  0  0  0  0  0  0  0
   25.3496  -15.6743  -16.4856 C   0  0  1  0  0  0  0  0  0  0  0  0
   26.7252  -15.2610  -16.0259 C   0  0  0  0  0  0  0  0  0  0  0  0
   27.1951  -16.1361  -14.4923 S   0  0  0  0  0  0  0  0  0  0  0  0
   25.1116  -15.1868  -17.8632 C   0  0  0  0  0  0  0  0  0  0  0  0
   24.8925  -16.0217  -18.9478 O   0  0  0  0  0  0  0  0  0  0  0  0
   25.1079  -13.9489  -18.0642 O   0  0  0  0  0  0  0  0  0  0  0  0
  2  1  1  6
  3  2  1  0
  4  6  1  0
  4  5  1  6
  4  2  1  0
  6  7  2  0
  8  9  1  0
  8  6  1  0
  9 15  1  0
 10 11  1  0
  9 10  1  6
 12 11  1  0
 13 14  1  0
 13 12  1  0
 15 17  1  0
 15 16  2  0
 17 18  1  0
 18 21  1  0
 18 19  1  6
 20 19  1  0
 21 23  2  0
 21 22  1  0
M  END
$$$$
