VKC.pdb
     RDKit          3D

 23 22  0  0  1  0  0  0  0  0999 V2000
   26.5600  -32.2588   -4.1646 C   0  0  0  0  0  0  0  0  0  0  0  0
   25.8786  -33.2027   -5.1657 C   0  0  2  0  0  0  0  0  0  0  0  0
   25.0545  -34.1631   -4.3401 C   0  0  0  0  0  0  0  0  0  0  0  0
   26.9920  -33.8656   -5.9357 C   0  0  2  0  0  0  0  0  0  0  0  0
   26.3093  -34.6917   -6.9542 N   0  0  0  0  0  0  0  0  0  0  0  0
   27.8638  -34.7310   -5.1514 C   0  0  0  0  0  0  0  0  0  0  0  0
   27.3761  -35.8570   -4.7618 O   0  0  0  0  0  0  0  0  0  0  0  0
   29.1867  -34.4992   -4.7587 N   0  0  0  0  0  0  0  0  0  0  0  0
   29.8983  -35.3275   -3.7800 C   0  0  1  0  0  0  0  0  0  0  0  0
   31.3493  -34.9675   -3.9493 C   0  0  0  0  0  0  0  0  0  0  0  0
   32.2607  -35.7458   -3.0566 C   0  0  0  0  0  0  0  0  0  0  0  0
   33.7050  -35.2808   -3.2063 C   0  0  0  0  0  0  0  0  0  0  0  0
   34.5297  -36.1817   -2.3004 C   0  0  0  0  0  0  0  0  0  0  0  0
   35.9209  -35.7394   -2.3319 N   0  0  0  0  0  0  0  0  0  0  0  0
   29.4405  -35.1337   -2.4180 C   0  0  0  0  0  0  0  0  0  0  0  0
   28.6469  -34.1803   -2.1361 O   0  0  0  0  0  0  0  0  0  0  0  0
   29.7955  -35.9333   -1.2889 N   0  0  0  0  0  0  0  0  0  0  0  0
   29.2209  -35.7105    0.0258 C   0  0  1  0  0  0  0  0  0  0  0  0
   27.7270  -35.9170    0.0339 C   0  0  0  0  0  0  0  0  0  0  0  0
   27.0789  -35.9546    1.7419 S   0  0  0  0  0  0  0  0  0  0  0  0
   29.8651  -36.6577    0.9638 C   0  0  0  0  0  0  0  0  0  0  0  0
   30.7366  -37.6602    0.5674 O   0  0  0  0  0  0  0  0  0  0  0  0
   29.6100  -36.5505    2.1869 O   0  0  0  0  0  0  0  0  0  0  0  0
  2  1  1  1
  3  2  1  0
  4  6  1  0
  4  5  1  6
  4  2  1  0
  6  7  2  0
  8  9  1  0
  8  6  1  0
  9 15  1  0
 10 11  1  0
  9 10  1  1
 12 11  1  0
 13 14  1  0
 13 12  1  0
 15 17  1  0
 15 16  2  0
 17 18  1  0
 18 21  1  0
 18 19  1  6
 20 19  1  0
 21 23  2  0
 21 22  1  0
M  END
$$$$
