VKC.pdb
     RDKit          3D

 23 22  0  0  1  0  0  0  0  0999 V2000
   22.5204  -14.3409  -20.1731 C   0  0  0  0  0  0  0  0  0  0  0  0
   23.4229  -15.4877  -19.6959 C   0  0  2  0  0  0  0  0  0  0  0  0
   23.1898  -16.6304  -20.6567 C   0  0  0  0  0  0  0  0  0  0  0  0
   22.9992  -15.7887  -18.2811 C   0  0  2  0  0  0  0  0  0  0  0  0
   23.9071  -14.9860  -17.4342 N   0  0  0  0  0  0  0  0  0  0  0  0
   23.1118  -17.1852  -17.8798 C   0  0  0  0  0  0  0  0  0  0  0  0
   22.2565  -18.0091  -18.3769 O   0  0  0  0  0  0  0  0  0  0  0  0
   24.0442  -17.7632  -17.0112 N   0  0  0  0  0  0  0  0  0  0  0  0
   24.0578  -19.1892  -16.6693 C   0  0  1  0  0  0  0  0  0  0  0  0
   25.5125  -19.5730  -16.6643 C   0  0  0  0  0  0  0  0  0  0  0  0
   25.7439  -21.0130  -16.3385 C   0  0  0  0  0  0  0  0  0  0  0  0
   27.2165  -21.3797  -16.4861 C   0  0  0  0  0  0  0  0  0  0  0  0
   27.3052  -22.8718  -16.2067 C   0  0  0  0  0  0  0  0  0  0  0  0
   28.6986  -23.2932  -16.3216 N   0  0  0  0  0  0  0  0  0  0  0  0
   23.4078  -19.4867  -15.4078 C   0  0  0  0  0  0  0  0  0  0  0  0
   23.7710  -18.8945  -14.3422 O   0  0  0  0  0  0  0  0  0  0  0  0
   22.3456  -20.4205  -15.2079 N   0  0  0  0  0  0  0  0  0  0  0  0
   21.7078  -20.5988  -13.9158 C   0  0  1  0  0  0  0  0  0  0  0  0
   21.0006  -19.3487  -13.4555 C   0  0  0  0  0  0  0  0  0  0  0  0
   19.6514  -19.7493  -12.2901 S   0  0  0  0  0  0  0  0  0  0  0  0
   20.7362  -21.7085  -14.0440 C   0  0  0  0  0  0  0  0  0  0  0  0
   20.4727  -22.3669  -15.2351 O   0  0  0  0  0  0  0  0  0  0  0  0
   20.1138  -22.0763  -13.0192 O   0  0  0  0  0  0  0  0  0  0  0  0
  2  1  1  6
  3  2  1  0
  4  6  1  0
  4  5  1  1
  4  2  1  0
  6  7  2  0
  8  9  1  0
  8  6  1  0
  9 15  1  0
 10 11  1  0
  9 10  1  1
 12 11  1  0
 13 14  1  0
 13 12  1  0
 15 17  1  0
 15 16  2  0
 17 18  1  0
 18 21  1  0
 18 19  1  6
 20 19  1  0
 21 23  2  0
 21 22  1  0
M  END
$$$$
