VKC.pdb
     RDKit          3D

 23 22  0  0  1  0  0  0  0  0999 V2000
   17.7266  -12.1776  -16.5053 C   0  0  0  0  0  0  0  0  0  0  0  0
   16.5202  -11.5810  -15.7662 C   0  0  2  0  0  0  0  0  0  0  0  0
   15.3008  -11.9866  -16.5611 C   0  0  0  0  0  0  0  0  0  0  0  0
   16.7514  -10.0921  -15.7274 C   0  0  2  0  0  0  0  0  0  0  0  0
   16.3466   -9.6103  -17.0653 N   0  0  0  0  0  0  0  0  0  0  0  0
   18.1290   -9.6806  -15.4885 C   0  0  0  0  0  0  0  0  0  0  0  0
   18.6129   -9.9036  -14.3165 O   0  0  0  0  0  0  0  0  0  0  0  0
   19.0150   -9.0654  -16.3799 N   0  0  0  0  0  0  0  0  0  0  0  0
   20.3928   -8.7029  -16.0323 C   0  0  1  0  0  0  0  0  0  0  0  0
   21.2340   -9.2623  -17.1471 C   0  0  0  0  0  0  0  0  0  0  0  0
   21.4301  -10.7410  -17.0563 C   0  0  0  0  0  0  0  0  0  0  0  0
   22.3629  -11.2398  -18.1545 C   0  0  0  0  0  0  0  0  0  0  0  0
   22.4839  -12.7416  -17.9492 C   0  0  0  0  0  0  0  0  0  0  0  0
   23.4580  -13.2725  -18.8988 N   0  0  0  0  0  0  0  0  0  0  0  0
   20.5886   -7.2766  -15.8600 C   0  0  0  0  0  0  0  0  0  0  0  0
   20.0801   -6.4536  -16.6860 O   0  0  0  0  0  0  0  0  0  0  0  0
   21.3279   -6.6491  -14.8112 N   0  0  0  0  0  0  0  0  0  0  0  0
   21.4146   -5.2052  -14.6852 C   0  0  1  0  0  0  0  0  0  0  0  0
   20.0625   -4.5728  -14.4697 C   0  0  0  0  0  0  0  0  0  0  0  0
   20.2293   -2.8357  -13.9283 S   0  0  0  0  0  0  0  0  0  0  0  0
   22.2987   -4.9072  -13.5357 C   0  0  0  0  0  0  0  0  0  0  0  0
   23.1058   -3.7829  -13.4568 O   0  0  0  0  0  0  0  0  0  0  0  0
   22.3218   -5.7155  -12.5772 O   0  0  0  0  0  0  0  0  0  0  0  0
  2  1  1  6
  3  2  1  0
  4  6  1  0
  4  5  1  6
  4  2  1  0
  6  7  2  0
  8  9  1  0
  8  6  1  0
  9 15  1  0
 10 11  1  0
  9 10  1  6
 12 11  1  0
 13 14  1  0
 13 12  1  0
 15 17  1  0
 15 16  2  0
 17 18  1  0
 18 21  1  0
 18 19  1  1
 20 19  1  0
 21 23  2  0
 21 22  1  0
M  END
$$$$
