VKC.pdb
     RDKit          3D

 23 22  0  0  1  0  0  0  0  0999 V2000
   20.3232  -15.9550  -15.8877 C   0  0  0  0  0  0  0  0  0  0  0  0
   18.9328  -15.3278  -16.0635 C   0  0  2  0  0  0  0  0  0  0  0  0
   18.1206  -16.3272  -16.8541 C   0  0  0  0  0  0  0  0  0  0  0  0
   19.1539  -14.0216  -16.7824 C   0  0  2  0  0  0  0  0  0  0  0  0
   19.5704  -14.4058  -18.1479 N   0  0  0  0  0  0  0  0  0  0  0  0
   20.1842  -13.1626  -16.2126 C   0  0  0  0  0  0  0  0  0  0  0  0
   19.9650  -12.6837  -15.0378 O   0  0  0  0  0  0  0  0  0  0  0  0
   21.4050  -12.7822  -16.7809 N   0  0  0  0  0  0  0  0  0  0  0  0
   22.3157  -11.8094  -16.1686 C   0  0  1  0  0  0  0  0  0  0  0  0
   23.6790  -12.1720  -16.6915 C   0  0  0  0  0  0  0  0  0  0  0  0
   24.4131  -13.1339  -15.8146 C   0  0  0  0  0  0  0  0  0  0  0  0
   25.6763  -13.6460  -16.4979 C   0  0  0  0  0  0  0  0  0  0  0  0
   26.3410  -14.5811  -15.4998 C   0  0  0  0  0  0  0  0  0  0  0  0
   27.5258  -15.1693  -16.1183 N   0  0  0  0  0  0  0  0  0  0  0  0
   21.9667  -10.4317  -16.4555 C   0  0  0  0  0  0  0  0  0  0  0  0
   21.7353  -10.0627  -17.6507 O   0  0  0  0  0  0  0  0  0  0  0  0
   21.8445   -9.3777  -15.4992 N   0  0  0  0  0  0  0  0  0  0  0  0
   21.3224   -8.0702  -15.8543 C   0  0  1  0  0  0  0  0  0  0  0  0
   19.9308   -8.1529  -16.4299 C   0  0  0  0  0  0  0  0  0  0  0  0
   19.1427   -6.5052  -16.4805 S   0  0  0  0  0  0  0  0  0  0  0  0
   21.3110   -7.2428  -14.6267 C   0  0  0  0  0  0  0  0  0  0  0  0
   21.3382   -5.8568  -14.6326 O   0  0  0  0  0  0  0  0  0  0  0  0
   21.2754   -7.8251  -13.5166 O   0  0  0  0  0  0  0  0  0  0  0  0
  2  1  1  6
  3  2  1  0
  4  6  1  0
  4  5  1  6
  4  2  1  0
  6  7  2  0
  8  9  1  0
  8  6  1  0
  9 15  1  0
 10 11  1  0
  9 10  1  6
 12 11  1  0
 13 14  1  0
 13 12  1  0
 15 17  1  0
 15 16  2  0
 17 18  1  0
 18 21  1  0
 18 19  1  1
 20 19  1  0
 21 23  2  0
 21 22  1  0
M  END
$$$$
