VKC.pdb
     RDKit          3D

 23 22  0  0  1  0  0  0  0  0999 V2000
   14.2958  -11.7277  -14.5424 C   0  0  0  0  0  0  0  0  0  0  0  0
   14.6229  -12.5804  -15.7767 C   0  0  2  0  0  0  0  0  0  0  0  0
   13.6065  -13.6984  -15.7935 C   0  0  0  0  0  0  0  0  0  0  0  0
   16.0419  -13.0534  -15.5908 C   0  0  2  0  0  0  0  0  0  0  0  0
   15.9892  -13.9628  -14.4263 N   0  0  0  0  0  0  0  0  0  0  0  0
   17.0170  -12.0067  -15.3123 C   0  0  0  0  0  0  0  0  0  0  0  0
   17.2801  -11.7640  -14.0756 O   0  0  0  0  0  0  0  0  0  0  0  0
   17.7215  -11.2154  -16.2264 N   0  0  0  0  0  0  0  0  0  0  0  0
   18.6141  -10.1209  -15.8315 C   0  0  1  0  0  0  0  0  0  0  0  0
   19.7975  -10.2338  -16.7536 C   0  0  0  0  0  0  0  0  0  0  0  0
   20.8463   -9.1997  -16.5004 C   0  0  0  0  0  0  0  0  0  0  0  0
   22.0620   -9.4202  -17.3938 C   0  0  0  0  0  0  0  0  0  0  0  0
   23.0244   -8.2863  -17.0766 C   0  0  0  0  0  0  0  0  0  0  0  0
   24.1571   -8.3555  -17.9954 N   0  0  0  0  0  0  0  0  0  0  0  0
   17.9897   -8.8140  -15.8979 C   0  0  0  0  0  0  0  0  0  0  0  0
   17.2167   -8.5193  -16.8643 O   0  0  0  0  0  0  0  0  0  0  0  0
   18.1487   -7.7561  -14.9514 N   0  0  0  0  0  0  0  0  0  0  0  0
   17.5166   -6.4610  -15.1283 C   0  0  1  0  0  0  0  0  0  0  0  0
   16.3712   -6.2536  -14.1693 C   0  0  0  0  0  0  0  0  0  0  0  0
   15.8728   -4.4966  -14.1124 S   0  0  0  0  0  0  0  0  0  0  0  0
   18.5500   -5.4235  -14.9099 C   0  0  0  0  0  0  0  0  0  0  0  0
   18.6448   -4.2618  -15.6603 O   0  0  0  0  0  0  0  0  0  0  0  0
   19.3894   -5.6025  -13.9954 O   0  0  0  0  0  0  0  0  0  0  0  0
  2  1  1  1
  3  2  1  0
  4  6  1  0
  4  5  1  1
  4  2  1  0
  6  7  2  0
  8  9  1  0
  8  6  1  0
  9 15  1  0
 10 11  1  0
  9 10  1  6
 12 11  1  0
 13 14  1  0
 13 12  1  0
 15 17  1  0
 15 16  2  0
 17 18  1  0
 18 21  1  0
 18 19  1  1
 20 19  1  0
 21 23  2  0
 21 22  1  0
M  END
$$$$
