VKC.pdb
     RDKit          3D

 23 22  0  0  1  0  0  0  0  0999 V2000
   23.6837  -16.7769  -18.9177 C   0  0  0  0  0  0  0  0  0  0  0  0
   23.9965  -18.2033  -19.3922 C   0  0  2  0  0  0  0  0  0  0  0  0
   22.6614  -18.8926  -19.5521 C   0  0  0  0  0  0  0  0  0  0  0  0
   24.8705  -18.8134  -18.3265 C   0  0  2  0  0  0  0  0  0  0  0  0
   25.2406  -20.1436  -18.8550 N   0  0  0  0  0  0  0  0  0  0  0  0
   24.2353  -18.9957  -17.0276 C   0  0  0  0  0  0  0  0  0  0  0  0
   24.3005  -18.0121  -16.1995 O   0  0  0  0  0  0  0  0  0  0  0  0
   23.5485  -20.1176  -16.5503 N   0  0  0  0  0  0  0  0  0  0  0  0
   22.9662  -20.2003  -15.2070 C   0  0  1  0  0  0  0  0  0  0  0  0
   21.6622  -20.9271  -15.3936 C   0  0  0  0  0  0  0  0  0  0  0  0
   20.9245  -21.1579  -14.1146 C   0  0  0  0  0  0  0  0  0  0  0  0
   19.6296  -21.9252  -14.3582 C   0  0  0  0  0  0  0  0  0  0  0  0
   18.9408  -22.0216  -13.0059 C   0  0  0  0  0  0  0  0  0  0  0  0
   17.7379  -22.8378  -13.1442 N   0  0  0  0  0  0  0  0  0  0  0  0
   23.8277  -20.8580  -14.2438 C   0  0  0  0  0  0  0  0  0  0  0  0
   24.4215  -21.9413  -14.5470 O   0  0  0  0  0  0  0  0  0  0  0  0
   24.1051  -20.4073  -12.9171 N   0  0  0  0  0  0  0  0  0  0  0  0
   25.0410  -21.0973  -12.0475 C   0  0  1  0  0  0  0  0  0  0  0  0
   26.4686  -20.6913  -12.3155 C   0  0  0  0  0  0  0  0  0  0  0  0
   27.6111  -21.4921  -11.1356 S   0  0  0  0  0  0  0  0  0  0  0  0
   24.6790  -20.7712  -10.6495 C   0  0  0  0  0  0  0  0  0  0  0  0
   25.1343  -21.4832   -9.5506 O   0  0  0  0  0  0  0  0  0  0  0  0
   23.9171  -19.7967  -10.4436 O   0  0  0  0  0  0  0  0  0  0  0  0
  2  1  1  1
  3  2  1  0
  4  6  1  0
  4  5  1  6
  4  2  1  0
  6  7  2  0
  8  9  1  0
  8  6  1  0
  9 15  1  0
 10 11  1  0
  9 10  1  6
 12 11  1  0
 13 14  1  0
 13 12  1  0
 15 17  1  0
 15 16  2  0
 17 18  1  0
 18 21  1  0
 18 19  1  6
 20 19  1  0
 21 23  2  0
 21 22  1  0
M  END
$$$$
