VKC.pdb
     RDKit          3D

 23 22  0  0  1  0  0  0  0  0999 V2000
   25.4254  -26.0196  -16.0167 C   0  0  0  0  0  0  0  0  0  0  0  0
   26.2212  -25.6646  -17.2809 C   0  0  2  0  0  0  0  0  0  0  0  0
   27.3498  -26.6663  -17.3593 C   0  0  0  0  0  0  0  0  0  0  0  0
   26.6843  -24.2423  -17.0947 C   0  0  2  0  0  0  0  0  0  0  0  0
   27.6218  -24.2951  -15.9527 N   0  0  0  0  0  0  0  0  0  0  0  0
   25.6348  -23.2802  -16.7832 C   0  0  0  0  0  0  0  0  0  0  0  0
   24.8770  -22.9041  -17.7538 O   0  0  0  0  0  0  0  0  0  0  0  0
   25.3324  -22.7001  -15.5463 N   0  0  0  0  0  0  0  0  0  0  0  0
   24.2999  -21.6750  -15.3628 C   0  0  1  0  0  0  0  0  0  0  0  0
   23.9461  -21.7381  -13.9019 C   0  0  0  0  0  0  0  0  0  0  0  0
   22.8288  -20.8207  -13.5230 C   0  0  0  0  0  0  0  0  0  0  0  0
   21.5304  -21.5928  -13.3160 C   0  0  0  0  0  0  0  0  0  0  0  0
   20.4730  -20.5507  -12.9871 C   0  0  0  0  0  0  0  0  0  0  0  0
   19.2052  -21.2275  -12.7288 N   0  0  0  0  0  0  0  0  0  0  0  0
   24.7244  -20.3490  -15.7676 C   0  0  0  0  0  0  0  0  0  0  0  0
   23.9259  -19.3629  -15.6770 O   0  0  0  0  0  0  0  0  0  0  0  0
   26.0081  -19.9979  -16.2862 N   0  0  0  0  0  0  0  0  0  0  0  0
   26.4341  -18.6165  -16.4220 C   0  0  1  0  0  0  0  0  0  0  0  0
   27.2148  -18.1434  -15.2215 C   0  0  0  0  0  0  0  0  0  0  0  0
   27.2559  -16.3184  -15.1429 S   0  0  0  0  0  0  0  0  0  0  0  0
   27.2742  -18.5231  -17.6375 C   0  0  0  0  0  0  0  0  0  0  0  0
   27.8350  -17.3414  -18.0964 O   0  0  0  0  0  0  0  0  0  0  0  0
   27.4928  -19.5703  -18.2919 O   0  0  0  0  0  0  0  0  0  0  0  0
  2  1  1  1
  3  2  1  0
  4  6  1  0
  4  5  1  1
  4  2  1  0
  6  7  2  0
  8  9  1  0
  8  6  1  0
  9 15  1  0
 10 11  1  0
  9 10  1  1
 12 11  1  0
 13 14  1  0
 13 12  1  0
 15 17  1  0
 15 16  2  0
 17 18  1  0
 18 21  1  0
 18 19  1  1
 20 19  1  0
 21 23  2  0
 21 22  1  0
M  END
$$$$
