VKC.pdb
     RDKit          3D

 23 22  0  0  1  0  0  0  0  0999 V2000
   22.2352  -13.3134  -19.9004 C   0  0  0  0  0  0  0  0  0  0  0  0
   21.6434  -11.9367  -19.5657 C   0  0  2  0  0  0  0  0  0  0  0  0
   22.7877  -10.9548  -19.6646 C   0  0  0  0  0  0  0  0  0  0  0  0
   21.0667  -12.0584  -18.1785 C   0  0  2  0  0  0  0  0  0  0  0  0
   20.1141  -13.1860  -18.2612 N   0  0  0  0  0  0  0  0  0  0  0  0
   20.3490  -10.8853  -17.6960 C   0  0  0  0  0  0  0  0  0  0  0  0
   19.7737  -10.1455  -18.5787 O   0  0  0  0  0  0  0  0  0  0  0  0
   20.1962  -10.4471  -16.3759 N   0  0  0  0  0  0  0  0  0  0  0  0
   19.4686   -9.2289  -16.0057 C   0  0  1  0  0  0  0  0  0  0  0  0
   18.2630   -9.7127  -15.2468 C   0  0  0  0  0  0  0  0  0  0  0  0
   17.2367  -10.3624  -16.1174 C   0  0  0  0  0  0  0  0  0  0  0  0
   16.0222  -10.7966  -15.3043 C   0  0  0  0  0  0  0  0  0  0  0  0
   15.1008  -11.5119  -16.2798 C   0  0  0  0  0  0  0  0  0  0  0  0
   14.0122  -12.1356  -15.5327 N   0  0  0  0  0  0  0  0  0  0  0  0
   20.2636   -8.2936  -15.2338 C   0  0  0  0  0  0  0  0  0  0  0  0
   21.3483   -8.6706  -14.6867 O   0  0  0  0  0  0  0  0  0  0  0  0
   19.9552   -6.9184  -15.0015 N   0  0  0  0  0  0  0  0  0  0  0  0
   20.8001   -6.0654  -14.1850 C   0  0  1  0  0  0  0  0  0  0  0  0
   22.2147   -6.0045  -14.7044 C   0  0  0  0  0  0  0  0  0  0  0  0
   23.1819   -4.7270  -13.8262 S   0  0  0  0  0  0  0  0  0  0  0  0
   20.2046   -4.7099  -14.1865 C   0  0  0  0  0  0  0  0  0  0  0  0
   20.4237   -3.7720  -13.1895 O   0  0  0  0  0  0  0  0  0  0  0  0
   19.4586   -4.3884  -15.1420 O   0  0  0  0  0  0  0  0  0  0  0  0
  2  1  1  1
  3  2  1  0
  4  6  1  0
  4  5  1  6
  4  2  1  0
  6  7  2  0
  8  9  1  0
  8  6  1  0
  9 15  1  0
 10 11  1  0
  9 10  1  1
 12 11  1  0
 13 14  1  0
 13 12  1  0
 15 17  1  0
 15 16  2  0
 17 18  1  0
 18 21  1  0
 18 19  1  6
 20 19  1  0
 21 23  2  0
 21 22  1  0
M  END
$$$$
