VKC.pdb
     RDKit          3D

 23 22  0  0  1  0  0  0  0  0999 V2000
   17.5701  -11.9452  -16.2039 C   0  0  0  0  0  0  0  0  0  0  0  0
   16.6563  -11.4702  -15.0651 C   0  0  2  0  0  0  0  0  0  0  0  0
   15.2632  -11.9291  -15.4284 C   0  0  0  0  0  0  0  0  0  0  0  0
   16.8062   -9.9715  -15.0097 C   0  0  2  0  0  0  0  0  0  0  0  0
   16.1838   -9.4815  -16.2580 N   0  0  0  0  0  0  0  0  0  0  0  0
   18.1784   -9.4832  -14.9582 C   0  0  0  0  0  0  0  0  0  0  0  0
   18.7806   -9.5445  -13.8219 O   0  0  0  0  0  0  0  0  0  0  0  0
   18.9457   -8.9478  -15.9987 N   0  0  0  0  0  0  0  0  0  0  0  0
   20.3114   -8.4439  -15.8220 C   0  0  1  0  0  0  0  0  0  0  0  0
   21.0573   -8.9087  -17.0432 C   0  0  0  0  0  0  0  0  0  0  0  0
   21.4557  -10.3477  -16.9817 C   0  0  0  0  0  0  0  0  0  0  0  0
   22.1185  -10.7900  -18.2817 C   0  0  0  0  0  0  0  0  0  0  0  0
   22.5230  -12.2407  -18.0715 C   0  0  0  0  0  0  0  0  0  0  0  0
   23.2619  -12.7011  -19.2438 N   0  0  0  0  0  0  0  0  0  0  0  0
   20.3788   -7.0055  -15.6526 C   0  0  0  0  0  0  0  0  0  0  0  0
   19.6406   -6.2407  -16.3513 O   0  0  0  0  0  0  0  0  0  0  0  0
   21.2253   -6.3041  -14.7405 N   0  0  0  0  0  0  0  0  0  0  0  0
   21.2099   -4.8564  -14.6310 C   0  0  1  0  0  0  0  0  0  0  0  0
   19.8534   -4.3326  -14.2310 C   0  0  0  0  0  0  0  0  0  0  0  0
   19.9529   -2.5846  -13.7081 S   0  0  0  0  0  0  0  0  0  0  0  0
   22.2171   -4.4722  -13.6162 C   0  0  0  0  0  0  0  0  0  0  0  0
   22.9855   -3.3209  -13.6920 O   0  0  0  0  0  0  0  0  0  0  0  0
   22.3881   -5.2289  -12.6309 O   0  0  0  0  0  0  0  0  0  0  0  0
  2  1  1  6
  3  2  1  0
  4  6  1  0
  4  5  1  6
  4  2  1  0
  6  7  2  0
  8  9  1  0
  8  6  1  0
  9 15  1  0
 10 11  1  0
  9 10  1  6
 12 11  1  0
 13 14  1  0
 13 12  1  0
 15 17  1  0
 15 16  2  0
 17 18  1  0
 18 21  1  0
 18 19  1  1
 20 19  1  0
 21 23  2  0
 21 22  1  0
M  END
$$$$
