VKC.pdb
     RDKit          3D

 23 22  0  0  1  0  0  0  0  0999 V2000
   26.2876  -14.7004  -18.4877 C   0  0  0  0  0  0  0  0  0  0  0  0
   25.6949  -15.2969  -17.2030 C   0  0  2  0  0  0  0  0  0  0  0  0
   24.4208  -15.9962  -17.6161 C   0  0  0  0  0  0  0  0  0  0  0  0
   25.4736  -14.1348  -16.2689 C   0  0  2  0  0  0  0  0  0  0  0  0
   25.0784  -14.7506  -14.9842 N   0  0  0  0  0  0  0  0  0  0  0  0
   24.4294  -13.2011  -16.6712 C   0  0  0  0  0  0  0  0  0  0  0  0
   24.6580  -12.4781  -17.7117 O   0  0  0  0  0  0  0  0  0  0  0  0
   23.1860  -12.9815  -16.0680 N   0  0  0  0  0  0  0  0  0  0  0  0
   22.2121  -11.9987  -16.5537 C   0  0  1  0  0  0  0  0  0  0  0  0
   20.8708  -12.6495  -16.3518 C   0  0  0  0  0  0  0  0  0  0  0  0
   20.4385  -13.4873  -17.5114 C   0  0  0  0  0  0  0  0  0  0  0  0
   20.3408  -14.9578  -17.1203 C   0  0  0  0  0  0  0  0  0  0  0  0
   19.9237  -15.6983  -18.3813 C   0  0  0  0  0  0  0  0  0  0  0  0
   19.8255  -17.1243  -18.0826 N   0  0  0  0  0  0  0  0  0  0  0  0
   22.3049  -10.7151  -15.8858 C   0  0  0  0  0  0  0  0  0  0  0  0
   22.7925  -10.6342  -14.7137 O   0  0  0  0  0  0  0  0  0  0  0  0
   21.8898   -9.4568  -16.4192 N   0  0  0  0  0  0  0  0  0  0  0  0
   21.9854   -8.2255  -15.6555 C   0  0  1  0  0  0  0  0  0  0  0  0
   22.0463   -7.0097  -16.5458 C   0  0  0  0  0  0  0  0  0  0  0  0
   21.9383   -5.4719  -15.5648 S   0  0  0  0  0  0  0  0  0  0  0  0
   20.7955   -8.1478  -14.7781 C   0  0  0  0  0  0  0  0  0  0  0  0
   20.8360   -7.7101  -13.4634 O   0  0  0  0  0  0  0  0  0  0  0  0
   19.6862   -8.4976  -15.2470 O   0  0  0  0  0  0  0  0  0  0  0  0
  2  1  1  6
  3  2  1  0
  4  6  1  0
  4  5  1  1
  4  2  1  0
  6  7  2  0
  8  9  1  0
  8  6  1  0
  9 15  1  0
 10 11  1  0
  9 10  1  1
 12 11  1  0
 13 14  1  0
 13 12  1  0
 15 17  1  0
 15 16  2  0
 17 18  1  0
 18 21  1  0
 18 19  1  6
 20 19  1  0
 21 23  2  0
 21 22  1  0
M  END
$$$$
