VKC.pdb
     RDKit          3D

 23 22  0  0  1  0  0  0  0  0999 V2000
   14.1415  -12.2723  -12.3244 C   0  0  0  0  0  0  0  0  0  0  0  0
   13.7354  -12.3792  -10.8475 C   0  0  2  0  0  0  0  0  0  0  0  0
   12.6269  -13.4046  -10.7922 C   0  0  0  0  0  0  0  0  0  0  0  0
   13.3031  -10.9957  -10.4342 C   0  0  2  0  0  0  0  0  0  0  0  0
   12.1656  -10.6726  -11.3216 N   0  0  0  0  0  0  0  0  0  0  0  0
   14.3128   -9.9555  -10.5847 C   0  0  0  0  0  0  0  0  0  0  0  0
   15.2139   -9.8759   -9.6686 O   0  0  0  0  0  0  0  0  0  0  0  0
   14.4386   -9.0142  -11.6123 N   0  0  0  0  0  0  0  0  0  0  0  0
   15.4326   -7.9361  -11.6064 C   0  0  1  0  0  0  0  0  0  0  0  0
   15.7950   -7.7348  -13.0527 C   0  0  0  0  0  0  0  0  0  0  0  0
   16.7505   -6.6069  -13.2723 C   0  0  0  0  0  0  0  0  0  0  0  0
   17.9957   -7.0788  -14.0150 C   0  0  0  0  0  0  0  0  0  0  0  0
   18.9594   -5.9026  -14.0038 C   0  0  0  0  0  0  0  0  0  0  0  0
   20.1911   -6.2929  -14.6840 N   0  0  0  0  0  0  0  0  0  0  0  0
   14.9568   -6.7154  -10.9852 C   0  0  0  0  0  0  0  0  0  0  0  0
   13.8409   -6.2114  -11.3301 O   0  0  0  0  0  0  0  0  0  0  0  0
   15.6318   -5.9679   -9.9723 N   0  0  0  0  0  0  0  0  0  0  0  0
   15.0816   -4.7422   -9.4220 C   0  0  1  0  0  0  0  0  0  0  0  0
   14.8759   -4.8328   -7.9306 C   0  0  0  0  0  0  0  0  0  0  0  0
   14.4273   -3.2059   -7.2300 S   0  0  0  0  0  0  0  0  0  0  0  0
   16.0265   -3.6460   -9.7341 C   0  0  0  0  0  0  0  0  0  0  0  0
   15.6306   -2.3804  -10.1379 O   0  0  0  0  0  0  0  0  0  0  0  0
   17.2556   -3.8716   -9.6289 O   0  0  0  0  0  0  0  0  0  0  0  0
  2  1  1  6
  3  2  1  0
  4  6  1  0
  4  5  1  6
  4  2  1  0
  6  7  2  0
  8  9  1  0
  8  6  1  0
  9 15  1  0
 10 11  1  0
  9 10  1  6
 12 11  1  0
 13 14  1  0
 13 12  1  0
 15 17  1  0
 15 16  2  0
 17 18  1  0
 18 21  1  0
 18 19  1  1
 20 19  1  0
 21 23  2  0
 21 22  1  0
M  END
$$$$
