VKC.pdb
     RDKit          3D

 23 22  0  0  1  0  0  0  0  0999 V2000
   18.9678  -12.4335  -16.3164 C   0  0  0  0  0  0  0  0  0  0  0  0
   17.7421  -12.0519  -15.4741 C   0  0  2  0  0  0  0  0  0  0  0  0
   16.5785  -12.8186  -16.0583 C   0  0  0  0  0  0  0  0  0  0  0  0
   17.6045  -10.5557  -15.5946 C   0  0  2  0  0  0  0  0  0  0  0  0
   17.1393  -10.3279  -16.9793 N   0  0  0  0  0  0  0  0  0  0  0  0
   18.8329   -9.7979  -15.3923 C   0  0  0  0  0  0  0  0  0  0  0  0
   19.2241   -9.6283  -14.1775 O   0  0  0  0  0  0  0  0  0  0  0  0
   19.6621   -9.2200  -16.3600 N   0  0  0  0  0  0  0  0  0  0  0  0
   20.9254   -8.5447  -16.0459 C   0  0  1  0  0  0  0  0  0  0  0  0
   21.8150   -8.8168  -17.2283 C   0  0  0  0  0  0  0  0  0  0  0  0
   22.4962  -10.1454  -17.1635 C   0  0  0  0  0  0  0  0  0  0  0  0
   23.3330  -10.3950  -18.4135 C   0  0  0  0  0  0  0  0  0  0  0  0
   23.8668  -11.8127  -18.2822 C   0  0  0  0  0  0  0  0  0  0  0  0
   24.5828  -12.1644  -19.5053 N   0  0  0  0  0  0  0  0  0  0  0  0
   20.7733   -7.1259  -15.7889 C   0  0  0  0  0  0  0  0  0  0  0  0
   20.2198   -6.3722  -16.6512 O   0  0  0  0  0  0  0  0  0  0  0  0
   21.1959   -6.4334  -14.6132 N   0  0  0  0  0  0  0  0  0  0  0  0
   21.1031   -4.9894  -14.4929 C   0  0  1  0  0  0  0  0  0  0  0  0
   19.7563   -4.5491  -13.9763 C   0  0  0  0  0  0  0  0  0  0  0  0
   19.8002   -2.8052  -13.4326 S   0  0  0  0  0  0  0  0  0  0  0  0
   22.1677   -4.5470  -13.5639 C   0  0  0  0  0  0  0  0  0  0  0  0
   22.8303   -5.3970  -12.6920 O   0  0  0  0  0  0  0  0  0  0  0  0
   22.4908   -3.3353  -13.5624 O   0  0  0  0  0  0  0  0  0  0  0  0
  2  1  1  6
  3  2  1  0
  4  6  1  0
  4  5  1  6
  4  2  1  0
  6  7  2  0
  8  9  1  0
  8  6  1  0
  9 15  1  0
 10 11  1  0
  9 10  1  6
 12 11  1  0
 13 14  1  0
 13 12  1  0
 15 17  1  0
 15 16  2  0
 17 18  1  0
 18 21  1  0
 18 19  1  1
 20 19  1  0
 21 23  2  0
 21 22  1  0
M  END
$$$$
