VKC.pdb
     RDKit          3D

 23 22  0  0  1  0  0  0  0  0999 V2000
   27.3901  -19.2599  -17.7053 C   0  0  0  0  0  0  0  0  0  0  0  0
   28.1383  -19.9619  -16.5630 C   0  0  2  0  0  0  0  0  0  0  0  0
   29.1614  -20.8575  -17.2220 C   0  0  0  0  0  0  0  0  0  0  0  0
   27.0914  -20.7111  -15.7792 C   0  0  2  0  0  0  0  0  0  0  0  0
   26.6533  -21.8012  -16.6767 N   0  0  0  0  0  0  0  0  0  0  0  0
   25.9205  -19.9314  -15.3981 C   0  0  0  0  0  0  0  0  0  0  0  0
   26.0748  -19.0605  -14.4625 O   0  0  0  0  0  0  0  0  0  0  0  0
   24.6257  -20.0018  -15.9240 N   0  0  0  0  0  0  0  0  0  0  0  0
   23.5136  -19.1698  -15.4533 C   0  0  1  0  0  0  0  0  0  0  0  0
   23.0124  -18.4610  -16.6821 C   0  0  0  0  0  0  0  0  0  0  0  0
   21.8996  -17.5039  -16.4012 C   0  0  0  0  0  0  0  0  0  0  0  0
   21.4564  -16.7885  -17.6726 C   0  0  0  0  0  0  0  0  0  0  0  0
   20.3350  -15.8505  -17.2546 C   0  0  0  0  0  0  0  0  0  0  0  0
   19.8649  -15.1213  -18.4291 N   0  0  0  0  0  0  0  0  0  0  0  0
   22.4679  -19.9247  -14.7907 C   0  0  0  0  0  0  0  0  0  0  0  0
   22.0681  -21.0308  -15.2753 O   0  0  0  0  0  0  0  0  0  0  0  0
   21.7941  -19.5520  -13.5876 N   0  0  0  0  0  0  0  0  0  0  0  0
   20.7807  -20.3944  -12.9781 C   0  0  1  0  0  0  0  0  0  0  0  0
   20.8130  -20.3205  -11.4721 C   0  0  0  0  0  0  0  0  0  0  0  0
   19.4381  -21.2747  -10.7385 S   0  0  0  0  0  0  0  0  0  0  0  0
   19.4619  -19.9418  -13.4760 C   0  0  0  0  0  0  0  0  0  0  0  0
   18.3673  -20.7791  -13.6261 O   0  0  0  0  0  0  0  0  0  0  0  0
   19.3233  -18.7333  -13.7808 O   0  0  0  0  0  0  0  0  0  0  0  0
  2  1  1  6
  3  2  1  0
  4  6  1  0
  4  5  1  6
  4  2  1  0
  6  7  2  0
  8  9  1  0
  8  6  1  0
  9 15  1  0
 10 11  1  0
  9 10  1  6
 12 11  1  0
 13 14  1  0
 13 12  1  0
 15 17  1  0
 15 16  2  0
 17 18  1  0
 18 21  1  0
 18 19  1  1
 20 19  1  0
 21 23  2  0
 21 22  1  0
M  END
$$$$
