TPV.pdb
     RDKit          3D

 22 22  0  0  1  0  0  0  0  0999 V2000
   20.4440  -11.4351  -19.3384 C   0  0  0  0  0  0  0  0  0  0  0  0
   19.9074  -12.4113  -18.3153 C   0  0  1  0  0  0  0  0  0  0  0  0
   19.4813  -13.5764  -18.9096 O   0  0  0  0  0  0  0  0  0  0  0  0
   20.9763  -12.6705  -17.2462 C   0  0  2  0  0  0  0  0  0  0  0  0
   20.6101  -13.7804  -16.4615 N   0  0  0  0  0  0  0  0  0  0  0  0
   21.2304  -11.4493  -16.4541 C   0  0  0  0  0  0  0  0  0  0  0  0
   20.2506  -10.6049  -16.5511 O   0  0  0  0  0  0  0  0  0  0  0  0
   22.3218  -11.1239  -15.6702 N   0  0  0  0  0  0  0  0  0  0  0  0
   23.1296  -12.0660  -14.8925 C   0  0  0  0  0  0  0  0  0  0  0  0
   24.5462  -11.6496  -15.3295 C   0  0  0  0  0  0  0  0  0  0  0  0
   24.3867  -10.2765  -15.9963 C   0  0  0  0  0  0  0  0  0  0  0  0
   22.9997   -9.8984  -15.4311 C   0  0  1  0  0  0  0  0  0  0  0  0
   22.5025   -8.6371  -15.8641 C   0  0  0  0  0  0  0  0  0  0  0  0
   22.4472   -8.2323  -17.0287 O   0  0  0  0  0  0  0  0  0  0  0  0
   19.4325   -6.5994  -13.9046 C   0  0  0  0  0  0  0  0  0  0  0  0
   20.0775   -6.2604  -15.2174 C   0  0  2  0  0  0  0  0  0  0  0  0
   19.4888   -7.0727  -16.3407 C   0  0  0  0  0  0  0  0  0  0  0  0
   21.5817   -6.4070  -15.1724 C   0  0  2  0  0  0  0  0  0  0  0  0
   22.0136   -7.7344  -14.8650 N   0  0  0  0  0  0  0  0  0  0  0  0
   22.1268   -5.4917  -14.1381 C   0  0  0  0  0  0  0  0  0  0  0  0
   22.4233   -5.8914  -12.9823 O   0  0  0  0  0  0  0  0  0  0  0  0
   22.3024   -4.1568  -14.4928 O   0  0  0  0  0  0  0  0  0  0  0  0
  2  3  1  0
  2  1  1  6
  4  2  1  0
  4  5  1  1
  6  4  1  0
  7  6  2  0
  8  6  1  0
  8 12  1  0
  9 10  1  0
  9  8  1  0
 10 11  1  0
 11 12  1  0
 12 13  1  6
 13 19  1  0
 13 14  2  0
 16 18  1  0
 16 15  1  1
 17 16  1  0
 18 20  1  0
 18 19  1  1
 20 22  1  0
 21 20  2  0
M  END
$$$$
