TPV.pdb
     RDKit          3D

 22 22  0  0  1  0  0  0  0  0999 V2000
   28.9809  -18.2008  -17.9080 C   0  0  0  0  0  0  0  0  0  0  0  0
   28.4214  -18.5855  -16.5566 C   0  0  1  0  0  0  0  0  0  0  0  0
   27.1172  -18.1711  -16.4176 O   0  0  0  0  0  0  0  0  0  0  0  0
   28.5667  -20.0992  -16.3551 C   0  0  2  0  0  0  0  0  0  0  0  0
   27.9919  -20.7847  -17.4419 N   0  0  0  0  0  0  0  0  0  0  0  0
   28.0168  -20.5075  -15.0459 C   0  0  0  0  0  0  0  0  0  0  0  0
   26.7239  -20.4068  -15.0189 O   0  0  0  0  0  0  0  0  0  0  0  0
   28.6787  -20.9571  -13.9184 N   0  0  0  0  0  0  0  0  0  0  0  0
   29.8839  -21.7891  -13.9070 C   0  0  0  0  0  0  0  0  0  0  0  0
   30.7624  -20.9985  -12.9199 C   0  0  0  0  0  0  0  0  0  0  0  0
   29.8101  -20.0352  -12.1984 C   0  0  0  0  0  0  0  0  0  0  0  0
   28.4720  -20.7316  -12.5309 C   0  0  1  0  0  0  0  0  0  0  0  0
   27.3165  -20.0827  -12.0121 C   0  0  0  0  0  0  0  0  0  0  0  0
   27.0975  -18.8680  -12.0098 O   0  0  0  0  0  0  0  0  0  0  0  0
   22.6037  -20.1422  -11.1088 C   0  0  0  0  0  0  0  0  0  0  0  0
   23.8538  -20.7508  -11.6753 C   0  0  2  0  0  0  0  0  0  0  0  0
   23.7323  -22.2482  -11.7820 C   0  0  0  0  0  0  0  0  0  0  0  0
   25.0874  -20.3611  -10.8925 C   0  0  2  0  0  0  0  0  0  0  0  0
   26.2957  -20.9026  -11.4309 N   0  0  0  0  0  0  0  0  0  0  0  0
   24.9465  -20.8428   -9.4951 C   0  0  0  0  0  0  0  0  0  0  0  0
   25.1261  -22.0487   -9.1834 O   0  0  0  0  0  0  0  0  0  0  0  0
   24.6041  -19.9039   -8.5257 O   0  0  0  0  0  0  0  0  0  0  0  0
  2  3  1  0
  2  1  1  6
  4  2  1  0
  4  5  1  6
  6  4  1  0
  7  6  2  0
  8  6  1  0
  8 12  1  0
  9 10  1  0
  9  8  1  0
 10 11  1  0
 11 12  1  0
 12 13  1  6
 13 19  1  0
 13 14  2  0
 16 18  1  0
 16 15  1  1
 17 16  1  0
 18 20  1  0
 18 19  1  6
 20 22  1  0
 21 20  2  0
M  END
$$$$
