TPV.pdb
     RDKit          3D

 22 22  0  0  1  0  0  0  0  0999 V2000
   14.1993  -28.8838   -4.3440 C   0  0  0  0  0  0  0  0  0  0  0  0
   15.3698  -29.3615   -3.5138 C   0  0  1  0  0  0  0  0  0  0  0  0
   15.6892  -30.6679   -3.8028 O   0  0  0  0  0  0  0  0  0  0  0  0
   16.5626  -28.4200   -3.7222 C   0  0  2  0  0  0  0  0  0  0  0  0
   17.7198  -28.9779   -3.1467 N   0  0  0  0  0  0  0  0  0  0  0  0
   16.2526  -27.0647   -3.2219 C   0  0  0  0  0  0  0  0  0  0  0  0
   15.8189  -27.0947   -1.9999 O   0  0  0  0  0  0  0  0  0  0  0  0
   16.3655  -25.8458   -3.8644 N   0  0  0  0  0  0  0  0  0  0  0  0
   17.3319  -25.5168   -4.9144 C   0  0  0  0  0  0  0  0  0  0  0  0
   16.4009  -24.8868   -5.9667 C   0  0  0  0  0  0  0  0  0  0  0  0
   15.0897  -24.5819   -5.2295 C   0  0  0  0  0  0  0  0  0  0  0  0
   15.6145  -24.6428   -3.7779 C   0  0  1  0  0  0  0  0  0  0  0  0
   14.6295  -24.4110   -2.7771 C   0  0  0  0  0  0  0  0  0  0  0  0
   13.6805  -25.1493   -2.4985 O   0  0  0  0  0  0  0  0  0  0  0  0
   15.0614  -20.8374   -0.2579 C   0  0  0  0  0  0  0  0  0  0  0  0
   14.3880  -22.1104    0.1667 C   0  0  2  0  0  0  0  0  0  0  0  0
   15.3304  -22.9950    0.9398 C   0  0  0  0  0  0  0  0  0  0  0  0
   13.7800  -22.8547   -1.0006 C   0  0  2  0  0  0  0  0  0  0  0  0
   14.7321  -23.2078   -2.0065 N   0  0  0  0  0  0  0  0  0  0  0  0
   12.7378  -22.0033   -1.6280 C   0  0  0  0  0  0  0  0  0  0  0  0
   12.9718  -21.3047   -2.6482 O   0  0  0  0  0  0  0  0  0  0  0  0
   11.4743  -22.0022   -1.0431 O   0  0  0  0  0  0  0  0  0  0  0  0
  2  3  1  0
  2  1  1  6
  4  2  1  0
  4  5  1  1
  6  4  1  0
  7  6  2  0
  8  6  1  0
  8 12  1  0
  9 10  1  0
  9  8  1  0
 10 11  1  0
 11 12  1  0
 12 13  1  1
 13 19  1  0
 13 14  2  0
 16 18  1  0
 16 15  1  6
 17 16  1  0
 18 20  1  0
 18 19  1  6
 20 22  1  0
 21 20  2  0
M  END
$$$$
