TPV.pdb
     RDKit          3D

 22 22  0  0  1  0  0  0  0  0999 V2000
   27.5788  -18.7023  -13.0320 C   0  0  0  0  0  0  0  0  0  0  0  0
   26.2500  -19.4197  -13.1159 C   0  0  1  0  0  0  0  0  0  0  0  0
   25.7128  -19.3336  -14.3794 O   0  0  0  0  0  0  0  0  0  0  0  0
   26.4254  -20.8754  -12.6654 C   0  0  2  0  0  0  0  0  0  0  0  0
   25.2430  -21.5988  -12.9105 N   0  0  0  0  0  0  0  0  0  0  0  0
   26.8707  -20.9370  -11.2579 C   0  0  0  0  0  0  0  0  0  0  0  0
   26.0169  -20.3715  -10.4619 O   0  0  0  0  0  0  0  0  0  0  0  0
   28.0187  -21.4936  -10.7249 N   0  0  0  0  0  0  0  0  0  0  0  0
   28.8006  -22.5795  -11.3201 C   0  0  0  0  0  0  0  0  0  0  0  0
   30.2180  -21.9834  -11.2382 C   0  0  0  0  0  0  0  0  0  0  0  0
   30.1159  -20.8065  -10.2584 C   0  0  0  0  0  0  0  0  0  0  0  0
   28.7865  -21.1863   -9.5697 C   0  0  1  0  0  0  0  0  0  0  0  0
   28.3521  -20.2745   -8.5669 C   0  0  0  0  0  0  0  0  0  0  0  0
   28.0087  -19.1021   -8.7422 O   0  0  0  0  0  0  0  0  0  0  0  0
   27.4326  -21.3590   -4.1604 C   0  0  0  0  0  0  0  0  0  0  0  0
   26.8856  -20.4536   -5.2260 C   0  0  2  0  0  0  0  0  0  0  0  0
   25.8250  -21.1469   -6.0400 C   0  0  0  0  0  0  0  0  0  0  0  0
   27.9720  -19.8926   -6.1155 C   0  0  2  0  0  0  0  0  0  0  0  0
   28.3018  -20.7447   -7.2147 N   0  0  0  0  0  0  0  0  0  0  0  0
   29.1999  -19.6835   -5.3073 C   0  0  0  0  0  0  0  0  0  0  0  0
   30.1391  -20.5210   -5.2911 O   0  0  0  0  0  0  0  0  0  0  0  0
   29.2807  -18.5139   -4.5564 O   0  0  0  0  0  0  0  0  0  0  0  0
  2  3  1  0
  2  1  1  6
  4  2  1  0
  4  5  1  1
  6  4  1  0
  7  6  2  0
  8  6  1  0
  8 12  1  0
  9 10  1  0
  9  8  1  0
 10 11  1  0
 11 12  1  0
 12 13  1  6
 13 19  1  0
 13 14  2  0
 16 18  1  0
 16 15  1  1
 17 16  1  0
 18 20  1  0
 18 19  1  6
 20 22  1  0
 21 20  2  0
M  END
$$$$
