TPV.pdb
     RDKit          3D

 22 22  0  0  1  0  0  0  0  0999 V2000
   26.8196  -16.1180  -15.0829 C   0  0  0  0  0  0  0  0  0  0  0  0
   25.9411  -16.6909  -16.1726 C   0  0  1  0  0  0  0  0  0  0  0  0
   25.9828  -15.9167  -17.3088 O   0  0  0  0  0  0  0  0  0  0  0  0
   26.3533  -18.1417  -16.4519 C   0  0  2  0  0  0  0  0  0  0  0  0
   25.6861  -18.6178  -17.5963 N   0  0  0  0  0  0  0  0  0  0  0  0
   26.1432  -18.9843  -15.2564 C   0  0  0  0  0  0  0  0  0  0  0  0
   24.9855  -18.7639  -14.7146 O   0  0  0  0  0  0  0  0  0  0  0  0
   26.9840  -19.9218  -14.6856 N   0  0  0  0  0  0  0  0  0  0  0  0
   27.9131  -20.7926  -15.4089 C   0  0  0  0  0  0  0  0  0  0  0  0
   29.2002  -20.5701  -14.5933 C   0  0  0  0  0  0  0  0  0  0  0  0
   28.7507  -19.9088  -13.2832 C   0  0  0  0  0  0  0  0  0  0  0  0
   27.2510  -20.2749  -13.3356 C   0  0  1  0  0  0  0  0  0  0  0  0
   26.4809  -19.7948  -12.2392 C   0  0  0  0  0  0  0  0  0  0  0  0
   26.5165  -18.6572  -11.7616 O   0  0  0  0  0  0  0  0  0  0  0  0
   22.4036  -19.8236   -9.7402 C   0  0  0  0  0  0  0  0  0  0  0  0
   23.2646  -20.2343  -10.8997 C   0  0  2  0  0  0  0  0  0  0  0  0
   22.7812  -21.5240  -11.5089 C   0  0  0  0  0  0  0  0  0  0  0  0
   24.7265  -20.3259  -10.5246 C   0  0  2  0  0  0  0  0  0  0  0  0
   25.5693  -20.7063  -11.6146 N   0  0  0  0  0  0  0  0  0  0  0  0
   24.8870  -21.3304   -9.4430 C   0  0  0  0  0  0  0  0  0  0  0  0
   24.5577  -21.0881   -8.2528 O   0  0  0  0  0  0  0  0  0  0  0  0
   25.4214  -22.5676   -9.7923 O   0  0  0  0  0  0  0  0  0  0  0  0
  2  3  1  0
  2  1  1  1
  4  2  1  0
  4  5  1  6
  6  4  1  0
  7  6  2  0
  8  6  1  0
  8 12  1  0
  9 10  1  0
  9  8  1  0
 10 11  1  0
 11 12  1  0
 12 13  1  1
 13 19  1  0
 13 14  2  0
 16 18  1  0
 16 15  1  1
 17 16  1  0
 18 20  1  0
 18 19  1  6
 20 22  1  0
 21 20  2  0
M  END
$$$$
