TPV.pdb
     RDKit          3D

 22 22  0  0  1  0  0  0  0  0999 V2000
   27.0735  -18.0464  -13.3498 C   0  0  0  0  0  0  0  0  0  0  0  0
   25.8363  -18.8409  -13.7041 C   0  0  1  0  0  0  0  0  0  0  0  0
   25.4014  -18.5505  -14.9764 O   0  0  0  0  0  0  0  0  0  0  0  0
   26.1201  -20.3373  -13.5227 C   0  0  2  0  0  0  0  0  0  0  0  0
   25.0374  -21.0931  -14.0105 N   0  0  0  0  0  0  0  0  0  0  0  0
   26.4605  -20.6382  -12.1167 C   0  0  0  0  0  0  0  0  0  0  0  0
   25.5253  -20.2505  -11.3057 O   0  0  0  0  0  0  0  0  0  0  0  0
   27.5881  -21.2477  -11.5986 N   0  0  0  0  0  0  0  0  0  0  0  0
   28.4288  -22.2258  -12.2924 C   0  0  0  0  0  0  0  0  0  0  0  0
   29.8246  -21.6263  -12.0405 C   0  0  0  0  0  0  0  0  0  0  0  0
   29.6378  -20.6027  -10.9123 C   0  0  0  0  0  0  0  0  0  0  0  0
   28.2797  -21.0968  -10.3667 C   0  0  1  0  0  0  0  0  0  0  0  0
   27.7662  -20.3439   -9.2736 C   0  0  0  0  0  0  0  0  0  0  0  0
   27.3608  -19.1787   -9.3130 O   0  0  0  0  0  0  0  0  0  0  0  0
   25.3063  -21.4620   -6.1535 C   0  0  0  0  0  0  0  0  0  0  0  0
   26.7092  -21.1115   -5.7492 C   0  0  2  0  0  0  0  0  0  0  0  0
   26.7373  -20.4395   -4.4016 C   0  0  0  0  0  0  0  0  0  0  0  0
   27.4130  -20.2700   -6.7898 C   0  0  2  0  0  0  0  0  0  0  0  0
   27.7059  -20.9834   -7.9932 N   0  0  0  0  0  0  0  0  0  0  0  0
   28.6920  -19.7706   -6.2247 C   0  0  0  0  0  0  0  0  0  0  0  0
   29.7659  -20.4184   -6.3289 O   0  0  0  0  0  0  0  0  0  0  0  0
   28.6655  -18.5444   -5.5658 O   0  0  0  0  0  0  0  0  0  0  0  0
  2  3  1  0
  2  1  1  6
  4  2  1  0
  4  5  1  1
  6  4  1  0
  7  6  2  0
  8  6  1  0
  8 12  1  0
  9 10  1  0
  9  8  1  0
 10 11  1  0
 11 12  1  0
 12 13  1  1
 13 19  1  0
 13 14  2  0
 16 18  1  0
 16 15  1  6
 17 16  1  0
 18 20  1  0
 18 19  1  6
 20 22  1  0
 21 20  2  0
M  END
$$$$
