TPV.pdb
     RDKit          3D

 22 22  0  0  1  0  0  0  0  0999 V2000
   15.9216   -7.9069  -19.4481 C   0  0  0  0  0  0  0  0  0  0  0  0
   15.8494   -9.2429  -18.7429 C   0  0  1  0  0  0  0  0  0  0  0  0
   14.7656   -9.9759  -19.1675 O   0  0  0  0  0  0  0  0  0  0  0  0
   17.1682   -9.9997  -18.9452 C   0  0  2  0  0  0  0  0  0  0  0  0
   17.0313  -11.3285  -18.5011 N   0  0  0  0  0  0  0  0  0  0  0  0
   18.2881   -9.2789  -18.3053 C   0  0  0  0  0  0  0  0  0  0  0  0
   18.0296   -8.9997  -17.0652 O   0  0  0  0  0  0  0  0  0  0  0  0
   19.5030   -8.8934  -18.8410 N   0  0  0  0  0  0  0  0  0  0  0  0
   20.2104   -9.5663  -19.9325 C   0  0  0  0  0  0  0  0  0  0  0  0
   20.5304   -8.3662  -20.8427 C   0  0  0  0  0  0  0  0  0  0  0  0
   20.3112   -7.1191  -19.9754 C   0  0  0  0  0  0  0  0  0  0  0  0
   20.3570   -7.7875  -18.5836 C   0  0  1  0  0  0  0  0  0  0  0  0
   20.1696   -6.8984  -17.4882 C   0  0  0  0  0  0  0  0  0  0  0  0
   19.1670   -6.2148  -17.2630 O   0  0  0  0  0  0  0  0  0  0  0  0
   21.8304   -5.5156  -13.0367 C   0  0  0  0  0  0  0  0  0  0  0  0
   21.6044   -6.5261  -14.1239 C   0  0  2  0  0  0  0  0  0  0  0  0
   22.8201   -7.3917  -14.3262 C   0  0  0  0  0  0  0  0  0  0  0  0
   21.1732   -5.8842  -15.4233 C   0  0  2  0  0  0  0  0  0  0  0  0
   21.2384   -6.7702  -16.5430 N   0  0  0  0  0  0  0  0  0  0  0  0
   22.0509   -4.7196  -15.7027 C   0  0  0  0  0  0  0  0  0  0  0  0
   23.1037   -4.8254  -16.3840 O   0  0  0  0  0  0  0  0  0  0  0  0
   21.6666   -3.4880  -15.1793 O   0  0  0  0  0  0  0  0  0  0  0  0
  2  3  1  0
  2  1  1  6
  4  2  1  0
  4  5  1  1
  6  4  1  0
  7  6  2  0
  8  6  1  0
  8 12  1  0
  9 10  1  0
  9  8  1  0
 10 11  1  0
 11 12  1  0
 12 13  1  1
 13 19  1  0
 13 14  2  0
 16 18  1  0
 16 15  1  1
 17 16  1  0
 18 20  1  0
 18 19  1  6
 20 22  1  0
 21 20  2  0
M  END
$$$$
