TPV.pdb
     RDKit          3D

 22 22  0  0  1  0  0  0  0  0999 V2000
   21.1944  -13.2259  -19.4766 C   0  0  0  0  0  0  0  0  0  0  0  0
   20.6200  -12.2223  -18.5017 C   0  0  1  0  0  0  0  0  0  0  0  0
   19.2664  -12.0619  -18.6868 O   0  0  0  0  0  0  0  0  0  0  0  0
   20.9557  -12.6522  -17.0681 C   0  0  2  0  0  0  0  0  0  0  0  0
   20.0022  -13.5812  -16.6105 N   0  0  0  0  0  0  0  0  0  0  0  0
   21.0967  -11.4735  -16.1883 C   0  0  0  0  0  0  0  0  0  0  0  0
   20.0262  -10.7412  -16.1962 O   0  0  0  0  0  0  0  0  0  0  0  0
   22.1691  -11.0863  -15.4063 N   0  0  0  0  0  0  0  0  0  0  0  0
   23.0328  -11.9810  -14.6327 C   0  0  0  0  0  0  0  0  0  0  0  0
   24.4214  -11.4812  -15.0721 C   0  0  0  0  0  0  0  0  0  0  0  0
   24.1798  -10.1183  -15.7354 C   0  0  0  0  0  0  0  0  0  0  0  0
   22.7745   -9.8236  -15.1659 C   0  0  1  0  0  0  0  0  0  0  0  0
   22.2029   -8.5928  -15.5947 C   0  0  0  0  0  0  0  0  0  0  0  0
   21.9702   -8.2600  -16.7602 O   0  0  0  0  0  0  0  0  0  0  0  0
   19.0047   -7.1234  -15.1767 C   0  0  0  0  0  0  0  0  0  0  0  0
   19.9153   -6.1253  -14.5219 C   0  0  2  0  0  0  0  0  0  0  0  0
   19.4737   -4.7140  -14.8070 C   0  0  0  0  0  0  0  0  0  0  0  0
   21.3629   -6.3294  -14.9084 C   0  0  2  0  0  0  0  0  0  0  0  0
   21.8570   -7.6322  -14.5899 N   0  0  0  0  0  0  0  0  0  0  0  0
   22.1996   -5.3302  -14.1970 C   0  0  0  0  0  0  0  0  0  0  0  0
   22.7153   -5.5695  -13.0743 O   0  0  0  0  0  0  0  0  0  0  0  0
   22.3987   -4.1014  -14.8206 O   0  0  0  0  0  0  0  0  0  0  0  0
  2  3  1  0
  2  1  1  6
  4  2  1  0
  4  5  1  1
  6  4  1  0
  7  6  2  0
  8  6  1  0
  8 12  1  0
  9 10  1  0
  9  8  1  0
 10 11  1  0
 11 12  1  0
 12 13  1  6
 13 19  1  0
 13 14  2  0
 16 18  1  0
 16 15  1  6
 17 16  1  0
 18 20  1  0
 18 19  1  1
 20 22  1  0
 21 20  2  0
M  END
$$$$
