TPV.pdb
     RDKit          3D

 22 22  0  0  1  0  0  0  0  0999 V2000
   18.9263  -11.5474  -20.3693 C   0  0  0  0  0  0  0  0  0  0  0  0
   19.1310  -12.8501  -19.6286 C   0  0  1  0  0  0  0  0  0  0  0  0
   18.8436  -13.9318  -20.4282 O   0  0  0  0  0  0  0  0  0  0  0  0
   20.5623  -12.9069  -19.0799 C   0  0  2  0  0  0  0  0  0  0  0  0
   20.8542  -14.2105  -18.6362 N   0  0  0  0  0  0  0  0  0  0  0  0
   20.7661  -11.8741  -18.0431 C   0  0  0  0  0  0  0  0  0  0  0  0
   19.7376  -11.7755  -17.2589 O   0  0  0  0  0  0  0  0  0  0  0  0
   21.8574  -11.0537  -17.8252 N   0  0  0  0  0  0  0  0  0  0  0  0
   23.2453  -11.3627  -18.1761 C   0  0  0  0  0  0  0  0  0  0  0  0
   23.6454  -10.0683  -18.9080 C   0  0  0  0  0  0  0  0  0  0  0  0
   22.5685   -9.0372  -18.5437 C   0  0  0  0  0  0  0  0  0  0  0  0
   21.9796   -9.7392  -17.3001 C   0  0  1  0  0  0  0  0  0  0  0  0
   20.9028   -9.0469  -16.6781 C   0  0  0  0  0  0  0  0  0  0  0  0
   19.8099   -8.7834  -17.1874 O   0  0  0  0  0  0  0  0  0  0  0  0
   20.5793   -8.9489  -12.4344 C   0  0  0  0  0  0  0  0  0  0  0  0
   19.5235   -8.5640  -13.4301 C   0  0  2  0  0  0  0  0  0  0  0  0
   18.7143   -9.7600  -13.8578 C   0  0  0  0  0  0  0  0  0  0  0  0
   20.0998   -7.8427  -14.6276 C   0  0  2  0  0  0  0  0  0  0  0  0
   21.0860   -8.6040  -15.3281 N   0  0  0  0  0  0  0  0  0  0  0  0
   20.7288   -6.5765  -14.1737 C   0  0  0  0  0  0  0  0  0  0  0  0
   21.9764   -6.4516  -14.0673 O   0  0  0  0  0  0  0  0  0  0  0  0
   19.8817   -5.5156  -13.8648 O   0  0  0  0  0  0  0  0  0  0  0  0
  2  3  1  0
  2  1  1  6
  4  2  1  0
  4  5  1  1
  6  4  1  0
  7  6  2  0
  8  6  1  0
  8 12  1  0
  9 10  1  0
  9  8  1  0
 10 11  1  0
 11 12  1  0
 12 13  1  6
 13 19  1  0
 13 14  2  0
 16 18  1  0
 16 15  1  1
 17 16  1  0
 18 20  1  0
 18 19  1  1
 20 22  1  0
 21 20  2  0
M  END
$$$$
