TPV.pdb
     RDKit          3D

 22 22  0  0  1  0  0  0  0  0999 V2000
   22.7316  -22.8454  -15.1177 C   0  0  0  0  0  0  0  0  0  0  0  0
   21.6894  -21.9810  -14.4438 C   0  0  1  0  0  0  0  0  0  0  0  0
   20.4884  -22.6418  -14.3287 O   0  0  0  0  0  0  0  0  0  0  0  0
   22.2177  -21.5105  -13.0828 C   0  0  2  0  0  0  0  0  0  0  0  0
   21.1597  -20.9959  -12.3098 N   0  0  0  0  0  0  0  0  0  0  0  0
   23.3352  -20.5594  -13.2561 C   0  0  0  0  0  0  0  0  0  0  0  0
   23.0293  -19.6094  -14.0845 O   0  0  0  0  0  0  0  0  0  0  0  0
   24.5890  -20.5642  -12.6735 N   0  0  0  0  0  0  0  0  0  0  0  0
   24.8747  -20.8016  -11.2569 C   0  0  0  0  0  0  0  0  0  0  0  0
   25.9902  -21.8573  -11.3678 C   0  0  0  0  0  0  0  0  0  0  0  0
   26.4683  -21.8025  -12.8252 C   0  0  0  0  0  0  0  0  0  0  0  0
   25.8966  -20.4201  -13.2102 C   0  0  1  0  0  0  0  0  0  0  0  0
   26.1465  -20.0243  -14.5542 C   0  0  0  0  0  0  0  0  0  0  0  0
   25.9597  -20.7068  -15.5655 O   0  0  0  0  0  0  0  0  0  0  0  0
   27.7812  -16.0105  -15.2201 C   0  0  0  0  0  0  0  0  0  0  0  0
   26.6775  -16.6035  -16.0474 C   0  0  2  0  0  0  0  0  0  0  0  0
   25.3284  -16.1173  -15.5870 C   0  0  0  0  0  0  0  0  0  0  0  0
   26.7292  -18.1144  -16.0748 C   0  0  2  0  0  0  0  0  0  0  0  0
   26.6662  -18.7080  -14.7761 N   0  0  0  0  0  0  0  0  0  0  0  0
   27.9961  -18.5440  -16.7192 C   0  0  0  0  0  0  0  0  0  0  0  0
   28.1152  -18.6247  -17.9694 O   0  0  0  0  0  0  0  0  0  0  0  0
   29.0643  -18.8596  -15.8840 O   0  0  0  0  0  0  0  0  0  0  0  0
  2  3  1  0
  2  1  1  1
  4  2  1  0
  4  5  1  6
  6  4  1  0
  7  6  2  0
  8  6  1  0
  8 12  1  0
  9 10  1  0
  9  8  1  0
 10 11  1  0
 11 12  1  0
 12 13  1  6
 13 19  1  0
 13 14  2  0
 16 18  1  0
 16 15  1  1
 17 16  1  0
 18 20  1  0
 18 19  1  1
 20 22  1  0
 21 20  2  0
M  END
$$$$
