TPV.pdb
     RDKit          3D

 22 22  0  0  1  0  0  0  0  0999 V2000
   16.8203  -11.5393  -19.4648 C   0  0  0  0  0  0  0  0  0  0  0  0
   17.5955  -12.8130  -19.2115 C   0  0  1  0  0  0  0  0  0  0  0  0
   17.0424  -13.8784  -19.8832 O   0  0  0  0  0  0  0  0  0  0  0  0
   19.0671  -12.5994  -19.5878 C   0  0  2  0  0  0  0  0  0  0  0  0
   19.7488  -13.8310  -19.5748 N   0  0  0  0  0  0  0  0  0  0  0  0
   19.6857  -11.5765  -18.7193 C   0  0  0  0  0  0  0  0  0  0  0  0
   19.3838  -11.7636  -17.4718 O   0  0  0  0  0  0  0  0  0  0  0  0
   20.4984  -10.5114  -19.0609 N   0  0  0  0  0  0  0  0  0  0  0  0
   21.2966  -10.4003  -20.2837 C   0  0  0  0  0  0  0  0  0  0  0  0
   20.8976   -8.9891  -20.7531 C   0  0  0  0  0  0  0  0  0  0  0  0
   20.2276   -8.3245  -19.5428 C   0  0  0  0  0  0  0  0  0  0  0  0
   20.7561   -9.2623  -18.4349 C   0  0  1  0  0  0  0  0  0  0  0  0
   20.3109   -8.9441  -17.1212 C   0  0  0  0  0  0  0  0  0  0  0  0
   19.1391   -8.8102  -16.7572 O   0  0  0  0  0  0  0  0  0  0  0  0
   22.9516   -9.7027  -13.8770 C   0  0  0  0  0  0  0  0  0  0  0  0
   21.4729   -9.4699  -13.7602 C   0  0  2  0  0  0  0  0  0  0  0  0
   20.7056  -10.7599  -13.8841 C   0  0  0  0  0  0  0  0  0  0  0  0
   20.9734   -8.4441  -14.7525 C   0  0  2  0  0  0  0  0  0  0  0  0
   21.3052   -8.7565  -16.1072 N   0  0  0  0  0  0  0  0  0  0  0  0
   21.5664   -7.1232  -14.4234 C   0  0  0  0  0  0  0  0  0  0  0  0
   21.2355   -6.4810  -13.3930 O   0  0  0  0  0  0  0  0  0  0  0  0
   22.5144   -6.6096  -15.3043 O   0  0  0  0  0  0  0  0  0  0  0  0
  2  3  1  0
  2  1  1  6
  4  2  1  0
  4  5  1  1
  6  4  1  0
  7  6  2  0
  8  6  1  0
  8 12  1  0
  9 10  1  0
  9  8  1  0
 10 11  1  0
 11 12  1  0
 12 13  1  1
 13 19  1  0
 13 14  2  0
 16 18  1  0
 16 15  1  6
 17 16  1  0
 18 20  1  0
 18 19  1  6
 20 22  1  0
 21 20  2  0
M  END
$$$$
