PIP.pdb
     RDKit          3D

 23 24  0  0  1  0  0  0  0  0999 V2000
    7.3215  -15.9145   21.3285 N   0  0  0  0  0  0  0  0  0  0  0  0
    7.1339  -16.0587   19.8888 C   0  0  0  0  0  0  0  0  0  0  0  0
    7.7379  -14.8097   19.2719 C   0  0  0  0  0  0  0  0  0  0  0  0
    8.3747  -14.0764   20.4410 C   0  0  0  0  0  0  0  0  0  0  0  0
    8.5909  -15.2445   21.4122 C   0  0  1  0  0  0  0  0  0  0  0  0
    8.9182  -14.7792   22.7658 C   0  0  0  0  0  0  0  0  0  0  0  0
   10.0324  -14.2637   23.0062 O   0  0  0  0  0  0  0  0  0  0  0  0
    5.2350  -12.1566   25.7840 C   0  0  0  0  0  0  0  0  0  0  0  0
    6.5137  -12.6204   25.1624 C   0  0  0  0  0  0  0  0  0  0  0  0
    7.0145  -13.8851   25.7524 C   0  0  2  0  0  0  0  0  0  0  0  0
    7.1270  -13.6897   27.2551 C   0  0  0  0  0  0  0  0  0  0  0  0
    8.3177  -14.3935   25.1689 C   0  0  2  0  0  0  0  0  0  0  0  0
    8.0031  -14.8866   23.8606 N   0  0  0  0  0  0  0  0  0  0  0  0
    9.0181  -15.3294   25.9957 C   0  0  0  0  0  0  0  0  0  0  0  0
    8.8001  -16.5805   25.7436 O   0  0  0  0  0  0  0  0  0  0  0  0
    9.8955  -15.0653   27.0279 N   0  0  0  0  0  0  0  0  0  0  0  0
   10.1381  -13.8163   27.6878 C   0  0  0  0  0  0  0  0  0  0  0  0
   10.8684  -14.1895   28.9873 C   0  0  0  0  0  0  0  0  0  0  0  0
   11.7352  -15.3215   28.4645 C   0  0  0  0  0  0  0  0  0  0  0  0
   10.7493  -16.0920   27.6472 C   0  0  1  0  0  0  0  0  0  0  0  0
    9.9382  -16.9170   28.5498 C   0  0  0  0  0  0  0  0  0  0  0  0
   10.4559  -18.0260   29.2014 O   0  0  0  0  0  0  0  0  0  0  0  0
    8.7332  -16.6288   28.7545 O   0  0  0  0  0  0  0  0  0  0  0  0
  2  3  1  0
  2  1  1  0
  3  4  1  0
  5  1  1  0
  5  4  1  0
  5  6  1  1
  6  7  2  0
  8  9  1  0
  9 10  1  0
 10 11  1  1
 10 12  1  0
 12 14  1  0
 13  6  1  0
 12 13  1  6
 14 16  1  0
 14 15  2  0
 16 17  1  0
 17 18  1  0
 19 18  1  0
 20 16  1  0
 20 19  1  0
 20 21  1  1
 22 21  1  0
 23 21  2  0
M  END
$$$$
