PIP.pdb
     RDKit          3D

 23 24  0  0  1  0  0  0  0  0999 V2000
    9.1145  -15.0614   20.4677 N   0  0  0  0  0  0  0  0  0  0  0  0
    8.6260  -15.8849   19.3669 C   0  0  0  0  0  0  0  0  0  0  0  0
    8.1798  -17.1903   20.0013 C   0  0  0  0  0  0  0  0  0  0  0  0
    8.3247  -16.9571   21.4962 C   0  0  0  0  0  0  0  0  0  0  0  0
    8.2347  -15.4261   21.5448 C   0  0  1  0  0  0  0  0  0  0  0  0
    8.6528  -14.8929   22.8473 C   0  0  0  0  0  0  0  0  0  0  0  0
    9.8520  -14.6063   23.0590 O   0  0  0  0  0  0  0  0  0  0  0  0
    5.3594  -11.7379   26.1001 C   0  0  0  0  0  0  0  0  0  0  0  0
    6.5378  -12.3039   25.3736 C   0  0  0  0  0  0  0  0  0  0  0  0
    6.9438  -13.6350   25.8851 C   0  0  2  0  0  0  0  0  0  0  0  0
    7.1436  -13.5197   27.3870 C   0  0  0  0  0  0  0  0  0  0  0  0
    8.1648  -14.2342   25.2164 C   0  0  2  0  0  0  0  0  0  0  0  0
    7.7342  -14.6761   23.9229 N   0  0  0  0  0  0  0  0  0  0  0  0
    8.8357  -15.2382   25.9859 C   0  0  0  0  0  0  0  0  0  0  0  0
    8.4762  -16.4607   25.7566 O   0  0  0  0  0  0  0  0  0  0  0  0
    9.8164  -15.0663   26.9416 N   0  0  0  0  0  0  0  0  0  0  0  0
   10.1954  -13.8597   27.6162 C   0  0  0  0  0  0  0  0  0  0  0  0
   11.0134  -14.3247   28.8311 C   0  0  0  0  0  0  0  0  0  0  0  0
   11.7569  -15.4863   28.1955 C   0  0  0  0  0  0  0  0  0  0  0  0
   10.6554  -16.1650   27.4473 C   0  0  1  0  0  0  0  0  0  0  0  0
    9.8773  -16.9730   28.3934 C   0  0  0  0  0  0  0  0  0  0  0  0
   10.3811  -18.1328   28.9619 O   0  0  0  0  0  0  0  0  0  0  0  0
    8.7148  -16.6225   28.7137 O   0  0  0  0  0  0  0  0  0  0  0  0
  2  3  1  0
  2  1  1  0
  3  4  1  0
  5  1  1  0
  5  4  1  0
  5  6  1  1
  6  7  2  0
  8  9  1  0
  9 10  1  0
 10 11  1  1
 10 12  1  0
 12 14  1  0
 13  6  1  0
 12 13  1  6
 14 16  1  0
 14 15  2  0
 16 17  1  0
 17 18  1  0
 19 18  1  0
 20 16  1  0
 20 19  1  0
 20 21  1  1
 22 21  1  0
 23 21  2  0
M  END
$$$$
