PIP.pdb
     RDKit          3D

 23 24  0  0  1  0  0  0  0  0999 V2000
    7.4514  -15.7404   21.0532 N   0  0  0  0  0  0  0  0  0  0  0  0
    7.2656  -15.7716   19.6064 C   0  0  0  0  0  0  0  0  0  0  0  0
    7.8102  -14.4490   19.0969 C   0  0  0  0  0  0  0  0  0  0  0  0
    8.4171  -13.7883   20.3237 C   0  0  0  0  0  0  0  0  0  0  0  0
    8.6893  -15.0227   21.1935 C   0  0  1  0  0  0  0  0  0  0  0  0
    8.9998  -14.6583   22.5815 C   0  0  0  0  0  0  0  0  0  0  0  0
   10.1036  -14.1451   22.8699 O   0  0  0  0  0  0  0  0  0  0  0  0
    5.4609  -12.0177   26.0752 C   0  0  0  0  0  0  0  0  0  0  0  0
    6.8095  -12.4227   25.5713 C   0  0  0  0  0  0  0  0  0  0  0  0
    6.9803  -13.8940   25.5038 C   0  0  2  0  0  0  0  0  0  0  0  0
    6.7078  -14.4620   26.8866 C   0  0  0  0  0  0  0  0  0  0  0  0
    8.3225  -14.3607   24.9768 C   0  0  2  0  0  0  0  0  0  0  0  0
    8.0792  -14.8647   23.6575 N   0  0  0  0  0  0  0  0  0  0  0  0
    9.0172  -15.2729   25.8343 C   0  0  0  0  0  0  0  0  0  0  0  0
    8.9509  -16.5228   25.5028 O   0  0  0  0  0  0  0  0  0  0  0  0
    9.7476  -14.9874   26.9700 N   0  0  0  0  0  0  0  0  0  0  0  0
    9.7542  -13.7780   27.7393 C   0  0  0  0  0  0  0  0  0  0  0  0
   10.4004  -14.1636   29.0791 C   0  0  0  0  0  0  0  0  0  0  0  0
   11.4587  -15.1273   28.5720 C   0  0  0  0  0  0  0  0  0  0  0  0
   10.6695  -15.9454   27.6018 C   0  0  1  0  0  0  0  0  0  0  0  0
    9.8949  -16.9406   28.3521 C   0  0  0  0  0  0  0  0  0  0  0  0
   10.4869  -18.0516   28.9330 O   0  0  0  0  0  0  0  0  0  0  0  0
    8.6539  -16.8029   28.4858 O   0  0  0  0  0  0  0  0  0  0  0  0
  2  3  1  0
  2  1  1  0
  3  4  1  0
  5  1  1  0
  5  4  1  0
  5  6  1  1
  6  7  2  0
  8  9  1  0
  9 10  1  0
 10 11  1  1
 10 12  1  0
 12 14  1  0
 13  6  1  0
 12 13  1  6
 14 16  1  0
 14 15  2  0
 16 17  1  0
 17 18  1  0
 19 18  1  0
 20 16  1  0
 20 19  1  0
 20 21  1  1
 22 21  1  0
 23 21  2  0
M  END
$$$$
