PIP.pdb
     RDKit          3D

 23 24  0  0  1  0  0  0  0  0999 V2000
    9.4827  -15.3122   20.4243 N   0  0  0  0  0  0  0  0  0  0  0  0
    9.1128  -16.2192   19.3430 C   0  0  0  0  0  0  0  0  0  0  0  0
    8.6833  -17.5082   20.0211 C   0  0  0  0  0  0  0  0  0  0  0  0
    8.7099  -17.1853   21.5060 C   0  0  0  0  0  0  0  0  0  0  0  0
    8.5459  -15.6604   21.4580 C   0  0  1  0  0  0  0  0  0  0  0  0
    8.8446  -15.0354   22.7525 C   0  0  0  0  0  0  0  0  0  0  0  0
   10.0070  -14.6587   23.0207 O   0  0  0  0  0  0  0  0  0  0  0  0
    5.4920  -11.6976   26.0253 C   0  0  0  0  0  0  0  0  0  0  0  0
    6.7463  -12.2409   25.4184 C   0  0  0  0  0  0  0  0  0  0  0  0
    6.8817  -13.7069   25.5936 C   0  0  2  0  0  0  0  0  0  0  0  0
    6.7139  -14.0206   27.0708 C   0  0  0  0  0  0  0  0  0  0  0  0
    8.1661  -14.3020   25.0517 C   0  0  2  0  0  0  0  0  0  0  0  0
    7.8469  -14.8267   23.7569 N   0  0  0  0  0  0  0  0  0  0  0  0
    8.8047  -15.2408   25.9239 C   0  0  0  0  0  0  0  0  0  0  0  0
    8.4914  -16.4841   25.7436 O   0  0  0  0  0  0  0  0  0  0  0  0
    9.7114  -14.9868   26.9331 N   0  0  0  0  0  0  0  0  0  0  0  0
    9.9760  -13.7434   27.5951 C   0  0  0  0  0  0  0  0  0  0  0  0
   10.7412  -14.1283   28.8709 C   0  0  0  0  0  0  0  0  0  0  0  0
   11.5898  -15.2586   28.3157 C   0  0  0  0  0  0  0  0  0  0  0  0
   10.5793  -16.0204   27.5206 C   0  0  1  0  0  0  0  0  0  0  0  0
    9.7913  -16.8499   28.4395 C   0  0  0  0  0  0  0  0  0  0  0  0
   10.3234  -17.9660   29.0668 O   0  0  0  0  0  0  0  0  0  0  0  0
    8.5938  -16.5592   28.6811 O   0  0  0  0  0  0  0  0  0  0  0  0
  2  3  1  0
  2  1  1  0
  3  4  1  0
  5  1  1  0
  5  4  1  0
  5  6  1  1
  6  7  2  0
  8  9  1  0
  9 10  1  0
 10 11  1  1
 10 12  1  0
 12 14  1  0
 13  6  1  0
 12 13  1  6
 14 16  1  0
 14 15  2  0
 16 17  1  0
 17 18  1  0
 19 18  1  0
 20 16  1  0
 20 19  1  0
 20 21  1  1
 22 21  1  0
 23 21  2  0
M  END
$$$$
