PIP.pdb
     RDKit          3D

 23 24  0  0  1  0  0  0  0  0999 V2000
    8.0003  -15.0748   19.9306 N   0  0  0  0  0  0  0  0  0  0  0  0
    7.1610  -15.6776   18.9007 C   0  0  0  0  0  0  0  0  0  0  0  0
    6.5854  -16.9348   19.5281 C   0  0  0  0  0  0  0  0  0  0  0  0
    7.0477  -16.8851   20.9751 C   0  0  0  0  0  0  0  0  0  0  0  0
    7.2792  -15.3769   21.1373 C   0  0  1  0  0  0  0  0  0  0  0  0
    8.0294  -15.0653   22.3602 C   0  0  0  0  0  0  0  0  0  0  0  0
    9.2803  -15.0852   22.3584 O   0  0  0  0  0  0  0  0  0  0  0  0
    5.9992  -11.6750   26.1948 C   0  0  0  0  0  0  0  0  0  0  0  0
    6.8809  -12.4279   25.2501 C   0  0  0  0  0  0  0  0  0  0  0  0
    7.2346  -13.7794   25.7468 C   0  0  2  0  0  0  0  0  0  0  0  0
    7.8755  -13.6234   27.1157 C   0  0  0  0  0  0  0  0  0  0  0  0
    8.1164  -14.5930   24.8207 C   0  0  2  0  0  0  0  0  0  0  0  0
    7.3876  -14.7291   23.5943 N   0  0  0  0  0  0  0  0  0  0  0  0
    8.5773  -15.8324   25.3699 C   0  0  0  0  0  0  0  0  0  0  0  0
    7.6594  -16.6303   25.8139 O   0  0  0  0  0  0  0  0  0  0  0  0
    9.8768  -16.2826   25.4861 N   0  0  0  0  0  0  0  0  0  0  0  0
   11.0900  -15.5689   25.2157 C   0  0  0  0  0  0  0  0  0  0  0  0
   12.1939  -16.3893   25.9013 C   0  0  0  0  0  0  0  0  0  0  0  0
   11.6754  -17.7869   25.6123 C   0  0  0  0  0  0  0  0  0  0  0  0
   10.2263  -17.6366   25.9457 C   0  0  1  0  0  0  0  0  0  0  0  0
   10.0727  -17.7084   27.4032 C   0  0  0  0  0  0  0  0  0  0  0  0
   10.1749  -18.9038   28.0982 O   0  0  0  0  0  0  0  0  0  0  0  0
    9.8407  -16.6663   28.0644 O   0  0  0  0  0  0  0  0  0  0  0  0
  2  3  1  0
  2  1  1  0
  3  4  1  0
  5  1  1  0
  5  4  1  0
  5  6  1  1
  6  7  2  0
  8  9  1  0
  9 10  1  0
 10 11  1  1
 10 12  1  0
 12 14  1  0
 13  6  1  0
 12 13  1  6
 14 16  1  0
 14 15  2  0
 16 17  1  0
 17 18  1  0
 19 18  1  0
 20 16  1  0
 20 19  1  0
 20 21  1  1
 22 21  1  0
 23 21  2  0
M  END
$$$$
