PIP.pdb
     RDKit          3D

 23 24  0  0  1  0  0  0  0  0999 V2000
    9.2467  -16.0014   20.3256 N   0  0  0  0  0  0  0  0  0  0  0  0
    8.6860  -17.0055   19.4277 C   0  0  0  0  0  0  0  0  0  0  0  0
    8.3507  -18.1970   20.3072 C   0  0  0  0  0  0  0  0  0  0  0  0
    8.6287  -17.7169   21.7222 C   0  0  0  0  0  0  0  0  0  0  0  0
    8.4875  -16.2011   21.5302 C   0  0  1  0  0  0  0  0  0  0  0  0
    9.0080  -15.4515   22.6803 C   0  0  0  0  0  0  0  0  0  0  0  0
   10.2349  -15.2345   22.7921 O   0  0  0  0  0  0  0  0  0  0  0  0
    5.4995  -12.9798   26.5575 C   0  0  0  0  0  0  0  0  0  0  0  0
    6.3350  -13.8986   25.7242 C   0  0  0  0  0  0  0  0  0  0  0  0
    7.6211  -13.2887   25.3089 C   0  0  2  0  0  0  0  0  0  0  0  0
    7.3283  -12.2753   24.2152 C   0  0  0  0  0  0  0  0  0  0  0  0
    8.6861  -14.2735   24.8697 C   0  0  2  0  0  0  0  0  0  0  0  0
    8.1614  -14.9387   23.7138 N   0  0  0  0  0  0  0  0  0  0  0  0
    9.1433  -15.1581   25.8985 C   0  0  0  0  0  0  0  0  0  0  0  0
    8.8864  -16.4145   25.7195 O   0  0  0  0  0  0  0  0  0  0  0  0
    9.8223  -14.8398   27.0571 N   0  0  0  0  0  0  0  0  0  0  0  0
    9.8889  -13.5741   27.7266 C   0  0  0  0  0  0  0  0  0  0  0  0
   10.4106  -13.8976   29.1354 C   0  0  0  0  0  0  0  0  0  0  0  0
   11.4079  -14.9871   28.7829 C   0  0  0  0  0  0  0  0  0  0  0  0
   10.6117  -15.8151   27.8269 C   0  0  1  0  0  0  0  0  0  0  0  0
    9.7041  -16.6736   28.5966 C   0  0  0  0  0  0  0  0  0  0  0  0
   10.1556  -17.7746   29.3080 O   0  0  0  0  0  0  0  0  0  0  0  0
    8.4740  -16.4227   28.6270 O   0  0  0  0  0  0  0  0  0  0  0  0
  2  3  1  0
  2  1  1  0
  3  4  1  0
  5  1  1  0
  5  4  1  0
  5  6  1  1
  6  7  2  0
  8  9  1  0
  9 10  1  0
 10 11  1  6
 10 12  1  0
 12 14  1  0
 13  6  1  0
 12 13  1  6
 14 16  1  0
 14 15  2  0
 16 17  1  0
 17 18  1  0
 19 18  1  0
 20 16  1  0
 20 19  1  0
 20 21  1  1
 22 21  1  0
 23 21  2  0
M  END
$$$$
