PIP.pdb
     RDKit          3D

 23 24  0  0  1  0  0  0  0  0999 V2000
    7.3673  -16.0666   21.4039 N   0  0  0  0  0  0  0  0  0  0  0  0
    7.1254  -16.2206   19.9734 C   0  0  0  0  0  0  0  0  0  0  0  0
    7.5980  -14.9248   19.3383 C   0  0  0  0  0  0  0  0  0  0  0  0
    8.2273  -14.1466   20.4821 C   0  0  0  0  0  0  0  0  0  0  0  0
    8.5813  -15.2968   21.4341 C   0  0  1  0  0  0  0  0  0  0  0  0
    8.9325  -14.8113   22.7745 C   0  0  0  0  0  0  0  0  0  0  0  0
   10.0274  -14.2402   22.9746 O   0  0  0  0  0  0  0  0  0  0  0  0
    5.3068  -12.1638   25.7638 C   0  0  0  0  0  0  0  0  0  0  0  0
    6.6018  -12.6241   25.1741 C   0  0  0  0  0  0  0  0  0  0  0  0
    7.0815  -13.8975   25.7629 C   0  0  2  0  0  0  0  0  0  0  0  0
    7.1828  -13.7101   27.2674 C   0  0  0  0  0  0  0  0  0  0  0  0
    8.3836  -14.4196   25.1890 C   0  0  2  0  0  0  0  0  0  0  0  0
    8.0629  -14.9604   23.9012 N   0  0  0  0  0  0  0  0  0  0  0  0
    9.0945  -15.3219   26.0437 C   0  0  0  0  0  0  0  0  0  0  0  0
    8.9527  -16.5814   25.7793 O   0  0  0  0  0  0  0  0  0  0  0  0
    9.9109  -15.0177   27.1141 N   0  0  0  0  0  0  0  0  0  0  0  0
   10.0155  -13.7776   27.8252 C   0  0  0  0  0  0  0  0  0  0  0  0
   10.7366  -14.1312   29.1353 C   0  0  0  0  0  0  0  0  0  0  0  0
   11.7209  -15.1580   28.6035 C   0  0  0  0  0  0  0  0  0  0  0  0
   10.8370  -15.9843   27.7263 C   0  0  1  0  0  0  0  0  0  0  0  0
   10.0785  -16.9141   28.5710 C   0  0  0  0  0  0  0  0  0  0  0  0
    8.7253  -16.7466   28.8224 O   0  0  0  0  0  0  0  0  0  0  0  0
   10.6522  -17.9010   29.0942 O   0  0  0  0  0  0  0  0  0  0  0  0
  2  3  1  0
  2  1  1  0
  3  4  1  0
  5  1  1  0
  5  4  1  0
  5  6  1  1
  6  7  2  0
  8  9  1  0
  9 10  1  0
 10 11  1  1
 10 12  1  0
 12 14  1  0
 13  6  1  0
 12 13  1  6
 14 16  1  0
 14 15  2  0
 16 17  1  0
 17 18  1  0
 19 18  1  0
 20 16  1  0
 20 19  1  0
 20 21  1  1
 22 21  1  0
 23 21  2  0
M  END
$$$$
