PIP.pdb
     RDKit          3D

 23 24  0  0  1  0  0  0  0  0999 V2000
    7.4779  -16.3505   21.2086 N   0  0  0  0  0  0  0  0  0  0  0  0
    7.2283  -16.5723   19.7883 C   0  0  0  0  0  0  0  0  0  0  0  0
    7.6577  -15.2918   19.0942 C   0  0  0  0  0  0  0  0  0  0  0  0
    8.2740  -14.4478   20.1978 C   0  0  0  0  0  0  0  0  0  0  0  0
    8.6693  -15.5457   21.1942 C   0  0  1  0  0  0  0  0  0  0  0  0
    9.0178  -14.9936   22.5093 C   0  0  0  0  0  0  0  0  0  0  0  0
   10.1181  -14.4252   22.6863 O   0  0  0  0  0  0  0  0  0  0  0  0
    5.9289  -12.0546   26.6488 C   0  0  0  0  0  0  0  0  0  0  0  0
    7.2121  -12.7816   26.4007 C   0  0  0  0  0  0  0  0  0  0  0  0
    7.1008  -13.7936   25.3229 C   0  0  2  0  0  0  0  0  0  0  0  0
    6.1393  -14.8733   25.7905 C   0  0  0  0  0  0  0  0  0  0  0  0
    8.4160  -14.3938   24.8678 C   0  0  2  0  0  0  0  0  0  0  0  0
    8.1395  -15.0724   23.6363 N   0  0  0  0  0  0  0  0  0  0  0  0
    9.0751  -15.2029   25.8482 C   0  0  0  0  0  0  0  0  0  0  0  0
    8.9539  -16.4833   25.6989 O   0  0  0  0  0  0  0  0  0  0  0  0
    9.8222  -14.7893   26.9325 N   0  0  0  0  0  0  0  0  0  0  0  0
    9.8532  -13.4943   27.5459 C   0  0  0  0  0  0  0  0  0  0  0  0
   10.5099  -13.7203   28.9167 C   0  0  0  0  0  0  0  0  0  0  0  0
   11.5499  -14.7542   28.5224 C   0  0  0  0  0  0  0  0  0  0  0  0
   10.7390  -15.6748   27.6689 C   0  0  1  0  0  0  0  0  0  0  0  0
    9.9606  -16.5585   28.5443 C   0  0  0  0  0  0  0  0  0  0  0  0
   10.5500  -17.5768   29.2777 O   0  0  0  0  0  0  0  0  0  0  0  0
    8.7184  -16.4067   28.6489 O   0  0  0  0  0  0  0  0  0  0  0  0
  2  3  1  0
  2  1  1  0
  3  4  1  0
  5  1  1  0
  5  4  1  0
  5  6  1  1
  6  7  2  0
  8  9  1  0
  9 10  1  0
 10 11  1  1
 10 12  1  0
 12 14  1  0
 13  6  1  0
 12 13  1  6
 14 16  1  0
 14 15  2  0
 16 17  1  0
 17 18  1  0
 19 18  1  0
 20 16  1  0
 20 19  1  0
 20 21  1  1
 22 21  1  0
 23 21  2  0
M  END
$$$$
