PIP.pdb
     RDKit          3D

 23 24  0  0  1  0  0  0  0  0999 V2000
    7.5158  -16.2800   21.1872 N   0  0  0  0  0  0  0  0  0  0  0  0
    7.3087  -16.4974   19.7595 C   0  0  0  0  0  0  0  0  0  0  0  0
    7.8267  -15.2438   19.0770 C   0  0  0  0  0  0  0  0  0  0  0  0
    8.4425  -14.4249   20.1996 C   0  0  0  0  0  0  0  0  0  0  0  0
    8.7454  -15.5352   21.2145 C   0  0  1  0  0  0  0  0  0  0  0  0
    9.0714  -14.9934   22.5395 C   0  0  0  0  0  0  0  0  0  0  0  0
   10.2013  -14.5054   22.7638 O   0  0  0  0  0  0  0  0  0  0  0  0
    5.9801  -11.9076   26.6287 C   0  0  0  0  0  0  0  0  0  0  0  0
    7.2350  -12.6858   26.3914 C   0  0  0  0  0  0  0  0  0  0  0  0
    7.1166  -13.6374   25.2606 C   0  0  2  0  0  0  0  0  0  0  0  0
    6.0417  -14.6523   25.6120 C   0  0  0  0  0  0  0  0  0  0  0  0
    8.4074  -14.3249   24.8626 C   0  0  2  0  0  0  0  0  0  0  0  0
    8.1375  -14.9929   23.6238 N   0  0  0  0  0  0  0  0  0  0  0  0
    8.9718  -15.1681   25.8729 C   0  0  0  0  0  0  0  0  0  0  0  0
    8.7924  -16.4404   25.7127 O   0  0  0  0  0  0  0  0  0  0  0  0
    9.6819  -14.7950   26.9960 N   0  0  0  0  0  0  0  0  0  0  0  0
    9.6144  -13.5583   27.7174 C   0  0  0  0  0  0  0  0  0  0  0  0
   10.2806  -13.8519   29.0708 C   0  0  0  0  0  0  0  0  0  0  0  0
   11.3959  -14.7690   28.6008 C   0  0  0  0  0  0  0  0  0  0  0  0
   10.6588  -15.6704   27.6639 C   0  0  1  0  0  0  0  0  0  0  0  0
    9.9445  -16.6805   28.4530 C   0  0  0  0  0  0  0  0  0  0  0  0
    8.5653  -16.6667   28.5946 O   0  0  0  0  0  0  0  0  0  0  0  0
   10.5817  -17.5971   29.0281 O   0  0  0  0  0  0  0  0  0  0  0  0
  2  3  1  0
  2  1  1  0
  3  4  1  0
  5  1  1  0
  5  4  1  0
  5  6  1  1
  6  7  2  0
  8  9  1  0
  9 10  1  0
 10 11  1  1
 10 12  1  0
 12 14  1  0
 13  6  1  0
 12 13  1  6
 14 16  1  0
 14 15  2  0
 16 17  1  0
 17 18  1  0
 19 18  1  0
 20 16  1  0
 20 19  1  0
 20 21  1  1
 22 21  1  0
 23 21  2  0
M  END
$$$$
