PIP.pdb
     RDKit          3D

 23 24  0  0  1  0  0  0  0  0999 V2000
    9.1988  -15.9602   20.3008 N   0  0  0  0  0  0  0  0  0  0  0  0
    8.6274  -16.9656   19.4113 C   0  0  0  0  0  0  0  0  0  0  0  0
    8.2795  -18.1461   20.3007 C   0  0  0  0  0  0  0  0  0  0  0  0
    8.5628  -17.6573   21.7117 C   0  0  0  0  0  0  0  0  0  0  0  0
    8.4377  -16.1417   21.5070 C   0  0  1  0  0  0  0  0  0  0  0  0
    8.9663  -15.3881   22.6509 C   0  0  0  0  0  0  0  0  0  0  0  0
   10.1978  -15.2062   22.7749 O   0  0  0  0  0  0  0  0  0  0  0  0
    5.5843  -12.8761   26.6412 C   0  0  0  0  0  0  0  0  0  0  0  0
    6.3024  -13.7221   25.6385 C   0  0  0  0  0  0  0  0  0  0  0  0
    7.6143  -13.1561   25.2427 C   0  0  2  0  0  0  0  0  0  0  0  0
    7.3729  -12.1369   24.1419 C   0  0  0  0  0  0  0  0  0  0  0  0
    8.6533  -14.1768   24.8233 C   0  0  2  0  0  0  0  0  0  0  0  0
    8.1229  -14.8323   23.6645 N   0  0  0  0  0  0  0  0  0  0  0  0
    9.0688  -15.0690   25.8632 C   0  0  0  0  0  0  0  0  0  0  0  0
    8.7284  -16.3093   25.7138 O   0  0  0  0  0  0  0  0  0  0  0  0
    9.7856  -14.7728   27.0049 N   0  0  0  0  0  0  0  0  0  0  0  0
    9.9155  -13.5083   27.6672 C   0  0  0  0  0  0  0  0  0  0  0  0
   10.4562  -13.8466   29.0653 C   0  0  0  0  0  0  0  0  0  0  0  0
   11.4030  -14.9747   28.6952 C   0  0  0  0  0  0  0  0  0  0  0  0
   10.5543  -15.7750   27.7609 C   0  0  1  0  0  0  0  0  0  0  0  0
    9.6322  -16.5954   28.5546 C   0  0  0  0  0  0  0  0  0  0  0  0
   10.0625  -17.6928   29.2846 O   0  0  0  0  0  0  0  0  0  0  0  0
    8.4089  -16.3139   28.5891 O   0  0  0  0  0  0  0  0  0  0  0  0
  2  3  1  0
  2  1  1  0
  3  4  1  0
  5  1  1  0
  5  4  1  0
  5  6  1  1
  6  7  2  0
  8  9  1  0
  9 10  1  0
 10 11  1  6
 10 12  1  0
 12 14  1  0
 13  6  1  0
 12 13  1  6
 14 16  1  0
 14 15  2  0
 16 17  1  0
 17 18  1  0
 19 18  1  0
 20 16  1  0
 20 19  1  0
 20 21  1  1
 22 21  1  0
 23 21  2  0
M  END
$$$$
