PIP.pdb
     RDKit          3D

 23 24  0  0  1  0  0  0  0  0999 V2000
    7.7287  -16.4613   21.2315 N   0  0  0  0  0  0  0  0  0  0  0  0
    7.4357  -16.6705   19.8177 C   0  0  0  0  0  0  0  0  0  0  0  0
    7.6840  -15.3308   19.1474 C   0  0  0  0  0  0  0  0  0  0  0  0
    8.2556  -14.4533   20.2488 C   0  0  0  0  0  0  0  0  0  0  0  0
    8.8203  -15.5264   21.1891 C   0  0  1  0  0  0  0  0  0  0  0  0
    9.1692  -14.9749   22.5043 C   0  0  0  0  0  0  0  0  0  0  0  0
   10.2642  -14.3954   22.6779 O   0  0  0  0  0  0  0  0  0  0  0  0
    6.0848  -11.9430   26.5510 C   0  0  0  0  0  0  0  0  0  0  0  0
    7.3592  -12.6936   26.3296 C   0  0  0  0  0  0  0  0  0  0  0  0
    7.2514  -13.7044   25.2503 C   0  0  2  0  0  0  0  0  0  0  0  0
    6.2208  -14.7369   25.6756 C   0  0  0  0  0  0  0  0  0  0  0  0
    8.5573  -14.3661   24.8579 C   0  0  2  0  0  0  0  0  0  0  0  0
    8.2973  -15.0670   23.6353 N   0  0  0  0  0  0  0  0  0  0  0  0
    9.1502  -15.1725   25.8817 C   0  0  0  0  0  0  0  0  0  0  0  0
    9.0746  -16.4533   25.7075 O   0  0  0  0  0  0  0  0  0  0  0  0
    9.7911  -14.7561   27.0309 N   0  0  0  0  0  0  0  0  0  0  0  0
    9.6725  -13.4972   27.7058 C   0  0  0  0  0  0  0  0  0  0  0  0
   10.2612  -13.7400   29.1044 C   0  0  0  0  0  0  0  0  0  0  0  0
   11.4089  -14.6613   28.7303 C   0  0  0  0  0  0  0  0  0  0  0  0
   10.7343  -15.5999   27.7828 C   0  0  1  0  0  0  0  0  0  0  0  0
    9.9831  -16.5904   28.5624 C   0  0  0  0  0  0  0  0  0  0  0  0
   10.6134  -17.5758   29.3068 O   0  0  0  0  0  0  0  0  0  0  0  0
    8.7276  -16.5647   28.5712 O   0  0  0  0  0  0  0  0  0  0  0  0
  2  3  1  0
  2  1  1  0
  3  4  1  0
  5  1  1  0
  5  4  1  0
  5  6  1  1
  6  7  2  0
  8  9  1  0
  9 10  1  0
 10 11  1  1
 10 12  1  0
 12 14  1  0
 13  6  1  0
 12 13  1  6
 14 16  1  0
 14 15  2  0
 16 17  1  0
 17 18  1  0
 19 18  1  0
 20 16  1  0
 20 19  1  0
 20 21  1  1
 22 21  1  0
 23 21  2  0
M  END
$$$$
