PIP.pdb
     RDKit          3D

 23 24  0  0  1  0  0  0  0  0999 V2000
    7.3813  -16.1453   21.1951 N   0  0  0  0  0  0  0  0  0  0  0  0
    7.1704  -16.3061   19.7605 C   0  0  0  0  0  0  0  0  0  0  0  0
    7.7836  -15.0745   19.1178 C   0  0  0  0  0  0  0  0  0  0  0  0
    8.4482  -14.3352   20.2674 C   0  0  0  0  0  0  0  0  0  0  0  0
    8.6615  -15.4932   21.2513 C   0  0  1  0  0  0  0  0  0  0  0  0
    9.0155  -15.0147   22.5935 C   0  0  0  0  0  0  0  0  0  0  0  0
   10.1321  -14.4921   22.8056 O   0  0  0  0  0  0  0  0  0  0  0  0
    5.8489  -12.2125   26.8018 C   0  0  0  0  0  0  0  0  0  0  0  0
    7.1499  -12.8922   26.5156 C   0  0  0  0  0  0  0  0  0  0  0  0
    7.0597  -13.8583   25.3945 C   0  0  2  0  0  0  0  0  0  0  0  0
    6.0737  -14.9449   25.7895 C   0  0  0  0  0  0  0  0  0  0  0  0
    8.3815  -14.4547   24.9534 C   0  0  2  0  0  0  0  0  0  0  0  0
    8.1244  -15.1166   23.7086 N   0  0  0  0  0  0  0  0  0  0  0  0
    9.0229  -15.2778   25.9338 C   0  0  0  0  0  0  0  0  0  0  0  0
    8.9514  -16.5551   25.7343 O   0  0  0  0  0  0  0  0  0  0  0  0
    9.7068  -14.8806   27.0650 N   0  0  0  0  0  0  0  0  0  0  0  0
    9.6184  -13.6312   27.7617 C   0  0  0  0  0  0  0  0  0  0  0  0
   10.2562  -13.8965   29.1344 C   0  0  0  0  0  0  0  0  0  0  0  0
   11.3854  -14.8169   28.7058 C   0  0  0  0  0  0  0  0  0  0  0  0
   10.6727  -15.7389   27.7700 C   0  0  1  0  0  0  0  0  0  0  0  0
    9.9458  -16.7376   28.5621 C   0  0  0  0  0  0  0  0  0  0  0  0
   10.5964  -17.7530   29.2463 O   0  0  0  0  0  0  0  0  0  0  0  0
    8.6932  -16.6915   28.6376 O   0  0  0  0  0  0  0  0  0  0  0  0
  2  3  1  0
  2  1  1  0
  3  4  1  0
  5  1  1  0
  5  4  1  0
  5  6  1  1
  6  7  2  0
  8  9  1  0
  9 10  1  0
 10 11  1  1
 10 12  1  0
 12 14  1  0
 13  6  1  0
 12 13  1  6
 14 16  1  0
 14 15  2  0
 16 17  1  0
 17 18  1  0
 19 18  1  0
 20 16  1  0
 20 19  1  0
 20 21  1  1
 22 21  1  0
 23 21  2  0
M  END
$$$$
