PIP.pdb
     RDKit          3D

 23 24  0  0  1  0  0  0  0  0999 V2000
    7.4483  -15.2579   20.9945 N   0  0  0  0  0  0  0  0  0  0  0  0
    7.3004  -15.1742   19.5454 C   0  0  0  0  0  0  0  0  0  0  0  0
    7.9143  -13.8431   19.1493 C   0  0  0  0  0  0  0  0  0  0  0  0
    8.5153  -13.3021   20.4361 C   0  0  0  0  0  0  0  0  0  0  0  0
    8.7114  -14.6081   21.2174 C   0  0  1  0  0  0  0  0  0  0  0  0
    8.9994  -14.3611   22.6357 C   0  0  0  0  0  0  0  0  0  0  0  0
   10.1062  -13.8944   22.9853 O   0  0  0  0  0  0  0  0  0  0  0  0
    5.1853  -12.0566   25.8234 C   0  0  0  0  0  0  0  0  0  0  0  0
    6.5460  -12.4026   25.3081 C   0  0  0  0  0  0  0  0  0  0  0  0
    6.9192  -13.8132   25.5713 C   0  0  2  0  0  0  0  0  0  0  0  0
    6.8310  -14.0502   27.0696 C   0  0  0  0  0  0  0  0  0  0  0  0
    8.2726  -14.2303   25.0314 C   0  0  2  0  0  0  0  0  0  0  0  0
    8.0530  -14.6336   23.6739 N   0  0  0  0  0  0  0  0  0  0  0  0
    8.9607  -15.2011   25.8278 C   0  0  0  0  0  0  0  0  0  0  0  0
    8.8041  -16.4367   25.4736 O   0  0  0  0  0  0  0  0  0  0  0  0
    9.7687  -14.9854   26.9257 N   0  0  0  0  0  0  0  0  0  0  0  0
    9.9381  -13.7773   27.6782 C   0  0  0  0  0  0  0  0  0  0  0  0
   10.6012  -14.2184   28.9924 C   0  0  0  0  0  0  0  0  0  0  0  0
   11.5277  -15.2927   28.4506 C   0  0  0  0  0  0  0  0  0  0  0  0
   10.6127  -16.0304   27.5275 C   0  0  1  0  0  0  0  0  0  0  0  0
    9.7731  -16.9321   28.3246 C   0  0  0  0  0  0  0  0  0  0  0  0
   10.2718  -18.0931   28.8952 O   0  0  0  0  0  0  0  0  0  0  0  0
    8.5603  -16.6643   28.5098 O   0  0  0  0  0  0  0  0  0  0  0  0
  2  3  1  0
  2  1  1  0
  3  4  1  0
  5  1  1  0
  5  4  1  0
  5  6  1  1
  6  7  2  0
  8  9  1  0
  9 10  1  0
 10 11  1  1
 10 12  1  0
 12 14  1  0
 13  6  1  0
 12 13  1  6
 14 16  1  0
 14 15  2  0
 16 17  1  0
 17 18  1  0
 19 18  1  0
 20 16  1  0
 20 19  1  0
 20 21  1  1
 22 21  1  0
 23 21  2  0
M  END
$$$$
