PIP.pdb
     RDKit          3D

 23 24  0  0  1  0  0  0  0  0999 V2000
    7.4269  -16.1832   21.2041 N   0  0  0  0  0  0  0  0  0  0  0  0
    7.2047  -16.3072   19.7675 C   0  0  0  0  0  0  0  0  0  0  0  0
    7.6844  -14.9980   19.1663 C   0  0  0  0  0  0  0  0  0  0  0  0
    8.2972  -14.2435   20.3347 C   0  0  0  0  0  0  0  0  0  0  0  0
    8.6395  -15.4131   21.2671 C   0  0  1  0  0  0  0  0  0  0  0  0
    8.9719  -14.9557   22.6220 C   0  0  0  0  0  0  0  0  0  0  0  0
   10.0824  -14.4305   22.8586 O   0  0  0  0  0  0  0  0  0  0  0  0
    5.6816  -12.0317   26.3761 C   0  0  0  0  0  0  0  0  0  0  0  0
    7.0161  -12.5152   25.9050 C   0  0  0  0  0  0  0  0  0  0  0  0
    6.9973  -13.9371   25.4853 C   0  0  2  0  0  0  0  0  0  0  0  0
    6.4621  -14.7615   26.6441 C   0  0  0  0  0  0  0  0  0  0  0  0
    8.3256  -14.4797   24.9970 C   0  0  2  0  0  0  0  0  0  0  0  0
    8.0660  -15.0816   23.7226 N   0  0  0  0  0  0  0  0  0  0  0  0
    8.9984  -15.3379   25.9248 C   0  0  0  0  0  0  0  0  0  0  0  0
    8.9295  -16.6063   25.6743 O   0  0  0  0  0  0  0  0  0  0  0  0
    9.7101  -14.9829   27.0528 N   0  0  0  0  0  0  0  0  0  0  0  0
    9.6398  -13.7600   27.7972 C   0  0  0  0  0  0  0  0  0  0  0  0
   10.3107  -14.0760   29.1432 C   0  0  0  0  0  0  0  0  0  0  0  0
   11.4282  -14.9800   28.6534 C   0  0  0  0  0  0  0  0  0  0  0  0
   10.6921  -15.8667   27.7019 C   0  0  1  0  0  0  0  0  0  0  0  0
    9.9837  -16.8939   28.4740 C   0  0  0  0  0  0  0  0  0  0  0  0
   10.6494  -17.9365   29.1004 O   0  0  0  0  0  0  0  0  0  0  0  0
    8.7337  -16.8483   28.5853 O   0  0  0  0  0  0  0  0  0  0  0  0
  2  3  1  0
  2  1  1  0
  3  4  1  0
  5  1  1  0
  5  4  1  0
  5  6  1  1
  6  7  2  0
  8  9  1  0
  9 10  1  0
 10 11  1  1
 10 12  1  0
 12 14  1  0
 13  6  1  0
 12 13  1  6
 14 16  1  0
 14 15  2  0
 16 17  1  0
 17 18  1  0
 19 18  1  0
 20 16  1  0
 20 19  1  0
 20 21  1  1
 22 21  1  0
 23 21  2  0
M  END
$$$$
