IPA.pdb
     RDKit          3D

 21 21  0  0  1  0  0  0  0  0999 V2000
    6.8013  -11.7790   27.4631 C   0  0  0  0  0  0  0  0  0  0  0  0
    6.0367  -12.8338   26.6596 C   0  0  0  0  0  0  0  0  0  0  0  0
    7.0289  -13.7038   25.9672 C   0  0  2  0  0  0  0  0  0  0  0  0
    8.0056  -12.9552   25.1198 C   0  0  0  0  0  0  0  0  0  0  0  0
    6.3911  -14.8883   25.2453 C   0  0  2  0  0  0  0  0  0  0  0  0
    5.6571  -15.6412   26.2283 N   0  0  0  0  0  0  0  0  0  0  0  0
    7.3374  -15.7423   24.5478 C   0  0  0  0  0  0  0  0  0  0  0  0
    7.6970  -16.8090   25.1595 O   0  0  0  0  0  0  0  0  0  0  0  0
    7.8705  -15.4724   23.2663 N   0  0  0  0  0  0  0  0  0  0  0  0
    7.6777  -14.1291   22.6718 C   0  0  0  0  0  0  0  0  0  0  0  0
    7.8938  -14.2824   21.2054 C   0  0  0  0  0  0  0  0  0  0  0  0
    8.0281  -15.7479   20.9733 C   0  0  0  0  0  0  0  0  0  0  0  0
    8.6194  -16.1997   22.3147 C   0  0  1  0  0  0  0  0  0  0  0  0
   10.0597  -15.9220   22.2442 C   0  0  0  0  0  0  0  0  0  0  0  0
   10.6205  -16.2997   21.1611 O   0  0  0  0  0  0  0  0  0  0  0  0
   11.5155  -17.0996   24.7328 C   0  0  0  0  0  0  0  0  0  0  0  0
   11.9826  -16.0143   23.7630 C   0  0  2  0  0  0  0  0  0  0  0  0
   10.8572  -15.3036   23.2143 N   0  0  0  0  0  0  0  0  0  0  0  0
   12.8045  -16.6853   22.7522 C   0  0  0  0  0  0  0  0  0  0  0  0
   12.4935  -17.9680   22.3491 O   0  0  0  0  0  0  0  0  0  0  0  0
   13.7931  -16.1197   22.2382 O   0  0  0  0  0  0  0  0  0  0  0  0
  2  1  1  0
  3  2  1  0
  3  4  1  6
  5  3  1  0
  5  6  1  1
  7  5  1  0
  7  9  1  0
  8  7  2  0
  9 13  1  0
 10  9  1  0
 10 11  1  0
 11 12  1  0
 13 12  1  0
 13 14  1  6
 14 18  1  0
 15 14  2  0
 17 18  1  0
 17 19  1  0
 17 16  1  1
 19 20  1  0
 21 19  2  0
M  END
$$$$
