IPA.pdb
     RDKit          3D

 21 21  0  0  1  0  0  0  0  0999 V2000
    6.8536  -11.2482   27.3737 C   0  0  0  0  0  0  0  0  0  0  0  0
    6.0123  -12.2629   26.5957 C   0  0  0  0  0  0  0  0  0  0  0  0
    6.9332  -13.2617   25.9831 C   0  0  2  0  0  0  0  0  0  0  0  0
    8.0122  -12.6581   25.1443 C   0  0  0  0  0  0  0  0  0  0  0  0
    6.2023  -14.4081   25.2884 C   0  0  2  0  0  0  0  0  0  0  0  0
    5.3061  -14.9889   26.2534 N   0  0  0  0  0  0  0  0  0  0  0  0
    7.0788  -15.4225   24.7280 C   0  0  0  0  0  0  0  0  0  0  0  0
    7.2436  -16.4811   25.4306 O   0  0  0  0  0  0  0  0  0  0  0  0
    7.7430  -15.3129   23.4846 N   0  0  0  0  0  0  0  0  0  0  0  0
    7.6987  -14.0254   22.7527 C   0  0  0  0  0  0  0  0  0  0  0  0
    8.0351  -14.3353   21.3345 C   0  0  0  0  0  0  0  0  0  0  0  0
    8.0876  -15.8219   21.2528 C   0  0  0  0  0  0  0  0  0  0  0  0
    8.5224  -16.1744   22.6810 C   0  0  1  0  0  0  0  0  0  0  0  0
    9.9790  -15.9928   22.7246 C   0  0  0  0  0  0  0  0  0  0  0  0
   10.3599  -14.7765   22.7993 O   0  0  0  0  0  0  0  0  0  0  0  0
   11.2110  -16.4793   25.0698 C   0  0  0  0  0  0  0  0  0  0  0  0
   11.7902  -17.2008   23.8531 C   0  0  2  0  0  0  0  0  0  0  0  0
   10.9635  -16.9874   22.6938 N   0  0  0  0  0  0  0  0  0  0  0  0
   11.9228  -18.6107   24.2297 C   0  0  0  0  0  0  0  0  0  0  0  0
   12.8583  -18.9894   25.1711 O   0  0  0  0  0  0  0  0  0  0  0  0
   11.2019  -19.4918   23.7145 O   0  0  0  0  0  0  0  0  0  0  0  0
  2  1  1  0
  3  2  1  0
  3  4  1  6
  5  3  1  0
  5  6  1  1
  7  5  1  0
  7  9  1  0
  8  7  2  0
  9 13  1  0
 10  9  1  0
 10 11  1  0
 11 12  1  0
 13 12  1  0
 13 14  1  6
 14 18  1  0
 15 14  2  0
 17 18  1  0
 17 19  1  0
 17 16  1  1
 19 20  1  0
 21 19  2  0
M  END
$$$$
