IPA.pdb
     RDKit          3D

 21 21  0  0  1  0  0  0  0  0999 V2000
    9.0777  -12.8832   27.2758 C   0  0  0  0  0  0  0  0  0  0  0  0
    8.1436  -14.0448   26.9278 C   0  0  0  0  0  0  0  0  0  0  0  0
    7.1182  -13.5483   25.9671 C   0  0  2  0  0  0  0  0  0  0  0  0
    6.3379  -12.3753   26.4646 C   0  0  0  0  0  0  0  0  0  0  0  0
    6.2377  -14.6586   25.3989 C   0  0  2  0  0  0  0  0  0  0  0  0
    5.5996  -15.3087   26.5134 N   0  0  0  0  0  0  0  0  0  0  0  0
    6.9497  -15.6256   24.5809 C   0  0  0  0  0  0  0  0  0  0  0  0
    6.8813  -16.8480   24.9585 O   0  0  0  0  0  0  0  0  0  0  0  0
    7.6940  -15.3052   23.4223 N   0  0  0  0  0  0  0  0  0  0  0  0
    7.8461  -13.8842   23.0312 C   0  0  0  0  0  0  0  0  0  0  0  0
    8.2259  -13.8821   21.5903 C   0  0  0  0  0  0  0  0  0  0  0  0
    8.1058  -15.2985   21.1443 C   0  0  0  0  0  0  0  0  0  0  0  0
    8.4111  -16.0399   22.4520 C   0  0  1  0  0  0  0  0  0  0  0  0
    9.8739  -16.0648   22.5794 C   0  0  0  0  0  0  0  0  0  0  0  0
   10.3745  -15.0368   23.1477 O   0  0  0  0  0  0  0  0  0  0  0  0
   12.2334  -18.8453   22.9382 C   0  0  0  0  0  0  0  0  0  0  0  0
   11.9367  -17.3459   22.9214 C   0  0  2  0  0  0  0  0  0  0  0  0
   10.7498  -17.0706   22.1543 N   0  0  0  0  0  0  0  0  0  0  0  0
   13.1391  -16.6897   22.4008 C   0  0  0  0  0  0  0  0  0  0  0  0
   14.3070  -16.7035   23.1358 O   0  0  0  0  0  0  0  0  0  0  0  0
   13.1356  -16.1098   21.2939 O   0  0  0  0  0  0  0  0  0  0  0  0
  2  1  1  0
  3  2  1  0
  3  4  1  1
  5  3  1  0
  5  6  1  1
  7  5  1  0
  7  9  1  0
  8  7  2  0
  9 13  1  0
 10  9  1  0
 10 11  1  0
 11 12  1  0
 13 12  1  0
 13 14  1  1
 14 18  1  0
 15 14  2  0
 17 18  1  0
 17 19  1  0
 17 16  1  6
 19 20  1  0
 21 19  2  0
M  END
$$$$
