IPA.pdb
     RDKit          3D

 21 21  0  0  1  0  0  0  0  0999 V2000
    6.6635  -11.6288   27.4209 C   0  0  0  0  0  0  0  0  0  0  0  0
    5.8931  -12.6241   26.5499 C   0  0  0  0  0  0  0  0  0  0  0  0
    6.8678  -13.5930   25.9736 C   0  0  2  0  0  0  0  0  0  0  0  0
    8.0165  -12.9505   25.2666 C   0  0  0  0  0  0  0  0  0  0  0  0
    6.2052  -14.7017   25.1595 C   0  0  2  0  0  0  0  0  0  0  0  0
    5.2870  -15.3821   26.0345 N   0  0  0  0  0  0  0  0  0  0  0  0
    7.1375  -15.6432   24.5632 C   0  0  0  0  0  0  0  0  0  0  0  0
    7.2874  -16.7585   25.1757 O   0  0  0  0  0  0  0  0  0  0  0  0
    7.8699  -15.4071   23.3770 N   0  0  0  0  0  0  0  0  0  0  0  0
    7.8860  -14.0438   22.7970 C   0  0  0  0  0  0  0  0  0  0  0  0
    8.2939  -14.1970   21.3720 C   0  0  0  0  0  0  0  0  0  0  0  0
    8.3268  -15.6654   21.1223 C   0  0  0  0  0  0  0  0  0  0  0  0
    8.6778  -16.1883   22.5211 C   0  0  1  0  0  0  0  0  0  0  0  0
   10.1326  -16.0452   22.6611 C   0  0  0  0  0  0  0  0  0  0  0  0
   10.5347  -14.8437   22.8191 O   0  0  0  0  0  0  0  0  0  0  0  0
   12.6737  -18.3369   23.9986 C   0  0  0  0  0  0  0  0  0  0  0  0
   12.2516  -16.9581   23.4914 C   0  0  2  0  0  0  0  0  0  0  0  0
   11.0953  -17.0612   22.6399 N   0  0  0  0  0  0  0  0  0  0  0  0
   13.4235  -16.3833   22.8253 C   0  0  0  0  0  0  0  0  0  0  0  0
   14.5302  -16.0201   23.5655 O   0  0  0  0  0  0  0  0  0  0  0  0
   13.4483  -16.2106   21.5879 O   0  0  0  0  0  0  0  0  0  0  0  0
  2  1  1  0
  3  2  1  0
  3  4  1  6
  5  3  1  0
  5  6  1  1
  7  5  1  0
  7  9  1  0
  8  7  2  0
  9 13  1  0
 10  9  1  0
 10 11  1  0
 11 12  1  0
 13 12  1  0
 13 14  1  1
 14 18  1  0
 15 14  2  0
 17 18  1  0
 17 19  1  0
 17 16  1  6
 19 20  1  0
 21 19  2  0
M  END
$$$$
