IPA.pdb
     RDKit          3D

 21 21  0  0  1  0  0  0  0  0999 V2000
    6.7755  -11.6669   27.4951 C   0  0  0  0  0  0  0  0  0  0  0  0
    6.0016  -12.7520   26.7426 C   0  0  0  0  0  0  0  0  0  0  0  0
    6.9822  -13.6048   26.0131 C   0  0  2  0  0  0  0  0  0  0  0  0
    7.9204  -12.8386   25.1387 C   0  0  0  0  0  0  0  0  0  0  0  0
    6.3370  -14.7940   25.3057 C   0  0  2  0  0  0  0  0  0  0  0  0
    5.5927  -15.5265   26.2963 N   0  0  0  0  0  0  0  0  0  0  0  0
    7.2785  -15.6660   24.6242 C   0  0  0  0  0  0  0  0  0  0  0  0
    7.6605  -16.7042   25.2704 O   0  0  0  0  0  0  0  0  0  0  0  0
    7.7846  -15.4419   23.3231 N   0  0  0  0  0  0  0  0  0  0  0  0
    7.4352  -14.1864   22.6181 C   0  0  0  0  0  0  0  0  0  0  0  0
    7.6790  -14.4349   21.1692 C   0  0  0  0  0  0  0  0  0  0  0  0
    7.9911  -15.8876   21.0609 C   0  0  0  0  0  0  0  0  0  0  0  0
    8.6228  -16.1505   22.4338 C   0  0  1  0  0  0  0  0  0  0  0  0
   10.0195  -15.7073   22.3361 C   0  0  0  0  0  0  0  0  0  0  0  0
   10.2077  -14.4783   22.6263 O   0  0  0  0  0  0  0  0  0  0  0  0
   11.7338  -17.4126   24.1406 C   0  0  0  0  0  0  0  0  0  0  0  0
   12.2111  -16.6483   22.9060 C   0  0  2  0  0  0  0  0  0  0  0  0
   11.1328  -16.4720   21.9683 N   0  0  0  0  0  0  0  0  0  0  0  0
   13.3454  -17.4008   22.3636 C   0  0  0  0  0  0  0  0  0  0  0  0
   14.6217  -16.8825   22.4467 O   0  0  0  0  0  0  0  0  0  0  0  0
   13.1863  -18.5148   21.8202 O   0  0  0  0  0  0  0  0  0  0  0  0
  2  1  1  0
  3  2  1  0
  3  4  1  6
  5  3  1  0
  5  6  1  1
  7  5  1  0
  7  9  1  0
  8  7  2  0
  9 13  1  0
 10  9  1  0
 10 11  1  0
 11 12  1  0
 13 12  1  0
 13 14  1  6
 14 18  1  0
 15 14  2  0
 17 18  1  0
 17 19  1  0
 17 16  1  1
 19 20  1  0
 21 19  2  0
M  END
$$$$
