IPA.pdb
     RDKit          3D

 21 21  0  0  1  0  0  0  0  0999 V2000
    6.6617  -11.6149   27.3561 C   0  0  0  0  0  0  0  0  0  0  0  0
    5.9262  -12.7616   26.6583 C   0  0  0  0  0  0  0  0  0  0  0  0
    6.9350  -13.6078   25.9603 C   0  0  2  0  0  0  0  0  0  0  0  0
    7.8486  -12.8436   25.0583 C   0  0  0  0  0  0  0  0  0  0  0  0
    6.3299  -14.8426   25.2969 C   0  0  2  0  0  0  0  0  0  0  0  0
    5.6291  -15.5750   26.3188 N   0  0  0  0  0  0  0  0  0  0  0  0
    7.2975  -15.6955   24.6278 C   0  0  0  0  0  0  0  0  0  0  0  0
    7.6864  -16.7297   25.2763 O   0  0  0  0  0  0  0  0  0  0  0  0
    7.8213  -15.4574   23.3362 N   0  0  0  0  0  0  0  0  0  0  0  0
    7.4633  -14.2045   22.6310 C   0  0  0  0  0  0  0  0  0  0  0  0
    7.7349  -14.4424   21.1853 C   0  0  0  0  0  0  0  0  0  0  0  0
    8.0722  -15.8894   21.0759 C   0  0  0  0  0  0  0  0  0  0  0  0
    8.6853  -16.1484   22.4580 C   0  0  1  0  0  0  0  0  0  0  0  0
   10.0761  -15.6824   22.3852 C   0  0  0  0  0  0  0  0  0  0  0  0
   10.2392  -14.4512   22.6810 O   0  0  0  0  0  0  0  0  0  0  0  0
   11.6516  -16.5719   24.4327 C   0  0  0  0  0  0  0  0  0  0  0  0
   12.2296  -16.6680   23.0209 C   0  0  2  0  0  0  0  0  0  0  0  0
   11.2079  -16.4281   22.0353 N   0  0  0  0  0  0  0  0  0  0  0  0
   12.8506  -17.9910   22.9148 C   0  0  0  0  0  0  0  0  0  0  0  0
   14.1242  -18.1172   22.3984 O   0  0  0  0  0  0  0  0  0  0  0  0
   12.2499  -19.0225   23.2844 O   0  0  0  0  0  0  0  0  0  0  0  0
  2  1  1  0
  3  2  1  0
  3  4  1  6
  5  3  1  0
  5  6  1  1
  7  5  1  0
  7  9  1  0
  8  7  2  0
  9 13  1  0
 10  9  1  0
 10 11  1  0
 11 12  1  0
 13 12  1  0
 13 14  1  6
 14 18  1  0
 15 14  2  0
 17 18  1  0
 17 19  1  0
 17 16  1  1
 19 20  1  0
 21 19  2  0
M  END
$$$$
