IPA.pdb
     RDKit          3D

 21 21  0  0  1  0  0  0  0  0999 V2000
    6.9335  -11.7962   27.3095 C   0  0  0  0  0  0  0  0  0  0  0  0
    6.0872  -12.8925   26.6578 C   0  0  0  0  0  0  0  0  0  0  0  0
    6.9983  -13.8027   25.9080 C   0  0  2  0  0  0  0  0  0  0  0  0
    7.9288  -13.0973   24.9759 C   0  0  0  0  0  0  0  0  0  0  0  0
    6.2735  -14.9786   25.2577 C   0  0  2  0  0  0  0  0  0  0  0  0
    5.6361  -15.7222   26.3126 N   0  0  0  0  0  0  0  0  0  0  0  0
    7.1309  -15.8447   24.4665 C   0  0  0  0  0  0  0  0  0  0  0  0
    7.4198  -16.9816   24.9818 O   0  0  0  0  0  0  0  0  0  0  0  0
    7.6513  -15.5152   23.1938 N   0  0  0  0  0  0  0  0  0  0  0  0
    7.5044  -14.1298   22.6896 C   0  0  0  0  0  0  0  0  0  0  0  0
    7.6868  -14.1975   21.2123 C   0  0  0  0  0  0  0  0  0  0  0  0
    7.7549  -15.6493   20.8850 C   0  0  0  0  0  0  0  0  0  0  0  0
    8.3512  -16.2101   22.1824 C   0  0  1  0  0  0  0  0  0  0  0  0
    9.8004  -15.9875   22.0993 C   0  0  0  0  0  0  0  0  0  0  0  0
   10.1608  -14.7734   22.2611 O   0  0  0  0  0  0  0  0  0  0  0  0
   11.5933  -17.9881   23.9266 C   0  0  0  0  0  0  0  0  0  0  0  0
   11.9121  -17.0352   22.7747 C   0  0  2  0  0  0  0  0  0  0  0  0
   10.7977  -16.9422   21.8679 N   0  0  0  0  0  0  0  0  0  0  0  0
   13.1396  -17.5347   22.1492 C   0  0  0  0  0  0  0  0  0  0  0  0
   13.1248  -17.9503   20.8333 O   0  0  0  0  0  0  0  0  0  0  0  0
   14.2143  -17.5954   22.7839 O   0  0  0  0  0  0  0  0  0  0  0  0
  2  1  1  0
  3  2  1  0
  3  4  1  6
  5  3  1  0
  5  6  1  1
  7  5  1  0
  7  9  1  0
  8  7  2  0
  9 13  1  0
 10  9  1  0
 10 11  1  0
 11 12  1  0
 13 12  1  0
 13 14  1  6
 14 18  1  0
 15 14  2  0
 17 18  1  0
 17 19  1  0
 17 16  1  1
 19 20  1  0
 21 19  2  0
M  END
$$$$
