IPA.pdb
     RDKit          3D

 21 21  0  0  1  0  0  0  0  0999 V2000
    7.3365  -12.0372   27.4259 C   0  0  0  0  0  0  0  0  0  0  0  0
    6.3677  -13.0219   26.7668 C   0  0  0  0  0  0  0  0  0  0  0  0
    7.1556  -13.9442   25.9011 C   0  0  2  0  0  0  0  0  0  0  0  0
    8.1092  -13.2497   24.9843 C   0  0  0  0  0  0  0  0  0  0  0  0
    6.2953  -14.9889   25.1943 C   0  0  2  0  0  0  0  0  0  0  0  0
    5.6081  -15.7360   26.2148 N   0  0  0  0  0  0  0  0  0  0  0  0
    7.0373  -15.8803   24.3190 C   0  0  0  0  0  0  0  0  0  0  0  0
    7.0669  -17.1150   24.6595 O   0  0  0  0  0  0  0  0  0  0  0  0
    7.7108  -15.4755   23.1435 N   0  0  0  0  0  0  0  0  0  0  0  0
    7.8288  -14.0302   22.8397 C   0  0  0  0  0  0  0  0  0  0  0  0
    8.1246  -13.9287   21.3827 C   0  0  0  0  0  0  0  0  0  0  0  0
    7.9901  -15.3140   20.8512 C   0  0  0  0  0  0  0  0  0  0  0  0
    8.3764  -16.1363   22.0872 C   0  0  1  0  0  0  0  0  0  0  0  0
    9.8443  -16.1523   22.1289 C   0  0  0  0  0  0  0  0  0  0  0  0
   10.3991  -16.6435   21.0891 O   0  0  0  0  0  0  0  0  0  0  0  0
   12.9974  -15.2831   23.7862 C   0  0  0  0  0  0  0  0  0  0  0  0
   11.9554  -16.3193   23.3651 C   0  0  2  0  0  0  0  0  0  0  0  0
   10.6730  -15.6975   23.1613 N   0  0  0  0  0  0  0  0  0  0  0  0
   11.9505  -17.3509   24.4057 C   0  0  0  0  0  0  0  0  0  0  0  0
   10.8136  -17.5691   25.1571 O   0  0  0  0  0  0  0  0  0  0  0  0
   12.9618  -18.0483   24.6345 O   0  0  0  0  0  0  0  0  0  0  0  0
  2  1  1  0
  3  2  1  0
  3  4  1  6
  5  3  1  0
  5  6  1  1
  7  5  1  0
  7  9  1  0
  8  7  2  0
  9 13  1  0
 10  9  1  0
 10 11  1  0
 11 12  1  0
 13 12  1  0
 13 14  1  1
 14 18  1  0
 15 14  2  0
 17 18  1  0
 17 19  1  0
 17 16  1  1
 19 20  1  0
 21 19  2  0
M  END
$$$$
