IPA.pdb
     RDKit          3D

 21 21  0  0  1  0  0  0  0  0999 V2000
    8.4045  -12.2969   26.9803 C   0  0  0  0  0  0  0  0  0  0  0  0
    7.8196  -13.6999   26.8010 C   0  0  0  0  0  0  0  0  0  0  0  0
    6.6909  -13.6153   25.8315 C   0  0  2  0  0  0  0  0  0  0  0  0
    5.6100  -12.6681   26.2395 C   0  0  0  0  0  0  0  0  0  0  0  0
    6.1622  -14.9816   25.4020 C   0  0  2  0  0  0  0  0  0  0  0  0
    5.7548  -15.6752   26.5957 N   0  0  0  0  0  0  0  0  0  0  0  0
    7.1127  -15.7789   24.6456 C   0  0  0  0  0  0  0  0  0  0  0  0
    7.3543  -16.9533   25.0970 O   0  0  0  0  0  0  0  0  0  0  0  0
    7.7695  -15.3460   23.4707 N   0  0  0  0  0  0  0  0  0  0  0  0
    7.5090  -13.9802   22.9588 C   0  0  0  0  0  0  0  0  0  0  0  0
    7.9216  -13.9812   21.5269 C   0  0  0  0  0  0  0  0  0  0  0  0
    8.2407  -15.4004   21.2049 C   0  0  0  0  0  0  0  0  0  0  0  0
    8.7052  -15.9100   22.5753 C   0  0  1  0  0  0  0  0  0  0  0  0
   10.1047  -15.4888   22.7185 C   0  0  0  0  0  0  0  0  0  0  0  0
   10.2698  -14.4167   23.3919 O   0  0  0  0  0  0  0  0  0  0  0  0
   11.9615  -17.3887   24.1692 C   0  0  0  0  0  0  0  0  0  0  0  0
   12.3560  -16.3909   23.0805 C   0  0  2  0  0  0  0  0  0  0  0  0
   11.2427  -16.1238   22.2075 N   0  0  0  0  0  0  0  0  0  0  0  0
   13.5182  -16.9617   22.3944 C   0  0  0  0  0  0  0  0  0  0  0  0
   13.3972  -17.4267   21.1007 O   0  0  0  0  0  0  0  0  0  0  0  0
   14.6313  -17.0400   22.9567 O   0  0  0  0  0  0  0  0  0  0  0  0
  2  1  1  0
  3  2  1  0
  3  4  1  1
  5  3  1  0
  5  6  1  1
  7  5  1  0
  7  9  1  0
  8  7  2  0
  9 13  1  0
 10  9  1  0
 10 11  1  0
 11 12  1  0
 13 12  1  0
 13 14  1  1
 14 18  1  0
 15 14  2  0
 17 18  1  0
 17 19  1  0
 17 16  1  1
 19 20  1  0
 21 19  2  0
M  END
$$$$
