IPA.pdb
     RDKit          3D

 21 21  0  0  1  0  0  0  0  0999 V2000
    9.2644  -13.0790   27.1561 C   0  0  0  0  0  0  0  0  0  0  0  0
    8.3290  -14.2521   26.8534 C   0  0  0  0  0  0  0  0  0  0  0  0
    7.2034  -13.7484   26.0166 C   0  0  2  0  0  0  0  0  0  0  0  0
    6.4668  -12.5968   26.6195 C   0  0  0  0  0  0  0  0  0  0  0  0
    6.2802  -14.8576   25.5181 C   0  0  2  0  0  0  0  0  0  0  0  0
    5.8779  -15.6256   26.6672 N   0  0  0  0  0  0  0  0  0  0  0  0
    6.8724  -15.7186   24.5085 C   0  0  0  0  0  0  0  0  0  0  0  0
    6.7346  -16.9799   24.6866 O   0  0  0  0  0  0  0  0  0  0  0  0
    7.5734  -15.2581   23.3702 N   0  0  0  0  0  0  0  0  0  0  0  0
    7.7996  -13.8037   23.2004 C   0  0  0  0  0  0  0  0  0  0  0  0
    8.1008  -13.5899   21.7568 C   0  0  0  0  0  0  0  0  0  0  0  0
    7.8618  -14.9058   21.1005 C   0  0  0  0  0  0  0  0  0  0  0  0
    8.1862  -15.8659   22.2521 C   0  0  1  0  0  0  0  0  0  0  0  0
    9.6488  -15.9958   22.2803 C   0  0  0  0  0  0  0  0  0  0  0  0
   10.1550  -16.5222   21.2331 O   0  0  0  0  0  0  0  0  0  0  0  0
   12.9306  -15.3459   23.5871 C   0  0  0  0  0  0  0  0  0  0  0  0
   11.7589  -16.3223   23.4860 C   0  0  2  0  0  0  0  0  0  0  0  0
   10.5190  -15.6125   23.3076 N   0  0  0  0  0  0  0  0  0  0  0  0
   11.7969  -17.1447   24.6983 C   0  0  0  0  0  0  0  0  0  0  0  0
   10.7184  -17.1567   25.5593 O   0  0  0  0  0  0  0  0  0  0  0  0
   12.7934  -17.8451   24.9776 O   0  0  0  0  0  0  0  0  0  0  0  0
  2  1  1  0
  3  2  1  0
  3  4  1  1
  5  3  1  0
  5  6  1  1
  7  5  1  0
  7  9  1  0
  8  7  2  0
  9 13  1  0
 10  9  1  0
 10 11  1  0
 11 12  1  0
 13 12  1  0
 13 14  1  1
 14 18  1  0
 15 14  2  0
 17 18  1  0
 17 19  1  0
 17 16  1  1
 19 20  1  0
 21 19  2  0
M  END
$$$$
