IPA.pdb
     RDKit          3D

 21 21  0  0  1  0  0  0  0  0999 V2000
    6.6695  -11.5583   27.1929 C   0  0  0  0  0  0  0  0  0  0  0  0
    5.8851  -12.6945   26.5324 C   0  0  0  0  0  0  0  0  0  0  0  0
    6.8591  -13.6311   25.9039 C   0  0  2  0  0  0  0  0  0  0  0  0
    7.8506  -12.9641   25.0072 C   0  0  0  0  0  0  0  0  0  0  0  0
    6.1969  -14.8502   25.2662 C   0  0  2  0  0  0  0  0  0  0  0  0
    5.4976  -15.5505   26.3114 N   0  0  0  0  0  0  0  0  0  0  0  0
    7.1187  -15.7403   24.5812 C   0  0  0  0  0  0  0  0  0  0  0  0
    7.3332  -16.8736   25.1388 O   0  0  0  0  0  0  0  0  0  0  0  0
    7.7754  -15.4371   23.3663 N   0  0  0  0  0  0  0  0  0  0  0  0
    7.7634  -14.0423   22.8669 C   0  0  0  0  0  0  0  0  0  0  0  0
    8.0786  -14.1129   21.4122 C   0  0  0  0  0  0  0  0  0  0  0  0
    8.0859  -15.5642   21.0758 C   0  0  0  0  0  0  0  0  0  0  0  0
    8.5219  -16.1691   22.4164 C   0  0  1  0  0  0  0  0  0  0  0  0
    9.9837  -16.0385   22.4710 C   0  0  0  0  0  0  0  0  0  0  0  0
   10.4061  -14.8365   22.5544 O   0  0  0  0  0  0  0  0  0  0  0  0
   12.4198  -18.0958   24.0839 C   0  0  0  0  0  0  0  0  0  0  0  0
   12.1723  -16.9056   23.1574 C   0  0  2  0  0  0  0  0  0  0  0  0
   10.9332  -17.0666   22.4421 N   0  0  0  0  0  0  0  0  0  0  0  0
   13.3461  -16.8058   22.2858 C   0  0  0  0  0  0  0  0  0  0  0  0
   13.2133  -16.9875   20.9242 O   0  0  0  0  0  0  0  0  0  0  0  0
   14.4799  -16.5571   22.7485 O   0  0  0  0  0  0  0  0  0  0  0  0
  2  1  1  0
  3  2  1  0
  3  4  1  6
  5  3  1  0
  5  6  1  1
  7  5  1  0
  7  9  1  0
  8  7  2  0
  9 13  1  0
 10  9  1  0
 10 11  1  0
 11 12  1  0
 13 12  1  0
 13 14  1  1
 14 18  1  0
 15 14  2  0
 17 18  1  0
 17 19  1  0
 17 16  1  1
 19 20  1  0
 21 19  2  0
M  END
$$$$
