NQK.pdb
     RDKit          3D

 27 26  0  0  1  0  0  0  0  0999 V2000
    7.9903  -14.9239   17.0663 N   0  0  0  0  0  0  0  0  0  0  0  0
    7.3102  -13.7164   17.3240 C   0  0  0  0  0  0  0  0  0  0  0  0
    6.0491  -13.6715   17.1125 O   0  0  0  0  0  0  0  0  0  0  0  0
    8.0667  -12.5455   17.8271 C   0  0  0  0  0  0  0  0  0  0  0  0
    9.5083  -12.8490   18.0620 C   0  0  2  0  0  0  0  0  0  0  0  0
   10.1531  -13.4906   16.9489 N   0  0  0  0  0  0  0  0  0  0  0  0
    9.7314  -13.6243   19.3077 C   0  0  0  0  0  0  0  0  0  0  0  0
    9.3703  -13.1571   20.4340 O   0  0  0  0  0  0  0  0  0  0  0  0
    8.7908  -19.2371   20.7034 N   0  0  0  0  0  0  0  0  0  0  0  0
    8.0703  -18.1927   20.0721 C   0  0  0  0  0  0  0  0  0  0  0  0
    6.9365  -18.4510   19.6050 O   0  0  0  0  0  0  0  0  0  0  0  0
    8.6859  -16.8204   19.9850 C   0  0  0  0  0  0  0  0  0  0  0  0
   10.0325  -16.8430   20.6211 C   0  0  0  0  0  0  0  0  0  0  0  0
   10.8104  -15.5607   20.5412 C   0  0  2  0  0  0  0  0  0  0  0  0
   10.3457  -14.8993   19.3137 N   0  0  0  0  0  0  0  0  0  0  0  0
   12.2585  -15.8806   20.4269 C   0  0  0  0  0  0  0  0  0  0  0  0
   12.6840  -16.4349   19.4058 O   0  0  0  0  0  0  0  0  0  0  0  0
   13.1992  -15.5830   21.4370 N   0  0  0  0  0  0  0  0  0  0  0  0
   14.5932  -15.9701   21.3996 C   0  0  1  0  0  0  0  0  0  0  0  0
   15.4438  -14.7749   21.7238 C   0  0  0  0  0  0  0  0  0  0  0  0
   16.9020  -15.0266   21.7504 C   0  0  0  0  0  0  0  0  0  0  0  0
   17.6210  -13.7653   22.1707 C   0  0  0  0  0  0  0  0  0  0  0  0
   19.1321  -14.0085   22.2541 C   0  0  0  0  0  0  0  0  0  0  0  0
   19.8112  -12.7991   22.6626 N   0  0  0  0  0  0  0  0  0  0  0  0
   14.8866  -17.1495   22.2231 C   0  0  0  0  0  0  0  0  0  0  0  0
   15.8292  -18.0950   21.8438 O   0  0  0  0  0  0  0  0  0  0  0  0
   14.3121  -17.4010   23.3355 O   0  0  0  0  0  0  0  0  0  0  0  0
  2  1  1  0
  3  2  2  0
  4  2  1  0
  5  6  1  6
  5  4  1  0
  7  5  1  0
  8  7  2  0
  9 10  1  0
 10 11  2  0
 10 12  1  0
 12 13  1  0
 14 13  1  6
 14 15  1  0
 15  7  1  0
 16 18  1  0
 16 14  1  0
 17 16  2  0
 19 18  1  0
 19 25  1  0
 19 20  1  1
 21 20  1  0
 22 21  1  0
 23 24  1  0
 23 22  1  0
 25 26  1  0
 27 25  2  0
M  END
$$$$
