NQK.pdb
     RDKit          3D

 27 26  0  0  1  0  0  0  0  0999 V2000
   13.3578  -20.7290   17.6478 N   0  0  0  0  0  0  0  0  0  0  0  0
   12.6278  -19.5617   17.3454 C   0  0  0  0  0  0  0  0  0  0  0  0
   12.2207  -19.3930   16.1441 O   0  0  0  0  0  0  0  0  0  0  0  0
   12.3553  -18.5734   18.4156 C   0  0  0  0  0  0  0  0  0  0  0  0
   12.9412  -18.9704   19.7288 C   0  0  2  0  0  0  0  0  0  0  0  0
   12.0995  -19.8473   20.4962 N   0  0  0  0  0  0  0  0  0  0  0  0
   13.3533  -17.8016   20.5453 C   0  0  0  0  0  0  0  0  0  0  0  0
   14.1746  -16.9472   20.0838 O   0  0  0  0  0  0  0  0  0  0  0  0
   10.0142  -15.5222   25.1808 N   0  0  0  0  0  0  0  0  0  0  0  0
    9.7323  -15.4306   23.7950 C   0  0  0  0  0  0  0  0  0  0  0  0
    8.5764  -15.0961   23.4447 O   0  0  0  0  0  0  0  0  0  0  0  0
   10.8211  -15.7354   22.7994 C   0  0  0  0  0  0  0  0  0  0  0  0
   12.0639  -16.1132   23.5284 C   0  0  0  0  0  0  0  0  0  0  0  0
   13.2566  -16.4140   22.6667 C   0  0  2  0  0  0  0  0  0  0  0  0
   12.8676  -17.5760   21.8553 N   0  0  0  0  0  0  0  0  0  0  0  0
   14.4067  -16.7688   23.5407 C   0  0  0  0  0  0  0  0  0  0  0  0
   14.1980  -17.2085   24.6783 O   0  0  0  0  0  0  0  0  0  0  0  0
   15.7540  -16.6311   23.1414 N   0  0  0  0  0  0  0  0  0  0  0  0
   16.8935  -16.9197   23.9855 C   0  0  1  0  0  0  0  0  0  0  0  0
   17.7433  -17.9665   23.3227 C   0  0  0  0  0  0  0  0  0  0  0  0
   17.0716  -19.2622   23.0772 C   0  0  0  0  0  0  0  0  0  0  0  0
   17.9954  -20.1653   22.2928 C   0  0  0  0  0  0  0  0  0  0  0  0
   17.2964  -21.4861   21.9515 C   0  0  0  0  0  0  0  0  0  0  0  0
   18.1391  -22.2908   21.0953 N   0  0  0  0  0  0  0  0  0  0  0  0
   17.6350  -15.7173   24.3847 C   0  0  0  0  0  0  0  0  0  0  0  0
   17.3422  -14.4654   23.8617 O   0  0  0  0  0  0  0  0  0  0  0  0
   18.5927  -15.7200   25.2296 O   0  0  0  0  0  0  0  0  0  0  0  0
  2  1  1  0
  3  2  2  0
  4  2  1  0
  5  6  1  1
  5  4  1  0
  7  5  1  0
  8  7  2  0
  9 10  1  0
 10 11  2  0
 10 12  1  0
 12 13  1  0
 14 13  1  1
 14 15  1  0
 15  7  1  0
 16 18  1  0
 16 14  1  0
 17 16  2  0
 19 18  1  0
 19 25  1  0
 19 20  1  6
 21 20  1  0
 22 21  1  0
 23 24  1  0
 23 22  1  0
 25 26  1  0
 27 25  2  0
M  END
$$$$
