NQK.pdb
     RDKit          3D

 27 26  0  0  1  0  0  0  0  0999 V2000
    5.6203  -18.3233   14.6381 N   0  0  0  0  0  0  0  0  0  0  0  0
    5.7604  -19.2462   15.6943 C   0  0  0  0  0  0  0  0  0  0  0  0
    6.6698  -20.1417   15.6030 O   0  0  0  0  0  0  0  0  0  0  0  0
    4.8602  -19.1546   16.8680 C   0  0  0  0  0  0  0  0  0  0  0  0
    5.2086  -20.1334   17.9387 C   0  0  2  0  0  0  0  0  0  0  0  0
    4.4265  -21.3387   17.8971 N   0  0  0  0  0  0  0  0  0  0  0  0
    5.1643  -19.5332   19.2953 C   0  0  0  0  0  0  0  0  0  0  0  0
    5.9785  -18.6126   19.6225 O   0  0  0  0  0  0  0  0  0  0  0  0
    0.4003  -20.5608   22.9459 N   0  0  0  0  0  0  0  0  0  0  0  0
    0.4203  -19.3950   22.1404 C   0  0  0  0  0  0  0  0  0  0  0  0
   -0.6641  -18.8067   21.9198 O   0  0  0  0  0  0  0  0  0  0  0  0
    1.7317  -18.9070   21.5820 C   0  0  0  0  0  0  0  0  0  0  0  0
    2.8453  -19.6973   22.1770 C   0  0  0  0  0  0  0  0  0  0  0  0
    4.2158  -19.3919   21.6438 C   0  0  2  0  0  0  0  0  0  0  0  0
    4.2348  -19.9421   20.2811 N   0  0  0  0  0  0  0  0  0  0  0  0
    5.2269  -20.0869   22.4846 C   0  0  0  0  0  0  0  0  0  0  0  0
    5.2786  -21.3232   22.4832 O   0  0  0  0  0  0  0  0  0  0  0  0
    6.1532  -19.4053   23.3038 N   0  0  0  0  0  0  0  0  0  0  0  0
    7.1297  -20.0532   24.1530 C   0  0  1  0  0  0  0  0  0  0  0  0
    8.5049  -19.7952   23.6058 C   0  0  0  0  0  0  0  0  0  0  0  0
    9.6123  -20.4244   24.3595 C   0  0  0  0  0  0  0  0  0  0  0  0
   10.9320  -20.0145   23.7474 C   0  0  0  0  0  0  0  0  0  0  0  0
   12.0946  -20.7330   24.4415 C   0  0  0  0  0  0  0  0  0  0  0  0
   13.3531  -20.3294   23.8551 N   0  0  0  0  0  0  0  0  0  0  0  0
    6.9800  -19.7075   25.5718 C   0  0  0  0  0  0  0  0  0  0  0  0
    6.1962  -18.6411   25.9901 O   0  0  0  0  0  0  0  0  0  0  0  0
    7.5459  -20.3451   26.5228 O   0  0  0  0  0  0  0  0  0  0  0  0
  2  1  1  0
  3  2  2  0
  4  2  1  0
  5  6  1  1
  5  4  1  0
  7  5  1  0
  8  7  2  0
  9 10  1  0
 10 11  2  0
 10 12  1  0
 12 13  1  0
 14 13  1  1
 14 15  1  0
 15  7  1  0
 16 18  1  0
 16 14  1  0
 17 16  2  0
 19 18  1  0
 19 25  1  0
 19 20  1  6
 21 20  1  0
 22 21  1  0
 23 24  1  0
 23 22  1  0
 25 26  1  0
 27 25  2  0
M  END
$$$$
