NQK.pdb
     RDKit          3D

 27 26  0  0  1  0  0  0  0  0999 V2000
    6.8173  -13.6103   19.4470 N   0  0  0  0  0  0  0  0  0  0  0  0
    8.0649  -13.7561   18.8073 C   0  0  0  0  0  0  0  0  0  0  0  0
    8.3484  -12.9677   17.8402 O   0  0  0  0  0  0  0  0  0  0  0  0
    9.0030  -14.8069   19.2679 C   0  0  0  0  0  0  0  0  0  0  0  0
    8.4625  -15.6014   20.4090 C   0  0  2  0  0  0  0  0  0  0  0  0
    7.0275  -15.6828   20.4286 N   0  0  0  0  0  0  0  0  0  0  0  0
    8.9732  -15.1331   21.7215 C   0  0  0  0  0  0  0  0  0  0  0  0
   10.2150  -14.9199   21.8939 O   0  0  0  0  0  0  0  0  0  0  0  0
    5.4132  -12.4348   25.8843 N   0  0  0  0  0  0  0  0  0  0  0  0
    6.6151  -12.4049   26.6344 C   0  0  0  0  0  0  0  0  0  0  0  0
    6.6428  -11.7224   27.6851 O   0  0  0  0  0  0  0  0  0  0  0  0
    7.8074  -13.1871   26.1481 C   0  0  0  0  0  0  0  0  0  0  0  0
    7.5113  -13.7503   24.8014 C   0  0  0  0  0  0  0  0  0  0  0  0
    8.6294  -14.5203   24.1590 C   0  0  2  0  0  0  0  0  0  0  0  0
    8.1266  -14.9027   22.8320 N   0  0  0  0  0  0  0  0  0  0  0  0
    8.9035  -15.7386   24.9671 C   0  0  0  0  0  0  0  0  0  0  0  0
    8.0713  -16.6539   24.9957 O   0  0  0  0  0  0  0  0  0  0  0  0
   10.0835  -15.9181   25.7214 N   0  0  0  0  0  0  0  0  0  0  0  0
   10.3978  -17.1084   26.4823 C   0  0  1  0  0  0  0  0  0  0  0  0
   11.5673  -17.8040   25.8456 C   0  0  0  0  0  0  0  0  0  0  0  0
   11.9684  -19.0773   26.4843 C   0  0  0  0  0  0  0  0  0  0  0  0
   13.1310  -19.6746   25.7254 C   0  0  0  0  0  0  0  0  0  0  0  0
   13.5200  -21.0340   26.3174 C   0  0  0  0  0  0  0  0  0  0  0  0
   14.5901  -21.6270   25.5468 N   0  0  0  0  0  0  0  0  0  0  0  0
   10.5703  -16.8473   27.9165 C   0  0  0  0  0  0  0  0  0  0  0  0
   10.4027  -17.8416   28.8703 O   0  0  0  0  0  0  0  0  0  0  0  0
   10.8830  -15.7071   28.3994 O   0  0  0  0  0  0  0  0  0  0  0  0
  2  1  1  0
  3  2  2  0
  4  2  1  0
  5  6  1  1
  5  4  1  0
  7  5  1  0
  8  7  2  0
  9 10  1  0
 10 11  2  0
 10 12  1  0
 12 13  1  0
 14 13  1  1
 14 15  1  0
 15  7  1  0
 16 18  1  0
 16 14  1  0
 17 16  2  0
 19 18  1  0
 19 25  1  0
 19 20  1  6
 21 20  1  0
 22 21  1  0
 23 24  1  0
 23 22  1  0
 25 26  1  0
 27 25  2  0
M  END
$$$$
