NQK.pdb
     RDKit          3D

 27 26  0  0  1  0  0  0  0  0999 V2000
   14.1455  -20.1948   18.0134 N   0  0  0  0  0  0  0  0  0  0  0  0
   12.9943  -20.1653   18.8264 C   0  0  0  0  0  0  0  0  0  0  0  0
   12.4146  -19.0411   19.0194 O   0  0  0  0  0  0  0  0  0  0  0  0
   12.4933  -21.4235   19.4283 C   0  0  0  0  0  0  0  0  0  0  0  0
   11.7538  -21.1969   20.7040 C   0  0  2  0  0  0  0  0  0  0  0  0
   11.0473  -19.9459   20.7486 N   0  0  0  0  0  0  0  0  0  0  0  0
   12.6212  -21.3455   21.8991 C   0  0  0  0  0  0  0  0  0  0  0  0
   12.8028  -22.4872   22.4290 O   0  0  0  0  0  0  0  0  0  0  0  0
   16.6561  -17.0308   22.3572 N   0  0  0  0  0  0  0  0  0  0  0  0
   15.9027  -16.9872   23.5567 C   0  0  0  0  0  0  0  0  0  0  0  0
   16.2379  -16.1629   24.4391 O   0  0  0  0  0  0  0  0  0  0  0  0
   14.7355  -17.9241   23.7288 C   0  0  0  0  0  0  0  0  0  0  0  0
   15.1970  -19.3270   23.5354 C   0  0  0  0  0  0  0  0  0  0  0  0
   14.1420  -20.3849   23.6880 C   0  0  2  0  0  0  0  0  0  0  0  0
   13.2808  -20.2494   22.5047 N   0  0  0  0  0  0  0  0  0  0  0  0
   13.3561  -20.1091   24.9204 C   0  0  0  0  0  0  0  0  0  0  0  0
   12.3549  -19.3847   24.8584 O   0  0  0  0  0  0  0  0  0  0  0  0
   13.6915  -20.6361   26.1867 N   0  0  0  0  0  0  0  0  0  0  0  0
   12.9098  -20.4425   27.3891 C   0  0  1  0  0  0  0  0  0  0  0  0
   12.0878  -21.6738   27.6443 C   0  0  0  0  0  0  0  0  0  0  0  0
   11.2520  -21.6330   28.8650 C   0  0  0  0  0  0  0  0  0  0  0  0
   10.5951  -22.9789   29.0683 C   0  0  0  0  0  0  0  0  0  0  0  0
    9.7712  -22.9869   30.3608 C   0  0  0  0  0  0  0  0  0  0  0  0
    9.2590  -24.3143   30.6189 N   0  0  0  0  0  0  0  0  0  0  0  0
   13.7168  -20.0176   28.5395 C   0  0  0  0  0  0  0  0  0  0  0  0
   15.0683  -19.7245   28.4215 O   0  0  0  0  0  0  0  0  0  0  0  0
   13.2541  -19.8839   29.7223 O   0  0  0  0  0  0  0  0  0  0  0  0
  2  1  1  0
  3  2  2  0
  4  2  1  0
  5  6  1  6
  5  4  1  0
  7  5  1  0
  8  7  2  0
  9 10  1  0
 10 11  2  0
 10 12  1  0
 12 13  1  0
 14 13  1  6
 14 15  1  0
 15  7  1  0
 16 18  1  0
 16 14  1  0
 17 16  2  0
 19 18  1  0
 19 25  1  0
 19 20  1  1
 21 20  1  0
 22 21  1  0
 23 24  1  0
 23 22  1  0
 25 26  1  0
 27 25  2  0
M  END
$$$$
