NQK.pdb
     RDKit          3D

 27 26  0  0  1  0  0  0  0  0999 V2000
    7.3065  -16.8719   17.2435 N   0  0  0  0  0  0  0  0  0  0  0  0
    8.1996  -17.4103   18.1919 C   0  0  0  0  0  0  0  0  0  0  0  0
    8.4171  -18.6711   18.1755 O   0  0  0  0  0  0  0  0  0  0  0  0
    8.8544  -16.5107   19.1709 C   0  0  0  0  0  0  0  0  0  0  0  0
    8.7135  -16.9894   20.5767 C   0  0  2  0  0  0  0  0  0  0  0  0
    7.3894  -17.4441   20.9029 N   0  0  0  0  0  0  0  0  0  0  0  0
    9.1766  -15.9873   21.5687 C   0  0  0  0  0  0  0  0  0  0  0  0
   10.3066  -15.4193   21.4355 O   0  0  0  0  0  0  0  0  0  0  0  0
    5.4532  -13.9713   26.0664 N   0  0  0  0  0  0  0  0  0  0  0  0
    6.4907  -13.0230   26.2472 C   0  0  0  0  0  0  0  0  0  0  0  0
    6.3073  -12.0904   27.0640 O   0  0  0  0  0  0  0  0  0  0  0  0
    7.7666  -13.1669   25.4592 C   0  0  0  0  0  0  0  0  0  0  0  0
    7.6047  -14.2536   24.4534 C   0  0  0  0  0  0  0  0  0  0  0  0
    8.8340  -14.5928   23.6600 C   0  0  2  0  0  0  0  0  0  0  0  0
    8.4048  -15.6151   22.6952 N   0  0  0  0  0  0  0  0  0  0  0  0
    9.8591  -15.1601   24.5764 C   0  0  0  0  0  0  0  0  0  0  0  0
   10.2002  -14.5243   25.5816 O   0  0  0  0  0  0  0  0  0  0  0  0
   10.4811  -16.4097   24.3638 N   0  0  0  0  0  0  0  0  0  0  0  0
   11.4228  -17.0232   25.2756 C   0  0  1  0  0  0  0  0  0  0  0  0
   10.7698  -17.1885   26.6184 C   0  0  0  0  0  0  0  0  0  0  0  0
   11.6312  -17.7708   27.6717 C   0  0  0  0  0  0  0  0  0  0  0  0
   10.8653  -17.8236   28.9736 C   0  0  0  0  0  0  0  0  0  0  0  0
   11.7366  -18.4139   30.0881 C   0  0  0  0  0  0  0  0  0  0  0  0
   11.0008  -18.4487   31.3323 N   0  0  0  0  0  0  0  0  0  0  0  0
   12.0167  -18.2574   24.7473 C   0  0  0  0  0  0  0  0  0  0  0  0
   13.3460  -18.5880   24.9710 O   0  0  0  0  0  0  0  0  0  0  0  0
   11.3746  -19.1146   24.0516 O   0  0  0  0  0  0  0  0  0  0  0  0
  2  1  1  0
  3  2  2  0
  4  2  1  0
  5  6  1  1
  5  4  1  0
  7  5  1  0
  8  7  2  0
  9 10  1  0
 10 11  2  0
 10 12  1  0
 12 13  1  0
 14 13  1  1
 14 15  1  0
 15  7  1  0
 16 18  1  0
 16 14  1  0
 17 16  2  0
 19 18  1  0
 19 25  1  0
 19 20  1  1
 21 20  1  0
 22 21  1  0
 23 24  1  0
 23 22  1  0
 25 26  1  0
 27 25  2  0
M  END
$$$$
