NQK.pdb
     RDKit          3D

 27 26  0  0  1  0  0  0  0  0999 V2000
    7.5061  -12.6279   17.8468 N   0  0  0  0  0  0  0  0  0  0  0  0
    8.3958  -13.6525   18.2283 C   0  0  0  0  0  0  0  0  0  0  0  0
    8.6761  -14.5637   17.3748 O   0  0  0  0  0  0  0  0  0  0  0  0
    8.9754  -13.6457   19.5923 C   0  0  0  0  0  0  0  0  0  0  0  0
    8.4678  -14.7641   20.4391 C   0  0  2  0  0  0  0  0  0  0  0  0
    7.0383  -14.9113   20.4068 N   0  0  0  0  0  0  0  0  0  0  0  0
    8.9489  -14.6809   21.8406 C   0  0  0  0  0  0  0  0  0  0  0  0
   10.1939  -14.6308   22.0955 O   0  0  0  0  0  0  0  0  0  0  0  0
    5.3312  -13.0470   26.5554 N   0  0  0  0  0  0  0  0  0  0  0  0
    6.4077  -12.1506   26.3412 C   0  0  0  0  0  0  0  0  0  0  0  0
    6.2939  -10.9748   26.7594 O   0  0  0  0  0  0  0  0  0  0  0  0
    7.6407  -12.6370   25.6250 C   0  0  0  0  0  0  0  0  0  0  0  0
    7.4082  -14.0219   25.1284 C   0  0  0  0  0  0  0  0  0  0  0  0
    8.5356  -14.6283   24.3430 C   0  0  2  0  0  0  0  0  0  0  0  0
    8.0696  -14.6537   22.9493 N   0  0  0  0  0  0  0  0  0  0  0  0
    8.7679  -16.0163   24.8246 C   0  0  0  0  0  0  0  0  0  0  0  0
    8.1114  -16.9486   24.3443 O   0  0  0  0  0  0  0  0  0  0  0  0
    9.7146  -16.3420   25.8203 N   0  0  0  0  0  0  0  0  0  0  0  0
   10.2425  -17.6702   26.0473 C   0  0  1  0  0  0  0  0  0  0  0  0
   10.8303  -18.1908   24.7665 C   0  0  0  0  0  0  0  0  0  0  0  0
   11.4599  -19.5271   24.8582 C   0  0  0  0  0  0  0  0  0  0  0  0
   11.9630  -19.9392   23.4939 C   0  0  0  0  0  0  0  0  0  0  0  0
   12.5731  -21.3444   23.5461 C   0  0  0  0  0  0  0  0  0  0  0  0
   12.9208  -21.7881   22.2145 N   0  0  0  0  0  0  0  0  0  0  0  0
   11.1581  -17.7390   27.1927 C   0  0  0  0  0  0  0  0  0  0  0  0
   12.0339  -16.7062   27.4971 O   0  0  0  0  0  0  0  0  0  0  0  0
   11.2255  -18.7340   27.9906 O   0  0  0  0  0  0  0  0  0  0  0  0
  2  1  1  0
  3  2  2  0
  4  2  1  0
  5  6  1  1
  5  4  1  0
  7  5  1  0
  8  7  2  0
  9 10  1  0
 10 11  2  0
 10 12  1  0
 12 13  1  0
 14 13  1  1
 14 15  1  0
 15  7  1  0
 16 18  1  0
 16 14  1  0
 17 16  2  0
 19 18  1  0
 19 25  1  0
 19 20  1  6
 21 20  1  0
 22 21  1  0
 23 24  1  0
 23 22  1  0
 25 26  1  0
 27 25  2  0
M  END
$$$$
