NQK.pdb
     RDKit          3D

 27 26  0  0  1  0  0  0  0  0999 V2000
   10.2876  -16.3370   15.4500 N   0  0  0  0  0  0  0  0  0  0  0  0
    9.8473  -16.8895   16.6698 C   0  0  0  0  0  0  0  0  0  0  0  0
    8.6649  -16.6113   17.0719 O   0  0  0  0  0  0  0  0  0  0  0  0
   10.7565  -17.7674   17.4439 C   0  0  0  0  0  0  0  0  0  0  0  0
   11.7459  -16.9998   18.2546 C   0  0  2  0  0  0  0  0  0  0  0  0
   12.7833  -17.8153   18.8248 N   0  0  0  0  0  0  0  0  0  0  0  0
   11.1019  -16.1714   19.3042 C   0  0  0  0  0  0  0  0  0  0  0  0
   11.3911  -14.9387   19.4236 O   0  0  0  0  0  0  0  0  0  0  0  0
    7.7950  -12.9399   19.6875 N   0  0  0  0  0  0  0  0  0  0  0  0
    7.3902  -13.9032   20.6449 C   0  0  0  0  0  0  0  0  0  0  0  0
    7.1231  -13.5120   21.8051 O   0  0  0  0  0  0  0  0  0  0  0  0
    7.2956  -15.3511   20.2393 C   0  0  0  0  0  0  0  0  0  0  0  0
    8.0666  -16.1844   21.2036 C   0  0  0  0  0  0  0  0  0  0  0  0
    9.5379  -15.8935   21.2821 C   0  0  2  0  0  0  0  0  0  0  0  0
   10.1506  -16.6939   20.2125 N   0  0  0  0  0  0  0  0  0  0  0  0
   10.0488  -16.3409   22.6054 C   0  0  0  0  0  0  0  0  0  0  0  0
   10.6126  -17.4379   22.7047 O   0  0  0  0  0  0  0  0  0  0  0  0
    9.9264  -15.5716   23.7831 N   0  0  0  0  0  0  0  0  0  0  0  0
   10.3436  -16.0112   25.0973 C   0  0  1  0  0  0  0  0  0  0  0  0
    9.8551  -15.0275   26.1224 C   0  0  0  0  0  0  0  0  0  0  0  0
   10.0974  -15.4112   27.5310 C   0  0  0  0  0  0  0  0  0  0  0  0
   10.2680  -14.1645   28.3682 C   0  0  0  0  0  0  0  0  0  0  0  0
   10.5913  -14.5307   29.8211 C   0  0  0  0  0  0  0  0  0  0  0  0
   10.7502  -13.3327   30.6151 N   0  0  0  0  0  0  0  0  0  0  0  0
    9.9736  -17.4024   25.3847 C   0  0  0  0  0  0  0  0  0  0  0  0
    8.7595  -17.9390   24.9794 O   0  0  0  0  0  0  0  0  0  0  0  0
   10.7214  -18.2208   26.0187 O   0  0  0  0  0  0  0  0  0  0  0  0
  2  1  1  0
  3  2  2  0
  4  2  1  0
  5  6  1  1
  5  4  1  0
  7  5  1  0
  8  7  2  0
  9 10  1  0
 10 11  2  0
 10 12  1  0
 12 13  1  0
 14 13  1  1
 14 15  1  0
 15  7  1  0
 16 18  1  0
 16 14  1  0
 17 16  2  0
 19 18  1  0
 19 25  1  0
 19 20  1  1
 21 20  1  0
 22 21  1  0
 23 24  1  0
 23 22  1  0
 25 26  1  0
 27 25  2  0
M  END
$$$$
