NQK.pdb
     RDKit          3D

 27 26  0  0  1  0  0  0  0  0999 V2000
    7.3865  -12.2072   17.5457 N   0  0  0  0  0  0  0  0  0  0  0  0
    7.5713  -13.5967   17.3973 C   0  0  0  0  0  0  0  0  0  0  0  0
    7.7066  -14.0696   16.2160 O   0  0  0  0  0  0  0  0  0  0  0  0
    7.6033  -14.4616   18.6004 C   0  0  0  0  0  0  0  0  0  0  0  0
    8.9639  -14.5571   19.2048 C   0  0  2  0  0  0  0  0  0  0  0  0
   10.0118  -14.7579   18.2416 N   0  0  0  0  0  0  0  0  0  0  0  0
    9.0406  -15.5818   20.2757 C   0  0  0  0  0  0  0  0  0  0  0  0
    8.1984  -15.5862   21.2286 O   0  0  0  0  0  0  0  0  0  0  0  0
   12.3156  -20.7090   19.5797 N   0  0  0  0  0  0  0  0  0  0  0  0
   11.9329  -20.9480   20.9231 C   0  0  0  0  0  0  0  0  0  0  0  0
   12.2607  -22.0371   21.4494 O   0  0  0  0  0  0  0  0  0  0  0  0
   11.1525  -19.8950   21.6659 C   0  0  0  0  0  0  0  0  0  0  0  0
   10.9380  -18.7206   20.7751 C   0  0  0  0  0  0  0  0  0  0  0  0
   10.1294  -17.5992   21.3620 C   0  0  2  0  0  0  0  0  0  0  0  0
   10.0337  -16.5899   20.2978 N   0  0  0  0  0  0  0  0  0  0  0  0
   10.8598  -17.0366   22.5292 C   0  0  0  0  0  0  0  0  0  0  0  0
   11.9282  -16.4381   22.3520 O   0  0  0  0  0  0  0  0  0  0  0  0
   10.3969  -17.1467   23.8586 N   0  0  0  0  0  0  0  0  0  0  0  0
   11.1324  -16.7020   25.0230 C   0  0  1  0  0  0  0  0  0  0  0  0
   10.2435  -15.8278   25.8612 C   0  0  0  0  0  0  0  0  0  0  0  0
   10.8560  -15.3152   27.1072 C   0  0  0  0  0  0  0  0  0  0  0  0
    9.8562  -14.4486   27.8378 C   0  0  0  0  0  0  0  0  0  0  0  0
   10.4865  -13.8426   29.0968 C   0  0  0  0  0  0  0  0  0  0  0  0
    9.5816  -12.8894   29.6995 N   0  0  0  0  0  0  0  0  0  0  0  0
   11.7554  -17.8035   25.7670 C   0  0  0  0  0  0  0  0  0  0  0  0
   12.9494  -17.6427   26.4562 O   0  0  0  0  0  0  0  0  0  0  0  0
   11.2624  -18.9792   25.8426 O   0  0  0  0  0  0  0  0  0  0  0  0
  2  1  1  0
  3  2  2  0
  4  2  1  0
  5  6  1  6
  5  4  1  0
  7  5  1  0
  8  7  2  0
  9 10  1  0
 10 11  2  0
 10 12  1  0
 12 13  1  0
 14 13  1  6
 14 15  1  0
 15  7  1  0
 16 18  1  0
 16 14  1  0
 17 16  2  0
 19 18  1  0
 19 25  1  0
 19 20  1  1
 21 20  1  0
 22 21  1  0
 23 24  1  0
 23 22  1  0
 25 26  1  0
 27 25  2  0
M  END
$$$$
