NQK.pdb
     RDKit          3D

 27 26  0  0  1  0  0  0  0  0999 V2000
    7.8502  -12.4423   17.9181 N   0  0  0  0  0  0  0  0  0  0  0  0
    7.6966  -13.8325   18.0930 C   0  0  0  0  0  0  0  0  0  0  0  0
    7.7213  -14.5824   17.0566 O   0  0  0  0  0  0  0  0  0  0  0  0
    7.5125  -14.3807   19.4576 C   0  0  0  0  0  0  0  0  0  0  0  0
    8.7840  -14.4248   20.2367 C   0  0  2  0  0  0  0  0  0  0  0  0
    9.9036  -14.9277   19.4884 N   0  0  0  0  0  0  0  0  0  0  0  0
    8.6424  -15.1627   21.5166 C   0  0  0  0  0  0  0  0  0  0  0  0
    7.5890  -15.0434   22.2191 O   0  0  0  0  0  0  0  0  0  0  0  0
   11.1880  -20.9491   23.3555 N   0  0  0  0  0  0  0  0  0  0  0  0
   10.9602  -20.1706   22.1935 C   0  0  0  0  0  0  0  0  0  0  0  0
   11.6276  -20.4293   21.1648 O   0  0  0  0  0  0  0  0  0  0  0  0
    9.9333  -19.0689   22.2336 C   0  0  0  0  0  0  0  0  0  0  0  0
   10.4244  -17.9691   23.1098 C   0  0  0  0  0  0  0  0  0  0  0  0
    9.4997  -16.7951   23.2589 C   0  0  2  0  0  0  0  0  0  0  0  0
    9.6491  -16.0218   22.0180 N   0  0  0  0  0  0  0  0  0  0  0  0
    9.9403  -15.9778   24.4209 C   0  0  0  0  0  0  0  0  0  0  0  0
   11.0215  -15.3781   24.3726 O   0  0  0  0  0  0  0  0  0  0  0  0
    9.1815  -15.8415   25.6039 N   0  0  0  0  0  0  0  0  0  0  0  0
    9.5769  -15.0442   26.7451 C   0  0  1  0  0  0  0  0  0  0  0  0
    8.3945  -14.2501   27.2230 C   0  0  0  0  0  0  0  0  0  0  0  0
    7.9893  -13.1305   26.3441 C   0  0  0  0  0  0  0  0  0  0  0  0
    6.7474  -12.4768   26.9049 C   0  0  0  0  0  0  0  0  0  0  0  0
    6.3238  -11.2882   26.0346 C   0  0  0  0  0  0  0  0  0  0  0  0
    5.1248  -10.6806   26.5675 N   0  0  0  0  0  0  0  0  0  0  0  0
   10.2306  -15.8298   27.7989 C   0  0  0  0  0  0  0  0  0  0  0  0
   10.3338  -17.2121   27.7287 O   0  0  0  0  0  0  0  0  0  0  0  0
   10.7496  -15.3194   28.8483 O   0  0  0  0  0  0  0  0  0  0  0  0
  2  1  1  0
  3  2  2  0
  4  2  1  0
  5  6  1  6
  5  4  1  0
  7  5  1  0
  8  7  2  0
  9 10  1  0
 10 11  2  0
 10 12  1  0
 12 13  1  0
 14 13  1  6
 14 15  1  0
 15  7  1  0
 16 18  1  0
 16 14  1  0
 17 16  2  0
 19 18  1  0
 19 25  1  0
 19 20  1  1
 21 20  1  0
 22 21  1  0
 23 24  1  0
 23 22  1  0
 25 26  1  0
 27 25  2  0
M  END
$$$$
