NQK.pdb
     RDKit          3D

 27 26  0  0  1  0  0  0  0  0999 V2000
    5.4985  -20.8376   17.9065 N   0  0  0  0  0  0  0  0  0  0  0  0
    5.7622  -19.7815   17.0108 C   0  0  0  0  0  0  0  0  0  0  0  0
    5.4309  -19.9278   15.7836 O   0  0  0  0  0  0  0  0  0  0  0  0
    6.4088  -18.5450   17.5102 C   0  0  0  0  0  0  0  0  0  0  0  0
    6.7850  -18.6335   18.9511 C   0  0  2  0  0  0  0  0  0  0  0  0
    5.6712  -18.4957   19.8492 N   0  0  0  0  0  0  0  0  0  0  0  0
    7.8662  -17.6849   19.3167 C   0  0  0  0  0  0  0  0  0  0  0  0
    9.0438  -17.8393   18.8617 O   0  0  0  0  0  0  0  0  0  0  0  0
    9.7289  -13.3125   18.9241 N   0  0  0  0  0  0  0  0  0  0  0  0
    8.3519  -13.2562   18.5938 C   0  0  0  0  0  0  0  0  0  0  0  0
    8.0267  -12.7785   17.4818 O   0  0  0  0  0  0  0  0  0  0  0  0
    7.3354  -13.7678   19.5811 C   0  0  0  0  0  0  0  0  0  0  0  0
    8.0396  -14.3247   20.7696 C   0  0  0  0  0  0  0  0  0  0  0  0
    8.7220  -15.6461   20.5603 C   0  0  2  0  0  0  0  0  0  0  0  0
    7.6540  -16.5789   20.1739 N   0  0  0  0  0  0  0  0  0  0  0  0
    9.3350  -16.0818   21.8436 C   0  0  0  0  0  0  0  0  0  0  0  0
    8.8571  -15.6880   22.9148 O   0  0  0  0  0  0  0  0  0  0  0  0
   10.4558  -16.9376   21.9151 N   0  0  0  0  0  0  0  0  0  0  0  0
   11.7553  -16.5474   22.4184 C   0  0  1  0  0  0  0  0  0  0  0  0
   12.4221  -15.6509   21.4141 C   0  0  0  0  0  0  0  0  0  0  0  0
   13.7157  -15.0743   21.8436 C   0  0  0  0  0  0  0  0  0  0  0  0
   14.6054  -14.8840   20.6368 C   0  0  0  0  0  0  0  0  0  0  0  0
   15.9639  -14.3093   21.0537 C   0  0  0  0  0  0  0  0  0  0  0  0
   16.8269  -14.1795   19.9007 N   0  0  0  0  0  0  0  0  0  0  0  0
   11.7043  -15.9869   23.7742 C   0  0  0  0  0  0  0  0  0  0  0  0
   12.4872  -16.4856   24.8060 O   0  0  0  0  0  0  0  0  0  0  0  0
   10.9513  -15.0126   24.1132 O   0  0  0  0  0  0  0  0  0  0  0  0
  2  1  1  0
  3  2  2  0
  4  2  1  0
  5  6  1  1
  5  4  1  0
  7  5  1  0
  8  7  2  0
  9 10  1  0
 10 11  2  0
 10 12  1  0
 12 13  1  0
 14 13  1  1
 14 15  1  0
 15  7  1  0
 16 18  1  0
 16 14  1  0
 17 16  2  0
 19 18  1  0
 19 25  1  0
 19 20  1  6
 21 20  1  0
 22 21  1  0
 23 24  1  0
 23 22  1  0
 25 26  1  0
 27 25  2  0
M  END
$$$$
