NQK.pdb
     RDKit          3D

 27 26  0  0  1  0  0  0  0  0999 V2000
    7.6653  -12.6733   16.4916 N   0  0  0  0  0  0  0  0  0  0  0  0
    8.0151  -14.0384   16.5232 C   0  0  0  0  0  0  0  0  0  0  0  0
    8.4360  -14.5836   15.4449 O   0  0  0  0  0  0  0  0  0  0  0  0
    7.8870  -14.7957   17.7907 C   0  0  0  0  0  0  0  0  0  0  0  0
    8.9632  -14.4657   18.7698 C   0  0  2  0  0  0  0  0  0  0  0  0
   10.2798  -14.4361   18.1939 N   0  0  0  0  0  0  0  0  0  0  0  0
    8.9386  -15.3491   19.9622 C   0  0  0  0  0  0  0  0  0  0  0  0
    7.8562  -15.5445   20.6006 O   0  0  0  0  0  0  0  0  0  0  0  0
   13.6486  -19.0804   21.7026 N   0  0  0  0  0  0  0  0  0  0  0  0
   12.7780  -19.3678   20.6219 C   0  0  0  0  0  0  0  0  0  0  0  0
   13.1516  -20.2009   19.7635 O   0  0  0  0  0  0  0  0  0  0  0  0
   11.4458  -18.6689   20.5425 C   0  0  0  0  0  0  0  0  0  0  0  0
   11.3727  -17.6254   21.6028 C   0  0  0  0  0  0  0  0  0  0  0  0
   10.0917  -16.8432   21.6574 C   0  0  2  0  0  0  0  0  0  0  0  0
   10.0927  -16.0096   20.4469 N   0  0  0  0  0  0  0  0  0  0  0  0
   10.1049  -15.9786   22.8676 C   0  0  0  0  0  0  0  0  0  0  0  0
   10.9796  -15.1122   22.9912 O   0  0  0  0  0  0  0  0  0  0  0  0
    9.1574  -16.0893   23.9086 N   0  0  0  0  0  0  0  0  0  0  0  0
    9.1270  -15.2449   25.0836 C   0  0  1  0  0  0  0  0  0  0  0  0
    7.9531  -14.3121   24.9879 C   0  0  0  0  0  0  0  0  0  0  0  0
    7.7969  -13.3758   26.1234 C   0  0  0  0  0  0  0  0  0  0  0  0
    6.5756  -12.5143   25.8985 C   0  0  0  0  0  0  0  0  0  0  0  0
    6.3943  -11.5238   27.0543 C   0  0  0  0  0  0  0  0  0  0  0  0
    5.1566  -10.7931   26.8969 N   0  0  0  0  0  0  0  0  0  0  0  0
    9.1836  -16.0022   26.3398 C   0  0  0  0  0  0  0  0  0  0  0  0
    9.4920  -15.3969   27.5501 O   0  0  0  0  0  0  0  0  0  0  0  0
    8.9584  -17.2565   26.4250 O   0  0  0  0  0  0  0  0  0  0  0  0
  2  1  1  0
  3  2  2  0
  4  2  1  0
  5  6  1  6
  5  4  1  0
  7  5  1  0
  8  7  2  0
  9 10  1  0
 10 11  2  0
 10 12  1  0
 12 13  1  0
 14 13  1  6
 14 15  1  0
 15  7  1  0
 16 18  1  0
 16 14  1  0
 17 16  2  0
 19 18  1  0
 19 25  1  0
 19 20  1  1
 21 20  1  0
 22 21  1  0
 23 24  1  0
 23 22  1  0
 25 26  1  0
 27 25  2  0
M  END
$$$$
