NQK.pdb
     RDKit          3D

 27 26  0  0  1  0  0  0  0  0999 V2000
   12.8560  -15.9490   14.8647 N   0  0  0  0  0  0  0  0  0  0  0  0
   11.4829  -16.2094   15.0487 C   0  0  0  0  0  0  0  0  0  0  0  0
   10.6748  -15.9095   14.1031 O   0  0  0  0  0  0  0  0  0  0  0  0
   11.0189  -16.8166   16.3185 C   0  0  0  0  0  0  0  0  0  0  0  0
   12.0957  -16.8913   17.3483 C   0  0  2  0  0  0  0  0  0  0  0  0
   12.0924  -18.1161   18.1007 N   0  0  0  0  0  0  0  0  0  0  0  0
   12.0921  -15.7217   18.2619 C   0  0  0  0  0  0  0  0  0  0  0  0
   13.1647  -15.0792   18.4947 O   0  0  0  0  0  0  0  0  0  0  0  0
    6.9810  -12.7079   19.8697 N   0  0  0  0  0  0  0  0  0  0  0  0
    7.5414  -12.9080   18.5835 C   0  0  0  0  0  0  0  0  0  0  0  0
    6.8301  -12.6639   17.5810 O   0  0  0  0  0  0  0  0  0  0  0  0
    8.9597  -13.4024   18.4660 C   0  0  0  0  0  0  0  0  0  0  0  0
    9.5318  -13.5869   19.8288 C   0  0  0  0  0  0  0  0  0  0  0  0
   10.9203  -14.1572   19.8788 C   0  0  2  0  0  0  0  0  0  0  0  0
   10.9213  -15.2646   18.9124 N   0  0  0  0  0  0  0  0  0  0  0  0
   11.1790  -14.6793   21.2474 C   0  0  0  0  0  0  0  0  0  0  0  0
   11.2406  -13.8930   22.2008 O   0  0  0  0  0  0  0  0  0  0  0  0
   11.3630  -16.0501   21.5312 N   0  0  0  0  0  0  0  0  0  0  0  0
   11.6253  -16.5872   22.8492 C   0  0  1  0  0  0  0  0  0  0  0  0
   11.0725  -17.9818   22.9304 C   0  0  0  0  0  0  0  0  0  0  0  0
   11.3042  -18.6787   24.2153 C   0  0  0  0  0  0  0  0  0  0  0  0
   10.7568  -20.0848   24.1290 C   0  0  0  0  0  0  0  0  0  0  0  0
   10.9503  -20.8213   25.4593 C   0  0  0  0  0  0  0  0  0  0  0  0
   10.5547  -22.2057   25.3264 N   0  0  0  0  0  0  0  0  0  0  0  0
   13.0351  -16.4826   23.2446 C   0  0  0  0  0  0  0  0  0  0  0  0
   13.4255  -16.4586   24.5763 O   0  0  0  0  0  0  0  0  0  0  0  0
   14.0029  -16.4066   22.4146 O   0  0  0  0  0  0  0  0  0  0  0  0
  2  1  1  0
  3  2  2  0
  4  2  1  0
  5  6  1  1
  5  4  1  0
  7  5  1  0
  8  7  2  0
  9 10  1  0
 10 11  2  0
 10 12  1  0
 12 13  1  0
 14 13  1  1
 14 15  1  0
 15  7  1  0
 16 18  1  0
 16 14  1  0
 17 16  2  0
 19 18  1  0
 19 25  1  0
 19 20  1  6
 21 20  1  0
 22 21  1  0
 23 24  1  0
 23 22  1  0
 25 26  1  0
 27 25  2  0
M  END
$$$$
