NQK.pdb
     RDKit          3D

 27 26  0  0  1  0  0  0  0  0999 V2000
   13.2536  -15.8154   14.3552 N   0  0  0  0  0  0  0  0  0  0  0  0
   13.6078  -15.9435   15.7136 C   0  0  0  0  0  0  0  0  0  0  0  0
   14.7519  -16.4398   15.9996 O   0  0  0  0  0  0  0  0  0  0  0  0
   12.6554  -15.5047   16.7608 C   0  0  0  0  0  0  0  0  0  0  0  0
   13.1948  -15.6819   18.1404 C   0  0  2  0  0  0  0  0  0  0  0  0
   13.1000  -17.0302   18.6296 N   0  0  0  0  0  0  0  0  0  0  0  0
   12.5950  -14.7343   19.1125 C   0  0  0  0  0  0  0  0  0  0  0  0
   13.2955  -13.8068   19.6286 O   0  0  0  0  0  0  0  0  0  0  0  0
    6.6634  -13.3261   19.1638 N   0  0  0  0  0  0  0  0  0  0  0  0
    7.6197  -13.4033   18.1209 C   0  0  0  0  0  0  0  0  0  0  0  0
    7.2142  -13.3375   16.9369 O   0  0  0  0  0  0  0  0  0  0  0  0
    9.0775  -13.5601   18.4674 C   0  0  0  0  0  0  0  0  0  0  0  0
    9.2255  -13.6491   19.9468 C   0  0  0  0  0  0  0  0  0  0  0  0
   10.6263  -13.8540   20.4484 C   0  0  2  0  0  0  0  0  0  0  0  0
   11.2394  -14.8071   19.5126 N   0  0  0  0  0  0  0  0  0  0  0  0
   10.5694  -14.4476   21.8110 C   0  0  0  0  0  0  0  0  0  0  0  0
    9.5320  -14.3498   22.4783 O   0  0  0  0  0  0  0  0  0  0  0  0
   11.6531  -15.1322   22.4032 N   0  0  0  0  0  0  0  0  0  0  0  0
   11.5216  -16.2888   23.2631 C   0  0  1  0  0  0  0  0  0  0  0  0
   10.7033  -17.3338   22.5593 C   0  0  0  0  0  0  0  0  0  0  0  0
   10.5594  -18.6164   23.2836 C   0  0  0  0  0  0  0  0  0  0  0  0
    9.6857  -19.5512   22.4793 C   0  0  0  0  0  0  0  0  0  0  0  0
    9.4811  -20.8741   23.2261 C   0  0  0  0  0  0  0  0  0  0  0  0
    8.7838  -21.8207   22.3843 N   0  0  0  0  0  0  0  0  0  0  0  0
   12.8090  -16.7820   23.7673 C   0  0  0  0  0  0  0  0  0  0  0  0
   13.1013  -16.8210   25.1236 O   0  0  0  0  0  0  0  0  0  0  0  0
   13.7504  -17.2087   23.0171 O   0  0  0  0  0  0  0  0  0  0  0  0
  2  1  1  0
  3  2  2  0
  4  2  1  0
  5  6  1  1
  5  4  1  0
  7  5  1  0
  8  7  2  0
  9 10  1  0
 10 11  2  0
 10 12  1  0
 12 13  1  0
 14 13  1  6
 14 15  1  0
 15  7  1  0
 16 18  1  0
 16 14  1  0
 17 16  2  0
 19 18  1  0
 19 25  1  0
 19 20  1  6
 21 20  1  0
 22 21  1  0
 23 24  1  0
 23 22  1  0
 25 26  1  0
 27 25  2  0
M  END
$$$$
