FSE.pdb
     RDKit          3D

 27 27  0  0  1  0  0  0  0  0999 V2000
   24.6046  -10.5309  -15.8908 N   0  0  0  0  0  0  0  0  0  0  0  0
   23.6918   -9.6529  -16.5889 C   0  0  1  0  0  0  0  0  0  0  0  0
   22.4766  -10.4411  -16.9691 C   0  0  0  0  0  0  0  0  0  0  0  0
   22.8375  -11.3995  -18.0414 C   0  0  0  0  0  0  0  0  0  0  0  0
   23.3825  -10.9834  -19.2415 C   0  0  0  0  0  0  0  0  0  0  0  0
   23.7206  -11.8899  -20.2402 C   0  0  0  0  0  0  0  0  0  0  0  0
   23.5190  -13.2276  -20.0545 C   0  0  0  0  0  0  0  0  0  0  0  0
   22.9695  -13.6337  -18.8414 C   0  0  0  0  0  0  0  0  0  0  0  0
   22.6326  -12.7552  -17.8520 C   0  0  0  0  0  0  0  0  0  0  0  0
   23.3455   -8.4466  -15.7704 C   0  0  0  0  0  0  0  0  0  0  0  0
   23.2419   -8.5264  -14.5208 O   0  0  0  0  0  0  0  0  0  0  0  0
   24.8037   -4.6909  -16.2620 O   0  0  0  0  0  0  0  0  0  0  0  0
   24.0739   -5.2135  -15.2180 C   0  0  0  0  0  0  0  0  0  0  0  0
   22.8491   -5.9533  -15.6517 C   0  0  2  0  0  0  0  0  0  0  0  0
   23.1195   -7.1651  -16.3599 N   0  0  0  0  0  0  0  0  0  0  0  0
   21.8957   -5.0498  -16.3488 C   0  0  0  0  0  0  0  0  0  0  0  0
   22.1207   -4.6866  -17.5191 O   0  0  0  0  0  0  0  0  0  0  0  0
   20.7245   -4.5869  -15.7058 N   0  0  0  0  0  0  0  0  0  0  0  0
   19.7469   -3.6949  -16.3444 C   0  0  1  0  0  0  0  0  0  0  0  0
   18.6071   -4.5459  -16.7446 C   0  0  0  0  0  0  0  0  0  0  0  0
   17.9314   -5.3919  -15.7472 C   0  0  0  0  0  0  0  0  0  0  0  0
   16.6955   -6.0620  -16.1527 C   0  0  0  0  0  0  0  0  0  0  0  0
   16.6424   -7.3114  -16.2911 O   0  0  0  0  0  0  0  0  0  0  0  0
   19.4886   -2.5722  -15.4888 C   0  0  0  0  0  0  0  0  0  0  0  0
   20.1952   -2.3926  -14.4396 O   0  0  0  0  0  0  0  0  0  0  0  0
   15.5450   -5.3249  -16.3948 O   0  0  0  0  0  0  0  0  0  0  0  0
   18.4935   -1.6112  -15.7173 O   0  0  0  0  0  0  0  0  0  0  0  0
  2 10  1  0
  2  1  1  1
  3  2  1  0
  4  3  1  0
  5  4  2  0
  6  5  1  0
  7  8  1  0
  7  6  2  0
  8  9  2  0
  9  4  1  0
 10 11  2  0
 13 12  1  0
 14 13  1  6
 15 14  1  0
 15 10  1  0
 16 17  2  0
 16 14  1  0
 18 16  1  0
 19 18  1  0
 20 21  1  0
 19 20  1  1
 22 21  1  0
 23 22  2  0
 24 19  1  0
 24 27  1  0
 25 24  2  0
 26 22  1  0
M  END
$$$$
