FSE.pdb
     RDKit          3D

 27 27  0  0  1  0  0  0  0  0999 V2000
   29.3396  -21.7175   -9.8578 N   0  0  0  0  0  0  0  0  0  0  0  0
   28.1467  -21.1521   -9.2674 C   0  0  1  0  0  0  0  0  0  0  0  0
   28.4833  -19.7953   -8.7304 C   0  0  0  0  0  0  0  0  0  0  0  0
   28.4622  -19.8427   -7.2484 C   0  0  0  0  0  0  0  0  0  0  0  0
   27.3370  -19.5024   -6.5216 C   0  0  0  0  0  0  0  0  0  0  0  0
   27.3257  -19.5527   -5.1321 C   0  0  0  0  0  0  0  0  0  0  0  0
   28.4402  -19.9443   -4.4470 C   0  0  0  0  0  0  0  0  0  0  0  0
   29.5669  -20.2844   -5.1908 C   0  0  0  0  0  0  0  0  0  0  0  0
   29.5925  -20.2397   -6.5552 C   0  0  0  0  0  0  0  0  0  0  0  0
   27.0120  -21.1037  -10.2448 C   0  0  0  0  0  0  0  0  0  0  0  0
   27.2181  -20.8386  -11.4555 O   0  0  0  0  0  0  0  0  0  0  0  0
   22.7947  -21.0987   -9.1406 O   0  0  0  0  0  0  0  0  0  0  0  0
   23.2964  -21.9752  -10.0764 C   0  0  0  0  0  0  0  0  0  0  0  0
   24.5467  -21.4946  -10.7408 C   0  0  2  0  0  0  0  0  0  0  0  0
   25.6602  -21.3530   -9.8559 N   0  0  0  0  0  0  0  0  0  0  0  0
   24.2830  -20.2905  -11.5725 C   0  0  0  0  0  0  0  0  0  0  0  0
   23.9717  -19.2126  -11.0307 O   0  0  0  0  0  0  0  0  0  0  0  0
   24.3783  -20.3409  -12.9823 N   0  0  0  0  0  0  0  0  0  0  0  0
   23.9951  -19.2278  -13.8618 C   0  0  1  0  0  0  0  0  0  0  0  0
   24.7822  -19.3883  -15.1021 C   0  0  0  0  0  0  0  0  0  0  0  0
   24.6463  -18.4107  -16.1944 C   0  0  0  0  0  0  0  0  0  0  0  0
   25.4510  -18.6230  -17.3978 C   0  0  0  0  0  0  0  0  0  0  0  0
   26.1811  -19.6394  -17.5272 O   0  0  0  0  0  0  0  0  0  0  0  0
   22.5653  -19.1681  -13.9678 C   0  0  0  0  0  0  0  0  0  0  0  0
   21.9877  -18.0517  -14.1968 O   0  0  0  0  0  0  0  0  0  0  0  0
   25.4243  -17.6975  -18.4315 O   0  0  0  0  0  0  0  0  0  0  0  0
   21.7124  -20.2742  -13.8452 O   0  0  0  0  0  0  0  0  0  0  0  0
  2 10  1  0
  2  1  1  6
  3  2  1  0
  4  3  1  0
  5  4  2  0
  6  5  1  0
  7  8  1  0
  7  6  2  0
  8  9  2  0
  9  4  1  0
 10 11  2  0
 13 12  1  0
 14 13  1  1
 15 14  1  0
 15 10  1  0
 16 17  2  0
 16 14  1  0
 18 16  1  0
 19 18  1  0
 20 21  1  0
 19 20  1  6
 22 21  1  0
 23 22  2  0
 24 19  1  0
 24 27  1  0
 25 24  2  0
 26 22  1  0
M  END
$$$$
