FSE.pdb
     RDKit          3D

 27 27  0  0  1  0  0  0  0  0999 V2000
   23.1326  -12.4559  -17.0277 N   0  0  0  0  0  0  0  0  0  0  0  0
   22.4181  -11.5205  -17.8679 C   0  0  1  0  0  0  0  0  0  0  0  0
   21.1216  -12.1483  -18.2769 C   0  0  0  0  0  0  0  0  0  0  0  0
   21.4035  -13.3354  -19.1196 C   0  0  0  0  0  0  0  0  0  0  0  0
   21.3708  -14.6194  -18.6089 C   0  0  0  0  0  0  0  0  0  0  0  0
   21.6337  -15.7269  -19.4076 C   0  0  0  0  0  0  0  0  0  0  0  0
   21.9336  -15.5678  -20.7302 C   0  0  0  0  0  0  0  0  0  0  0  0
   21.9632  -14.2696  -21.2322 C   0  0  0  0  0  0  0  0  0  0  0  0
   21.7074  -13.1730  -20.4601 C   0  0  0  0  0  0  0  0  0  0  0  0
   22.2133  -10.2032  -17.1839 C   0  0  0  0  0  0  0  0  0  0  0  0
   21.6309  -10.1404  -16.0723 O   0  0  0  0  0  0  0  0  0  0  0  0
   24.5844   -6.8414  -17.9004 O   0  0  0  0  0  0  0  0  0  0  0  0
   23.2316   -6.5872  -17.8682 C   0  0  0  0  0  0  0  0  0  0  0  0
   22.4323   -7.6679  -17.2134 C   0  0  2  0  0  0  0  0  0  0  0  0
   22.6627   -8.9718  -17.7517 N   0  0  0  0  0  0  0  0  0  0  0  0
   20.9946   -7.2968  -17.1318 C   0  0  0  0  0  0  0  0  0  0  0  0
   20.1594   -7.8687  -17.8580 O   0  0  0  0  0  0  0  0  0  0  0  0
   20.5476   -6.2968  -16.2377 N   0  0  0  0  0  0  0  0  0  0  0  0
   19.1427   -5.8823  -16.1205 C   0  0  1  0  0  0  0  0  0  0  0  0
   18.3677   -7.1116  -15.8532 C   0  0  0  0  0  0  0  0  0  0  0  0
   16.9427   -7.0227  -15.4945 C   0  0  0  0  0  0  0  0  0  0  0  0
   16.2201   -8.2756  -15.2733 C   0  0  0  0  0  0  0  0  0  0  0  0
   15.8125   -8.9758  -16.2357 O   0  0  0  0  0  0  0  0  0  0  0  0
   19.0371   -4.7967  -15.1880 C   0  0  0  0  0  0  0  0  0  0  0  0
   18.0775   -3.9592  -15.2884 O   0  0  0  0  0  0  0  0  0  0  0  0
   15.9675   -8.7211  -13.9835 O   0  0  0  0  0  0  0  0  0  0  0  0
   19.9266   -4.5702  -14.1280 O   0  0  0  0  0  0  0  0  0  0  0  0
  2 10  1  0
  2  1  1  1
  3  2  1  0
  4  3  1  0
  5  4  2  0
  6  5  1  0
  7  8  1  0
  7  6  2  0
  8  9  2  0
  9  4  1  0
 10 11  2  0
 13 12  1  0
 14 13  1  6
 15 14  1  0
 15 10  1  0
 16 17  2  0
 16 14  1  0
 18 16  1  0
 19 18  1  0
 20 21  1  0
 19 20  1  1
 22 21  1  0
 23 22  2  0
 24 19  1  0
 24 27  1  0
 25 24  2  0
 26 22  1  0
M  END
$$$$
