FSE.pdb
     RDKit          3D

 27 27  0  0  1  0  0  0  0  0999 V2000
   18.6454   -9.6777  -13.5354 N   0  0  0  0  0  0  0  0  0  0  0  0
   18.9417   -8.4747  -12.7894 C   0  0  1  0  0  0  0  0  0  0  0  0
   19.9238   -7.6620  -13.5751 C   0  0  0  0  0  0  0  0  0  0  0  0
   21.1590   -8.4574  -13.7762 C   0  0  0  0  0  0  0  0  0  0  0  0
   21.5597   -8.8822  -15.0289 C   0  0  0  0  0  0  0  0  0  0  0  0
   22.7212   -9.6253  -15.2081 C   0  0  0  0  0  0  0  0  0  0  0  0
   23.5008   -9.9556  -14.1367 C   0  0  0  0  0  0  0  0  0  0  0  0
   23.0862   -9.5217  -12.8804 C   0  0  0  0  0  0  0  0  0  0  0  0
   21.9483   -8.7916  -12.6895 C   0  0  0  0  0  0  0  0  0  0  0  0
   17.7002   -7.6995  -12.4688 C   0  0  0  0  0  0  0  0  0  0  0  0
   16.5999   -8.0029  -12.9942 O   0  0  0  0  0  0  0  0  0  0  0  0
   16.5029   -6.5630   -8.9215 O   0  0  0  0  0  0  0  0  0  0  0  0
   15.7707   -6.3629  -10.0703 C   0  0  0  0  0  0  0  0  0  0  0  0
   16.5703   -5.8029  -11.2028 C   0  0  2  0  0  0  0  0  0  0  0  0
   17.7046   -6.5942  -11.5638 N   0  0  0  0  0  0  0  0  0  0  0  0
   16.8861   -4.3673  -10.9777 C   0  0  0  0  0  0  0  0  0  0  0  0
   18.0509   -4.0188  -10.7057 O   0  0  0  0  0  0  0  0  0  0  0  0
   15.8821   -3.3756  -11.0661 N   0  0  0  0  0  0  0  0  0  0  0  0
   16.1686   -1.9407  -11.2015 C   0  0  1  0  0  0  0  0  0  0  0  0
   17.0894   -1.8073  -12.3495 C   0  0  0  0  0  0  0  0  0  0  0  0
   17.5435   -0.4750  -12.7807 C   0  0  0  0  0  0  0  0  0  0  0  0
   18.4373   -0.4052  -13.9371 C   0  0  0  0  0  0  0  0  0  0  0  0
   18.7708   -1.4394  -14.5711 O   0  0  0  0  0  0  0  0  0  0  0  0
   14.9373   -1.2043  -11.2293 C   0  0  0  0  0  0  0  0  0  0  0  0
   13.9270   -1.6722  -11.8560 O   0  0  0  0  0  0  0  0  0  0  0  0
   18.9399    0.8166  -14.3621 O   0  0  0  0  0  0  0  0  0  0  0  0
   14.7352    0.0302  -10.5960 O   0  0  0  0  0  0  0  0  0  0  0  0
  2 10  1  0
  2  1  1  6
  3  2  1  0
  4  3  1  0
  5  4  2  0
  6  5  1  0
  7  8  1  0
  7  6  2  0
  8  9  2  0
  9  4  1  0
 10 11  2  0
 13 12  1  0
 14 13  1  1
 15 14  1  0
 15 10  1  0
 16 17  2  0
 16 14  1  0
 18 16  1  0
 19 18  1  0
 20 21  1  0
 19 20  1  6
 22 21  1  0
 23 22  2  0
 24 19  1  0
 24 27  1  0
 25 24  2  0
 26 22  1  0
M  END
$$$$
