FSE.pdb
     RDKit          3D

 27 27  0  0  1  0  0  0  0  0999 V2000
   19.3688  -11.5215  -19.1178 N   0  0  0  0  0  0  0  0  0  0  0  0
   20.7222  -11.0809  -18.8616 C   0  0  1  0  0  0  0  0  0  0  0  0
   21.1850  -10.2717  -20.0336 C   0  0  0  0  0  0  0  0  0  0  0  0
   21.2759  -11.1519  -21.2236 C   0  0  0  0  0  0  0  0  0  0  0  0
   22.3592  -11.9831  -21.4376 C   0  0  0  0  0  0  0  0  0  0  0  0
   22.4343  -12.8072  -22.5550 C   0  0  0  0  0  0  0  0  0  0  0  0
   21.4267  -12.8132  -23.4766 C   0  0  0  0  0  0  0  0  0  0  0  0
   20.3412  -11.9715  -23.2494 C   0  0  0  0  0  0  0  0  0  0  0  0
   20.2540  -11.1570  -22.1570 C   0  0  0  0  0  0  0  0  0  0  0  0
   20.8243  -10.3173  -17.5764 C   0  0  0  0  0  0  0  0  0  0  0  0
   19.9433   -9.4815  -17.2542 O   0  0  0  0  0  0  0  0  0  0  0  0
   24.3994  -10.4181  -15.1032 O   0  0  0  0  0  0  0  0  0  0  0  0
   23.1407  -10.3927  -14.5456 C   0  0  0  0  0  0  0  0  0  0  0  0
   22.1001   -9.7947  -15.4373 C   0  0  2  0  0  0  0  0  0  0  0  0
   21.9110  -10.4985  -16.6669 N   0  0  0  0  0  0  0  0  0  0  0  0
   22.3161   -8.3334  -15.6083 C   0  0  0  0  0  0  0  0  0  0  0  0
   22.9397   -7.9054  -16.5982 O   0  0  0  0  0  0  0  0  0  0  0  0
   21.8238   -7.4062  -14.6610 N   0  0  0  0  0  0  0  0  0  0  0  0
   22.0001   -5.9523  -14.7813 C   0  0  1  0  0  0  0  0  0  0  0  0
   20.7903   -5.4416  -15.4588 C   0  0  0  0  0  0  0  0  0  0  0  0
   20.6014   -3.9929  -15.6398 C   0  0  0  0  0  0  0  0  0  0  0  0
   19.3378   -3.5419  -16.2234 C   0  0  0  0  0  0  0  0  0  0  0  0
   19.0677   -2.3183  -16.3362 O   0  0  0  0  0  0  0  0  0  0  0  0
   22.3457   -5.4016  -13.5020 C   0  0  0  0  0  0  0  0  0  0  0  0
   22.1085   -6.0646  -12.4359 O   0  0  0  0  0  0  0  0  0  0  0  0
   18.4021   -4.4649  -16.6690 O   0  0  0  0  0  0  0  0  0  0  0  0
   22.9533   -4.1523  -13.3125 O   0  0  0  0  0  0  0  0  0  0  0  0
  2 10  1  0
  2  1  1  6
  3  2  1  0
  4  3  1  0
  5  4  2  0
  6  5  1  0
  7  8  1  0
  7  6  2  0
  8  9  2  0
  9  4  1  0
 10 11  2  0
 13 12  1  0
 14 13  1  6
 15 14  1  0
 15 10  1  0
 16 17  2  0
 16 14  1  0
 18 16  1  0
 19 18  1  0
 20 21  1  0
 19 20  1  1
 22 21  1  0
 23 22  2  0
 24 19  1  0
 24 27  1  0
 25 24  2  0
 26 22  1  0
M  END
$$$$
