FSE.pdb
     RDKit          3D

 27 27  0  0  1  0  0  0  0  0999 V2000
   24.5264  -10.4918  -17.6475 N   0  0  0  0  0  0  0  0  0  0  0  0
   24.4612   -9.8070  -16.3754 C   0  0  1  0  0  0  0  0  0  0  0  0
   25.7675   -9.1117  -16.1460 C   0  0  0  0  0  0  0  0  0  0  0  0
   26.8578  -10.1167  -16.1500 C   0  0  0  0  0  0  0  0  0  0  0  0
   26.8216  -11.2384  -15.3432 C   0  0  0  0  0  0  0  0  0  0  0  0
   27.8474  -12.1770  -15.3559 C   0  0  0  0  0  0  0  0  0  0  0  0
   28.9261  -12.0087  -16.1760 C   0  0  0  0  0  0  0  0  0  0  0  0
   28.9505  -10.8749  -16.9836 C   0  0  0  0  0  0  0  0  0  0  0  0
   27.9507   -9.9450  -16.9817 C   0  0  0  0  0  0  0  0  0  0  0  0
   23.3020   -8.8595  -16.3130 C   0  0  0  0  0  0  0  0  0  0  0  0
   22.9112   -8.2542  -17.3422 O   0  0  0  0  0  0  0  0  0  0  0  0
   21.3652   -7.8265  -12.5545 O   0  0  0  0  0  0  0  0  0  0  0  0
   20.6567   -7.9845  -13.7244 C   0  0  0  0  0  0  0  0  0  0  0  0
   21.4665   -7.7341  -14.9562 C   0  0  2  0  0  0  0  0  0  0  0  0
   22.5938   -8.6011  -15.0995 N   0  0  0  0  0  0  0  0  0  0  0  0
   21.7963   -6.2910  -15.0968 C   0  0  0  0  0  0  0  0  0  0  0  0
   22.9481   -5.8861  -14.8485 O   0  0  0  0  0  0  0  0  0  0  0  0
   20.8205   -5.3553  -15.5110 N   0  0  0  0  0  0  0  0  0  0  0  0
   21.0781   -3.9136  -15.6311 C   0  0  1  0  0  0  0  0  0  0  0  0
   19.9675   -3.3584  -16.4323 C   0  0  0  0  0  0  0  0  0  0  0  0
   19.9180   -1.9167  -16.7261 C   0  0  0  0  0  0  0  0  0  0  0  0
   18.7983   -1.4272  -17.5308 C   0  0  0  0  0  0  0  0  0  0  0  0
   18.6521   -0.2014  -17.7734 O   0  0  0  0  0  0  0  0  0  0  0  0
   21.3215   -3.3579  -14.3307 C   0  0  0  0  0  0  0  0  0  0  0  0
   20.7131   -3.8287  -13.3106 O   0  0  0  0  0  0  0  0  0  0  0  0
   17.8655   -2.3150  -18.0481 O   0  0  0  0  0  0  0  0  0  0  0  0
   22.2112   -2.3061  -14.0698 O   0  0  0  0  0  0  0  0  0  0  0  0
  2 10  1  0
  2  1  1  6
  3  2  1  0
  4  3  1  0
  5  4  2  0
  6  5  1  0
  7  8  1  0
  7  6  2  0
  8  9  2  0
  9  4  1  0
 10 11  2  0
 13 12  1  0
 14 13  1  1
 15 14  1  0
 15 10  1  0
 16 17  2  0
 16 14  1  0
 18 16  1  0
 19 18  1  0
 20 21  1  0
 19 20  1  1
 22 21  1  0
 23 22  2  0
 24 19  1  0
 24 27  1  0
 25 24  2  0
 26 22  1  0
M  END
$$$$
