FSE.pdb
     RDKit          3D

 27 27  0  0  1  0  0  0  0  0999 V2000
   19.3075   -8.4816  -14.3871 N   0  0  0  0  0  0  0  0  0  0  0  0
   19.4788   -7.9451  -13.0551 C   0  0  1  0  0  0  0  0  0  0  0  0
   20.8519   -7.3556  -12.9566 C   0  0  0  0  0  0  0  0  0  0  0  0
   21.8387   -8.3406  -13.4612 C   0  0  0  0  0  0  0  0  0  0  0  0
   22.5536   -8.1294  -14.6251 C   0  0  0  0  0  0  0  0  0  0  0  0
   23.4792   -9.0576  -15.0890 C   0  0  0  0  0  0  0  0  0  0  0  0
   23.7046  -10.2124  -14.3960 C   0  0  0  0  0  0  0  0  0  0  0  0
   22.9781  -10.4131  -13.2254 C   0  0  0  0  0  0  0  0  0  0  0  0
   22.0662   -9.5108  -12.7579 C   0  0  0  0  0  0  0  0  0  0  0  0
   18.4135   -6.9474  -12.7165 C   0  0  0  0  0  0  0  0  0  0  0  0
   17.9713   -6.1588  -13.5890 O   0  0  0  0  0  0  0  0  0  0  0  0
   17.3066   -6.1916   -8.6355 O   0  0  0  0  0  0  0  0  0  0  0  0
   16.3376   -6.1345   -9.6120 C   0  0  0  0  0  0  0  0  0  0  0  0
   16.8801   -5.8882  -10.9834 C   0  0  2  0  0  0  0  0  0  0  0  0
   17.8553   -6.8441  -11.4056 N   0  0  0  0  0  0  0  0  0  0  0  0
   17.3156   -4.4752  -11.1419 C   0  0  0  0  0  0  0  0  0  0  0  0
   18.4920   -4.1518  -10.8896 O   0  0  0  0  0  0  0  0  0  0  0  0
   16.4139   -3.4771  -11.5778 N   0  0  0  0  0  0  0  0  0  0  0  0
   16.8060   -2.0836  -11.8300 C   0  0  1  0  0  0  0  0  0  0  0  0
   17.0243   -1.9704  -13.2871 C   0  0  0  0  0  0  0  0  0  0  0  0
   15.8760   -1.9752  -14.2082 C   0  0  0  0  0  0  0  0  0  0  0  0
   16.1476   -1.7670  -15.6308 C   0  0  0  0  0  0  0  0  0  0  0  0
   17.3096   -1.5245  -16.0476 O   0  0  0  0  0  0  0  0  0  0  0  0
   15.8595   -1.1981  -11.2143 C   0  0  0  0  0  0  0  0  0  0  0  0
   16.1111    0.0521  -11.1363 O   0  0  0  0  0  0  0  0  0  0  0  0
   15.1176   -1.8341  -16.5585 O   0  0  0  0  0  0  0  0  0  0  0  0
   14.6286   -1.6000  -10.6764 O   0  0  0  0  0  0  0  0  0  0  0  0
  2 10  1  0
  2  1  1  6
  3  2  1  0
  4  3  1  0
  5  4  2  0
  6  5  1  0
  7  8  1  0
  7  6  2  0
  8  9  2  0
  9  4  1  0
 10 11  2  0
 13 12  1  0
 14 13  1  1
 15 14  1  0
 15 10  1  0
 16 17  2  0
 16 14  1  0
 18 16  1  0
 19 18  1  0
 20 21  1  0
 19 20  1  6
 22 21  1  0
 23 22  2  0
 24 19  1  0
 24 27  1  0
 25 24  2  0
 26 22  1  0
M  END
$$$$
