FSE.pdb
     RDKit          3D

 27 27  0  0  1  0  0  0  0  0999 V2000
   22.1526  -20.8338  -14.9116 N   0  0  0  0  0  0  0  0  0  0  0  0
   21.1884  -19.8457  -15.3424 C   0  0  1  0  0  0  0  0  0  0  0  0
   19.9493  -20.0039  -14.5166 C   0  0  0  0  0  0  0  0  0  0  0  0
   19.2391  -21.2347  -14.9406 C   0  0  0  0  0  0  0  0  0  0  0  0
   18.4692  -21.2765  -16.0877 C   0  0  0  0  0  0  0  0  0  0  0  0
   17.8092  -22.4362  -16.4790 C   0  0  0  0  0  0  0  0  0  0  0  0
   17.9088  -23.5729  -15.7290 C   0  0  0  0  0  0  0  0  0  0  0  0
   18.6872  -23.5176  -14.5761 C   0  0  0  0  0  0  0  0  0  0  0  0
   19.3407  -22.3862  -14.1796 C   0  0  0  0  0  0  0  0  0  0  0  0
   21.7431  -18.4561  -15.2624 C   0  0  0  0  0  0  0  0  0  0  0  0
   22.5128  -18.1246  -14.3263 O   0  0  0  0  0  0  0  0  0  0  0  0
   23.4095  -16.5165  -18.2121 O   0  0  0  0  0  0  0  0  0  0  0  0
   23.3701  -16.1067  -16.8983 C   0  0  0  0  0  0  0  0  0  0  0  0
   22.0016  -16.1455  -16.2973 C   0  0  2  0  0  0  0  0  0  0  0  0
   21.4301  -17.4539  -16.2312 N   0  0  0  0  0  0  0  0  0  0  0  0
   21.1120  -15.1320  -16.9239 C   0  0  0  0  0  0  0  0  0  0  0  0
   20.3692  -15.4528  -17.8713 O   0  0  0  0  0  0  0  0  0  0  0  0
   21.0893  -13.7951  -16.4638 N   0  0  0  0  0  0  0  0  0  0  0  0
   20.2525  -12.7454  -17.0615 C   0  0  1  0  0  0  0  0  0  0  0  0
   20.0500  -11.7267  -16.0105 C   0  0  0  0  0  0  0  0  0  0  0  0
   19.2013  -10.5530  -16.2736 C   0  0  0  0  0  0  0  0  0  0  0  0
   17.8439  -10.5621  -15.7275 C   0  0  0  0  0  0  0  0  0  0  0  0
   17.6124  -10.9513  -14.5537 O   0  0  0  0  0  0  0  0  0  0  0  0
   20.8224  -12.3284  -18.3107 C   0  0  0  0  0  0  0  0  0  0  0  0
   22.0816  -12.4267  -18.5031 O   0  0  0  0  0  0  0  0  0  0  0  0
   16.7737  -10.1367  -16.5017 O   0  0  0  0  0  0  0  0  0  0  0  0
   20.0870  -11.8091  -19.3857 O   0  0  0  0  0  0  0  0  0  0  0  0
  2 10  1  0
  2  1  1  1
  3  2  1  0
  4  3  1  0
  5  4  2  0
  6  5  1  0
  7  8  1  0
  7  6  2  0
  8  9  2  0
  9  4  1  0
 10 11  2  0
 13 12  1  0
 14 13  1  6
 15 14  1  0
 15 10  1  0
 16 17  2  0
 16 14  1  0
 18 16  1  0
 19 18  1  0
 20 21  1  0
 19 20  1  1
 22 21  1  0
 23 22  2  0
 24 19  1  0
 24 27  1  0
 25 24  2  0
 26 22  1  0
M  END
$$$$
