FSE.pdb
     RDKit          3D

 27 27  0  0  1  0  0  0  0  0999 V2000
   18.5447  -13.0595  -15.2454 N   0  0  0  0  0  0  0  0  0  0  0  0
   19.1282  -12.1615  -16.2172 C   0  0  1  0  0  0  0  0  0  0  0  0
   18.1992  -12.0644  -17.3877 C   0  0  0  0  0  0  0  0  0  0  0  0
   18.1088  -13.3905  -18.0449 C   0  0  0  0  0  0  0  0  0  0  0  0
   17.0662  -14.2623  -17.7930 C   0  0  0  0  0  0  0  0  0  0  0  0
   16.9883  -15.5027  -18.4164 C   0  0  0  0  0  0  0  0  0  0  0  0
   17.9523  -15.8913  -19.3021 C   0  0  0  0  0  0  0  0  0  0  0  0
   18.9970  -15.0042  -19.5471 C   0  0  0  0  0  0  0  0  0  0  0  0
   19.0866  -13.7833  -18.9424 C   0  0  0  0  0  0  0  0  0  0  0  0
   19.4267  -10.8183  -15.6240 C   0  0  0  0  0  0  0  0  0  0  0  0
   18.5605  -10.2073  -14.9494 O   0  0  0  0  0  0  0  0  0  0  0  0
   23.2443   -8.8343  -16.2934 O   0  0  0  0  0  0  0  0  0  0  0  0
   22.4590   -8.5824  -15.1909 C   0  0  0  0  0  0  0  0  0  0  0  0
   21.0025   -8.8303  -15.4210 C   0  0  2  0  0  0  0  0  0  0  0  0
   20.6909  -10.1749  -15.7925 N   0  0  0  0  0  0  0  0  0  0  0  0
   20.4212   -7.8058  -16.3286 C   0  0  0  0  0  0  0  0  0  0  0  0
   20.2857   -8.0511  -17.5426 O   0  0  0  0  0  0  0  0  0  0  0  0
   20.0135   -6.5432  -15.8398 N   0  0  0  0  0  0  0  0  0  0  0  0
   19.5195   -5.4604  -16.7016 C   0  0  1  0  0  0  0  0  0  0  0  0
   18.5678   -4.6799  -15.8839 C   0  0  0  0  0  0  0  0  0  0  0  0
   17.8814   -3.5131  -16.4623 C   0  0  0  0  0  0  0  0  0  0  0  0
   16.9998   -2.7420  -15.5854 C   0  0  0  0  0  0  0  0  0  0  0  0
   15.9649   -3.2521  -15.0837 O   0  0  0  0  0  0  0  0  0  0  0  0
   20.6302   -4.7714  -17.2937 C   0  0  0  0  0  0  0  0  0  0  0  0
   20.5480   -4.3389  -18.4931 O   0  0  0  0  0  0  0  0  0  0  0  0
   17.2910   -1.4185  -15.2863 O   0  0  0  0  0  0  0  0  0  0  0  0
   21.8445   -4.5134  -16.6417 O   0  0  0  0  0  0  0  0  0  0  0  0
  2 10  1  0
  2  1  1  1
  3  2  1  0
  4  3  1  0
  5  4  2  0
  6  5  1  0
  7  8  1  0
  7  6  2  0
  8  9  2  0
  9  4  1  0
 10 11  2  0
 13 12  1  0
 14 13  1  6
 15 14  1  0
 15 10  1  0
 16 17  2  0
 16 14  1  0
 18 16  1  0
 19 18  1  0
 20 21  1  0
 19 20  1  1
 22 21  1  0
 23 22  2  0
 24 19  1  0
 24 27  1  0
 25 24  2  0
 26 22  1  0
M  END
$$$$
