FSE.pdb
     RDKit          3D

 27 27  0  0  1  0  0  0  0  0999 V2000
   26.2994  -10.7823  -15.8285 N   0  0  0  0  0  0  0  0  0  0  0  0
   26.0893   -9.4658  -16.3889 C   0  0  1  0  0  0  0  0  0  0  0  0
   26.3717   -9.5276  -17.8582 C   0  0  0  0  0  0  0  0  0  0  0  0
   27.7982   -9.8771  -18.0625 C   0  0  0  0  0  0  0  0  0  0  0  0
   28.1885  -11.1236  -18.5144 C   0  0  0  0  0  0  0  0  0  0  0  0
   29.5286  -11.4413  -18.7058 C   0  0  0  0  0  0  0  0  0  0  0  0
   30.5002  -10.5170  -18.4480 C   0  0  0  0  0  0  0  0  0  0  0  0
   30.0939   -9.2654  -17.9933 C   0  0  0  0  0  0  0  0  0  0  0  0
   28.7821   -8.9394  -17.8008 C   0  0  0  0  0  0  0  0  0  0  0  0
   24.7106   -8.9535  -16.1030 C   0  0  0  0  0  0  0  0  0  0  0  0
   23.7369   -9.7430  -16.0176 O   0  0  0  0  0  0  0  0  0  0  0  0
   23.7680   -4.7142  -16.1784 O   0  0  0  0  0  0  0  0  0  0  0  0
   23.1916   -5.5557  -15.2535 C   0  0  0  0  0  0  0  0  0  0  0  0
   23.1506   -6.9865  -15.6859 C   0  0  2  0  0  0  0  0  0  0  0  0
   24.4379   -7.5637  -15.9155 N   0  0  0  0  0  0  0  0  0  0  0  0
   22.1961   -7.1797  -16.8097 C   0  0  0  0  0  0  0  0  0  0  0  0
   22.6196   -7.3095  -17.9741 O   0  0  0  0  0  0  0  0  0  0  0  0
   20.8007   -7.2200  -16.5846 N   0  0  0  0  0  0  0  0  0  0  0  0
   19.8115   -7.4124  -17.6540 C   0  0  1  0  0  0  0  0  0  0  0  0
   18.8011   -8.3501  -17.1217 C   0  0  0  0  0  0  0  0  0  0  0  0
   17.6401   -8.7290  -17.9436 C   0  0  0  0  0  0  0  0  0  0  0  0
   16.6062   -9.5531  -17.3169 C   0  0  0  0  0  0  0  0  0  0  0  0
   15.5829   -9.9162  -17.9525 O   0  0  0  0  0  0  0  0  0  0  0  0
   19.3667   -6.1353  -18.1340 C   0  0  0  0  0  0  0  0  0  0  0  0
   19.5127   -5.0939  -17.4085 O   0  0  0  0  0  0  0  0  0  0  0  0
   16.7355   -9.9552  -15.9950 O   0  0  0  0  0  0  0  0  0  0  0  0
   18.7690   -5.9204  -19.3841 O   0  0  0  0  0  0  0  0  0  0  0  0
  2 10  1  0
  2  1  1  6
  3  2  1  0
  4  3  1  0
  5  4  2  0
  6  5  1  0
  7  8  1  0
  7  6  2  0
  8  9  2  0
  9  4  1  0
 10 11  2  0
 13 12  1  0
 14 13  1  6
 15 14  1  0
 15 10  1  0
 16 17  2  0
 16 14  1  0
 18 16  1  0
 19 18  1  0
 20 21  1  0
 19 20  1  1
 22 21  1  0
 23 22  2  0
 24 19  1  0
 24 27  1  0
 25 24  2  0
 26 22  1  0
M  END
$$$$
