FSE.pdb
     RDKit          3D

 27 27  0  0  1  0  0  0  0  0999 V2000
   22.2669   -9.8937  -14.9213 N   0  0  0  0  0  0  0  0  0  0  0  0
   22.0365   -8.8441  -15.8890 C   0  0  1  0  0  0  0  0  0  0  0  0
   21.1229   -9.3734  -16.9510 C   0  0  0  0  0  0  0  0  0  0  0  0
   21.8612  -10.3588  -17.7772 C   0  0  0  0  0  0  0  0  0  0  0  0
   22.8592   -9.9769  -18.6539 C   0  0  0  0  0  0  0  0  0  0  0  0
   23.5482  -10.9085  -19.4225 C   0  0  0  0  0  0  0  0  0  0  0  0
   23.2499  -12.2376  -19.3265 C   0  0  0  0  0  0  0  0  0  0  0  0
   22.2429  -12.6093  -18.4400 C   0  0  0  0  0  0  0  0  0  0  0  0
   21.5580  -11.7057  -17.6791 C   0  0  0  0  0  0  0  0  0  0  0  0
   21.4920   -7.6050  -15.2462 C   0  0  0  0  0  0  0  0  0  0  0  0
   20.4221   -7.6398  -14.5884 O   0  0  0  0  0  0  0  0  0  0  0  0
   22.3129   -3.0013  -13.8228 O   0  0  0  0  0  0  0  0  0  0  0  0
   22.7717   -4.1634  -14.4013 C   0  0  0  0  0  0  0  0  0  0  0  0
   21.6826   -5.1065  -14.8014 C   0  0  2  0  0  0  0  0  0  0  0  0
   22.1515   -6.3418  -15.3467 N   0  0  0  0  0  0  0  0  0  0  0  0
   20.6659   -4.4243  -15.6454 C   0  0  0  0  0  0  0  0  0  0  0  0
   20.8229   -4.3547  -16.8793 O   0  0  0  0  0  0  0  0  0  0  0  0
   19.5102   -3.8451  -15.0726 N   0  0  0  0  0  0  0  0  0  0  0  0
   18.4790   -3.1488  -15.8543 C   0  0  1  0  0  0  0  0  0  0  0  0
   17.1890   -3.4442  -15.1969 C   0  0  0  0  0  0  0  0  0  0  0  0
   15.9340   -2.9292  -15.7687 C   0  0  0  0  0  0  0  0  0  0  0  0
   14.6848   -3.2939  -15.1000 C   0  0  0  0  0  0  0  0  0  0  0  0
   14.6820   -3.9788  -14.0447 O   0  0  0  0  0  0  0  0  0  0  0  0
   18.8533   -1.7746  -16.0291 C   0  0  0  0  0  0  0  0  0  0  0  0
   19.5611   -1.1874  -15.1423 O   0  0  0  0  0  0  0  0  0  0  0  0
   13.4651   -2.8869  -15.6221 O   0  0  0  0  0  0  0  0  0  0  0  0
   18.5028   -0.9902  -17.1373 O   0  0  0  0  0  0  0  0  0  0  0  0
  2 10  1  0
  2  1  1  1
  3  2  1  0
  4  3  1  0
  5  4  2  0
  6  5  1  0
  7  8  1  0
  7  6  2  0
  8  9  2  0
  9  4  1  0
 10 11  2  0
 13 12  1  0
 14 13  1  6
 15 14  1  0
 15 10  1  0
 16 17  2  0
 16 14  1  0
 18 16  1  0
 19 18  1  0
 20 21  1  0
 19 20  1  1
 22 21  1  0
 23 22  2  0
 24 19  1  0
 24 27  1  0
 25 24  2  0
 26 22  1  0
M  END
$$$$
