FSE.pdb
     RDKit          3D

 27 27  0  0  1  0  0  0  0  0999 V2000
   24.5746  -10.0804  -17.8731 N   0  0  0  0  0  0  0  0  0  0  0  0
   24.2963   -9.6487  -16.5213 C   0  0  1  0  0  0  0  0  0  0  0  0
   25.4696   -8.8606  -16.0264 C   0  0  0  0  0  0  0  0  0  0  0  0
   26.6860   -9.7053  -16.1011 C   0  0  0  0  0  0  0  0  0  0  0  0
   27.7285   -9.4123  -16.9600 C   0  0  0  0  0  0  0  0  0  0  0  0
   28.8666  -10.2087  -17.0210 C   0  0  0  0  0  0  0  0  0  0  0  0
   28.9804  -11.3113  -16.2235 C   0  0  0  0  0  0  0  0  0  0  0  0
   27.9236  -11.5954  -15.3628 C   0  0  0  0  0  0  0  0  0  0  0  0
   26.8002  -10.8227  -15.2923 C   0  0  0  0  0  0  0  0  0  0  0  0
   23.0201   -8.8680  -16.4387 C   0  0  0  0  0  0  0  0  0  0  0  0
   22.6901   -8.0776  -17.3579 O   0  0  0  0  0  0  0  0  0  0  0  0
   18.9007   -8.0523  -13.8392 O   0  0  0  0  0  0  0  0  0  0  0  0
   20.1521   -8.6210  -13.9182 C   0  0  0  0  0  0  0  0  0  0  0  0
   20.8780   -8.3031  -15.1862 C   0  0  2  0  0  0  0  0  0  0  0  0
   22.1282   -8.9812  -15.3285 N   0  0  0  0  0  0  0  0  0  0  0  0
   20.9629   -6.8342  -15.4014 C   0  0  0  0  0  0  0  0  0  0  0  0
   21.8551   -6.1708  -14.8393 O   0  0  0  0  0  0  0  0  0  0  0  0
   20.0426   -6.1641  -16.2401 N   0  0  0  0  0  0  0  0  0  0  0  0
   20.0618   -4.7128  -16.4695 C   0  0  1  0  0  0  0  0  0  0  0  0
   20.1522   -4.5245  -17.9323 C   0  0  0  0  0  0  0  0  0  0  0  0
   20.1863   -3.1672  -18.5012 C   0  0  0  0  0  0  0  0  0  0  0  0
   20.1974   -3.0435  -19.9591 C   0  0  0  0  0  0  0  0  0  0  0  0
   21.1573   -2.4992  -20.5634 O   0  0  0  0  0  0  0  0  0  0  0  0
   18.9672   -4.1006  -15.7723 C   0  0  0  0  0  0  0  0  0  0  0  0
   19.0641   -2.8935  -15.3650 O   0  0  0  0  0  0  0  0  0  0  0  0
   19.1381   -3.5298  -20.7122 O   0  0  0  0  0  0  0  0  0  0  0  0
   17.7476   -4.7344  -15.4949 O   0  0  0  0  0  0  0  0  0  0  0  0
  2 10  1  0
  2  1  1  6
  3  2  1  0
  4  3  1  0
  5  4  2  0
  6  5  1  0
  7  8  1  0
  7  6  2  0
  8  9  2  0
  9  4  1  0
 10 11  2  0
 13 12  1  0
 14 13  1  1
 15 14  1  0
 15 10  1  0
 16 17  2  0
 16 14  1  0
 18 16  1  0
 19 18  1  0
 20 21  1  0
 19 20  1  6
 22 21  1  0
 23 22  2  0
 24 19  1  0
 24 27  1  0
 25 24  2  0
 26 22  1  0
M  END
$$$$
