WVD.pdb
     RDKit          3D

 30 31  0  0  1  0  0  0  0  0999 V2000
   27.4142  -22.0585  -15.2245 N   0  0  0  0  0  0  0  0  0  0  0  0
   26.3503  -21.7021  -14.2993 C   0  0  1  0  0  0  0  0  0  0  0  0
   26.5752  -20.2782  -13.8367 C   0  0  0  0  0  0  0  0  0  0  0  0
   27.7923  -20.1408  -13.0216 C   0  0  0  0  0  0  0  0  0  0  0  0
   28.9963  -19.5696  -13.3903 C   0  0  0  0  0  0  0  0  0  0  0  0
   29.8777  -19.6297  -12.3779 N   0  0  0  0  0  0  0  0  0  0  0  0
   29.2376  -20.2385  -11.3636 C   0  0  0  0  0  0  0  0  0  0  0  0
   29.7440  -20.5280  -10.0938 C   0  0  0  0  0  0  0  0  0  0  0  0
   28.9161  -21.1660   -9.1780 C   0  0  0  0  0  0  0  0  0  0  0  0
   27.6251  -21.5015   -9.5256 C   0  0  0  0  0  0  0  0  0  0  0  0
   27.1626  -21.1997  -10.7860 C   0  0  0  0  0  0  0  0  0  0  0  0
   27.9438  -20.5662  -11.7346 C   0  0  0  0  0  0  0  0  0  0  0  0
   25.0206  -21.8541  -14.9488 C   0  0  0  0  0  0  0  0  0  0  0  0
   24.8311  -21.7213  -16.1827 O   0  0  0  0  0  0  0  0  0  0  0  0
   21.4220  -24.8008  -14.9057 C   0  0  0  0  0  0  0  0  0  0  0  0
   22.7376  -24.1952  -14.5186 C   0  0  1  0  0  0  0  0  0  0  0  0
   23.9352  -24.8774  -15.0737 C   0  0  0  0  0  0  0  0  0  0  0  0
   22.6743  -22.7037  -14.7770 C   0  0  2  0  0  0  0  0  0  0  0  0
   23.8927  -22.1671  -14.1458 N   0  0  0  0  0  0  0  0  0  0  0  0
   21.5131  -22.0471  -14.1656 C   0  0  0  0  0  0  0  0  0  0  0  0
   21.2701  -22.1357  -12.9118 O   0  0  0  0  0  0  0  0  0  0  0  0
   20.5731  -21.2699  -14.8932 N   0  0  0  0  0  0  0  0  0  0  0  0
   19.4613  -20.5659  -14.2310 C   0  0  1  0  0  0  0  0  0  0  0  0
   19.2194  -19.2925  -14.9669 C   0  0  0  0  0  0  0  0  0  0  0  0
   20.1088  -18.1815  -14.6227 C   0  0  0  0  0  0  0  0  0  0  0  0
   20.9032  -18.3175  -13.6568 O   0  0  0  0  0  0  0  0  0  0  0  0
   18.2776  -21.4561  -14.1983 C   0  0  0  0  0  0  0  0  0  0  0  0
   18.0840  -22.2525  -15.1414 O   0  0  0  0  0  0  0  0  0  0  0  0
   20.1269  -16.9771  -15.3048 O   0  0  0  0  0  0  0  0  0  0  0  0
   17.4023  -21.4034  -13.1373 O   0  0  0  0  0  0  0  0  0  0  0  0
  2  1  1  6
  2  3  1  0
  2 13  1  0
  3  4  1  0
  4  5  2  0
  4 12  1  0
  5  6  1  0
  6  7  1  0
  7  8  2  0
  8  9  1  0
 10  9  2  0
 11 10  1  0
 12 11  2  0
 12  7  1  0
 13 14  2  0
 16 15  1  6
 16 17  1  0
 18 16  1  0
 19 13  1  0
 18 19  1  1
 20 22  1  0
 20 18  1  0
 21 20  2  0
 23 22  1  0
 23 27  1  0
 23 24  1  6
 25 26  2  0
 25 24  1  0
 27 30  1  0
 28 27  2  0
 29 25  1  0
M  END
$$$$
