WVD.pdb
     RDKit          3D

 30 31  0  0  1  0  0  0  0  0999 V2000
   28.2562  -21.9699  -10.3796 N   0  0  0  0  0  0  0  0  0  0  0  0
   27.0867  -21.1702  -10.0514 C   0  0  1  0  0  0  0  0  0  0  0  0
   27.5484  -19.9172   -9.3380 C   0  0  0  0  0  0  0  0  0  0  0  0
   28.4766  -20.2115   -8.2352 C   0  0  0  0  0  0  0  0  0  0  0  0
   29.7724  -20.6855   -8.3249 C   0  0  0  0  0  0  0  0  0  0  0  0
   30.3068  -20.8352   -7.1013 N   0  0  0  0  0  0  0  0  0  0  0  0
   29.3537  -20.4572   -6.2307 C   0  0  0  0  0  0  0  0  0  0  0  0
   29.4396  -20.4362   -4.8361 C   0  0  0  0  0  0  0  0  0  0  0  0
   28.3359  -20.0072   -4.1090 C   0  0  0  0  0  0  0  0  0  0  0  0
   27.1863  -19.6133   -4.7597 C   0  0  0  0  0  0  0  0  0  0  0  0
   27.1403  -19.6481   -6.1346 C   0  0  0  0  0  0  0  0  0  0  0  0
   28.2091  -20.0660   -6.9057 C   0  0  0  0  0  0  0  0  0  0  0  0
   26.3189  -20.8383  -11.2815 C   0  0  0  0  0  0  0  0  0  0  0  0
   26.8403  -20.3558  -12.3166 O   0  0  0  0  0  0  0  0  0  0  0  0
   22.9436  -22.4000  -14.1173 C   0  0  0  0  0  0  0  0  0  0  0  0
   23.9617  -22.3927  -13.0168 C   0  0  1  0  0  0  0  0  0  0  0  0
   25.2025  -23.1600  -13.2986 C   0  0  0  0  0  0  0  0  0  0  0  0
   24.1821  -20.9601  -12.5759 C   0  0  2  0  0  0  0  0  0  0  0  0
   24.9193  -21.0736  -11.3054 N   0  0  0  0  0  0  0  0  0  0  0  0
   22.9393  -20.2225  -12.3216 C   0  0  0  0  0  0  0  0  0  0  0  0
   22.3237  -20.3029  -11.2020 O   0  0  0  0  0  0  0  0  0  0  0  0
   22.3193  -19.3702  -13.2736 N   0  0  0  0  0  0  0  0  0  0  0  0
   21.0876  -18.6220  -12.9680 C   0  0  1  0  0  0  0  0  0  0  0  0
   20.8640  -17.6365  -14.0637 C   0  0  0  0  0  0  0  0  0  0  0  0
   19.6276  -16.8573  -13.9741 C   0  0  0  0  0  0  0  0  0  0  0  0
   18.6340  -17.2159  -14.6575 O   0  0  0  0  0  0  0  0  0  0  0  0
   19.9689  -19.5795  -12.8059 C   0  0  0  0  0  0  0  0  0  0  0  0
   19.8739  -20.5486  -13.5888 O   0  0  0  0  0  0  0  0  0  0  0  0
   19.4861  -15.7371  -13.1733 O   0  0  0  0  0  0  0  0  0  0  0  0
   19.0457  -19.4000  -11.8009 O   0  0  0  0  0  0  0  0  0  0  0  0
  2  1  1  6
  2  3  1  0
  2 13  1  0
  3  4  1  0
  4  5  2  0
  4 12  1  0
  5  6  1  0
  6  7  1  0
  7  8  2  0
  8  9  1  0
 10  9  2  0
 11 10  1  0
 12 11  2  0
 12  7  1  0
 13 14  2  0
 16 15  1  6
 16 17  1  0
 18 16  1  0
 19 13  1  0
 18 19  1  1
 20 22  1  0
 20 18  1  0
 21 20  2  0
 23 22  1  0
 23 27  1  0
 23 24  1  6
 25 26  2  0
 25 24  1  0
 27 30  1  0
 28 27  2  0
 29 25  1  0
M  END
$$$$
