WVD.pdb
     RDKit          3D

 30 31  0  0  1  0  0  0  0  0999 V2000
   23.9760  -19.4808  -18.2304 N   0  0  0  0  0  0  0  0  0  0  0  0
   23.9838  -18.9326  -16.8834 C   0  0  1  0  0  0  0  0  0  0  0  0
   22.5504  -18.7782  -16.4210 C   0  0  0  0  0  0  0  0  0  0  0  0
   21.8657  -17.6590  -17.0865 C   0  0  0  0  0  0  0  0  0  0  0  0
   21.8989  -16.3211  -16.7388 C   0  0  0  0  0  0  0  0  0  0  0  0
   21.1452  -15.5949  -17.5813 N   0  0  0  0  0  0  0  0  0  0  0  0
   20.6310  -16.4676  -18.4663 C   0  0  0  0  0  0  0  0  0  0  0  0
   19.7819  -16.1854  -19.5396 C   0  0  0  0  0  0  0  0  0  0  0  0
   19.3587  -17.2352  -20.3457 C   0  0  0  0  0  0  0  0  0  0  0  0
   19.7738  -18.5231  -20.0830 C   0  0  0  0  0  0  0  0  0  0  0  0
   20.6104  -18.7611  -19.0166 C   0  0  0  0  0  0  0  0  0  0  0  0
   21.0609  -17.7538  -18.1836 C   0  0  0  0  0  0  0  0  0  0  0  0
   24.7543  -19.8137  -15.9653 C   0  0  0  0  0  0  0  0  0  0  0  0
   24.5675  -21.0515  -15.8712 O   0  0  0  0  0  0  0  0  0  0  0  0
   28.6615  -20.1601  -13.0736 C   0  0  0  0  0  0  0  0  0  0  0  0
   27.9193  -19.6288  -14.2628 C   0  0  1  0  0  0  0  0  0  0  0  0
   28.5737  -19.8685  -15.5751 C   0  0  0  0  0  0  0  0  0  0  0  0
   26.4781  -20.0874  -14.1738 C   0  0  2  0  0  0  0  0  0  0  0  0
   25.7604  -19.2418  -15.1434 N   0  0  0  0  0  0  0  0  0  0  0  0
   25.8743  -19.8844  -12.8519 C   0  0  0  0  0  0  0  0  0  0  0  0
   25.8132  -18.7269  -12.3082 O   0  0  0  0  0  0  0  0  0  0  0  0
   25.3142  -20.9307  -12.0717 N   0  0  0  0  0  0  0  0  0  0  0  0
   24.7550  -20.6920  -10.7298 C   0  0  1  0  0  0  0  0  0  0  0  0
   23.6194  -21.6366  -10.5299 C   0  0  0  0  0  0  0  0  0  0  0  0
   22.7422  -21.3435   -9.3948 C   0  0  0  0  0  0  0  0  0  0  0  0
   23.0143  -20.3626   -8.6555 O   0  0  0  0  0  0  0  0  0  0  0  0
   25.8307  -20.8499   -9.7235 C   0  0  0  0  0  0  0  0  0  0  0  0
   26.6730  -21.7618   -9.8654 O   0  0  0  0  0  0  0  0  0  0  0  0
   21.6190  -22.0904   -9.0837 O   0  0  0  0  0  0  0  0  0  0  0  0
   25.8982  -19.9979   -8.6445 O   0  0  0  0  0  0  0  0  0  0  0  0
  2  1  1  6
  2  3  1  0
  2 13  1  0
  3  4  1  0
  4  5  2  0
  4 12  1  0
  5  6  1  0
  6  7  1  0
  7  8  2  0
  8  9  1  0
 10  9  2  0
 11 10  1  0
 12 11  2  0
 12  7  1  0
 13 14  2  0
 16 15  1  1
 16 17  1  0
 18 16  1  0
 19 13  1  0
 18 19  1  6
 20 22  1  0
 20 18  1  0
 21 20  2  0
 23 22  1  0
 23 27  1  0
 23 24  1  1
 25 26  2  0
 25 24  1  0
 27 30  1  0
 28 27  2  0
 29 25  1  0
M  END
$$$$
