WVD.pdb
     RDKit          3D

 30 31  0  0  1  0  0  0  0  0999 V2000
   23.3134  -20.2891  -14.8074 N   0  0  0  0  0  0  0  0  0  0  0  0
   22.1898  -20.0942  -13.9049 C   0  0  1  0  0  0  0  0  0  0  0  0
   20.9133  -20.4138  -14.6536 C   0  0  0  0  0  0  0  0  0  0  0  0
   20.6889  -19.5060  -15.7892 C   0  0  0  0  0  0  0  0  0  0  0  0
   20.7981  -19.7953  -17.1369 C   0  0  0  0  0  0  0  0  0  0  0  0
   20.5190  -18.7096  -17.8777 N   0  0  0  0  0  0  0  0  0  0  0  0
   20.2319  -17.7277  -17.0044 C   0  0  0  0  0  0  0  0  0  0  0  0
   19.8777  -16.4084  -17.2987 C   0  0  0  0  0  0  0  0  0  0  0  0
   19.6159  -15.5402  -16.2458 C   0  0  0  0  0  0  0  0  0  0  0  0
   19.7068  -15.9816  -14.9430 C   0  0  0  0  0  0  0  0  0  0  0  0
   20.0586  -17.2884  -14.6935 C   0  0  0  0  0  0  0  0  0  0  0  0
   20.3293  -18.1931  -15.7033 C   0  0  0  0  0  0  0  0  0  0  0  0
   22.3352  -20.9505  -12.6972 C   0  0  0  0  0  0  0  0  0  0  0  0
   22.5436  -22.1876  -12.7440 O   0  0  0  0  0  0  0  0  0  0  0  0
   23.4268  -20.9899   -7.9836 C   0  0  0  0  0  0  0  0  0  0  0  0
   23.4052  -20.3936   -9.3588 C   0  0  1  0  0  0  0  0  0  0  0  0
   24.7399  -20.1782   -9.9754 C   0  0  0  0  0  0  0  0  0  0  0  0
   22.4280  -21.1803  -10.2083 C   0  0  2  0  0  0  0  0  0  0  0  0
   22.2368  -20.3540  -11.4129 N   0  0  0  0  0  0  0  0  0  0  0  0
   21.1196  -21.3773   -9.5739 C   0  0  0  0  0  0  0  0  0  0  0  0
   20.3618  -20.3914   -9.2692 O   0  0  0  0  0  0  0  0  0  0  0  0
   20.5856  -22.6522   -9.2474 N   0  0  0  0  0  0  0  0  0  0  0  0
   19.2991  -22.8047   -8.5460 C   0  0  1  0  0  0  0  0  0  0  0  0
   18.4229  -23.6788   -9.3766 C   0  0  0  0  0  0  0  0  0  0  0  0
   17.1372  -24.0420   -8.7774 C   0  0  0  0  0  0  0  0  0  0  0  0
   16.6651  -23.3135   -7.8669 O   0  0  0  0  0  0  0  0  0  0  0  0
   19.5497  -23.3473   -7.1905 C   0  0  0  0  0  0  0  0  0  0  0  0
   20.5782  -24.0255   -6.9828 O   0  0  0  0  0  0  0  0  0  0  0  0
   16.4028  -25.1520   -9.1579 O   0  0  0  0  0  0  0  0  0  0  0  0
   18.6558  -23.1038   -6.1725 O   0  0  0  0  0  0  0  0  0  0  0  0
  2  1  1  6
  2  3  1  0
  2 13  1  0
  3  4  1  0
  4  5  2  0
  4 12  1  0
  5  6  1  0
  6  7  1  0
  7  8  2  0
  8  9  1  0
 10  9  2  0
 11 10  1  0
 12 11  2  0
 12  7  1  0
 13 14  2  0
 16 15  1  1
 16 17  1  0
 18 16  1  0
 19 13  1  0
 18 19  1  6
 20 22  1  0
 20 18  1  0
 21 20  2  0
 23 22  1  0
 23 27  1  0
 23 24  1  6
 25 26  2  0
 25 24  1  0
 27 30  1  0
 28 27  2  0
 29 25  1  0
M  END
$$$$
