WVD.pdb
     RDKit          3D

 30 31  0  0  1  0  0  0  0  0999 V2000
   24.9036  -20.3132   -9.7071 N   0  0  0  0  0  0  0  0  0  0  0  0
   26.3103  -19.9447   -9.7263 C   0  0  1  0  0  0  0  0  0  0  0  0
   27.0554  -20.8498   -8.7681 C   0  0  0  0  0  0  0  0  0  0  0  0
   26.6779  -20.6117   -7.3663 C   0  0  0  0  0  0  0  0  0  0  0  0
   25.4329  -20.7738   -6.7871 C   0  0  0  0  0  0  0  0  0  0  0  0
   25.4735  -20.4556   -5.4823 N   0  0  0  0  0  0  0  0  0  0  0  0
   26.7429  -20.0906   -5.2281 C   0  0  0  0  0  0  0  0  0  0  0  0
   27.2766  -19.6748   -4.0054 C   0  0  0  0  0  0  0  0  0  0  0  0
   28.6239  -19.3393   -3.9485 C   0  0  0  0  0  0  0  0  0  0  0  0
   29.4075  -19.4185   -5.0798 C   0  0  0  0  0  0  0  0  0  0  0  0
   28.8452  -19.8325   -6.2657 C   0  0  0  0  0  0  0  0  0  0  0  0
   27.5111  -20.1778   -6.3775 C   0  0  0  0  0  0  0  0  0  0  0  0
   26.8592  -20.0506  -11.1048 C   0  0  0  0  0  0  0  0  0  0  0  0
   28.0181  -20.4593  -11.3615 O   0  0  0  0  0  0  0  0  0  0  0  0
   27.8871  -20.4184  -15.3036 C   0  0  0  0  0  0  0  0  0  0  0  0
   27.4790  -20.5434  -13.8665 C   0  0  1  0  0  0  0  0  0  0  0  0
   28.5773  -20.8817  -12.9247 C   0  0  0  0  0  0  0  0  0  0  0  0
   26.6675  -19.3207  -13.4895 C   0  0  2  0  0  0  0  0  0  0  0  0
   26.0425  -19.6741  -12.2031 N   0  0  0  0  0  0  0  0  0  0  0  0
   25.6013  -19.0016  -14.4459 C   0  0  0  0  0  0  0  0  0  0  0  0
   25.8572  -18.6615  -15.6533 O   0  0  0  0  0  0  0  0  0  0  0  0
   24.2180  -19.0404  -14.1265 N   0  0  0  0  0  0  0  0  0  0  0  0
   23.2560  -19.8322  -14.9125 C   0  0  1  0  0  0  0  0  0  0  0  0
   23.7480  -21.2384  -14.9606 C   0  0  0  0  0  0  0  0  0  0  0  0
   22.9158  -22.1766  -15.7162 C   0  0  0  0  0  0  0  0  0  0  0  0
   21.8698  -21.7496  -16.2697 O   0  0  0  0  0  0  0  0  0  0  0  0
   21.9123  -19.7036  -14.3021 C   0  0  0  0  0  0  0  0  0  0  0  0
   20.9330  -20.2455  -14.8574 O   0  0  0  0  0  0  0  0  0  0  0  0
   23.2154  -23.5205  -15.8589 O   0  0  0  0  0  0  0  0  0  0  0  0
   21.7488  -18.9937  -13.1342 O   0  0  0  0  0  0  0  0  0  0  0  0
  2  1  1  6
  2  3  1  0
  2 13  1  0
  3  4  1  0
  4  5  2  0
  4 12  1  0
  5  6  1  0
  6  7  1  0
  7  8  2  0
  8  9  1  0
 10  9  2  0
 11 10  1  0
 12 11  2  0
 12  7  1  0
 13 14  2  0
 16 15  1  6
 16 17  1  0
 18 16  1  0
 19 13  1  0
 18 19  1  1
 20 22  1  0
 20 18  1  0
 21 20  2  0
 23 22  1  0
 23 27  1  0
 23 24  1  1
 25 26  2  0
 25 24  1  0
 27 30  1  0
 28 27  2  0
 29 25  1  0
M  END
$$$$
