WVD.pdb
     RDKit          3D

 30 31  0  0  1  0  0  0  0  0999 V2000
   27.3481  -19.4482  -10.7309 N   0  0  0  0  0  0  0  0  0  0  0  0
   26.6489  -20.6980  -10.9842 C   0  0  1  0  0  0  0  0  0  0  0  0
   25.9962  -21.1511   -9.6955 C   0  0  0  0  0  0  0  0  0  0  0  0
   26.5535  -20.4696   -8.5168 C   0  0  0  0  0  0  0  0  0  0  0  0
   25.9001  -19.6178   -7.6455 C   0  0  0  0  0  0  0  0  0  0  0  0
   26.7384  -19.1866   -6.6881 N   0  0  0  0  0  0  0  0  0  0  0  0
   27.9261  -19.7624   -6.9473 C   0  0  0  0  0  0  0  0  0  0  0  0
   29.1134  -19.6187   -6.2245 C   0  0  0  0  0  0  0  0  0  0  0  0
   30.2417  -20.3046   -6.6574 C   0  0  0  0  0  0  0  0  0  0  0  0
   30.1796  -21.1065   -7.7769 C   0  0  0  0  0  0  0  0  0  0  0  0
   28.9919  -21.2226   -8.4621 C   0  0  0  0  0  0  0  0  0  0  0  0
   27.8404  -20.5626   -8.0747 C   0  0  0  0  0  0  0  0  0  0  0  0
   25.6425  -20.5235  -12.0657 C   0  0  0  0  0  0  0  0  0  0  0  0
   24.9977  -19.4622  -12.2498 O   0  0  0  0  0  0  0  0  0  0  0  0
   25.5756  -23.4256  -14.8708 C   0  0  0  0  0  0  0  0  0  0  0  0
   25.0971  -22.0565  -15.2504 C   0  0  1  0  0  0  0  0  0  0  0  0
   24.3201  -21.9866  -16.5149 C   0  0  0  0  0  0  0  0  0  0  0  0
   24.4180  -21.4344  -14.0474 C   0  0  2  0  0  0  0  0  0  0  0  0
   25.3840  -21.6049  -12.9482 N   0  0  0  0  0  0  0  0  0  0  0  0
   23.1666  -22.0992  -13.6663 C   0  0  0  0  0  0  0  0  0  0  0  0
   23.0555  -22.7519  -12.5706 O   0  0  0  0  0  0  0  0  0  0  0  0
   21.9895  -22.0794  -14.4608 N   0  0  0  0  0  0  0  0  0  0  0  0
   20.7229  -22.6715  -13.9967 C   0  0  1  0  0  0  0  0  0  0  0  0
   20.3231  -21.9765  -12.7403 C   0  0  0  0  0  0  0  0  0  0  0  0
   19.6188  -20.7047  -12.9147 C   0  0  0  0  0  0  0  0  0  0  0  0
   20.0031  -19.9176  -13.8179 O   0  0  0  0  0  0  0  0  0  0  0  0
   19.7131  -22.5573  -15.0746 C   0  0  0  0  0  0  0  0  0  0  0  0
   19.9029  -21.7492  -16.0085 O   0  0  0  0  0  0  0  0  0  0  0  0
   18.5436  -20.3130  -12.1359 O   0  0  0  0  0  0  0  0  0  0  0  0
   18.5784  -23.3359  -15.0441 O   0  0  0  0  0  0  0  0  0  0  0  0
  2  1  1  1
  2  3  1  0
  2 13  1  0
  3  4  1  0
  4  5  2  0
  4 12  1  0
  5  6  1  0
  6  7  1  0
  7  8  2  0
  8  9  1  0
 10  9  2  0
 11 10  1  0
 12 11  2  0
 12  7  1  0
 13 14  2  0
 16 15  1  1
 16 17  1  0
 18 16  1  0
 19 13  1  0
 18 19  1  1
 20 22  1  0
 20 18  1  0
 21 20  2  0
 23 22  1  0
 23 27  1  0
 23 24  1  1
 25 26  2  0
 25 24  1  0
 27 30  1  0
 28 27  2  0
 29 25  1  0
M  END
$$$$
