WVD.pdb
     RDKit          3D

 30 31  0  0  1  0  0  0  0  0999 V2000
   25.6331  -19.5667  -15.1130 N   0  0  0  0  0  0  0  0  0  0  0  0
   26.7171  -20.0068  -14.2491 C   0  0  1  0  0  0  0  0  0  0  0  0
   27.5362  -18.7962  -13.8543 C   0  0  0  0  0  0  0  0  0  0  0  0
   27.8531  -17.9361  -15.0050 C   0  0  0  0  0  0  0  0  0  0  0  0
   27.5055  -16.6108  -15.1907 C   0  0  0  0  0  0  0  0  0  0  0  0
   27.9708  -16.1604  -16.3680 N   0  0  0  0  0  0  0  0  0  0  0  0
   28.6151  -17.1968  -16.9339 C   0  0  0  0  0  0  0  0  0  0  0  0
   29.2696  -17.2159  -18.1683 C   0  0  0  0  0  0  0  0  0  0  0  0
   29.8814  -18.3945  -18.5776 C   0  0  0  0  0  0  0  0  0  0  0  0
   29.8372  -19.5145  -17.7752 C   0  0  0  0  0  0  0  0  0  0  0  0
   29.1827  -19.4563  -16.5661 C   0  0  0  0  0  0  0  0  0  0  0  0
   28.5579  -18.3098  -16.1113 C   0  0  0  0  0  0  0  0  0  0  0  0
   26.1794  -20.7074  -13.0521 C   0  0  0  0  0  0  0  0  0  0  0  0
   26.9017  -21.1719  -12.1364 O   0  0  0  0  0  0  0  0  0  0  0  0
   23.7803  -20.6538   -9.4026 C   0  0  0  0  0  0  0  0  0  0  0  0
   24.6809  -20.4878  -10.5895 C   0  0  1  0  0  0  0  0  0  0  0  0
   26.1356  -20.5371  -10.2909 C   0  0  0  0  0  0  0  0  0  0  0  0
   24.2194  -21.4345  -11.6787 C   0  0  2  0  0  0  0  0  0  0  0  0
   24.7752  -20.8686  -12.9202 N   0  0  0  0  0  0  0  0  0  0  0  0
   22.7606  -21.5065  -11.8196 C   0  0  0  0  0  0  0  0  0  0  0  0
   22.0206  -22.0343  -10.9180 O   0  0  0  0  0  0  0  0  0  0  0  0
   22.0515  -21.0076  -12.9445 N   0  0  0  0  0  0  0  0  0  0  0  0
   20.5834  -21.0834  -13.0397 C   0  0  1  0  0  0  0  0  0  0  0  0
   20.1157  -19.9332  -13.8644 C   0  0  0  0  0  0  0  0  0  0  0  0
   20.0375  -18.6456  -13.1716 C   0  0  0  0  0  0  0  0  0  0  0  0
   20.2356  -18.6121  -11.9297 O   0  0  0  0  0  0  0  0  0  0  0  0
   20.2035  -22.3996  -13.6037 C   0  0  0  0  0  0  0  0  0  0  0  0
   19.0554  -22.8466  -13.3962 O   0  0  0  0  0  0  0  0  0  0  0  0
   19.7552  -17.4501  -13.8097 O   0  0  0  0  0  0  0  0  0  0  0  0
   21.1096  -23.1196  -14.3490 O   0  0  0  0  0  0  0  0  0  0  0  0
  2  1  1  6
  2  3  1  0
  2 13  1  0
  3  4  1  0
  4  5  2  0
  4 12  1  0
  5  6  1  0
  6  7  1  0
  7  8  2  0
  8  9  1  0
 10  9  2  0
 11 10  1  0
 12 11  2  0
 12  7  1  0
 13 14  2  0
 16 15  1  1
 16 17  1  0
 18 16  1  0
 19 13  1  0
 18 19  1  6
 20 22  1  0
 20 18  1  0
 21 20  2  0
 23 22  1  0
 23 27  1  0
 23 24  1  6
 25 26  2  0
 25 24  1  0
 27 30  1  0
 28 27  2  0
 29 25  1  0
M  END
$$$$
