WVD.pdb
     RDKit          3D

 30 31  0  0  1  0  0  0  0  0999 V2000
   26.3345  -21.1931  -13.7201 N   0  0  0  0  0  0  0  0  0  0  0  0
   25.4959  -20.3935  -12.8412 C   0  0  1  0  0  0  0  0  0  0  0  0
   24.2086  -20.0716  -13.5701 C   0  0  0  0  0  0  0  0  0  0  0  0
   24.4433  -19.3271  -14.8171 C   0  0  0  0  0  0  0  0  0  0  0  0
   23.9007  -19.5753  -16.0644 C   0  0  0  0  0  0  0  0  0  0  0  0
   24.3520  -18.6834  -16.9622 N   0  0  0  0  0  0  0  0  0  0  0  0
   25.1819  -17.8662  -16.2894 C   0  0  0  0  0  0  0  0  0  0  0  0
   25.8950  -16.7770  -16.7972 C   0  0  0  0  0  0  0  0  0  0  0  0
   26.7046  -16.0514  -15.9319 C   0  0  0  0  0  0  0  0  0  0  0  0
   26.7949  -16.4072  -14.6032 C   0  0  0  0  0  0  0  0  0  0  0  0
   26.0771  -17.4864  -14.1406 C   0  0  0  0  0  0  0  0  0  0  0  0
   25.2573  -18.2419  -14.9582 C   0  0  0  0  0  0  0  0  0  0  0  0
   25.2289  -21.1201  -11.5708 C   0  0  0  0  0  0  0  0  0  0  0  0
   25.2910  -22.3689  -11.4587 O   0  0  0  0  0  0  0  0  0  0  0  0
   24.7585  -20.6271   -6.7381 C   0  0  0  0  0  0  0  0  0  0  0  0
   25.2363  -20.1692   -8.0833 C   0  0  1  0  0  0  0  0  0  0  0  0
   26.7019  -19.9506   -8.1928 C   0  0  0  0  0  0  0  0  0  0  0  0
   24.6453  -21.0812   -9.1389 C   0  0  2  0  0  0  0  0  0  0  0  0
   24.8842  -20.3776  -10.4111 N   0  0  0  0  0  0  0  0  0  0  0  0
   23.2003  -21.2923   -8.9952 C   0  0  0  0  0  0  0  0  0  0  0  0
   22.3466  -20.4651   -9.4705 O   0  0  0  0  0  0  0  0  0  0  0  0
   22.6290  -22.4097   -8.3302 N   0  0  0  0  0  0  0  0  0  0  0  0
   21.1776  -22.5294   -8.1084 C   0  0  1  0  0  0  0  0  0  0  0  0
   20.9111  -23.8728   -7.5202 C   0  0  0  0  0  0  0  0  0  0  0  0
   19.5144  -24.1512   -7.1801 C   0  0  0  0  0  0  0  0  0  0  0  0
   18.6324  -23.3158   -7.5071 O   0  0  0  0  0  0  0  0  0  0  0  0
   20.7277  -21.4133   -7.2444 C   0  0  0  0  0  0  0  0  0  0  0  0
   21.2972  -21.2183   -6.1496 O   0  0  0  0  0  0  0  0  0  0  0  0
   19.1029  -25.2919   -6.5125 O   0  0  0  0  0  0  0  0  0  0  0  0
   19.6922  -20.6010   -7.6478 O   0  0  0  0  0  0  0  0  0  0  0  0
  2  1  1  6
  2  3  1  0
  2 13  1  0
  3  4  1  0
  4  5  2  0
  4 12  1  0
  5  6  1  0
  6  7  1  0
  7  8  2  0
  8  9  1  0
 10  9  2  0
 11 10  1  0
 12 11  2  0
 12  7  1  0
 13 14  2  0
 16 15  1  1
 16 17  1  0
 18 16  1  0
 19 13  1  0
 18 19  1  6
 20 22  1  0
 20 18  1  0
 21 20  2  0
 23 22  1  0
 23 27  1  0
 23 24  1  1
 25 26  2  0
 25 24  1  0
 27 30  1  0
 28 27  2  0
 29 25  1  0
M  END
$$$$
