WVD.pdb
     RDKit          3D

 30 31  0  0  1  0  0  0  0  0999 V2000
   28.4746  -20.3189  -15.8580 N   0  0  0  0  0  0  0  0  0  0  0  0
   27.4137  -19.7301  -15.0563 C   0  0  1  0  0  0  0  0  0  0  0  0
   26.3887  -19.1226  -15.9905 C   0  0  0  0  0  0  0  0  0  0  0  0
   26.8930  -17.9167  -16.6656 C   0  0  0  0  0  0  0  0  0  0  0  0
   27.1856  -17.7594  -18.0078 C   0  0  0  0  0  0  0  0  0  0  0  0
   27.6274  -16.5143  -18.2526 N   0  0  0  0  0  0  0  0  0  0  0  0
   27.6170  -15.8767  -17.0683 C   0  0  0  0  0  0  0  0  0  0  0  0
   27.9917  -14.5548  -16.8141 C   0  0  0  0  0  0  0  0  0  0  0  0
   27.9066  -14.0791  -15.5112 C   0  0  0  0  0  0  0  0  0  0  0  0
   27.4611  -14.9023  -14.4993 C   0  0  0  0  0  0  0  0  0  0  0  0
   27.1011  -16.1985  -14.7894 C   0  0  0  0  0  0  0  0  0  0  0  0
   27.1664  -16.7218  -16.0675 C   0  0  0  0  0  0  0  0  0  0  0  0
   26.7966  -20.7553  -14.1725 C   0  0  0  0  0  0  0  0  0  0  0  0
   26.7194  -21.9726  -14.4694 O   0  0  0  0  0  0  0  0  0  0  0  0
   26.9673  -21.8411  -10.7283 C   0  0  0  0  0  0  0  0  0  0  0  0
   25.6035  -21.2261  -10.8245 C   0  0  1  0  0  0  0  0  0  0  0  0
   25.4281  -19.9568  -10.0722 C   0  0  0  0  0  0  0  0  0  0  0  0
   25.2066  -21.1636  -12.2853 C   0  0  2  0  0  0  0  0  0  0  0  0
   26.2611  -20.3542  -12.9205 N   0  0  0  0  0  0  0  0  0  0  0  0
   23.9172  -20.5035  -12.5193 C   0  0  0  0  0  0  0  0  0  0  0  0
   23.8279  -19.4132  -13.1844 O   0  0  0  0  0  0  0  0  0  0  0  0
   22.6771  -21.0030  -12.0399 N   0  0  0  0  0  0  0  0  0  0  0  0
   21.3917  -20.6192  -12.6486 C   0  0  1  0  0  0  0  0  0  0  0  0
   21.4146  -21.0425  -14.0776 C   0  0  0  0  0  0  0  0  0  0  0  0
   20.1588  -20.8714  -14.8107 C   0  0  0  0  0  0  0  0  0  0  0  0
   19.1937  -20.3044  -14.2363 O   0  0  0  0  0  0  0  0  0  0  0  0
   20.2883  -21.2340  -11.8745 C   0  0  0  0  0  0  0  0  0  0  0  0
   20.3347  -22.4530  -11.6044 O   0  0  0  0  0  0  0  0  0  0  0  0
   19.9688  -21.3015  -16.1126 O   0  0  0  0  0  0  0  0  0  0  0  0
   19.2244  -20.4660  -11.4584 O   0  0  0  0  0  0  0  0  0  0  0  0
  2  1  1  6
  2  3  1  0
  2 13  1  0
  3  4  1  0
  4  5  2  0
  4 12  1  0
  5  6  1  0
  6  7  1  0
  7  8  2  0
  8  9  1  0
 10  9  2  0
 11 10  1  0
 12 11  2  0
 12  7  1  0
 13 14  2  0
 16 15  1  6
 16 17  1  0
 18 16  1  0
 19 13  1  0
 18 19  1  6
 20 22  1  0
 20 18  1  0
 21 20  2  0
 23 22  1  0
 23 27  1  0
 23 24  1  6
 25 26  2  0
 25 24  1  0
 27 30  1  0
 28 27  2  0
 29 25  1  0
M  END
$$$$
