WVD.pdb
     RDKit          3D

 30 31  0  0  1  0  0  0  0  0999 V2000
   36.3232  -22.9067    4.5167 N   0  0  0  0  0  0  0  0  0  0  0  0
   35.8503  -23.5655    5.7239 C   0  0  1  0  0  0  0  0  0  0  0  0
   34.5118  -24.2074    5.4260 C   0  0  0  0  0  0  0  0  0  0  0  0
   33.4373  -23.2143    5.2724 C   0  0  0  0  0  0  0  0  0  0  0  0
   32.8539  -22.7751    4.0983 C   0  0  0  0  0  0  0  0  0  0  0  0
   31.9055  -21.8587    4.3556 N   0  0  0  0  0  0  0  0  0  0  0  0
   31.8830  -21.7126    5.6925 C   0  0  0  0  0  0  0  0  0  0  0  0
   31.0572  -20.8679    6.4390 C   0  0  0  0  0  0  0  0  0  0  0  0
   31.1880  -20.8638    7.8224 C   0  0  0  0  0  0  0  0  0  0  0  0
   32.1156  -21.6793    8.4345 C   0  0  0  0  0  0  0  0  0  0  0  0
   32.9108  -22.4974    7.6650 C   0  0  0  0  0  0  0  0  0  0  0  0
   32.8218  -22.5405    6.2860 C   0  0  0  0  0  0  0  0  0  0  0  0
   36.8396  -24.5737    6.1905 C   0  0  0  0  0  0  0  0  0  0  0  0
   37.4503  -25.3554    5.4210 O   0  0  0  0  0  0  0  0  0  0  0  0
   39.8784  -25.7576    9.7681 C   0  0  0  0  0  0  0  0  0  0  0  0
   39.0138  -24.8133    8.9881 C   0  0  1  0  0  0  0  0  0  0  0  0
   39.7309  -23.6766    8.3546 C   0  0  0  0  0  0  0  0  0  0  0  0
   38.1435  -25.6234    8.0490 C   0  0  2  0  0  0  0  0  0  0  0  0
   37.1223  -24.6716    7.5781 N   0  0  0  0  0  0  0  0  0  0  0  0
   37.4593  -26.7468    8.6994 C   0  0  0  0  0  0  0  0  0  0  0  0
   36.6641  -26.5722    9.6874 O   0  0  0  0  0  0  0  0  0  0  0  0
   37.6130  -28.1012    8.3005 N   0  0  0  0  0  0  0  0  0  0  0  0
   36.9196  -29.2029    8.9903 C   0  0  1  0  0  0  0  0  0  0  0  0
   36.5339  -30.2160    7.9673 C   0  0  0  0  0  0  0  0  0  0  0  0
   35.4377  -29.8325    7.0757 C   0  0  0  0  0  0  0  0  0  0  0  0
   34.4307  -29.2585    7.5648 O   0  0  0  0  0  0  0  0  0  0  0  0
   37.8064  -29.7459   10.0454 C   0  0  0  0  0  0  0  0  0  0  0  0
   37.3716  -30.6268   10.8174 O   0  0  0  0  0  0  0  0  0  0  0  0
   35.4441  -30.0671    5.7115 O   0  0  0  0  0  0  0  0  0  0  0  0
   39.0964  -29.2821   10.1703 O   0  0  0  0  0  0  0  0  0  0  0  0
  2  1  1  6
  2  3  1  0
  2 13  1  0
  3  4  1  0
  4  5  2  0
  4 12  1  0
  5  6  1  0
  6  7  1  0
  7  8  2  0
  8  9  1  0
 10  9  2  0
 11 10  1  0
 12 11  2  0
 12  7  1  0
 13 14  2  0
 16 15  1  6
 16 17  1  0
 18 16  1  0
 19 13  1  0
 18 19  1  1
 20 22  1  0
 20 18  1  0
 21 20  2  0
 23 22  1  0
 23 27  1  0
 23 24  1  6
 25 26  2  0
 25 24  1  0
 27 30  1  0
 28 27  2  0
 29 25  1  0
M  END
$$$$
