KWQ.pdb
     RDKit          3D

 33 34  0  0  1  0  0  0  0  0999 V2000
   28.4565  -22.3062  -15.6582 N   0  0  0  0  0  0  0  0  0  0  0  0
   28.3092  -21.0401  -14.9256 C   0  0  1  0  0  0  0  0  0  0  0  0
   27.5557  -20.1303  -15.8205 C   0  0  0  0  0  0  0  0  0  0  0  0
   28.3837  -19.5766  -16.9151 C   0  0  0  0  0  0  0  0  0  0  0  0
   29.1723  -18.3673  -16.7274 C   0  0  0  0  0  0  0  0  0  0  0  0
   29.9570  -17.7328  -17.7934 C   0  0  0  0  0  0  0  0  0  0  0  0
   30.6244  -16.5004  -17.2516 N   0  0  0  0  0  0  0  0  0  0  0  0
   27.5486  -21.3328  -13.6648 C   0  0  0  0  0  0  0  0  0  0  0  0
   26.4982  -22.0055  -13.7299 O   0  0  0  0  0  0  0  0  0  0  0  0
   27.9833  -20.8718  -12.4099 N   0  0  0  0  0  0  0  0  0  0  0  0
   27.1316  -21.0729  -11.2508 C   0  0  1  0  0  0  0  0  0  0  0  0
   27.8087  -20.6624   -9.9757 C   0  0  0  0  0  0  0  0  0  0  0  0
   26.9689  -20.5394   -8.7924 C   0  0  0  0  0  0  0  0  0  0  0  0
   25.6149  -20.6222   -8.5891 C   0  0  0  0  0  0  0  0  0  0  0  0
   25.3895  -20.4326   -7.2915 N   0  0  0  0  0  0  0  0  0  0  0  0
   26.5354  -20.2279   -6.6256 C   0  0  0  0  0  0  0  0  0  0  0  0
   26.8260  -19.9844   -5.2866 C   0  0  0  0  0  0  0  0  0  0  0  0
   28.1374  -19.8075   -4.9032 C   0  0  0  0  0  0  0  0  0  0  0  0
   29.1874  -19.8603   -5.7906 C   0  0  0  0  0  0  0  0  0  0  0  0
   28.8549  -20.1052   -7.1127 C   0  0  0  0  0  0  0  0  0  0  0  0
   27.5526  -20.2874   -7.5352 C   0  0  0  0  0  0  0  0  0  0  0  0
   25.7781  -20.5415  -11.4551 C   0  0  0  0  0  0  0  0  0  0  0  0
   25.6553  -19.3235  -11.7627 O   0  0  0  0  0  0  0  0  0  0  0  0
   21.5245  -23.7064  -14.2199 N   0  0  0  0  0  0  0  0  0  0  0  0
   20.7343  -22.5635  -13.9419 C   0  0  0  0  0  0  0  0  0  0  0  0
   19.5779  -22.4747  -14.4017 O   0  0  0  0  0  0  0  0  0  0  0  0
   21.2780  -21.4721  -13.1049 C   0  0  0  0  0  0  0  0  0  0  0  0
   22.6538  -21.8519  -12.6471 C   0  0  0  0  0  0  0  0  0  0  0  0
   23.2881  -20.7723  -11.8009 C   0  0  2  0  0  0  0  0  0  0  0  0
   24.5795  -21.2874  -11.3370 N   0  0  0  0  0  0  0  0  0  0  0  0
   22.4281  -20.3910  -10.6881 C   0  0  0  0  0  0  0  0  0  0  0  0
   22.6138  -20.9924   -9.5784 O   0  0  0  0  0  0  0  0  0  0  0  0
   21.4289  -19.4360  -10.7255 O   0  0  0  0  0  0  0  0  0  0  0  0
  2  1  1  6
  2  3  1  0
  3  4  1  0
  5  6  1  0
  5  4  1  0
  7  6  1  0
  8  2  1  0
  9  8  2  0
 10  8  1  0
 11 22  1  0
 11 10  1  0
 11 12  1  1
 13 12  1  0
 14 13  2  0
 15 16  1  0
 15 14  1  0
 16 21  2  0
 17 18  2  0
 17 16  1  0
 18 19  1  0
 19 20  2  0
 21 20  1  0
 21 13  1  0
 22 30  1  0
 23 22  2  0
 25 24  1  0
 25 27  1  0
 26 25  2  0
 29 28  1  1
 28 27  1  0
 29 31  1  0
 30 29  1  0
 31 32  2  0
 31 33  1  0
M  END
$$$$
