KWQ.pdb
     RDKit          3D

 33 34  0  0  1  0  0  0  0  0999 V2000
   27.9586  -21.1658  -15.2690 N   0  0  0  0  0  0  0  0  0  0  0  0
   28.3027  -20.2461  -14.1748 C   0  0  1  0  0  0  0  0  0  0  0  0
   27.9008  -18.8942  -14.6299 C   0  0  0  0  0  0  0  0  0  0  0  0
   28.4532  -18.5409  -15.9567 C   0  0  0  0  0  0  0  0  0  0  0  0
   27.6337  -17.8839  -16.9648 C   0  0  0  0  0  0  0  0  0  0  0  0
   28.1384  -17.4636  -18.2776 C   0  0  0  0  0  0  0  0  0  0  0  0
   27.0014  -16.9185  -19.0948 N   0  0  0  0  0  0  0  0  0  0  0  0
   27.5285  -20.6758  -12.9624 C   0  0  0  0  0  0  0  0  0  0  0  0
   26.4613  -21.3069  -13.1138 O   0  0  0  0  0  0  0  0  0  0  0  0
   27.9688  -20.3888  -11.6586 N   0  0  0  0  0  0  0  0  0  0  0  0
   27.1437  -20.7872  -10.5318 C   0  0  1  0  0  0  0  0  0  0  0  0
   27.8217  -20.5296   -9.2176 C   0  0  0  0  0  0  0  0  0  0  0  0
   27.0196  -20.7067   -8.0152 C   0  0  0  0  0  0  0  0  0  0  0  0
   25.7709  -21.2267   -7.7874 C   0  0  0  0  0  0  0  0  0  0  0  0
   25.5317  -21.1442   -6.4811 N   0  0  0  0  0  0  0  0  0  0  0  0
   26.5677  -20.5921   -5.8329 C   0  0  0  0  0  0  0  0  0  0  0  0
   26.8005  -20.2924   -4.4939 C   0  0  0  0  0  0  0  0  0  0  0  0
   27.9944  -19.7079   -4.1320 C   0  0  0  0  0  0  0  0  0  0  0  0
   28.9807  -19.4019   -5.0411 C   0  0  0  0  0  0  0  0  0  0  0  0
   28.7093  -19.7169   -6.3622 C   0  0  0  0  0  0  0  0  0  0  0  0
   27.5246  -20.3027   -6.7636 C   0  0  0  0  0  0  0  0  0  0  0  0
   25.7660  -20.2923  -10.6476 C   0  0  0  0  0  0  0  0  0  0  0  0
   25.5778  -19.0442  -10.6424 O   0  0  0  0  0  0  0  0  0  0  0  0
   21.9660  -22.6279  -14.5433 N   0  0  0  0  0  0  0  0  0  0  0  0
   22.1834  -21.2366  -14.7019 C   0  0  0  0  0  0  0  0  0  0  0  0
   21.9729  -20.6914  -15.8041 O   0  0  0  0  0  0  0  0  0  0  0  0
   22.6602  -20.4259  -13.5604 C   0  0  0  0  0  0  0  0  0  0  0  0
   22.8461  -21.3224  -12.3736 C   0  0  0  0  0  0  0  0  0  0  0  0
   23.3072  -20.5594  -11.1533 C   0  0  2  0  0  0  0  0  0  0  0  0
   24.6119  -21.1049  -10.7679 N   0  0  0  0  0  0  0  0  0  0  0  0
   22.3407  -20.6540  -10.0669 C   0  0  0  0  0  0  0  0  0  0  0  0
   22.6368  -21.4212   -9.0916 O   0  0  0  0  0  0  0  0  0  0  0  0
   21.1314  -19.9872   -9.9969 O   0  0  0  0  0  0  0  0  0  0  0  0
  2  1  1  6
  2  3  1  0
  3  4  1  0
  5  6  1  0
  5  4  1  0
  7  6  1  0
  8  2  1  0
  9  8  2  0
 10  8  1  0
 11 22  1  0
 11 10  1  0
 11 12  1  1
 13 12  1  0
 14 13  2  0
 15 16  1  0
 15 14  1  0
 16 21  2  0
 17 18  2  0
 17 16  1  0
 18 19  1  0
 19 20  2  0
 21 20  1  0
 21 13  1  0
 22 30  1  0
 23 22  2  0
 25 24  1  0
 25 27  1  0
 26 25  2  0
 29 28  1  6
 28 27  1  0
 29 31  1  0
 30 29  1  0
 31 32  2  0
 31 33  1  0
M  END
$$$$
