KWQ.pdb
     RDKit          3D

 33 34  0  0  1  0  0  0  0  0999 V2000
   23.5494  -26.6882  -15.6934 N   0  0  0  0  0  0  0  0  0  0  0  0
   22.1899  -26.4176  -16.1835 C   0  0  1  0  0  0  0  0  0  0  0  0
   21.6135  -27.7329  -16.5496 C   0  0  0  0  0  0  0  0  0  0  0  0
   22.2837  -28.3562  -17.7126 C   0  0  0  0  0  0  0  0  0  0  0  0
   23.4171  -29.2533  -17.5390 C   0  0  0  0  0  0  0  0  0  0  0  0
   24.0758  -29.9573  -18.6459 C   0  0  0  0  0  0  0  0  0  0  0  0
   25.2511  -30.7279  -18.1142 N   0  0  0  0  0  0  0  0  0  0  0  0
   21.4264  -25.7697  -15.0649 C   0  0  0  0  0  0  0  0  0  0  0  0
   21.0470  -26.4690  -14.1019 O   0  0  0  0  0  0  0  0  0  0  0  0
   21.1244  -24.3968  -15.0680 N   0  0  0  0  0  0  0  0  0  0  0  0
   20.4289  -23.8250  -13.9284 C   0  0  1  0  0  0  0  0  0  0  0  0
   21.1367  -22.6188  -13.3832 C   0  0  0  0  0  0  0  0  0  0  0  0
   20.4824  -21.9050  -12.2957 C   0  0  0  0  0  0  0  0  0  0  0  0
   19.8597  -22.3146  -11.1441 C   0  0  0  0  0  0  0  0  0  0  0  0
   19.4399  -21.2264  -10.5036 N   0  0  0  0  0  0  0  0  0  0  0  0
   19.7574  -20.1132  -11.1805 C   0  0  0  0  0  0  0  0  0  0  0  0
   19.5424  -18.7597  -10.9382 C   0  0  0  0  0  0  0  0  0  0  0  0
   19.9975  -17.8317  -11.8491 C   0  0  0  0  0  0  0  0  0  0  0  0
   20.6626  -18.1817  -13.0014 C   0  0  0  0  0  0  0  0  0  0  0  0
   20.8562  -19.5381  -13.2040 C   0  0  0  0  0  0  0  0  0  0  0  0
   20.4145  -20.4979  -12.3144 C   0  0  0  0  0  0  0  0  0  0  0  0
   18.9908  -23.6636  -14.1771 C   0  0  0  0  0  0  0  0  0  0  0  0
   18.6297  -23.0989  -15.2467 O   0  0  0  0  0  0  0  0  0  0  0  0
   14.5409  -24.5144   -9.9041 N   0  0  0  0  0  0  0  0  0  0  0  0
   13.7355  -24.1870  -11.0231 C   0  0  0  0  0  0  0  0  0  0  0  0
   12.4919  -24.2289  -10.9334 O   0  0  0  0  0  0  0  0  0  0  0  0
   14.3671  -23.7937  -12.3014 C   0  0  0  0  0  0  0  0  0  0  0  0
   15.8535  -23.9367  -12.1716 C   0  0  0  0  0  0  0  0  0  0  0  0
   16.5655  -23.6642  -13.4765 C   0  0  2  0  0  0  0  0  0  0  0  0
   17.9568  -24.0937  -13.3094 N   0  0  0  0  0  0  0  0  0  0  0  0
   16.4760  -22.2588  -13.8510 C   0  0  0  0  0  0  0  0  0  0  0  0
   15.9549  -21.9921  -14.9844 O   0  0  0  0  0  0  0  0  0  0  0  0
   16.9045  -21.1876  -13.0888 O   0  0  0  0  0  0  0  0  0  0  0  0
  2  1  1  1
  2  3  1  0
  3  4  1  0
  5  6  1  0
  5  4  1  0
  7  6  1  0
  8  2  1  0
  9  8  2  0
 10  8  1  0
 11 22  1  0
 11 10  1  0
 11 12  1  6
 13 12  1  0
 14 13  2  0
 15 16  1  0
 15 14  1  0
 16 21  2  0
 17 18  2  0
 17 16  1  0
 18 19  1  0
 19 20  2  0
 21 20  1  0
 21 13  1  0
 22 30  1  0
 23 22  2  0
 25 24  1  0
 25 27  1  0
 26 25  2  0
 29 28  1  1
 28 27  1  0
 29 31  1  0
 30 29  1  0
 31 32  2  0
 31 33  1  0
M  END
$$$$
