KWQ.pdb
     RDKit          3D

 33 34  0  0  1  0  0  0  0  0999 V2000
   29.3016  -22.4998  -14.8190 N   0  0  0  0  0  0  0  0  0  0  0  0
   28.5771  -21.2304  -14.6606 C   0  0  1  0  0  0  0  0  0  0  0  0
   27.8068  -21.0357  -15.9116 C   0  0  0  0  0  0  0  0  0  0  0  0
   28.6687  -20.8478  -17.1000 C   0  0  0  0  0  0  0  0  0  0  0  0
   29.5495  -19.6947  -17.2189 C   0  0  0  0  0  0  0  0  0  0  0  0
   30.3911  -19.4300  -18.3921 C   0  0  0  0  0  0  0  0  0  0  0  0
   31.2088  -18.1934  -18.1471 N   0  0  0  0  0  0  0  0  0  0  0  0
   27.6740  -21.3705  -13.4697 C   0  0  0  0  0  0  0  0  0  0  0  0
   26.4900  -21.7293  -13.6424 O   0  0  0  0  0  0  0  0  0  0  0  0
   28.1208  -21.1096  -12.1626 N   0  0  0  0  0  0  0  0  0  0  0  0
   27.1679  -21.1618  -11.0678 C   0  0  1  0  0  0  0  0  0  0  0  0
   27.8394  -21.0490   -9.7301 C   0  0  0  0  0  0  0  0  0  0  0  0
   26.9864  -20.7610   -8.5855 C   0  0  0  0  0  0  0  0  0  0  0  0
   25.6274  -20.7762   -8.3997 C   0  0  0  0  0  0  0  0  0  0  0  0
   25.3889  -20.4284   -7.1378 N   0  0  0  0  0  0  0  0  0  0  0  0
   26.5308  -20.1834   -6.4787 C   0  0  0  0  0  0  0  0  0  0  0  0
   26.8092  -19.7936   -5.1721 C   0  0  0  0  0  0  0  0  0  0  0  0
   28.1198  -19.6147   -4.7871 C   0  0  0  0  0  0  0  0  0  0  0  0
   29.1808  -19.8049   -5.6421 C   0  0  0  0  0  0  0  0  0  0  0  0
   28.8602  -20.1928   -6.9325 C   0  0  0  0  0  0  0  0  0  0  0  0
   27.5591  -20.3818   -7.3555 C   0  0  0  0  0  0  0  0  0  0  0  0
   26.0213  -20.2704  -11.2842 C   0  0  0  0  0  0  0  0  0  0  0  0
   26.2430  -19.1101  -11.7291 O   0  0  0  0  0  0  0  0  0  0  0  0
   24.1384  -21.6510  -15.7355 N   0  0  0  0  0  0  0  0  0  0  0  0
   23.0112  -20.8119  -15.5533 C   0  0  0  0  0  0  0  0  0  0  0  0
   22.2382  -20.5856  -16.5061 O   0  0  0  0  0  0  0  0  0  0  0  0
   22.7471  -20.2019  -14.2321 C   0  0  0  0  0  0  0  0  0  0  0  0
   23.8136  -20.6398  -13.2742 C   0  0  0  0  0  0  0  0  0  0  0  0
   23.5727  -20.1137  -11.8781 C   0  0  2  0  0  0  0  0  0  0  0  0
   24.6671  -20.6036  -11.0351 N   0  0  0  0  0  0  0  0  0  0  0  0
   22.2720  -20.5274  -11.3680 C   0  0  0  0  0  0  0  0  0  0  0  0
   22.2511  -21.5224  -10.5699 O   0  0  0  0  0  0  0  0  0  0  0  0
   21.0578  -19.9390  -11.6703 O   0  0  0  0  0  0  0  0  0  0  0  0
  2  1  1  6
  2  3  1  0
  3  4  1  0
  5  6  1  0
  5  4  1  0
  7  6  1  0
  8  2  1  0
  9  8  2  0
 10  8  1  0
 11 22  1  0
 11 10  1  0
 11 12  1  1
 13 12  1  0
 14 13  2  0
 15 16  1  0
 15 14  1  0
 16 21  2  0
 17 18  2  0
 17 16  1  0
 18 19  1  0
 19 20  2  0
 21 20  1  0
 21 13  1  0
 22 30  1  0
 23 22  2  0
 25 24  1  0
 25 27  1  0
 26 25  2  0
 29 28  1  6
 28 27  1  0
 29 31  1  0
 30 29  1  0
 31 32  2  0
 31 33  1  0
M  END
$$$$
