KWQ.pdb
     RDKit          3D

 33 34  0  0  1  0  0  0  0  0999 V2000
   19.9316   -5.0555  -15.9150 N   0  0  0  0  0  0  0  0  0  0  0  0
   19.8354   -6.5198  -15.8263 C   0  0  1  0  0  0  0  0  0  0  0  0
   18.8036   -6.9262  -16.8095 C   0  0  0  0  0  0  0  0  0  0  0  0
   17.4275   -6.5968  -16.3757 C   0  0  0  0  0  0  0  0  0  0  0  0
   16.2680   -7.0826  -17.1099 C   0  0  0  0  0  0  0  0  0  0  0  0
   14.8808   -6.8114  -16.7139 C   0  0  0  0  0  0  0  0  0  0  0  0
   14.7104   -7.1286  -15.2551 N   0  0  0  0  0  0  0  0  0  0  0  0
   21.1832   -7.0835  -16.1722 C   0  0  0  0  0  0  0  0  0  0  0  0
   21.9157   -6.4629  -16.9712 O   0  0  0  0  0  0  0  0  0  0  0  0
   21.6473   -8.2915  -15.6231 N   0  0  0  0  0  0  0  0  0  0  0  0
   22.9598   -8.7818  -16.0054 C   0  0  1  0  0  0  0  0  0  0  0  0
   23.7522   -9.2539  -14.8212 C   0  0  0  0  0  0  0  0  0  0  0  0
   24.9911   -9.9674  -15.0979 C   0  0  0  0  0  0  0  0  0  0  0  0
   25.4924  -11.1747  -14.6824 C   0  0  0  0  0  0  0  0  0  0  0  0
   26.6824  -11.3361  -15.2554 N   0  0  0  0  0  0  0  0  0  0  0  0
   26.9917  -10.2883  -16.0331 C   0  0  0  0  0  0  0  0  0  0  0  0
   28.0965   -9.9842  -16.8229 C   0  0  0  0  0  0  0  0  0  0  0  0
   28.1208   -8.7950  -17.5180 C   0  0  0  0  0  0  0  0  0  0  0  0
   27.0934   -7.8814  -17.4692 C   0  0  0  0  0  0  0  0  0  0  0  0
   26.0131   -8.2229  -16.6724 C   0  0  0  0  0  0  0  0  0  0  0  0
   25.9524   -9.4050  -15.9606 C   0  0  0  0  0  0  0  0  0  0  0  0
   22.8989   -9.7077  -17.1434 C   0  0  0  0  0  0  0  0  0  0  0  0
   22.0372  -10.6297  -17.1172 O   0  0  0  0  0  0  0  0  0  0  0  0
   26.1496   -9.3387  -22.4749 N   0  0  0  0  0  0  0  0  0  0  0  0
   25.2720  -10.4072  -22.7848 C   0  0  0  0  0  0  0  0  0  0  0  0
   25.2702  -10.9046  -23.9289 O   0  0  0  0  0  0  0  0  0  0  0  0
   24.3552  -10.9368  -21.7520 C   0  0  0  0  0  0  0  0  0  0  0  0
   24.5306  -10.1406  -20.4942 C   0  0  0  0  0  0  0  0  0  0  0  0
   23.6048  -10.6066  -19.3944 C   0  0  2  0  0  0  0  0  0  0  0  0
   23.7341   -9.6558  -18.2865 N   0  0  0  0  0  0  0  0  0  0  0  0
   23.9142  -11.9677  -18.9761 C   0  0  0  0  0  0  0  0  0  0  0  0
   24.9109  -12.1226  -18.1951 O   0  0  0  0  0  0  0  0  0  0  0  0
   23.2251  -13.1071  -19.3487 O   0  0  0  0  0  0  0  0  0  0  0  0
  2  1  1  6
  2  3  1  0
  3  4  1  0
  5  6  1  0
  5  4  1  0
  7  6  1  0
  8  2  1  0
  9  8  2  0
 10  8  1  0
 11 22  1  0
 11 10  1  0
 11 12  1  1
 13 12  1  0
 14 13  2  0
 15 16  1  0
 15 14  1  0
 16 21  2  0
 17 18  2  0
 17 16  1  0
 18 19  1  0
 19 20  2  0
 21 20  1  0
 21 13  1  0
 22 30  1  0
 23 22  2  0
 25 24  1  0
 25 27  1  0
 26 25  2  0
 29 28  1  6
 28 27  1  0
 29 31  1  0
 30 29  1  0
 31 32  2  0
 31 33  1  0
M  END
$$$$
