KWQ.pdb
     RDKit          3D

 33 34  0  0  1  0  0  0  0  0999 V2000
   28.6589  -22.6163  -15.7274 N   0  0  0  0  0  0  0  0  0  0  0  0
   28.2743  -21.2700  -15.2790 C   0  0  1  0  0  0  0  0  0  0  0  0
   27.4929  -20.6729  -16.3876 C   0  0  0  0  0  0  0  0  0  0  0  0
   28.3216  -20.3404  -17.5678 C   0  0  0  0  0  0  0  0  0  0  0  0
   29.3257  -19.2876  -17.5126 C   0  0  0  0  0  0  0  0  0  0  0  0
   29.8280  -18.5780  -18.6953 C   0  0  0  0  0  0  0  0  0  0  0  0
   30.7667  -19.4757  -19.4509 N   0  0  0  0  0  0  0  0  0  0  0  0
   27.4448  -21.4264  -14.0375 C   0  0  0  0  0  0  0  0  0  0  0  0
   26.2756  -21.8547  -14.1366 O   0  0  0  0  0  0  0  0  0  0  0  0
   27.9447  -21.1047  -12.7636 N   0  0  0  0  0  0  0  0  0  0  0  0
   27.0539  -21.1730  -11.6185 C   0  0  1  0  0  0  0  0  0  0  0  0
   27.7609  -20.8504  -10.3343 C   0  0  0  0  0  0  0  0  0  0  0  0
   26.9322  -20.6830   -9.1486 C   0  0  0  0  0  0  0  0  0  0  0  0
   25.5836  -20.7910   -8.9226 C   0  0  0  0  0  0  0  0  0  0  0  0
   25.3685  -20.5339   -7.6349 N   0  0  0  0  0  0  0  0  0  0  0  0
   26.5161  -20.2602   -6.9974 C   0  0  0  0  0  0  0  0  0  0  0  0
   26.8158  -19.9328   -5.6784 C   0  0  0  0  0  0  0  0  0  0  0  0
   28.1262  -19.6985   -5.3235 C   0  0  0  0  0  0  0  0  0  0  0  0
   29.1666  -19.7732   -6.2206 C   0  0  0  0  0  0  0  0  0  0  0  0
   28.8252  -20.1022   -7.5220 C   0  0  0  0  0  0  0  0  0  0  0  0
   27.5236  -20.3438   -7.9158 C   0  0  0  0  0  0  0  0  0  0  0  0
   25.7926  -20.4579  -11.8504 C   0  0  0  0  0  0  0  0  0  0  0  0
   25.8486  -19.2417  -12.1838 O   0  0  0  0  0  0  0  0  0  0  0  0
   24.1276  -19.8047  -15.9181 N   0  0  0  0  0  0  0  0  0  0  0  0
   23.4087  -18.7258  -15.3463 C   0  0  0  0  0  0  0  0  0  0  0  0
   23.3131  -17.6427  -15.9580 O   0  0  0  0  0  0  0  0  0  0  0  0
   22.7684  -18.8807  -14.0220 C   0  0  0  0  0  0  0  0  0  0  0  0
   23.0697  -20.2513  -13.4955 C   0  0  0  0  0  0  0  0  0  0  0  0
   23.2811  -20.2502  -11.9991 C   0  0  2  0  0  0  0  0  0  0  0  0
   24.4984  -21.0218  -11.7324 N   0  0  0  0  0  0  0  0  0  0  0  0
   22.1291  -20.7997  -11.2961 C   0  0  0  0  0  0  0  0  0  0  0  0
   22.2456  -21.9789  -10.8237 O   0  0  0  0  0  0  0  0  0  0  0  0
   20.9207  -20.1587  -11.0942 O   0  0  0  0  0  0  0  0  0  0  0  0
  2  1  1  6
  2  3  1  0
  3  4  1  0
  5  6  1  0
  5  4  1  0
  7  6  1  0
  8  2  1  0
  9  8  2  0
 10  8  1  0
 11 22  1  0
 11 10  1  0
 11 12  1  1
 13 12  1  0
 14 13  2  0
 15 16  1  0
 15 14  1  0
 16 21  2  0
 17 18  2  0
 17 16  1  0
 18 19  1  0
 19 20  2  0
 21 20  1  0
 21 13  1  0
 22 30  1  0
 23 22  2  0
 25 24  1  0
 25 27  1  0
 26 25  2  0
 29 28  1  6
 28 27  1  0
 29 31  1  0
 30 29  1  0
 31 32  2  0
 31 33  1  0
M  END
$$$$
