KWQ.pdb
     RDKit          3D

 33 34  0  0  1  0  0  0  0  0999 V2000
   28.9199  -22.5608  -15.9784 N   0  0  0  0  0  0  0  0  0  0  0  0
   27.5946  -23.1616  -16.1880 C   0  0  1  0  0  0  0  0  0  0  0  0
   27.8094  -24.6269  -16.2429 C   0  0  0  0  0  0  0  0  0  0  0  0
   28.8823  -25.0209  -17.1830 C   0  0  0  0  0  0  0  0  0  0  0  0
   29.2290  -26.4198  -17.3891 C   0  0  0  0  0  0  0  0  0  0  0  0
   30.2822  -26.8714  -18.3066 C   0  0  0  0  0  0  0  0  0  0  0  0
   30.4558  -28.3576  -18.1693 N   0  0  0  0  0  0  0  0  0  0  0  0
   26.7315  -22.7711  -15.0234 C   0  0  0  0  0  0  0  0  0  0  0  0
   26.1041  -23.6576  -14.4064 O   0  0  0  0  0  0  0  0  0  0  0  0
   26.6073  -21.4348  -14.6048 N   0  0  0  0  0  0  0  0  0  0  0  0
   25.7593  -21.1283  -13.4663 C   0  0  1  0  0  0  0  0  0  0  0  0
   26.3537  -20.0634  -12.5911 C   0  0  0  0  0  0  0  0  0  0  0  0
   27.5148  -20.4355  -11.7949 C   0  0  0  0  0  0  0  0  0  0  0  0
   28.8180  -20.7228  -12.1121 C   0  0  0  0  0  0  0  0  0  0  0  0
   29.4580  -20.9974  -10.9783 N   0  0  0  0  0  0  0  0  0  0  0  0
   28.6357  -20.9043   -9.9231 C   0  0  0  0  0  0  0  0  0  0  0  0
   28.8180  -21.0938   -8.5565 C   0  0  0  0  0  0  0  0  0  0  0  0
   27.7492  -20.9228   -7.7042 C   0  0  0  0  0  0  0  0  0  0  0  0
   26.4942  -20.5694   -8.1433 C   0  0  0  0  0  0  0  0  0  0  0  0
   26.3559  -20.3902   -9.5098 C   0  0  0  0  0  0  0  0  0  0  0  0
   27.4033  -20.5527  -10.3954 C   0  0  0  0  0  0  0  0  0  0  0  0
   24.3573  -20.9275  -13.8539 C   0  0  0  0  0  0  0  0  0  0  0  0
   24.0993  -20.0567  -14.7306 O   0  0  0  0  0  0  0  0  0  0  0  0
   18.9028  -24.1595  -13.7064 N   0  0  0  0  0  0  0  0  0  0  0  0
   18.8482  -23.2334  -12.6353 C   0  0  0  0  0  0  0  0  0  0  0  0
   17.8639  -23.2195  -11.8688 O   0  0  0  0  0  0  0  0  0  0  0  0
   19.9590  -22.2804  -12.4221 C   0  0  0  0  0  0  0  0  0  0  0  0
   21.0504  -22.5807  -13.4045 C   0  0  0  0  0  0  0  0  0  0  0  0
   21.8724  -21.3553  -13.7311 C   0  0  2  0  0  0  0  0  0  0  0  0
   23.2518  -21.6369  -13.3234 N   0  0  0  0  0  0  0  0  0  0  0  0
   21.3466  -20.1674  -13.0710 C   0  0  0  0  0  0  0  0  0  0  0  0
   20.3734  -19.5700  -13.6397 O   0  0  0  0  0  0  0  0  0  0  0  0
   21.8066  -19.6289  -11.8834 O   0  0  0  0  0  0  0  0  0  0  0  0
  2  1  1  1
  2  3  1  0
  3  4  1  0
  5  6  1  0
  5  4  1  0
  7  6  1  0
  8  2  1  0
  9  8  2  0
 10  8  1  0
 11 22  1  0
 11 10  1  0
 11 12  1  6
 13 12  1  0
 14 13  2  0
 15 16  1  0
 15 14  1  0
 16 21  2  0
 17 18  2  0
 17 16  1  0
 18 19  1  0
 19 20  2  0
 21 20  1  0
 21 13  1  0
 22 30  1  0
 23 22  2  0
 25 24  1  0
 25 27  1  0
 26 25  2  0
 29 28  1  1
 28 27  1  0
 29 31  1  0
 30 29  1  0
 31 32  2  0
 31 33  1  0
M  END
$$$$
