KWQ.pdb
     RDKit          3D

 33 34  0  0  1  0  0  0  0  0999 V2000
   28.2395  -20.6546  -14.9643 N   0  0  0  0  0  0  0  0  0  0  0  0
   27.0521  -21.4264  -15.3593 C   0  0  1  0  0  0  0  0  0  0  0  0
   27.5557  -22.7107  -15.9009 C   0  0  0  0  0  0  0  0  0  0  0  0
   28.3484  -22.5466  -17.1398 C   0  0  0  0  0  0  0  0  0  0  0  0
   29.7951  -22.7104  -17.1374 C   0  0  0  0  0  0  0  0  0  0  0  0
   30.6395  -22.5101  -18.3212 C   0  0  0  0  0  0  0  0  0  0  0  0
   32.0742  -22.7682  -17.9566 N   0  0  0  0  0  0  0  0  0  0  0  0
   26.2170  -21.6330  -14.1290 C   0  0  0  0  0  0  0  0  0  0  0  0
   25.6995  -22.7514  -13.9253 O   0  0  0  0  0  0  0  0  0  0  0  0
   25.9988  -20.6037  -13.1967 N   0  0  0  0  0  0  0  0  0  0  0  0
   25.1387  -20.8574  -12.0543 C   0  0  1  0  0  0  0  0  0  0  0  0
   25.6512  -20.2005  -10.8058 C   0  0  0  0  0  0  0  0  0  0  0  0
   26.9217  -20.6811  -10.2809 C   0  0  0  0  0  0  0  0  0  0  0  0
   27.9665  -21.3734  -10.8383 C   0  0  0  0  0  0  0  0  0  0  0  0
   28.8865  -21.5456   -9.8926 N   0  0  0  0  0  0  0  0  0  0  0  0
   28.4972  -20.9973   -8.7324 C   0  0  0  0  0  0  0  0  0  0  0  0
   29.0880  -20.9135   -7.4751 C   0  0  0  0  0  0  0  0  0  0  0  0
   28.4174  -20.2718   -6.4570 C   0  0  0  0  0  0  0  0  0  0  0  0
   27.1763  -19.7023   -6.6243 C   0  0  0  0  0  0  0  0  0  0  0  0
   26.6243  -19.8074   -7.8902 C   0  0  0  0  0  0  0  0  0  0  0  0
   27.2654  -20.4430   -8.9356 C   0  0  0  0  0  0  0  0  0  0  0  0
   23.7215  -20.6268  -12.3618 C   0  0  0  0  0  0  0  0  0  0  0  0
   23.3773  -19.4818  -12.7666 O   0  0  0  0  0  0  0  0  0  0  0  0
   20.8623  -24.5404  -14.8981 N   0  0  0  0  0  0  0  0  0  0  0  0
   20.0180  -23.4577  -15.2484 C   0  0  0  0  0  0  0  0  0  0  0  0
   19.4287  -23.4533  -16.3481 O   0  0  0  0  0  0  0  0  0  0  0  0
   19.8319  -22.3292  -14.3107 C   0  0  0  0  0  0  0  0  0  0  0  0
   20.6734  -22.5670  -13.0933 C   0  0  0  0  0  0  0  0  0  0  0  0
   21.2953  -21.2905  -12.5756 C   0  0  2  0  0  0  0  0  0  0  0  0
   22.6908  -21.5914  -12.2436 N   0  0  0  0  0  0  0  0  0  0  0  0
   20.5675  -20.7694  -11.4258 C   0  0  0  0  0  0  0  0  0  0  0  0
   20.9423  -21.1665  -10.2729 O   0  0  0  0  0  0  0  0  0  0  0  0
   19.5072  -19.8830  -11.4709 O   0  0  0  0  0  0  0  0  0  0  0  0
  2  1  1  1
  2  3  1  0
  3  4  1  0
  5  6  1  0
  5  4  1  0
  7  6  1  0
  8  2  1  0
  9  8  2  0
 10  8  1  0
 11 22  1  0
 11 10  1  0
 11 12  1  1
 13 12  1  0
 14 13  2  0
 15 16  1  0
 15 14  1  0
 16 21  2  0
 17 18  2  0
 17 16  1  0
 18 19  1  0
 19 20  2  0
 21 20  1  0
 21 13  1  0
 22 30  1  0
 23 22  2  0
 25 24  1  0
 25 27  1  0
 26 25  2  0
 29 28  1  1
 28 27  1  0
 29 31  1  0
 30 29  1  0
 31 32  2  0
 31 33  1  0
M  END
$$$$
