KWQ.pdb
     RDKit          3D

 33 34  0  0  1  0  0  0  0  0999 V2000
   27.3313  -22.7411  -17.4679 N   0  0  0  0  0  0  0  0  0  0  0  0
   28.2530  -22.9040  -16.3341 C   0  0  1  0  0  0  0  0  0  0  0  0
   29.5260  -22.2636  -16.7414 C   0  0  0  0  0  0  0  0  0  0  0  0
   30.4386  -23.1873  -17.4515 C   0  0  0  0  0  0  0  0  0  0  0  0
   30.4325  -24.6164  -17.1733 C   0  0  0  0  0  0  0  0  0  0  0  0
   31.3334  -25.5765  -17.8225 C   0  0  0  0  0  0  0  0  0  0  0  0
   31.1438  -26.9320  -17.2024 N   0  0  0  0  0  0  0  0  0  0  0  0
   27.6397  -22.2145  -15.1499 C   0  0  0  0  0  0  0  0  0  0  0  0
   28.2875  -22.1432  -14.0843 O   0  0  0  0  0  0  0  0  0  0  0  0
   26.3554  -21.6455  -15.2034 N   0  0  0  0  0  0  0  0  0  0  0  0
   25.7532  -21.1470  -13.9794 C   0  0  1  0  0  0  0  0  0  0  0  0
   26.5746  -20.0603  -13.3490 C   0  0  0  0  0  0  0  0  0  0  0  0
   27.4377  -20.4438  -12.2407 C   0  0  0  0  0  0  0  0  0  0  0  0
   28.7461  -20.8489  -12.1660 C   0  0  0  0  0  0  0  0  0  0  0  0
   29.0274  -21.0697  -10.8843 N   0  0  0  0  0  0  0  0  0  0  0  0
   27.9624  -20.8283  -10.1060 C   0  0  0  0  0  0  0  0  0  0  0  0
   27.7500  -20.9120   -8.7332 C   0  0  0  0  0  0  0  0  0  0  0  0
   26.5108  -20.5930   -8.2226 C   0  0  0  0  0  0  0  0  0  0  0  0
   25.4593  -20.1907   -9.0133 C   0  0  0  0  0  0  0  0  0  0  0  0
   25.7130  -20.1202  -10.3731 C   0  0  0  0  0  0  0  0  0  0  0  0
   26.9414  -20.4321  -10.9222 C   0  0  0  0  0  0  0  0  0  0  0  0
   24.3233  -20.8549  -14.1409 C   0  0  0  0  0  0  0  0  0  0  0  0
   23.9848  -19.9770  -14.9824 O   0  0  0  0  0  0  0  0  0  0  0  0
   21.9031  -25.7298  -14.3884 N   0  0  0  0  0  0  0  0  0  0  0  0
   20.8892  -24.7761  -14.1230 C   0  0  0  0  0  0  0  0  0  0  0  0
   19.7271  -24.9662  -14.5351 O   0  0  0  0  0  0  0  0  0  0  0  0
   21.2054  -23.5521  -13.3554 C   0  0  0  0  0  0  0  0  0  0  0  0
   21.2308  -22.3842  -14.2946 C   0  0  0  0  0  0  0  0  0  0  0  0
   21.8634  -21.1643  -13.6656 C   0  0  2  0  0  0  0  0  0  0  0  0
   23.2739  -21.4822  -13.4253 N   0  0  0  0  0  0  0  0  0  0  0  0
   21.1798  -20.7811  -12.4370 C   0  0  0  0  0  0  0  0  0  0  0  0
   21.8138  -20.9499  -11.3430 O   0  0  0  0  0  0  0  0  0  0  0  0
   19.9059  -20.2507  -12.3494 O   0  0  0  0  0  0  0  0  0  0  0  0
  2  1  1  6
  2  3  1  0
  3  4  1  0
  5  6  1  0
  5  4  1  0
  7  6  1  0
  8  2  1  0
  9  8  2  0
 10  8  1  0
 11 22  1  0
 11 10  1  0
 11 12  1  6
 13 12  1  0
 14 13  2  0
 15 16  1  0
 15 14  1  0
 16 21  2  0
 17 18  2  0
 17 16  1  0
 18 19  1  0
 19 20  2  0
 21 20  1  0
 21 13  1  0
 22 30  1  0
 23 22  2  0
 25 24  1  0
 25 27  1  0
 26 25  2  0
 29 28  1  1
 28 27  1  0
 29 31  1  0
 30 29  1  0
 31 32  2  0
 31 33  1  0
M  END
$$$$
