KWQ.pdb
     RDKit          3D

 33 34  0  0  1  0  0  0  0  0999 V2000
   26.4324  -34.9152   -8.4713 N   0  0  0  0  0  0  0  0  0  0  0  0
   26.6218  -33.8495   -7.4763 C   0  0  1  0  0  0  0  0  0  0  0  0
   25.2833  -33.2561   -7.2468 C   0  0  0  0  0  0  0  0  0  0  0  0
   24.9992  -32.1057   -8.1335 C   0  0  0  0  0  0  0  0  0  0  0  0
   23.8317  -32.0934   -9.0032 C   0  0  0  0  0  0  0  0  0  0  0  0
   23.5567  -31.0353   -9.9827 C   0  0  0  0  0  0  0  0  0  0  0  0
   22.2046  -31.2664  -10.5960 N   0  0  0  0  0  0  0  0  0  0  0  0
   27.1673  -34.4853   -6.2306 C   0  0  0  0  0  0  0  0  0  0  0  0
   26.9711  -35.7029   -6.0326 O   0  0  0  0  0  0  0  0  0  0  0  0
   27.8939  -33.7506   -5.2775 N   0  0  0  0  0  0  0  0  0  0  0  0
   28.5067  -34.4524   -4.1633 C   0  0  1  0  0  0  0  0  0  0  0  0
   29.8801  -33.9310   -3.8554 C   0  0  0  0  0  0  0  0  0  0  0  0
   30.9631  -34.3703   -4.7240 C   0  0  0  0  0  0  0  0  0  0  0  0
   31.1561  -34.3234   -6.0813 C   0  0  0  0  0  0  0  0  0  0  0  0
   32.3412  -34.8706   -6.3393 N   0  0  0  0  0  0  0  0  0  0  0  0
   32.9424  -35.2780   -5.2120 C   0  0  0  0  0  0  0  0  0  0  0  0
   34.1616  -35.8984   -4.9558 C   0  0  0  0  0  0  0  0  0  0  0  0
   34.5031  -36.2017   -3.6560 C   0  0  0  0  0  0  0  0  0  0  0  0
   33.6875  -35.9180   -2.5850 C   0  0  0  0  0  0  0  0  0  0  0  0
   32.4843  -35.3003   -2.8835 C   0  0  0  0  0  0  0  0  0  0  0  0
   32.1069  -34.9809   -4.1731 C   0  0  0  0  0  0  0  0  0  0  0  0
   27.5987  -34.5770   -3.0161 C   0  0  0  0  0  0  0  0  0  0  0  0
   27.0528  -33.5296   -2.5705 O   0  0  0  0  0  0  0  0  0  0  0  0
   27.1656  -39.5455   -1.8896 N   0  0  0  0  0  0  0  0  0  0  0  0
   27.7972  -39.1006   -0.7017 C   0  0  0  0  0  0  0  0  0  0  0  0
   28.7253  -39.7658   -0.1990 O   0  0  0  0  0  0  0  0  0  0  0  0
   27.3584  -37.8454   -0.0542 C   0  0  0  0  0  0  0  0  0  0  0  0
   26.2004  -37.2831   -0.8221 C   0  0  0  0  0  0  0  0  0  0  0  0
   26.4072  -35.8284   -1.1756 C   0  0  2  0  0  0  0  0  0  0  0  0
   27.2751  -35.7880   -2.3560 N   0  0  0  0  0  0  0  0  0  0  0  0
   26.9776  -35.0833   -0.0608 C   0  0  0  0  0  0  0  0  0  0  0  0
   28.2225  -34.8112   -0.1208 O   0  0  0  0  0  0  0  0  0  0  0  0
   26.2917  -34.6439    1.0565 O   0  0  0  0  0  0  0  0  0  0  0  0
  2  1  1  6
  2  3  1  0
  3  4  1  0
  5  6  1  0
  5  4  1  0
  7  6  1  0
  8  2  1  0
  9  8  2  0
 10  8  1  0
 11 22  1  0
 11 10  1  0
 11 12  1  1
 13 12  1  0
 14 13  2  0
 15 16  1  0
 15 14  1  0
 16 21  2  0
 17 18  2  0
 17 16  1  0
 18 19  1  0
 19 20  2  0
 21 20  1  0
 21 13  1  0
 22 30  1  0
 23 22  2  0
 25 24  1  0
 25 27  1  0
 26 25  2  0
 29 28  1  1
 28 27  1  0
 29 31  1  0
 30 29  1  0
 31 32  2  0
 31 33  1  0
M  END
$$$$
