KWQ.pdb
     RDKit          3D

 33 34  0  0  1  0  0  0  0  0999 V2000
   28.6613  -19.1715  -15.2242 N   0  0  0  0  0  0  0  0  0  0  0  0
   27.3745  -19.7906  -15.5741 C   0  0  1  0  0  0  0  0  0  0  0  0
   27.6635  -20.7597  -16.6574 C   0  0  0  0  0  0  0  0  0  0  0  0
   28.5342  -20.2028  -17.7166 C   0  0  0  0  0  0  0  0  0  0  0  0
   29.4445  -21.0533  -18.4701 C   0  0  0  0  0  0  0  0  0  0  0  0
   30.4386  -20.5414  -19.4210 C   0  0  0  0  0  0  0  0  0  0  0  0
   31.3790  -21.6502  -19.8006 N   0  0  0  0  0  0  0  0  0  0  0  0
   26.8519  -20.4740  -14.3438 C   0  0  0  0  0  0  0  0  0  0  0  0
   25.9312  -21.3105  -14.4568 O   0  0  0  0  0  0  0  0  0  0  0  0
   27.3681  -20.2007  -13.0651 N   0  0  0  0  0  0  0  0  0  0  0  0
   26.6269  -20.6410  -11.8963 C   0  0  1  0  0  0  0  0  0  0  0  0
   27.4437  -20.5430  -10.6409 C   0  0  0  0  0  0  0  0  0  0  0  0
   26.7221  -20.6028   -9.3775 C   0  0  0  0  0  0  0  0  0  0  0  0
   25.5041  -21.1194   -9.0153 C   0  0  0  0  0  0  0  0  0  0  0  0
   25.3435  -20.8987   -7.7130 N   0  0  0  0  0  0  0  0  0  0  0  0
   26.4023  -20.2585   -7.1960 C   0  0  0  0  0  0  0  0  0  0  0  0
   26.7088  -19.8091   -5.9150 C   0  0  0  0  0  0  0  0  0  0  0  0
   27.9067  -19.1649   -5.6957 C   0  0  0  0  0  0  0  0  0  0  0  0
   28.8268  -18.9411   -6.6937 C   0  0  0  0  0  0  0  0  0  0  0  0
   28.4832  -19.4044   -7.9530 C   0  0  0  0  0  0  0  0  0  0  0  0
   27.2921  -20.0541   -8.2119 C   0  0  0  0  0  0  0  0  0  0  0  0
   25.2844  -20.0496  -11.8326 C   0  0  0  0  0  0  0  0  0  0  0  0
   25.1623  -18.8181  -12.0812 O   0  0  0  0  0  0  0  0  0  0  0  0
   22.8224  -18.5142  -16.2636 N   0  0  0  0  0  0  0  0  0  0  0  0
   21.8970  -19.0446  -15.3308 C   0  0  0  0  0  0  0  0  0  0  0  0
   20.8661  -19.6224  -15.7306 O   0  0  0  0  0  0  0  0  0  0  0  0
   22.1508  -18.9154  -13.8794 C   0  0  0  0  0  0  0  0  0  0  0  0
   22.6582  -20.2258  -13.3577 C   0  0  0  0  0  0  0  0  0  0  0  0
   22.7666  -20.2324  -11.8504 C   0  0  2  0  0  0  0  0  0  0  0  0
   24.0955  -20.7507  -11.5133 N   0  0  0  0  0  0  0  0  0  0  0  0
   21.7074  -21.0267  -11.2417 C   0  0  0  0  0  0  0  0  0  0  0  0
   22.0422  -22.1463  -10.7303 O   0  0  0  0  0  0  0  0  0  0  0  0
   20.3717  -20.6767  -11.1679 O   0  0  0  0  0  0  0  0  0  0  0  0
  2  1  1  1
  2  3  1  0
  3  4  1  0
  5  6  1  0
  5  4  1  0
  7  6  1  0
  8  2  1  0
  9  8  2  0
 10  8  1  0
 11 22  1  0
 11 10  1  0
 11 12  1  1
 13 12  1  0
 14 13  2  0
 15 16  1  0
 15 14  1  0
 16 21  2  0
 17 18  2  0
 17 16  1  0
 18 19  1  0
 19 20  2  0
 21 20  1  0
 21 13  1  0
 22 30  1  0
 23 22  2  0
 25 24  1  0
 25 27  1  0
 26 25  2  0
 29 28  1  6
 28 27  1  0
 29 31  1  0
 30 29  1  0
 31 32  2  0
 31 33  1  0
M  END
$$$$
