KWQ.pdb
     RDKit          3D

 33 34  0  0  1  0  0  0  0  0999 V2000
   28.2611  -20.0434  -15.5446 N   0  0  0  0  0  0  0  0  0  0  0  0
   27.8750  -21.4616  -15.5104 C   0  0  1  0  0  0  0  0  0  0  0  0
   29.1376  -22.2310  -15.4095 C   0  0  0  0  0  0  0  0  0  0  0  0
   30.0199  -22.0542  -16.5845 C   0  0  0  0  0  0  0  0  0  0  0  0
   29.6624  -22.6003  -17.8858 C   0  0  0  0  0  0  0  0  0  0  0  0
   30.5482  -22.5638  -19.0558 C   0  0  0  0  0  0  0  0  0  0  0  0
   29.9074  -23.3175  -20.1868 N   0  0  0  0  0  0  0  0  0  0  0  0
   27.0043  -21.6644  -14.3044 C   0  0  0  0  0  0  0  0  0  0  0  0
   26.6902  -22.8259  -13.9688 O   0  0  0  0  0  0  0  0  0  0  0  0
   26.5303  -20.5846  -13.5392 N   0  0  0  0  0  0  0  0  0  0  0  0
   25.6141  -20.8455  -12.4429 C   0  0  1  0  0  0  0  0  0  0  0  0
   26.0531  -20.1802  -11.1710 C   0  0  0  0  0  0  0  0  0  0  0  0
   27.2405  -20.7170  -10.5210 C   0  0  0  0  0  0  0  0  0  0  0  0
   28.3709  -21.3347  -10.9923 C   0  0  0  0  0  0  0  0  0  0  0  0
   29.1425  -21.6168   -9.9456 N   0  0  0  0  0  0  0  0  0  0  0  0
   28.5729  -21.2127   -8.8009 C   0  0  0  0  0  0  0  0  0  0  0  0
   28.9673  -21.2790   -7.4679 C   0  0  0  0  0  0  0  0  0  0  0  0
   28.1390  -20.7658   -6.4940 C   0  0  0  0  0  0  0  0  0  0  0  0
   26.9253  -20.1836   -6.7780 C   0  0  0  0  0  0  0  0  0  0  0  0
   26.5711  -20.1374   -8.1162 C   0  0  0  0  0  0  0  0  0  0  0  0
   27.3742  -20.6412   -9.1206 C   0  0  0  0  0  0  0  0  0  0  0  0
   24.2126  -20.6313  -12.8250 C   0  0  0  0  0  0  0  0  0  0  0  0
   23.9037  -19.5362  -13.3717 O   0  0  0  0  0  0  0  0  0  0  0  0
   19.7828  -24.8559  -13.7299 N   0  0  0  0  0  0  0  0  0  0  0  0
   19.0101  -23.6749  -13.8572 C   0  0  0  0  0  0  0  0  0  0  0  0
   17.8032  -23.7463  -14.1652 O   0  0  0  0  0  0  0  0  0  0  0  0
   19.6322  -22.3534  -13.6247 C   0  0  0  0  0  0  0  0  0  0  0  0
   21.0579  -22.5554  -13.2085 C   0  0  0  0  0  0  0  0  0  0  0  0
   21.7675  -21.2443  -12.9605 C   0  0  2  0  0  0  0  0  0  0  0  0
   23.1606  -21.5603  -12.6325 N   0  0  0  0  0  0  0  0  0  0  0  0
   21.1235  -20.4802  -11.8999 C   0  0  0  0  0  0  0  0  0  0  0  0
   21.5219  -20.6934  -10.7069 O   0  0  0  0  0  0  0  0  0  0  0  0
   20.1197  -19.5446  -12.0693 O   0  0  0  0  0  0  0  0  0  0  0  0
  2  1  1  1
  2  3  1  0
  3  4  1  0
  5  6  1  0
  5  4  1  0
  7  6  1  0
  8  2  1  0
  9  8  2  0
 10  8  1  0
 11 22  1  0
 11 10  1  0
 11 12  1  1
 13 12  1  0
 14 13  2  0
 15 16  1  0
 15 14  1  0
 16 21  2  0
 17 18  2  0
 17 16  1  0
 18 19  1  0
 19 20  2  0
 21 20  1  0
 21 13  1  0
 22 30  1  0
 23 22  2  0
 25 24  1  0
 25 27  1  0
 26 25  2  0
 29 28  1  1
 28 27  1  0
 29 31  1  0
 30 29  1  0
 31 32  2  0
 31 33  1  0
M  END
$$$$
