KWQ.pdb
     RDKit          3D

 33 34  0  0  1  0  0  0  0  0999 V2000
   28.5163  -21.5990  -16.2027 N   0  0  0  0  0  0  0  0  0  0  0  0
   27.2109  -22.2726  -16.2635 C   0  0  1  0  0  0  0  0  0  0  0  0
   27.4851  -23.6676  -16.6820 C   0  0  0  0  0  0  0  0  0  0  0  0
   28.7183  -23.7989  -17.4896 C   0  0  0  0  0  0  0  0  0  0  0  0
   28.8196  -23.2045  -18.8147 C   0  0  0  0  0  0  0  0  0  0  0  0
   29.0095  -23.9831  -20.0445 C   0  0  0  0  0  0  0  0  0  0  0  0
   29.0717  -23.0480  -21.2190 N   0  0  0  0  0  0  0  0  0  0  0  0
   26.6074  -22.2144  -14.8900 C   0  0  0  0  0  0  0  0  0  0  0  0
   25.6276  -22.9421  -14.6243 O   0  0  0  0  0  0  0  0  0  0  0  0
   27.1123  -21.3636  -13.8913 N   0  0  0  0  0  0  0  0  0  0  0  0
   26.4350  -21.3027  -12.6080 C   0  0  1  0  0  0  0  0  0  0  0  0
   27.3046  -20.7074  -11.5392 C   0  0  0  0  0  0  0  0  0  0  0  0
   26.6770  -20.4334  -10.2541 C   0  0  0  0  0  0  0  0  0  0  0  0
   25.3700  -20.3483   -9.8464 C   0  0  0  0  0  0  0  0  0  0  0  0
   25.3707  -20.0748   -8.5443 N   0  0  0  0  0  0  0  0  0  0  0  0
   26.6214  -19.9749   -8.0709 C   0  0  0  0  0  0  0  0  0  0  0  0
   27.1410  -19.7062   -6.8081 C   0  0  0  0  0  0  0  0  0  0  0  0
   28.5073  -19.6662   -6.6364 C   0  0  0  0  0  0  0  0  0  0  0  0
   29.3949  -19.8816   -7.6652 C   0  0  0  0  0  0  0  0  0  0  0  0
   28.8366  -20.1461   -8.9049 C   0  0  0  0  0  0  0  0  0  0  0  0
   27.4726  -20.1942   -9.1163 C   0  0  0  0  0  0  0  0  0  0  0  0
   25.0829  -20.7407  -12.7179 C   0  0  0  0  0  0  0  0  0  0  0  0
   24.9662  -19.4955  -12.8891 O   0  0  0  0  0  0  0  0  0  0  0  0
   19.5317  -21.6150  -15.1005 N   0  0  0  0  0  0  0  0  0  0  0  0
   20.7845  -21.7972  -15.7370 C   0  0  0  0  0  0  0  0  0  0  0  0
   20.8553  -21.8328  -16.9821 O   0  0  0  0  0  0  0  0  0  0  0  0
   22.0131  -21.9451  -14.9268 C   0  0  0  0  0  0  0  0  0  0  0  0
   21.6552  -21.8195  -13.4767 C   0  0  0  0  0  0  0  0  0  0  0  0
   22.5610  -20.8517  -12.7508 C   0  0  2  0  0  0  0  0  0  0  0  0
   23.8792  -21.4845  -12.6490 N   0  0  0  0  0  0  0  0  0  0  0  0
   22.0283  -20.5010  -11.4407 C   0  0  0  0  0  0  0  0  0  0  0  0
   21.1301  -19.5959  -11.4025 O   0  0  0  0  0  0  0  0  0  0  0  0
   22.4080  -21.0605  -10.2346 O   0  0  0  0  0  0  0  0  0  0  0  0
  2  1  1  1
  2  3  1  0
  3  4  1  0
  5  6  1  0
  5  4  1  0
  7  6  1  0
  8  2  1  0
  9  8  2  0
 10  8  1  0
 11 22  1  0
 11 10  1  0
 11 12  1  1
 13 12  1  0
 14 13  2  0
 15 16  1  0
 15 14  1  0
 16 21  2  0
 17 18  2  0
 17 16  1  0
 18 19  1  0
 19 20  2  0
 21 20  1  0
 21 13  1  0
 22 30  1  0
 23 22  2  0
 25 24  1  0
 25 27  1  0
 26 25  2  0
 29 28  1  1
 28 27  1  0
 29 31  1  0
 30 29  1  0
 31 32  2  0
 31 33  1  0
M  END
$$$$
