SKF.pdb
     RDKit          3D

 27 27  0  0  1  0  0  0  0  0999 V2000
   25.2795  -13.5067  -15.2124 O   0  0  0  0  0  0  0  0  0  0  0  0
   24.3864  -12.4861  -15.5584 C   0  0  0  0  0  0  0  0  0  0  0  0
   23.5745  -12.9701  -16.7399 C   0  0  2  0  0  0  0  0  0  0  0  0
   24.4609  -13.0016  -17.8814 N   0  0  0  0  0  0  0  0  0  0  0  0
   22.4543  -12.0024  -16.9747 C   0  0  0  0  0  0  0  0  0  0  0  0
   22.6856  -10.9705  -17.6417 O   0  0  0  0  0  0  0  0  0  0  0  0
   21.1719  -12.2198  -16.4737 N   0  0  0  0  0  0  0  0  0  0  0  0
   20.0992  -11.2731  -16.7826 C   0  0  1  0  0  0  0  0  0  0  0  0
   18.7692  -11.9172  -16.4100 C   0  0  0  0  0  0  0  0  0  0  0  0
   17.6621  -10.9444  -16.6580 C   0  0  0  0  0  0  0  0  0  0  0  0
   17.0655  -10.9960  -18.0369 C   0  0  0  0  0  0  0  0  0  0  0  0
   15.9422  -10.0390  -18.2866 C   0  0  0  0  0  0  0  0  0  0  0  0
   15.3328  -10.1564  -19.5841 N   0  0  0  0  0  0  0  0  0  0  0  0
   20.3981  -10.0288  -16.0793 C   0  0  0  0  0  0  0  0  0  0  0  0
   20.8159  -10.1196  -14.8677 O   0  0  0  0  0  0  0  0  0  0  0  0
   20.2950   -8.7134  -16.5583 N   0  0  0  0  0  0  0  0  0  0  0  0
   20.4735   -7.5144  -15.7081 C   0  0  1  0  0  0  0  0  0  0  0  0
   21.7886   -6.8771  -15.9797 C   0  0  0  0  0  0  0  0  0  0  0  0
   21.8837   -5.5644  -15.3350 C   0  0  0  0  0  0  0  0  0  0  0  0
   21.6530   -4.3620  -15.9869 C   0  0  0  0  0  0  0  0  0  0  0  0
   21.7372   -3.1357  -15.3926 C   0  0  0  0  0  0  0  0  0  0  0  0
   22.0726   -3.0659  -14.0560 C   0  0  0  0  0  0  0  0  0  0  0  0
   22.3140   -4.2140  -13.3506 C   0  0  0  0  0  0  0  0  0  0  0  0
   22.2190   -5.4295  -13.9850 C   0  0  0  0  0  0  0  0  0  0  0  0
   19.3607   -6.5860  -15.8971 C   0  0  0  0  0  0  0  0  0  0  0  0
   18.7994   -6.4633  -17.0342 O   0  0  0  0  0  0  0  0  0  0  0  0
   18.8942   -5.8296  -14.8568 O   0  0  0  0  0  0  0  0  0  0  0  0
  2  1  1  0
  3  2  1  0
  3  4  1  6
  5  3  1  0
  5  6  2  0
  7  5  1  0
  8  7  1  0
  8  9  1  1
 10  9  1  0
 11 10  1  0
 12 11  1  0
 13 12  1  0
 14  8  1  0
 15 14  2  0
 16 14  1  0
 17 25  1  0
 17 16  1  0
 17 18  1  6
 19 18  1  0
 20 19  2  0
 21 20  1  0
 22 21  2  0
 22 23  1  0
 23 24  2  0
 24 19  1  0
 25 27  1  0
 26 25  2  0
M  END
$$$$
