SKF.pdb
     RDKit          3D

 27 27  0  0  1  0  0  0  0  0999 V2000
   29.2521  -21.1041  -13.9996 O   0  0  0  0  0  0  0  0  0  0  0  0
   28.6843  -21.4531  -15.2304 C   0  0  0  0  0  0  0  0  0  0  0  0
   27.5648  -20.4747  -15.5113 C   0  0  2  0  0  0  0  0  0  0  0  0
   28.1739  -19.2629  -16.0118 N   0  0  0  0  0  0  0  0  0  0  0  0
   26.8384  -20.2032  -14.2287 C   0  0  0  0  0  0  0  0  0  0  0  0
   26.9914  -19.0908  -13.6788 O   0  0  0  0  0  0  0  0  0  0  0  0
   26.0035  -21.1495  -13.6370 N   0  0  0  0  0  0  0  0  0  0  0  0
   25.0591  -20.7386  -12.5969 C   0  0  1  0  0  0  0  0  0  0  0  0
   23.7562  -21.5017  -12.8037 C   0  0  0  0  0  0  0  0  0  0  0  0
   22.7630  -21.0725  -11.7727 C   0  0  0  0  0  0  0  0  0  0  0  0
   21.4066  -21.7098  -11.8904 C   0  0  0  0  0  0  0  0  0  0  0  0
   20.3473  -21.1334  -11.0039 C   0  0  0  0  0  0  0  0  0  0  0  0
   19.0722  -21.7935  -11.0874 N   0  0  0  0  0  0  0  0  0  0  0  0
   25.7048  -20.9629  -11.3066 C   0  0  0  0  0  0  0  0  0  0  0  0
   26.4098  -22.0291  -11.1750 O   0  0  0  0  0  0  0  0  0  0  0  0
   25.6657  -20.1509  -10.1623 N   0  0  0  0  0  0  0  0  0  0  0  0
   26.3750  -20.4730   -8.9031 C   0  0  1  0  0  0  0  0  0  0  0  0
   27.1864  -19.3116   -8.4532 C   0  0  0  0  0  0  0  0  0  0  0  0
   27.7724  -19.5555   -7.1322 C   0  0  0  0  0  0  0  0  0  0  0  0
   28.8200  -20.4343   -6.8991 C   0  0  0  0  0  0  0  0  0  0  0  0
   29.3727  -20.6648   -5.6721 C   0  0  0  0  0  0  0  0  0  0  0  0
   28.8706  -19.9892   -4.5788 C   0  0  0  0  0  0  0  0  0  0  0  0
   27.8363  -19.1063   -4.7363 C   0  0  0  0  0  0  0  0  0  0  0  0
   27.3070  -18.9018   -5.9881 C   0  0  0  0  0  0  0  0  0  0  0  0
   25.4258  -20.9119   -7.8821 C   0  0  0  0  0  0  0  0  0  0  0  0
   24.2261  -20.4832   -7.8792 O   0  0  0  0  0  0  0  0  0  0  0  0
   25.8029  -21.7953   -6.9078 O   0  0  0  0  0  0  0  0  0  0  0  0
  2  1  1  0
  3  2  1  0
  3  4  1  1
  5  3  1  0
  5  6  2  0
  7  5  1  0
  8  7  1  0
  8  9  1  1
 10  9  1  0
 11 10  1  0
 12 11  1  0
 13 12  1  0
 14  8  1  0
 15 14  2  0
 16 14  1  0
 17 25  1  0
 17 16  1  0
 17 18  1  1
 19 18  1  0
 20 19  2  0
 21 20  1  0
 22 21  2  0
 22 23  1  0
 23 24  2  0
 24 19  1  0
 25 27  1  0
 26 25  2  0
M  END
$$$$
