SKF.pdb
     RDKit          3D

 27 27  0  0  1  0  0  0  0  0999 V2000
   14.6341  -11.4574  -13.0952 O   0  0  0  0  0  0  0  0  0  0  0  0
   14.2038  -11.3234  -14.4203 C   0  0  0  0  0  0  0  0  0  0  0  0
   14.7680  -12.4881  -15.2042 C   0  0  2  0  0  0  0  0  0  0  0  0
   14.9689  -13.5728  -14.2700 N   0  0  0  0  0  0  0  0  0  0  0  0
   16.0750  -12.0673  -15.8053 C   0  0  0  0  0  0  0  0  0  0  0  0
   17.1336  -12.4251  -15.2446 O   0  0  0  0  0  0  0  0  0  0  0  0
   16.1417  -11.2941  -16.9631 N   0  0  0  0  0  0  0  0  0  0  0  0
   17.4447  -10.9414  -17.5291 C   0  0  1  0  0  0  0  0  0  0  0  0
   17.2595  -10.6495  -19.0134 C   0  0  0  0  0  0  0  0  0  0  0  0
   18.5833  -10.3132  -19.6199 C   0  0  0  0  0  0  0  0  0  0  0  0
   19.3399  -11.4820  -20.1867 C   0  0  0  0  0  0  0  0  0  0  0  0
   20.6664  -11.1532  -20.7969 C   0  0  0  0  0  0  0  0  0  0  0  0
   21.3259  -12.2635  -21.4303 N   0  0  0  0  0  0  0  0  0  0  0  0
   17.9754   -9.8295  -16.7454 C   0  0  0  0  0  0  0  0  0  0  0  0
   17.1430   -8.9345  -16.3489 O   0  0  0  0  0  0  0  0  0  0  0  0
   19.3026   -9.6003  -16.3500 N   0  0  0  0  0  0  0  0  0  0  0  0
   19.7592   -8.3548  -15.6924 C   0  0  1  0  0  0  0  0  0  0  0  0
   21.1597   -8.5027  -15.2170 C   0  0  0  0  0  0  0  0  0  0  0  0
   21.6880   -7.2284  -14.7221 C   0  0  0  0  0  0  0  0  0  0  0  0
   22.4966   -6.3826  -15.4670 C   0  0  0  0  0  0  0  0  0  0  0  0
   22.9903   -5.1931  -15.0138 C   0  0  0  0  0  0  0  0  0  0  0  0
   22.6761   -4.7871  -13.7330 C   0  0  0  0  0  0  0  0  0  0  0  0
   21.8823   -5.5732  -12.9418 C   0  0  0  0  0  0  0  0  0  0  0  0
   21.4048   -6.7640  -13.4347 C   0  0  0  0  0  0  0  0  0  0  0  0
   19.5997   -7.2152  -16.5936 C   0  0  0  0  0  0  0  0  0  0  0  0
   19.8971   -7.3135  -17.8285 O   0  0  0  0  0  0  0  0  0  0  0  0
   19.1246   -6.0179  -16.1325 O   0  0  0  0  0  0  0  0  0  0  0  0
  2  1  1  0
  3  2  1  0
  3  4  1  1
  5  3  1  0
  5  6  2  0
  7  5  1  0
  8  7  1  0
  8  9  1  6
 10  9  1  0
 11 10  1  0
 12 11  1  0
 13 12  1  0
 14  8  1  0
 15 14  2  0
 16 14  1  0
 17 25  1  0
 17 16  1  0
 17 18  1  6
 19 18  1  0
 20 19  2  0
 21 20  1  0
 22 21  2  0
 22 23  1  0
 23 24  2  0
 24 19  1  0
 25 27  1  0
 26 25  2  0
M  END
$$$$
