SKF.pdb
     RDKit          3D

 27 27  0  0  1  0  0  0  0  0999 V2000
   20.4488  -18.9562  -11.0936 O   0  0  0  0  0  0  0  0  0  0  0  0
   20.3963  -18.6511  -12.4585 C   0  0  0  0  0  0  0  0  0  0  0  0
   20.1737  -19.9463  -13.2084 C   0  0  2  0  0  0  0  0  0  0  0  0
   19.1467  -20.6770  -12.5006 N   0  0  0  0  0  0  0  0  0  0  0  0
   21.4574  -20.7199  -13.2115 C   0  0  0  0  0  0  0  0  0  0  0  0
   21.5752  -21.6859  -12.4265 O   0  0  0  0  0  0  0  0  0  0  0  0
   22.5151  -20.3943  -14.0589 N   0  0  0  0  0  0  0  0  0  0  0  0
   23.7418  -21.1924  -14.0323 C   0  0  1  0  0  0  0  0  0  0  0  0
   24.4239  -21.0685  -15.3895 C   0  0  0  0  0  0  0  0  0  0  0  0
   25.6770  -21.8830  -15.3892 C   0  0  0  0  0  0  0  0  0  0  0  0
   25.5192  -23.2950  -15.8802 C   0  0  0  0  0  0  0  0  0  0  0  0
   26.7528  -24.1399  -15.8123 C   0  0  0  0  0  0  0  0  0  0  0  0
   26.5595  -25.5133  -16.1933 N   0  0  0  0  0  0  0  0  0  0  0  0
   24.5390  -20.7314  -12.8992 C   0  0  0  0  0  0  0  0  0  0  0  0
   24.4643  -19.4863  -12.5906 O   0  0  0  0  0  0  0  0  0  0  0  0
   25.3934  -21.4809  -12.0754 N   0  0  0  0  0  0  0  0  0  0  0  0
   26.3422  -20.8772  -11.1123 C   0  0  1  0  0  0  0  0  0  0  0  0
   26.2550  -21.5654   -9.7977 C   0  0  0  0  0  0  0  0  0  0  0  0
   27.1202  -20.9219   -8.8051 C   0  0  0  0  0  0  0  0  0  0  0  0
   28.4065  -21.3465   -8.5063 C   0  0  0  0  0  0  0  0  0  0  0  0
   29.2192  -20.7509   -7.5851 C   0  0  0  0  0  0  0  0  0  0  0  0
   28.7491  -19.6526   -6.8946 C   0  0  0  0  0  0  0  0  0  0  0  0
   27.4879  -19.1794   -7.1392 C   0  0  0  0  0  0  0  0  0  0  0  0
   26.7004  -19.8069   -8.0746 C   0  0  0  0  0  0  0  0  0  0  0  0
   27.6990  -20.8945  -11.6554 C   0  0  0  0  0  0  0  0  0  0  0  0
   28.2351  -21.9854  -12.0372 O   0  0  0  0  0  0  0  0  0  0  0  0
   28.4234  -19.7394  -11.7691 O   0  0  0  0  0  0  0  0  0  0  0  0
  2  1  1  0
  3  2  1  0
  3  4  1  1
  5  3  1  0
  5  6  2  0
  7  5  1  0
  8  7  1  0
  8  9  1  6
 10  9  1  0
 11 10  1  0
 12 11  1  0
 13 12  1  0
 14  8  1  0
 15 14  2  0
 16 14  1  0
 17 25  1  0
 17 16  1  0
 17 18  1  1
 19 18  1  0
 20 19  2  0
 21 20  1  0
 22 21  2  0
 22 23  1  0
 23 24  2  0
 24 19  1  0
 25 27  1  0
 26 25  2  0
M  END
$$$$
