SKF.pdb
     RDKit          3D

 27 27  0  0  1  0  0  0  0  0999 V2000
   20.2332  -19.3341  -10.3054 O   0  0  0  0  0  0  0  0  0  0  0  0
   20.2578  -19.1623  -11.6942 C   0  0  0  0  0  0  0  0  0  0  0  0
   20.5101  -20.5175  -12.3181 C   0  0  2  0  0  0  0  0  0  0  0  0
   19.5225  -21.4250  -11.7790 N   0  0  0  0  0  0  0  0  0  0  0  0
   21.8906  -20.9640  -11.9418 C   0  0  0  0  0  0  0  0  0  0  0  0
   22.0138  -21.8874  -11.1079 O   0  0  0  0  0  0  0  0  0  0  0  0
   23.0316  -20.3824  -12.4918 N   0  0  0  0  0  0  0  0  0  0  0  0
   24.3471  -20.9670  -12.2265 C   0  0  1  0  0  0  0  0  0  0  0  0
   25.2773  -20.5955  -13.3751 C   0  0  0  0  0  0  0  0  0  0  0  0
   26.5752  -21.3186  -13.2137 C   0  0  0  0  0  0  0  0  0  0  0  0
   27.5965  -21.0408  -14.2813 C   0  0  0  0  0  0  0  0  0  0  0  0
   28.8927  -21.7749  -14.1364 C   0  0  0  0  0  0  0  0  0  0  0  0
   29.8735  -21.4621  -15.1408 N   0  0  0  0  0  0  0  0  0  0  0  0
   24.7765  -20.4991  -10.9117 C   0  0  0  0  0  0  0  0  0  0  0  0
   24.4117  -19.3198  -10.5550 O   0  0  0  0  0  0  0  0  0  0  0  0
   25.5476  -21.1794   -9.9563 N   0  0  0  0  0  0  0  0  0  0  0  0
   26.0522  -20.5538   -8.7128 C   0  0  1  0  0  0  0  0  0  0  0  0
   26.8548  -21.5297   -7.9300 C   0  0  0  0  0  0  0  0  0  0  0  0
   27.4246  -20.9062   -6.7322 C   0  0  0  0  0  0  0  0  0  0  0  0
   26.9099  -21.0682   -5.4544 C   0  0  0  0  0  0  0  0  0  0  0  0
   27.4365  -20.4929   -4.3338 C   0  0  0  0  0  0  0  0  0  0  0  0
   28.5545  -19.6939   -4.4589 C   0  0  0  0  0  0  0  0  0  0  0  0
   29.1152  -19.4904   -5.6911 C   0  0  0  0  0  0  0  0  0  0  0  0
   28.5554  -20.0874   -6.7952 C   0  0  0  0  0  0  0  0  0  0  0  0
   26.8068  -19.3411   -9.0229 C   0  0  0  0  0  0  0  0  0  0  0  0
   27.6744  -19.3333   -9.9559 O   0  0  0  0  0  0  0  0  0  0  0  0
   26.5969  -18.1859   -8.3205 O   0  0  0  0  0  0  0  0  0  0  0  0
  2  1  1  0
  3  2  1  0
  3  4  1  1
  5  3  1  0
  5  6  2  0
  7  5  1  0
  8  7  1  0
  8  9  1  6
 10  9  1  0
 11 10  1  0
 12 11  1  0
 13 12  1  0
 14  8  1  0
 15 14  2  0
 16 14  1  0
 17 25  1  0
 17 16  1  0
 17 18  1  6
 19 18  1  0
 20 19  2  0
 21 20  1  0
 22 21  2  0
 22 23  1  0
 23 24  2  0
 24 19  1  0
 25 27  1  0
 26 25  2  0
M  END
$$$$
