SKF.pdb
     RDKit          3D

 27 27  0  0  1  0  0  0  0  0999 V2000
   29.5689  -21.2254  -15.5216 O   0  0  0  0  0  0  0  0  0  0  0  0
   28.2525  -21.5267  -15.1537 C   0  0  0  0  0  0  0  0  0  0  0  0
   27.4387  -20.2582  -15.2875 C   0  0  2  0  0  0  0  0  0  0  0  0
   28.3630  -19.1895  -15.5931 N   0  0  0  0  0  0  0  0  0  0  0  0
   26.7499  -19.9960  -13.9823 C   0  0  0  0  0  0  0  0  0  0  0  0
   26.8744  -18.8686  -13.4564 O   0  0  0  0  0  0  0  0  0  0  0  0
   25.9804  -20.9673  -13.3441 N   0  0  0  0  0  0  0  0  0  0  0  0
   25.0582  -20.5795  -12.2756 C   0  0  1  0  0  0  0  0  0  0  0  0
   23.7517  -21.3395  -12.4706 C   0  0  0  0  0  0  0  0  0  0  0  0
   22.7689  -20.9080  -11.4307 C   0  0  0  0  0  0  0  0  0  0  0  0
   21.4167  -21.5585  -11.5230 C   0  0  0  0  0  0  0  0  0  0  0  0
   20.4093  -21.0905  -10.5199 C   0  0  0  0  0  0  0  0  0  0  0  0
   19.1350  -21.7530  -10.5973 N   0  0  0  0  0  0  0  0  0  0  0  0
   25.7314  -20.8303  -11.0044 C   0  0  0  0  0  0  0  0  0  0  0  0
   26.4608  -21.8847  -10.9189 O   0  0  0  0  0  0  0  0  0  0  0  0
   25.6959  -20.0555   -9.8344 N   0  0  0  0  0  0  0  0  0  0  0  0
   26.4284  -20.4055   -8.5961 C   0  0  1  0  0  0  0  0  0  0  0  0
   27.3893  -19.3288   -8.2401 C   0  0  0  0  0  0  0  0  0  0  0  0
   27.9931  -19.5713   -6.9269 C   0  0  0  0  0  0  0  0  0  0  0  0
   27.3898  -19.2390   -5.7229 C   0  0  0  0  0  0  0  0  0  0  0  0
   27.9448  -19.4640   -4.4959 C   0  0  0  0  0  0  0  0  0  0  0  0
   29.1872  -20.0603   -4.4270 C   0  0  0  0  0  0  0  0  0  0  0  0
   29.8404  -20.4147   -5.5768 C   0  0  0  0  0  0  0  0  0  0  0  0
   29.2482  -20.1714   -6.7929 C   0  0  0  0  0  0  0  0  0  0  0  0
   25.4898  -20.6883   -7.5120 C   0  0  0  0  0  0  0  0  0  0  0  0
   25.8614  -21.3363   -6.4799 O   0  0  0  0  0  0  0  0  0  0  0  0
   24.1918  -20.2612   -7.5792 O   0  0  0  0  0  0  0  0  0  0  0  0
  2  1  1  0
  3  2  1  0
  3  4  1  1
  5  3  1  0
  5  6  2  0
  7  5  1  0
  8  7  1  0
  8  9  1  1
 10  9  1  0
 11 10  1  0
 12 11  1  0
 13 12  1  0
 14  8  1  0
 15 14  2  0
 16 14  1  0
 17 25  1  0
 17 16  1  0
 17 18  1  1
 19 18  1  0
 20 19  2  0
 21 20  1  0
 22 21  2  0
 22 23  1  0
 23 24  2  0
 24 19  1  0
 25 27  1  0
 26 25  2  0
M  END
$$$$
