SKF.pdb
     RDKit          3D

 27 27  0  0  1  0  0  0  0  0999 V2000
   26.8282  -22.9234  -15.5028 O   0  0  0  0  0  0  0  0  0  0  0  0
   25.4906  -23.0205  -15.9032 C   0  0  0  0  0  0  0  0  0  0  0  0
   24.9151  -24.2712  -15.2756 C   0  0  2  0  0  0  0  0  0  0  0  0
   25.4663  -25.3994  -15.9918 N   0  0  0  0  0  0  0  0  0  0  0  0
   23.4242  -24.2350  -15.4257 C   0  0  0  0  0  0  0  0  0  0  0  0
   22.9199  -24.6574  -16.4889 O   0  0  0  0  0  0  0  0  0  0  0  0
   22.5913  -23.7470  -14.4202 N   0  0  0  0  0  0  0  0  0  0  0  0
   21.1382  -23.8059  -14.5858 C   0  0  1  0  0  0  0  0  0  0  0  0
   20.5151  -24.1424  -13.2363 C   0  0  0  0  0  0  0  0  0  0  0  0
   20.4744  -25.6267  -13.0669 C   0  0  0  0  0  0  0  0  0  0  0  0
   20.0595  -26.1012  -11.7021 C   0  0  0  0  0  0  0  0  0  0  0  0
   20.1173  -27.5819  -11.4921 C   0  0  0  0  0  0  0  0  0  0  0  0
   19.6815  -28.0200  -10.1933 N   0  0  0  0  0  0  0  0  0  0  0  0
   20.7114  -22.5329  -15.1597 C   0  0  0  0  0  0  0  0  0  0  0  0
   21.1170  -21.4584  -14.5835 O   0  0  0  0  0  0  0  0  0  0  0  0
   19.9034  -22.3149  -16.2866 N   0  0  0  0  0  0  0  0  0  0  0  0
   19.4888  -20.9716  -16.7513 C   0  0  1  0  0  0  0  0  0  0  0  0
   19.6653  -20.8545  -18.2226 C   0  0  0  0  0  0  0  0  0  0  0  0
   19.1925  -19.5559  -18.7106 C   0  0  0  0  0  0  0  0  0  0  0  0
   19.9647  -18.4037  -18.7209 C   0  0  0  0  0  0  0  0  0  0  0  0
   19.5322  -17.1914  -19.1762 C   0  0  0  0  0  0  0  0  0  0  0  0
   18.2453  -17.0838  -19.6621 C   0  0  0  0  0  0  0  0  0  0  0  0
   17.4275  -18.1816  -19.6815 C   0  0  0  0  0  0  0  0  0  0  0  0
   17.9002  -19.3846  -19.2142 C   0  0  0  0  0  0  0  0  0  0  0  0
   18.1161  -20.6903  -16.3359 C   0  0  0  0  0  0  0  0  0  0  0  0
   17.2381  -21.6133  -16.3169 O   0  0  0  0  0  0  0  0  0  0  0  0
   17.7432  -19.4302  -15.9550 O   0  0  0  0  0  0  0  0  0  0  0  0
  2  1  1  0
  3  2  1  0
  3  4  1  6
  5  3  1  0
  5  6  2  0
  7  5  1  0
  8  7  1  0
  8  9  1  1
 10  9  1  0
 11 10  1  0
 12 11  1  0
 13 12  1  0
 14  8  1  0
 15 14  2  0
 16 14  1  0
 17 25  1  0
 17 16  1  0
 17 18  1  6
 19 18  1  0
 20 19  2  0
 21 20  1  0
 22 21  2  0
 22 23  1  0
 23 24  2  0
 24 19  1  0
 25 27  1  0
 26 25  2  0
M  END
$$$$
