SKF.pdb
     RDKit          3D

 27 27  0  0  1  0  0  0  0  0999 V2000
   26.3760  -20.2664  -17.5752 O   0  0  0  0  0  0  0  0  0  0  0  0
   27.6555  -20.2062  -17.0110 C   0  0  0  0  0  0  0  0  0  0  0  0
   27.9241  -21.5373  -16.3437 C   0  0  2  0  0  0  0  0  0  0  0  0
   27.7313  -22.5622  -17.3448 N   0  0  0  0  0  0  0  0  0  0  0  0
   26.9456  -21.7122  -15.2218 C   0  0  0  0  0  0  0  0  0  0  0  0
   26.1406  -22.6674  -15.2741 O   0  0  0  0  0  0  0  0  0  0  0  0
   26.9090  -20.8457  -14.1307 N   0  0  0  0  0  0  0  0  0  0  0  0
   25.9218  -21.0520  -13.0698 C   0  0  1  0  0  0  0  0  0  0  0  0
   26.3058  -20.1787  -11.8812 C   0  0  0  0  0  0  0  0  0  0  0  0
   25.1467  -20.0840  -10.9426 C   0  0  0  0  0  0  0  0  0  0  0  0
   25.1492  -21.0878   -9.8236 C   0  0  0  0  0  0  0  0  0  0  0  0
   24.0223  -20.9630   -8.8466 C   0  0  0  0  0  0  0  0  0  0  0  0
   24.0569  -21.9138   -7.7679 N   0  0  0  0  0  0  0  0  0  0  0  0
   24.6054  -20.7740  -13.6371 C   0  0  0  0  0  0  0  0  0  0  0  0
   24.4681  -19.6874  -14.3090 O   0  0  0  0  0  0  0  0  0  0  0  0
   23.4406  -21.5527  -13.5529 N   0  0  0  0  0  0  0  0  0  0  0  0
   22.1432  -21.1548  -14.1448 C   0  0  1  0  0  0  0  0  0  0  0  0
   21.8632  -21.9545  -15.3661 C   0  0  0  0  0  0  0  0  0  0  0  0
   20.5609  -21.6050  -15.9404 C   0  0  0  0  0  0  0  0  0  0  0  0
   19.3922  -22.3121  -15.6991 C   0  0  0  0  0  0  0  0  0  0  0  0
   18.1752  -21.9912  -16.2284 C   0  0  0  0  0  0  0  0  0  0  0  0
   18.0800  -20.8949  -17.0608 C   0  0  0  0  0  0  0  0  0  0  0  0
   19.1944  -20.1512  -17.3424 C   0  0  0  0  0  0  0  0  0  0  0  0
   20.4015  -20.5067  -16.7899 C   0  0  0  0  0  0  0  0  0  0  0  0
   21.0751  -21.2685  -13.1536 C   0  0  0  0  0  0  0  0  0  0  0  0
   21.0563  -22.2341  -12.3227 O   0  0  0  0  0  0  0  0  0  0  0  0
   20.0727  -20.3392  -13.0934 O   0  0  0  0  0  0  0  0  0  0  0  0
  2  1  1  0
  3  2  1  0
  3  4  1  6
  5  3  1  0
  5  6  2  0
  7  5  1  0
  8  7  1  0
  8  9  1  1
 10  9  1  0
 11 10  1  0
 12 11  1  0
 13 12  1  0
 14  8  1  0
 15 14  2  0
 16 14  1  0
 17 25  1  0
 17 16  1  0
 17 18  1  6
 19 18  1  0
 20 19  2  0
 21 20  1  0
 22 21  2  0
 22 23  1  0
 23 24  2  0
 24 19  1  0
 25 27  1  0
 26 25  2  0
M  END
$$$$
