SKF.pdb
     RDKit          3D

 27 27  0  0  1  0  0  0  0  0999 V2000
   29.4067  -19.8861  -13.4617 O   0  0  0  0  0  0  0  0  0  0  0  0
   28.6417  -20.5292  -14.4416 C   0  0  0  0  0  0  0  0  0  0  0  0
   27.3486  -19.7580  -14.5913 C   0  0  2  0  0  0  0  0  0  0  0  0
   27.6978  -18.4165  -15.0011 N   0  0  0  0  0  0  0  0  0  0  0  0
   26.6533  -19.7345  -13.2636 C   0  0  0  0  0  0  0  0  0  0  0  0
   26.6101  -18.6573  -12.6304 O   0  0  0  0  0  0  0  0  0  0  0  0
   26.0583  -20.8718  -12.7201 N   0  0  0  0  0  0  0  0  0  0  0  0
   25.1531  -20.7443  -11.5770 C   0  0  1  0  0  0  0  0  0  0  0  0
   24.0325  -21.7648  -11.7367 C   0  0  0  0  0  0  0  0  0  0  0  0
   23.0656  -21.2799  -12.7679 C   0  0  0  0  0  0  0  0  0  0  0  0
   21.8857  -20.5207  -12.2281 C   0  0  0  0  0  0  0  0  0  0  0  0
   20.9575  -19.9590  -13.2591 C   0  0  0  0  0  0  0  0  0  0  0  0
   19.8480  -19.2160  -12.7246 N   0  0  0  0  0  0  0  0  0  0  0  0
   25.9543  -20.8956  -10.3656 C   0  0  0  0  0  0  0  0  0  0  0  0
   26.7637  -21.8921  -10.3121 O   0  0  0  0  0  0  0  0  0  0  0  0
   25.9672  -20.0784   -9.2245 N   0  0  0  0  0  0  0  0  0  0  0  0
   26.7898  -20.3568   -8.0253 C   0  0  1  0  0  0  0  0  0  0  0  0
   27.4995  -19.1268   -7.5861 C   0  0  0  0  0  0  0  0  0  0  0  0
   28.2388  -19.3580   -6.3419 C   0  0  0  0  0  0  0  0  0  0  0  0
   27.8122  -18.9257   -5.0949 C   0  0  0  0  0  0  0  0  0  0  0  0
   28.4939  -19.1395   -3.9314 C   0  0  0  0  0  0  0  0  0  0  0  0
   29.6883  -19.8290   -3.9773 C   0  0  0  0  0  0  0  0  0  0  0  0
   30.1692  -20.2848   -5.1753 C   0  0  0  0  0  0  0  0  0  0  0  0
   29.4532  -20.0494   -6.3246 C   0  0  0  0  0  0  0  0  0  0  0  0
   25.9642  -20.9269   -6.9626 C   0  0  0  0  0  0  0  0  0  0  0  0
   24.7050  -20.7342   -6.9403 O   0  0  0  0  0  0  0  0  0  0  0  0
   26.5239  -21.6831   -5.9691 O   0  0  0  0  0  0  0  0  0  0  0  0
  2  1  1  0
  3  2  1  0
  3  4  1  1
  5  3  1  0
  5  6  2  0
  7  5  1  0
  8  7  1  0
  8  9  1  6
 10  9  1  0
 11 10  1  0
 12 11  1  0
 13 12  1  0
 14  8  1  0
 15 14  2  0
 16 14  1  0
 17 25  1  0
 17 16  1  0
 17 18  1  1
 19 18  1  0
 20 19  2  0
 21 20  1  0
 22 21  2  0
 22 23  1  0
 23 24  2  0
 24 19  1  0
 25 27  1  0
 26 25  2  0
M  END
$$$$
