SKF.pdb
     RDKit          3D

 27 27  0  0  1  0  0  0  0  0999 V2000
   25.9213  -27.0261  -16.7296 O   0  0  0  0  0  0  0  0  0  0  0  0
   26.9238  -26.3686  -16.0072 C   0  0  0  0  0  0  0  0  0  0  0  0
   27.6266  -25.4234  -16.9570 C   0  0  2  0  0  0  0  0  0  0  0  0
   29.0308  -25.7661  -16.9374 N   0  0  0  0  0  0  0  0  0  0  0  0
   27.4241  -24.0212  -16.4679 C   0  0  0  0  0  0  0  0  0  0  0  0
   28.3978  -23.4151  -15.9702 O   0  0  0  0  0  0  0  0  0  0  0  0
   26.1896  -23.3795  -16.5522 N   0  0  0  0  0  0  0  0  0  0  0  0
   26.0648  -21.9826  -16.1333 C   0  0  1  0  0  0  0  0  0  0  0  0
   24.9200  -21.3483  -16.9142 C   0  0  0  0  0  0  0  0  0  0  0  0
   24.6571  -19.9775  -16.3800 C   0  0  0  0  0  0  0  0  0  0  0  0
   23.5907  -19.2049  -17.1050 C   0  0  0  0  0  0  0  0  0  0  0  0
   23.4136  -17.7858  -16.6634 C   0  0  0  0  0  0  0  0  0  0  0  0
   22.4003  -17.0580  -17.3792 N   0  0  0  0  0  0  0  0  0  0  0  0
   25.8984  -21.9742  -14.6827 C   0  0  0  0  0  0  0  0  0  0  0  0
   25.0985  -22.8414  -14.1738 O   0  0  0  0  0  0  0  0  0  0  0  0
   26.5119  -21.1317  -13.7424 N   0  0  0  0  0  0  0  0  0  0  0  0
   26.2286  -21.1797  -12.2899 C   0  0  1  0  0  0  0  0  0  0  0  0
   27.4052  -20.7043  -11.5160 C   0  0  0  0  0  0  0  0  0  0  0  0
   27.0864  -20.5808  -10.0908 C   0  0  0  0  0  0  0  0  0  0  0  0
   25.7972  -20.4676   -9.5917 C   0  0  0  0  0  0  0  0  0  0  0  0
   25.4923  -20.3548   -8.2656 C   0  0  0  0  0  0  0  0  0  0  0  0
   26.5199  -20.3509   -7.3448 C   0  0  0  0  0  0  0  0  0  0  0  0
   27.8175  -20.4590   -7.7676 C   0  0  0  0  0  0  0  0  0  0  0  0
   28.0833  -20.5709   -9.1114 C   0  0  0  0  0  0  0  0  0  0  0  0
   25.0204  -20.4173  -11.9814 C   0  0  0  0  0  0  0  0  0  0  0  0
   24.8288  -19.2647  -12.4894 O   0  0  0  0  0  0  0  0  0  0  0  0
   24.0661  -20.9250  -11.1427 O   0  0  0  0  0  0  0  0  0  0  0  0
  2  1  1  0
  3  2  1  0
  3  4  1  1
  5  3  1  0
  5  6  2  0
  7  5  1  0
  8  7  1  0
  8  9  1  6
 10  9  1  0
 11 10  1  0
 12 11  1  0
 13 12  1  0
 14  8  1  0
 15 14  2  0
 16 14  1  0
 17 25  1  0
 17 16  1  0
 17 18  1  1
 19 18  1  0
 20 19  2  0
 21 20  1  0
 22 21  2  0
 22 23  1  0
 23 24  2  0
 24 19  1  0
 25 27  1  0
 26 25  2  0
M  END
$$$$
