SKF.pdb
     RDKit          3D

 27 27  0  0  1  0  0  0  0  0999 V2000
   25.0493  -33.8597   -6.6697 O   0  0  0  0  0  0  0  0  0  0  0  0
   23.9568  -34.4997   -7.2661 C   0  0  0  0  0  0  0  0  0  0  0  0
   23.2215  -33.4705   -8.0965 C   0  0  2  0  0  0  0  0  0  0  0  0
   24.2215  -32.6818   -8.7804 N   0  0  0  0  0  0  0  0  0  0  0  0
   22.4142  -32.6062   -7.1758 C   0  0  0  0  0  0  0  0  0  0  0  0
   22.8823  -31.4993   -6.8312 O   0  0  0  0  0  0  0  0  0  0  0  0
   21.1656  -32.9997   -6.6972 N   0  0  0  0  0  0  0  0  0  0  0  0
   20.3584  -32.0639   -5.9128 C   0  0  1  0  0  0  0  0  0  0  0  0
   18.8873  -32.3700   -6.1669 C   0  0  0  0  0  0  0  0  0  0  0  0
   18.0424  -31.3755   -5.4384 C   0  0  0  0  0  0  0  0  0  0  0  0
   17.8274  -30.0734   -6.1582 C   0  0  0  0  0  0  0  0  0  0  0  0
   17.0394  -29.0468   -5.4064 C   0  0  0  0  0  0  0  0  0  0  0  0
   16.8909  -27.7888   -6.0877 N   0  0  0  0  0  0  0  0  0  0  0  0
   20.7797  -32.1841   -4.5199 C   0  0  0  0  0  0  0  0  0  0  0  0
   21.0379  -33.3632   -4.0793 O   0  0  0  0  0  0  0  0  0  0  0  0
   20.9518  -31.1626   -3.5727 N   0  0  0  0  0  0  0  0  0  0  0  0
   21.4109  -31.3992   -2.1852 C   0  0  1  0  0  0  0  0  0  0  0  0
   22.0067  -30.1613   -1.6177 C   0  0  0  0  0  0  0  0  0  0  0  0
   21.0469  -29.0539   -1.6396 C   0  0  0  0  0  0  0  0  0  0  0  0
   20.0970  -28.8317   -0.6537 C   0  0  0  0  0  0  0  0  0  0  0  0
   19.2015  -27.8011   -0.6659 C   0  0  0  0  0  0  0  0  0  0  0  0
   19.2263  -26.9107   -1.7197 C   0  0  0  0  0  0  0  0  0  0  0  0
   20.1382  -27.0700   -2.7283 C   0  0  0  0  0  0  0  0  0  0  0  0
   21.0232  -28.1204   -2.6795 C   0  0  0  0  0  0  0  0  0  0  0  0
   20.3136  -31.9094   -1.3657 C   0  0  0  0  0  0  0  0  0  0  0  0
   19.1114  -31.8663   -1.7852 O   0  0  0  0  0  0  0  0  0  0  0  0
   20.5523  -32.4478   -0.1307 O   0  0  0  0  0  0  0  0  0  0  0  0
  2  1  1  0
  3  2  1  0
  3  4  1  1
  5  3  1  0
  5  6  2  0
  7  5  1  0
  8  7  1  0
  8  9  1  1
 10  9  1  0
 11 10  1  0
 12 11  1  0
 13 12  1  0
 14  8  1  0
 15 14  2  0
 16 14  1  0
 17 25  1  0
 17 16  1  0
 17 18  1  1
 19 18  1  0
 20 19  2  0
 21 20  1  0
 22 21  2  0
 22 23  1  0
 23 24  2  0
 24 19  1  0
 25 27  1  0
 26 25  2  0
M  END
$$$$
