SKF.pdb
     RDKit          3D

 27 27  0  0  1  0  0  0  0  0999 V2000
   14.7006   -7.6943  -17.4222 O   0  0  0  0  0  0  0  0  0  0  0  0
   16.0910   -7.6603  -17.2660 C   0  0  0  0  0  0  0  0  0  0  0  0
   16.6080   -9.0685  -17.4641 C   0  0  2  0  0  0  0  0  0  0  0  0
   15.5609   -9.9702  -17.0394 N   0  0  0  0  0  0  0  0  0  0  0  0
   17.8298   -9.2497  -16.6150 C   0  0  0  0  0  0  0  0  0  0  0  0
   17.7429   -9.0284  -15.3875 O   0  0  0  0  0  0  0  0  0  0  0  0
   19.0504   -9.6549  -17.1523 N   0  0  0  0  0  0  0  0  0  0  0  0
   20.1938   -9.8871  -16.2686 C   0  0  1  0  0  0  0  0  0  0  0  0
   21.1167  -10.9005  -16.9348 C   0  0  0  0  0  0  0  0  0  0  0  0
   20.3637  -12.1679  -17.1807 C   0  0  0  0  0  0  0  0  0  0  0  0
   20.1548  -13.0305  -15.9674 C   0  0  0  0  0  0  0  0  0  0  0  0
   19.5681  -14.3815  -16.2335 C   0  0  0  0  0  0  0  0  0  0  0  0
   19.3004  -15.1607  -15.0545 N   0  0  0  0  0  0  0  0  0  0  0  0
   20.8034   -8.5894  -15.9919 C   0  0  0  0  0  0  0  0  0  0  0  0
   21.1138   -7.8546  -16.9993 O   0  0  0  0  0  0  0  0  0  0  0  0
   21.0995   -8.0163  -14.7452 N   0  0  0  0  0  0  0  0  0  0  0  0
   21.6269   -6.6429  -14.5782 C   0  0  1  0  0  0  0  0  0  0  0  0
   20.7412   -5.6610  -15.2571 C   0  0  0  0  0  0  0  0  0  0  0  0
   21.2461   -4.2944  -15.0979 C   0  0  0  0  0  0  0  0  0  0  0  0
   20.6835   -3.3543  -14.2472 C   0  0  0  0  0  0  0  0  0  0  0  0
   21.1496   -2.0804  -14.0917 C   0  0  0  0  0  0  0  0  0  0  0  0
   22.2520   -1.6819  -14.8196 C   0  0  0  0  0  0  0  0  0  0  0  0
   22.8575   -2.5589  -15.6790 C   0  0  0  0  0  0  0  0  0  0  0  0
   22.3581   -3.8328  -15.8074 C   0  0  0  0  0  0  0  0  0  0  0  0
   21.8073   -6.3357  -13.1607 C   0  0  0  0  0  0  0  0  0  0  0  0
   21.0010   -6.7925  -12.2864 O   0  0  0  0  0  0  0  0  0  0  0  0
   22.8476   -5.5530  -12.7398 O   0  0  0  0  0  0  0  0  0  0  0  0
  2  1  1  0
  3  2  1  0
  3  4  1  1
  5  3  1  0
  5  6  2  0
  7  5  1  0
  8  7  1  0
  8  9  1  6
 10  9  1  0
 11 10  1  0
 12 11  1  0
 13 12  1  0
 14  8  1  0
 15 14  2  0
 16 14  1  0
 17 25  1  0
 17 16  1  0
 17 18  1  1
 19 18  1  0
 20 19  2  0
 21 20  1  0
 22 21  2  0
 22 23  1  0
 23 24  2  0
 24 19  1  0
 25 27  1  0
 26 25  2  0
M  END
$$$$
