SKF.pdb
     RDKit          3D

 27 27  0  0  1  0  0  0  0  0999 V2000
   28.3688  -26.3699  -16.6282 O   0  0  0  0  0  0  0  0  0  0  0  0
   27.9977  -25.0219  -16.5643 C   0  0  0  0  0  0  0  0  0  0  0  0
   29.1574  -24.2030  -17.0876 C   0  0  2  0  0  0  0  0  0  0  0  0
   30.3133  -24.5428  -16.2888 N   0  0  0  0  0  0  0  0  0  0  0  0
   28.8223  -22.7505  -16.9304 C   0  0  0  0  0  0  0  0  0  0  0  0
   29.1427  -22.1746  -15.8679 O   0  0  0  0  0  0  0  0  0  0  0  0
   28.1684  -22.0302  -17.9285 N   0  0  0  0  0  0  0  0  0  0  0  0
   27.9956  -20.5835  -17.7881 C   0  0  1  0  0  0  0  0  0  0  0  0
   27.7385  -19.9950  -19.1702 C   0  0  0  0  0  0  0  0  0  0  0  0
   27.5859  -18.5127  -19.0557 C   0  0  0  0  0  0  0  0  0  0  0  0
   27.2892  -17.8011  -20.3462 C   0  0  0  0  0  0  0  0  0  0  0  0
   27.1748  -16.3121  -20.2468 C   0  0  0  0  0  0  0  0  0  0  0  0
   26.2181  -15.8485  -19.2780 N   0  0  0  0  0  0  0  0  0  0  0  0
   26.9272  -20.3628  -16.8175 C   0  0  0  0  0  0  0  0  0  0  0  0
   25.9041  -21.1379  -16.8771 O   0  0  0  0  0  0  0  0  0  0  0  0
   26.8643  -19.3998  -15.7982 N   0  0  0  0  0  0  0  0  0  0  0  0
   25.7625  -19.3194  -14.8125 C   0  0  1  0  0  0  0  0  0  0  0  0
   26.2566  -18.7611  -13.5266 C   0  0  0  0  0  0  0  0  0  0  0  0
   27.1898  -19.6831  -12.8731 C   0  0  0  0  0  0  0  0  0  0  0  0
   28.5397  -19.7673  -13.1809 C   0  0  0  0  0  0  0  0  0  0  0  0
   29.4155  -20.6217  -12.5749 C   0  0  0  0  0  0  0  0  0  0  0  0
   28.9470  -21.4654  -11.5887 C   0  0  0  0  0  0  0  0  0  0  0  0
   27.6250  -21.4357  -11.2344 C   0  0  0  0  0  0  0  0  0  0  0  0
   26.7750  -20.5612  -11.8681 C   0  0  0  0  0  0  0  0  0  0  0  0
   24.6473  -18.5474  -15.3572 C   0  0  0  0  0  0  0  0  0  0  0  0
   24.8310  -17.7153  -16.3042 O   0  0  0  0  0  0  0  0  0  0  0  0
   23.3803  -18.7029  -14.8648 O   0  0  0  0  0  0  0  0  0  0  0  0
  2  1  1  0
  3  2  1  0
  3  4  1  1
  5  3  1  0
  5  6  2  0
  7  5  1  0
  8  7  1  0
  8  9  1  6
 10  9  1  0
 11 10  1  0
 12 11  1  0
 13 12  1  0
 14  8  1  0
 15 14  2  0
 16 14  1  0
 17 25  1  0
 17 16  1  0
 17 18  1  1
 19 18  1  0
 20 19  2  0
 21 20  1  0
 22 21  2  0
 22 23  1  0
 23 24  2  0
 24 19  1  0
 25 27  1  0
 26 25  2  0
M  END
$$$$
