SKF.pdb
     RDKit          3D

 27 27  0  0  1  0  0  0  0  0999 V2000
   27.4083  -22.3315  -15.6186 O   0  0  0  0  0  0  0  0  0  0  0  0
   28.2136  -21.3010  -16.1169 C   0  0  0  0  0  0  0  0  0  0  0  0
   27.5891  -20.8157  -17.4068 C   0  0  2  0  0  0  0  0  0  0  0  0
   28.5475  -19.9381  -18.0401 N   0  0  0  0  0  0  0  0  0  0  0  0
   26.3343  -20.0663  -17.0745 C   0  0  0  0  0  0  0  0  0  0  0  0
   26.4325  -18.8945  -16.6497 O   0  0  0  0  0  0  0  0  0  0  0  0
   25.0710  -20.6357  -17.2249 N   0  0  0  0  0  0  0  0  0  0  0  0
   23.8769  -19.8560  -16.8952 C   0  0  1  0  0  0  0  0  0  0  0  0
   22.9482  -19.8675  -18.1035 C   0  0  0  0  0  0  0  0  0  0  0  0
   22.7054  -18.4633  -18.5538 C   0  0  0  0  0  0  0  0  0  0  0  0
   23.5757  -17.9983  -19.6879 C   0  0  0  0  0  0  0  0  0  0  0  0
   23.3803  -16.5743  -20.1050 C   0  0  0  0  0  0  0  0  0  0  0  0
   24.2093  -16.1526  -21.2022 N   0  0  0  0  0  0  0  0  0  0  0  0
   23.3070  -20.4231  -15.6763 C   0  0  0  0  0  0  0  0  0  0  0  0
   23.1646  -21.6992  -15.6277 O   0  0  0  0  0  0  0  0  0  0  0  0
   22.8878  -19.7501  -14.5180 N   0  0  0  0  0  0  0  0  0  0  0  0
   22.5133  -20.4364  -13.2607 C   0  0  1  0  0  0  0  0  0  0  0  0
   23.2290  -19.8318  -12.1067 C   0  0  0  0  0  0  0  0  0  0  0  0
   24.6212  -20.2863  -12.0505 C   0  0  0  0  0  0  0  0  0  0  0  0
   25.7144  -19.4675  -12.2923 C   0  0  0  0  0  0  0  0  0  0  0  0
   27.0139  -19.8829  -12.2393 C   0  0  0  0  0  0  0  0  0  0  0  0
   27.2789  -21.2003  -11.9264 C   0  0  0  0  0  0  0  0  0  0  0  0
   26.2472  -22.0646  -11.6758 C   0  0  0  0  0  0  0  0  0  0  0  0
   24.9525  -21.6078  -11.7391 C   0  0  0  0  0  0  0  0  0  0  0  0
   21.0628  -20.4166  -13.0824 C   0  0  0  0  0  0  0  0  0  0  0  0
   20.5071  -21.1200  -12.1771 O   0  0  0  0  0  0  0  0  0  0  0  0
   20.2687  -19.6401  -13.8814 O   0  0  0  0  0  0  0  0  0  0  0  0
  2  1  1  0
  3  2  1  0
  3  4  1  1
  5  3  1  0
  5  6  2  0
  7  5  1  0
  8  7  1  0
  8  9  1  6
 10  9  1  0
 11 10  1  0
 12 11  1  0
 13 12  1  0
 14  8  1  0
 15 14  2  0
 16 14  1  0
 17 25  1  0
 17 16  1  0
 17 18  1  1
 19 18  1  0
 20 19  2  0
 21 20  1  0
 22 21  2  0
 22 23  1  0
 23 24  2  0
 24 19  1  0
 25 27  1  0
 26 25  2  0
M  END
$$$$
