CLV.pdb
     RDKit          3D

 22 21  0  0  1  0  0  0  0  0999 V2000
   28.6821  -19.5057  -15.3877 N   0  0  0  0  0  0  0  0  0  0  0  0
   27.5959  -18.8108  -14.6883 C   0  0  1  0  0  0  0  0  0  0  0  0
   26.9219  -17.9341  -15.7280 C   0  0  0  0  0  0  0  0  0  0  0  0
   27.5909  -16.2475  -15.4774 S   0  0  0  0  0  0  0  0  0  0  0  0
   26.6883  -19.7881  -14.0815 C   0  0  0  0  0  0  0  0  0  0  0  0
   26.4547  -20.8939  -14.6783 O   0  0  0  0  0  0  0  0  0  0  0  0
   25.7788  -20.2926   -8.5013 C   0  0  0  0  0  0  0  0  0  0  0  0
   26.1420  -20.6048   -9.9386 C   0  0  1  0  0  0  0  0  0  0  0  0
   26.6049  -22.0160  -10.0092 C   0  0  0  0  0  0  0  0  0  0  0  0
   24.9634  -20.2876  -10.7860 C   0  0  0  0  0  0  0  0  0  0  0  0
   25.1902  -20.4789  -12.2619 C   0  0  2  0  0  0  0  0  0  0  0  0
   26.0699  -19.5078  -12.8341 N   0  0  0  0  0  0  0  0  0  0  0  0
   23.8625  -20.3510  -12.9148 C   0  0  0  0  0  0  0  0  0  0  0  0
   23.4337  -19.2165  -13.2066 O   0  0  0  0  0  0  0  0  0  0  0  0
   20.5040  -22.0855  -15.9124 C   0  0  0  0  0  0  0  0  0  0  0  0
   21.7632  -22.2273  -15.1243 C   0  0  2  0  0  0  0  0  0  0  0  0
   21.8879  -23.6507  -14.6401 C   0  0  0  0  0  0  0  0  0  0  0  0
   21.8346  -21.2729  -13.9526 C   0  0  2  0  0  0  0  0  0  0  0  0
   23.0510  -21.4778  -13.2248 N   0  0  0  0  0  0  0  0  0  0  0  0
   20.6652  -21.4454  -13.0496 C   0  0  0  0  0  0  0  0  0  0  0  0
   19.4050  -21.0233  -13.5116 O   0  0  0  0  0  0  0  0  0  0  0  0
   20.7422  -21.9407  -11.9130 O   0  0  0  0  0  0  0  0  0  0  0  0
  2  1  1  6
  2  3  1  0
  3  4  1  0
  5  2  1  0
  6  5  2  0
  8  7  1  1
  8 10  1  0
  9  8  1  0
 11 10  1  1
 11 12  1  0
 11 13  1  0
 12  5  1  0
 13 14  2  0
 16 15  1  1
 17 16  1  0
 18 16  1  0
 19 13  1  0
 18 19  1  1
 20 18  1  0
 20 21  1  0
 22 20  2  0
M  END
$$$$
