CLV.pdb
     RDKit          3D

 22 21  0  0  1  0  0  0  0  0999 V2000
   27.4772  -22.4932  -16.2551 N   0  0  0  0  0  0  0  0  0  0  0  0
   26.6299  -21.3196  -16.0174 C   0  0  1  0  0  0  0  0  0  0  0  0
   26.0472  -20.9436  -17.3676 C   0  0  0  0  0  0  0  0  0  0  0  0
   25.2942  -19.2882  -17.1499 S   0  0  0  0  0  0  0  0  0  0  0  0
   25.6082  -21.6369  -15.0161 C   0  0  0  0  0  0  0  0  0  0  0  0
   25.1184  -22.8161  -14.9604 O   0  0  0  0  0  0  0  0  0  0  0  0
   25.8744  -20.0434   -9.8114 C   0  0  0  0  0  0  0  0  0  0  0  0
   25.7067  -20.8320  -11.0941 C   0  0  1  0  0  0  0  0  0  0  0  0
   25.7069  -22.2802  -10.7575 C   0  0  0  0  0  0  0  0  0  0  0  0
   24.4770  -20.3450  -11.7713 C   0  0  0  0  0  0  0  0  0  0  0  0
   24.2076  -20.9871  -13.1061 C   0  0  2  0  0  0  0  0  0  0  0  0
   25.1635  -20.6376  -14.1102 N   0  0  0  0  0  0  0  0  0  0  0  0
   22.8716  -20.5091  -13.5443 C   0  0  0  0  0  0  0  0  0  0  0  0
   22.0038  -20.2539  -12.6853 O   0  0  0  0  0  0  0  0  0  0  0  0
   21.7147  -19.8389  -17.7051 C   0  0  0  0  0  0  0  0  0  0  0  0
   21.3078  -19.0170  -16.5279 C   0  0  2  0  0  0  0  0  0  0  0  0
   22.2718  -17.8676  -16.3681 C   0  0  0  0  0  0  0  0  0  0  0  0
   21.2391  -19.8182  -15.2464 C   0  0  2  0  0  0  0  0  0  0  0  0
   22.5358  -20.3280  -14.9151 N   0  0  0  0  0  0  0  0  0  0  0  0
   20.2668  -20.9376  -15.3664 C   0  0  0  0  0  0  0  0  0  0  0  0
   20.7709  -22.2507  -15.4003 O   0  0  0  0  0  0  0  0  0  0  0  0
   19.0373  -20.7747  -15.4380 O   0  0  0  0  0  0  0  0  0  0  0  0
  2  1  1  6
  2  3  1  0
  3  4  1  0
  5  2  1  0
  6  5  2  0
  8  7  1  1
  8 10  1  0
  9  8  1  0
 11 10  1  1
 11 12  1  0
 11 13  1  0
 12  5  1  0
 13 14  2  0
 16 15  1  6
 17 16  1  0
 18 16  1  0
 19 13  1  0
 18 19  1  6
 20 18  1  0
 20 21  1  0
 22 20  2  0
M  END
$$$$
