CLV.pdb
     RDKit          3D

 22 21  0  0  1  0  0  0  0  0999 V2000
   20.6824  -20.8654   -7.2145 N   0  0  0  0  0  0  0  0  0  0  0  0
   21.7976  -21.7637   -7.5323 C   0  0  1  0  0  0  0  0  0  0  0  0
   21.1850  -22.9560   -8.2442 C   0  0  0  0  0  0  0  0  0  0  0  0
   20.3811  -23.9635   -6.9429 S   0  0  0  0  0  0  0  0  0  0  0  0
   22.7923  -21.0561   -8.3429 C   0  0  0  0  0  0  0  0  0  0  0  0
   22.4135  -20.1675   -9.1799 O   0  0  0  0  0  0  0  0  0  0  0  0
   28.0874  -20.1681   -6.6033 C   0  0  0  0  0  0  0  0  0  0  0  0
   26.6830  -19.9153   -7.1122 C   0  0  1  0  0  0  0  0  0  0  0  0
   26.4775  -18.4460   -7.2112 C   0  0  0  0  0  0  0  0  0  0  0  0
   26.5194  -20.6594   -8.3879 C   0  0  0  0  0  0  0  0  0  0  0  0
   25.1277  -20.6123   -8.9602 C   0  0  2  0  0  0  0  0  0  0  0  0
   24.1729  -21.3564   -8.1993 N   0  0  0  0  0  0  0  0  0  0  0  0
   25.2081  -21.2049  -10.3195 C   0  0  0  0  0  0  0  0  0  0  0  0
   25.3310  -22.4405  -10.4393 O   0  0  0  0  0  0  0  0  0  0  0  0
   22.9440  -20.3651  -13.5154 C   0  0  0  0  0  0  0  0  0  0  0  0
   24.4086  -20.3189  -13.7975 C   0  0  2  0  0  0  0  0  0  0  0  0
   24.6661  -20.8748  -15.1762 C   0  0  0  0  0  0  0  0  0  0  0  0
   25.2290  -21.0716  -12.7733 C   0  0  2  0  0  0  0  0  0  0  0  0
   25.1505  -20.4162  -11.5023 N   0  0  0  0  0  0  0  0  0  0  0  0
   26.6490  -21.1834  -13.2022 C   0  0  0  0  0  0  0  0  0  0  0  0
   26.9699  -22.1377  -14.1850 O   0  0  0  0  0  0  0  0  0  0  0  0
   27.5635  -20.4810  -12.7400 O   0  0  0  0  0  0  0  0  0  0  0  0
  2  1  1  6
  2  3  1  0
  3  4  1  0
  5  2  1  0
  6  5  2  0
  8  7  1  6
  8 10  1  0
  9  8  1  0
 11 10  1  1
 11 12  1  0
 11 13  1  0
 12  5  1  0
 13 14  2  0
 16 15  1  1
 17 16  1  0
 18 16  1  0
 19 13  1  0
 18 19  1  1
 20 18  1  0
 20 21  1  0
 22 20  2  0
M  END
$$$$
