CLV.pdb
     RDKit          3D

 22 21  0  0  1  0  0  0  0  0999 V2000
   16.4892  -11.4826  -13.3444 N   0  0  0  0  0  0  0  0  0  0  0  0
   17.3177  -10.4560  -12.7030 C   0  0  1  0  0  0  0  0  0  0  0  0
   18.3136  -10.0040  -13.7555 C   0  0  0  0  0  0  0  0  0  0  0  0
   19.4496  -11.4170  -14.0163 S   0  0  0  0  0  0  0  0  0  0  0  0
   16.4694   -9.3692  -12.2067 C   0  0  0  0  0  0  0  0  0  0  0  0
   15.4516   -8.9979  -12.8847 O   0  0  0  0  0  0  0  0  0  0  0  0
   13.5824   -7.0642   -8.7349 C   0  0  0  0  0  0  0  0  0  0  0  0
   14.9852   -6.5821   -8.4266 C   0  0  1  0  0  0  0  0  0  0  0  0
   15.0905   -6.3520   -6.9614 C   0  0  0  0  0  0  0  0  0  0  0  0
   15.9409   -7.5785   -8.9758 C   0  0  0  0  0  0  0  0  0  0  0  0
   15.8883   -7.7297  -10.4728 C   0  0  2  0  0  0  0  0  0  0  0  0
   16.7770   -8.7301  -10.9762 N   0  0  0  0  0  0  0  0  0  0  0  0
   16.2860   -6.4184  -11.0455 C   0  0  0  0  0  0  0  0  0  0  0  0
   17.4708   -6.0422  -10.9414 O   0  0  0  0  0  0  0  0  0  0  0  0
   15.9936   -5.2425  -14.6064 C   0  0  0  0  0  0  0  0  0  0  0  0
   15.3882   -4.2117  -13.7132 C   0  0  2  0  0  0  0  0  0  0  0  0
   15.7213   -2.8389  -14.2427 C   0  0  0  0  0  0  0  0  0  0  0  0
   15.8438   -4.3377  -12.2760 C   0  0  2  0  0  0  0  0  0  0  0  0
   15.3647   -5.5648  -11.7141 N   0  0  0  0  0  0  0  0  0  0  0  0
   15.3717   -3.1858  -11.4619 C   0  0  0  0  0  0  0  0  0  0  0  0
   16.2763   -2.1375  -11.2122 O   0  0  0  0  0  0  0  0  0  0  0  0
   14.2247   -3.1007  -10.9923 O   0  0  0  0  0  0  0  0  0  0  0  0
  2  1  1  6
  2  3  1  0
  3  4  1  0
  5  2  1  0
  6  5  2  0
  8  7  1  1
  8 10  1  0
  9  8  1  0
 11 10  1  1
 11 12  1  0
 11 13  1  0
 12  5  1  0
 13 14  2  0
 16 15  1  6
 17 16  1  0
 18 16  1  0
 19 13  1  0
 18 19  1  1
 20 18  1  0
 20 21  1  0
 22 20  2  0
M  END
$$$$
