CLV.pdb
     RDKit          3D

 22 21  0  0  1  0  0  0  0  0999 V2000
   17.2894  -12.3296  -15.7109 N   0  0  0  0  0  0  0  0  0  0  0  0
   18.0812  -11.3300  -16.4360 C   0  0  1  0  0  0  0  0  0  0  0  0
   17.0800  -10.4420  -17.1521 C   0  0  0  0  0  0  0  0  0  0  0  0
   16.2700  -11.5028  -18.4064 S   0  0  0  0  0  0  0  0  0  0  0  0
   18.9367  -10.5966  -15.4993 C   0  0  0  0  0  0  0  0  0  0  0  0
   18.5891  -10.4872  -14.2742 O   0  0  0  0  0  0  0  0  0  0  0  0
   24.4268  -10.7173  -15.2099 C   0  0  0  0  0  0  0  0  0  0  0  0
   22.9570  -10.6945  -14.8435 C   0  0  1  0  0  0  0  0  0  0  0  0
   22.8288  -11.0224  -13.3989 C   0  0  0  0  0  0  0  0  0  0  0  0
   22.4091   -9.3709  -15.2378 C   0  0  0  0  0  0  0  0  0  0  0  0
   20.9237   -9.2290  -15.0376 C   0  0  2  0  0  0  0  0  0  0  0  0
   20.1483  -10.0092  -15.9509 N   0  0  0  0  0  0  0  0  0  0  0  0
   20.6018   -7.7956  -15.2550 C   0  0  0  0  0  0  0  0  0  0  0  0
   21.1171   -6.9359  -14.5124 O   0  0  0  0  0  0  0  0  0  0  0  0
   19.1993   -4.1793  -18.2099 C   0  0  0  0  0  0  0  0  0  0  0  0
   19.4414   -5.6279  -17.9453 C   0  0  2  0  0  0  0  0  0  0  0  0
   18.3461   -6.4400  -18.5910 C   0  0  0  0  0  0  0  0  0  0  0  0
   19.5249   -5.9505  -16.4695 C   0  0  2  0  0  0  0  0  0  0  0  0
   19.7225   -7.3568  -16.2840 N   0  0  0  0  0  0  0  0  0  0  0  0
   18.2969   -5.5098  -15.7549 C   0  0  0  0  0  0  0  0  0  0  0  0
   18.1267   -4.1331  -15.5196 O   0  0  0  0  0  0  0  0  0  0  0  0
   17.4166   -6.2905  -15.3563 O   0  0  0  0  0  0  0  0  0  0  0  0
  2  1  1  1
  2  3  1  0
  3  4  1  0
  5  2  1  0
  6  5  2  0
  8  7  1  1
  8 10  1  0
  9  8  1  0
 11 10  1  6
 11 12  1  0
 11 13  1  0
 12  5  1  0
 13 14  2  0
 16 15  1  1
 17 16  1  0
 18 16  1  0
 19 13  1  0
 18 19  1  6
 20 18  1  0
 20 21  1  0
 22 20  2  0
M  END
$$$$
