CLV.pdb
     RDKit          3D

 22 21  0  0  1  0  0  0  0  0999 V2000
   28.7826  -21.3810  -16.5297 N   0  0  0  0  0  0  0  0  0  0  0  0
   28.3020  -20.2911  -15.6737 C   0  0  1  0  0  0  0  0  0  0  0  0
   27.7124  -19.2521  -16.6101 C   0  0  0  0  0  0  0  0  0  0  0  0
   29.0510  -18.0441  -16.9320 S   0  0  0  0  0  0  0  0  0  0  0  0
   27.3339  -20.8092  -14.7034 C   0  0  0  0  0  0  0  0  0  0  0  0
   26.5427  -21.7552  -15.0390 O   0  0  0  0  0  0  0  0  0  0  0  0
   25.3516  -22.1316  -10.0353 C   0  0  0  0  0  0  0  0  0  0  0  0
   25.3731  -20.6207  -10.1441 C   0  0  1  0  0  0  0  0  0  0  0  0
   25.4911  -20.0536   -8.7746 C   0  0  0  0  0  0  0  0  0  0  0  0
   26.4688  -20.2461  -11.0752 C   0  0  0  0  0  0  0  0  0  0  0  0
   26.2878  -20.7505  -12.4821 C   0  0  2  0  0  0  0  0  0  0  0  0
   27.2746  -20.2621  -13.3941 N   0  0  0  0  0  0  0  0  0  0  0  0
   24.9555  -20.2754  -12.9345 C   0  0  0  0  0  0  0  0  0  0  0  0
   24.7663  -19.0527  -13.0936 O   0  0  0  0  0  0  0  0  0  0  0  0
   21.1481  -20.6535  -15.7226 C   0  0  0  0  0  0  0  0  0  0  0  0
   22.4284  -21.1386  -15.1290 C   0  0  2  0  0  0  0  0  0  0  0  0
   22.4410  -22.6471  -15.1413 C   0  0  0  0  0  0  0  0  0  0  0  0
   22.6549  -20.6296  -13.7225 C   0  0  2  0  0  0  0  0  0  0  0  0
   23.8753  -21.1636  -13.1967 N   0  0  0  0  0  0  0  0  0  0  0  0
   21.5171  -20.9881  -12.8338 C   0  0  0  0  0  0  0  0  0  0  0  0
   20.4220  -20.1068  -12.7731 O   0  0  0  0  0  0  0  0  0  0  0  0
   21.4829  -22.0211  -12.1446 O   0  0  0  0  0  0  0  0  0  0  0  0
  2  1  1  6
  2  3  1  0
  3  4  1  0
  5  2  1  0
  6  5  2  0
  8  7  1  1
  8 10  1  0
  9  8  1  0
 11 10  1  1
 11 12  1  0
 11 13  1  0
 12  5  1  0
 13 14  2  0
 16 15  1  1
 17 16  1  0
 18 16  1  0
 19 13  1  0
 18 19  1  1
 20 18  1  0
 20 21  1  0
 22 20  2  0
M  END
$$$$
