CLV.pdb
     RDKit          3D

 22 21  0  0  1  0  0  0  0  0999 V2000
   24.9391  -20.0603   -8.5253 N   0  0  0  0  0  0  0  0  0  0  0  0
   24.6646  -20.9085   -9.6902 C   0  0  1  0  0  0  0  0  0  0  0  0
   23.1774  -20.7763   -9.9632 C   0  0  0  0  0  0  0  0  0  0  0  0
   22.3313  -21.6052   -8.5661 S   0  0  0  0  0  0  0  0  0  0  0  0
   25.4983  -20.4890  -10.8198 C   0  0  0  0  0  0  0  0  0  0  0  0
   25.5317  -19.2579  -11.1616 O   0  0  0  0  0  0  0  0  0  0  0  0
   30.7004  -21.7483  -11.5851 C   0  0  0  0  0  0  0  0  0  0  0  0
   29.4030  -20.9659  -11.5854 C   0  0  1  0  0  0  0  0  0  0  0  0
   29.7172  -19.5372  -11.8517 C   0  0  0  0  0  0  0  0  0  0  0  0
   28.4876  -21.6012  -12.5682 C   0  0  0  0  0  0  0  0  0  0  0  0
   27.1051  -21.0062  -12.6039 C   0  0  2  0  0  0  0  0  0  0  0  0
   26.2669  -21.4471  -11.5328 N   0  0  0  0  0  0  0  0  0  0  0  0
   26.4917  -21.4358  -13.8863 C   0  0  0  0  0  0  0  0  0  0  0  0
   26.2819  -22.6492  -14.0851 O   0  0  0  0  0  0  0  0  0  0  0  0
   24.3393  -18.8269  -16.3663 C   0  0  0  0  0  0  0  0  0  0  0  0
   24.2147  -20.3139  -16.3639 C   0  0  2  0  0  0  0  0  0  0  0  0
   23.2005  -20.7253  -15.3256 C   0  0  0  0  0  0  0  0  0  0  0  0
   25.5313  -21.0142  -16.1087 C   0  0  2  0  0  0  0  0  0  0  0  0
   26.1298  -20.5137  -14.9077 N   0  0  0  0  0  0  0  0  0  0  0  0
   26.4629  -20.8366  -17.2547 C   0  0  0  0  0  0  0  0  0  0  0  0
   26.1419  -21.4656  -18.4717 O   0  0  0  0  0  0  0  0  0  0  0  0
   27.5060  -20.1646  -17.1942 O   0  0  0  0  0  0  0  0  0  0  0  0
  2  1  1  1
  2  3  1  0
  3  4  1  0
  5  2  1  0
  6  5  2  0
  8  7  1  6
  8 10  1  0
  9  8  1  0
 11 10  1  1
 11 12  1  0
 11 13  1  0
 12  5  1  0
 13 14  2  0
 16 15  1  1
 17 16  1  0
 18 16  1  0
 19 13  1  0
 18 19  1  1
 20 18  1  0
 20 21  1  0
 22 20  2  0
M  END
$$$$
