CLV.pdb
     RDKit          3D

 22 21  0  0  1  0  0  0  0  0999 V2000
   19.4988  -12.1929  -18.8129 N   0  0  0  0  0  0  0  0  0  0  0  0
   20.2629  -10.9723  -19.0924 C   0  0  1  0  0  0  0  0  0  0  0  0
   19.2549   -9.9517  -19.5885 C   0  0  0  0  0  0  0  0  0  0  0  0
   18.9411  -10.3639  -21.3453 S   0  0  0  0  0  0  0  0  0  0  0  0
   20.9738  -10.5418  -17.8855 C   0  0  0  0  0  0  0  0  0  0  0  0
   20.4174  -10.6683  -16.7418 O   0  0  0  0  0  0  0  0  0  0  0  0
   24.5489  -10.2099  -14.3828 C   0  0  0  0  0  0  0  0  0  0  0  0
   25.1384   -9.4657  -15.5634 C   0  0  1  0  0  0  0  0  0  0  0  0
   26.6063   -9.7022  -15.5812 C   0  0  0  0  0  0  0  0  0  0  0  0
   24.4169   -9.9051  -16.7858 C   0  0  0  0  0  0  0  0  0  0  0  0
   22.9486   -9.5726  -16.7934 C   0  0  2  0  0  0  0  0  0  0  0  0
   22.2768   -9.9859  -17.9859 N   0  0  0  0  0  0  0  0  0  0  0  0
   22.8482   -8.0948  -16.6870 C   0  0  0  0  0  0  0  0  0  0  0  0
   23.5035   -7.3813  -17.4728 O   0  0  0  0  0  0  0  0  0  0  0  0
   19.5299   -6.0713  -15.3167 C   0  0  0  0  0  0  0  0  0  0  0  0
   20.6568   -5.5052  -16.1146 C   0  0  2  0  0  0  0  0  0  0  0  0
   20.4374   -5.8176  -17.5741 C   0  0  0  0  0  0  0  0  0  0  0  0
   22.0084   -6.0204  -15.6715 C   0  0  2  0  0  0  0  0  0  0  0  0
   22.0285   -7.4517  -15.7179 N   0  0  0  0  0  0  0  0  0  0  0  0
   22.3368   -5.5504  -14.2989 C   0  0  0  0  0  0  0  0  0  0  0  0
   22.6689   -4.1942  -14.1260 O   0  0  0  0  0  0  0  0  0  0  0  0
   22.3332   -6.2896  -13.3005 O   0  0  0  0  0  0  0  0  0  0  0  0
  2  1  1  1
  2  3  1  0
  3  4  1  0
  5  2  1  0
  6  5  2  0
  8  7  1  1
  8 10  1  0
  9  8  1  0
 11 10  1  6
 11 12  1  0
 11 13  1  0
 12  5  1  0
 13 14  2  0
 16 15  1  1
 17 16  1  0
 18 16  1  0
 19 13  1  0
 18 19  1  1
 20 18  1  0
 20 21  1  0
 22 20  2  0
M  END
$$$$
