CLV.pdb
     RDKit          3D

 22 21  0  0  1  0  0  0  0  0999 V2000
   28.8928  -20.9644  -15.6143 N   0  0  0  0  0  0  0  0  0  0  0  0
   28.1559  -19.9366  -14.8711 C   0  0  1  0  0  0  0  0  0  0  0  0
   27.7962  -18.8647  -15.8838 C   0  0  0  0  0  0  0  0  0  0  0  0
   27.0664  -17.4864  -14.9233 S   0  0  0  0  0  0  0  0  0  0  0  0
   26.9855  -20.5335  -14.2222 C   0  0  0  0  0  0  0  0  0  0  0  0
   26.4261  -21.5590  -14.7409 O   0  0  0  0  0  0  0  0  0  0  0  0
   25.9315  -20.1410   -8.6340 C   0  0  0  0  0  0  0  0  0  0  0  0
   26.2268  -20.6961  -10.0125 C   0  0  1  0  0  0  0  0  0  0  0  0
   26.3098  -22.1773   -9.9136 C   0  0  0  0  0  0  0  0  0  0  0  0
   25.1857  -20.1863  -10.9419 C   0  0  0  0  0  0  0  0  0  0  0  0
   25.3697  -20.6120  -12.3742 C   0  0  2  0  0  0  0  0  0  0  0  0
   26.4741  -19.9747  -13.0209 N   0  0  0  0  0  0  0  0  0  0  0  0
   24.1253  -20.2350  -13.0916 C   0  0  0  0  0  0  0  0  0  0  0  0
   23.9113  -19.0336  -13.3506 O   0  0  0  0  0  0  0  0  0  0  0  0
   21.5124  -22.9743  -15.1482 C   0  0  0  0  0  0  0  0  0  0  0  0
   21.6823  -21.5108  -15.3848 C   0  0  2  0  0  0  0  0  0  0  0  0
   22.8077  -21.2940  -16.3658 C   0  0  0  0  0  0  0  0  0  0  0  0
   21.9468  -20.7359  -14.1126 C   0  0  2  0  0  0  0  0  0  0  0  0
   23.1574  -21.1946  -13.5001 N   0  0  0  0  0  0  0  0  0  0  0  0
   20.8120  -20.8676  -13.1599 C   0  0  0  0  0  0  0  0  0  0  0  0
   19.5884  -20.2627  -13.5012 O   0  0  0  0  0  0  0  0  0  0  0  0
   20.8873  -21.4814  -12.0825 O   0  0  0  0  0  0  0  0  0  0  0  0
  2  1  1  6
  2  3  1  0
  3  4  1  0
  5  2  1  0
  6  5  2  0
  8  7  1  1
  8 10  1  0
  9  8  1  0
 11 10  1  1
 11 12  1  0
 11 13  1  0
 12  5  1  0
 13 14  2  0
 16 15  1  1
 17 16  1  0
 18 16  1  0
 19 13  1  0
 18 19  1  1
 20 18  1  0
 20 21  1  0
 22 20  2  0
M  END
$$$$
