CLV.pdb
     RDKit          3D

 22 21  0  0  1  0  0  0  0  0999 V2000
   20.1536  -14.9418  -17.8906 N   0  0  0  0  0  0  0  0  0  0  0  0
   20.9843  -13.9243  -18.5435 C   0  0  1  0  0  0  0  0  0  0  0  0
   20.1111  -13.2945  -19.6135 C   0  0  0  0  0  0  0  0  0  0  0  0
   20.0392  -14.5061  -20.9852 S   0  0  0  0  0  0  0  0  0  0  0  0
   21.4651  -12.9606  -17.5499 C   0  0  0  0  0  0  0  0  0  0  0  0
   20.7544  -12.7034  -16.5191 O   0  0  0  0  0  0  0  0  0  0  0  0
   24.6949  -10.7968  -14.2950 C   0  0  0  0  0  0  0  0  0  0  0  0
   25.2126  -10.3707  -15.6536 C   0  0  1  0  0  0  0  0  0  0  0  0
   26.6944  -10.2721  -15.5808 C   0  0  0  0  0  0  0  0  0  0  0  0
   24.6963  -11.3333  -16.6608 C   0  0  0  0  0  0  0  0  0  0  0  0
   23.1948  -11.4303  -16.7144 C   0  0  2  0  0  0  0  0  0  0  0  0
   22.7167  -12.3144  -17.7312 N   0  0  0  0  0  0  0  0  0  0  0  0
   22.6920  -10.0639  -17.0069 C   0  0  0  0  0  0  0  0  0  0  0  0
   23.0953   -9.4718  -18.0282 O   0  0  0  0  0  0  0  0  0  0  0  0
   19.0181   -8.5354  -15.8416 C   0  0  0  0  0  0  0  0  0  0  0  0
   19.9347   -7.9906  -16.8856 C   0  0  2  0  0  0  0  0  0  0  0  0
   19.7279   -8.7499  -18.1727 C   0  0  0  0  0  0  0  0  0  0  0  0
   21.3906   -8.0475  -16.4781 C   0  0  2  0  0  0  0  0  0  0  0  0
   21.7611   -9.3949  -16.1642 N   0  0  0  0  0  0  0  0  0  0  0  0
   21.6553   -7.1615  -15.3129 C   0  0  0  0  0  0  0  0  0  0  0  0
   21.6628   -5.7710  -15.5276 O   0  0  0  0  0  0  0  0  0  0  0  0
   21.8693   -7.5831  -14.1641 O   0  0  0  0  0  0  0  0  0  0  0  0
  2  1  1  1
  2  3  1  0
  3  4  1  0
  5  2  1  0
  6  5  2  0
  8  7  1  1
  8 10  1  0
  9  8  1  0
 11 10  1  6
 11 12  1  0
 11 13  1  0
 12  5  1  0
 13 14  2  0
 16 15  1  1
 17 16  1  0
 18 16  1  0
 19 13  1  0
 18 19  1  1
 20 18  1  0
 20 21  1  0
 22 20  2  0
M  END
$$$$
