CLV.pdb
     RDKit          3D

 22 21  0  0  1  0  0  0  0  0999 V2000
   15.3295  -21.4139    0.1221 N   0  0  0  0  0  0  0  0  0  0  0  0
   14.5642  -20.4653    0.9384 C   0  0  1  0  0  0  0  0  0  0  0  0
   13.4685  -21.2762    1.6058 C   0  0  0  0  0  0  0  0  0  0  0  0
   12.3125  -21.7598    0.2700 S   0  0  0  0  0  0  0  0  0  0  0  0
   15.4533  -19.7996    1.8942 C   0  0  0  0  0  0  0  0  0  0  0  0
   16.3368  -20.4795    2.5193 O   0  0  0  0  0  0  0  0  0  0  0  0
   18.8633  -16.1629    3.3085 C   0  0  0  0  0  0  0  0  0  0  0  0
   17.4731  -15.5756    3.4418 C   0  0  1  0  0  0  0  0  0  0  0  0
   17.5558  -14.1129    3.1877 C   0  0  0  0  0  0  0  0  0  0  0  0
   16.5729  -16.3221    2.5252 C   0  0  0  0  0  0  0  0  0  0  0  0
   16.3143  -17.7478    2.9338 C   0  0  2  0  0  0  0  0  0  0  0  0
   15.3340  -18.4035    2.1256 N   0  0  0  0  0  0  0  0  0  0  0  0
   15.8159  -17.7042    4.3321 C   0  0  0  0  0  0  0  0  0  0  0  0
   14.6632  -17.2829    4.5553 O   0  0  0  0  0  0  0  0  0  0  0  0
   17.2576  -20.1425    7.3885 C   0  0  0  0  0  0  0  0  0  0  0  0
   15.9495  -19.4248    7.3655 C   0  0  2  0  0  0  0  0  0  0  0  0
   14.9414  -20.2546    6.6097 C   0  0  0  0  0  0  0  0  0  0  0  0
   16.0466  -18.0440    6.7550 C   0  0  2  0  0  0  0  0  0  0  0  0
   16.6045  -18.1264    5.4385 N   0  0  0  0  0  0  0  0  0  0  0  0
   16.8709  -17.1409    7.6022 C   0  0  0  0  0  0  0  0  0  0  0  0
   16.2990  -16.6402    8.7862 O   0  0  0  0  0  0  0  0  0  0  0  0
   18.0337  -16.8066    7.3205 O   0  0  0  0  0  0  0  0  0  0  0  0
  2  1  1  1
  2  3  1  0
  3  4  1  0
  5  2  1  0
  6  5  2  0
  8  7  1  6
  8 10  1  0
  9  8  1  0
 11 10  1  6
 11 12  1  0
 11 13  1  0
 12  5  1  0
 13 14  2  0
 16 15  1  6
 17 16  1  0
 18 16  1  0
 19 13  1  0
 18 19  1  6
 20 18  1  0
 20 21  1  0
 22 20  2  0
M  END
$$$$
