CLV.pdb
     RDKit          3D

 22 21  0  0  1  0  0  0  0  0999 V2000
   28.0481  -19.2911  -16.0921 N   0  0  0  0  0  0  0  0  0  0  0  0
   27.0761  -18.6128  -15.2278 C   0  0  1  0  0  0  0  0  0  0  0  0
   26.4153  -17.5539  -16.0915 C   0  0  0  0  0  0  0  0  0  0  0  0
   27.2180  -15.9680  -15.6498 S   0  0  0  0  0  0  0  0  0  0  0  0
   26.1276  -19.5879  -14.6832 C   0  0  0  0  0  0  0  0  0  0  0  0
   25.8042  -20.6134  -15.3740 O   0  0  0  0  0  0  0  0  0  0  0  0
   25.6349  -20.6040   -9.1805 C   0  0  0  0  0  0  0  0  0  0  0  0
   25.8761  -20.6900  -10.6737 C   0  0  1  0  0  0  0  0  0  0  0  0
   26.4397  -22.0311  -10.9811 C   0  0  0  0  0  0  0  0  0  0  0  0
   24.5974  -20.3738  -11.3612 C   0  0  0  0  0  0  0  0  0  0  0  0
   24.6816  -20.3833  -12.8643 C   0  0  2  0  0  0  0  0  0  0  0  0
   25.5692  -19.3943  -13.3918 N   0  0  0  0  0  0  0  0  0  0  0  0
   23.3131  -20.1009  -13.3672 C   0  0  0  0  0  0  0  0  0  0  0  0
   22.8596  -18.9420  -13.2818 O   0  0  0  0  0  0  0  0  0  0  0  0
   21.0725  -22.8030  -15.8393 C   0  0  0  0  0  0  0  0  0  0  0  0
   20.9598  -21.3155  -15.8037 C   0  0  2  0  0  0  0  0  0  0  0  0
   21.9428  -20.7198  -16.7807 C   0  0  0  0  0  0  0  0  0  0  0  0
   21.1882  -20.7410  -14.4229 C   0  0  2  0  0  0  0  0  0  0  0  0
   22.4892  -21.1053  -13.9477 N   0  0  0  0  0  0  0  0  0  0  0  0
   20.1475  -21.2100  -13.4691 C   0  0  0  0  0  0  0  0  0  0  0  0
   18.8407  -20.7101  -13.6176 O   0  0  0  0  0  0  0  0  0  0  0  0
   20.3705  -22.0171  -12.5514 O   0  0  0  0  0  0  0  0  0  0  0  0
  2  1  1  6
  2  3  1  0
  3  4  1  0
  5  2  1  0
  6  5  2  0
  8  7  1  1
  8 10  1  0
  9  8  1  0
 11 10  1  1
 11 12  1  0
 11 13  1  0
 12  5  1  0
 13 14  2  0
 16 15  1  1
 17 16  1  0
 18 16  1  0
 19 13  1  0
 18 19  1  1
 20 18  1  0
 20 21  1  0
 22 20  2  0
M  END
$$$$
