KDI.pdb
     RDKit          3D

 26 25  0  0  1  0  0  0  0  0999 V2000
   19.9918  -32.2063   -2.3899 N   0  0  0  0  0  0  0  0  0  0  0  0
   20.5355  -30.9281   -2.7551 C   0  0  1  0  0  0  0  0  0  0  0  0
   21.3127  -30.8693   -4.0076 C   0  0  0  0  0  0  0  0  0  0  0  0
   22.7689  -31.0996   -3.8074 C   0  0  0  0  0  0  0  0  0  0  0  0
   23.1382  -32.5460   -3.6904 C   0  0  0  0  0  0  0  0  0  0  0  0
   24.6307  -32.6666   -3.5230 C   0  0  0  0  0  0  0  0  0  0  0  0
   24.9599  -34.0719   -3.4206 N   0  0  0  0  0  0  0  0  0  0  0  0
   19.4039  -29.9423   -2.7354 C   0  0  0  0  0  0  0  0  0  0  0  0
   18.3112  -30.1788   -3.3101 O   0  0  0  0  0  0  0  0  0  0  0  0
   19.5205  -28.6804   -2.0563 N   0  0  0  0  0  0  0  0  0  0  0  0
   18.4188  -27.7640   -2.0487 C   0  0  1  0  0  0  0  0  0  0  0  0
   18.4887  -26.9287   -0.7890 C   0  0  0  0  0  0  0  0  0  0  0  0
   18.5147  -27.7534    0.4456 C   0  0  0  0  0  0  0  0  0  0  0  0
   17.7163  -28.7245    0.4828 O   0  0  0  0  0  0  0  0  0  0  0  0
   18.4559  -26.8170   -3.1928 C   0  0  0  0  0  0  0  0  0  0  0  0
   19.5110  -26.3416   -3.6817 O   0  0  0  0  0  0  0  0  0  0  0  0
   19.3237  -27.5456    1.5280 O   0  0  0  0  0  0  0  0  0  0  0  0
   17.0666  -26.8288   -8.6538 C   0  0  0  0  0  0  0  0  0  0  0  0
   17.0276  -25.8998   -7.5020 C   0  0  0  0  0  0  0  0  0  0  0  0
   17.1162  -26.4361   -6.1378 C   0  0  2  0  0  0  0  0  0  0  0  0
   16.0658  -27.5438   -5.9739 C   0  0  0  0  0  0  0  0  0  0  0  0
   17.1450  -25.5425   -4.9609 C   0  0  2  0  0  0  0  0  0  0  0  0
   17.2143  -26.4338   -3.7594 N   0  0  0  0  0  0  0  0  0  0  0  0
   16.0656  -24.6027   -4.7522 C   0  0  0  0  0  0  0  0  0  0  0  0
   15.1258  -24.7219   -3.7658 O   0  0  0  0  0  0  0  0  0  0  0  0
   15.9467  -23.5918   -5.5177 O   0  0  0  0  0  0  0  0  0  0  0  0
  2  1  1  6
  3  4  1  0
  3  2  1  0
  5  4  1  0
  5  6  1  0
  7  6  1  0
  8  2  1  0
  8  9  2  0
 10  8  1  0
 11 10  1  0
 11 12  1  1
 13 12  1  0
 14 13  2  0
 15 11  1  0
 16 15  2  0
 17 13  1  0
 19 18  1  0
 20 19  1  0
 20 22  1  0
 20 21  1  1
 22 24  1  0
 22 23  1  1
 23 15  1  0
 24 25  1  0
 26 24  2  0
M  END
$$$$
