KDI.pdb
     RDKit          3D

 26 25  0  0  1  0  0  0  0  0999 V2000
   22.7338  -25.0224  -14.5880 N   0  0  0  0  0  0  0  0  0  0  0  0
   22.7879  -23.6103  -14.3312 C   0  0  1  0  0  0  0  0  0  0  0  0
   23.1532  -22.7414  -15.4660 C   0  0  0  0  0  0  0  0  0  0  0  0
   24.5650  -22.9092  -15.9043 C   0  0  0  0  0  0  0  0  0  0  0  0
   24.8673  -24.2707  -16.4496 C   0  0  0  0  0  0  0  0  0  0  0  0
   26.3133  -24.3291  -16.8689 C   0  0  0  0  0  0  0  0  0  0  0  0
   26.6178  -25.6926  -17.2458 N   0  0  0  0  0  0  0  0  0  0  0  0
   21.4781  -23.2217  -13.7096 C   0  0  0  0  0  0  0  0  0  0  0  0
   21.2323  -22.0358  -13.3729 O   0  0  0  0  0  0  0  0  0  0  0  0
   20.4441  -24.1918  -13.4715 N   0  0  0  0  0  0  0  0  0  0  0  0
   19.2289  -23.8015  -12.8197 C   0  0  1  0  0  0  0  0  0  0  0  0
   18.1645  -23.5722  -13.8703 C   0  0  0  0  0  0  0  0  0  0  0  0
   16.9067  -23.0234  -13.3026 C   0  0  0  0  0  0  0  0  0  0  0  0
   15.8363  -23.5131  -13.7458 O   0  0  0  0  0  0  0  0  0  0  0  0
   18.7089  -24.8507  -11.9055 C   0  0  0  0  0  0  0  0  0  0  0  0
   18.7520  -26.0827  -12.1478 O   0  0  0  0  0  0  0  0  0  0  0  0
   16.8198  -22.0443  -12.3524 O   0  0  0  0  0  0  0  0  0  0  0  0
   18.3734  -25.0789   -5.8229 C   0  0  0  0  0  0  0  0  0  0  0  0
   17.9326  -25.6546   -7.1135 C   0  0  0  0  0  0  0  0  0  0  0  0
   18.1451  -24.8964   -8.3530 C   0  0  2  0  0  0  0  0  0  0  0  0
   17.7166  -23.4406   -8.1206 C   0  0  0  0  0  0  0  0  0  0  0  0
   17.6590  -25.3998   -9.6549 C   0  0  2  0  0  0  0  0  0  0  0  0
   18.1298  -24.4203  -10.6853 N   0  0  0  0  0  0  0  0  0  0  0  0
   16.2416  -25.6056   -9.8560 C   0  0  0  0  0  0  0  0  0  0  0  0
   15.4265  -24.7294  -10.5180 O   0  0  0  0  0  0  0  0  0  0  0  0
   15.6806  -26.6532   -9.3978 O   0  0  0  0  0  0  0  0  0  0  0  0
  2  1  1  6
  3  4  1  0
  3  2  1  0
  5  4  1  0
  5  6  1  0
  7  6  1  0
  8  2  1  0
  8  9  2  0
 10  8  1  0
 11 10  1  0
 11 12  1  6
 13 12  1  0
 14 13  2  0
 15 11  1  0
 16 15  2  0
 17 13  1  0
 19 18  1  0
 20 19  1  0
 20 22  1  0
 20 21  1  1
 22 24  1  0
 22 23  1  6
 23 15  1  0
 24 25  1  0
 26 24  2  0
M  END
$$$$
