KDI.pdb
     RDKit          3D

 26 25  0  0  1  0  0  0  0  0999 V2000
   26.5720  -22.4392  -14.9007 N   0  0  0  0  0  0  0  0  0  0  0  0
   27.0191  -21.0744  -14.8954 C   0  0  1  0  0  0  0  0  0  0  0  0
   26.6779  -20.2582  -16.0760 C   0  0  0  0  0  0  0  0  0  0  0  0
   25.5582  -20.8222  -16.8770 C   0  0  0  0  0  0  0  0  0  0  0  0
   25.3233  -20.1049  -18.1702 C   0  0  0  0  0  0  0  0  0  0  0  0
   24.1684  -20.7479  -18.8934 C   0  0  0  0  0  0  0  0  0  0  0  0
   23.9640  -20.0368  -20.1369 N   0  0  0  0  0  0  0  0  0  0  0  0
   26.5423  -20.4560  -13.6135 C   0  0  0  0  0  0  0  0  0  0  0  0
   26.8609  -19.2849  -13.2860 O   0  0  0  0  0  0  0  0  0  0  0  0
   25.6979  -21.1783  -12.7013 N   0  0  0  0  0  0  0  0  0  0  0  0
   25.2439  -20.5533  -11.4942 C   0  0  1  0  0  0  0  0  0  0  0  0
   23.7354  -20.6523  -11.4319 C   0  0  0  0  0  0  0  0  0  0  0  0
   23.0703  -20.0217  -12.6004 C   0  0  0  0  0  0  0  0  0  0  0  0
   23.3319  -18.8080  -12.8013 O   0  0  0  0  0  0  0  0  0  0  0  0
   25.7673  -21.2201  -10.2742 C   0  0  0  0  0  0  0  0  0  0  0  0
   26.0197  -22.4483  -10.1942 O   0  0  0  0  0  0  0  0  0  0  0  0
   22.2100  -20.6441  -13.4617 O   0  0  0  0  0  0  0  0  0  0  0  0
   27.8987  -18.3745   -5.6965 C   0  0  0  0  0  0  0  0  0  0  0  0
   27.5420  -18.8202   -7.0623 C   0  0  0  0  0  0  0  0  0  0  0  0
   27.6111  -20.2483   -7.3975 C   0  0  2  0  0  0  0  0  0  0  0  0
   28.7822  -20.4721   -8.3648 C   0  0  0  0  0  0  0  0  0  0  0  0
   26.4100  -20.9968   -7.8235 C   0  0  2  0  0  0  0  0  0  0  0  0
   25.9916  -20.4070   -9.1349 N   0  0  0  0  0  0  0  0  0  0  0  0
   25.2478  -21.0301   -6.9631 C   0  0  0  0  0  0  0  0  0  0  0  0
   25.2021  -21.6826   -5.7621 O   0  0  0  0  0  0  0  0  0  0  0  0
   24.1802  -20.4311   -7.3143 O   0  0  0  0  0  0  0  0  0  0  0  0
  2  1  1  6
  3  4  1  0
  3  2  1  0
  5  4  1  0
  5  6  1  0
  7  6  1  0
  8  2  1  0
  8  9  2  0
 10  8  1  0
 11 10  1  0
 11 12  1  1
 13 12  1  0
 14 13  2  0
 15 11  1  0
 16 15  2  0
 17 13  1  0
 19 18  1  0
 20 19  1  0
 20 22  1  0
 20 21  1  6
 22 24  1  0
 22 23  1  6
 23 15  1  0
 24 25  1  0
 26 24  2  0
M  END
$$$$
