KDI.pdb
     RDKit          3D

 26 25  0  0  1  0  0  0  0  0999 V2000
   28.6564  -22.5362  -16.3130 N   0  0  0  0  0  0  0  0  0  0  0  0
   28.6670  -21.1765  -16.7755 C   0  0  1  0  0  0  0  0  0  0  0  0
   28.3466  -20.9555  -18.1985 C   0  0  0  0  0  0  0  0  0  0  0  0
   29.5527  -20.8456  -19.0626 C   0  0  0  0  0  0  0  0  0  0  0  0
   30.4508  -22.0420  -18.9960 C   0  0  0  0  0  0  0  0  0  0  0  0
   31.6320  -21.8288  -19.9067 C   0  0  0  0  0  0  0  0  0  0  0  0
   31.1531  -21.2228  -21.1304 N   0  0  0  0  0  0  0  0  0  0  0  0
   27.7777  -20.3886  -15.8583 C   0  0  0  0  0  0  0  0  0  0  0  0
   27.6012  -19.1532  -16.0090 O   0  0  0  0  0  0  0  0  0  0  0  0
   27.0868  -21.0144  -14.7637 N   0  0  0  0  0  0  0  0  0  0  0  0
   25.9257  -20.3935  -14.1978 C   0  0  1  0  0  0  0  0  0  0  0  0
   24.8354  -20.3528  -15.2461 C   0  0  0  0  0  0  0  0  0  0  0  0
   23.5696  -19.7681  -14.7350 C   0  0  0  0  0  0  0  0  0  0  0  0
   22.5721  -20.5339  -14.7132 O   0  0  0  0  0  0  0  0  0  0  0  0
   25.3799  -21.1501  -13.0417 C   0  0  0  0  0  0  0  0  0  0  0  0
   25.0056  -22.3482  -13.0954 O   0  0  0  0  0  0  0  0  0  0  0  0
   23.4036  -18.4849  -14.2933 O   0  0  0  0  0  0  0  0  0  0  0  0
   27.3945  -19.6742   -8.1838 C   0  0  0  0  0  0  0  0  0  0  0  0
   26.7791  -20.5001   -9.2470 C   0  0  0  0  0  0  0  0  0  0  0  0
   25.3216  -20.4800   -9.4251 C   0  0  2  0  0  0  0  0  0  0  0  0
   24.6581  -20.9264   -8.1144 C   0  0  0  0  0  0  0  0  0  0  0  0
   24.6814  -21.1146  -10.5963 C   0  0  2  0  0  0  0  0  0  0  0  0
   25.2806  -20.4643  -11.8051 N   0  0  0  0  0  0  0  0  0  0  0  0
   23.2426  -21.0664  -10.7362 C   0  0  0  0  0  0  0  0  0  0  0  0
   22.4057  -22.0957  -10.4038 O   0  0  0  0  0  0  0  0  0  0  0  0
   22.6842  -20.0197  -11.1992 O   0  0  0  0  0  0  0  0  0  0  0  0
  2  1  1  1
  3  4  1  0
  3  2  1  0
  5  4  1  0
  5  6  1  0
  7  6  1  0
  8  2  1  0
  8  9  2  0
 10  8  1  0
 11 10  1  0
 11 12  1  6
 13 12  1  0
 14 13  2  0
 15 11  1  0
 16 15  2  0
 17 13  1  0
 19 18  1  0
 20 19  1  0
 20 22  1  0
 20 21  1  1
 22 24  1  0
 22 23  1  6
 23 15  1  0
 24 25  1  0
 26 24  2  0
M  END
$$$$
