KDI.pdb
     RDKit          3D

 26 25  0  0  1  0  0  0  0  0999 V2000
   20.8085  -18.3182  -14.9268 N   0  0  0  0  0  0  0  0  0  0  0  0
   20.3717  -18.8374  -13.6610 C   0  0  1  0  0  0  0  0  0  0  0  0
   18.9909  -19.3525  -13.5942 C   0  0  0  0  0  0  0  0  0  0  0  0
   18.2790  -19.2972  -14.8994 C   0  0  0  0  0  0  0  0  0  0  0  0
   19.0555  -19.8921  -16.0332 C   0  0  0  0  0  0  0  0  0  0  0  0
   18.2192  -19.8487  -17.2858 C   0  0  0  0  0  0  0  0  0  0  0  0
   19.0485  -20.2679  -18.3952 N   0  0  0  0  0  0  0  0  0  0  0  0
   21.3852  -19.8552  -13.2250 C   0  0  0  0  0  0  0  0  0  0  0  0
   21.2464  -20.5133  -12.1631 O   0  0  0  0  0  0  0  0  0  0  0  0
   22.5628  -20.1224  -14.0053 N   0  0  0  0  0  0  0  0  0  0  0  0
   23.5223  -21.0853  -13.5514 C   0  0  1  0  0  0  0  0  0  0  0  0
   23.9052  -21.9763  -14.7128 C   0  0  0  0  0  0  0  0  0  0  0  0
   24.8015  -23.0899  -14.3105 C   0  0  0  0  0  0  0  0  0  0  0  0
   24.6999  -23.4835  -13.1202 O   0  0  0  0  0  0  0  0  0  0  0  0
   24.7763  -20.4555  -13.0636 C   0  0  0  0  0  0  0  0  0  0  0  0
   25.2298  -19.3638  -13.4889 O   0  0  0  0  0  0  0  0  0  0  0  0
   25.7139  -23.7119  -15.1167 O   0  0  0  0  0  0  0  0  0  0  0  0
   25.6322  -20.7466   -7.6988 C   0  0  0  0  0  0  0  0  0  0  0  0
   25.6471  -20.3644   -9.1288 C   0  0  0  0  0  0  0  0  0  0  0  0
   26.6929  -20.9006  -10.0093 C   0  0  2  0  0  0  0  0  0  0  0  0
   28.0584  -20.6857   -9.3411 C   0  0  0  0  0  0  0  0  0  0  0  0
   26.7369  -20.5598  -11.4468 C   0  0  2  0  0  0  0  0  0  0  0  0
   25.4971  -21.1408  -12.0535 N   0  0  0  0  0  0  0  0  0  0  0  0
   27.8630  -20.9878  -12.2472 C   0  0  0  0  0  0  0  0  0  0  0  0
   28.9626  -20.2143  -12.4983 O   0  0  0  0  0  0  0  0  0  0  0  0
   27.8646  -22.1481  -12.7722 O   0  0  0  0  0  0  0  0  0  0  0  0
  2  1  1  6
  3  4  1  0
  3  2  1  0
  5  4  1  0
  5  6  1  0
  7  6  1  0
  8  2  1  0
  8  9  2  0
 10  8  1  0
 11 10  1  0
 11 12  1  6
 13 12  1  0
 14 13  2  0
 15 11  1  0
 16 15  2  0
 17 13  1  0
 19 18  1  0
 20 19  1  0
 20 22  1  0
 20 21  1  1
 22 24  1  0
 22 23  1  6
 23 15  1  0
 24 25  1  0
 26 24  2  0
M  END
$$$$
