KDI.pdb
     RDKit          3D

 26 25  0  0  1  0  0  0  0  0999 V2000
   27.6952  -20.5611  -15.5363 N   0  0  0  0  0  0  0  0  0  0  0  0
   27.9369  -19.3434  -14.8141 C   0  0  1  0  0  0  0  0  0  0  0  0
   27.8656  -18.0876  -15.5850 C   0  0  0  0  0  0  0  0  0  0  0  0
   28.6486  -18.1287  -16.8494 C   0  0  0  0  0  0  0  0  0  0  0  0
   28.2087  -19.2039  -17.7942 C   0  0  0  0  0  0  0  0  0  0  0  0
   29.0461  -19.1404  -19.0451 C   0  0  0  0  0  0  0  0  0  0  0  0
   28.6358  -20.2204  -19.9165 N   0  0  0  0  0  0  0  0  0  0  0  0
   27.0175  -19.3410  -13.6276 C   0  0  0  0  0  0  0  0  0  0  0  0
   26.9520  -18.3602  -12.8442 O   0  0  0  0  0  0  0  0  0  0  0  0
   26.1691  -20.4640  -13.3344 N   0  0  0  0  0  0  0  0  0  0  0  0
   25.2551  -20.4055  -12.2321 C   0  0  1  0  0  0  0  0  0  0  0  0
   23.9807  -21.1246  -12.6172 C   0  0  0  0  0  0  0  0  0  0  0  0
   23.1631  -20.3602  -13.5932 C   0  0  0  0  0  0  0  0  0  0  0  0
   22.8299  -19.1972  -13.2494 O   0  0  0  0  0  0  0  0  0  0  0  0
   25.7795  -21.0841  -11.0190 C   0  0  0  0  0  0  0  0  0  0  0  0
   26.3782  -22.1885  -11.0310 O   0  0  0  0  0  0  0  0  0  0  0  0
   22.7497  -20.8116  -14.8157 O   0  0  0  0  0  0  0  0  0  0  0  0
   28.6675  -19.6252   -6.0446 C   0  0  0  0  0  0  0  0  0  0  0  0
   27.7187  -20.5786   -6.6627 C   0  0  0  0  0  0  0  0  0  0  0  0
   26.9375  -20.1632   -7.8348 C   0  0  2  0  0  0  0  0  0  0  0  0
   26.2974  -18.7986   -7.5428 C   0  0  0  0  0  0  0  0  0  0  0  0
   25.9774  -21.0809   -8.4833 C   0  0  2  0  0  0  0  0  0  0  0  0
   25.5850  -20.4327   -9.7751 N   0  0  0  0  0  0  0  0  0  0  0  0
   24.7642  -21.4515   -7.7885 C   0  0  0  0  0  0  0  0  0  0  0  0
   24.7004  -22.4129   -6.8179 O   0  0  0  0  0  0  0  0  0  0  0  0
   23.6663  -20.8730   -8.0748 O   0  0  0  0  0  0  0  0  0  0  0  0
  2  1  1  6
  3  4  1  0
  3  2  1  0
  5  4  1  0
  5  6  1  0
  7  6  1  0
  8  2  1  0
  8  9  2  0
 10  8  1  0
 11 10  1  0
 11 12  1  6
 13 12  1  0
 14 13  2  0
 15 11  1  0
 16 15  2  0
 17 13  1  0
 19 18  1  0
 20 19  1  0
 20 22  1  0
 20 21  1  1
 22 24  1  0
 22 23  1  6
 23 15  1  0
 24 25  1  0
 26 24  2  0
M  END
$$$$
