KDI.pdb
     RDKit          3D

 26 25  0  0  1  0  0  0  0  0999 V2000
   18.2065  -14.5736  -15.8428 N   0  0  0  0  0  0  0  0  0  0  0  0
   17.5177  -14.1933  -17.0443 C   0  0  1  0  0  0  0  0  0  0  0  0
   16.5155  -15.1424  -17.5651 C   0  0  0  0  0  0  0  0  0  0  0  0
   16.8976  -16.5669  -17.3699 C   0  0  0  0  0  0  0  0  0  0  0  0
   16.7597  -17.0378  -15.9552 C   0  0  0  0  0  0  0  0  0  0  0  0
   17.0717  -18.5103  -15.8881 C   0  0  0  0  0  0  0  0  0  0  0  0
   17.0032  -18.9222  -14.5026 N   0  0  0  0  0  0  0  0  0  0  0  0
   16.9462  -12.8246  -16.8141 C   0  0  0  0  0  0  0  0  0  0  0  0
   16.3097  -12.2148  -17.7103 O   0  0  0  0  0  0  0  0  0  0  0  0
   17.1023  -12.1491  -15.5546 N   0  0  0  0  0  0  0  0  0  0  0  0
   16.5945  -10.8198  -15.3844 C   0  0  1  0  0  0  0  0  0  0  0  0
   16.0096  -10.6961  -13.9944 C   0  0  0  0  0  0  0  0  0  0  0  0
   15.3796   -9.3732  -13.7526 C   0  0  0  0  0  0  0  0  0  0  0  0
   16.1510   -8.4472  -13.3929 O   0  0  0  0  0  0  0  0  0  0  0  0
   17.6544   -9.7849  -15.4964 C   0  0  0  0  0  0  0  0  0  0  0  0
   18.8436   -9.9495  -15.1260 O   0  0  0  0  0  0  0  0  0  0  0  0
   14.0499   -9.0852  -13.8872 O   0  0  0  0  0  0  0  0  0  0  0  0
   18.0820   -7.3475  -20.1864 C   0  0  0  0  0  0  0  0  0  0  0  0
   18.4258   -7.8133  -18.8240 C   0  0  0  0  0  0  0  0  0  0  0  0
   18.0875   -6.9749  -17.6668 C   0  0  2  0  0  0  0  0  0  0  0  0
   18.6945   -5.5799  -17.8739 C   0  0  0  0  0  0  0  0  0  0  0  0
   18.2957   -7.4531  -16.2839 C   0  0  2  0  0  0  0  0  0  0  0  0
   17.2868   -8.5367  -16.0588 N   0  0  0  0  0  0  0  0  0  0  0  0
   18.1947   -6.5198  -15.1836 C   0  0  0  0  0  0  0  0  0  0  0  0
   19.2665   -5.8942  -14.6088 O   0  0  0  0  0  0  0  0  0  0  0  0
   17.0546   -6.2425  -14.6885 O   0  0  0  0  0  0  0  0  0  0  0  0
  2  1  1  1
  3  4  1  0
  3  2  1  0
  5  4  1  0
  5  6  1  0
  7  6  1  0
  8  2  1  0
  8  9  2  0
 10  8  1  0
 11 10  1  0
 11 12  1  1
 13 12  1  0
 14 13  2  0
 15 11  1  0
 16 15  2  0
 17 13  1  0
 19 18  1  0
 20 19  1  0
 20 22  1  0
 20 21  1  6
 22 24  1  0
 22 23  1  1
 23 15  1  0
 24 25  1  0
 26 24  2  0
M  END
$$$$
