KDI.pdb
     RDKit          3D

 26 25  0  0  1  0  0  0  0  0999 V2000
   27.8661  -20.3444  -15.8711 N   0  0  0  0  0  0  0  0  0  0  0  0
   28.0951  -19.1420  -15.1197 C   0  0  1  0  0  0  0  0  0  0  0  0
   28.1932  -17.8863  -15.8878 C   0  0  0  0  0  0  0  0  0  0  0  0
   28.2876  -18.1015  -17.3568 C   0  0  0  0  0  0  0  0  0  0  0  0
   29.6854  -18.3315  -17.8421 C   0  0  0  0  0  0  0  0  0  0  0  0
   29.8113  -17.8245  -19.2553 C   0  0  0  0  0  0  0  0  0  0  0  0
   28.9606  -18.6338  -20.1011 N   0  0  0  0  0  0  0  0  0  0  0  0
   27.0435  -19.0797  -14.0505 C   0  0  0  0  0  0  0  0  0  0  0  0
   26.7987  -18.0170  -13.4254 O   0  0  0  0  0  0  0  0  0  0  0  0
   26.2678  -20.2364  -13.6934 N   0  0  0  0  0  0  0  0  0  0  0  0
   25.2726  -20.1451  -12.6663 C   0  0  1  0  0  0  0  0  0  0  0  0
   23.9734  -20.7126  -13.1950 C   0  0  0  0  0  0  0  0  0  0  0  0
   22.8718  -20.6463  -12.2013 C   0  0  0  0  0  0  0  0  0  0  0  0
   22.7253  -19.5483  -11.6056 O   0  0  0  0  0  0  0  0  0  0  0  0
   25.6245  -20.9350  -11.4584 C   0  0  0  0  0  0  0  0  0  0  0  0
   26.0186  -22.1277  -11.4850 O   0  0  0  0  0  0  0  0  0  0  0  0
   22.0177  -21.6664  -11.8865 O   0  0  0  0  0  0  0  0  0  0  0  0
   28.3145  -19.9717   -6.2020 C   0  0  0  0  0  0  0  0  0  0  0  0
   27.3036  -20.7795   -6.9208 C   0  0  0  0  0  0  0  0  0  0  0  0
   26.6652  -20.2331   -8.1251 C   0  0  2  0  0  0  0  0  0  0  0  0
   26.0966  -18.8455   -7.7959 C   0  0  0  0  0  0  0  0  0  0  0  0
   25.7084  -21.0330   -8.9182 C   0  0  2  0  0  0  0  0  0  0  0  0
   25.5036  -20.2896  -10.2021 N   0  0  0  0  0  0  0  0  0  0  0  0
   24.4046  -21.3353   -8.3698 C   0  0  0  0  0  0  0  0  0  0  0  0
   24.1570  -22.3666   -7.5063 O   0  0  0  0  0  0  0  0  0  0  0  0
   23.3993  -20.6229   -8.6920 O   0  0  0  0  0  0  0  0  0  0  0  0
  2  1  1  6
  3  4  1  0
  3  2  1  0
  5  4  1  0
  5  6  1  0
  7  6  1  0
  8  2  1  0
  8  9  2  0
 10  8  1  0
 11 10  1  0
 11 12  1  6
 13 12  1  0
 14 13  2  0
 15 11  1  0
 16 15  2  0
 17 13  1  0
 19 18  1  0
 20 19  1  0
 20 22  1  0
 20 21  1  1
 22 24  1  0
 22 23  1  6
 23 15  1  0
 24 25  1  0
 26 24  2  0
M  END
$$$$
