KDI.pdb
     RDKit          3D

 26 25  0  0  1  0  0  0  0  0999 V2000
   13.3228  -20.9028    1.7500 N   0  0  0  0  0  0  0  0  0  0  0  0
   14.5152  -20.9521    2.5491 C   0  0  1  0  0  0  0  0  0  0  0  0
   15.7802  -21.2233    1.8402 C   0  0  0  0  0  0  0  0  0  0  0  0
   15.8483  -22.5924    1.2620 C   0  0  0  0  0  0  0  0  0  0  0  0
   15.3884  -22.6674   -0.1611 C   0  0  0  0  0  0  0  0  0  0  0  0
   15.4843  -24.0926   -0.6406 C   0  0  0  0  0  0  0  0  0  0  0  0
   15.0616  -24.1313   -2.0240 N   0  0  0  0  0  0  0  0  0  0  0  0
   14.5665  -19.6827    3.3486 C   0  0  0  0  0  0  0  0  0  0  0  0
   13.6110  -18.8660    3.3542 O   0  0  0  0  0  0  0  0  0  0  0  0
   15.7144  -19.3445    4.1455 N   0  0  0  0  0  0  0  0  0  0  0  0
   15.6227  -18.3129    5.1361 C   0  0  1  0  0  0  0  0  0  0  0  0
   15.4092  -18.9548    6.4895 C   0  0  0  0  0  0  0  0  0  0  0  0
   15.1736  -17.9593    7.5660 C   0  0  0  0  0  0  0  0  0  0  0  0
   14.4928  -16.9498    7.2506 O   0  0  0  0  0  0  0  0  0  0  0  0
   16.8657  -17.5056    5.2365 C   0  0  0  0  0  0  0  0  0  0  0  0
   18.0248  -17.9773    5.1241 O   0  0  0  0  0  0  0  0  0  0  0  0
   15.6297  -18.0500    8.8516 O   0  0  0  0  0  0  0  0  0  0  0  0
   18.7049  -12.1377    3.3977 C   0  0  0  0  0  0  0  0  0  0  0  0
   18.8862  -13.2173    4.3942 C   0  0  0  0  0  0  0  0  0  0  0  0
   17.7793  -14.1432    4.6659 C   0  0  2  0  0  0  0  0  0  0  0  0
   16.4977  -13.3279    4.8900 C   0  0  0  0  0  0  0  0  0  0  0  0
   17.9101  -15.2261    5.6632 C   0  0  2  0  0  0  0  0  0  0  0  0
   16.7203  -16.1158    5.4745 N   0  0  0  0  0  0  0  0  0  0  0  0
   17.9959  -14.8952    7.0686 C   0  0  0  0  0  0  0  0  0  0  0  0
   19.1229  -14.4123    7.6745 O   0  0  0  0  0  0  0  0  0  0  0  0
   16.9816  -15.0551    7.8218 O   0  0  0  0  0  0  0  0  0  0  0  0
  2  1  1  6
  3  4  1  0
  3  2  1  0
  5  4  1  0
  5  6  1  0
  7  6  1  0
  8  2  1  0
  8  9  2  0
 10  8  1  0
 11 10  1  0
 11 12  1  1
 13 12  1  0
 14 13  2  0
 15 11  1  0
 16 15  2  0
 17 13  1  0
 19 18  1  0
 20 19  1  0
 20 22  1  0
 20 21  1  1
 22 24  1  0
 22 23  1  1
 23 15  1  0
 24 25  1  0
 26 24  2  0
M  END
$$$$
