KDI.pdb
     RDKit          3D

 26 25  0  0  1  0  0  0  0  0999 V2000
   17.9494  -13.2656  -19.2456 N   0  0  0  0  0  0  0  0  0  0  0  0
   19.0007  -13.5081  -18.2975 C   0  0  1  0  0  0  0  0  0  0  0  0
   19.9239  -14.6189  -18.5978 C   0  0  0  0  0  0  0  0  0  0  0  0
   19.2277  -15.8648  -19.0180 C   0  0  0  0  0  0  0  0  0  0  0  0
   20.1464  -17.0319  -19.2077 C   0  0  0  0  0  0  0  0  0  0  0  0
   19.3464  -18.2271  -19.6567 C   0  0  0  0  0  0  0  0  0  0  0  0
   20.2490  -19.3511  -19.7828 N   0  0  0  0  0  0  0  0  0  0  0  0
   19.7183  -12.2066  -18.0878 C   0  0  0  0  0  0  0  0  0  0  0  0
   20.7425  -12.1257  -17.3635 O   0  0  0  0  0  0  0  0  0  0  0  0
   19.2642  -10.9917  -18.7082 N   0  0  0  0  0  0  0  0  0  0  0  0
   19.9554   -9.7597  -18.4667 C   0  0  1  0  0  0  0  0  0  0  0  0
   19.3596   -8.6855  -19.3502 C   0  0  0  0  0  0  0  0  0  0  0  0
   20.1076   -7.4046  -19.2800 C   0  0  0  0  0  0  0  0  0  0  0  0
   19.4263   -6.3550  -19.4067 O   0  0  0  0  0  0  0  0  0  0  0  0
   19.8113   -9.2894  -17.0649 C   0  0  0  0  0  0  0  0  0  0  0  0
   18.7209   -9.2502  -16.4420 O   0  0  0  0  0  0  0  0  0  0  0  0
   21.4557   -7.2762  -19.0919 O   0  0  0  0  0  0  0  0  0  0  0  0
   22.7283  -10.5576  -12.1316 C   0  0  0  0  0  0  0  0  0  0  0  0
   21.9051   -9.5168  -12.7877 C   0  0  0  0  0  0  0  0  0  0  0  0
   21.7753   -9.5139  -14.2505 C   0  0  2  0  0  0  0  0  0  0  0  0
   23.1735   -9.6485  -14.8702 C   0  0  0  0  0  0  0  0  0  0  0  0
   20.9729   -8.4879  -14.9490 C   0  0  2  0  0  0  0  0  0  0  0  0
   20.9871   -8.8604  -16.3995 N   0  0  0  0  0  0  0  0  0  0  0  0
   21.3504   -7.0954  -14.8467 C   0  0  0  0  0  0  0  0  0  0  0  0
   20.9240   -6.2569  -13.8540 O   0  0  0  0  0  0  0  0  0  0  0  0
   22.1219   -6.5807  -15.7196 O   0  0  0  0  0  0  0  0  0  0  0  0
  2  1  1  6
  3  4  1  0
  3  2  1  0
  5  4  1  0
  5  6  1  0
  7  6  1  0
  8  2  1  0
  8  9  2  0
 10  8  1  0
 11 10  1  0
 11 12  1  6
 13 12  1  0
 14 13  2  0
 15 11  1  0
 16 15  2  0
 17 13  1  0
 19 18  1  0
 20 19  1  0
 20 22  1  0
 20 21  1  6
 22 24  1  0
 22 23  1  6
 23 15  1  0
 24 25  1  0
 26 24  2  0
M  END
$$$$
