KDI.pdb
     RDKit          3D

 26 25  0  0  1  0  0  0  0  0999 V2000
   28.4005  -22.0218  -15.6145 N   0  0  0  0  0  0  0  0  0  0  0  0
   28.5023  -20.5920  -15.5247 C   0  0  1  0  0  0  0  0  0  0  0  0
   28.4719  -19.8420  -16.7947 C   0  0  0  0  0  0  0  0  0  0  0  0
   27.4404  -20.3374  -17.7455 C   0  0  0  0  0  0  0  0  0  0  0  0
   27.9742  -21.2936  -18.7668 C   0  0  0  0  0  0  0  0  0  0  0  0
   27.4366  -20.9227  -20.1246 C   0  0  0  0  0  0  0  0  0  0  0  0
   27.9937  -21.8402  -21.0951 N   0  0  0  0  0  0  0  0  0  0  0  0
   27.4476  -20.1315  -14.5611 C   0  0  0  0  0  0  0  0  0  0  0  0
   27.3263  -18.9216  -14.2424 O   0  0  0  0  0  0  0  0  0  0  0  0
   26.5270  -21.0571  -13.9587 N   0  0  0  0  0  0  0  0  0  0  0  0
   25.5357  -20.5870  -13.0366 C   0  0  1  0  0  0  0  0  0  0  0  0
   24.1671  -20.9722  -13.5544 C   0  0  0  0  0  0  0  0  0  0  0  0
   23.0646  -20.3283  -12.7960 C   0  0  0  0  0  0  0  0  0  0  0  0
   23.1889  -19.0970  -12.5716 O   0  0  0  0  0  0  0  0  0  0  0  0
   25.6720  -21.1999  -11.6902 C   0  0  0  0  0  0  0  0  0  0  0  0
   25.9259  -22.4139  -11.4897 O   0  0  0  0  0  0  0  0  0  0  0  0
   21.9432  -20.9559  -12.3294 O   0  0  0  0  0  0  0  0  0  0  0  0
   29.0885  -19.4689   -8.1511 C   0  0  0  0  0  0  0  0  0  0  0  0
   28.0658  -20.3732   -8.7234 C   0  0  0  0  0  0  0  0  0  0  0  0
   26.6428  -20.0910   -8.4956 C   0  0  2  0  0  0  0  0  0  0  0  0
   26.3938  -19.9996   -6.9833 C   0  0  0  0  0  0  0  0  0  0  0  0
   25.5862  -20.8748   -9.1691 C   0  0  2  0  0  0  0  0  0  0  0  0
   25.5023  -20.3493  -10.5690 N   0  0  0  0  0  0  0  0  0  0  0  0
   24.2478  -20.8870   -8.6208 C   0  0  0  0  0  0  0  0  0  0  0  0
   23.8471  -21.6991   -7.5960 O   0  0  0  0  0  0  0  0  0  0  0  0
   23.3582  -20.1115   -9.0996 O   0  0  0  0  0  0  0  0  0  0  0  0
  2  1  1  6
  3  4  1  0
  3  2  1  0
  5  4  1  0
  5  6  1  0
  7  6  1  0
  8  2  1  0
  8  9  2  0
 10  8  1  0
 11 10  1  0
 11 12  1  6
 13 12  1  0
 14 13  2  0
 15 11  1  0
 16 15  2  0
 17 13  1  0
 19 18  1  0
 20 19  1  0
 20 22  1  0
 20 21  1  1
 22 24  1  0
 22 23  1  6
 23 15  1  0
 24 25  1  0
 26 24  2  0
M  END
$$$$
