KDI.pdb
     RDKit          3D

 26 25  0  0  1  0  0  0  0  0999 V2000
   29.5548  -19.6088  -17.3747 N   0  0  0  0  0  0  0  0  0  0  0  0
   28.2675  -19.4741  -17.9971 C   0  0  1  0  0  0  0  0  0  0  0  0
   27.8176  -20.5952  -18.8440 C   0  0  0  0  0  0  0  0  0  0  0  0
   28.9060  -21.5528  -19.1786 C   0  0  0  0  0  0  0  0  0  0  0  0
   29.1646  -21.6791  -20.6481 C   0  0  0  0  0  0  0  0  0  0  0  0
   30.3089  -22.6336  -20.8717 C   0  0  0  0  0  0  0  0  0  0  0  0
   30.5638  -22.7050  -22.2943 N   0  0  0  0  0  0  0  0  0  0  0  0
   27.2830  -19.1430  -16.9135 C   0  0  0  0  0  0  0  0  0  0  0  0
   27.5003  -18.2270  -16.0805 O   0  0  0  0  0  0  0  0  0  0  0  0
   26.0447  -19.8612  -16.7805 N   0  0  0  0  0  0  0  0  0  0  0  0
   25.0431  -19.4029  -15.8636 C   0  0  1  0  0  0  0  0  0  0  0  0
   23.8091  -19.0103  -16.6464 C   0  0  0  0  0  0  0  0  0  0  0  0
   24.0029  -17.7692  -17.4385 C   0  0  0  0  0  0  0  0  0  0  0  0
   23.7117  -17.8379  -18.6602 O   0  0  0  0  0  0  0  0  0  0  0  0
   24.6236  -20.4557  -14.9031 C   0  0  0  0  0  0  0  0  0  0  0  0
   24.3557  -21.6398  -15.2263 O   0  0  0  0  0  0  0  0  0  0  0  0
   24.4650  -16.5769  -16.9547 O   0  0  0  0  0  0  0  0  0  0  0  0
   27.1088  -20.3919  -10.0547 C   0  0  0  0  0  0  0  0  0  0  0  0
   26.3705  -20.7493  -11.2869 C   0  0  0  0  0  0  0  0  0  0  0  0
   24.9020  -20.7353  -11.2791 C   0  0  2  0  0  0  0  0  0  0  0  0
   24.4075  -21.5189  -10.0549 C   0  0  0  0  0  0  0  0  0  0  0  0
   24.1236  -21.0772  -12.4880 C   0  0  2  0  0  0  0  0  0  0  0  0
   24.5234  -20.0870  -13.5380 N   0  0  0  0  0  0  0  0  0  0  0  0
   22.6787  -21.0949  -12.4247 C   0  0  0  0  0  0  0  0  0  0  0  0
   21.9331  -22.2289  -12.2552 O   0  0  0  0  0  0  0  0  0  0  0  0
   22.0247  -20.0077  -12.5355 O   0  0  0  0  0  0  0  0  0  0  0  0
  2  1  1  1
  3  4  1  0
  3  2  1  0
  5  4  1  0
  5  6  1  0
  7  6  1  0
  8  2  1  0
  8  9  2  0
 10  8  1  0
 11 10  1  0
 11 12  1  6
 13 12  1  0
 14 13  2  0
 15 11  1  0
 16 15  2  0
 17 13  1  0
 19 18  1  0
 20 19  1  0
 20 22  1  0
 20 21  1  1
 22 24  1  0
 22 23  1  6
 23 15  1  0
 24 25  1  0
 26 24  2  0
M  END
$$$$
