KDI.pdb
     RDKit          3D

 26 25  0  0  1  0  0  0  0  0999 V2000
   27.6457  -21.3641  -15.2108 N   0  0  0  0  0  0  0  0  0  0  0  0
   27.9423  -20.0268  -14.7790 C   0  0  1  0  0  0  0  0  0  0  0  0
   27.8678  -18.9659  -15.8015 C   0  0  0  0  0  0  0  0  0  0  0  0
   28.7044  -19.2444  -16.9998 C   0  0  0  0  0  0  0  0  0  0  0  0
   28.7363  -20.6904  -17.3877 C   0  0  0  0  0  0  0  0  0  0  0  0
   29.5795  -20.8551  -18.6254 C   0  0  0  0  0  0  0  0  0  0  0  0
   29.7260  -22.2711  -18.8850 N   0  0  0  0  0  0  0  0  0  0  0  0
   27.0711  -19.7404  -13.5908 C   0  0  0  0  0  0  0  0  0  0  0  0
   27.0303  -18.6015  -13.0603 O   0  0  0  0  0  0  0  0  0  0  0  0
   26.2425  -20.7593  -13.0057 N   0  0  0  0  0  0  0  0  0  0  0  0
   25.3154  -20.4222  -11.9662 C   0  0  1  0  0  0  0  0  0  0  0  0
   23.9529  -20.9689  -12.3326 C   0  0  0  0  0  0  0  0  0  0  0  0
   22.9158  -19.9100  -12.4252 C   0  0  0  0  0  0  0  0  0  0  0  0
   23.1382  -18.9839  -13.2466 O   0  0  0  0  0  0  0  0  0  0  0  0
   25.6804  -21.0245  -10.6581 C   0  0  0  0  0  0  0  0  0  0  0  0
   26.2490  -22.1372  -10.5274 O   0  0  0  0  0  0  0  0  0  0  0  0
   21.7572  -19.8613  -11.7009 O   0  0  0  0  0  0  0  0  0  0  0  0
   28.7108  -18.7713   -7.1063 C   0  0  0  0  0  0  0  0  0  0  0  0
   27.8781  -19.7998   -7.7698 C   0  0  0  0  0  0  0  0  0  0  0  0
   26.4595  -19.9229   -7.4107 C   0  0  2  0  0  0  0  0  0  0  0  0
   26.3485  -20.0910   -5.8886 C   0  0  0  0  0  0  0  0  0  0  0  0
   25.5647  -20.8593   -8.1227 C   0  0  2  0  0  0  0  0  0  0  0  0
   25.3611  -20.2859   -9.4911 N   0  0  0  0  0  0  0  0  0  0  0  0
   24.2618  -21.1597   -7.5711 C   0  0  0  0  0  0  0  0  0  0  0  0
   24.0388  -22.0949   -6.5984 O   0  0  0  0  0  0  0  0  0  0  0  0
   23.2338  -20.5398   -7.9963 O   0  0  0  0  0  0  0  0  0  0  0  0
  2  1  1  6
  3  4  1  0
  3  2  1  0
  5  4  1  0
  5  6  1  0
  7  6  1  0
  8  2  1  0
  8  9  2  0
 10  8  1  0
 11 10  1  0
 11 12  1  6
 13 12  1  0
 14 13  2  0
 15 11  1  0
 16 15  2  0
 17 13  1  0
 19 18  1  0
 20 19  1  0
 20 22  1  0
 20 21  1  1
 22 24  1  0
 22 23  1  6
 23 15  1  0
 24 25  1  0
 26 24  2  0
M  END
$$$$
