KDI.pdb
     RDKit          3D

 26 25  0  0  1  0  0  0  0  0999 V2000
   17.2460  -14.1269  -17.4416 N   0  0  0  0  0  0  0  0  0  0  0  0
   18.5233  -13.9544  -18.0753 C   0  0  1  0  0  0  0  0  0  0  0  0
   18.6538  -14.4564  -19.4563 C   0  0  0  0  0  0  0  0  0  0  0  0
   18.4674  -15.9283  -19.5669 C   0  0  0  0  0  0  0  0  0  0  0  0
   19.4988  -16.7221  -18.8264 C   0  0  0  0  0  0  0  0  0  0  0  0
   19.2674  -18.1905  -19.0718 C   0  0  0  0  0  0  0  0  0  0  0  0
   20.1781  -18.9365  -18.2303 N   0  0  0  0  0  0  0  0  0  0  0  0
   18.8855  -12.5026  -17.9561 C   0  0  0  0  0  0  0  0  0  0  0  0
   20.0350  -12.0825  -18.2427 O   0  0  0  0  0  0  0  0  0  0  0  0
   17.9304  -11.5260  -17.5076 N   0  0  0  0  0  0  0  0  0  0  0  0
   18.3152  -10.1517  -17.3775 C   0  0  1  0  0  0  0  0  0  0  0  0
   17.0695   -9.2931  -17.3972 C   0  0  0  0  0  0  0  0  0  0  0  0
   17.3736   -7.8399  -17.3645 C   0  0  0  0  0  0  0  0  0  0  0  0
   16.6265   -7.1314  -16.6421 O   0  0  0  0  0  0  0  0  0  0  0  0
   19.0076   -9.8717  -16.0933 C   0  0  0  0  0  0  0  0  0  0  0  0
   18.6110  -10.2808  -14.9736 O   0  0  0  0  0  0  0  0  0  0  0  0
   18.3839   -7.2198  -18.0456 O   0  0  0  0  0  0  0  0  0  0  0  0
   23.5202  -11.8087  -15.4483 C   0  0  0  0  0  0  0  0  0  0  0  0
   22.2465  -11.0761  -15.2687 C   0  0  0  0  0  0  0  0  0  0  0  0
   22.2683   -9.6160  -15.1136 C   0  0  2  0  0  0  0  0  0  0  0  0
   23.3168   -9.2479  -14.0541 C   0  0  0  0  0  0  0  0  0  0  0  0
   21.0217   -8.8438  -14.9288 C   0  0  2  0  0  0  0  0  0  0  0  0
   20.1901   -9.0919  -16.1494 N   0  0  0  0  0  0  0  0  0  0  0  0
   21.0920   -7.4136  -14.7253 C   0  0  0  0  0  0  0  0  0  0  0  0
   21.1696   -6.8175  -13.4968 O   0  0  0  0  0  0  0  0  0  0  0  0
   21.0775   -6.6280  -15.7275 O   0  0  0  0  0  0  0  0  0  0  0  0
  2  1  1  6
  3  4  1  0
  3  2  1  0
  5  4  1  0
  5  6  1  0
  7  6  1  0
  8  2  1  0
  8  9  2  0
 10  8  1  0
 11 10  1  0
 11 12  1  1
 13 12  1  0
 14 13  2  0
 15 11  1  0
 16 15  2  0
 17 13  1  0
 19 18  1  0
 20 19  1  0
 20 22  1  0
 20 21  1  1
 22 24  1  0
 22 23  1  6
 23 15  1  0
 24 25  1  0
 26 24  2  0
M  END
$$$$
