KDI.pdb
     RDKit          3D

 26 25  0  0  1  0  0  0  0  0999 V2000
   28.0015  -20.8151  -14.8605 N   0  0  0  0  0  0  0  0  0  0  0  0
   28.1869  -19.4725  -14.3852 C   0  0  1  0  0  0  0  0  0  0  0  0
   27.9927  -18.3872  -15.3654 C   0  0  0  0  0  0  0  0  0  0  0  0
   28.8480  -18.5272  -16.5747 C   0  0  0  0  0  0  0  0  0  0  0  0
   28.5451  -19.7481  -17.3871 C   0  0  0  0  0  0  0  0  0  0  0  0
   29.4425  -19.7759  -18.5970 C   0  0  0  0  0  0  0  0  0  0  0  0
   30.1802  -21.0208  -18.5816 N   0  0  0  0  0  0  0  0  0  0  0  0
   27.3222  -19.3087  -13.1693 C   0  0  0  0  0  0  0  0  0  0  0  0
   27.1550  -18.1889  -12.6231 O   0  0  0  0  0  0  0  0  0  0  0  0
   26.6452  -20.4288  -12.5743 N   0  0  0  0  0  0  0  0  0  0  0  0
   25.6713  -20.2156  -11.5448 C   0  0  1  0  0  0  0  0  0  0  0  0
   24.3281  -20.7106  -12.0348 C   0  0  0  0  0  0  0  0  0  0  0  0
   23.2209  -20.3855  -11.1000 C   0  0  0  0  0  0  0  0  0  0  0  0
   23.5224  -19.6765  -10.1059 O   0  0  0  0  0  0  0  0  0  0  0  0
   25.9786  -20.9708  -10.3029 C   0  0  0  0  0  0  0  0  0  0  0  0
   26.2561  -22.1958  -10.2720 O   0  0  0  0  0  0  0  0  0  0  0  0
   21.9210  -20.7885  -11.2307 O   0  0  0  0  0  0  0  0  0  0  0  0
   28.8084  -19.5303   -5.1545 C   0  0  0  0  0  0  0  0  0  0  0  0
   27.8603  -20.4493   -5.8238 C   0  0  0  0  0  0  0  0  0  0  0  0
   27.2033  -20.0292   -7.0681 C   0  0  2  0  0  0  0  0  0  0  0  0
   26.6100  -18.6279   -6.8640 C   0  0  0  0  0  0  0  0  0  0  0  0
   26.2568  -20.9172   -7.7753 C   0  0  2  0  0  0  0  0  0  0  0  0
   25.9536  -20.2511   -9.0819 N   0  0  0  0  0  0  0  0  0  0  0  0
   24.9977  -21.2596   -7.1513 C   0  0  0  0  0  0  0  0  0  0  0  0
   23.7754  -20.8812   -7.6341 O   0  0  0  0  0  0  0  0  0  0  0  0
   24.9863  -21.9503   -6.0814 O   0  0  0  0  0  0  0  0  0  0  0  0
  2  1  1  6
  3  4  1  0
  3  2  1  0
  5  4  1  0
  5  6  1  0
  7  6  1  0
  8  2  1  0
  8  9  2  0
 10  8  1  0
 11 10  1  0
 11 12  1  6
 13 12  1  0
 14 13  2  0
 15 11  1  0
 16 15  2  0
 17 13  1  0
 19 18  1  0
 20 19  1  0
 20 22  1  0
 20 21  1  1
 22 24  1  0
 22 23  1  6
 23 15  1  0
 24 25  1  0
 26 24  2  0
M  END
$$$$
