DDK.pdb
     RDKit          3D

 26 25  0  0  1  0  0  0  0  0999 V2000
   19.6187   -3.9815  -16.7307 N   0  0  0  0  0  0  0  0  0  0  0  0
   18.9674   -4.7260  -17.7868 C   0  0  1  0  0  0  0  0  0  0  0  0
   19.5906   -4.3861  -19.0985 C   0  0  0  0  0  0  0  0  0  0  0  0
   19.3204   -2.9731  -19.4140 C   0  0  0  0  0  0  0  0  0  0  0  0
   20.2702   -2.1804  -19.5676 O   0  0  0  0  0  0  0  0  0  0  0  0
   19.0775   -6.1749  -17.4567 C   0  0  0  0  0  0  0  0  0  0  0  0
   18.8218   -6.9999  -18.3400 O   0  0  0  0  0  0  0  0  0  0  0  0
   18.0285   -2.5043  -19.5441 O   0  0  0  0  0  0  0  0  0  0  0  0
   19.4633   -6.6258  -16.1707 N   0  0  0  0  0  0  0  0  0  0  0  0
   19.5456   -7.9606  -15.6965 C   0  0  1  0  0  0  0  0  0  0  0  0
   20.4429   -8.0740  -14.5250 C   0  0  0  0  0  0  0  0  0  0  0  0
   21.8188   -7.6626  -14.9062 C   0  0  0  0  0  0  0  0  0  0  0  0
   22.6164   -8.3905  -15.5462 O   0  0  0  0  0  0  0  0  0  0  0  0
   18.2445   -8.6761  -15.5632 C   0  0  0  0  0  0  0  0  0  0  0  0
   17.3143   -8.0843  -14.9757 O   0  0  0  0  0  0  0  0  0  0  0  0
   22.3204   -6.3937  -14.5600 O   0  0  0  0  0  0  0  0  0  0  0  0
   18.0629   -9.9924  -16.0872 N   0  0  0  0  0  0  0  0  0  0  0  0
   16.8539  -10.7564  -15.8583 C   0  0  1  0  0  0  0  0  0  0  0  0
   16.8422  -11.9312  -16.7953 C   0  0  0  0  0  0  0  0  0  0  0  0
   15.6259  -12.7877  -16.7228 C   0  0  0  0  0  0  0  0  0  0  0  0
   15.6037  -13.8669  -17.7735 C   0  0  0  0  0  0  0  0  0  0  0  0
   14.3269  -14.6709  -17.6304 C   0  0  0  0  0  0  0  0  0  0  0  0
   14.2214  -15.6928  -18.6628 N   0  0  0  0  0  0  0  0  0  0  0  0
   16.7255  -11.1616  -14.4365 C   0  0  0  0  0  0  0  0  0  0  0  0
   15.6459  -10.7243  -13.6522 O   0  0  0  0  0  0  0  0  0  0  0  0
   17.5532  -11.9037  -13.8557 O   0  0  0  0  0  0  0  0  0  0  0  0
  2  1  1  1
  2  3  1  0
  4  3  1  0
  5  4  2  0
  6  7  2  0
  6  2  1  0
  8  4  1  0
  9  6  1  0
 10  9  1  0
 10 11  1  1
 12 11  1  0
 13 12  2  0
 14 10  1  0
 14 15  2  0
 16 12  1  0
 17 14  1  0
 18 17  1  0
 18 19  1  6
 19 20  1  0
 20 21  1  0
 21 22  1  0
 23 22  1  0
 24 18  1  0
 25 24  1  0
 26 24  2  0
M  END
$$$$
