DDK.pdb
     RDKit          3D

 26 25  0  0  1  0  0  0  0  0999 V2000
   17.8682  -12.5454  -14.8480 N   0  0  0  0  0  0  0  0  0  0  0  0
   17.6384  -11.7079  -16.0053 C   0  0  1  0  0  0  0  0  0  0  0  0
   16.3292  -12.0595  -16.6274 C   0  0  0  0  0  0  0  0  0  0  0  0
   16.3822  -13.4458  -17.1219 C   0  0  0  0  0  0  0  0  0  0  0  0
   16.1383  -14.3900  -16.3451 O   0  0  0  0  0  0  0  0  0  0  0  0
   17.6991  -10.2876  -15.5585 C   0  0  0  0  0  0  0  0  0  0  0  0
   17.5624   -9.3987  -16.4055 O   0  0  0  0  0  0  0  0  0  0  0  0
   16.6984  -13.7242  -18.4365 O   0  0  0  0  0  0  0  0  0  0  0  0
   17.9073   -9.9342  -14.2029 N   0  0  0  0  0  0  0  0  0  0  0  0
   18.0198   -8.6360  -13.6414 C   0  0  1  0  0  0  0  0  0  0  0  0
   17.3578   -8.5486  -12.3206 C   0  0  0  0  0  0  0  0  0  0  0  0
   17.4814   -7.1667  -11.7889 C   0  0  0  0  0  0  0  0  0  0  0  0
   17.1648   -6.1367  -12.4326 O   0  0  0  0  0  0  0  0  0  0  0  0
   19.3777   -8.0240  -13.7055 C   0  0  0  0  0  0  0  0  0  0  0  0
   20.3267   -8.6636  -13.2045 O   0  0  0  0  0  0  0  0  0  0  0  0
   17.9759   -6.9279  -10.4927 O   0  0  0  0  0  0  0  0  0  0  0  0
   19.5913   -6.7512  -14.3173 N   0  0  0  0  0  0  0  0  0  0  0  0
   20.9158   -6.1987  -14.5122 C   0  0  1  0  0  0  0  0  0  0  0  0
   21.0803   -5.8425  -15.9629 C   0  0  0  0  0  0  0  0  0  0  0  0
   22.4116   -5.2861  -16.3320 C   0  0  0  0  0  0  0  0  0  0  0  0
   22.5447   -5.0100  -17.8069 C   0  0  0  0  0  0  0  0  0  0  0  0
   23.9295   -4.4601  -18.0845 C   0  0  0  0  0  0  0  0  0  0  0  0
   24.1238   -4.1955  -19.5034 N   0  0  0  0  0  0  0  0  0  0  0  0
   21.1640   -5.0456  -13.6117 C   0  0  0  0  0  0  0  0  0  0  0  0
   20.1024   -4.3718  -12.9865 O   0  0  0  0  0  0  0  0  0  0  0  0
   22.3111   -4.6075  -13.3558 O   0  0  0  0  0  0  0  0  0  0  0  0
  2  1  1  1
  2  3  1  0
  4  3  1  0
  5  4  2  0
  6  7  2  0
  6  2  1  0
  8  4  1  0
  9  6  1  0
 10  9  1  0
 10 11  1  1
 12 11  1  0
 13 12  2  0
 14 10  1  0
 14 15  2  0
 16 12  1  0
 17 14  1  0
 18 17  1  0
 18 19  1  6
 19 20  1  0
 20 21  1  0
 21 22  1  0
 23 22  1  0
 24 18  1  0
 25 24  1  0
 26 24  2  0
M  END
$$$$
