DDK.pdb
     RDKit          3D

 26 25  0  0  1  0  0  0  0  0999 V2000
   17.8527  -11.4434  -14.7725 N   0  0  0  0  0  0  0  0  0  0  0  0
   16.5824  -10.9259  -14.3123 C   0  0  1  0  0  0  0  0  0  0  0  0
   15.7585  -12.0383  -13.7572 C   0  0  0  0  0  0  0  0  0  0  0  0
   15.3571  -12.9392  -14.8511 C   0  0  0  0  0  0  0  0  0  0  0  0
   15.0118  -12.4629  -15.9503 O   0  0  0  0  0  0  0  0  0  0  0  0
   16.8617   -9.8614  -13.3077 C   0  0  0  0  0  0  0  0  0  0  0  0
   16.8593  -10.1676  -12.1108 O   0  0  0  0  0  0  0  0  0  0  0  0
   15.3548  -14.3095  -14.6841 O   0  0  0  0  0  0  0  0  0  0  0  0
   17.1269   -8.5223  -13.6852 N   0  0  0  0  0  0  0  0  0  0  0  0
   17.4839   -7.4299  -12.8530 C   0  0  1  0  0  0  0  0  0  0  0  0
   18.6567   -6.6969  -13.3802 C   0  0  0  0  0  0  0  0  0  0  0  0
   18.3248   -6.1051  -14.7020 C   0  0  0  0  0  0  0  0  0  0  0  0
   18.2460   -6.7659  -15.7663 O   0  0  0  0  0  0  0  0  0  0  0  0
   16.3533   -6.5675  -12.4050 C   0  0  0  0  0  0  0  0  0  0  0  0
   15.4260   -6.3589  -13.2158 O   0  0  0  0  0  0  0  0  0  0  0  0
   18.0721   -4.7270  -14.8388 O   0  0  0  0  0  0  0  0  0  0  0  0
   16.3266   -5.9977  -11.0956 N   0  0  0  0  0  0  0  0  0  0  0  0
   15.2852   -5.0858  -10.6695 C   0  0  1  0  0  0  0  0  0  0  0  0
   15.1384   -5.1860   -9.1773 C   0  0  0  0  0  0  0  0  0  0  0  0
   14.1095   -4.2900   -8.5800 C   0  0  0  0  0  0  0  0  0  0  0  0
   14.0296   -4.4049   -7.0801 C   0  0  0  0  0  0  0  0  0  0  0  0
   13.0324   -3.3897   -6.5584 C   0  0  0  0  0  0  0  0  0  0  0  0
   12.9050   -3.4631   -5.1094 N   0  0  0  0  0  0  0  0  0  0  0  0
   15.5554   -3.6988  -11.1227 C   0  0  0  0  0  0  0  0  0  0  0  0
   14.5055   -2.8171  -11.4259 O   0  0  0  0  0  0  0  0  0  0  0  0
   16.7121   -3.2339  -11.2611 O   0  0  0  0  0  0  0  0  0  0  0  0
  2  1  1  1
  2  3  1  0
  4  3  1  0
  5  4  2  0
  6  7  2  0
  6  2  1  0
  8  4  1  0
  9  6  1  0
 10  9  1  0
 10 11  1  6
 12 11  1  0
 13 12  2  0
 14 10  1  0
 14 15  2  0
 16 12  1  0
 17 14  1  0
 18 17  1  0
 18 19  1  1
 19 20  1  0
 20 21  1  0
 21 22  1  0
 23 22  1  0
 24 18  1  0
 25 24  1  0
 26 24  2  0
M  END
$$$$
