DDK.pdb
     RDKit          3D

 26 25  0  0  1  0  0  0  0  0999 V2000
   16.4113  -11.0615  -10.7694 N   0  0  0  0  0  0  0  0  0  0  0  0
   15.6556  -10.0285  -11.4443 C   0  0  1  0  0  0  0  0  0  0  0  0
   14.1958  -10.2841  -11.2772 C   0  0  0  0  0  0  0  0  0  0  0  0
   13.8477  -11.5595  -11.9264 C   0  0  0  0  0  0  0  0  0  0  0  0
   14.0307  -11.7009  -13.1515 O   0  0  0  0  0  0  0  0  0  0  0  0
   16.0769   -8.7149  -10.8810 C   0  0  0  0  0  0  0  0  0  0  0  0
   16.1661   -8.6030   -9.6539 O   0  0  0  0  0  0  0  0  0  0  0  0
   13.3192  -12.6093  -11.2022 O   0  0  0  0  0  0  0  0  0  0  0  0
   16.3745   -7.6034  -11.7069 N   0  0  0  0  0  0  0  0  0  0  0  0
   16.6848   -6.2758  -11.3139 C   0  0  1  0  0  0  0  0  0  0  0  0
   17.5678   -5.6041  -12.2935 C   0  0  0  0  0  0  0  0  0  0  0  0
   18.8820   -6.2957  -12.3398 C   0  0  0  0  0  0  0  0  0  0  0  0
   19.4592   -6.7727  -11.3325 O   0  0  0  0  0  0  0  0  0  0  0  0
   15.5295   -5.4582  -10.8451 C   0  0  0  0  0  0  0  0  0  0  0  0
   14.5851   -5.2773  -11.6426 O   0  0  0  0  0  0  0  0  0  0  0  0
   19.5748   -6.4598  -13.5542 O   0  0  0  0  0  0  0  0  0  0  0  0
   15.4991   -4.8991   -9.5312 N   0  0  0  0  0  0  0  0  0  0  0  0
   14.4232   -4.0408   -9.0801 C   0  0  1  0  0  0  0  0  0  0  0  0
   13.9937   -4.4863   -7.7107 C   0  0  0  0  0  0  0  0  0  0  0  0
   12.9028   -3.6806   -7.0951 C   0  0  0  0  0  0  0  0  0  0  0  0
   12.6405   -4.0476   -5.6579 C   0  0  0  0  0  0  0  0  0  0  0  0
   11.5185   -3.1806   -5.1225 C   0  0  0  0  0  0  0  0  0  0  0  0
   11.3051   -3.4032   -3.6991 N   0  0  0  0  0  0  0  0  0  0  0  0
   14.8153   -2.6099   -9.1159 C   0  0  0  0  0  0  0  0  0  0  0  0
   13.8567   -1.5994   -9.2938 O   0  0  0  0  0  0  0  0  0  0  0  0
   16.0005   -2.2186   -8.9923 O   0  0  0  0  0  0  0  0  0  0  0  0
  2  1  1  1
  2  3  1  0
  4  3  1  0
  5  4  2  0
  6  7  2  0
  6  2  1  0
  8  4  1  0
  9  6  1  0
 10  9  1  0
 10 11  1  6
 12 11  1  0
 13 12  2  0
 14 10  1  0
 14 15  2  0
 16 12  1  0
 17 14  1  0
 18 17  1  0
 18 19  1  1
 19 20  1  0
 20 21  1  0
 21 22  1  0
 23 22  1  0
 24 18  1  0
 25 24  1  0
 26 24  2  0
M  END
$$$$
