DDK.pdb
     RDKit          3D

 26 25  0  0  1  0  0  0  0  0999 V2000
   17.9279  -12.1544  -15.0718 N   0  0  0  0  0  0  0  0  0  0  0  0
   17.1854  -10.9125  -15.0665 C   0  0  1  0  0  0  0  0  0  0  0  0
   15.7224  -11.2024  -15.0631 C   0  0  0  0  0  0  0  0  0  0  0  0
   15.3286  -11.7341  -16.3789 C   0  0  0  0  0  0  0  0  0  0  0  0
   15.7232  -11.1697  -17.4181 O   0  0  0  0  0  0  0  0  0  0  0  0
   17.6185  -10.1284  -13.8757 C   0  0  0  0  0  0  0  0  0  0  0  0
   17.4997  -10.6425  -12.7586 O   0  0  0  0  0  0  0  0  0  0  0  0
   14.5259  -12.8521  -16.4869 O   0  0  0  0  0  0  0  0  0  0  0  0
   18.1568   -8.8234  -13.9900 N   0  0  0  0  0  0  0  0  0  0  0  0
   18.4907   -7.9173  -12.9504 C   0  0  1  0  0  0  0  0  0  0  0  0
   19.5258   -6.9489  -13.3759 C   0  0  0  0  0  0  0  0  0  0  0  0
   20.7732   -7.6733  -13.7322 C   0  0  0  0  0  0  0  0  0  0  0  0
   21.2119   -7.7802  -14.9033 O   0  0  0  0  0  0  0  0  0  0  0  0
   17.3344   -7.3216  -12.2217 C   0  0  0  0  0  0  0  0  0  0  0  0
   16.4826   -6.7016  -12.8929 O   0  0  0  0  0  0  0  0  0  0  0  0
   21.5573   -8.2999  -12.7451 O   0  0  0  0  0  0  0  0  0  0  0  0
   17.2009   -7.4526  -10.8057 N   0  0  0  0  0  0  0  0  0  0  0  0
   16.0515   -6.9434  -10.0864 C   0  0  1  0  0  0  0  0  0  0  0  0
   15.2142   -8.1057   -9.6322 C   0  0  0  0  0  0  0  0  0  0  0  0
   13.9398   -7.7417   -8.9529 C   0  0  0  0  0  0  0  0  0  0  0  0
   13.1383   -8.9431   -8.5245 C   0  0  0  0  0  0  0  0  0  0  0  0
   11.8353   -8.4746   -7.9080 C   0  0  0  0  0  0  0  0  0  0  0  0
   10.9982   -9.5986   -7.5117 N   0  0  0  0  0  0  0  0  0  0  0  0
   16.4571   -6.0615   -8.9639 C   0  0  0  0  0  0  0  0  0  0  0  0
   17.8061   -5.9269   -8.5981 O   0  0  0  0  0  0  0  0  0  0  0  0
   15.6409   -5.3943   -8.2844 O   0  0  0  0  0  0  0  0  0  0  0  0
  2  1  1  1
  2  3  1  0
  4  3  1  0
  5  4  2  0
  6  7  2  0
  6  2  1  0
  8  4  1  0
  9  6  1  0
 10  9  1  0
 10 11  1  6
 12 11  1  0
 13 12  2  0
 14 10  1  0
 14 15  2  0
 16 12  1  0
 17 14  1  0
 18 17  1  0
 18 19  1  1
 19 20  1  0
 20 21  1  0
 21 22  1  0
 23 22  1  0
 24 18  1  0
 25 24  1  0
 26 24  2  0
M  END
$$$$
