DDK.pdb
     RDKit          3D

 26 25  0  0  1  0  0  0  0  0999 V2000
   22.9000  -20.7042  -16.0877 N   0  0  0  0  0  0  0  0  0  0  0  0
   23.3211  -20.2850  -14.7684 C   0  0  1  0  0  0  0  0  0  0  0  0
   23.9108  -18.9170  -14.8407 C   0  0  0  0  0  0  0  0  0  0  0  0
   25.0956  -18.9435  -15.7152 C   0  0  0  0  0  0  0  0  0  0  0  0
   25.4457  -20.0132  -16.2513 O   0  0  0  0  0  0  0  0  0  0  0  0
   22.1346  -20.3523  -13.8693 C   0  0  0  0  0  0  0  0  0  0  0  0
   22.2726  -20.0175  -12.6882 O   0  0  0  0  0  0  0  0  0  0  0  0
   25.8323  -17.8010  -15.9555 O   0  0  0  0  0  0  0  0  0  0  0  0
   20.8668  -20.7855  -14.3287 N   0  0  0  0  0  0  0  0  0  0  0  0
   19.6636  -20.9189  -13.5887 C   0  0  1  0  0  0  0  0  0  0  0  0
   18.5093  -20.3311  -14.3046 C   0  0  0  0  0  0  0  0  0  0  0  0
   18.5480  -18.8505  -14.1868 C   0  0  0  0  0  0  0  0  0  0  0  0
   18.7574  -18.2379  -13.1115 O   0  0  0  0  0  0  0  0  0  0  0  0
   19.4180  -22.2664  -12.9998 C   0  0  0  0  0  0  0  0  0  0  0  0
   19.8132  -23.2617  -13.6431 O   0  0  0  0  0  0  0  0  0  0  0  0
   18.3457  -18.0262  -15.3098 O   0  0  0  0  0  0  0  0  0  0  0  0
   18.7544  -22.4191  -11.7442 N   0  0  0  0  0  0  0  0  0  0  0  0
   18.5287  -23.7163  -11.1410 C   0  0  1  0  0  0  0  0  0  0  0  0
   18.3561  -23.5349   -9.6592 C   0  0  0  0  0  0  0  0  0  0  0  0
   18.1134  -24.7876   -8.8912 C   0  0  0  0  0  0  0  0  0  0  0  0
   17.9608  -24.5495   -7.4116 C   0  0  0  0  0  0  0  0  0  0  0  0
   17.6008  -25.8568   -6.7344 C   0  0  0  0  0  0  0  0  0  0  0  0
   17.6370  -25.7338   -5.2837 N   0  0  0  0  0  0  0  0  0  0  0  0
   17.3789  -24.4161  -11.7660 C   0  0  0  0  0  0  0  0  0  0  0  0
   17.3634  -25.8143  -11.8947 O   0  0  0  0  0  0  0  0  0  0  0  0
   16.3693  -23.8187  -12.2098 O   0  0  0  0  0  0  0  0  0  0  0  0
  2  1  1  6
  2  3  1  0
  4  3  1  0
  5  4  2  0
  6  7  2  0
  6  2  1  0
  8  4  1  0
  9  6  1  0
 10  9  1  0
 10 11  1  6
 12 11  1  0
 13 12  2  0
 14 10  1  0
 14 15  2  0
 16 12  1  0
 17 14  1  0
 18 17  1  0
 18 19  1  1
 19 20  1  0
 20 21  1  0
 21 22  1  0
 23 22  1  0
 24 18  1  0
 25 24  1  0
 26 24  2  0
M  END
$$$$
