DDK.pdb
     RDKit          3D

 26 25  0  0  1  0  0  0  0  0999 V2000
   15.7104  -12.8746  -15.1938 N   0  0  0  0  0  0  0  0  0  0  0  0
   15.5138  -13.0308  -13.7689 C   0  0  1  0  0  0  0  0  0  0  0  0
   16.0404  -14.3559  -13.3316 C   0  0  0  0  0  0  0  0  0  0  0  0
   15.2334  -15.4258  -13.9424 C   0  0  0  0  0  0  0  0  0  0  0  0
   13.9889  -15.3602  -13.9059 O   0  0  0  0  0  0  0  0  0  0  0  0
   16.1904  -11.8907  -13.0885 C   0  0  0  0  0  0  0  0  0  0  0  0
   16.1972  -11.8637  -11.8534 O   0  0  0  0  0  0  0  0  0  0  0  0
   15.8296  -16.5077  -14.5587 O   0  0  0  0  0  0  0  0  0  0  0  0
   16.8190  -10.8487  -13.8131 N   0  0  0  0  0  0  0  0  0  0  0  0
   17.4342   -9.6746  -13.3068 C   0  0  1  0  0  0  0  0  0  0  0  0
   18.5275   -9.2034  -14.1861 C   0  0  0  0  0  0  0  0  0  0  0  0
   19.1972   -8.0301  -13.5678 C   0  0  0  0  0  0  0  0  0  0  0  0
   19.9012   -8.0907  -12.5304 O   0  0  0  0  0  0  0  0  0  0  0  0
   16.5002   -8.6104  -12.8401 C   0  0  0  0  0  0  0  0  0  0  0  0
   15.6309   -8.2086  -13.6422 O   0  0  0  0  0  0  0  0  0  0  0  0
   19.0758   -6.7446  -14.1284 O   0  0  0  0  0  0  0  0  0  0  0  0
   16.5921   -8.0662  -11.5227 N   0  0  0  0  0  0  0  0  0  0  0  0
   15.7430   -6.9829  -11.0720 C   0  0  1  0  0  0  0  0  0  0  0  0
   15.5531   -7.1062   -9.5863 C   0  0  0  0  0  0  0  0  0  0  0  0
   14.6425   -6.0969   -8.9778 C   0  0  0  0  0  0  0  0  0  0  0  0
   14.5033   -6.2548   -7.4862 C   0  0  0  0  0  0  0  0  0  0  0  0
   13.6417   -5.1302   -6.9477 C   0  0  0  0  0  0  0  0  0  0  0  0
   13.4270   -5.2625   -5.5133 N   0  0  0  0  0  0  0  0  0  0  0  0
   16.2889   -5.6609  -11.4678 C   0  0  0  0  0  0  0  0  0  0  0  0
   17.6734   -5.4308  -11.5100 O   0  0  0  0  0  0  0  0  0  0  0  0
   15.5664   -4.6854  -11.7833 O   0  0  0  0  0  0  0  0  0  0  0  0
  2  1  1  6
  2  3  1  0
  4  3  1  0
  5  4  2  0
  6  7  2  0
  6  2  1  0
  8  4  1  0
  9  6  1  0
 10  9  1  0
 10 11  1  6
 12 11  1  0
 13 12  2  0
 14 10  1  0
 14 15  2  0
 16 12  1  0
 17 14  1  0
 18 17  1  0
 18 19  1  1
 19 20  1  0
 20 21  1  0
 21 22  1  0
 23 22  1  0
 24 18  1  0
 25 24  1  0
 26 24  2  0
M  END
$$$$
