DDK.pdb
     RDKit          3D

 26 25  0  0  1  0  0  0  0  0999 V2000
   12.5189   -9.9563  -10.2210 N   0  0  0  0  0  0  0  0  0  0  0  0
   13.9294  -10.2596  -10.1113 C   0  0  1  0  0  0  0  0  0  0  0  0
   14.2674  -11.4056  -11.0039 C   0  0  0  0  0  0  0  0  0  0  0  0
   13.6108  -12.6242  -10.5008 C   0  0  0  0  0  0  0  0  0  0  0  0
   13.4580  -12.7837   -9.2737 O   0  0  0  0  0  0  0  0  0  0  0  0
   14.6885   -9.0232  -10.4515 C   0  0  0  0  0  0  0  0  0  0  0  0
   14.4635   -8.4751  -11.5356 O   0  0  0  0  0  0  0  0  0  0  0  0
   13.1579  -13.6009  -11.3649 O   0  0  0  0  0  0  0  0  0  0  0  0
   15.6507   -8.4663   -9.5740 N   0  0  0  0  0  0  0  0  0  0  0  0
   16.4306   -7.2950   -9.7556 C   0  0  1  0  0  0  0  0  0  0  0  0
   16.3555   -6.3965   -8.5818 C   0  0  0  0  0  0  0  0  0  0  0  0
   17.0990   -5.1414   -8.8634 C   0  0  0  0  0  0  0  0  0  0  0  0
   17.9472   -4.6394   -8.0862 O   0  0  0  0  0  0  0  0  0  0  0  0
   17.8042   -7.5148  -10.2919 C   0  0  0  0  0  0  0  0  0  0  0  0
   18.6508   -8.0248   -9.5278 O   0  0  0  0  0  0  0  0  0  0  0  0
   16.8871   -4.4225  -10.0551 O   0  0  0  0  0  0  0  0  0  0  0  0
   18.1451   -7.1565  -11.6318 N   0  0  0  0  0  0  0  0  0  0  0  0
   19.4458   -7.4410  -12.2019 C   0  0  1  0  0  0  0  0  0  0  0  0
   19.2521   -8.0866  -13.5450 C   0  0  0  0  0  0  0  0  0  0  0  0
   20.5068   -8.4177  -14.2760 C   0  0  0  0  0  0  0  0  0  0  0  0
   20.2547   -9.0667  -15.6118 C   0  0  0  0  0  0  0  0  0  0  0  0
   21.5833   -9.4330  -16.2427 C   0  0  0  0  0  0  0  0  0  0  0  0
   21.4045   -9.9958  -17.5740 N   0  0  0  0  0  0  0  0  0  0  0  0
   20.2888   -6.2217  -12.2731 C   0  0  0  0  0  0  0  0  0  0  0  0
   21.6880   -6.3012  -12.1860 O   0  0  0  0  0  0  0  0  0  0  0  0
   19.8180   -5.0676  -12.4125 O   0  0  0  0  0  0  0  0  0  0  0  0
  2  1  1  6
  2  3  1  0
  4  3  1  0
  5  4  2  0
  6  7  2  0
  6  2  1  0
  8  4  1  0
  9  6  1  0
 10  9  1  0
 10 11  1  1
 12 11  1  0
 13 12  2  0
 14 10  1  0
 14 15  2  0
 16 12  1  0
 17 14  1  0
 18 17  1  0
 18 19  1  6
 19 20  1  0
 20 21  1  0
 21 22  1  0
 23 22  1  0
 24 18  1  0
 25 24  1  0
 26 24  2  0
M  END
$$$$
