DDK.pdb
     RDKit          3D

 26 25  0  0  1  0  0  0  0  0999 V2000
   21.3512   -9.3334  -16.6346 N   0  0  0  0  0  0  0  0  0  0  0  0
   19.9363   -9.4875  -16.3740 C   0  0  1  0  0  0  0  0  0  0  0  0
   19.6945  -10.7746  -15.6605 C   0  0  0  0  0  0  0  0  0  0  0  0
   20.0437  -11.8964  -16.5487 C   0  0  0  0  0  0  0  0  0  0  0  0
   20.3237  -13.0088  -16.0604 O   0  0  0  0  0  0  0  0  0  0  0  0
   19.4864   -8.3027  -15.5902 C   0  0  0  0  0  0  0  0  0  0  0  0
   18.5021   -8.4247  -14.8536 O   0  0  0  0  0  0  0  0  0  0  0  0
   20.0680  -11.7413  -17.9202 O   0  0  0  0  0  0  0  0  0  0  0  0
   20.1506   -7.0541  -15.6668 N   0  0  0  0  0  0  0  0  0  0  0  0
   19.8002   -5.8331  -15.0347 C   0  0  1  0  0  0  0  0  0  0  0  0
   20.9930   -5.0192  -14.7107 C   0  0  0  0  0  0  0  0  0  0  0  0
   21.5284   -5.4211  -13.3843 C   0  0  0  0  0  0  0  0  0  0  0  0
   21.0426   -6.3405  -12.6813 O   0  0  0  0  0  0  0  0  0  0  0  0
   18.6791   -5.0810  -15.6674 C   0  0  0  0  0  0  0  0  0  0  0  0
   18.8863   -4.5618  -16.7846 O   0  0  0  0  0  0  0  0  0  0  0  0
   22.6456   -4.7730  -12.8243 O   0  0  0  0  0  0  0  0  0  0  0  0
   17.4108   -4.9557  -15.0228 N   0  0  0  0  0  0  0  0  0  0  0  0
   16.3173   -4.2058  -15.6055 C   0  0  1  0  0  0  0  0  0  0  0  0
   15.0249   -4.7147  -15.0317 C   0  0  0  0  0  0  0  0  0  0  0  0
   13.8030   -3.9924  -15.4831 C   0  0  0  0  0  0  0  0  0  0  0  0
   12.5547   -4.4501  -14.7750 C   0  0  0  0  0  0  0  0  0  0  0  0
   11.3577   -3.7368  -15.3713 C   0  0  0  0  0  0  0  0  0  0  0  0
   10.1086   -4.2232  -14.8018 N   0  0  0  0  0  0  0  0  0  0  0  0
   16.4911   -2.7453  -15.4083 C   0  0  0  0  0  0  0  0  0  0  0  0
   16.9023   -2.2242  -14.1709 O   0  0  0  0  0  0  0  0  0  0  0  0
   16.2872   -1.9005  -16.3126 O   0  0  0  0  0  0  0  0  0  0  0  0
  2  1  1  1
  2  3  1  0
  4  3  1  0
  5  4  2  0
  6  7  2  0
  6  2  1  0
  8  4  1  0
  9  6  1  0
 10  9  1  0
 10 11  1  6
 12 11  1  0
 13 12  2  0
 14 10  1  0
 14 15  2  0
 16 12  1  0
 17 14  1  0
 18 17  1  0
 18 19  1  1
 19 20  1  0
 20 21  1  0
 21 22  1  0
 23 22  1  0
 24 18  1  0
 25 24  1  0
 26 24  2  0
M  END
$$$$
