DDK.pdb
     RDKit          3D

 26 25  0  0  1  0  0  0  0  0999 V2000
   17.0327  -12.3171  -17.5952 N   0  0  0  0  0  0  0  0  0  0  0  0
   17.3280  -11.6178  -16.3634 C   0  0  1  0  0  0  0  0  0  0  0  0
   17.8990  -12.5715  -15.3691 C   0  0  0  0  0  0  0  0  0  0  0  0
   16.8053  -13.3311  -14.7398 C   0  0  0  0  0  0  0  0  0  0  0  0
   15.6513  -12.8595  -14.7272 O   0  0  0  0  0  0  0  0  0  0  0  0
   18.2585  -10.4997  -16.6869 C   0  0  0  0  0  0  0  0  0  0  0  0
   19.2025  -10.7233  -17.4518 O   0  0  0  0  0  0  0  0  0  0  0  0
   17.0323  -14.5628  -14.1593 O   0  0  0  0  0  0  0  0  0  0  0  0
   18.0905   -9.2015  -16.1461 N   0  0  0  0  0  0  0  0  0  0  0  0
   18.9240   -8.0656  -16.3148 C   0  0  1  0  0  0  0  0  0  0  0  0
   18.1684   -6.8017  -16.1655 C   0  0  0  0  0  0  0  0  0  0  0  0
   17.1400   -6.7038  -17.2333 C   0  0  0  0  0  0  0  0  0  0  0  0
   17.3938   -6.7780  -18.4603 O   0  0  0  0  0  0  0  0  0  0  0  0
   20.2248   -8.1098  -15.5877 C   0  0  0  0  0  0  0  0  0  0  0  0
   20.1968   -8.3529  -14.3627 O   0  0  0  0  0  0  0  0  0  0  0  0
   15.7807   -6.5166  -16.9187 O   0  0  0  0  0  0  0  0  0  0  0  0
   21.4623   -7.8829  -16.2638 N   0  0  0  0  0  0  0  0  0  0  0  0
   22.7393   -7.9511  -15.5840 C   0  0  1  0  0  0  0  0  0  0  0  0
   23.6528   -8.8536  -16.3646 C   0  0  0  0  0  0  0  0  0  0  0  0
   24.9836   -9.0999  -15.7429 C   0  0  0  0  0  0  0  0  0  0  0  0
   25.8561  -10.0124  -16.5645 C   0  0  0  0  0  0  0  0  0  0  0  0
   27.1714  -10.2229  -15.8414 C   0  0  0  0  0  0  0  0  0  0  0  0
   28.0651  -11.0869  -16.6003 N   0  0  0  0  0  0  0  0  0  0  0  0
   23.3179   -6.6009  -15.3730 C   0  0  0  0  0  0  0  0  0  0  0  0
   24.1968   -6.3466  -14.3079 O   0  0  0  0  0  0  0  0  0  0  0  0
   23.0659   -5.6214  -16.1148 O   0  0  0  0  0  0  0  0  0  0  0  0
  2  1  1  6
  2  3  1  0
  4  3  1  0
  5  4  2  0
  6  7  2  0
  6  2  1  0
  8  4  1  0
  9  6  1  0
 10  9  1  0
 10 11  1  1
 12 11  1  0
 13 12  2  0
 14 10  1  0
 14 15  2  0
 16 12  1  0
 17 14  1  0
 18 17  1  0
 18 19  1  6
 19 20  1  0
 20 21  1  0
 21 22  1  0
 23 22  1  0
 24 18  1  0
 25 24  1  0
 26 24  2  0
M  END
$$$$
