DDK.pdb
     RDKit          3D

 26 25  0  0  1  0  0  0  0  0999 V2000
   18.3073  -14.4570  -15.3688 N   0  0  0  0  0  0  0  0  0  0  0  0
   19.3502  -14.3437  -16.3653 C   0  0  1  0  0  0  0  0  0  0  0  0
   18.9958  -15.1650  -17.5587 C   0  0  0  0  0  0  0  0  0  0  0  0
   18.9772  -16.5886  -17.1815 C   0  0  0  0  0  0  0  0  0  0  0  0
   18.0362  -17.0354  -16.4965 O   0  0  0  0  0  0  0  0  0  0  0  0
   19.5138  -12.8987  -16.6904 C   0  0  0  0  0  0  0  0  0  0  0  0
   20.3594  -12.5777  -17.5319 O   0  0  0  0  0  0  0  0  0  0  0  0
   19.9867  -17.4450  -17.5729 O   0  0  0  0  0  0  0  0  0  0  0  0
   18.7336  -11.8947  -16.0664 N   0  0  0  0  0  0  0  0  0  0  0  0
   18.8740  -10.4862  -16.1646 C   0  0  1  0  0  0  0  0  0  0  0  0
   17.5701   -9.7944  -16.0560 C   0  0  0  0  0  0  0  0  0  0  0  0
   17.7539   -8.3391  -16.2923 C   0  0  0  0  0  0  0  0  0  0  0  0
   17.7416   -7.8062  -17.4286 O   0  0  0  0  0  0  0  0  0  0  0  0
   19.9707   -9.8916  -15.3483 C   0  0  0  0  0  0  0  0  0  0  0  0
   20.0098  -10.1775  -14.1328 O   0  0  0  0  0  0  0  0  0  0  0  0
   17.9587   -7.4488  -15.2213 O   0  0  0  0  0  0  0  0  0  0  0  0
   20.9451   -9.0250  -15.9310 N   0  0  0  0  0  0  0  0  0  0  0  0
   22.0298   -8.4516  -15.1613 C   0  0  1  0  0  0  0  0  0  0  0  0
   23.3279   -8.7675  -15.8494 C   0  0  0  0  0  0  0  0  0  0  0  0
   23.9716  -10.0445  -15.4332 C   0  0  0  0  0  0  0  0  0  0  0  0
   25.3054  -10.2732  -16.0950 C   0  0  0  0  0  0  0  0  0  0  0  0
   25.7722  -11.6833  -15.7935 C   0  0  0  0  0  0  0  0  0  0  0  0
   27.0244  -11.9872  -16.4723 N   0  0  0  0  0  0  0  0  0  0  0  0
   21.8381   -6.9954  -14.9493 C   0  0  0  0  0  0  0  0  0  0  0  0
   20.9408   -6.2592  -15.7396 O   0  0  0  0  0  0  0  0  0  0  0  0
   22.4504   -6.3421  -14.0710 O   0  0  0  0  0  0  0  0  0  0  0  0
  2  1  1  1
  2  3  1  0
  4  3  1  0
  5  4  2  0
  6  7  2  0
  6  2  1  0
  8  4  1  0
  9  6  1  0
 10  9  1  0
 10 11  1  1
 12 11  1  0
 13 12  2  0
 14 10  1  0
 14 15  2  0
 16 12  1  0
 17 14  1  0
 18 17  1  0
 18 19  1  6
 19 20  1  0
 20 21  1  0
 21 22  1  0
 23 22  1  0
 24 18  1  0
 25 24  1  0
 26 24  2  0
M  END
$$$$
