IQW.pdb
     RDKit          3D

 32 33  0  0  1  0  0  0  0  0999 V2000
   28.7590  -15.7850  -17.5479 C   0  0  0  0  0  0  0  0  0  0  0  0
   28.9924  -17.2220  -17.2028 C   0  0  0  0  0  0  0  0  0  0  0  0
   28.0857  -17.5827  -16.0361 C   0  0  2  0  0  0  0  0  0  0  0  0
   28.8836  -17.9954  -14.8265 C   0  0  0  0  0  0  0  0  0  0  0  0
   27.2597  -18.7790  -16.4759 C   0  0  2  0  0  0  0  0  0  0  0  0
   26.4456  -18.4534  -17.6312 N   0  0  0  0  0  0  0  0  0  0  0  0
   26.3555  -19.1557  -15.3649 C   0  0  0  0  0  0  0  0  0  0  0  0
   25.3759  -18.4295  -15.0178 O   0  0  0  0  0  0  0  0  0  0  0  0
   24.2317  -24.5883  -14.9230 N   0  0  0  0  0  0  0  0  0  0  0  0
   23.6659  -24.0828  -13.7145 C   0  0  0  0  0  0  0  0  0  0  0  0
   22.7942  -24.7259  -13.0984 O   0  0  0  0  0  0  0  0  0  0  0  0
   24.1250  -22.7861  -13.2018 C   0  0  0  0  0  0  0  0  0  0  0  0
   25.1316  -22.1046  -14.0565 C   0  0  0  0  0  0  0  0  0  0  0  0
   25.6276  -20.7783  -13.6095 C   0  0  2  0  0  0  0  0  0  0  0  0
   26.5841  -20.3565  -14.6673 N   0  0  0  0  0  0  0  0  0  0  0  0
   26.3554  -20.7351  -12.3438 C   0  0  0  0  0  0  0  0  0  0  0  0
   27.5232  -21.1986  -12.2881 O   0  0  0  0  0  0  0  0  0  0  0  0
   25.8360  -20.1994  -11.1575 N   0  0  0  0  0  0  0  0  0  0  0  0
   26.1956  -20.7814   -9.8521 C   0  0  1  0  0  0  0  0  0  0  0  0
   26.6474  -19.6132   -9.0286 C   0  0  0  0  0  0  0  0  0  0  0  0
   26.6944  -19.7920   -7.5822 C   0  0  0  0  0  0  0  0  0  0  0  0
   25.7381  -20.4957   -6.8352 C   0  0  0  0  0  0  0  0  0  0  0  0
   26.0961  -20.4146   -5.5592 N   0  0  0  0  0  0  0  0  0  0  0  0
   27.2274  -19.6993   -5.4492 C   0  0  0  0  0  0  0  0  0  0  0  0
   28.0002  -19.3490   -4.3626 C   0  0  0  0  0  0  0  0  0  0  0  0
   29.1567  -18.6074   -4.5174 C   0  0  0  0  0  0  0  0  0  0  0  0
   29.5473  -18.2112   -5.7619 C   0  0  0  0  0  0  0  0  0  0  0  0
   28.8058  -18.5407   -6.8524 C   0  0  0  0  0  0  0  0  0  0  0  0
   27.6347  -19.2891   -6.7121 C   0  0  0  0  0  0  0  0  0  0  0  0
   25.0143  -21.4701   -9.3308 C   0  0  0  0  0  0  0  0  0  0  0  0
   25.0495  -22.4282   -8.5117 O   0  0  0  0  0  0  0  0  0  0  0  0
   23.7512  -21.0760   -9.7377 O   0  0  0  0  0  0  0  0  0  0  0  0
  2  1  1  0
  3  4  1  1
  3  5  1  0
  3  2  1  0
  5  6  1  6
  7  5  1  0
  7  8  2  0
 10  9  1  0
 10 12  1  0
 11 10  2  0
 12 13  1  0
 14 13  1  6
 14 15  1  0
 15  7  1  0
 16 17  2  0
 16 14  1  0
 18 16  1  0
 19 18  1  0
 19 20  1  1
 20 21  1  0
 21 29  1  0
 21 22  2  0
 22 23  1  0
 24 23  1  0
 24 25  2  0
 26 25  1  0
 27 26  2  0
 28 29  2  0
 28 27  1  0
 29 24  1  0
 30 19  1  0
 31 30  2  0
 32 30  1  0
M  END
$$$$
