IQW.pdb
     RDKit          3D

 32 33  0  0  1  0  0  0  0  0999 V2000
   29.2576  -18.4303  -17.5067 C   0  0  0  0  0  0  0  0  0  0  0  0
   27.9371  -19.1312  -17.4481 C   0  0  0  0  0  0  0  0  0  0  0  0
   27.1782  -18.6123  -16.2363 C   0  0  2  0  0  0  0  0  0  0  0  0
   27.2506  -17.1102  -16.1437 C   0  0  0  0  0  0  0  0  0  0  0  0
   27.8662  -19.1853  -15.0094 C   0  0  2  0  0  0  0  0  0  0  0  0
   28.2824  -20.5558  -15.2381 N   0  0  0  0  0  0  0  0  0  0  0  0
   26.9007  -19.1770  -13.8863 C   0  0  0  0  0  0  0  0  0  0  0  0
   25.9914  -18.2992  -13.7861 O   0  0  0  0  0  0  0  0  0  0  0  0
   22.3704  -21.5627  -13.2721 N   0  0  0  0  0  0  0  0  0  0  0  0
   23.4627  -22.4807  -13.2701 C   0  0  0  0  0  0  0  0  0  0  0  0
   23.3249  -23.6400  -13.7063 O   0  0  0  0  0  0  0  0  0  0  0  0
   24.7606  -22.0412  -12.7433 C   0  0  0  0  0  0  0  0  0  0  0  0
   24.7802  -20.6456  -12.2332 C   0  0  0  0  0  0  0  0  0  0  0  0
   26.0717  -20.1179  -11.7249 C   0  0  2  0  0  0  0  0  0  0  0  0
   26.9886  -20.1718  -12.8946 N   0  0  0  0  0  0  0  0  0  0  0  0
   26.7173  -20.8680  -10.6505 C   0  0  0  0  0  0  0  0  0  0  0  0
   27.9664  -21.0138  -10.6647 O   0  0  0  0  0  0  0  0  0  0  0  0
   26.0302  -21.4498   -9.5765 N   0  0  0  0  0  0  0  0  0  0  0  0
   26.3845  -21.1085   -8.1872 C   0  0  1  0  0  0  0  0  0  0  0  0
   26.8015  -19.6699   -8.2457 C   0  0  0  0  0  0  0  0  0  0  0  0
   27.5792  -19.1522   -7.1261 C   0  0  0  0  0  0  0  0  0  0  0  0
   27.9514  -17.8090   -6.9684 C   0  0  0  0  0  0  0  0  0  0  0  0
   28.6746  -17.7275   -5.8580 N   0  0  0  0  0  0  0  0  0  0  0  0
   28.7847  -18.9428   -5.2970 C   0  0  0  0  0  0  0  0  0  0  0  0
   29.4074  -19.3799   -4.1474 C   0  0  0  0  0  0  0  0  0  0  0  0
   29.3577  -20.7085   -3.7684 C   0  0  0  0  0  0  0  0  0  0  0  0
   28.6838  -21.6090   -4.5386 C   0  0  0  0  0  0  0  0  0  0  0  0
   28.0604  -21.2084   -5.6781 C   0  0  0  0  0  0  0  0  0  0  0  0
   28.1022  -19.8696   -6.0744 C   0  0  0  0  0  0  0  0  0  0  0  0
   25.2109  -21.3662   -7.3520 C   0  0  0  0  0  0  0  0  0  0  0  0
   24.0462  -20.9583   -7.6113 O   0  0  0  0  0  0  0  0  0  0  0  0
   25.3419  -22.1039   -6.1880 O   0  0  0  0  0  0  0  0  0  0  0  0
  2  1  1  0
  3  4  1  1
  3  5  1  0
  3  2  1  0
  5  6  1  6
  7  5  1  0
  7  8  2  0
 10  9  1  0
 10 12  1  0
 11 10  2  0
 12 13  1  0
 14 13  1  6
 14 15  1  0
 15  7  1  0
 16 17  2  0
 16 14  1  0
 18 16  1  0
 19 18  1  0
 19 20  1  6
 20 21  1  0
 21 29  1  0
 21 22  2  0
 22 23  1  0
 24 23  1  0
 24 25  2  0
 26 25  1  0
 27 26  2  0
 28 29  2  0
 28 27  1  0
 29 24  1  0
 30 19  1  0
 31 30  2  0
 32 30  1  0
M  END
$$$$
