IQW.pdb
     RDKit          3D

 32 33  0  0  1  0  0  0  0  0999 V2000
   28.2807  -16.9555  -17.9913 C   0  0  0  0  0  0  0  0  0  0  0  0
   28.6240  -18.0466  -17.0268 C   0  0  0  0  0  0  0  0  0  0  0  0
   27.6358  -17.9872  -15.8721 C   0  0  2  0  0  0  0  0  0  0  0  0
   27.6996  -16.6602  -15.1612 C   0  0  0  0  0  0  0  0  0  0  0  0
   28.0513  -19.0625  -14.8833 C   0  0  2  0  0  0  0  0  0  0  0  0
   28.0940  -20.3657  -15.5186 N   0  0  0  0  0  0  0  0  0  0  0  0
   27.0459  -19.1109  -13.7967 C   0  0  0  0  0  0  0  0  0  0  0  0
   26.7562  -18.0914  -13.1010 O   0  0  0  0  0  0  0  0  0  0  0  0
   21.9656  -19.9968  -13.1969 N   0  0  0  0  0  0  0  0  0  0  0  0
   22.0329  -20.9608  -12.1471 C   0  0  0  0  0  0  0  0  0  0  0  0
   21.0572  -21.1598  -11.3979 O   0  0  0  0  0  0  0  0  0  0  0  0
   23.2746  -21.7208  -11.9575 C   0  0  0  0  0  0  0  0  0  0  0  0
   24.3690  -21.3613  -12.8962 C   0  0  0  0  0  0  0  0  0  0  0  0
   25.3748  -20.3722  -12.4326 C   0  0  2  0  0  0  0  0  0  0  0  0
   26.3867  -20.3235  -13.5215 N   0  0  0  0  0  0  0  0  0  0  0  0
   26.0965  -20.6877  -11.2025 C   0  0  0  0  0  0  0  0  0  0  0  0
   27.1459  -21.3783  -11.2633 O   0  0  0  0  0  0  0  0  0  0  0  0
   25.6970  -20.2648   -9.9276 N   0  0  0  0  0  0  0  0  0  0  0  0
   26.4233  -20.7156   -8.7269 C   0  0  1  0  0  0  0  0  0  0  0  0
   27.5007  -19.6922   -8.5300 C   0  0  0  0  0  0  0  0  0  0  0  0
   27.7646  -19.2519   -7.1652 C   0  0  0  0  0  0  0  0  0  0  0  0
   27.1782  -18.1287   -6.5633 C   0  0  0  0  0  0  0  0  0  0  0  0
   27.6833  -18.0278   -5.3396 N   0  0  0  0  0  0  0  0  0  0  0  0
   28.5586  -19.0237   -5.1256 C   0  0  0  0  0  0  0  0  0  0  0  0
   29.3236  -19.3658   -4.0309 C   0  0  0  0  0  0  0  0  0  0  0  0
   30.1495  -20.4742   -4.0543 C   0  0  0  0  0  0  0  0  0  0  0  0
   30.2152  -21.2479   -5.1748 C   0  0  0  0  0  0  0  0  0  0  0  0
   29.4734  -20.9356   -6.2702 C   0  0  0  0  0  0  0  0  0  0  0  0
   28.6347  -19.8187   -6.2619 C   0  0  0  0  0  0  0  0  0  0  0  0
   25.4596  -20.8004   -7.6290 C   0  0  0  0  0  0  0  0  0  0  0  0
   24.3105  -20.2813   -7.6454 O   0  0  0  0  0  0  0  0  0  0  0  0
   25.7898  -21.4878   -6.4736 O   0  0  0  0  0  0  0  0  0  0  0  0
  2  1  1  0
  3  4  1  1
  3  5  1  0
  3  2  1  0
  5  6  1  6
  7  5  1  0
  7  8  2  0
 10  9  1  0
 10 12  1  0
 11 10  2  0
 12 13  1  0
 14 13  1  6
 14 15  1  0
 15  7  1  0
 16 17  2  0
 16 14  1  0
 18 16  1  0
 19 18  1  0
 19 20  1  1
 20 21  1  0
 21 29  1  0
 21 22  2  0
 22 23  1  0
 24 23  1  0
 24 25  2  0
 26 25  1  0
 27 26  2  0
 28 29  2  0
 28 27  1  0
 29 24  1  0
 30 19  1  0
 31 30  2  0
 32 30  1  0
M  END
$$$$
