IQW.pdb
     RDKit          3D

 32 33  0  0  1  0  0  0  0  0999 V2000
   27.0125  -15.2632  -16.3691 C   0  0  0  0  0  0  0  0  0  0  0  0
   26.3308  -16.5709  -16.6214 C   0  0  0  0  0  0  0  0  0  0  0  0
   25.9137  -17.1547  -15.2803 C   0  0  2  0  0  0  0  0  0  0  0  0
   27.1118  -17.5149  -14.4406 C   0  0  0  0  0  0  0  0  0  0  0  0
   25.1543  -18.4362  -15.5768 C   0  0  2  0  0  0  0  0  0  0  0  0
   24.0007  -18.1755  -16.4164 N   0  0  0  0  0  0  0  0  0  0  0  0
   24.6743  -19.0015  -14.2947 C   0  0  0  0  0  0  0  0  0  0  0  0
   23.6900  -18.5070  -13.6669 O   0  0  0  0  0  0  0  0  0  0  0  0
   21.9817  -22.5873  -11.6029 N   0  0  0  0  0  0  0  0  0  0  0  0
   22.0395  -22.5025  -13.0261 C   0  0  0  0  0  0  0  0  0  0  0  0
   21.0088  -22.6212  -13.7164 O   0  0  0  0  0  0  0  0  0  0  0  0
   23.3372  -22.2734  -13.6730 C   0  0  0  0  0  0  0  0  0  0  0  0
   24.4687  -22.0651  -12.7326 C   0  0  0  0  0  0  0  0  0  0  0  0
   24.8715  -20.6658  -12.4412 C   0  0  2  0  0  0  0  0  0  0  0  0
   25.3260  -20.1233  -13.7493 N   0  0  0  0  0  0  0  0  0  0  0  0
   25.9737  -20.4753  -11.5018 C   0  0  0  0  0  0  0  0  0  0  0  0
   27.1573  -20.6136  -11.9039 O   0  0  0  0  0  0  0  0  0  0  0  0
   25.8052  -20.1388  -10.1519 N   0  0  0  0  0  0  0  0  0  0  0  0
   26.9686  -20.0474   -9.2517 C   0  0  1  0  0  0  0  0  0  0  0  0
   26.5266  -19.1267   -8.1545 C   0  0  0  0  0  0  0  0  0  0  0  0
   27.5011  -18.8023   -7.1194 C   0  0  0  0  0  0  0  0  0  0  0  0
   28.4396  -17.7634   -7.2065 C   0  0  0  0  0  0  0  0  0  0  0  0
   29.1706  -17.7979   -6.0987 N   0  0  0  0  0  0  0  0  0  0  0  0
   28.7513  -18.7997   -5.3085 C   0  0  0  0  0  0  0  0  0  0  0  0
   29.1630  -19.2348   -4.0668 C   0  0  0  0  0  0  0  0  0  0  0  0
   28.5425  -20.2999   -3.4409 C   0  0  0  0  0  0  0  0  0  0  0  0
   27.5052  -20.9371   -4.0544 C   0  0  0  0  0  0  0  0  0  0  0  0
   27.0772  -20.5314   -5.2791 C   0  0  0  0  0  0  0  0  0  0  0  0
   27.6943  -19.4572   -5.9244 C   0  0  0  0  0  0  0  0  0  0  0  0
   27.2976  -21.4031   -8.8098 C   0  0  0  0  0  0  0  0  0  0  0  0
   26.4533  -22.3250   -8.6441 O   0  0  0  0  0  0  0  0  0  0  0  0
   28.6134  -21.7411   -8.5439 O   0  0  0  0  0  0  0  0  0  0  0  0
  2  1  1  0
  3  4  1  1
  3  5  1  0
  3  2  1  0
  5  6  1  6
  7  5  1  0
  7  8  2  0
 10  9  1  0
 10 12  1  0
 11 10  2  0
 12 13  1  0
 14 13  1  6
 14 15  1  0
 15  7  1  0
 16 17  2  0
 16 14  1  0
 18 16  1  0
 19 18  1  0
 19 20  1  1
 20 21  1  0
 21 29  1  0
 21 22  2  0
 22 23  1  0
 24 23  1  0
 24 25  2  0
 26 25  1  0
 27 26  2  0
 28 29  2  0
 28 27  1  0
 29 24  1  0
 30 19  1  0
 31 30  2  0
 32 30  1  0
M  END
$$$$
