IQW.pdb
     RDKit          3D

 32 33  0  0  1  0  0  0  0  0999 V2000
   20.9811  -18.5212  -17.7425 C   0  0  0  0  0  0  0  0  0  0  0  0
   22.1280  -19.1885  -17.0512 C   0  0  0  0  0  0  0  0  0  0  0  0
   23.3004  -18.2197  -17.0350 C   0  0  2  0  0  0  0  0  0  0  0  0
   23.8853  -18.0408  -18.4120 C   0  0  0  0  0  0  0  0  0  0  0  0
   24.3708  -18.8410  -16.1546 C   0  0  2  0  0  0  0  0  0  0  0  0
   24.5525  -20.2453  -16.4683 N   0  0  0  0  0  0  0  0  0  0  0  0
   23.9334  -18.7357  -14.7434 C   0  0  0  0  0  0  0  0  0  0  0  0
   23.7181  -17.6173  -14.1865 O   0  0  0  0  0  0  0  0  0  0  0  0
   19.8382  -22.6131  -11.2043 N   0  0  0  0  0  0  0  0  0  0  0  0
   19.9657  -21.1942  -11.2834 C   0  0  0  0  0  0  0  0  0  0  0  0
   18.9603  -20.4670  -11.3990 O   0  0  0  0  0  0  0  0  0  0  0  0
   21.3052  -20.5960  -11.2278 C   0  0  0  0  0  0  0  0  0  0  0  0
   21.9535  -20.4075  -12.5516 C   0  0  0  0  0  0  0  0  0  0  0  0
   23.3105  -19.8050  -12.5725 C   0  0  2  0  0  0  0  0  0  0  0  0
   23.7487  -19.9099  -13.9899 N   0  0  0  0  0  0  0  0  0  0  0  0
   24.3383  -20.4583  -11.7659 C   0  0  0  0  0  0  0  0  0  0  0  0
   24.8137  -21.5587  -12.1465 O   0  0  0  0  0  0  0  0  0  0  0  0
   24.8482  -19.9347  -10.5701 N   0  0  0  0  0  0  0  0  0  0  0  0
   25.7875  -20.7194   -9.7490 C   0  0  1  0  0  0  0  0  0  0  0  0
   26.6624  -19.6949   -9.0918 C   0  0  0  0  0  0  0  0  0  0  0  0
   27.7880  -20.1824   -8.3033 C   0  0  0  0  0  0  0  0  0  0  0  0
   28.5899  -21.2789   -8.6531 C   0  0  0  0  0  0  0  0  0  0  0  0
   29.4827  -21.4401   -7.6837 N   0  0  0  0  0  0  0  0  0  0  0  0
   29.2968  -20.5080   -6.7349 C   0  0  0  0  0  0  0  0  0  0  0  0
   29.9592  -20.2412   -5.5557 C   0  0  0  0  0  0  0  0  0  0  0  0
   29.5787  -19.1882   -4.7447 C   0  0  0  0  0  0  0  0  0  0  0  0
   28.5317  -18.3949   -5.1091 C   0  0  0  0  0  0  0  0  0  0  0  0
   27.8585  -18.6335   -6.2656 C   0  0  0  0  0  0  0  0  0  0  0  0
   28.2308  -19.6938   -7.0952 C   0  0  0  0  0  0  0  0  0  0  0  0
   24.9982  -21.5287   -8.8198 C   0  0  0  0  0  0  0  0  0  0  0  0
   25.4766  -22.4128   -8.0585 O   0  0  0  0  0  0  0  0  0  0  0  0
   23.6286  -21.3449   -8.7378 O   0  0  0  0  0  0  0  0  0  0  0  0
  2  1  1  0
  3  4  1  6
  3  5  1  0
  3  2  1  0
  5  6  1  6
  7  5  1  0
  7  8  2  0
 10  9  1  0
 10 12  1  0
 11 10  2  0
 12 13  1  0
 14 13  1  6
 14 15  1  0
 15  7  1  0
 16 17  2  0
 16 14  1  0
 18 16  1  0
 19 18  1  0
 19 20  1  1
 20 21  1  0
 21 29  1  0
 21 22  2  0
 22 23  1  0
 24 23  1  0
 24 25  2  0
 26 25  1  0
 27 26  2  0
 28 29  2  0
 28 27  1  0
 29 24  1  0
 30 19  1  0
 31 30  2  0
 32 30  1  0
M  END
$$$$
