IQW.pdb
     RDKit          3D

 32 33  0  0  1  0  0  0  0  0999 V2000
   20.6906  -18.1027  -14.3268 C   0  0  0  0  0  0  0  0  0  0  0  0
   22.1025  -17.7108  -14.6289 C   0  0  0  0  0  0  0  0  0  0  0  0
   23.0043  -18.8877  -14.2895 C   0  0  2  0  0  0  0  0  0  0  0  0
   22.9202  -19.2414  -12.8272 C   0  0  0  0  0  0  0  0  0  0  0  0
   24.4287  -18.4464  -14.5777 C   0  0  2  0  0  0  0  0  0  0  0  0
   24.5908  -18.0893  -15.9740 N   0  0  0  0  0  0  0  0  0  0  0  0
   25.3369  -19.5784  -14.2819 C   0  0  0  0  0  0  0  0  0  0  0  0
   25.3691  -20.6220  -15.0011 O   0  0  0  0  0  0  0  0  0  0  0  0
   29.0484  -21.7440  -15.3501 N   0  0  0  0  0  0  0  0  0  0  0  0
   29.8127  -21.9709  -14.1667 C   0  0  0  0  0  0  0  0  0  0  0  0
   30.6688  -22.8754  -14.1218 O   0  0  0  0  0  0  0  0  0  0  0  0
   29.5765  -21.1210  -12.9933 C   0  0  0  0  0  0  0  0  0  0  0  0
   28.4543  -20.1585  -13.1428 C   0  0  0  0  0  0  0  0  0  0  0  0
   27.0837  -20.6504  -12.8524 C   0  0  2  0  0  0  0  0  0  0  0  0
   26.1947  -19.5009  -13.1688 N   0  0  0  0  0  0  0  0  0  0  0  0
   26.7964  -21.0361  -11.4731 C   0  0  0  0  0  0  0  0  0  0  0  0
   27.3406  -22.0638  -10.9942 O   0  0  0  0  0  0  0  0  0  0  0  0
   25.9394  -20.3257  -10.6217 N   0  0  0  0  0  0  0  0  0  0  0  0
   25.6237  -20.8400   -9.2770 C   0  0  1  0  0  0  0  0  0  0  0  0
   25.6591  -19.6309   -8.3917 C   0  0  0  0  0  0  0  0  0  0  0  0
   26.9382  -19.2834   -7.7838 C   0  0  0  0  0  0  0  0  0  0  0  0
   27.8915  -18.4342   -8.3649 C   0  0  0  0  0  0  0  0  0  0  0  0
   28.9310  -18.3849   -7.5403 N   0  0  0  0  0  0  0  0  0  0  0  0
   28.6950  -19.1541   -6.4650 C   0  0  0  0  0  0  0  0  0  0  0  0
   29.4389  -19.4213   -5.3355 C   0  0  0  0  0  0  0  0  0  0  0  0
   28.9549  -20.2500   -4.3403 C   0  0  0  0  0  0  0  0  0  0  0  0
   27.7221  -20.8173   -4.4696 C   0  0  0  0  0  0  0  0  0  0  0  0
   26.9654  -20.5733   -5.5721 C   0  0  0  0  0  0  0  0  0  0  0  0
   27.4409  -19.7386   -6.5862 C   0  0  0  0  0  0  0  0  0  0  0  0
   24.3205  -21.5019   -9.3478 C   0  0  0  0  0  0  0  0  0  0  0  0
   23.6066  -21.5645  -10.3854 O   0  0  0  0  0  0  0  0  0  0  0  0
   23.7966  -22.1144   -8.2223 O   0  0  0  0  0  0  0  0  0  0  0  0
  2  1  1  0
  3  4  1  1
  3  5  1  0
  3  2  1  0
  5  6  1  6
  7  5  1  0
  7  8  2  0
 10  9  1  0
 10 12  1  0
 11 10  2  0
 12 13  1  0
 14 13  1  1
 14 15  1  0
 15  7  1  0
 16 17  2  0
 16 14  1  0
 18 16  1  0
 19 18  1  0
 19 20  1  1
 20 21  1  0
 21 29  1  0
 21 22  2  0
 22 23  1  0
 24 23  1  0
 24 25  2  0
 26 25  1  0
 27 26  2  0
 28 29  2  0
 28 27  1  0
 29 24  1  0
 30 19  1  0
 31 30  2  0
 32 30  1  0
M  END
$$$$
