IQW.pdb
     RDKit          3D

 32 33  0  0  1  0  0  0  0  0999 V2000
   27.5109  -19.6046  -21.8613 C   0  0  0  0  0  0  0  0  0  0  0  0
   26.5365  -19.2928  -20.7696 C   0  0  0  0  0  0  0  0  0  0  0  0
   26.6476  -20.3787  -19.7104 C   0  0  2  0  0  0  0  0  0  0  0  0
   26.2884  -21.7311  -20.2693 C   0  0  0  0  0  0  0  0  0  0  0  0
   25.6364  -20.0415  -18.6286 C   0  0  2  0  0  0  0  0  0  0  0  0
   25.9540  -18.7760  -17.9952 N   0  0  0  0  0  0  0  0  0  0  0  0
   25.6878  -21.1011  -17.5950 C   0  0  0  0  0  0  0  0  0  0  0  0
   26.5785  -21.1197  -16.6928 O   0  0  0  0  0  0  0  0  0  0  0  0
   20.7595  -23.7635  -15.3390 N   0  0  0  0  0  0  0  0  0  0  0  0
   21.7261  -24.6654  -14.8023 C   0  0  0  0  0  0  0  0  0  0  0  0
   21.3987  -25.5326  -13.9692 O   0  0  0  0  0  0  0  0  0  0  0  0
   23.1217  -24.5588  -15.2451 C   0  0  0  0  0  0  0  0  0  0  0  0
   23.3978  -23.4119  -16.1487 C   0  0  0  0  0  0  0  0  0  0  0  0
   24.7989  -23.2132  -16.5985 C   0  0  2  0  0  0  0  0  0  0  0  0
   24.7208  -22.1236  -17.6078 N   0  0  0  0  0  0  0  0  0  0  0  0
   25.4519  -24.3447  -17.2520 C   0  0  0  0  0  0  0  0  0  0  0  0
   25.3389  -24.4872  -18.4964 O   0  0  0  0  0  0  0  0  0  0  0  0
   26.2165  -25.3063  -16.5776 N   0  0  0  0  0  0  0  0  0  0  0  0
   26.8361  -26.4223  -17.3143 C   0  0  1  0  0  0  0  0  0  0  0  0
   28.0447  -26.7850  -16.5051 C   0  0  0  0  0  0  0  0  0  0  0  0
   28.7837  -27.9774  -16.9032 C   0  0  0  0  0  0  0  0  0  0  0  0
   29.8743  -27.9809  -17.7853 C   0  0  0  0  0  0  0  0  0  0  0  0
   30.2601  -29.2429  -17.9310 N   0  0  0  0  0  0  0  0  0  0  0  0
   29.4779  -30.0456  -17.1911 C   0  0  0  0  0  0  0  0  0  0  0  0
   29.4776  -31.4093  -16.9889 C   0  0  0  0  0  0  0  0  0  0  0  0
   28.5604  -32.0064  -16.1443 C   0  0  0  0  0  0  0  0  0  0  0  0
   27.6366  -31.2416  -15.4961 C   0  0  0  0  0  0  0  0  0  0  0  0
   27.6115  -29.8945  -15.6758 C   0  0  0  0  0  0  0  0  0  0  0  0
   28.5313  -29.2768  -16.5263 C   0  0  0  0  0  0  0  0  0  0  0  0
   25.8403  -27.4884  -17.4281 C   0  0  0  0  0  0  0  0  0  0  0  0
   25.8608  -28.3944  -18.3050 O   0  0  0  0  0  0  0  0  0  0  0  0
   24.7859  -27.5451  -16.5328 O   0  0  0  0  0  0  0  0  0  0  0  0
  2  1  1  0
  3  4  1  6
  3  5  1  0
  3  2  1  0
  5  6  1  1
  7  5  1  0
  7  8  2  0
 10  9  1  0
 10 12  1  0
 11 10  2  0
 12 13  1  0
 14 13  1  6
 14 15  1  0
 15  7  1  0
 16 17  2  0
 16 14  1  0
 18 16  1  0
 19 18  1  0
 19 20  1  1
 20 21  1  0
 21 29  1  0
 21 22  2  0
 22 23  1  0
 24 23  1  0
 24 25  2  0
 26 25  1  0
 27 26  2  0
 28 29  2  0
 28 27  1  0
 29 24  1  0
 30 19  1  0
 31 30  2  0
 32 30  1  0
M  END
$$$$
