IQW.pdb
     RDKit          3D

 32 33  0  0  1  0  0  0  0  0999 V2000
   17.8766  -20.1488  -14.0489 C   0  0  0  0  0  0  0  0  0  0  0  0
   18.1678  -20.5959  -12.6512 C   0  0  0  0  0  0  0  0  0  0  0  0
   19.4729  -21.3771  -12.6654 C   0  0  2  0  0  0  0  0  0  0  0  0
   19.3549  -22.6596  -11.8833 C   0  0  0  0  0  0  0  0  0  0  0  0
   20.5114  -20.5089  -11.9767 C   0  0  2  0  0  0  0  0  0  0  0  0
   20.6848  -19.2503  -12.6764 N   0  0  0  0  0  0  0  0  0  0  0  0
   21.8060  -21.2284  -11.9926 C   0  0  0  0  0  0  0  0  0  0  0  0
   21.9387  -22.3875  -11.4963 O   0  0  0  0  0  0  0  0  0  0  0  0
   27.1746  -20.3777  -15.0019 N   0  0  0  0  0  0  0  0  0  0  0  0
   26.9861  -21.7850  -14.8610 C   0  0  0  0  0  0  0  0  0  0  0  0
   27.9042  -22.5835  -15.1303 O   0  0  0  0  0  0  0  0  0  0  0  0
   25.6880  -22.2857  -14.3928 C   0  0  0  0  0  0  0  0  0  0  0  0
   24.7453  -21.2303  -13.9391 C   0  0  0  0  0  0  0  0  0  0  0  0
   24.2416  -21.3120  -12.5447 C   0  0  2  0  0  0  0  0  0  0  0  0
   22.9294  -20.6127  -12.5753 N   0  0  0  0  0  0  0  0  0  0  0  0
   25.0415  -20.6586  -11.5118 C   0  0  0  0  0  0  0  0  0  0  0  0
   24.7674  -19.4785  -11.1741 O   0  0  0  0  0  0  0  0  0  0  0  0
   26.1177  -21.2661  -10.8508 N   0  0  0  0  0  0  0  0  0  0  0  0
   27.0336  -20.4661  -10.0181 C   0  0  1  0  0  0  0  0  0  0  0  0
   26.4307  -20.5069   -8.6463 C   0  0  0  0  0  0  0  0  0  0  0  0
   27.0903  -19.7320   -7.6018 C   0  0  0  0  0  0  0  0  0  0  0  0
   27.3117  -18.3479   -7.6566 C   0  0  0  0  0  0  0  0  0  0  0  0
   27.9632  -18.0083   -6.5507 N   0  0  0  0  0  0  0  0  0  0  0  0
   28.1697  -19.0973   -5.7923 C   0  0  0  0  0  0  0  0  0  0  0  0
   28.7734  -19.2710   -4.5651 C   0  0  0  0  0  0  0  0  0  0  0  0
   28.8426  -20.5182   -3.9727 C   0  0  0  0  0  0  0  0  0  0  0  0
   28.3076  -21.6007   -4.6056 C   0  0  0  0  0  0  0  0  0  0  0  0
   27.7066  -21.4611   -5.8168 C   0  0  0  0  0  0  0  0  0  0  0  0
   27.6293  -20.2076   -6.4281 C   0  0  0  0  0  0  0  0  0  0  0  0
   28.3638  -21.0684  -10.1140 C   0  0  0  0  0  0  0  0  0  0  0  0
   28.5800  -22.2905  -10.3376 O   0  0  0  0  0  0  0  0  0  0  0  0
   29.4905  -20.2801   -9.9549 O   0  0  0  0  0  0  0  0  0  0  0  0
  2  1  1  0
  3  4  1  1
  3  5  1  0
  3  2  1  0
  5  6  1  6
  7  5  1  0
  7  8  2  0
 10  9  1  0
 10 12  1  0
 11 10  2  0
 12 13  1  0
 14 13  1  6
 14 15  1  0
 15  7  1  0
 16 17  2  0
 16 14  1  0
 18 16  1  0
 19 18  1  0
 19 20  1  1
 20 21  1  0
 21 29  1  0
 21 22  2  0
 22 23  1  0
 24 23  1  0
 24 25  2  0
 26 25  1  0
 27 26  2  0
 28 29  2  0
 28 27  1  0
 29 24  1  0
 30 19  1  0
 31 30  2  0
 32 30  1  0
M  END
$$$$
