IQW.pdb
     RDKit          3D

 32 33  0  0  1  0  0  0  0  0999 V2000
   29.7060  -19.5882  -21.3987 C   0  0  0  0  0  0  0  0  0  0  0  0
   29.2555  -20.5753  -20.3686 C   0  0  0  0  0  0  0  0  0  0  0  0
   28.8933  -19.8100  -19.1050 C   0  0  2  0  0  0  0  0  0  0  0  0
   30.0927  -19.1061  -18.5253 C   0  0  0  0  0  0  0  0  0  0  0  0
   28.4239  -20.8372  -18.0894 C   0  0  2  0  0  0  0  0  0  0  0  0
   27.4943  -21.7753  -18.6890 N   0  0  0  0  0  0  0  0  0  0  0  0
   27.7218  -20.1258  -16.9964 C   0  0  0  0  0  0  0  0  0  0  0  0
   28.2993  -19.2533  -16.2803 O   0  0  0  0  0  0  0  0  0  0  0  0
   24.2319  -16.5340  -14.9866 N   0  0  0  0  0  0  0  0  0  0  0  0
   24.7669  -16.5230  -16.3093 C   0  0  0  0  0  0  0  0  0  0  0  0
   25.1081  -15.4546  -16.8525 O   0  0  0  0  0  0  0  0  0  0  0  0
   24.9111  -17.7944  -17.0290 C   0  0  0  0  0  0  0  0  0  0  0  0
   24.5653  -18.9993  -16.2310 C   0  0  0  0  0  0  0  0  0  0  0  0
   25.6813  -19.7513  -15.6034 C   0  0  2  0  0  0  0  0  0  0  0  0
   26.3704  -20.4219  -16.7380 N   0  0  0  0  0  0  0  0  0  0  0  0
   25.3216  -20.7997  -14.6520 C   0  0  0  0  0  0  0  0  0  0  0  0
   24.7562  -21.8429  -15.0688 O   0  0  0  0  0  0  0  0  0  0  0  0
   25.5686  -20.7279  -13.2743 N   0  0  0  0  0  0  0  0  0  0  0  0
   25.0444  -21.7619  -12.3643 C   0  0  1  0  0  0  0  0  0  0  0  0
   26.1232  -21.9466  -11.3400 C   0  0  0  0  0  0  0  0  0  0  0  0
   26.1481  -21.0149  -10.2185 C   0  0  0  0  0  0  0  0  0  0  0  0
   25.0801  -20.1835   -9.8500 C   0  0  0  0  0  0  0  0  0  0  0  0
   25.4835  -19.4590   -8.8131 N   0  0  0  0  0  0  0  0  0  0  0  0
   26.7486  -19.7814   -8.4980 C   0  0  0  0  0  0  0  0  0  0  0  0
   27.5997  -19.3357   -7.5093 C   0  0  0  0  0  0  0  0  0  0  0  0
   28.8759  -19.8510   -7.3789 C   0  0  0  0  0  0  0  0  0  0  0  0
   29.3089  -20.8166   -8.2383 C   0  0  0  0  0  0  0  0  0  0  0  0
   28.4930  -21.2758   -9.2238 C   0  0  0  0  0  0  0  0  0  0  0  0
   27.2011  -20.7645   -9.3685 C   0  0  0  0  0  0  0  0  0  0  0  0
   23.7729  -21.2780  -11.8253 C   0  0  0  0  0  0  0  0  0  0  0  0
   23.4417  -20.0631  -11.7582 O   0  0  0  0  0  0  0  0  0  0  0  0
   22.8397  -22.1806  -11.3448 O   0  0  0  0  0  0  0  0  0  0  0  0
  2  1  1  0
  3  4  1  1
  3  5  1  0
  3  2  1  0
  5  6  1  6
  7  5  1  0
  7  8  2  0
 10  9  1  0
 10 12  1  0
 11 10  2  0
 12 13  1  0
 14 13  1  6
 14 15  1  0
 15  7  1  0
 16 17  2  0
 16 14  1  0
 18 16  1  0
 19 18  1  0
 19 20  1  1
 20 21  1  0
 21 29  1  0
 21 22  2  0
 22 23  1  0
 24 23  1  0
 24 25  2  0
 26 25  1  0
 27 26  2  0
 28 29  2  0
 28 27  1  0
 29 24  1  0
 30 19  1  0
 31 30  2  0
 32 30  1  0
M  END
$$$$
