IQW.pdb
     RDKit          3D

 32 33  0  0  1  0  0  0  0  0999 V2000
   29.0810  -17.7932  -15.1613 C   0  0  0  0  0  0  0  0  0  0  0  0
   27.8365  -18.6196  -15.0797 C   0  0  0  0  0  0  0  0  0  0  0  0
   28.2294  -20.0288  -14.6634 C   0  0  2  0  0  0  0  0  0  0  0  0
   29.1217  -20.6770  -15.6900 C   0  0  0  0  0  0  0  0  0  0  0  0
   26.9463  -20.8379  -14.5884 C   0  0  2  0  0  0  0  0  0  0  0  0
   26.2423  -20.8166  -15.8564 N   0  0  0  0  0  0  0  0  0  0  0  0
   26.0690  -20.2278  -13.5627 C   0  0  0  0  0  0  0  0  0  0  0  0
   25.4983  -19.1100  -13.7428 O   0  0  0  0  0  0  0  0  0  0  0  0
   21.7715  -21.2956  -14.2676 N   0  0  0  0  0  0  0  0  0  0  0  0
   21.7800  -19.9654  -13.7513 C   0  0  0  0  0  0  0  0  0  0  0  0
   21.0393  -19.0871  -14.2341 O   0  0  0  0  0  0  0  0  0  0  0  0
   22.6788  -19.6403  -12.6371 C   0  0  0  0  0  0  0  0  0  0  0  0
   23.5141  -20.7752  -12.1652 C   0  0  0  0  0  0  0  0  0  0  0  0
   24.7687  -20.4502  -11.4405 C   0  0  2  0  0  0  0  0  0  0  0  0
   25.8571  -20.9040  -12.3468 N   0  0  0  0  0  0  0  0  0  0  0  0
   24.9850  -21.1159  -10.1584 C   0  0  0  0  0  0  0  0  0  0  0  0
   25.1932  -22.3560  -10.1351 O   0  0  0  0  0  0  0  0  0  0  0  0
   24.9799  -20.4575   -8.9213 N   0  0  0  0  0  0  0  0  0  0  0  0
   25.2157  -21.2055   -7.6734 C   0  0  1  0  0  0  0  0  0  0  0  0
   25.6995  -20.1737   -6.6996 C   0  0  0  0  0  0  0  0  0  0  0  0
   27.1045  -19.7906   -6.7730 C   0  0  0  0  0  0  0  0  0  0  0  0
   27.8427  -19.6945   -7.9619 C   0  0  0  0  0  0  0  0  0  0  0  0
   29.0830  -19.3563   -7.6302 N   0  0  0  0  0  0  0  0  0  0  0  0
   29.1785  -19.2302   -6.2965 C   0  0  0  0  0  0  0  0  0  0  0  0
   30.2274  -18.8853   -5.4710 C   0  0  0  0  0  0  0  0  0  0  0  0
   30.0618  -18.8042   -4.1009 C   0  0  0  0  0  0  0  0  0  0  0  0
   28.8442  -19.0682   -3.5477 C   0  0  0  0  0  0  0  0  0  0  0  0
   27.7912  -19.4116   -4.3356 C   0  0  0  0  0  0  0  0  0  0  0  0
   27.9429  -19.4982   -5.7215 C   0  0  0  0  0  0  0  0  0  0  0  0
   23.9579  -21.8519   -7.2971 C   0  0  0  0  0  0  0  0  0  0  0  0
   22.8299  -21.5515   -7.7739 O   0  0  0  0  0  0  0  0  0  0  0  0
   23.9595  -22.8679   -6.3568 O   0  0  0  0  0  0  0  0  0  0  0  0
  2  1  1  0
  3  4  1  6
  3  5  1  0
  3  2  1  0
  5  6  1  6
  7  5  1  0
  7  8  2  0
 10  9  1  0
 10 12  1  0
 11 10  2  0
 12 13  1  0
 14 13  1  6
 14 15  1  0
 15  7  1  0
 16 17  2  0
 16 14  1  0
 18 16  1  0
 19 18  1  0
 19 20  1  1
 20 21  1  0
 21 29  1  0
 21 22  2  0
 22 23  1  0
 24 23  1  0
 24 25  2  0
 26 25  1  0
 27 26  2  0
 28 29  2  0
 28 27  1  0
 29 24  1  0
 30 19  1  0
 31 30  2  0
 32 30  1  0
M  END
$$$$
