IQW.pdb
     RDKit          3D

 32 33  0  0  1  0  0  0  0  0999 V2000
   21.6415  -15.1423  -15.3830 C   0  0  0  0  0  0  0  0  0  0  0  0
   22.1945  -16.3675  -16.0400 C   0  0  0  0  0  0  0  0  0  0  0  0
   22.6705  -17.3160  -14.9504 C   0  0  2  0  0  0  0  0  0  0  0  0
   23.9599  -16.8410  -14.3323 C   0  0  0  0  0  0  0  0  0  0  0  0
   22.9428  -18.6518  -15.6200 C   0  0  2  0  0  0  0  0  0  0  0  0
   21.7695  -19.1289  -16.3266 N   0  0  0  0  0  0  0  0  0  0  0  0
   23.2830  -19.6394  -14.5699 C   0  0  0  0  0  0  0  0  0  0  0  0
   22.4467  -20.0001  -13.6878 O   0  0  0  0  0  0  0  0  0  0  0  0
   23.5450  -24.4307  -14.1271 N   0  0  0  0  0  0  0  0  0  0  0  0
   24.8054  -24.6373  -13.4911 C   0  0  0  0  0  0  0  0  0  0  0  0
   25.0265  -25.6700  -12.8294 O   0  0  0  0  0  0  0  0  0  0  0  0
   25.8466  -23.6111  -13.6250 C   0  0  0  0  0  0  0  0  0  0  0  0
   25.4194  -22.3882  -14.3531 C   0  0  0  0  0  0  0  0  0  0  0  0
   24.8878  -21.2595  -13.5479 C   0  0  2  0  0  0  0  0  0  0  0  0
   24.5736  -20.2002  -14.5434 N   0  0  0  0  0  0  0  0  0  0  0  0
   25.7912  -20.6607  -12.5686 C   0  0  0  0  0  0  0  0  0  0  0  0
   26.7028  -19.8887  -12.9621 O   0  0  0  0  0  0  0  0  0  0  0  0
   25.7134  -20.8869  -11.1878 N   0  0  0  0  0  0  0  0  0  0  0  0
   26.7136  -20.3040  -10.2755 C   0  0  1  0  0  0  0  0  0  0  0  0
   26.0507  -20.3141   -8.9311 C   0  0  0  0  0  0  0  0  0  0  0  0
   26.7453  -19.6454   -7.8372 C   0  0  0  0  0  0  0  0  0  0  0  0
   26.7388  -18.2599   -7.6184 C   0  0  0  0  0  0  0  0  0  0  0  0
   27.5027  -18.0240   -6.5584 N   0  0  0  0  0  0  0  0  0  0  0  0
   27.9961  -19.1809   -6.0873 C   0  0  0  0  0  0  0  0  0  0  0  0
   28.8124  -19.4719   -5.0151 C   0  0  0  0  0  0  0  0  0  0  0  0
   29.1691  -20.7748   -4.7213 C   0  0  0  0  0  0  0  0  0  0  0  0
   28.7109  -21.7958   -5.4998 C   0  0  0  0  0  0  0  0  0  0  0  0
   27.9050  -21.5403   -6.5642 C   0  0  0  0  0  0  0  0  0  0  0  0
   27.5363  -20.2291   -6.8739 C   0  0  0  0  0  0  0  0  0  0  0  0
   27.9243  -21.1215  -10.3609 C   0  0  0  0  0  0  0  0  0  0  0  0
   27.9315  -22.3751  -10.4969 O   0  0  0  0  0  0  0  0  0  0  0  0
   29.1688  -20.5193  -10.2919 O   0  0  0  0  0  0  0  0  0  0  0  0
  2  1  1  0
  3  4  1  6
  3  5  1  0
  3  2  1  0
  5  6  1  1
  7  5  1  0
  7  8  2  0
 10  9  1  0
 10 12  1  0
 11 10  2  0
 12 13  1  0
 14 13  1  6
 14 15  1  0
 15  7  1  0
 16 17  2  0
 16 14  1  0
 18 16  1  0
 19 18  1  0
 19 20  1  1
 20 21  1  0
 21 29  1  0
 21 22  2  0
 22 23  1  0
 24 23  1  0
 24 25  2  0
 26 25  1  0
 27 26  2  0
 28 29  2  0
 28 27  1  0
 29 24  1  0
 30 19  1  0
 31 30  2  0
 32 30  1  0
M  END
$$$$
