IQW.pdb
     RDKit          3D

 32 33  0  0  1  0  0  0  0  0999 V2000
   27.6061  -19.3973  -18.5936 C   0  0  0  0  0  0  0  0  0  0  0  0
   28.4726  -18.6829  -17.6050 C   0  0  0  0  0  0  0  0  0  0  0  0
   27.6104  -18.2911  -16.4147 C   0  0  2  0  0  0  0  0  0  0  0  0
   28.0683  -16.9900  -15.8083 C   0  0  0  0  0  0  0  0  0  0  0  0
   27.7877  -19.3773  -15.3681 C   0  0  2  0  0  0  0  0  0  0  0  0
   27.4894  -20.6853  -15.9193 N   0  0  0  0  0  0  0  0  0  0  0  0
   26.8408  -19.1162  -14.2595 C   0  0  0  0  0  0  0  0  0  0  0  0
   26.7363  -17.9748  -13.7174 O   0  0  0  0  0  0  0  0  0  0  0  0
   21.8724  -22.4065  -13.5899 N   0  0  0  0  0  0  0  0  0  0  0  0
   21.6385  -21.4960  -12.5164 C   0  0  0  0  0  0  0  0  0  0  0  0
   20.6326  -21.6090  -11.7895 O   0  0  0  0  0  0  0  0  0  0  0  0
   22.6032  -20.4157  -12.2768 C   0  0  0  0  0  0  0  0  0  0  0  0
   23.7573  -20.3984  -13.2127 C   0  0  0  0  0  0  0  0  0  0  0  0
   25.0544  -19.8941  -12.6949 C   0  0  2  0  0  0  0  0  0  0  0  0
   26.0275  -20.1631  -13.7870 N   0  0  0  0  0  0  0  0  0  0  0  0
   25.5831  -20.5358  -11.4939 C   0  0  0  0  0  0  0  0  0  0  0  0
   26.1076  -21.6753  -11.5838 O   0  0  0  0  0  0  0  0  0  0  0  0
   25.5505  -19.9594  -10.2169 N   0  0  0  0  0  0  0  0  0  0  0  0
   25.9405  -20.7429   -9.0310 C   0  0  1  0  0  0  0  0  0  0  0  0
   26.9587  -19.8921   -8.3336 C   0  0  0  0  0  0  0  0  0  0  0  0
   27.4179  -20.3366   -7.0229 C   0  0  0  0  0  0  0  0  0  0  0  0
   27.0837  -21.5664   -6.4368 C   0  0  0  0  0  0  0  0  0  0  0  0
   27.6546  -21.6008   -5.2386 N   0  0  0  0  0  0  0  0  0  0  0  0
   28.3353  -20.4625   -5.0267 C   0  0  0  0  0  0  0  0  0  0  0  0
   29.0989  -20.0233   -3.9663 C   0  0  0  0  0  0  0  0  0  0  0  0
   29.7274  -18.7924   -3.9996 C   0  0  0  0  0  0  0  0  0  0  0  0
   29.5953  -17.9924   -5.0955 C   0  0  0  0  0  0  0  0  0  0  0  0
   28.8483  -18.3978   -6.1563 C   0  0  0  0  0  0  0  0  0  0  0  0
   28.2069  -19.6385   -6.1373 C   0  0  0  0  0  0  0  0  0  0  0  0
   24.7300  -21.0023   -8.2507 C   0  0  0  0  0  0  0  0  0  0  0  0
   23.6900  -20.2901   -8.2878 O   0  0  0  0  0  0  0  0  0  0  0  0
   24.6789  -22.0933   -7.4002 O   0  0  0  0  0  0  0  0  0  0  0  0
  2  1  1  0
  3  4  1  1
  3  5  1  0
  3  2  1  0
  5  6  1  6
  7  5  1  0
  7  8  2  0
 10  9  1  0
 10 12  1  0
 11 10  2  0
 12 13  1  0
 14 13  1  6
 14 15  1  0
 15  7  1  0
 16 17  2  0
 16 14  1  0
 18 16  1  0
 19 18  1  0
 19 20  1  1
 20 21  1  0
 21 29  1  0
 21 22  2  0
 22 23  1  0
 24 23  1  0
 24 25  2  0
 26 25  1  0
 27 26  2  0
 28 29  2  0
 28 27  1  0
 29 24  1  0
 30 19  1  0
 31 30  2  0
 32 30  1  0
M  END
$$$$
