IQW.pdb
     RDKit          3D

 32 33  0  0  1  0  0  0  0  0999 V2000
   28.9219  -16.0812  -16.6509 C   0  0  0  0  0  0  0  0  0  0  0  0
   28.2013  -17.3675  -16.9049 C   0  0  0  0  0  0  0  0  0  0  0  0
   27.5007  -17.7804  -15.6195 C   0  0  2  0  0  0  0  0  0  0  0  0
   28.4886  -18.0234  -14.5081 C   0  0  0  0  0  0  0  0  0  0  0  0
   26.7950  -19.0942  -15.9070 C   0  0  2  0  0  0  0  0  0  0  0  0
   25.8438  -18.9479  -16.9920 N   0  0  0  0  0  0  0  0  0  0  0  0
   26.0512  -19.5000  -14.6921 C   0  0  0  0  0  0  0  0  0  0  0  0
   25.0844  -18.8189  -14.2351 O   0  0  0  0  0  0  0  0  0  0  0  0
   24.0246  -24.8475  -13.9378 N   0  0  0  0  0  0  0  0  0  0  0  0
   23.4516  -23.6892  -14.5427 C   0  0  0  0  0  0  0  0  0  0  0  0
   22.5070  -23.7897  -15.3494 O   0  0  0  0  0  0  0  0  0  0  0  0
   23.9924  -22.3675  -14.2025 C   0  0  0  0  0  0  0  0  0  0  0  0
   25.0473  -22.3818  -13.1560 C   0  0  0  0  0  0  0  0  0  0  0  0
   25.6773  -21.0858  -12.7975 C   0  0  2  0  0  0  0  0  0  0  0  0
   26.4233  -20.6780  -14.0178 N   0  0  0  0  0  0  0  0  0  0  0  0
   26.6418  -21.0987  -11.7006 C   0  0  0  0  0  0  0  0  0  0  0  0
   27.7454  -21.6813  -11.8568 O   0  0  0  0  0  0  0  0  0  0  0  0
   26.4234  -20.4921  -10.4562 N   0  0  0  0  0  0  0  0  0  0  0  0
   26.5665  -21.2660   -9.2100 C   0  0  1  0  0  0  0  0  0  0  0  0
   27.9040  -20.8633   -8.6661 C   0  0  0  0  0  0  0  0  0  0  0  0
   27.9194  -19.8940   -7.5768 C   0  0  0  0  0  0  0  0  0  0  0  0
   27.2758  -18.6481   -7.6101 C   0  0  0  0  0  0  0  0  0  0  0  0
   27.5408  -18.0361   -6.4620 N   0  0  0  0  0  0  0  0  0  0  0  0
   28.3168  -18.8211   -5.6970 C   0  0  0  0  0  0  0  0  0  0  0  0
   28.8430  -18.6552   -4.4336 C   0  0  0  0  0  0  0  0  0  0  0  0
   29.6114  -19.6417   -3.8441 C   0  0  0  0  0  0  0  0  0  0  0  0
   29.8584  -20.8018   -4.5161 C   0  0  0  0  0  0  0  0  0  0  0  0
   29.3538  -20.9944   -5.7635 C   0  0  0  0  0  0  0  0  0  0  0  0
   28.5761  -20.0067   -6.3725 C   0  0  0  0  0  0  0  0  0  0  0  0
   25.4344  -20.9312   -8.3453 C   0  0  0  0  0  0  0  0  0  0  0  0
   24.4935  -20.1563   -8.6683 O   0  0  0  0  0  0  0  0  0  0  0  0
   25.3499  -21.4799   -7.0772 O   0  0  0  0  0  0  0  0  0  0  0  0
  2  1  1  0
  3  4  1  1
  3  5  1  0
  3  2  1  0
  5  6  1  6
  7  5  1  0
  7  8  2  0
 10  9  1  0
 10 12  1  0
 11 10  2  0
 12 13  1  0
 14 13  1  6
 14 15  1  0
 15  7  1  0
 16 17  2  0
 16 14  1  0
 18 16  1  0
 19 18  1  0
 19 20  1  1
 20 21  1  0
 21 29  1  0
 21 22  2  0
 22 23  1  0
 24 23  1  0
 24 25  2  0
 26 25  1  0
 27 26  2  0
 28 29  2  0
 28 27  1  0
 29 24  1  0
 30 19  1  0
 31 30  2  0
 32 30  1  0
M  END
$$$$
