ENC.pdb
     RDKit          3D

 24 23  0  0  1  0  0  0  0  0999 V2000
   12.9225  -11.9093  -11.3744 N   0  0  0  0  0  0  0  0  0  0  0  0
   14.2932  -11.5842  -11.1489 C   0  0  1  0  0  0  0  0  0  0  0  0
   15.1406  -12.1085  -12.2811 C   0  0  0  0  0  0  0  0  0  0  0  0
   15.2159  -13.5981  -12.2396 C   0  0  0  0  0  0  0  0  0  0  0  0
   16.0655  -14.1670  -13.2918 C   0  0  0  0  0  0  0  0  0  0  0  0
   17.2359  -13.8166  -13.5700 O   0  0  0  0  0  0  0  0  0  0  0  0
   14.4255  -10.1001  -11.0504 C   0  0  0  0  0  0  0  0  0  0  0  0
   13.5978   -9.3929  -11.6430 O   0  0  0  0  0  0  0  0  0  0  0  0
   15.5125  -15.1993  -14.0554 O   0  0  0  0  0  0  0  0  0  0  0  0
   15.8134   -5.2190   -9.5933 N   0  0  0  0  0  0  0  0  0  0  0  0
   16.1448   -6.1915   -8.6291 C   0  0  0  0  0  0  0  0  0  0  0  0
   16.4853   -5.7609   -7.4828 O   0  0  0  0  0  0  0  0  0  0  0  0
   16.1368   -7.6429   -8.8124 C   0  0  0  0  0  0  0  0  0  0  0  0
   15.6360   -8.0843  -10.1542 C   0  0  2  0  0  0  0  0  0  0  0  0
   15.4966   -9.5149  -10.2803 N   0  0  0  0  0  0  0  0  0  0  0  0
   16.5773   -7.6069  -11.2235 C   0  0  0  0  0  0  0  0  0  0  0  0
   17.7933   -7.9352  -11.2216 O   0  0  0  0  0  0  0  0  0  0  0  0
   16.1487   -6.7652  -12.2866 N   0  0  0  0  0  0  0  0  0  0  0  0
   17.0514   -6.3626  -13.3330 C   0  0  1  0  0  0  0  0  0  0  0  0
   16.6045   -6.8620  -14.6922 C   0  0  0  0  0  0  0  0  0  0  0  0
   16.2317   -8.6346  -14.6421 S   0  0  0  0  0  0  0  0  0  0  0  0
   17.2355   -4.8943  -13.3557 C   0  0  0  0  0  0  0  0  0  0  0  0
   18.2021   -4.3661  -14.1933 O   0  0  0  0  0  0  0  0  0  0  0  0
   16.5220   -4.1622  -12.6253 O   0  0  0  0  0  0  0  0  0  0  0  0
  2  1  1  6
  3  4  1  0
  3  2  1  0
  5  9  1  0
  5  4  1  0
  6  5  2  0
  7  8  2  0
  7  2  1  0
 11 10  1  0
 11 13  1  0
 12 11  2  0
 14 13  1  1
 14 15  1  0
 15  7  1  0
 16 14  1  0
 17 16  2  0
 18 16  1  0
 19 18  1  0
 20 21  1  0
 19 20  1  6
 22 19  1  0
 22 23  1  0
 24 22  2  0
M  END
$$$$
