ENC.pdb
     RDKit          3D

 24 23  0  0  1  0  0  0  0  0999 V2000
   23.3582  -11.1666  -16.8482 N   0  0  0  0  0  0  0  0  0  0  0  0
   22.8633  -10.4661  -17.9884 C   0  0  1  0  0  0  0  0  0  0  0  0
   22.3744  -11.4472  -19.0243 C   0  0  0  0  0  0  0  0  0  0  0  0
   23.4792  -12.3498  -19.4610 C   0  0  0  0  0  0  0  0  0  0  0  0
   23.0757  -13.3010  -20.5027 C   0  0  0  0  0  0  0  0  0  0  0  0
   21.9157  -13.4665  -20.9465 O   0  0  0  0  0  0  0  0  0  0  0  0
   21.7472   -9.5728  -17.5568 C   0  0  0  0  0  0  0  0  0  0  0  0
   21.2120   -8.8447  -18.4051 O   0  0  0  0  0  0  0  0  0  0  0  0
   24.0856  -14.0976  -21.0504 O   0  0  0  0  0  0  0  0  0  0  0  0
   18.1989  -10.5994  -16.6325 N   0  0  0  0  0  0  0  0  0  0  0  0
   18.3820  -10.2871  -15.2708 C   0  0  0  0  0  0  0  0  0  0  0  0
   17.6312  -10.8935  -14.4438 O   0  0  0  0  0  0  0  0  0  0  0  0
   19.3459   -9.3384  -14.7133 C   0  0  0  0  0  0  0  0  0  0  0  0
   20.2406   -8.7073  -15.7367 C   0  0  2  0  0  0  0  0  0  0  0  0
   21.3112   -9.5665  -16.1810 N   0  0  0  0  0  0  0  0  0  0  0  0
   20.8465   -7.4547  -15.1698 C   0  0  0  0  0  0  0  0  0  0  0  0
   21.7649   -7.5013  -14.3091 O   0  0  0  0  0  0  0  0  0  0  0  0
   20.4186   -6.1595  -15.5719 N   0  0  0  0  0  0  0  0  0  0  0  0
   21.0118   -4.9701  -15.0192 C   0  0  1  0  0  0  0  0  0  0  0  0
   22.3962   -4.7126  -15.5796 C   0  0  0  0  0  0  0  0  0  0  0  0
   23.0893   -3.1753  -14.9163 S   0  0  0  0  0  0  0  0  0  0  0  0
   20.1443   -3.7879  -15.2189 C   0  0  0  0  0  0  0  0  0  0  0  0
   20.1772   -2.7809  -14.2704 O   0  0  0  0  0  0  0  0  0  0  0  0
   19.4032   -3.7186  -16.2312 O   0  0  0  0  0  0  0  0  0  0  0  0
  2  1  1  1
  3  4  1  0
  3  2  1  0
  5  9  1  0
  5  4  1  0
  6  5  2  0
  7  8  2  0
  7  2  1  0
 11 10  1  0
 11 13  1  0
 12 11  2  0
 14 13  1  1
 14 15  1  0
 15  7  1  0
 16 14  1  0
 17 16  2  0
 18 16  1  0
 19 18  1  0
 20 21  1  0
 19 20  1  6
 22 19  1  0
 22 23  1  0
 24 22  2  0
M  END
$$$$
