ENC.pdb
     RDKit          3D

 24 23  0  0  1  0  0  0  0  0999 V2000
   17.2621  -12.5741  -16.8139 N   0  0  0  0  0  0  0  0  0  0  0  0
   16.2107  -11.8046  -16.2328 C   0  0  1  0  0  0  0  0  0  0  0  0
   15.5192  -12.6050  -15.1577 C   0  0  0  0  0  0  0  0  0  0  0  0
   14.7641  -13.7467  -15.7514 C   0  0  0  0  0  0  0  0  0  0  0  0
   14.1215  -14.6033  -14.7484 C   0  0  0  0  0  0  0  0  0  0  0  0
   14.2214  -14.4915  -13.5043 O   0  0  0  0  0  0  0  0  0  0  0  0
   16.7917  -10.5569  -15.6535 C   0  0  0  0  0  0  0  0  0  0  0  0
   18.0012  -10.5389  -15.3834 O   0  0  0  0  0  0  0  0  0  0  0  0
   13.3216  -15.6434  -15.2310 O   0  0  0  0  0  0  0  0  0  0  0  0
   18.3220   -7.3705  -16.8740 N   0  0  0  0  0  0  0  0  0  0  0  0
   17.1513   -6.6468  -16.5727 C   0  0  0  0  0  0  0  0  0  0  0  0
   16.9186   -5.6214  -17.2866 O   0  0  0  0  0  0  0  0  0  0  0  0
   16.1785   -6.9546  -15.5243 C   0  0  0  0  0  0  0  0  0  0  0  0
   16.4694   -8.2205  -14.7765 C   0  0  2  0  0  0  0  0  0  0  0  0
   15.9539   -9.4055  -15.4181 N   0  0  0  0  0  0  0  0  0  0  0  0
   15.8782   -8.1364  -13.3978 C   0  0  0  0  0  0  0  0  0  0  0  0
   14.6358   -8.2230  -13.2102 O   0  0  0  0  0  0  0  0  0  0  0  0
   16.6839   -7.9559  -12.2400 N   0  0  0  0  0  0  0  0  0  0  0  0
   16.1043   -7.9204  -10.9229 C   0  0  1  0  0  0  0  0  0  0  0  0
   16.9608   -8.6470   -9.9055 C   0  0  0  0  0  0  0  0  0  0  0  0
   17.1465  -10.3955  -10.3436 S   0  0  0  0  0  0  0  0  0  0  0  0
   15.8428   -6.5320  -10.4823 C   0  0  0  0  0  0  0  0  0  0  0  0
   16.3026   -5.4939  -11.2732 O   0  0  0  0  0  0  0  0  0  0  0  0
   15.2169   -6.3215   -9.4133 O   0  0  0  0  0  0  0  0  0  0  0  0
  2  1  1  1
  3  4  1  0
  3  2  1  0
  5  9  1  0
  5  4  1  0
  6  5  2  0
  7  8  2  0
  7  2  1  0
 11 10  1  0
 11 13  1  0
 12 11  2  0
 14 13  1  6
 14 15  1  0
 15  7  1  0
 16 14  1  0
 17 16  2  0
 18 16  1  0
 19 18  1  0
 20 21  1  0
 19 20  1  1
 22 19  1  0
 22 23  1  0
 24 22  2  0
M  END
$$$$
