ENC.pdb
     RDKit          3D

 24 23  0  0  1  0  0  0  0  0999 V2000
   15.8215  -10.3668   -9.9653 N   0  0  0  0  0  0  0  0  0  0  0  0
   15.2843   -9.7810  -11.1501 C   0  0  1  0  0  0  0  0  0  0  0  0
   13.7826   -9.6888  -11.0446 C   0  0  0  0  0  0  0  0  0  0  0  0
   13.2911  -10.4194   -9.8401 C   0  0  0  0  0  0  0  0  0  0  0  0
   11.8362  -10.3424   -9.6666 C   0  0  0  0  0  0  0  0  0  0  0  0
   11.0006  -11.2067  -10.0199 O   0  0  0  0  0  0  0  0  0  0  0  0
   15.8736   -8.4199  -11.3233 C   0  0  0  0  0  0  0  0  0  0  0  0
   15.5373   -7.7524  -12.3120 O   0  0  0  0  0  0  0  0  0  0  0  0
   11.3381   -9.1923   -9.0471 O   0  0  0  0  0  0  0  0  0  0  0  0
   14.9319   -5.1330   -9.9440 N   0  0  0  0  0  0  0  0  0  0  0  0
   16.0378   -5.0929   -9.0719 C   0  0  0  0  0  0  0  0  0  0  0  0
   15.8986   -4.4080   -8.0104 O   0  0  0  0  0  0  0  0  0  0  0  0
   17.3268   -5.7578   -9.2632 C   0  0  0  0  0  0  0  0  0  0  0  0
   17.4012   -6.5963  -10.5031 C   0  0  2  0  0  0  0  0  0  0  0  0
   16.8121   -7.9051  -10.3552 N   0  0  0  0  0  0  0  0  0  0  0  0
   18.8380   -6.7695  -10.9066 C   0  0  0  0  0  0  0  0  0  0  0  0
   19.5551   -7.6767  -10.4074 O   0  0  0  0  0  0  0  0  0  0  0  0
   19.4603   -5.9248  -11.8666 N   0  0  0  0  0  0  0  0  0  0  0  0
   20.7363   -6.2592  -12.4426 C   0  0  1  0  0  0  0  0  0  0  0  0
   20.7377   -7.6459  -13.0540 C   0  0  0  0  0  0  0  0  0  0  0  0
   22.3381   -8.0163  -13.8190 S   0  0  0  0  0  0  0  0  0  0  0  0
   21.1616   -5.2528  -13.4408 C   0  0  0  0  0  0  0  0  0  0  0  0
   22.5077   -4.9454  -13.5316 O   0  0  0  0  0  0  0  0  0  0  0  0
   20.3065   -4.7022  -14.1786 O   0  0  0  0  0  0  0  0  0  0  0  0
  2  1  1  1
  3  4  1  0
  3  2  1  0
  5  9  1  0
  5  4  1  0
  6  5  2  0
  7  8  2  0
  7  2  1  0
 11 10  1  0
 11 13  1  0
 12 11  2  0
 14 13  1  1
 14 15  1  0
 15  7  1  0
 16 14  1  0
 17 16  2  0
 18 16  1  0
 19 18  1  0
 20 21  1  0
 19 20  1  6
 22 19  1  0
 22 23  1  0
 24 22  2  0
M  END
$$$$
