ENC.pdb
     RDKit          3D

 24 23  0  0  1  0  0  0  0  0999 V2000
   24.3753  -15.7659  -16.2748 N   0  0  0  0  0  0  0  0  0  0  0  0
   24.3666  -14.6487  -17.1621 C   0  0  1  0  0  0  0  0  0  0  0  0
   23.2064  -14.7596  -18.1195 C   0  0  0  0  0  0  0  0  0  0  0  0
   23.3292  -15.9866  -18.9594 C   0  0  0  0  0  0  0  0  0  0  0  0
   24.5172  -15.9854  -19.8205 C   0  0  0  0  0  0  0  0  0  0  0  0
   25.3894  -15.0877  -19.8793 O   0  0  0  0  0  0  0  0  0  0  0  0
   24.2528  -13.3962  -16.3570 C   0  0  0  0  0  0  0  0  0  0  0  0
   23.5346  -13.4069  -15.3468 O   0  0  0  0  0  0  0  0  0  0  0  0
   24.6891  -17.0944  -20.6542 O   0  0  0  0  0  0  0  0  0  0  0  0
   27.1787  -12.3292  -14.5717 N   0  0  0  0  0  0  0  0  0  0  0  0
   27.3055  -11.0476  -15.1431 C   0  0  0  0  0  0  0  0  0  0  0  0
   28.4295  -10.4717  -15.0009 O   0  0  0  0  0  0  0  0  0  0  0  0
   26.2777  -10.3138  -15.8816 C   0  0  0  0  0  0  0  0  0  0  0  0
   24.9548  -11.0154  -15.9435 C   0  0  2  0  0  0  0  0  0  0  0  0
   24.9671  -12.2074  -16.7564 N   0  0  0  0  0  0  0  0  0  0  0  0
   23.9158  -10.0804  -16.4945 C   0  0  0  0  0  0  0  0  0  0  0  0
   23.8583   -9.8145  -17.7243 O   0  0  0  0  0  0  0  0  0  0  0  0
   22.9492   -9.4505  -15.6630 N   0  0  0  0  0  0  0  0  0  0  0  0
   21.9430   -8.5799  -16.2122 C   0  0  1  0  0  0  0  0  0  0  0  0
   20.6527   -8.6315  -15.4189 C   0  0  0  0  0  0  0  0  0  0  0  0
   19.4718   -7.3951  -16.0192 S   0  0  0  0  0  0  0  0  0  0  0  0
   22.4301   -7.1865  -16.3182 C   0  0  0  0  0  0  0  0  0  0  0  0
   22.1459   -6.4770  -17.4717 O   0  0  0  0  0  0  0  0  0  0  0  0
   23.0840   -6.6779  -15.3735 O   0  0  0  0  0  0  0  0  0  0  0  0
  2  1  1  1
  3  4  1  0
  3  2  1  0
  5  9  1  0
  5  4  1  0
  6  5  2  0
  7  8  2  0
  7  2  1  0
 11 10  1  0
 11 13  1  0
 12 11  2  0
 14 13  1  6
 14 15  1  0
 15  7  1  0
 16 14  1  0
 17 16  2  0
 18 16  1  0
 19 18  1  0
 20 21  1  0
 19 20  1  1
 22 19  1  0
 22 23  1  0
 24 22  2  0
M  END
$$$$
