ENC.pdb
     RDKit          3D

 24 23  0  0  1  0  0  0  0  0999 V2000
   21.3056  -13.6170  -16.6719 N   0  0  0  0  0  0  0  0  0  0  0  0
   21.2575  -12.3732  -17.3690 C   0  0  1  0  0  0  0  0  0  0  0  0
   19.8322  -12.0412  -17.7338 C   0  0  0  0  0  0  0  0  0  0  0  0
   18.9049  -12.3961  -16.6201 C   0  0  0  0  0  0  0  0  0  0  0  0
   18.0004  -11.3032  -16.2459 C   0  0  0  0  0  0  0  0  0  0  0  0
   17.9761  -10.7047  -15.1453 O   0  0  0  0  0  0  0  0  0  0  0  0
   21.8267  -11.3077  -16.4911 C   0  0  0  0  0  0  0  0  0  0  0  0
   21.3799  -11.1891  -15.3411 O   0  0  0  0  0  0  0  0  0  0  0  0
   17.0781  -10.8927  -17.2131 O   0  0  0  0  0  0  0  0  0  0  0  0
   27.2920  -10.3221  -15.9846 N   0  0  0  0  0  0  0  0  0  0  0  0
   25.8857  -10.3072  -15.9002 C   0  0  0  0  0  0  0  0  0  0  0  0
   25.3444  -11.2740  -15.2778 O   0  0  0  0  0  0  0  0  0  0  0  0
   24.9871   -9.2945  -16.4546 C   0  0  0  0  0  0  0  0  0  0  0  0
   23.5438   -9.5079  -16.1116 C   0  0  2  0  0  0  0  0  0  0  0  0
   22.8721  -10.4423  -16.9821 N   0  0  0  0  0  0  0  0  0  0  0  0
   22.8135   -8.1965  -16.1751 C   0  0  0  0  0  0  0  0  0  0  0  0
   22.5072   -7.6686  -17.2769 O   0  0  0  0  0  0  0  0  0  0  0  0
   22.4319   -7.4867  -15.0034 N   0  0  0  0  0  0  0  0  0  0  0  0
   21.7230   -6.2365  -15.0831 C   0  0  1  0  0  0  0  0  0  0  0  0
   20.3227   -6.3401  -14.5129 C   0  0  0  0  0  0  0  0  0  0  0  0
   19.5117   -4.7198  -14.4851 S   0  0  0  0  0  0  0  0  0  0  0  0
   22.4719   -5.1448  -14.4217 C   0  0  0  0  0  0  0  0  0  0  0  0
   22.4574   -3.8904  -15.0054 O   0  0  0  0  0  0  0  0  0  0  0  0
   23.0992   -5.3713  -13.3569 O   0  0  0  0  0  0  0  0  0  0  0  0
  2  1  1  1
  3  4  1  0
  3  2  1  0
  5  9  1  0
  5  4  1  0
  6  5  2  0
  7  8  2  0
  7  2  1  0
 11 10  1  0
 11 13  1  0
 12 11  2  0
 14 13  1  6
 14 15  1  0
 15  7  1  0
 16 14  1  0
 17 16  2  0
 18 16  1  0
 19 18  1  0
 20 21  1  0
 19 20  1  1
 22 19  1  0
 22 23  1  0
 24 22  2  0
M  END
$$$$
