ENC.pdb
     RDKit          3D

 24 23  0  0  1  0  0  0  0  0999 V2000
   13.0893   -8.7893   -9.2120 N   0  0  0  0  0  0  0  0  0  0  0  0
   14.5109   -8.8448   -9.3191 C   0  0  1  0  0  0  0  0  0  0  0  0
   14.9114   -9.8860  -10.3341 C   0  0  0  0  0  0  0  0  0  0  0  0
   14.5886  -11.2567   -9.8412 C   0  0  0  0  0  0  0  0  0  0  0  0
   15.0088  -12.3196  -10.7613 C   0  0  0  0  0  0  0  0  0  0  0  0
   16.1853  -12.6965  -10.9709 O   0  0  0  0  0  0  0  0  0  0  0  0
   15.0146   -7.5012   -9.7325 C   0  0  0  0  0  0  0  0  0  0  0  0
   14.3248   -6.8255  -10.5096 O   0  0  0  0  0  0  0  0  0  0  0  0
   13.9963  -12.9723  -11.4706 O   0  0  0  0  0  0  0  0  0  0  0  0
   18.1588   -2.5266   -8.3465 N   0  0  0  0  0  0  0  0  0  0  0  0
   17.3795   -3.4091   -9.1206 C   0  0  0  0  0  0  0  0  0  0  0  0
   17.1804   -3.0772  -10.3312 O   0  0  0  0  0  0  0  0  0  0  0  0
   16.7778   -4.6655   -8.6740 C   0  0  0  0  0  0  0  0  0  0  0  0
   16.8341   -5.7634   -9.6927 C   0  0  2  0  0  0  0  0  0  0  0  0
   16.2769   -7.0121   -9.2321 N   0  0  0  0  0  0  0  0  0  0  0  0
   18.2621   -6.0042  -10.0930 C   0  0  0  0  0  0  0  0  0  0  0  0
   19.1341   -6.3349   -9.2464 O   0  0  0  0  0  0  0  0  0  0  0  0
   18.7019   -5.8725  -11.4389 N   0  0  0  0  0  0  0  0  0  0  0  0
   20.0465   -6.2129  -11.8237 C   0  0  1  0  0  0  0  0  0  0  0  0
   20.1195   -7.5712  -12.4921 C   0  0  0  0  0  0  0  0  0  0  0  0
   21.8031   -7.9246  -13.0617 S   0  0  0  0  0  0  0  0  0  0  0  0
   20.6412   -5.1747  -12.6947 C   0  0  0  0  0  0  0  0  0  0  0  0
   22.0138   -5.0016  -12.6679 O   0  0  0  0  0  0  0  0  0  0  0  0
   19.9013   -4.4777  -13.4332 O   0  0  0  0  0  0  0  0  0  0  0  0
  2  1  1  6
  3  4  1  0
  3  2  1  0
  5  9  1  0
  5  4  1  0
  6  5  2  0
  7  8  2  0
  7  2  1  0
 11 10  1  0
 11 13  1  0
 12 11  2  0
 14 13  1  1
 14 15  1  0
 15  7  1  0
 16 14  1  0
 17 16  2  0
 18 16  1  0
 19 18  1  0
 20 21  1  0
 19 20  1  6
 22 19  1  0
 22 23  1  0
 24 22  2  0
M  END
$$$$
