ENC.pdb
     RDKit          3D

 24 23  0  0  1  0  0  0  0  0999 V2000
   21.1387  -15.4565  -16.4184 N   0  0  0  0  0  0  0  0  0  0  0  0
   22.4863  -15.9246  -16.4019 C   0  0  1  0  0  0  0  0  0  0  0  0
   22.5084  -17.4327  -16.3953 C   0  0  0  0  0  0  0  0  0  0  0  0
   21.5768  -17.9707  -15.3615 C   0  0  0  0  0  0  0  0  0  0  0  0
   21.4338  -19.4301  -15.4106 C   0  0  0  0  0  0  0  0  0  0  0  0
   22.2943  -20.2716  -15.0620 O   0  0  0  0  0  0  0  0  0  0  0  0
   23.1909  -15.4039  -17.6112 C   0  0  0  0  0  0  0  0  0  0  0  0
   22.6586  -15.5634  -18.7191 O   0  0  0  0  0  0  0  0  0  0  0  0
   20.2191  -19.9259  -15.8935 O   0  0  0  0  0  0  0  0  0  0  0  0
   23.3017  -15.0408  -20.7259 N   0  0  0  0  0  0  0  0  0  0  0  0
   23.4076  -13.6848  -20.3579 C   0  0  0  0  0  0  0  0  0  0  0  0
   22.6575  -12.8682  -20.9790 O   0  0  0  0  0  0  0  0  0  0  0  0
   24.2908  -13.1224  -19.3362 C   0  0  0  0  0  0  0  0  0  0  0  0
   25.1213  -14.1440  -18.6201 C   0  0  2  0  0  0  0  0  0  0  0  0
   24.4618  -14.7328  -17.4798 N   0  0  0  0  0  0  0  0  0  0  0  0
   26.4001  -13.5111  -18.1495 C   0  0  0  0  0  0  0  0  0  0  0  0
   26.3985  -12.5830  -17.2980 O   0  0  0  0  0  0  0  0  0  0  0  0
   27.6710  -13.9232  -18.6368 N   0  0  0  0  0  0  0  0  0  0  0  0
   28.8912  -13.3937  -18.0865 C   0  0  1  0  0  0  0  0  0  0  0  0
   30.0821  -14.2815  -18.3871 C   0  0  0  0  0  0  0  0  0  0  0  0
   29.7177  -16.0121  -17.9925 S   0  0  0  0  0  0  0  0  0  0  0  0
   29.1435  -12.0128  -18.5551 C   0  0  0  0  0  0  0  0  0  0  0  0
   30.2097  -11.3187  -18.0109 O   0  0  0  0  0  0  0  0  0  0  0  0
   28.3968  -11.5007  -19.4262 O   0  0  0  0  0  0  0  0  0  0  0  0
  2  1  1  6
  3  4  1  0
  3  2  1  0
  5  9  1  0
  5  4  1  0
  6  5  2  0
  7  8  2  0
  7  2  1  0
 11 10  1  0
 11 13  1  0
 12 11  2  0
 14 13  1  1
 14 15  1  0
 15  7  1  0
 16 14  1  0
 17 16  2  0
 18 16  1  0
 19 18  1  0
 20 21  1  0
 19 20  1  6
 22 19  1  0
 22 23  1  0
 24 22  2  0
M  END
$$$$
