ENC.pdb
     RDKit          3D

 24 23  0  0  1  0  0  0  0  0999 V2000
   26.8850  -22.3274  -15.6790 N   0  0  0  0  0  0  0  0  0  0  0  0
   26.1902  -21.1460  -15.2827 C   0  0  1  0  0  0  0  0  0  0  0  0
   25.7061  -20.3993  -16.5005 C   0  0  0  0  0  0  0  0  0  0  0  0
   26.8542  -19.9906  -17.3613 C   0  0  0  0  0  0  0  0  0  0  0  0
   27.3566  -18.6454  -17.0604 C   0  0  0  0  0  0  0  0  0  0  0  0
   26.8973  -17.8573  -16.2013 O   0  0  0  0  0  0  0  0  0  0  0  0
   25.0332  -21.5346  -14.4223 C   0  0  0  0  0  0  0  0  0  0  0  0
   24.2943  -22.4528  -14.8060 O   0  0  0  0  0  0  0  0  0  0  0  0
   28.4537  -18.2038  -17.8061 O   0  0  0  0  0  0  0  0  0  0  0  0
   25.8963  -21.9932  -10.7798 N   0  0  0  0  0  0  0  0  0  0  0  0
   24.9186  -21.1141  -10.2734 C   0  0  0  0  0  0  0  0  0  0  0  0
   25.1008  -20.6826   -9.0920 O   0  0  0  0  0  0  0  0  0  0  0  0
   23.7178  -20.6484  -10.9674 C   0  0  0  0  0  0  0  0  0  0  0  0
   23.6138  -21.1188  -12.3866 C   0  0  2  0  0  0  0  0  0  0  0  0
   24.7913  -20.8490  -13.1755 N   0  0  0  0  0  0  0  0  0  0  0  0
   22.4402  -20.4561  -13.0505 C   0  0  0  0  0  0  0  0  0  0  0  0
   22.5974  -19.6239  -13.9828 O   0  0  0  0  0  0  0  0  0  0  0  0
   21.0994  -20.7311  -12.6645 N   0  0  0  0  0  0  0  0  0  0  0  0
   19.9979  -20.4847  -13.5577 C   0  0  1  0  0  0  0  0  0  0  0  0
   20.1331  -21.2587  -14.8536 C   0  0  0  0  0  0  0  0  0  0  0  0
   18.7070  -20.9703  -15.9338 S   0  0  0  0  0  0  0  0  0  0  0  0
   18.6992  -20.7792  -12.9119 C   0  0  0  0  0  0  0  0  0  0  0  0
   17.6836  -19.8460  -13.0228 O   0  0  0  0  0  0  0  0  0  0  0  0
   18.5422  -21.8556  -12.2830 O   0  0  0  0  0  0  0  0  0  0  0  0
  2  1  1  6
  3  4  1  0
  3  2  1  0
  5  9  1  0
  5  4  1  0
  6  5  2  0
  7  8  2  0
  7  2  1  0
 11 10  1  0
 11 13  1  0
 12 11  2  0
 14 13  1  1
 14 15  1  0
 15  7  1  0
 16 14  1  0
 17 16  2  0
 18 16  1  0
 19 18  1  0
 20 21  1  0
 19 20  1  6
 22 19  1  0
 22 23  1  0
 24 22  2  0
M  END
$$$$
