ENC.pdb
     RDKit          3D

 24 23  0  0  1  0  0  0  0  0999 V2000
   17.2959  -21.9720  -14.2625 N   0  0  0  0  0  0  0  0  0  0  0  0
   18.0628  -22.7611  -13.3543 C   0  0  1  0  0  0  0  0  0  0  0  0
   19.4191  -22.1353  -13.1456 C   0  0  0  0  0  0  0  0  0  0  0  0
   20.2798  -22.3244  -14.3496 C   0  0  0  0  0  0  0  0  0  0  0  0
   20.8318  -23.6791  -14.4628 C   0  0  0  0  0  0  0  0  0  0  0  0
   20.6370  -24.6280  -13.6679 O   0  0  0  0  0  0  0  0  0  0  0  0
   17.3300  -22.8486  -12.0562 C   0  0  0  0  0  0  0  0  0  0  0  0
   16.7716  -21.8300  -11.6237 O   0  0  0  0  0  0  0  0  0  0  0  0
   21.6539  -23.9318  -15.5650 O   0  0  0  0  0  0  0  0  0  0  0  0
   13.8240  -24.8253  -12.3965 N   0  0  0  0  0  0  0  0  0  0  0  0
   14.3071  -24.2903  -11.1859 C   0  0  0  0  0  0  0  0  0  0  0  0
   13.8963  -23.1284  -10.8752 O   0  0  0  0  0  0  0  0  0  0  0  0
   15.2310  -24.9343  -10.2522 C   0  0  0  0  0  0  0  0  0  0  0  0
   16.5393  -24.2193  -10.0997 C   0  0  2  0  0  0  0  0  0  0  0  0
   17.2806  -24.0956  -11.3314 N   0  0  0  0  0  0  0  0  0  0  0  0
   17.3972  -24.9486   -9.1051 C   0  0  0  0  0  0  0  0  0  0  0  0
   18.2365  -25.8132   -9.4717 O   0  0  0  0  0  0  0  0  0  0  0  0
   17.3079  -24.7034   -7.7071 N   0  0  0  0  0  0  0  0  0  0  0  0
   17.9306  -25.5818   -6.7518 C   0  0  1  0  0  0  0  0  0  0  0  0
   17.9738  -24.9735   -5.3645 C   0  0  0  0  0  0  0  0  0  0  0  0
   18.7135  -26.1227   -4.1745 S   0  0  0  0  0  0  0  0  0  0  0  0
   17.2666  -26.9040   -6.7170 C   0  0  0  0  0  0  0  0  0  0  0  0
   18.0532  -28.0302   -6.5506 O   0  0  0  0  0  0  0  0  0  0  0  0
   16.0183  -26.9813   -6.8372 O   0  0  0  0  0  0  0  0  0  0  0  0
  2  1  1  6
  3  4  1  0
  3  2  1  0
  5  9  1  0
  5  4  1  0
  6  5  2  0
  7  8  2  0
  7  2  1  0
 11 10  1  0
 11 13  1  0
 12 11  2  0
 14 13  1  6
 14 15  1  0
 15  7  1  0
 16 14  1  0
 17 16  2  0
 18 16  1  0
 19 18  1  0
 20 21  1  0
 19 20  1  1
 22 19  1  0
 22 23  1  0
 24 22  2  0
M  END
$$$$
