ENC.pdb
     RDKit          3D

 24 23  0  0  1  0  0  0  0  0999 V2000
   18.5041  -12.1818  -14.8120 N   0  0  0  0  0  0  0  0  0  0  0  0
   18.1655  -11.2259  -15.8154 C   0  0  1  0  0  0  0  0  0  0  0  0
   16.7890  -11.5153  -16.3600 C   0  0  0  0  0  0  0  0  0  0  0  0
   16.6972  -12.9236  -16.8441 C   0  0  0  0  0  0  0  0  0  0  0  0
   15.3568  -13.2906  -17.3145 C   0  0  0  0  0  0  0  0  0  0  0  0
   14.3151  -13.3405  -16.6199 O   0  0  0  0  0  0  0  0  0  0  0  0
   18.2045   -9.8607  -15.2116 C   0  0  0  0  0  0  0  0  0  0  0  0
   17.9632   -8.8864  -15.9387 O   0  0  0  0  0  0  0  0  0  0  0  0
   15.2339  -13.6152  -18.6688 O   0  0  0  0  0  0  0  0  0  0  0  0
   16.3838   -9.7957  -10.5824 N   0  0  0  0  0  0  0  0  0  0  0  0
   16.8155   -8.7790  -11.4570 C   0  0  0  0  0  0  0  0  0  0  0  0
   15.9073   -8.1261  -12.0604 O   0  0  0  0  0  0  0  0  0  0  0  0
   18.1995   -8.3990  -11.7407 C   0  0  0  0  0  0  0  0  0  0  0  0
   18.5405   -8.3867  -13.2000 C   0  0  2  0  0  0  0  0  0  0  0  0
   18.5176   -9.6928  -13.8127 N   0  0  0  0  0  0  0  0  0  0  0  0
   19.9110   -7.8012  -13.3905 C   0  0  0  0  0  0  0  0  0  0  0  0
   20.9414   -8.3937  -12.9739 O   0  0  0  0  0  0  0  0  0  0  0  0
   20.1162   -6.5562  -14.0464 N   0  0  0  0  0  0  0  0  0  0  0  0
   21.4365   -6.0091  -14.2176 C   0  0  1  0  0  0  0  0  0  0  0  0
   21.7798   -5.7999  -15.6788 C   0  0  0  0  0  0  0  0  0  0  0  0
   23.3694   -4.9481  -15.8566 S   0  0  0  0  0  0  0  0  0  0  0  0
   21.6038   -4.7483  -13.4608 C   0  0  0  0  0  0  0  0  0  0  0  0
   22.7722   -4.5627  -12.7430 O   0  0  0  0  0  0  0  0  0  0  0  0
   20.6960   -3.8799  -13.4821 O   0  0  0  0  0  0  0  0  0  0  0  0
  2  1  1  1
  3  4  1  0
  3  2  1  0
  5  9  1  0
  5  4  1  0
  6  5  2  0
  7  8  2  0
  7  2  1  0
 11 10  1  0
 11 13  1  0
 12 11  2  0
 14 13  1  1
 14 15  1  0
 15  7  1  0
 16 14  1  0
 17 16  2  0
 18 16  1  0
 19 18  1  0
 20 21  1  0
 19 20  1  6
 22 19  1  0
 22 23  1  0
 24 22  2  0
M  END
$$$$
