ENC.pdb
     RDKit          3D

 24 23  0  0  1  0  0  0  0  0999 V2000
   19.1306  -25.7342  -15.0289 N   0  0  0  0  0  0  0  0  0  0  0  0
   19.5340  -25.1524  -13.7902 C   0  0  1  0  0  0  0  0  0  0  0  0
   19.0014  -23.7453  -13.6837 C   0  0  0  0  0  0  0  0  0  0  0  0
   19.7300  -22.8323  -14.6119 C   0  0  0  0  0  0  0  0  0  0  0  0
   19.2332  -21.4522  -14.5792 C   0  0  0  0  0  0  0  0  0  0  0  0
   18.0885  -21.0681  -14.9143 O   0  0  0  0  0  0  0  0  0  0  0  0
   19.0066  -25.9894  -12.6716 C   0  0  0  0  0  0  0  0  0  0  0  0
   17.8092  -26.3093  -12.6873 O   0  0  0  0  0  0  0  0  0  0  0  0
   20.1258  -20.4743  -14.1303 O   0  0  0  0  0  0  0  0  0  0  0  0
   21.9712  -29.7331  -10.8379 N   0  0  0  0  0  0  0  0  0  0  0  0
   20.6902  -29.2138  -10.5653 C   0  0  0  0  0  0  0  0  0  0  0  0
   19.7034  -29.8612  -11.0368 O   0  0  0  0  0  0  0  0  0  0  0  0
   20.3808  -28.0081   -9.7965 C   0  0  0  0  0  0  0  0  0  0  0  0
   19.3726  -27.1118  -10.4494 C   0  0  2  0  0  0  0  0  0  0  0  0
   19.8808  -26.4093  -11.6027 N   0  0  0  0  0  0  0  0  0  0  0  0
   18.8862  -26.0954   -9.4556 C   0  0  0  0  0  0  0  0  0  0  0  0
   19.6803  -25.2971   -8.8913 O   0  0  0  0  0  0  0  0  0  0  0  0
   17.5135  -25.9815   -9.1018 N   0  0  0  0  0  0  0  0  0  0  0  0
   17.0702  -25.0258   -8.1210 C   0  0  1  0  0  0  0  0  0  0  0  0
   16.0236  -24.0826   -8.6793 C   0  0  0  0  0  0  0  0  0  0  0  0
   16.7055  -23.0804  -10.0263 S   0  0  0  0  0  0  0  0  0  0  0  0
   16.5663  -25.6944   -6.9007 C   0  0  0  0  0  0  0  0  0  0  0  0
   16.7689  -25.0745   -5.6803 O   0  0  0  0  0  0  0  0  0  0  0  0
   15.9716  -26.7976   -6.9911 O   0  0  0  0  0  0  0  0  0  0  0  0
  2  1  1  6
  3  4  1  0
  3  2  1  0
  5  9  1  0
  5  4  1  0
  6  5  2  0
  7  8  2  0
  7  2  1  0
 11 10  1  0
 11 13  1  0
 12 11  2  0
 14 13  1  1
 14 15  1  0
 15  7  1  0
 16 14  1  0
 17 16  2  0
 18 16  1  0
 19 18  1  0
 20 21  1  0
 19 20  1  6
 22 19  1  0
 22 23  1  0
 24 22  2  0
M  END
$$$$
