ENC.pdb
     RDKit          3D

 24 23  0  0  1  0  0  0  0  0999 V2000
   20.8242  -12.2769  -18.5524 N   0  0  0  0  0  0  0  0  0  0  0  0
   21.1344  -10.9257  -18.8892 C   0  0  1  0  0  0  0  0  0  0  0  0
   20.1816  -10.4258  -19.9462 C   0  0  0  0  0  0  0  0  0  0  0  0
   20.1604  -11.3488  -21.1182 C   0  0  0  0  0  0  0  0  0  0  0  0
   19.2609  -10.9072  -22.1899 C   0  0  0  0  0  0  0  0  0  0  0  0
   19.5038  -10.9315  -23.4190 O   0  0  0  0  0  0  0  0  0  0  0  0
   21.0260  -10.0865  -17.6588 C   0  0  0  0  0  0  0  0  0  0  0  0
   19.9297  -10.0197  -17.0844 O   0  0  0  0  0  0  0  0  0  0  0  0
   18.0134  -10.4124  -21.7982 O   0  0  0  0  0  0  0  0  0  0  0  0
   22.2860  -11.0561  -14.5029 N   0  0  0  0  0  0  0  0  0  0  0  0
   23.2319  -10.0237  -14.3463 C   0  0  0  0  0  0  0  0  0  0  0  0
   24.1775  -10.2402  -13.5252 O   0  0  0  0  0  0  0  0  0  0  0  0
   23.2366   -8.7308  -15.0310 C   0  0  0  0  0  0  0  0  0  0  0  0
   22.0955   -8.5426  -15.9842 C   0  0  2  0  0  0  0  0  0  0  0  0
   22.1780   -9.3743  -17.1603 N   0  0  0  0  0  0  0  0  0  0  0  0
   22.0412   -7.1074  -16.4252 C   0  0  0  0  0  0  0  0  0  0  0  0
   23.0063   -6.5698  -17.0302 O   0  0  0  0  0  0  0  0  0  0  0  0
   20.9058   -6.2856  -16.1849 N   0  0  0  0  0  0  0  0  0  0  0  0
   20.8769   -4.9082  -16.6021 C   0  0  1  0  0  0  0  0  0  0  0  0
   20.4475   -4.7614  -18.0480 C   0  0  0  0  0  0  0  0  0  0  0  0
   19.0995   -5.9058  -18.4442 S   0  0  0  0  0  0  0  0  0  0  0  0
   20.0132   -4.0920  -15.7201 C   0  0  0  0  0  0  0  0  0  0  0  0
   20.0433   -2.7158  -15.8614 O   0  0  0  0  0  0  0  0  0  0  0  0
   19.2776   -4.6533  -14.8700 O   0  0  0  0  0  0  0  0  0  0  0  0
  2  1  1  1
  3  4  1  0
  3  2  1  0
  5  9  1  0
  5  4  1  0
  6  5  2  0
  7  8  2  0
  7  2  1  0
 11 10  1  0
 11 13  1  0
 12 11  2  0
 14 13  1  1
 14 15  1  0
 15  7  1  0
 16 14  1  0
 17 16  2  0
 18 16  1  0
 19 18  1  0
 20 21  1  0
 19 20  1  6
 22 19  1  0
 22 23  1  0
 24 22  2  0
M  END
$$$$
