ENC.pdb
     RDKit          3D

 24 23  0  0  1  0  0  0  0  0999 V2000
   17.0622  -10.4516  -18.0151 N   0  0  0  0  0  0  0  0  0  0  0  0
   16.5982   -9.8531  -16.8060 C   0  0  1  0  0  0  0  0  0  0  0  0
   16.9398  -10.7340  -15.6303 C   0  0  0  0  0  0  0  0  0  0  0  0
   17.4349  -12.0636  -16.0919 C   0  0  0  0  0  0  0  0  0  0  0  0
   17.8004  -12.9622  -14.9912 C   0  0  0  0  0  0  0  0  0  0  0  0
   18.9615  -13.3059  -14.6690 O   0  0  0  0  0  0  0  0  0  0  0  0
   17.2441   -8.5155  -16.6529 C   0  0  0  0  0  0  0  0  0  0  0  0
   18.2680   -8.2758  -17.3089 O   0  0  0  0  0  0  0  0  0  0  0  0
   16.7492  -13.4832  -14.2309 O   0  0  0  0  0  0  0  0  0  0  0  0
   17.5693   -3.2655  -16.1398 N   0  0  0  0  0  0  0  0  0  0  0  0
   16.5766   -3.7951  -15.2917 C   0  0  0  0  0  0  0  0  0  0  0  0
   15.9985   -2.9737  -14.5129 O   0  0  0  0  0  0  0  0  0  0  0  0
   16.1444   -5.1907  -15.2163 C   0  0  0  0  0  0  0  0  0  0  0  0
   17.1465   -6.1681  -15.7518 C   0  0  2  0  0  0  0  0  0  0  0  0
   16.6797   -7.5334  -15.7585 N   0  0  0  0  0  0  0  0  0  0  0  0
   18.4010   -6.1034  -14.9275 C   0  0  0  0  0  0  0  0  0  0  0  0
   18.5093   -6.7402  -13.8463 O   0  0  0  0  0  0  0  0  0  0  0  0
   19.5244   -5.3256  -15.3214 N   0  0  0  0  0  0  0  0  0  0  0  0
   20.7193   -5.2772  -14.5202 C   0  0  1  0  0  0  0  0  0  0  0  0
   21.8254   -6.1377  -15.0971 C   0  0  0  0  0  0  0  0  0  0  0  0
   23.3859   -5.8648  -14.2173 S   0  0  0  0  0  0  0  0  0  0  0  0
   21.1901   -3.8870  -14.3312 C   0  0  0  0  0  0  0  0  0  0  0  0
   21.9220   -3.5897  -13.1951 O   0  0  0  0  0  0  0  0  0  0  0  0
   20.9216   -3.0123  -15.1923 O   0  0  0  0  0  0  0  0  0  0  0  0
  2  1  1  6
  3  4  1  0
  3  2  1  0
  5  9  1  0
  5  4  1  0
  6  5  2  0
  7  8  2  0
  7  2  1  0
 11 10  1  0
 11 13  1  0
 12 11  2  0
 14 13  1  1
 14 15  1  0
 15  7  1  0
 16 14  1  0
 17 16  2  0
 18 16  1  0
 19 18  1  0
 20 21  1  0
 19 20  1  6
 22 19  1  0
 22 23  1  0
 24 22  2  0
M  END
$$$$
