AYN.pdb
     RDKit          3D

 26 26  0  0  1  0  0  0  0  0999 V2000
   17.9341  -10.9262  -13.7389 C   0  0  0  0  0  0  0  0  0  0  0  0
   16.7366  -10.7861  -12.7880 C   0  0  2  0  0  0  0  0  0  0  0  0
   15.5722  -11.1555  -13.5104 N   0  0  0  0  0  0  0  0  0  0  0  0
   16.6658   -9.3163  -12.4825 C   0  0  0  0  0  0  0  0  0  0  0  0
   16.1868   -8.5584  -13.3663 O   0  0  0  0  0  0  0  0  0  0  0  0
   11.4541   -8.4840   -8.6953 O   0  0  0  0  0  0  0  0  0  0  0  0
   12.7927   -8.1578   -8.8765 C   0  0  0  0  0  0  0  0  0  0  0  0
   13.7394   -9.1351   -8.7352 C   0  0  0  0  0  0  0  0  0  0  0  0
   15.0718   -8.8226   -8.9122 C   0  0  0  0  0  0  0  0  0  0  0  0
   15.4013   -7.5282   -9.2264 C   0  0  0  0  0  0  0  0  0  0  0  0
   16.8660   -7.2577   -9.4162 C   0  0  0  0  0  0  0  0  0  0  0  0
   17.1980   -7.4975  -10.8638 C   0  0  2  0  0  0  0  0  0  0  0  0
   17.1325   -8.8603  -11.2424 N   0  0  0  0  0  0  0  0  0  0  0  0
   18.5179   -6.8382  -11.1888 C   0  0  0  0  0  0  0  0  0  0  0  0
   19.5982   -7.1984  -10.6739 O   0  0  0  0  0  0  0  0  0  0  0  0
   14.4757   -6.5399   -9.3710 C   0  0  0  0  0  0  0  0  0  0  0  0
   13.1355   -6.8840   -9.1873 C   0  0  0  0  0  0  0  0  0  0  0  0
   22.6021   -5.1239  -13.1857 N   0  0  0  0  0  0  0  0  0  0  0  0
   21.7035   -5.9016  -13.9453 C   0  0  0  0  0  0  0  0  0  0  0  0
   21.9315   -6.1567  -15.1854 O   0  0  0  0  0  0  0  0  0  0  0  0
   20.4761   -6.4385  -13.3091 C   0  0  0  0  0  0  0  0  0  0  0  0
   19.7107   -5.2791  -12.6793 C   0  0  2  0  0  0  0  0  0  0  0  0
   18.4669   -5.7766  -12.1235 N   0  0  0  0  0  0  0  0  0  0  0  0
   19.4000   -4.2258  -13.6545 C   0  0  0  0  0  0  0  0  0  0  0  0
   20.3079   -3.5147  -14.1342 O   0  0  0  0  0  0  0  0  0  0  0  0
   18.0858   -3.9637  -14.0953 O   0  0  0  0  0  0  0  0  0  0  0  0
  2  1  1  6
  3  2  1  0
  4  2  1  0
  4  5  2  0
  6  7  1  0
  7 17  2  0
  8  7  1  0
  8  9  2  0
  9 10  1  0
 10 16  2  0
 10 11  1  0
 12 11  1  1
 12 13  1  0
 13  4  1  0
 14 12  1  0
 15 14  2  0
 17 16  1  0
 19 18  1  0
 19 21  1  0
 20 19  2  0
 22 21  1  6
 22 24  1  0
 22 23  1  0
 23 14  1  0
 24 26  1  0
 25 24  2  0
M  END
$$$$
