AYN.pdb
     RDKit          3D

 26 26  0  0  1  0  0  0  0  0999 V2000
   28.7333  -25.9378  -18.1527 C   0  0  0  0  0  0  0  0  0  0  0  0
   27.3076  -26.2030  -17.6478 C   0  0  2  0  0  0  0  0  0  0  0  0
   27.3285  -26.0939  -16.2329 N   0  0  0  0  0  0  0  0  0  0  0  0
   27.0363  -27.6349  -18.0148 C   0  0  0  0  0  0  0  0  0  0  0  0
   26.9092  -27.9108  -19.2365 O   0  0  0  0  0  0  0  0  0  0  0  0
   32.4148  -30.9162  -19.4250 O   0  0  0  0  0  0  0  0  0  0  0  0
   31.2241  -30.9232  -18.7086 C   0  0  0  0  0  0  0  0  0  0  0  0
   31.0696  -30.0477  -17.6689 C   0  0  0  0  0  0  0  0  0  0  0  0
   29.8917  -30.0461  -16.9500 C   0  0  0  0  0  0  0  0  0  0  0  0
   28.9081  -30.9331  -17.3086 C   0  0  0  0  0  0  0  0  0  0  0  0
   27.6486  -30.8720  -16.4937 C   0  0  0  0  0  0  0  0  0  0  0  0
   26.6809  -29.9643  -17.2030 C   0  0  2  0  0  0  0  0  0  0  0  0
   26.9362  -28.5876  -16.9921 N   0  0  0  0  0  0  0  0  0  0  0  0
   25.2682  -30.3801  -16.8660 C   0  0  0  0  0  0  0  0  0  0  0  0
   24.8127  -31.5110  -17.1407 O   0  0  0  0  0  0  0  0  0  0  0  0
   29.0410  -31.8133  -18.3391 C   0  0  0  0  0  0  0  0  0  0  0  0
   30.2423  -31.7928  -19.0497 C   0  0  0  0  0  0  0  0  0  0  0  0
   21.3430  -28.2739  -18.9523 N   0  0  0  0  0  0  0  0  0  0  0  0
   21.9408  -28.4611  -17.6886 C   0  0  0  0  0  0  0  0  0  0  0  0
   22.1567  -27.4656  -16.9030 O   0  0  0  0  0  0  0  0  0  0  0  0
   22.3262  -29.8251  -17.2523 C   0  0  0  0  0  0  0  0  0  0  0  0
   23.0855  -29.7151  -15.9339 C   0  0  2  0  0  0  0  0  0  0  0  0
   24.4758  -29.4079  -16.2101 N   0  0  0  0  0  0  0  0  0  0  0  0
   23.0261  -30.9588  -15.1551 C   0  0  0  0  0  0  0  0  0  0  0  0
   21.9335  -31.3966  -14.7372 O   0  0  0  0  0  0  0  0  0  0  0  0
   24.1761  -31.7135  -14.8419 O   0  0  0  0  0  0  0  0  0  0  0  0
  2  1  1  6
  3  2  1  0
  4  2  1  0
  4  5  2  0
  6  7  1  0
  7 17  2  0
  8  7  1  0
  8  9  2  0
  9 10  1  0
 10 16  2  0
 10 11  1  0
 12 11  1  1
 12 13  1  0
 13  4  1  0
 14 12  1  0
 15 14  2  0
 17 16  1  0
 19 18  1  0
 19 21  1  0
 20 19  2  0
 22 21  1  6
 22 24  1  0
 22 23  1  0
 23 14  1  0
 24 26  1  0
 25 24  2  0
M  END
$$$$
