AYN.pdb
     RDKit          3D

 26 26  0  0  1  0  0  0  0  0999 V2000
   25.4517  -18.0496  -19.0111 C   0  0  0  0  0  0  0  0  0  0  0  0
   26.9291  -18.0971  -18.5952 C   0  0  2  0  0  0  0  0  0  0  0  0
   27.6534  -18.6941  -19.6597 N   0  0  0  0  0  0  0  0  0  0  0  0
   26.9600  -19.0254  -17.4137 C   0  0  0  0  0  0  0  0  0  0  0  0
   27.0521  -20.2598  -17.6428 O   0  0  0  0  0  0  0  0  0  0  0  0
   25.9644  -21.6899   -9.2934 O   0  0  0  0  0  0  0  0  0  0  0  0
   26.2566  -20.8780  -10.3828 C   0  0  0  0  0  0  0  0  0  0  0  0
   27.3678  -21.1484  -11.1333 C   0  0  0  0  0  0  0  0  0  0  0  0
   27.6682  -20.3487  -12.2171 C   0  0  0  0  0  0  0  0  0  0  0  0
   26.8317  -19.2996  -12.5045 C   0  0  0  0  0  0  0  0  0  0  0  0
   27.2090  -18.4762  -13.7020 C   0  0  0  0  0  0  0  0  0  0  0  0
   26.8237  -19.2472  -14.9350 C   0  0  2  0  0  0  0  0  0  0  0  0
   26.8839  -18.4814  -16.1245 N   0  0  0  0  0  0  0  0  0  0  0  0
   25.4880  -19.9157  -14.7083 C   0  0  0  0  0  0  0  0  0  0  0  0
   25.2996  -20.7611  -13.8073 O   0  0  0  0  0  0  0  0  0  0  0  0
   25.7212  -19.0121  -11.7707 C   0  0  0  0  0  0  0  0  0  0  0  0
   25.4408  -19.8377  -10.6807 C   0  0  0  0  0  0  0  0  0  0  0  0
   21.0018  -21.5196  -13.5481 N   0  0  0  0  0  0  0  0  0  0  0  0
   21.2481  -20.1523  -13.7916 C   0  0  0  0  0  0  0  0  0  0  0  0
   20.2812  -19.3069  -13.8638 O   0  0  0  0  0  0  0  0  0  0  0  0
   22.6417  -19.6758  -13.9656 C   0  0  0  0  0  0  0  0  0  0  0  0
   23.1162  -20.0669  -15.3616 C   0  0  2  0  0  0  0  0  0  0  0  0
   24.4441  -19.5266  -15.5812 N   0  0  0  0  0  0  0  0  0  0  0  0
   22.2241  -19.5596  -16.4121 C   0  0  0  0  0  0  0  0  0  0  0  0
   22.4092  -18.4309  -16.9140 O   0  0  0  0  0  0  0  0  0  0  0  0
   21.1308  -20.3034  -16.9036 O   0  0  0  0  0  0  0  0  0  0  0  0
  2  1  1  6
  3  2  1  0
  4  2  1  0
  4  5  2  0
  6  7  1  0
  7 17  2  0
  8  7  1  0
  8  9  2  0
  9 10  1  0
 10 16  2  0
 10 11  1  0
 12 11  1  1
 12 13  1  0
 13  4  1  0
 14 12  1  0
 15 14  2  0
 17 16  1  0
 19 18  1  0
 19 21  1  0
 20 19  2  0
 22 21  1  1
 22 24  1  0
 22 23  1  0
 23 14  1  0
 24 26  1  0
 25 24  2  0
M  END
$$$$
