AYN.pdb
     RDKit          3D

 26 26  0  0  1  0  0  0  0  0999 V2000
   21.2732  -17.6808  -15.0706 C   0  0  0  0  0  0  0  0  0  0  0  0
   22.0892  -16.5567  -15.7251 C   0  0  2  0  0  0  0  0  0  0  0  0
   21.6369  -16.4244  -17.0637 N   0  0  0  0  0  0  0  0  0  0  0  0
   23.4998  -17.0747  -15.7441 C   0  0  0  0  0  0  0  0  0  0  0  0
   23.7431  -18.0809  -16.4605 O   0  0  0  0  0  0  0  0  0  0  0  0
   26.4795  -13.1775  -19.9745 O   0  0  0  0  0  0  0  0  0  0  0  0
   26.5685  -13.7912  -18.7309 C   0  0  0  0  0  0  0  0  0  0  0  0
   25.7981  -13.3223  -17.7023 C   0  0  0  0  0  0  0  0  0  0  0  0
   25.8786  -13.9235  -16.4628 C   0  0  0  0  0  0  0  0  0  0  0  0
   26.7385  -14.9812  -16.3062 C   0  0  0  0  0  0  0  0  0  0  0  0
   26.7700  -15.5967  -14.9371 C   0  0  0  0  0  0  0  0  0  0  0  0
   25.8399  -16.7792  -14.9388 C   0  0  2  0  0  0  0  0  0  0  0  0
   24.4699  -16.4229  -14.9708 N   0  0  0  0  0  0  0  0  0  0  0  0
   26.2027  -17.7009  -13.7982 C   0  0  0  0  0  0  0  0  0  0  0  0
   26.1432  -17.3498  -12.6002 O   0  0  0  0  0  0  0  0  0  0  0  0
   27.5148  -15.4636  -17.3158 C   0  0  0  0  0  0  0  0  0  0  0  0
   27.4127  -14.8373  -18.5591 C   0  0  0  0  0  0  0  0  0  0  0  0
   27.1024  -21.7273  -11.1039 N   0  0  0  0  0  0  0  0  0  0  0  0
   25.8102  -21.1845  -11.2619 C   0  0  0  0  0  0  0  0  0  0  0  0
   24.8432  -21.5388  -10.4911 O   0  0  0  0  0  0  0  0  0  0  0  0
   25.5571  -20.1873  -12.3301 C   0  0  0  0  0  0  0  0  0  0  0  0
   26.8491  -19.9788  -13.1136 C   0  0  2  0  0  0  0  0  0  0  0  0
   26.6172  -19.0043  -14.1624 N   0  0  0  0  0  0  0  0  0  0  0  0
   27.3311  -21.2227  -13.7279 C   0  0  0  0  0  0  0  0  0  0  0  0
   27.0279  -21.5104  -14.9049 O   0  0  0  0  0  0  0  0  0  0  0  0
   28.1472  -22.1433  -13.0374 O   0  0  0  0  0  0  0  0  0  0  0  0
  2  1  1  1
  3  2  1  0
  4  2  1  0
  4  5  2  0
  6  7  1  0
  7 17  2  0
  8  7  1  0
  8  9  2  0
  9 10  1  0
 10 16  2  0
 10 11  1  0
 12 11  1  1
 12 13  1  0
 13  4  1  0
 14 12  1  0
 15 14  2  0
 17 16  1  0
 19 18  1  0
 19 21  1  0
 20 19  2  0
 22 21  1  6
 22 24  1  0
 22 23  1  0
 23 14  1  0
 24 26  1  0
 25 24  2  0
M  END
$$$$
