AYN.pdb
     RDKit          3D

 26 26  0  0  1  0  0  0  0  0999 V2000
   27.3029  -21.1969  -18.6514 C   0  0  0  0  0  0  0  0  0  0  0  0
   28.1269  -22.0511  -17.6771 C   0  0  2  0  0  0  0  0  0  0  0  0
   28.1595  -23.3736  -18.1912 N   0  0  0  0  0  0  0  0  0  0  0  0
   27.3280  -22.0505  -16.4043 C   0  0  0  0  0  0  0  0  0  0  0  0
   26.4541  -22.9456  -16.2626 O   0  0  0  0  0  0  0  0  0  0  0  0
   24.6665  -20.3890   -8.4435 O   0  0  0  0  0  0  0  0  0  0  0  0
   25.3901  -20.2996   -9.6265 C   0  0  0  0  0  0  0  0  0  0  0  0
   26.2625  -21.3028   -9.9487 C   0  0  0  0  0  0  0  0  0  0  0  0
   26.9870  -21.2245  -11.1206 C   0  0  0  0  0  0  0  0  0  0  0  0
   26.8034  -20.1304  -11.9282 C   0  0  0  0  0  0  0  0  0  0  0  0
   27.6132  -20.1122  -13.1924 C   0  0  0  0  0  0  0  0  0  0  0  0
   26.8837  -20.9313  -14.2221 C   0  0  2  0  0  0  0  0  0  0  0  0
   27.5874  -21.0637  -15.4437 N   0  0  0  0  0  0  0  0  0  0  0  0
   25.4803  -20.3956  -14.3830 C   0  0  0  0  0  0  0  0  0  0  0  0
   25.2033  -19.4435  -15.1438 O   0  0  0  0  0  0  0  0  0  0  0  0
   25.9412  -19.1204  -11.6267 C   0  0  0  0  0  0  0  0  0  0  0  0
   25.2208  -19.2258  -10.4357 C   0  0  0  0  0  0  0  0  0  0  0  0
   20.5776  -20.3887  -16.0213 N   0  0  0  0  0  0  0  0  0  0  0  0
   21.0442  -21.2585  -15.0138 C   0  0  0  0  0  0  0  0  0  0  0  0
   20.2309  -21.8038  -14.1795 O   0  0  0  0  0  0  0  0  0  0  0  0
   22.4938  -21.5547  -14.9114 C   0  0  0  0  0  0  0  0  0  0  0  0
   23.0941  -20.6651  -13.8274 C   0  0  2  0  0  0  0  0  0  0  0  0
   24.4793  -21.0402  -13.6177 N   0  0  0  0  0  0  0  0  0  0  0  0
   22.3774  -20.7866  -12.5514 C   0  0  0  0  0  0  0  0  0  0  0  0
   22.6818  -21.6796  -11.7329 O   0  0  0  0  0  0  0  0  0  0  0  0
   21.3266  -19.9192  -12.1858 O   0  0  0  0  0  0  0  0  0  0  0  0
  2  1  1  6
  3  2  1  0
  4  2  1  0
  4  5  2  0
  6  7  1  0
  7 17  2  0
  8  7  1  0
  8  9  2  0
  9 10  1  0
 10 16  2  0
 10 11  1  0
 12 11  1  1
 12 13  1  0
 13  4  1  0
 14 12  1  0
 15 14  2  0
 17 16  1  0
 19 18  1  0
 19 21  1  0
 20 19  2  0
 22 21  1  6
 22 24  1  0
 22 23  1  0
 23 14  1  0
 24 26  1  0
 25 24  2  0
M  END
$$$$
