AYN.pdb
     RDKit          3D

 26 26  0  0  1  0  0  0  0  0999 V2000
   27.5693  -24.5925  -16.8148 C   0  0  0  0  0  0  0  0  0  0  0  0
   26.6771  -23.3808  -17.1209 C   0  0  2  0  0  0  0  0  0  0  0  0
   27.5257  -22.2535  -17.2738 N   0  0  0  0  0  0  0  0  0  0  0  0
   25.8517  -23.1952  -15.8788 C   0  0  0  0  0  0  0  0  0  0  0  0
   25.0272  -24.0999  -15.5846 O   0  0  0  0  0  0  0  0  0  0  0  0
   22.8374  -20.5264   -8.3721 O   0  0  0  0  0  0  0  0  0  0  0  0
   23.6358  -20.6209   -9.5055 C   0  0  0  0  0  0  0  0  0  0  0  0
   23.2512  -19.9689  -10.6449 C   0  0  0  0  0  0  0  0  0  0  0  0
   24.0359  -20.0561  -11.7767 C   0  0  0  0  0  0  0  0  0  0  0  0
   25.1858  -20.8024  -11.7164 C   0  0  0  0  0  0  0  0  0  0  0  0
   25.9990  -20.8470  -12.9778 C   0  0  0  0  0  0  0  0  0  0  0  0
   25.2617  -21.6988  -13.9749 C   0  0  2  0  0  0  0  0  0  0  0  0
   26.0333  -22.0354  -15.1135 N   0  0  0  0  0  0  0  0  0  0  0  0
   23.9395  -21.0476  -14.3064 C   0  0  0  0  0  0  0  0  0  0  0  0
   23.8563  -19.9258  -14.8512 O   0  0  0  0  0  0  0  0  0  0  0  0
   25.5871  -21.4599  -10.5934 C   0  0  0  0  0  0  0  0  0  0  0  0
   24.7749  -21.3539   -9.4631 C   0  0  0  0  0  0  0  0  0  0  0  0
   19.5489  -20.6088  -17.3567 N   0  0  0  0  0  0  0  0  0  0  0  0
   19.7893  -21.1481  -16.0758 C   0  0  0  0  0  0  0  0  0  0  0  0
   18.8584  -21.1916  -15.1891 O   0  0  0  0  0  0  0  0  0  0  0  0
   21.1339  -21.6770  -15.7411 C   0  0  0  0  0  0  0  0  0  0  0  0
   21.4828  -21.2474  -14.3196 C   0  0  2  0  0  0  0  0  0  0  0  0
   22.7817  -21.7868  -13.9653 N   0  0  0  0  0  0  0  0  0  0  0  0
   20.4960  -21.7204  -13.3402 C   0  0  0  0  0  0  0  0  0  0  0  0
   20.5534  -22.8840  -12.8898 O   0  0  0  0  0  0  0  0  0  0  0  0
   19.4496  -20.9037  -12.8625 O   0  0  0  0  0  0  0  0  0  0  0  0
  2  1  1  1
  3  2  1  0
  4  2  1  0
  4  5  2  0
  6  7  1  0
  7 17  2  0
  8  7  1  0
  8  9  2  0
  9 10  1  0
 10 16  2  0
 10 11  1  0
 12 11  1  1
 12 13  1  0
 13  4  1  0
 14 12  1  0
 15 14  2  0
 17 16  1  0
 19 18  1  0
 19 21  1  0
 20 19  2  0
 22 21  1  6
 22 24  1  0
 22 23  1  0
 23 14  1  0
 24 26  1  0
 25 24  2  0
M  END
$$$$
