AYN.pdb
     RDKit          3D

 26 26  0  0  1  0  0  0  0  0999 V2000
   28.6887  -21.3044  -18.4894 C   0  0  0  0  0  0  0  0  0  0  0  0
   29.2913  -22.0051  -17.2631 C   0  0  2  0  0  0  0  0  0  0  0  0
   29.6162  -23.3324  -17.6465 N   0  0  0  0  0  0  0  0  0  0  0  0
   28.1682  -22.0549  -16.2657 C   0  0  0  0  0  0  0  0  0  0  0  0
   27.3584  -23.0155  -16.3452 O   0  0  0  0  0  0  0  0  0  0  0  0
   23.4985  -20.7490   -9.2138 O   0  0  0  0  0  0  0  0  0  0  0  0
   24.4578  -20.5667  -10.2025 C   0  0  0  0  0  0  0  0  0  0  0  0
   25.6495  -21.2308  -10.1018 C   0  0  0  0  0  0  0  0  0  0  0  0
   26.6100  -21.0571  -11.0774 C   0  0  0  0  0  0  0  0  0  0  0  0
   26.3308  -20.2146  -12.1239 C   0  0  0  0  0  0  0  0  0  0  0  0
   27.4129  -20.0786  -13.1558 C   0  0  0  0  0  0  0  0  0  0  0  0
   27.0578  -20.9635  -14.3195 C   0  0  2  0  0  0  0  0  0  0  0  0
   28.0728  -21.0403  -15.3039 N   0  0  0  0  0  0  0  0  0  0  0  0
   25.7102  -20.5532  -14.8653 C   0  0  0  0  0  0  0  0  0  0  0  0
   25.5644  -19.5980  -15.6580 O   0  0  0  0  0  0  0  0  0  0  0  0
   25.1520  -19.5434  -12.2435 C   0  0  0  0  0  0  0  0  0  0  0  0
   24.1983  -19.7382  -11.2430 C   0  0  0  0  0  0  0  0  0  0  0  0
   21.5199  -21.1933  -17.9069 N   0  0  0  0  0  0  0  0  0  0  0  0
   21.7166  -21.8880  -16.6953 C   0  0  0  0  0  0  0  0  0  0  0  0
   20.7213  -22.3701  -16.0381 O   0  0  0  0  0  0  0  0  0  0  0  0
   23.0903  -22.0707  -16.1671 C   0  0  0  0  0  0  0  0  0  0  0  0
   23.3075  -21.0778  -15.0297 C   0  0  2  0  0  0  0  0  0  0  0  0
   24.6045  -21.3207  -14.4277 N   0  0  0  0  0  0  0  0  0  0  0  0
   22.2784  -21.1946  -13.9885 C   0  0  0  0  0  0  0  0  0  0  0  0
   21.3916  -20.3231  -13.8695 O   0  0  0  0  0  0  0  0  0  0  0  0
   22.2343  -22.2756  -13.0831 O   0  0  0  0  0  0  0  0  0  0  0  0
  2  1  1  6
  3  2  1  0
  4  2  1  0
  4  5  2  0
  6  7  1  0
  7 17  2  0
  8  7  1  0
  8  9  2  0
  9 10  1  0
 10 16  2  0
 10 11  1  0
 12 11  1  1
 12 13  1  0
 13  4  1  0
 14 12  1  0
 15 14  2  0
 17 16  1  0
 19 18  1  0
 19 21  1  0
 20 19  2  0
 22 21  1  6
 22 24  1  0
 22 23  1  0
 23 14  1  0
 24 26  1  0
 25 24  2  0
M  END
$$$$
