AYN.pdb
     RDKit          3D

 26 26  0  0  1  0  0  0  0  0999 V2000
   25.1361  -15.1848  -18.3899 C   0  0  0  0  0  0  0  0  0  0  0  0
   23.7235  -15.7537  -18.1929 C   0  0  2  0  0  0  0  0  0  0  0  0
   23.1240  -15.0456  -17.1189 N   0  0  0  0  0  0  0  0  0  0  0  0
   23.9449  -17.1772  -17.7651 C   0  0  0  0  0  0  0  0  0  0  0  0
   24.3151  -18.0001  -18.6430 O   0  0  0  0  0  0  0  0  0  0  0  0
   29.6573  -20.5937  -17.3285 O   0  0  0  0  0  0  0  0  0  0  0  0
   28.4879  -20.1650  -16.7122 C   0  0  0  0  0  0  0  0  0  0  0  0
   27.5052  -21.0782  -16.4445 C   0  0  0  0  0  0  0  0  0  0  0  0
   26.3394  -20.6640  -15.8333 C   0  0  0  0  0  0  0  0  0  0  0  0
   26.2075  -19.3361  -15.5136 C   0  0  0  0  0  0  0  0  0  0  0  0
   24.9207  -18.9538  -14.8412 C   0  0  0  0  0  0  0  0  0  0  0  0
   23.8615  -18.8312  -15.9026 C   0  0  2  0  0  0  0  0  0  0  0  0
   23.7300  -17.5212  -16.4238 N   0  0  0  0  0  0  0  0  0  0  0  0
   22.5670  -19.4133  -15.3852 C   0  0  0  0  0  0  0  0  0  0  0  0
   22.5294  -20.3189  -14.5247 O   0  0  0  0  0  0  0  0  0  0  0  0
   27.1723  -18.4103  -15.7715 C   0  0  0  0  0  0  0  0  0  0  0  0
   28.3414  -18.8570  -16.3896 C   0  0  0  0  0  0  0  0  0  0  0  0
   17.6945  -19.8651  -13.3807 N   0  0  0  0  0  0  0  0  0  0  0  0
   17.9956  -18.9606  -14.4202 C   0  0  0  0  0  0  0  0  0  0  0  0
   17.0786  -18.5356  -15.2159 O   0  0  0  0  0  0  0  0  0  0  0  0
   19.3892  -18.4868  -14.6020 C   0  0  0  0  0  0  0  0  0  0  0  0
   20.1076  -19.4467  -15.5449 C   0  0  2  0  0  0  0  0  0  0  0  0
   21.3804  -18.8692  -15.9321 N   0  0  0  0  0  0  0  0  0  0  0  0
   19.3273  -19.7181  -16.7591 C   0  0  0  0  0  0  0  0  0  0  0  0
   18.6595  -20.7683  -16.8651 O   0  0  0  0  0  0  0  0  0  0  0  0
   19.2887  -18.8260  -17.8513 O   0  0  0  0  0  0  0  0  0  0  0  0
  2  1  1  1
  3  2  1  0
  4  2  1  0
  4  5  2  0
  6  7  1  0
  7 17  2  0
  8  7  1  0
  8  9  2  0
  9 10  1  0
 10 16  2  0
 10 11  1  0
 12 11  1  1
 12 13  1  0
 13  4  1  0
 14 12  1  0
 15 14  2  0
 17 16  1  0
 19 18  1  0
 19 21  1  0
 20 19  2  0
 22 21  1  1
 22 24  1  0
 22 23  1  0
 23 14  1  0
 24 26  1  0
 25 24  2  0
M  END
$$$$
