AYN.pdb
     RDKit          3D

 26 26  0  0  1  0  0  0  0  0999 V2000
   25.9957  -10.3506  -15.1564 C   0  0  0  0  0  0  0  0  0  0  0  0
   24.8727  -11.2345  -15.7180 C   0  0  2  0  0  0  0  0  0  0  0  0
   25.3061  -11.7272  -16.9765 N   0  0  0  0  0  0  0  0  0  0  0  0
   23.7244  -10.2911  -15.9415 C   0  0  0  0  0  0  0  0  0  0  0  0
   23.7279   -9.6065  -16.9980 O   0  0  0  0  0  0  0  0  0  0  0  0
   18.9958  -14.0888  -18.3669 O   0  0  0  0  0  0  0  0  0  0  0  0
   19.3070  -13.0919  -17.4501 C   0  0  0  0  0  0  0  0  0  0  0  0
   19.9752  -13.4280  -16.3048 C   0  0  0  0  0  0  0  0  0  0  0  0
   20.2890  -12.4465  -15.3869 C   0  0  0  0  0  0  0  0  0  0  0  0
   19.9143  -11.1551  -15.6602 C   0  0  0  0  0  0  0  0  0  0  0  0
   20.2955  -10.1349  -14.6267 C   0  0  0  0  0  0  0  0  0  0  0  0
   21.5392   -9.4349  -15.1027 C   0  0  2  0  0  0  0  0  0  0  0  0
   22.7136  -10.2153  -14.9739 N   0  0  0  0  0  0  0  0  0  0  0  0
   21.6332   -8.0798  -14.4415 C   0  0  0  0  0  0  0  0  0  0  0  0
   22.3566   -7.8623  -13.4459 O   0  0  0  0  0  0  0  0  0  0  0  0
   19.2482  -10.7984  -16.7931 C   0  0  0  0  0  0  0  0  0  0  0  0
   18.9444  -11.8111  -17.7045 C   0  0  0  0  0  0  0  0  0  0  0  0
   21.2064   -3.1582  -13.7225 N   0  0  0  0  0  0  0  0  0  0  0  0
   22.3342   -3.7110  -14.3641 C   0  0  0  0  0  0  0  0  0  0  0  0
   23.3950   -3.0103  -14.5610 O   0  0  0  0  0  0  0  0  0  0  0  0
   22.3035   -5.1223  -14.8189 C   0  0  0  0  0  0  0  0  0  0  0  0
   20.9419   -5.7140  -14.4685 C   0  0  2  0  0  0  0  0  0  0  0  0
   20.8493   -7.0526  -15.0192 N   0  0  0  0  0  0  0  0  0  0  0  0
   19.8347   -4.9102  -15.0020 C   0  0  0  0  0  0  0  0  0  0  0  0
   19.5377   -3.8129  -14.4845 O   0  0  0  0  0  0  0  0  0  0  0  0
   19.0605   -5.3236  -16.1066 O   0  0  0  0  0  0  0  0  0  0  0  0
  2  1  1  6
  3  2  1  0
  4  2  1  0
  4  5  2  0
  6  7  1  0
  7 17  2  0
  8  7  1  0
  8  9  2  0
  9 10  1  0
 10 16  2  0
 10 11  1  0
 12 11  1  1
 12 13  1  0
 13  4  1  0
 14 12  1  0
 15 14  2  0
 17 16  1  0
 19 18  1  0
 19 21  1  0
 20 19  2  0
 22 21  1  6
 22 24  1  0
 22 23  1  0
 23 14  1  0
 24 26  1  0
 25 24  2  0
M  END
$$$$
