AYN.pdb
     RDKit          3D

 26 26  0  0  1  0  0  0  0  0999 V2000
   31.6954  -25.7984  -19.7210 C   0  0  0  0  0  0  0  0  0  0  0  0
   32.0056  -27.2413  -20.1450 C   0  0  2  0  0  0  0  0  0  0  0  0
   32.0832  -27.2627  -21.5619 N   0  0  0  0  0  0  0  0  0  0  0  0
   30.7988  -28.0289  -19.7184 C   0  0  0  0  0  0  0  0  0  0  0  0
   29.7600  -27.9335  -20.4231 O   0  0  0  0  0  0  0  0  0  0  0  0
   25.6495  -33.6959  -15.9865 O   0  0  0  0  0  0  0  0  0  0  0  0
   26.7955  -32.9624  -16.2690 C   0  0  0  0  0  0  0  0  0  0  0  0
   27.2477  -32.9078  -17.5589 C   0  0  0  0  0  0  0  0  0  0  0  0
   28.3850  -32.1831  -17.8513 C   0  0  0  0  0  0  0  0  0  0  0  0
   29.0276  -31.5369  -16.8254 C   0  0  0  0  0  0  0  0  0  0  0  0
   30.2513  -30.7578  -17.2127 C   0  0  0  0  0  0  0  0  0  0  0  0
   29.8090  -29.5793  -18.0367 C   0  0  2  0  0  0  0  0  0  0  0  0
   30.8825  -28.8237  -18.5674 N   0  0  0  0  0  0  0  0  0  0  0  0
   28.8206  -28.7580  -17.2426 C   0  0  0  0  0  0  0  0  0  0  0  0
   29.1630  -28.0194  -16.2943 O   0  0  0  0  0  0  0  0  0  0  0  0
   28.5955  -31.5783  -15.5347 C   0  0  0  0  0  0  0  0  0  0  0  0
   27.4423  -32.3181  -15.2675 C   0  0  0  0  0  0  0  0  0  0  0  0
   25.7653  -24.8114  -15.7651 N   0  0  0  0  0  0  0  0  0  0  0  0
   25.5173  -25.8567  -16.6790 C   0  0  0  0  0  0  0  0  0  0  0  0
   24.3171  -26.1645  -17.0247 O   0  0  0  0  0  0  0  0  0  0  0  0
   26.6543  -26.6147  -17.2554 C   0  0  0  0  0  0  0  0  0  0  0  0
   26.4690  -28.0919  -16.9235 C   0  0  2  0  0  0  0  0  0  0  0  0
   27.4656  -28.8680  -17.6364 N   0  0  0  0  0  0  0  0  0  0  0  0
   25.1365  -28.5812  -17.3002 C   0  0  0  0  0  0  0  0  0  0  0  0
   24.9311  -29.0575  -18.4365 O   0  0  0  0  0  0  0  0  0  0  0  0
   24.0365  -28.5420  -16.4179 O   0  0  0  0  0  0  0  0  0  0  0  0
  2  1  1  6
  3  2  1  0
  4  2  1  0
  4  5  2  0
  6  7  1  0
  7 17  2  0
  8  7  1  0
  8  9  2  0
  9 10  1  0
 10 16  2  0
 10 11  1  0
 12 11  1  1
 12 13  1  0
 13  4  1  0
 14 12  1  0
 15 14  2  0
 17 16  1  0
 19 18  1  0
 19 21  1  0
 20 19  2  0
 22 21  1  6
 22 24  1  0
 22 23  1  0
 23 14  1  0
 24 26  1  0
 25 24  2  0
M  END
$$$$
