AYN.pdb
     RDKit          3D

 26 26  0  0  1  0  0  0  0  0999 V2000
   28.2664  -21.8592  -18.2087 C   0  0  0  0  0  0  0  0  0  0  0  0
   28.9445  -22.3424  -16.9185 C   0  0  2  0  0  0  0  0  0  0  0  0
   29.3312  -23.6931  -17.1193 N   0  0  0  0  0  0  0  0  0  0  0  0
   27.8571  -22.3035  -15.8819 C   0  0  0  0  0  0  0  0  0  0  0  0
   27.0075  -23.2325  -15.8913 O   0  0  0  0  0  0  0  0  0  0  0  0
   23.5322  -20.5477   -8.7094 O   0  0  0  0  0  0  0  0  0  0  0  0
   24.4597  -20.4452   -9.7391 C   0  0  0  0  0  0  0  0  0  0  0  0
   25.6268  -21.1537   -9.6545 C   0  0  0  0  0  0  0  0  0  0  0  0
   26.5556  -21.0593  -10.6708 C   0  0  0  0  0  0  0  0  0  0  0  0
   26.2706  -20.2486  -11.7406 C   0  0  0  0  0  0  0  0  0  0  0  0
   27.3172  -20.1991  -12.8160 C   0  0  0  0  0  0  0  0  0  0  0  0
   26.8690  -21.0923  -13.9406 C   0  0  2  0  0  0  0  0  0  0  0  0
   27.8367  -21.2458  -14.9629 N   0  0  0  0  0  0  0  0  0  0  0  0
   25.5225  -20.6258  -14.4420 C   0  0  0  0  0  0  0  0  0  0  0  0
   25.3893  -19.6541  -15.2167 O   0  0  0  0  0  0  0  0  0  0  0  0
   25.1159  -19.5343  -11.8449 C   0  0  0  0  0  0  0  0  0  0  0  0
   24.1940  -19.6491  -10.8031 C   0  0  0  0  0  0  0  0  0  0  0  0
   20.8814  -22.3994  -17.2518 N   0  0  0  0  0  0  0  0  0  0  0  0
   21.4646  -21.5976  -16.2486 C   0  0  0  0  0  0  0  0  0  0  0  0
   20.8691  -20.5444  -15.8117 O   0  0  0  0  0  0  0  0  0  0  0  0
   22.7838  -21.9712  -15.6832 C   0  0  0  0  0  0  0  0  0  0  0  0
   23.0933  -21.0363  -14.5183 C   0  0  2  0  0  0  0  0  0  0  0  0
   24.4023  -21.3597  -13.9840 N   0  0  0  0  0  0  0  0  0  0  0  0
   22.1048  -21.1513  -13.4382 C   0  0  0  0  0  0  0  0  0  0  0  0
   22.1157  -22.1340  -12.6674 O   0  0  0  0  0  0  0  0  0  0  0  0
   21.1082  -20.1780  -13.2151 O   0  0  0  0  0  0  0  0  0  0  0  0
  2  1  1  6
  3  2  1  0
  4  2  1  0
  4  5  2  0
  6  7  1  0
  7 17  2  0
  8  7  1  0
  8  9  2  0
  9 10  1  0
 10 16  2  0
 10 11  1  0
 12 11  1  1
 12 13  1  0
 13  4  1  0
 14 12  1  0
 15 14  2  0
 17 16  1  0
 19 18  1  0
 19 21  1  0
 20 19  2  0
 22 21  1  6
 22 24  1  0
 22 23  1  0
 23 14  1  0
 24 26  1  0
 25 24  2  0
M  END
$$$$
