SAF.pdb
     RDKit          3D

 23 23  0  0  1  0  0  0  0  0999 V2000
   15.5843   -9.6021  -16.4322 O   0  0  0  0  0  0  0  0  0  0  0  0
   16.1393  -10.7611  -16.9198 C   0  0  0  0  0  0  0  0  0  0  0  0
   16.9142  -11.4952  -15.8497 C   0  0  2  0  0  0  0  0  0  0  0  0
   15.9720  -11.8011  -14.7894 N   0  0  0  0  0  0  0  0  0  0  0  0
   18.0531  -10.7128  -15.3252 C   0  0  0  0  0  0  0  0  0  0  0  0
   17.8789   -9.9950  -14.3072 O   0  0  0  0  0  0  0  0  0  0  0  0
   21.7621  -10.3076  -16.0296 C   0  0  0  0  0  0  0  0  0  0  0  0
   20.4458   -9.9237  -15.4309 C   0  0  2  0  0  0  0  0  0  0  0  0
   19.3411  -10.7190  -15.9006 N   0  0  0  0  0  0  0  0  0  0  0  0
   20.2323   -8.4688  -15.6713 C   0  0  0  0  0  0  0  0  0  0  0  0
   19.5248   -8.0249  -16.6113 O   0  0  0  0  0  0  0  0  0  0  0  0
   20.8612   -7.5511  -14.7929 N   0  0  0  0  0  0  0  0  0  0  0  0
   20.8900   -6.1185  -15.0362 C   0  0  1  0  0  0  0  0  0  0  0  0
   21.2253   -5.4536  -13.7215 C   0  0  0  0  0  0  0  0  0  0  0  0
   21.2702   -3.9825  -13.7993 C   0  0  0  0  0  0  0  0  0  0  0  0
   20.1708   -3.2141  -13.4951 C   0  0  0  0  0  0  0  0  0  0  0  0
   20.2187   -1.8179  -13.5655 C   0  0  0  0  0  0  0  0  0  0  0  0
   21.3949   -1.1862  -13.9492 C   0  0  0  0  0  0  0  0  0  0  0  0
   22.4921   -1.9635  -14.2525 C   0  0  0  0  0  0  0  0  0  0  0  0
   22.4282   -3.3356  -14.1781 C   0  0  0  0  0  0  0  0  0  0  0  0
   21.8957   -5.7606  -16.0596 C   0  0  0  0  0  0  0  0  0  0  0  0
   23.1566   -6.3862  -16.0691 O   0  0  0  0  0  0  0  0  0  0  0  0
   21.6920   -4.9098  -16.9468 O   0  0  0  0  0  0  0  0  0  0  0  0
  2  1  1  0
  3  4  1  1
  3  2  1  0
  5  3  1  0
  5  6  2  0
  8  7  1  6
  8  9  1  0
  8 10  1  0
  9  5  1  0
 10 12  1  0
 10 11  2  0
 12 13  1  0
 13 14  1  1
 14 15  1  0
 15 20  2  0
 16 15  1  0
 16 17  2  0
 17 18  1  0
 18 19  2  0
 20 19  1  0
 21 22  1  0
 21 13  1  0
 23 21  2  0
M  END
$$$$
