SAF.pdb
     RDKit          3D

 23 23  0  0  1  0  0  0  0  0999 V2000
   24.8769  -17.3894  -13.7105 O   0  0  0  0  0  0  0  0  0  0  0  0
   25.0729  -18.7458  -13.8152 C   0  0  0  0  0  0  0  0  0  0  0  0
   26.4947  -19.0692  -14.2133 C   0  0  2  0  0  0  0  0  0  0  0  0
   26.4737  -19.3552  -15.6357 N   0  0  0  0  0  0  0  0  0  0  0  0
   27.0576  -20.2097  -13.4605 C   0  0  0  0  0  0  0  0  0  0  0  0
   26.6750  -21.3734  -13.7459 O   0  0  0  0  0  0  0  0  0  0  0  0
   29.9720  -20.9811  -11.2550 C   0  0  0  0  0  0  0  0  0  0  0  0
   28.5478  -21.1754  -11.6702 C   0  0  2  0  0  0  0  0  0  0  0  0
   28.0095  -20.0758  -12.4281 N   0  0  0  0  0  0  0  0  0  0  0  0
   27.7429  -21.4634  -10.4498 C   0  0  0  0  0  0  0  0  0  0  0  0
   27.9198  -22.4832   -9.7356 O   0  0  0  0  0  0  0  0  0  0  0  0
   26.7331  -20.5374  -10.0863 N   0  0  0  0  0  0  0  0  0  0  0  0
   25.8727  -20.7213   -8.9294 C   0  0  1  0  0  0  0  0  0  0  0  0
   26.0077  -19.4812   -8.0768 C   0  0  0  0  0  0  0  0  0  0  0  0
   27.0260  -19.6014   -7.0181 C   0  0  0  0  0  0  0  0  0  0  0  0
   27.2903  -20.8067   -6.4106 C   0  0  0  0  0  0  0  0  0  0  0  0
   28.2609  -20.9179   -5.4095 C   0  0  0  0  0  0  0  0  0  0  0  0
   28.9767  -19.7948   -5.0144 C   0  0  0  0  0  0  0  0  0  0  0  0
   28.7056  -18.5906   -5.6281 C   0  0  0  0  0  0  0  0  0  0  0  0
   27.7477  -18.4985   -6.6112 C   0  0  0  0  0  0  0  0  0  0  0  0
   24.4616  -20.9160   -9.3263 C   0  0  0  0  0  0  0  0  0  0  0  0
   23.4937  -21.2689   -8.3672 O   0  0  0  0  0  0  0  0  0  0  0  0
   24.0587  -20.7832  -10.4979 O   0  0  0  0  0  0  0  0  0  0  0  0
  2  1  1  0
  3  4  1  6
  3  2  1  0
  5  3  1  0
  5  6  2  0
  8  7  1  1
  8  9  1  0
  8 10  1  0
  9  5  1  0
 10 12  1  0
 10 11  2  0
 12 13  1  0
 13 14  1  1
 14 15  1  0
 15 20  2  0
 16 15  1  0
 16 17  2  0
 17 18  1  0
 18 19  2  0
 20 19  1  0
 21 22  1  0
 21 13  1  0
 23 21  2  0
M  END
$$$$
