SAF.pdb
     RDKit          3D

 23 23  0  0  1  0  0  0  0  0999 V2000
   28.6273  -21.8118  -14.0857 O   0  0  0  0  0  0  0  0  0  0  0  0
   27.7330  -21.7334  -15.1264 C   0  0  0  0  0  0  0  0  0  0  0  0
   26.9268  -20.4563  -15.0667 C   0  0  2  0  0  0  0  0  0  0  0  0
   27.7409  -19.4212  -15.6761 N   0  0  0  0  0  0  0  0  0  0  0  0
   26.5487  -20.0786  -13.6888 C   0  0  0  0  0  0  0  0  0  0  0  0
   27.0908  -19.0716  -13.1652 O   0  0  0  0  0  0  0  0  0  0  0  0
   23.6375  -20.6401  -11.4452 C   0  0  0  0  0  0  0  0  0  0  0  0
   25.0860  -20.3261  -11.6497 C   0  0  2  0  0  0  0  0  0  0  0  0
   25.6060  -20.7841  -12.9120 N   0  0  0  0  0  0  0  0  0  0  0  0
   25.8489  -20.8777  -10.4949 C   0  0  0  0  0  0  0  0  0  0  0  0
   26.1997  -22.0828  -10.4165 O   0  0  0  0  0  0  0  0  0  0  0  0
   26.1899  -19.9935   -9.4407 N   0  0  0  0  0  0  0  0  0  0  0  0
   26.8159  -20.4397   -8.2073 C   0  0  1  0  0  0  0  0  0  0  0  0
   27.4456  -19.2247   -7.5667 C   0  0  0  0  0  0  0  0  0  0  0  0
   28.1291  -19.5168   -6.2940 C   0  0  0  0  0  0  0  0  0  0  0  0
   29.3143  -20.2137   -6.2596 C   0  0  0  0  0  0  0  0  0  0  0  0
   29.9624  -20.4848   -5.0501 C   0  0  0  0  0  0  0  0  0  0  0  0
   29.4060  -20.0459   -3.8553 C   0  0  0  0  0  0  0  0  0  0  0  0
   28.2179  -19.3483   -3.8984 C   0  0  0  0  0  0  0  0  0  0  0  0
   27.5933  -19.0899   -5.0966 C   0  0  0  0  0  0  0  0  0  0  0  0
   25.8315  -21.0488   -7.2870 C   0  0  0  0  0  0  0  0  0  0  0  0
   26.2438  -21.9862   -6.3213 O   0  0  0  0  0  0  0  0  0  0  0  0
   24.6160  -20.7760   -7.3117 O   0  0  0  0  0  0  0  0  0  0  0  0
  2  1  1  0
  3  4  1  1
  3  2  1  0
  5  3  1  0
  5  6  2  0
  8  7  1  1
  8  9  1  0
  8 10  1  0
  9  5  1  0
 10 12  1  0
 10 11  2  0
 12 13  1  0
 13 14  1  1
 14 15  1  0
 15 20  2  0
 16 15  1  0
 16 17  2  0
 17 18  1  0
 18 19  2  0
 20 19  1  0
 21 22  1  0
 21 13  1  0
 23 21  2  0
M  END
$$$$
