SAF.pdb
     RDKit          3D

 23 23  0  0  1  0  0  0  0  0999 V2000
   20.9783  -14.6697  -16.2520 O   0  0  0  0  0  0  0  0  0  0  0  0
   21.1585  -13.3278  -16.4885 C   0  0  0  0  0  0  0  0  0  0  0  0
   19.8688  -12.6639  -16.9135 C   0  0  2  0  0  0  0  0  0  0  0  0
   19.6748  -12.9897  -18.3141 N   0  0  0  0  0  0  0  0  0  0  0  0
   19.8836  -11.1993  -16.7161 C   0  0  0  0  0  0  0  0  0  0  0  0
   20.4766  -10.4792  -17.5598 O   0  0  0  0  0  0  0  0  0  0  0  0
   18.2548   -8.6752  -14.3959 C   0  0  0  0  0  0  0  0  0  0  0  0
   19.2021   -9.1181  -15.4659 C   0  0  2  0  0  0  0  0  0  0  0  0
   19.2669  -10.5475  -15.6276 N   0  0  0  0  0  0  0  0  0  0  0  0
   20.5382   -8.5245  -15.1789 C   0  0  0  0  0  0  0  0  0  0  0  0
   21.4126   -9.1045  -14.4858 O   0  0  0  0  0  0  0  0  0  0  0  0
   20.8265   -7.2454  -15.7176 N   0  0  0  0  0  0  0  0  0  0  0  0
   22.1176   -6.5963  -15.5631 C   0  0  1  0  0  0  0  0  0  0  0  0
   22.5248   -6.0917  -16.9279 C   0  0  0  0  0  0  0  0  0  0  0  0
   23.7734   -5.3088  -16.9188 C   0  0  0  0  0  0  0  0  0  0  0  0
   23.7625   -3.9428  -16.7597 C   0  0  0  0  0  0  0  0  0  0  0  0
   24.9500   -3.2037  -16.7467 C   0  0  0  0  0  0  0  0  0  0  0  0
   26.1688   -3.8531  -16.8969 C   0  0  0  0  0  0  0  0  0  0  0  0
   26.1710   -5.2223  -17.0560 C   0  0  0  0  0  0  0  0  0  0  0  0
   24.9941   -5.9344  -17.0663 C   0  0  0  0  0  0  0  0  0  0  0  0
   22.0505   -5.4732  -14.6035 C   0  0  0  0  0  0  0  0  0  0  0  0
   23.1308   -5.2071  -13.7412 O   0  0  0  0  0  0  0  0  0  0  0  0
   21.0635   -4.7192  -14.5049 O   0  0  0  0  0  0  0  0  0  0  0  0
  2  1  1  0
  3  4  1  6
  3  2  1  0
  5  3  1  0
  5  6  2  0
  8  7  1  1
  8  9  1  0
  8 10  1  0
  9  5  1  0
 10 12  1  0
 10 11  2  0
 12 13  1  0
 13 14  1  6
 14 15  1  0
 15 20  2  0
 16 15  1  0
 16 17  2  0
 17 18  1  0
 18 19  2  0
 20 19  1  0
 21 22  1  0
 21 13  1  0
 23 21  2  0
M  END
$$$$
