SAF.pdb
     RDKit          3D

 23 23  0  0  1  0  0  0  0  0999 V2000
   12.4803  -11.6382  -15.1357 O   0  0  0  0  0  0  0  0  0  0  0  0
   13.3413  -10.5920  -14.9046 C   0  0  0  0  0  0  0  0  0  0  0  0
   12.7102   -9.2671  -15.2667 C   0  0  2  0  0  0  0  0  0  0  0  0
   12.7722   -9.1579  -16.7123 N   0  0  0  0  0  0  0  0  0  0  0  0
   13.3819   -8.1162  -14.6276 C   0  0  0  0  0  0  0  0  0  0  0  0
   14.4230   -7.6501  -15.1577 O   0  0  0  0  0  0  0  0  0  0  0  0
   12.8291   -5.8123  -11.6571 C   0  0  0  0  0  0  0  0  0  0  0  0
   13.6256   -6.4478  -12.7526 C   0  0  2  0  0  0  0  0  0  0  0  0
   12.9246   -7.4978  -13.4451 N   0  0  0  0  0  0  0  0  0  0  0  0
   14.9158   -6.9197  -12.1757 C   0  0  0  0  0  0  0  0  0  0  0  0
   15.0655   -8.0623  -11.6722 O   0  0  0  0  0  0  0  0  0  0  0  0
   16.0196   -6.0307  -12.2011 N   0  0  0  0  0  0  0  0  0  0  0  0
   17.3346   -6.3900  -11.6972 C   0  0  1  0  0  0  0  0  0  0  0  0
   18.2904   -6.3180  -12.8652 C   0  0  0  0  0  0  0  0  0  0  0  0
   19.6930   -6.5805  -12.4964 C   0  0  0  0  0  0  0  0  0  0  0  0
   20.1626   -7.8621  -12.3280 C   0  0  0  0  0  0  0  0  0  0  0  0
   21.4957   -8.1074  -11.9826 C   0  0  0  0  0  0  0  0  0  0  0  0
   22.3696   -7.0425  -11.8039 C   0  0  0  0  0  0  0  0  0  0  0  0
   21.8909   -5.7611  -11.9744 C   0  0  0  0  0  0  0  0  0  0  0  0
   20.5769   -5.5371  -12.3142 C   0  0  0  0  0  0  0  0  0  0  0  0
   17.7738   -5.4749  -10.6218 C   0  0  0  0  0  0  0  0  0  0  0  0
   18.4642   -5.9723   -9.5005 O   0  0  0  0  0  0  0  0  0  0  0  0
   17.5647   -4.2468  -10.6445 O   0  0  0  0  0  0  0  0  0  0  0  0
  2  1  1  0
  3  4  1  6
  3  2  1  0
  5  3  1  0
  5  6  2  0
  8  7  1  1
  8  9  1  0
  8 10  1  0
  9  5  1  0
 10 12  1  0
 10 11  2  0
 12 13  1  0
 13 14  1  6
 14 15  1  0
 15 20  2  0
 16 15  1  0
 16 17  2  0
 17 18  1  0
 18 19  2  0
 20 19  1  0
 21 22  1  0
 21 13  1  0
 23 21  2  0
M  END
$$$$
