SAF.pdb
     RDKit          3D

 23 23  0  0  1  0  0  0  0  0999 V2000
   15.7801  -13.1228  -15.0996 O   0  0  0  0  0  0  0  0  0  0  0  0
   17.1330  -13.0463  -14.8693 C   0  0  0  0  0  0  0  0  0  0  0  0
   17.8994  -12.8166  -16.1516 C   0  0  2  0  0  0  0  0  0  0  0  0
   18.8972  -13.8669  -16.2339 N   0  0  0  0  0  0  0  0  0  0  0  0
   18.5380  -11.4850  -16.2095 C   0  0  0  0  0  0  0  0  0  0  0  0
   19.6488  -11.3196  -15.6430 O   0  0  0  0  0  0  0  0  0  0  0  0
   17.9236   -8.1460  -17.9118 C   0  0  0  0  0  0  0  0  0  0  0  0
   18.5962   -9.0759  -16.9518 C   0  0  2  0  0  0  0  0  0  0  0  0
   17.9746  -10.3721  -16.8681 N   0  0  0  0  0  0  0  0  0  0  0  0
   18.6691   -8.4015  -15.6252 C   0  0  0  0  0  0  0  0  0  0  0  0
   17.8322   -8.5994  -14.7076 O   0  0  0  0  0  0  0  0  0  0  0  0
   19.7361   -7.4965  -15.3977 N   0  0  0  0  0  0  0  0  0  0  0  0
   19.8628   -6.7156  -14.1785 C   0  0  1  0  0  0  0  0  0  0  0  0
   21.2009   -7.0626  -13.5685 C   0  0  0  0  0  0  0  0  0  0  0  0
   22.3470   -6.7326  -14.4342 C   0  0  0  0  0  0  0  0  0  0  0  0
   22.8154   -5.4441  -14.5442 C   0  0  0  0  0  0  0  0  0  0  0  0
   23.9065   -5.1355  -15.3632 C   0  0  0  0  0  0  0  0  0  0  0  0
   24.5355   -6.1431  -16.0836 C   0  0  0  0  0  0  0  0  0  0  0  0
   24.0598   -7.4317  -15.9680 C   0  0  0  0  0  0  0  0  0  0  0  0
   22.9856   -7.7183  -15.1579 C   0  0  0  0  0  0  0  0  0  0  0  0
   19.7880   -5.2642  -14.4518 C   0  0  0  0  0  0  0  0  0  0  0  0
   19.6306   -4.3473  -13.3955 O   0  0  0  0  0  0  0  0  0  0  0  0
   19.8579   -4.7823  -15.5987 O   0  0  0  0  0  0  0  0  0  0  0  0
  2  1  1  0
  3  4  1  1
  3  2  1  0
  5  3  1  0
  5  6  2  0
  8  7  1  6
  8  9  1  0
  8 10  1  0
  9  5  1  0
 10 12  1  0
 10 11  2  0
 12 13  1  0
 13 14  1  6
 14 15  1  0
 15 20  2  0
 16 15  1  0
 16 17  2  0
 17 18  1  0
 18 19  2  0
 20 19  1  0
 21 22  1  0
 21 13  1  0
 23 21  2  0
M  END
$$$$
