SAF.pdb
     RDKit          3D

 23 23  0  0  1  0  0  0  0  0999 V2000
   14.4553  -11.7472  -14.1995 O   0  0  0  0  0  0  0  0  0  0  0  0
   14.8633  -13.0429  -13.9898 C   0  0  0  0  0  0  0  0  0  0  0  0
   15.5243  -13.6198  -15.2206 C   0  0  2  0  0  0  0  0  0  0  0  0
   15.8667  -14.9938  -14.9037 N   0  0  0  0  0  0  0  0  0  0  0  0
   16.7256  -12.8655  -15.6354 C   0  0  0  0  0  0  0  0  0  0  0  0
   17.7667  -12.9490  -14.9346 O   0  0  0  0  0  0  0  0  0  0  0  0
   17.8520  -10.7372  -18.5676 C   0  0  0  0  0  0  0  0  0  0  0  0
   17.9265  -11.2643  -17.1693 C   0  0  2  0  0  0  0  0  0  0  0  0
   16.7810  -12.0464  -16.7826 N   0  0  0  0  0  0  0  0  0  0  0  0
   18.1572  -10.1143  -16.2506 C   0  0  0  0  0  0  0  0  0  0  0  0
   17.2520   -9.6157  -15.5341 O   0  0  0  0  0  0  0  0  0  0  0  0
   19.4622   -9.5643  -16.1893 N   0  0  0  0  0  0  0  0  0  0  0  0
   19.7843   -8.3802  -15.4105 C   0  0  1  0  0  0  0  0  0  0  0  0
   21.2795   -8.3875  -15.1930 C   0  0  0  0  0  0  0  0  0  0  0  0
   21.8138   -7.0954  -14.7267 C   0  0  0  0  0  0  0  0  0  0  0  0
   21.7634   -6.7349  -13.4004 C   0  0  0  0  0  0  0  0  0  0  0  0
   22.2759   -5.5098  -12.9610 C   0  0  0  0  0  0  0  0  0  0  0  0
   22.8485   -4.6337  -13.8744 C   0  0  0  0  0  0  0  0  0  0  0  0
   22.8948   -5.0025  -15.2017 C   0  0  0  0  0  0  0  0  0  0  0  0
   22.3863   -6.2112  -15.6174 C   0  0  0  0  0  0  0  0  0  0  0  0
   19.3767   -7.1421  -16.1090 C   0  0  0  0  0  0  0  0  0  0  0  0
   18.8750   -6.0460  -15.3822 O   0  0  0  0  0  0  0  0  0  0  0  0
   19.4512   -7.0009  -17.3447 O   0  0  0  0  0  0  0  0  0  0  0  0
  2  1  1  0
  3  4  1  1
  3  2  1  0
  5  3  1  0
  5  6  2  0
  8  7  1  6
  8  9  1  0
  8 10  1  0
  9  5  1  0
 10 12  1  0
 10 11  2  0
 12 13  1  0
 13 14  1  6
 14 15  1  0
 15 20  2  0
 16 15  1  0
 16 17  2  0
 17 18  1  0
 18 19  2  0
 20 19  1  0
 21 22  1  0
 21 13  1  0
 23 21  2  0
M  END
$$$$
