SAF.pdb
     RDKit          3D

 23 23  0  0  1  0  0  0  0  0999 V2000
   16.7566  -10.7190  -14.2389 O   0  0  0  0  0  0  0  0  0  0  0  0
   16.3587  -10.8081  -15.5515 C   0  0  0  0  0  0  0  0  0  0  0  0
   17.5261  -11.1082  -16.4634 C   0  0  2  0  0  0  0  0  0  0  0  0
   18.0538  -12.3963  -16.0539 N   0  0  0  0  0  0  0  0  0  0  0  0
   18.5791  -10.0725  -16.4096 C   0  0  0  0  0  0  0  0  0  0  0  0
   19.4794  -10.1671  -15.5363 O   0  0  0  0  0  0  0  0  0  0  0  0
   19.6125   -7.0187  -18.4259 C   0  0  0  0  0  0  0  0  0  0  0  0
   19.7032   -7.9974  -17.2978 C   0  0  2  0  0  0  0  0  0  0  0  0
   18.6408   -8.9693  -17.2866 N   0  0  0  0  0  0  0  0  0  0  0  0
   19.7766   -7.2310  -16.0222 C   0  0  0  0  0  0  0  0  0  0  0  0
   18.7704   -6.9898  -15.3074 O   0  0  0  0  0  0  0  0  0  0  0  0
   21.0452   -6.7563  -15.6043 N   0  0  0  0  0  0  0  0  0  0  0  0
   21.2293   -5.9308  -14.4224 C   0  0  1  0  0  0  0  0  0  0  0  0
   22.1310   -6.6980  -13.4836 C   0  0  0  0  0  0  0  0  0  0  0  0
   23.1411   -7.5186  -14.1753 C   0  0  0  0  0  0  0  0  0  0  0  0
   23.2790   -8.8610  -13.9098 C   0  0  0  0  0  0  0  0  0  0  0  0
   24.2357   -9.6376  -14.5719 C   0  0  0  0  0  0  0  0  0  0  0  0
   25.0672   -9.0505  -15.5173 C   0  0  0  0  0  0  0  0  0  0  0  0
   24.9225   -7.7046  -15.7773 C   0  0  0  0  0  0  0  0  0  0  0  0
   23.9765   -6.9551  -15.1174 C   0  0  0  0  0  0  0  0  0  0  0  0
   21.8367   -4.6255  -14.7597 C   0  0  0  0  0  0  0  0  0  0  0  0
   22.2895   -4.3666  -16.0671 O   0  0  0  0  0  0  0  0  0  0  0  0
   21.9792   -3.7058  -13.9312 O   0  0  0  0  0  0  0  0  0  0  0  0
  2  1  1  0
  3  4  1  1
  3  2  1  0
  5  3  1  0
  5  6  2  0
  8  7  1  6
  8  9  1  0
  8 10  1  0
  9  5  1  0
 10 12  1  0
 10 11  2  0
 12 13  1  0
 13 14  1  1
 14 15  1  0
 15 20  2  0
 16 15  1  0
 16 17  2  0
 17 18  1  0
 18 19  2  0
 20 19  1  0
 21 22  1  0
 21 13  1  0
 23 21  2  0
M  END
$$$$
