SAF.pdb
     RDKit          3D

 23 23  0  0  1  0  0  0  0  0999 V2000
   23.7984  -18.0734  -13.7353 O   0  0  0  0  0  0  0  0  0  0  0  0
   24.4401  -19.1882  -13.2509 C   0  0  0  0  0  0  0  0  0  0  0  0
   25.7956  -19.3687  -13.8948 C   0  0  2  0  0  0  0  0  0  0  0  0
   25.5542  -19.7076  -15.2849 N   0  0  0  0  0  0  0  0  0  0  0  0
   26.6103  -20.4121  -13.2377 C   0  0  0  0  0  0  0  0  0  0  0  0
   26.3188  -21.6204  -13.4300 O   0  0  0  0  0  0  0  0  0  0  0  0
   29.8872  -20.7798  -11.4540 C   0  0  0  0  0  0  0  0  0  0  0  0
   28.4511  -21.1369  -11.6741 C   0  0  2  0  0  0  0  0  0  0  0  0
   27.7091  -20.1367  -12.3969 N   0  0  0  0  0  0  0  0  0  0  0  0
   27.8396  -21.4417  -10.3500 C   0  0  0  0  0  0  0  0  0  0  0  0
   28.2285  -22.3852   -9.6152 O   0  0  0  0  0  0  0  0  0  0  0  0
   26.7701  -20.6233   -9.9079 N   0  0  0  0  0  0  0  0  0  0  0  0
   26.0782  -20.8403   -8.6483 C   0  0  1  0  0  0  0  0  0  0  0  0
   26.2279  -19.5739   -7.8379 C   0  0  0  0  0  0  0  0  0  0  0  0
   27.2583  -19.6640   -6.7880 C   0  0  0  0  0  0  0  0  0  0  0  0
   27.3603  -20.7695   -5.9760 C   0  0  0  0  0  0  0  0  0  0  0  0
   28.3426  -20.8535   -4.9838 C   0  0  0  0  0  0  0  0  0  0  0  0
   29.2368  -19.8051   -4.8073 C   0  0  0  0  0  0  0  0  0  0  0  0
   29.1276  -18.7008   -5.6250 C   0  0  0  0  0  0  0  0  0  0  0  0
   28.1557  -18.6341   -6.5963 C   0  0  0  0  0  0  0  0  0  0  0  0
   24.6465  -21.1443   -8.8594 C   0  0  0  0  0  0  0  0  0  0  0  0
   23.8282  -21.5107   -7.7742 O   0  0  0  0  0  0  0  0  0  0  0  0
   24.0970  -21.0954   -9.9766 O   0  0  0  0  0  0  0  0  0  0  0  0
  2  1  1  0
  3  4  1  6
  3  2  1  0
  5  3  1  0
  5  6  2  0
  8  7  1  1
  8  9  1  0
  8 10  1  0
  9  5  1  0
 10 12  1  0
 10 11  2  0
 12 13  1  0
 13 14  1  1
 14 15  1  0
 15 20  2  0
 16 15  1  0
 16 17  2  0
 17 18  1  0
 18 19  2  0
 20 19  1  0
 21 22  1  0
 21 13  1  0
 23 21  2  0
M  END
$$$$
