SAF.pdb
     RDKit          3D

 23 23  0  0  1  0  0  0  0  0999 V2000
   27.0531  -16.2050  -13.7868 O   0  0  0  0  0  0  0  0  0  0  0  0
   26.8739  -17.3815  -13.0991 C   0  0  0  0  0  0  0  0  0  0  0  0
   27.5331  -18.5419  -13.8088 C   0  0  2  0  0  0  0  0  0  0  0  0
   26.8538  -18.6911  -15.0823 N   0  0  0  0  0  0  0  0  0  0  0  0
   27.4719  -19.7994  -13.0347 C   0  0  0  0  0  0  0  0  0  0  0  0
   26.4177  -20.4843  -13.0721 O   0  0  0  0  0  0  0  0  0  0  0  0
   29.7993  -22.2313  -11.4268 C   0  0  0  0  0  0  0  0  0  0  0  0
   28.4889  -21.5118  -11.4881 C   0  0  2  0  0  0  0  0  0  0  0  0
   28.5343  -20.2880  -12.2456 N   0  0  0  0  0  0  0  0  0  0  0  0
   28.0138  -21.2913  -10.0933 C   0  0  0  0  0  0  0  0  0  0  0  0
   28.7920  -21.0797   -9.1284 O   0  0  0  0  0  0  0  0  0  0  0  0
   26.6170  -21.3238   -9.8543 N   0  0  0  0  0  0  0  0  0  0  0  0
   26.0340  -21.0810   -8.5453 C   0  0  1  0  0  0  0  0  0  0  0  0
   26.4877  -19.7079   -8.1073 C   0  0  0  0  0  0  0  0  0  0  0  0
   27.3116  -19.7210   -6.8853 C   0  0  0  0  0  0  0  0  0  0  0  0
   28.1074  -18.6521   -6.5452 C   0  0  0  0  0  0  0  0  0  0  0  0
   28.8843  -18.6663   -5.3821 C   0  0  0  0  0  0  0  0  0  0  0  0
   28.8583  -19.7771   -4.5483 C   0  0  0  0  0  0  0  0  0  0  0  0
   28.0582  -20.8442   -4.8964 C   0  0  0  0  0  0  0  0  0  0  0  0
   27.3001  -20.8141   -6.0439 C   0  0  0  0  0  0  0  0  0  0  0  0
   24.5571  -21.1405   -8.5879 C   0  0  0  0  0  0  0  0  0  0  0  0
   23.8256  -21.5140   -7.4448 O   0  0  0  0  0  0  0  0  0  0  0  0
   23.8934  -20.8715   -9.6076 O   0  0  0  0  0  0  0  0  0  0  0  0
  2  1  1  0
  3  4  1  6
  3  2  1  0
  5  3  1  0
  5  6  2  0
  8  7  1  1
  8  9  1  0
  8 10  1  0
  9  5  1  0
 10 12  1  0
 10 11  2  0
 12 13  1  0
 13 14  1  6
 14 15  1  0
 15 20  2  0
 16 15  1  0
 16 17  2  0
 17 18  1  0
 18 19  2  0
 20 19  1  0
 21 22  1  0
 21 13  1  0
 23 21  2  0
M  END
$$$$
