SAF.pdb
     RDKit          3D

 23 23  0  0  1  0  0  0  0  0999 V2000
   23.2004  -16.8217    9.4870 O   0  0  0  0  0  0  0  0  0  0  0  0
   23.5401  -17.2073   10.7618 C   0  0  0  0  0  0  0  0  0  0  0  0
   23.2699  -16.1070   11.7622 C   0  0  2  0  0  0  0  0  0  0  0  0
   23.6619  -16.6203   13.0615 N   0  0  0  0  0  0  0  0  0  0  0  0
   21.8560  -15.6769   11.7763 C   0  0  0  0  0  0  0  0  0  0  0  0
   21.0349  -16.3143   12.4844 O   0  0  0  0  0  0  0  0  0  0  0  0
   19.8191  -12.6672   11.0816 C   0  0  0  0  0  0  0  0  0  0  0  0
   19.9864  -14.1534   11.0401 C   0  0  2  0  0  0  0  0  0  0  0  0
   21.3609  -14.5823   11.0368 N   0  0  0  0  0  0  0  0  0  0  0  0
   19.2332  -14.6734    9.8644 C   0  0  0  0  0  0  0  0  0  0  0  0
   18.0121  -14.4410    9.6738 O   0  0  0  0  0  0  0  0  0  0  0  0
   19.9362  -15.4664    8.9229 N   0  0  0  0  0  0  0  0  0  0  0  0
   19.2910  -16.0967    7.7833 C   0  0  1  0  0  0  0  0  0  0  0  0
   20.0990  -15.7309    6.5600 C   0  0  0  0  0  0  0  0  0  0  0  0
   20.0158  -14.3032    6.2036 C   0  0  0  0  0  0  0  0  0  0  0  0
   20.9933  -13.4118    6.5797 C   0  0  0  0  0  0  0  0  0  0  0  0
   20.9133  -12.0584    6.2355 C   0  0  0  0  0  0  0  0  0  0  0  0
   19.8293  -11.5963    5.5000 C   0  0  0  0  0  0  0  0  0  0  0  0
   18.8538  -12.4960    5.1272 C   0  0  0  0  0  0  0  0  0  0  0  0
   18.9478  -13.8240    5.4738 C   0  0  0  0  0  0  0  0  0  0  0  0
   19.2330  -17.5665    7.9352 C   0  0  0  0  0  0  0  0  0  0  0  0
   19.9354  -18.2037    8.9753 O   0  0  0  0  0  0  0  0  0  0  0  0
   18.5785  -18.3049    7.1743 O   0  0  0  0  0  0  0  0  0  0  0  0
  2  1  1  0
  3  4  1  1
  3  2  1  0
  5  3  1  0
  5  6  2  0
  8  7  1  6
  8  9  1  0
  8 10  1  0
  9  5  1  0
 10 12  1  0
 10 11  2  0
 12 13  1  0
 13 14  1  6
 14 15  1  0
 15 20  2  0
 16 15  1  0
 16 17  2  0
 17 18  1  0
 18 19  2  0
 20 19  1  0
 21 22  1  0
 21 13  1  0
 23 21  2  0
M  END
$$$$
