DYE.pdb
     RDKit          3D

 30 30  0  0  1  0  0  0  0  0999 V2000
   25.5402  -18.2459  -19.1454 N   0  0  0  0  0  0  0  0  0  0  0  0
   25.1310  -17.7707  -17.7876 C   0  0  1  0  0  0  0  0  0  0  0  0
   24.0286  -16.7848  -18.0291 C   0  0  0  0  0  0  0  0  0  0  0  0
   22.8719  -17.4191  -18.6526 C   0  0  0  0  0  0  0  0  0  0  0  0
   22.9846  -18.1957  -19.6136 O   0  0  0  0  0  0  0  0  0  0  0  0
   24.7286  -18.9750  -17.0328 C   0  0  0  0  0  0  0  0  0  0  0  0
   24.4449  -20.0431  -17.6090 O   0  0  0  0  0  0  0  0  0  0  0  0
   21.5853  -17.1673  -18.1795 O   0  0  0  0  0  0  0  0  0  0  0  0
   29.6655  -23.1075  -16.8631 O   0  0  0  0  0  0  0  0  0  0  0  0
   28.6152  -22.5024  -16.1761 C   0  0  0  0  0  0  0  0  0  0  0  0
   28.7106  -21.1918  -15.7788 C   0  0  0  0  0  0  0  0  0  0  0  0
   27.6792  -20.5824  -15.0990 C   0  0  0  0  0  0  0  0  0  0  0  0
   26.4937  -21.2566  -14.7806 C   0  0  0  0  0  0  0  0  0  0  0  0
   25.4513  -20.5601  -14.0259 C   0  0  0  0  0  0  0  0  0  0  0  0
   24.2596  -20.0857  -14.7958 C   0  0  2  0  0  0  0  0  0  0  0  0
   24.6645  -18.9117  -15.6176 N   0  0  0  0  0  0  0  0  0  0  0  0
   23.1176  -19.6787  -13.9876 C   0  0  0  0  0  0  0  0  0  0  0  0
   22.9448  -18.4220  -13.7678 O   0  0  0  0  0  0  0  0  0  0  0  0
   26.4408  -22.5662  -15.1971 C   0  0  0  0  0  0  0  0  0  0  0  0
   27.4601  -23.1969  -15.8785 C   0  0  0  0  0  0  0  0  0  0  0  0
   22.1339  -20.4969  -13.3946 N   0  0  0  0  0  0  0  0  0  0  0  0
   20.9138  -19.9709  -12.8050 C   0  0  1  0  0  0  0  0  0  0  0  0
   20.2123  -19.1669  -13.9007 C   0  0  0  0  0  0  0  0  0  0  0  0
   18.8867  -18.6326  -13.5049 C   0  0  0  0  0  0  0  0  0  0  0  0
   18.1031  -17.9837  -14.5570 C   0  0  0  0  0  0  0  0  0  0  0  0
   17.6040  -18.5656  -15.5556 O   0  0  0  0  0  0  0  0  0  0  0  0
   20.0131  -20.9818  -12.2491 C   0  0  0  0  0  0  0  0  0  0  0  0
   20.1209  -22.1731  -12.6160 O   0  0  0  0  0  0  0  0  0  0  0  0
   17.8682  -16.6119  -14.4837 O   0  0  0  0  0  0  0  0  0  0  0  0
   19.0527  -20.6431  -11.3316 O   0  0  0  0  0  0  0  0  0  0  0  0
  2  1  1  6
  2  3  1  0
  4  5  2  0
  4  3  1  0
  6  7  2  0
  6  2  1  0
  8  4  1  0
  9 10  1  0
 10 11  2  0
 11 12  1  0
 13 12  2  0
 13 14  1  0
 15 14  1  1
 15 16  1  0
 16  6  1  0
 17 15  1  0
 17 18  2  0
 19 13  1  0
 20 10  1  0
 20 19  2  0
 21 17  1  0
 22 21  1  0
 22 23  1  6
 24 23  1  0
 25 24  1  0
 26 25  2  0
 27 22  1  0
 28 27  2  0
 29 25  1  0
 30 27  1  0
M  END
$$$$
