DYE.pdb
     RDKit          3D

 30 30  0  0  1  0  0  0  0  0999 V2000
   19.1750   -9.5850  -17.2744 N   0  0  0  0  0  0  0  0  0  0  0  0
   18.7233   -8.1890  -17.5645 C   0  0  1  0  0  0  0  0  0  0  0  0
   17.2639   -8.3041  -17.8849 C   0  0  0  0  0  0  0  0  0  0  0  0
   17.0499   -8.9463  -19.1774 C   0  0  0  0  0  0  0  0  0  0  0  0
   17.8424   -8.8068  -20.1218 O   0  0  0  0  0  0  0  0  0  0  0  0
   19.0301   -7.3965  -16.3562 C   0  0  0  0  0  0  0  0  0  0  0  0
   18.7033   -7.7862  -15.2185 O   0  0  0  0  0  0  0  0  0  0  0  0
   15.9306   -9.7484  -19.3931 O   0  0  0  0  0  0  0  0  0  0  0  0
   23.9653  -10.1592  -13.6917 O   0  0  0  0  0  0  0  0  0  0  0  0
   23.3819   -8.9525  -14.0723 C   0  0  0  0  0  0  0  0  0  0  0  0
   22.6034   -8.2493  -13.1868 C   0  0  0  0  0  0  0  0  0  0  0  0
   22.0212   -7.0553  -13.5510 C   0  0  0  0  0  0  0  0  0  0  0  0
   22.1891   -6.5012  -14.8263 C   0  0  0  0  0  0  0  0  0  0  0  0
   21.5140   -5.2464  -15.1592 C   0  0  0  0  0  0  0  0  0  0  0  0
   20.0282   -5.2994  -15.3248 C   0  0  2  0  0  0  0  0  0  0  0  0
   19.7137   -6.1621  -16.4972 N   0  0  0  0  0  0  0  0  0  0  0  0
   19.3796   -4.0132  -15.5440 C   0  0  0  0  0  0  0  0  0  0  0  0
   19.6150   -3.3933  -16.6476 O   0  0  0  0  0  0  0  0  0  0  0  0
   22.9757   -7.2381  -15.6804 C   0  0  0  0  0  0  0  0  0  0  0  0
   23.5683   -8.4350  -15.3383 C   0  0  0  0  0  0  0  0  0  0  0  0
   18.4920   -3.3280  -14.6889 N   0  0  0  0  0  0  0  0  0  0  0  0
   17.9449   -2.0172  -14.9979 C   0  0  1  0  0  0  0  0  0  0  0  0
   16.5566   -1.9632  -14.3586 C   0  0  0  0  0  0  0  0  0  0  0  0
   15.8298   -0.6925  -14.5960 C   0  0  0  0  0  0  0  0  0  0  0  0
   14.5117   -0.5672  -13.9724 C   0  0  0  0  0  0  0  0  0  0  0  0
   13.9493   -1.4531  -13.2767 O   0  0  0  0  0  0  0  0  0  0  0  0
   18.7629   -0.8880  -14.5527 C   0  0  0  0  0  0  0  0  0  0  0  0
   19.3016   -0.9234  -13.4239 O   0  0  0  0  0  0  0  0  0  0  0  0
   13.7887    0.6126  -14.1385 O   0  0  0  0  0  0  0  0  0  0  0  0
   18.9482    0.2083  -15.3543 O   0  0  0  0  0  0  0  0  0  0  0  0
  2  1  1  1
  2  3  1  0
  4  5  2  0
  4  3  1  0
  6  7  2  0
  6  2  1  0
  8  4  1  0
  9 10  1  0
 10 11  2  0
 11 12  1  0
 13 12  2  0
 13 14  1  0
 15 14  1  6
 15 16  1  0
 16  6  1  0
 17 15  1  0
 17 18  2  0
 19 13  1  0
 20 10  1  0
 20 19  2  0
 21 17  1  0
 22 21  1  0
 22 23  1  1
 24 23  1  0
 25 24  1  0
 26 25  2  0
 27 22  1  0
 28 27  2  0
 29 25  1  0
 30 27  1  0
M  END
$$$$
