DYE.pdb
     RDKit          3D

 30 30  0  0  1  0  0  0  0  0999 V2000
   34.6812  -29.7770  -21.4166 N   0  0  0  0  0  0  0  0  0  0  0  0
   33.2221  -29.5944  -21.6901 C   0  0  1  0  0  0  0  0  0  0  0  0
   33.0492  -29.9144  -23.1439 C   0  0  0  0  0  0  0  0  0  0  0  0
   33.4880  -28.8094  -23.9898 C   0  0  0  0  0  0  0  0  0  0  0  0
   33.3858  -28.8450  -25.2258 O   0  0  0  0  0  0  0  0  0  0  0  0
   32.5124  -30.5047  -20.7683 C   0  0  0  0  0  0  0  0  0  0  0  0
   32.9623  -31.6327  -20.4883 O   0  0  0  0  0  0  0  0  0  0  0  0
   34.0439  -27.6628  -23.4253 O   0  0  0  0  0  0  0  0  0  0  0  0
   27.1848  -32.8959  -14.0290 O   0  0  0  0  0  0  0  0  0  0  0  0
   27.9439  -32.2500  -15.0027 C   0  0  0  0  0  0  0  0  0  0  0  0
   29.2173  -32.6780  -15.2857 C   0  0  0  0  0  0  0  0  0  0  0  0
   29.9776  -32.0479  -16.2459 C   0  0  0  0  0  0  0  0  0  0  0  0
   29.5003  -30.9519  -16.9756 C   0  0  0  0  0  0  0  0  0  0  0  0
   30.3731  -30.3069  -17.9572 C   0  0  0  0  0  0  0  0  0  0  0  0
   30.4959  -30.9687  -19.2932 C   0  0  2  0  0  0  0  0  0  0  0  0
   31.2891  -30.0821  -20.1888 N   0  0  0  0  0  0  0  0  0  0  0  0
   29.2349  -31.2522  -19.9661 C   0  0  0  0  0  0  0  0  0  0  0  0
   28.5738  -30.2643  -20.4606 O   0  0  0  0  0  0  0  0  0  0  0  0
   28.2213  -30.5570  -16.6601 C   0  0  0  0  0  0  0  0  0  0  0  0
   27.4419  -31.1719  -15.7034 C   0  0  0  0  0  0  0  0  0  0  0  0
   28.6157  -32.5033  -20.1656 N   0  0  0  0  0  0  0  0  0  0  0  0
   27.3216  -32.6548  -20.8101 C   0  0  1  0  0  0  0  0  0  0  0  0
   27.1201  -34.1542  -21.0347 C   0  0  0  0  0  0  0  0  0  0  0  0
   28.3331  -34.9714  -20.7895 C   0  0  0  0  0  0  0  0  0  0  0  0
   28.2042  -36.4132  -21.0050 C   0  0  0  0  0  0  0  0  0  0  0  0
   27.8800  -36.9598  -22.0918 O   0  0  0  0  0  0  0  0  0  0  0  0
   26.1943  -32.0874  -20.0689 C   0  0  0  0  0  0  0  0  0  0  0  0
   25.1636  -31.7372  -20.6858 O   0  0  0  0  0  0  0  0  0  0  0  0
   28.4520  -37.2851  -19.9464 O   0  0  0  0  0  0  0  0  0  0  0  0
   26.2504  -31.9341  -18.7079 O   0  0  0  0  0  0  0  0  0  0  0  0
  2  1  1  1
  2  3  1  0
  4  5  2  0
  4  3  1  0
  6  7  2  0
  6  2  1  0
  8  4  1  0
  9 10  1  0
 10 11  2  0
 11 12  1  0
 13 12  2  0
 13 14  1  0
 15 14  1  1
 15 16  1  0
 16  6  1  0
 17 15  1  0
 17 18  2  0
 19 13  1  0
 20 10  1  0
 20 19  2  0
 21 17  1  0
 22 21  1  0
 22 23  1  1
 24 23  1  0
 25 24  1  0
 26 25  2  0
 27 22  1  0
 28 27  2  0
 29 25  1  0
 30 27  1  0
M  END
$$$$
