DYE.pdb
     RDKit          3D

 30 30  0  0  1  0  0  0  0  0999 V2000
   23.7564  -11.5410  -19.4623 N   0  0  0  0  0  0  0  0  0  0  0  0
   22.6107  -11.5086  -18.5014 C   0  0  1  0  0  0  0  0  0  0  0  0
   22.3132  -12.9443  -18.1919 C   0  0  0  0  0  0  0  0  0  0  0  0
   21.6755  -13.6130  -19.3212 C   0  0  0  0  0  0  0  0  0  0  0  0
   21.4616  -13.0316  -20.3962 O   0  0  0  0  0  0  0  0  0  0  0  0
   23.0642  -10.7084  -17.3454 C   0  0  0  0  0  0  0  0  0  0  0  0
   22.4803  -10.7596  -16.2457 O   0  0  0  0  0  0  0  0  0  0  0  0
   21.2813  -14.9464  -19.2242 O   0  0  0  0  0  0  0  0  0  0  0  0
   29.1835  -13.7551  -16.6019 O   0  0  0  0  0  0  0  0  0  0  0  0
   28.4368  -12.5800  -16.5472 C   0  0  0  0  0  0  0  0  0  0  0  0
   28.2397  -11.8307  -17.6805 C   0  0  0  0  0  0  0  0  0  0  0  0
   27.5036  -10.6673  -17.6394 C   0  0  0  0  0  0  0  0  0  0  0  0
   26.9242  -10.1918  -16.4563 C   0  0  0  0  0  0  0  0  0  0  0  0
   26.1835   -8.9300  -16.4754 C   0  0  0  0  0  0  0  0  0  0  0  0
   24.6935   -9.0173  -16.3742 C   0  0  2  0  0  0  0  0  0  0  0  0
   24.1923   -9.8620  -17.4935 N   0  0  0  0  0  0  0  0  0  0  0  0
   23.9889   -7.7435  -16.4405 C   0  0  0  0  0  0  0  0  0  0  0  0
   24.0431   -7.0748  -17.5393 O   0  0  0  0  0  0  0  0  0  0  0  0
   27.1466  -10.9726  -15.3463 C   0  0  0  0  0  0  0  0  0  0  0  0
   27.8796  -12.1403  -15.3634 C   0  0  0  0  0  0  0  0  0  0  0  0
   23.2220   -7.1187  -15.4356 N   0  0  0  0  0  0  0  0  0  0  0  0
   22.5186   -5.8630  -15.6392 C   0  0  1  0  0  0  0  0  0  0  0  0
   21.2916   -6.1850  -16.4938 C   0  0  0  0  0  0  0  0  0  0  0  0
   20.4400   -5.0095  -16.7972 C   0  0  0  0  0  0  0  0  0  0  0  0
   19.1832   -5.2767  -17.4982 C   0  0  0  0  0  0  0  0  0  0  0  0
   18.8182   -6.4001  -17.9337 O   0  0  0  0  0  0  0  0  0  0  0  0
   22.1253   -5.1713  -14.4108 C   0  0  0  0  0  0  0  0  0  0  0  0
   21.8992   -3.9410  -14.4406 O   0  0  0  0  0  0  0  0  0  0  0  0
   18.2915   -4.2291  -17.7212 O   0  0  0  0  0  0  0  0  0  0  0  0
   22.0006   -5.8514  -13.2272 O   0  0  0  0  0  0  0  0  0  0  0  0
  2  1  1  6
  2  3  1  0
  4  5  2  0
  4  3  1  0
  6  7  2  0
  6  2  1  0
  8  4  1  0
  9 10  1  0
 10 11  2  0
 11 12  1  0
 13 12  2  0
 13 14  1  0
 15 14  1  6
 15 16  1  0
 16  6  1  0
 17 15  1  0
 17 18  2  0
 19 13  1  0
 20 10  1  0
 20 19  2  0
 21 17  1  0
 22 21  1  0
 22 23  1  6
 24 23  1  0
 25 24  1  0
 26 25  2  0
 27 22  1  0
 28 27  2  0
 29 25  1  0
 30 27  1  0
M  END
$$$$
