DYE.pdb
     RDKit          3D

 30 30  0  0  1  0  0  0  0  0999 V2000
   34.7787   -9.3506  -16.5687 N   0  0  0  0  0  0  0  0  0  0  0  0
   35.9150  -10.2590  -16.2209 C   0  0  1  0  0  0  0  0  0  0  0  0
   36.9271  -10.0605  -17.3081 C   0  0  0  0  0  0  0  0  0  0  0  0
   36.5058  -10.6957  -18.5523 C   0  0  0  0  0  0  0  0  0  0  0  0
   36.5909  -10.1197  -19.6480 O   0  0  0  0  0  0  0  0  0  0  0  0
   36.3680   -9.8560  -14.8739 C   0  0  0  0  0  0  0  0  0  0  0  0
   36.4809   -8.6569  -14.5537 O   0  0  0  0  0  0  0  0  0  0  0  0
   35.9868  -11.9892  -18.5468 O   0  0  0  0  0  0  0  0  0  0  0  0
   38.0642  -11.1659   -6.1525 O   0  0  0  0  0  0  0  0  0  0  0  0
   37.7253  -11.3039   -7.4969 C   0  0  0  0  0  0  0  0  0  0  0  0
   37.2280  -10.2345   -8.1997 C   0  0  0  0  0  0  0  0  0  0  0  0
   36.8892  -10.3582   -9.5290 C   0  0  0  0  0  0  0  0  0  0  0  0
   37.0314  -11.5642  -10.2265 C   0  0  0  0  0  0  0  0  0  0  0  0
   36.6198  -11.6363  -11.6289 C   0  0  0  0  0  0  0  0  0  0  0  0
   37.0693  -10.5260  -12.5250 C   0  0  2  0  0  0  0  0  0  0  0  0
   36.6814  -10.8606  -13.9233 N   0  0  0  0  0  0  0  0  0  0  0  0
   38.5027  -10.2641  -12.5214 C   0  0  0  0  0  0  0  0  0  0  0  0
   39.2633  -11.0326  -13.2202 O   0  0  0  0  0  0  0  0  0  0  0  0
   37.5326  -12.6083   -9.4848 C   0  0  0  0  0  0  0  0  0  0  0  0
   37.8783  -12.5081   -8.1539 C   0  0  0  0  0  0  0  0  0  0  0  0
   39.2007   -9.2458  -11.8400 N   0  0  0  0  0  0  0  0  0  0  0  0
   40.6517   -9.1703  -11.7961 C   0  0  1  0  0  0  0  0  0  0  0  0
   41.0060   -7.6910  -11.6373 C   0  0  0  0  0  0  0  0  0  0  0  0
   42.4625   -7.4126  -11.6516 C   0  0  0  0  0  0  0  0  0  0  0  0
   42.8639   -6.0210  -11.4407 C   0  0  0  0  0  0  0  0  0  0  0  0
   42.3918   -5.0274  -12.0530 O   0  0  0  0  0  0  0  0  0  0  0  0
   41.2780   -9.9677  -10.7406 C   0  0  0  0  0  0  0  0  0  0  0  0
   40.8347   -9.9024   -9.5724 O   0  0  0  0  0  0  0  0  0  0  0  0
   43.8449   -5.7308  -10.4943 O   0  0  0  0  0  0  0  0  0  0  0  0
   42.3435  -10.7860  -11.0128 O   0  0  0  0  0  0  0  0  0  0  0  0
  2  1  1  6
  2  3  1  0
  4  5  2  0
  4  3  1  0
  6  7  2  0
  6  2  1  0
  8  4  1  0
  9 10  1  0
 10 11  2  0
 11 12  1  0
 13 12  2  0
 13 14  1  0
 15 14  1  1
 15 16  1  0
 16  6  1  0
 17 15  1  0
 17 18  2  0
 19 13  1  0
 20 10  1  0
 20 19  2  0
 21 17  1  0
 22 21  1  0
 22 23  1  1
 24 23  1  0
 25 24  1  0
 26 25  2  0
 27 22  1  0
 28 27  2  0
 29 25  1  0
 30 27  1  0
M  END
$$$$
