DYE.pdb
     RDKit          3D

 30 30  0  0  1  0  0  0  0  0999 V2000
   28.4086  -21.9728  -18.1383 N   0  0  0  0  0  0  0  0  0  0  0  0
   28.0665  -20.7416  -17.3611 C   0  0  1  0  0  0  0  0  0  0  0  0
   27.2989  -19.8741  -18.3119 C   0  0  0  0  0  0  0  0  0  0  0  0
   28.1746  -19.2737  -19.3127 C   0  0  0  0  0  0  0  0  0  0  0  0
   29.3640  -19.0121  -19.0758 O   0  0  0  0  0  0  0  0  0  0  0  0
   27.2996  -21.1969  -16.1834 C   0  0  0  0  0  0  0  0  0  0  0  0
   26.4874  -22.1392  -16.2567 O   0  0  0  0  0  0  0  0  0  0  0  0
   27.6929  -18.9711  -20.5851 O   0  0  0  0  0  0  0  0  0  0  0  0
   24.7131  -20.6344   -7.5296 O   0  0  0  0  0  0  0  0  0  0  0  0
   25.3622  -20.5612   -8.7604 C   0  0  0  0  0  0  0  0  0  0  0  0
   26.0553  -21.6431   -9.2439 C   0  0  0  0  0  0  0  0  0  0  0  0
   26.7010  -21.5831  -10.4591 C   0  0  0  0  0  0  0  0  0  0  0  0
   26.6861  -20.4319  -11.2565 C   0  0  0  0  0  0  0  0  0  0  0  0
   27.4221  -20.4240  -12.5211 C   0  0  0  0  0  0  0  0  0  0  0  0
   26.6832  -20.8832  -13.7382 C   0  0  2  0  0  0  0  0  0  0  0  0
   27.4946  -20.5438  -14.9398 N   0  0  0  0  0  0  0  0  0  0  0  0
   25.3629  -20.2955  -13.9239 C   0  0  0  0  0  0  0  0  0  0  0  0
   25.2845  -19.1422  -14.4908 O   0  0  0  0  0  0  0  0  0  0  0  0
   25.9808  -19.3731  -10.7342 C   0  0  0  0  0  0  0  0  0  0  0  0
   25.3270  -19.4098   -9.5209 C   0  0  0  0  0  0  0  0  0  0  0  0
   24.1107  -20.8341  -13.5626 N   0  0  0  0  0  0  0  0  0  0  0  0
   22.8538  -20.1377  -13.7822 C   0  0  1  0  0  0  0  0  0  0  0  0
   22.6278  -20.1139  -15.2947 C   0  0  0  0  0  0  0  0  0  0  0  0
   21.3389  -19.5058  -15.7046 C   0  0  0  0  0  0  0  0  0  0  0  0
   21.0290  -19.5333  -17.1348 C   0  0  0  0  0  0  0  0  0  0  0  0
   20.1597  -20.2654  -17.6764 O   0  0  0  0  0  0  0  0  0  0  0  0
   21.6993  -20.7202  -13.0966 C   0  0  0  0  0  0  0  0  0  0  0  0
   21.7002  -21.9388  -12.8128 O   0  0  0  0  0  0  0  0  0  0  0  0
   21.7308  -18.6962  -18.0002 O   0  0  0  0  0  0  0  0  0  0  0  0
   20.6164  -19.9502  -12.7600 O   0  0  0  0  0  0  0  0  0  0  0  0
  2  1  1  6
  2  3  1  0
  4  5  2  0
  4  3  1  0
  6  7  2  0
  6  2  1  0
  8  4  1  0
  9 10  1  0
 10 11  2  0
 11 12  1  0
 13 12  2  0
 13 14  1  0
 15 14  1  1
 15 16  1  0
 16  6  1  0
 17 15  1  0
 17 18  2  0
 19 13  1  0
 20 10  1  0
 20 19  2  0
 21 17  1  0
 22 21  1  0
 22 23  1  6
 24 23  1  0
 25 24  1  0
 26 25  2  0
 27 22  1  0
 28 27  2  0
 29 25  1  0
 30 27  1  0
M  END
$$$$
