DYE.pdb
     RDKit          3D

 30 30  0  0  1  0  0  0  0  0999 V2000
   22.9099  -35.1991  -11.5126 N   0  0  0  0  0  0  0  0  0  0  0  0
   24.3533  -34.8078  -11.4940 C   0  0  1  0  0  0  0  0  0  0  0  0
   24.5868  -34.0955  -12.7916 C   0  0  0  0  0  0  0  0  0  0  0  0
   24.9966  -35.0210  -13.8426 C   0  0  0  0  0  0  0  0  0  0  0  0
   25.2390  -34.6402  -14.9983 O   0  0  0  0  0  0  0  0  0  0  0  0
   24.5392  -33.9736  -10.2891 C   0  0  0  0  0  0  0  0  0  0  0  0
   25.5896  -33.3320  -10.0939 O   0  0  0  0  0  0  0  0  0  0  0  0
   25.1300  -36.3824  -13.5751 O   0  0  0  0  0  0  0  0  0  0  0  0
   21.5381  -28.1539  -11.8716 O   0  0  0  0  0  0  0  0  0  0  0  0
   21.7002  -29.1702  -10.9323 C   0  0  0  0  0  0  0  0  0  0  0  0
   22.6363  -29.0500   -9.9354 C   0  0  0  0  0  0  0  0  0  0  0  0
   22.8061  -30.0476   -9.0011 C   0  0  0  0  0  0  0  0  0  0  0  0
   22.0440  -31.2225   -9.0167 C   0  0  0  0  0  0  0  0  0  0  0  0
   22.2994  -32.2581   -8.0149 C   0  0  0  0  0  0  0  0  0  0  0  0
   23.5821  -33.0181   -8.1377 C   0  0  2  0  0  0  0  0  0  0  0  0
   23.4949  -33.9028   -9.3323 N   0  0  0  0  0  0  0  0  0  0  0  0
   23.9195  -33.8591   -6.9965 C   0  0  0  0  0  0  0  0  0  0  0  0
   23.3218  -34.9933   -6.8788 O   0  0  0  0  0  0  0  0  0  0  0  0
   21.1190  -31.3012  -10.0313 C   0  0  0  0  0  0  0  0  0  0  0  0
   20.9314  -30.3158  -10.9773 C   0  0  0  0  0  0  0  0  0  0  0  0
   24.8476  -33.5996   -5.9671 N   0  0  0  0  0  0  0  0  0  0  0  0
   25.0737  -34.5074   -4.8546 C   0  0  1  0  0  0  0  0  0  0  0  0
   26.5130  -34.2777   -4.3909 C   0  0  0  0  0  0  0  0  0  0  0  0
   26.9440  -35.1720   -3.2892 C   0  0  0  0  0  0  0  0  0  0  0  0
   28.3082  -34.9863   -2.7926 C   0  0  0  0  0  0  0  0  0  0  0  0
   28.6388  -34.2327   -1.8399 O   0  0  0  0  0  0  0  0  0  0  0  0
   24.1407  -34.3563   -3.7371 C   0  0  0  0  0  0  0  0  0  0  0  0
   23.7591  -33.2128   -3.4021 O   0  0  0  0  0  0  0  0  0  0  0  0
   29.3537  -35.6822   -3.3966 O   0  0  0  0  0  0  0  0  0  0  0  0
   23.6778  -35.4494   -3.0518 O   0  0  0  0  0  0  0  0  0  0  0  0
  2  1  1  6
  2  3  1  0
  4  5  2  0
  4  3  1  0
  6  7  2  0
  6  2  1  0
  8  4  1  0
  9 10  1  0
 10 11  2  0
 11 12  1  0
 13 12  2  0
 13 14  1  0
 15 14  1  1
 15 16  1  0
 16  6  1  0
 17 15  1  0
 17 18  2  0
 19 13  1  0
 20 10  1  0
 20 19  2  0
 21 17  1  0
 22 21  1  0
 22 23  1  1
 24 23  1  0
 25 24  1  0
 26 25  2  0
 27 22  1  0
 28 27  2  0
 29 25  1  0
 30 27  1  0
M  END
$$$$
