DYE.pdb
     RDKit          3D

 30 30  0  0  1  0  0  0  0  0999 V2000
   33.4859  -37.5819   -3.1006 N   0  0  0  0  0  0  0  0  0  0  0  0
   32.1878  -38.0623   -2.5337 C   0  0  1  0  0  0  0  0  0  0  0  0
   32.5452  -38.7399   -1.2458 C   0  0  0  0  0  0  0  0  0  0  0  0
   33.1404  -40.0514   -1.4795 C   0  0  0  0  0  0  0  0  0  0  0  0
   32.9312  -40.6940   -2.5200 O   0  0  0  0  0  0  0  0  0  0  0  0
   31.3339  -36.8659   -2.3864 C   0  0  0  0  0  0  0  0  0  0  0  0
   31.8122  -35.7540   -2.0899 O   0  0  0  0  0  0  0  0  0  0  0  0
   33.9752  -40.6306   -0.5253 O   0  0  0  0  0  0  0  0  0  0  0  0
   23.6908  -32.2409   -3.3389 O   0  0  0  0  0  0  0  0  0  0  0  0
   24.7705  -33.1167   -3.4311 C   0  0  0  0  0  0  0  0  0  0  0  0
   24.7152  -34.3507   -2.8319 C   0  0  0  0  0  0  0  0  0  0  0  0
   25.7759  -35.2253   -2.9158 C   0  0  0  0  0  0  0  0  0  0  0  0
   26.9520  -34.9084   -3.6070 C   0  0  0  0  0  0  0  0  0  0  0  0
   28.0547  -35.8700   -3.6277 C   0  0  0  0  0  0  0  0  0  0  0  0
   29.0214  -35.8174   -2.4872 C   0  0  2  0  0  0  0  0  0  0  0  0
   29.9356  -36.9885   -2.5880 N   0  0  0  0  0  0  0  0  0  0  0  0
   28.4208  -35.8466   -1.1599 C   0  0  0  0  0  0  0  0  0  0  0  0
   28.0597  -36.9856   -0.6804 O   0  0  0  0  0  0  0  0  0  0  0  0
   26.9644  -33.6636   -4.1914 C   0  0  0  0  0  0  0  0  0  0  0  0
   25.9153  -32.7718   -4.1208 C   0  0  0  0  0  0  0  0  0  0  0  0
   28.1755  -34.7638   -0.2905 N   0  0  0  0  0  0  0  0  0  0  0  0
   27.5012  -34.9099    0.9889 C   0  0  1  0  0  0  0  0  0  0  0  0
   26.0626  -35.3255    0.6778 C   0  0  0  0  0  0  0  0  0  0  0  0
   25.2527  -35.6477    1.8776 C   0  0  0  0  0  0  0  0  0  0  0  0
   23.8373  -35.9430    1.6506 C   0  0  0  0  0  0  0  0  0  0  0  0
   23.0278  -35.1970    1.0396 O   0  0  0  0  0  0  0  0  0  0  0  0
   28.1261  -35.8612    1.9091 C   0  0  0  0  0  0  0  0  0  0  0  0
   27.6273  -36.0423    3.0422 O   0  0  0  0  0  0  0  0  0  0  0  0
   23.3042  -37.1364    2.1341 O   0  0  0  0  0  0  0  0  0  0  0  0
   29.2502  -36.5575    1.5480 O   0  0  0  0  0  0  0  0  0  0  0  0
  2  1  1  1
  2  3  1  0
  4  5  2  0
  4  3  1  0
  6  7  2  0
  6  2  1  0
  8  4  1  0
  9 10  1  0
 10 11  2  0
 11 12  1  0
 13 12  2  0
 13 14  1  0
 15 14  1  6
 15 16  1  0
 16  6  1  0
 17 15  1  0
 17 18  2  0
 19 13  1  0
 20 10  1  0
 20 19  2  0
 21 17  1  0
 22 21  1  0
 22 23  1  6
 24 23  1  0
 25 24  1  0
 26 25  2  0
 27 22  1  0
 28 27  2  0
 29 25  1  0
 30 27  1  0
M  END
$$$$
