DYE.pdb
     RDKit          3D

 30 30  0  0  1  0  0  0  0  0999 V2000
   29.7421   -9.4256  -17.2811 N   0  0  0  0  0  0  0  0  0  0  0  0
   28.8327   -8.5291  -18.0597 C   0  0  1  0  0  0  0  0  0  0  0  0
   29.3161   -8.6088  -19.4759 C   0  0  0  0  0  0  0  0  0  0  0  0
   30.6179   -7.9687  -19.6326 C   0  0  0  0  0  0  0  0  0  0  0  0
   31.6708   -8.6223  -19.6915 O   0  0  0  0  0  0  0  0  0  0  0  0
   27.4641   -9.0417  -17.8441 C   0  0  0  0  0  0  0  0  0  0  0  0
   26.5878   -8.9565  -18.7261 O   0  0  0  0  0  0  0  0  0  0  0  0
   30.7188   -6.5814  -19.7223 O   0  0  0  0  0  0  0  0  0  0  0  0
   27.9069  -16.1545  -17.7384 O   0  0  0  0  0  0  0  0  0  0  0  0
   27.4430  -14.9842  -17.1413 C   0  0  0  0  0  0  0  0  0  0  0  0
   26.2387  -14.4438  -17.5186 C   0  0  0  0  0  0  0  0  0  0  0  0
   25.7693  -13.2874  -16.9358 C   0  0  0  0  0  0  0  0  0  0  0  0
   26.4845  -12.6092  -15.9409 C   0  0  0  0  0  0  0  0  0  0  0  0
   25.9447  -11.3666  -15.3882 C   0  0  0  0  0  0  0  0  0  0  0  0
   25.7933  -10.2150  -16.3310 C   0  0  2  0  0  0  0  0  0  0  0  0
   27.1423   -9.6455  -16.6020 N   0  0  0  0  0  0  0  0  0  0  0  0
   24.9488   -9.1271  -15.8551 C   0  0  0  0  0  0  0  0  0  0  0  0
   25.3875   -8.3924  -14.8932 O   0  0  0  0  0  0  0  0  0  0  0  0
   27.6843  -13.1849  -15.5938 C   0  0  0  0  0  0  0  0  0  0  0  0
   28.1742  -14.3412  -16.1629 C   0  0  0  0  0  0  0  0  0  0  0  0
   23.6732   -8.7467  -16.3206 N   0  0  0  0  0  0  0  0  0  0  0  0
   22.9128   -7.6496  -15.7451 C   0  0  1  0  0  0  0  0  0  0  0  0
   22.5215   -6.7348  -16.9067 C   0  0  0  0  0  0  0  0  0  0  0  0
   21.6567   -5.5955  -16.5152 C   0  0  0  0  0  0  0  0  0  0  0  0
   21.1620   -4.7474  -17.6006 C   0  0  0  0  0  0  0  0  0  0  0  0
   20.3736   -3.7756  -17.4623 O   0  0  0  0  0  0  0  0  0  0  0  0
   21.7294   -8.0531  -14.9842 C   0  0  0  0  0  0  0  0  0  0  0  0
   21.1854   -9.1535  -15.2266 O   0  0  0  0  0  0  0  0  0  0  0  0
   21.5735   -5.0038  -18.9071 O   0  0  0  0  0  0  0  0  0  0  0  0
   21.2079   -7.2433  -14.0089 O   0  0  0  0  0  0  0  0  0  0  0  0
  2  1  1  1
  2  3  1  0
  4  5  2  0
  4  3  1  0
  6  7  2  0
  6  2  1  0
  8  4  1  0
  9 10  1  0
 10 11  2  0
 11 12  1  0
 13 12  2  0
 13 14  1  0
 15 14  1  1
 15 16  1  0
 16  6  1  0
 17 15  1  0
 17 18  2  0
 19 13  1  0
 20 10  1  0
 20 19  2  0
 21 17  1  0
 22 21  1  0
 22 23  1  6
 24 23  1  0
 25 24  1  0
 26 25  2  0
 27 22  1  0
 28 27  2  0
 29 25  1  0
 30 27  1  0
M  END
$$$$
