DYE.pdb
     RDKit          3D

 30 30  0  0  1  0  0  0  0  0999 V2000
   28.3222  -22.9659  -17.8486 N   0  0  0  0  0  0  0  0  0  0  0  0
   28.0516  -21.6084  -17.2821 C   0  0  1  0  0  0  0  0  0  0  0  0
   27.3958  -20.8411  -18.3898 C   0  0  0  0  0  0  0  0  0  0  0  0
   28.3579  -20.4610  -19.4187 C   0  0  0  0  0  0  0  0  0  0  0  0
   29.5342  -20.1743  -19.1474 O   0  0  0  0  0  0  0  0  0  0  0  0
   27.2042  -21.8197  -16.0907 C   0  0  0  0  0  0  0  0  0  0  0  0
   26.3055  -22.6829  -16.0726 O   0  0  0  0  0  0  0  0  0  0  0  0
   27.9780  -20.4078  -20.7587 O   0  0  0  0  0  0  0  0  0  0  0  0
   24.6088  -20.1243   -7.6122 O   0  0  0  0  0  0  0  0  0  0  0  0
   25.2935  -20.2695   -8.8169 C   0  0  0  0  0  0  0  0  0  0  0  0
   25.6886  -19.1632   -9.5273 C   0  0  0  0  0  0  0  0  0  0  0  0
   26.3660  -19.2935  -10.7195 C   0  0  0  0  0  0  0  0  0  0  0  0
   26.6842  -20.5438  -11.2645 C   0  0  0  0  0  0  0  0  0  0  0  0
   27.3751  -20.6115  -12.5526 C   0  0  0  0  0  0  0  0  0  0  0  0
   26.6101  -21.1861  -13.7026 C   0  0  2  0  0  0  0  0  0  0  0  0
   27.4210  -21.0193  -14.9404 N   0  0  0  0  0  0  0  0  0  0  0  0
   25.3083  -20.5799  -13.9497 C   0  0  0  0  0  0  0  0  0  0  0  0
   25.2700  -19.4528  -14.5708 O   0  0  0  0  0  0  0  0  0  0  0  0
   26.2699  -21.6238  -10.5207 C   0  0  0  0  0  0  0  0  0  0  0  0
   25.5910  -21.5178   -9.3254 C   0  0  0  0  0  0  0  0  0  0  0  0
   24.0357  -21.0746  -13.5972 N   0  0  0  0  0  0  0  0  0  0  0  0
   22.8052  -20.3352  -13.8257 C   0  0  1  0  0  0  0  0  0  0  0  0
   22.4394  -20.5429  -15.2962 C   0  0  0  0  0  0  0  0  0  0  0  0
   21.2123  -19.8270  -15.7216 C   0  0  0  0  0  0  0  0  0  0  0  0
   20.7824  -20.0327  -17.1054 C   0  0  0  0  0  0  0  0  0  0  0  0
   19.6324  -20.4002  -17.4625 O   0  0  0  0  0  0  0  0  0  0  0  0
   21.6893  -20.7134  -12.9575 C   0  0  0  0  0  0  0  0  0  0  0  0
   21.7893  -21.7265  -12.2299 O   0  0  0  0  0  0  0  0  0  0  0  0
   21.6898  -19.8145  -18.1404 O   0  0  0  0  0  0  0  0  0  0  0  0
   20.5356  -19.9739  -12.9290 O   0  0  0  0  0  0  0  0  0  0  0  0
  2  1  1  6
  2  3  1  0
  4  5  2  0
  4  3  1  0
  6  7  2  0
  6  2  1  0
  8  4  1  0
  9 10  1  0
 10 11  2  0
 11 12  1  0
 13 12  2  0
 13 14  1  0
 15 14  1  1
 15 16  1  0
 16  6  1  0
 17 15  1  0
 17 18  2  0
 19 13  1  0
 20 10  1  0
 20 19  2  0
 21 17  1  0
 22 21  1  0
 22 23  1  6
 24 23  1  0
 25 24  1  0
 26 25  2  0
 27 22  1  0
 28 27  2  0
 29 25  1  0
 30 27  1  0
M  END
$$$$
