DYE.pdb
     RDKit          3D

 30 30  0  0  1  0  0  0  0  0999 V2000
   41.0487   -3.6459   -7.9941 N   0  0  0  0  0  0  0  0  0  0  0  0
   41.4871   -4.6339   -9.0280 C   0  0  1  0  0  0  0  0  0  0  0  0
   42.8251   -4.1485   -9.4967 C   0  0  0  0  0  0  0  0  0  0  0  0
   42.7038   -2.9273  -10.2860 C   0  0  0  0  0  0  0  0  0  0  0  0
   43.3138   -1.8882   -9.9902 O   0  0  0  0  0  0  0  0  0  0  0  0
   41.5071   -5.9504   -8.3583 C   0  0  0  0  0  0  0  0  0  0  0  0
   41.9655   -6.0918   -7.2081 O   0  0  0  0  0  0  0  0  0  0  0  0
   41.8858   -2.8913  -11.4139 O   0  0  0  0  0  0  0  0  0  0  0  0
   35.4476   -7.3270   -5.3087 O   0  0  0  0  0  0  0  0  0  0  0  0
   36.5061   -7.7694   -6.0994 C   0  0  0  0  0  0  0  0  0  0  0  0
   36.6722   -7.2810   -7.3717 C   0  0  0  0  0  0  0  0  0  0  0  0
   37.7144   -7.7105   -8.1631 C   0  0  0  0  0  0  0  0  0  0  0  0
   38.6484   -8.6552   -7.7198 C   0  0  0  0  0  0  0  0  0  0  0  0
   39.7117   -9.0940   -8.6244 C   0  0  0  0  0  0  0  0  0  0  0  0
   41.0510   -8.4483   -8.4595 C   0  0  2  0  0  0  0  0  0  0  0  0
   40.9912   -7.0797   -9.0435 N   0  0  0  0  0  0  0  0  0  0  0  0
   42.1611   -9.1453   -9.0960 C   0  0  0  0  0  0  0  0  0  0  0  0
   42.1504   -9.2636  -10.3780 O   0  0  0  0  0  0  0  0  0  0  0  0
   38.4444   -9.1173   -6.4407 C   0  0  0  0  0  0  0  0  0  0  0  0
   37.4089   -8.7022   -5.6305 C   0  0  0  0  0  0  0  0  0  0  0  0
   43.2915   -9.7253   -8.4841 N   0  0  0  0  0  0  0  0  0  0  0  0
   44.3419  -10.3968   -9.2316 C   0  0  1  0  0  0  0  0  0  0  0  0
   45.1107   -9.3054   -9.9781 C   0  0  0  0  0  0  0  0  0  0  0  0
   46.2664   -9.8064  -10.7607 C   0  0  0  0  0  0  0  0  0  0  0  0
   47.0560   -8.8026  -11.4755 C   0  0  0  0  0  0  0  0  0  0  0  0
   47.3523   -7.6614  -11.0342 O   0  0  0  0  0  0  0  0  0  0  0  0
   45.2521  -11.2077   -8.4215 C   0  0  0  0  0  0  0  0  0  0  0  0
   46.0927  -11.9424   -8.9864 O   0  0  0  0  0  0  0  0  0  0  0  0
   47.5372   -9.0955  -12.7501 O   0  0  0  0  0  0  0  0  0  0  0  0
   45.1978  -11.1741   -7.0523 O   0  0  0  0  0  0  0  0  0  0  0  0
  2  1  1  1
  2  3  1  0
  4  5  2  0
  4  3  1  0
  6  7  2  0
  6  2  1  0
  8  4  1  0
  9 10  1  0
 10 11  2  0
 11 12  1  0
 13 12  2  0
 13 14  1  0
 15 14  1  6
 15 16  1  0
 16  6  1  0
 17 15  1  0
 17 18  2  0
 19 13  1  0
 20 10  1  0
 20 19  2  0
 21 17  1  0
 22 21  1  0
 22 23  1  1
 24 23  1  0
 25 24  1  0
 26 25  2  0
 27 22  1  0
 28 27  2  0
 29 25  1  0
 30 27  1  0
M  END
$$$$
