DYE.pdb
     RDKit          3D

 30 30  0  0  1  0  0  0  0  0999 V2000
   23.1537  -13.9989  -16.8487 N   0  0  0  0  0  0  0  0  0  0  0  0
   22.8272  -12.6085  -17.2930 C   0  0  1  0  0  0  0  0  0  0  0  0
   21.3901  -12.6553  -17.7151 C   0  0  0  0  0  0  0  0  0  0  0  0
   21.2164  -13.4406  -18.9326 C   0  0  0  0  0  0  0  0  0  0  0  0
   22.0412  -13.4113  -19.8589 O   0  0  0  0  0  0  0  0  0  0  0  0
   23.1036  -11.7305  -16.1376 C   0  0  0  0  0  0  0  0  0  0  0  0
   22.5820  -11.9320  -15.0239 O   0  0  0  0  0  0  0  0  0  0  0  0
   20.1006  -14.2602  -19.0935 O   0  0  0  0  0  0  0  0  0  0  0  0
   28.9195  -13.4411  -17.6822 O   0  0  0  0  0  0  0  0  0  0  0  0
   28.1237  -12.5461  -16.9701 C   0  0  0  0  0  0  0  0  0  0  0  0
   27.6413  -11.4131  -17.5770 C   0  0  0  0  0  0  0  0  0  0  0  0
   26.8537  -10.5208  -16.8838 C   0  0  0  0  0  0  0  0  0  0  0  0
   26.5069  -10.7174  -15.5412 C   0  0  0  0  0  0  0  0  0  0  0  0
   25.6954   -9.7123  -14.8539 C   0  0  0  0  0  0  0  0  0  0  0  0
   24.2422   -9.6589  -15.2050 C   0  0  2  0  0  0  0  0  0  0  0  0
   23.9849  -10.6318  -16.3026 N   0  0  0  0  0  0  0  0  0  0  0  0
   23.7566   -8.3597  -15.6518 C   0  0  0  0  0  0  0  0  0  0  0  0
   23.7323   -8.1215  -16.9168 O   0  0  0  0  0  0  0  0  0  0  0  0
   27.0111  -11.8640  -14.9733 C   0  0  0  0  0  0  0  0  0  0  0  0
   27.8011  -12.7712  -15.6470 C   0  0  0  0  0  0  0  0  0  0  0  0
   23.2860   -7.2879  -14.8655 N   0  0  0  0  0  0  0  0  0  0  0  0
   22.6016   -6.1338  -15.4247 C   0  0  1  0  0  0  0  0  0  0  0  0
   21.3412   -6.6647  -16.1094 C   0  0  0  0  0  0  0  0  0  0  0  0
   20.5211   -5.6170  -16.7642 C   0  0  0  0  0  0  0  0  0  0  0  0
   19.2601   -6.0544  -17.3647 C   0  0  0  0  0  0  0  0  0  0  0  0
   18.3438   -5.2913  -17.7686 O   0  0  0  0  0  0  0  0  0  0  0  0
   22.2626   -5.0901  -14.4561 C   0  0  0  0  0  0  0  0  0  0  0  0
   22.1907   -5.3764  -13.2402 O   0  0  0  0  0  0  0  0  0  0  0  0
   19.0160   -7.4178  -17.5194 O   0  0  0  0  0  0  0  0  0  0  0  0
   22.0229   -3.8028  -14.8612 O   0  0  0  0  0  0  0  0  0  0  0  0
  2  1  1  1
  2  3  1  0
  4  5  2  0
  4  3  1  0
  6  7  2  0
  6  2  1  0
  8  4  1  0
  9 10  1  0
 10 11  2  0
 11 12  1  0
 13 12  2  0
 13 14  1  0
 15 14  1  6
 15 16  1  0
 16  6  1  0
 17 15  1  0
 17 18  2  0
 19 13  1  0
 20 10  1  0
 20 19  2  0
 21 17  1  0
 22 21  1  0
 22 23  1  1
 24 23  1  0
 25 24  1  0
 26 25  2  0
 27 22  1  0
 28 27  2  0
 29 25  1  0
 30 27  1  0
M  END
$$$$
