RYQ.pdb
     RDKit          3D

 33 33  0  0  1  0  0  0  0  0999 V2000
   19.3027   -7.8161   12.3078 N   0  0  0  0  0  0  0  0  0  0  0  0
   19.7300   -6.7755   11.4149 C   0  0  0  0  0  0  0  0  0  0  0  0
   19.0316   -5.7050   11.2650 N   0  0  0  0  0  0  0  0  0  0  0  0
   20.9378   -6.9737   10.7143 N   0  0  0  0  0  0  0  0  0  0  0  0
   21.8895   -7.9489   11.1898 C   0  0  0  0  0  0  0  0  0  0  0  0
   22.4210   -8.7722   10.0555 C   0  0  0  0  0  0  0  0  0  0  0  0
   23.8272   -9.2170   10.3652 C   0  0  0  0  0  0  0  0  0  0  0  0
   24.4339   -9.9514    9.1781 C   0  0  2  0  0  0  0  0  0  0  0  0
   24.6319   -9.0671    8.0723 N   0  0  0  0  0  0  0  0  0  0  0  0
   23.5365  -11.0898    8.8560 C   0  0  0  0  0  0  0  0  0  0  0  0
   22.8490  -11.0835    7.8023 O   0  0  0  0  0  0  0  0  0  0  0  0
   19.2955   -4.9646   10.5843 O   0  0  0  0  0  0  0  0  0  0  0  0
   19.9589  -19.1535    8.5328 C   0  0  0  0  0  0  0  0  0  0  0  0
   20.7755  -18.0651    8.7937 C   0  0  0  0  0  0  0  0  0  0  0  0
   20.5722  -17.3401    9.9339 C   0  0  0  0  0  0  0  0  0  0  0  0
   21.3813  -16.2561   10.1992 C   0  0  0  0  0  0  0  0  0  0  0  0
   22.3998  -15.8549    9.3674 C   0  0  0  0  0  0  0  0  0  0  0  0
   23.2867  -14.6845    9.6394 C   0  0  1  0  0  0  0  0  0  0  0  0
   22.6246  -13.3729    9.3285 N   0  0  0  0  0  0  0  0  0  0  0  0
   23.3972  -12.2311    9.6923 C   0  0  0  0  0  0  0  0  0  0  0  0
   21.2966  -13.3652    9.9771 O   0  0  0  0  0  0  0  0  0  0  0  0
   21.2478  -13.1594   11.2168 C   0  0  0  0  0  0  0  0  0  0  0  0
   22.5939  -16.6064    8.2068 C   0  0  0  0  0  0  0  0  0  0  0  0
   21.7873  -17.6895    7.9395 N   0  0  0  0  0  0  0  0  0  0  0  0
   16.8919   -9.8767    8.7966 C   0  0  0  0  0  0  0  0  0  0  0  0
   16.4782  -11.1160    8.2335 O   0  0  0  0  0  0  0  0  0  0  0  0
   15.5580  -11.1194    7.4054 C   0  0  0  0  0  0  0  0  0  0  0  0
   17.1277  -12.3780    8.6230 C   0  0  0  0  0  0  0  0  0  0  0  0
   18.1991  -12.1212    9.6330 C   0  0  1  0  0  0  0  0  0  0  0  0
   18.8167  -13.4601   10.0267 N   0  0  0  0  0  0  0  0  0  0  0  0
   20.0635  -13.5723    9.2938 C   0  0  0  0  0  0  0  0  0  0  0  0
   17.9421  -14.5818    9.6646 O   0  0  0  0  0  0  0  0  0  0  0  0
   18.1673  -15.4288    8.7759 O   0  0  0  0  0  0  0  0  0  0  0  0
  2  1  1  0
  3  2  2  0
  4  2  1  0
  5  6  1  0
  5  4  1  0
  7  6  1  0
  8  7  1  0
  8 10  1  0
  8  9  1  6
 10 19  1  0
 10 11  2  0
 12 13  1  0
 13 23  2  0
 13 14  1  0
 14 15  2  0
 15 16  1  0
 16 17  1  0
 18 17  1  6
 19 18  1  0
 20 18  1  0
 20 30  1  0
 21 20  2  0
 22 16  2  0
 23 22  1  0
 24 25  1  0
 25 26  2  0
 27 25  1  0
 27 28  1  0
 29 28  1  1
 29 30  1  0
 29 31  1  0
 31 33  1  0
 32 31  2  0
M  END
$$$$
