RYQ.pdb
     RDKit          3D

 33 33  0  0  1  0  0  0  0  0999 V2000
   29.7101  -26.1554  -17.1448 N   0  0  0  0  0  0  0  0  0  0  0  0
   30.5906  -26.3337  -18.2653 C   0  0  0  0  0  0  0  0  0  0  0  0
   31.3355  -27.3789  -18.3610 N   0  0  0  0  0  0  0  0  0  0  0  0
   30.6053  -25.3236  -19.2494 N   0  0  0  0  0  0  0  0  0  0  0  0
   29.6999  -24.2050  -19.1405 C   0  0  0  0  0  0  0  0  0  0  0  0
   30.3088  -23.1037  -18.3260 C   0  0  0  0  0  0  0  0  0  0  0  0
   29.5425  -22.9397  -17.0388 C   0  0  0  0  0  0  0  0  0  0  0  0
   28.2603  -22.1533  -17.2714 C   0  0  2  0  0  0  0  0  0  0  0  0
   28.5453  -20.8136  -17.6814 N   0  0  0  0  0  0  0  0  0  0  0  0
   27.4669  -22.2191  -16.0179 C   0  0  0  0  0  0  0  0  0  0  0  0
   27.1773  -23.3298  -15.5024 O   0  0  0  0  0  0  0  0  0  0  0  0
   31.9327  -27.5566  -19.1934 O   0  0  0  0  0  0  0  0  0  0  0  0
   23.5446  -20.6321   -8.3369 C   0  0  0  0  0  0  0  0  0  0  0  0
   24.3243  -20.5487   -9.4790 C   0  0  0  0  0  0  0  0  0  0  0  0
   24.0689  -19.5602  -10.3873 C   0  0  0  0  0  0  0  0  0  0  0  0
   24.8411  -19.4719  -11.5256 C   0  0  0  0  0  0  0  0  0  0  0  0
   25.8726  -20.3369  -11.8051 C   0  0  0  0  0  0  0  0  0  0  0  0
   26.7200  -20.2554  -13.0321 C   0  0  1  0  0  0  0  0  0  0  0  0
   26.2152  -21.1312  -14.1426 N   0  0  0  0  0  0  0  0  0  0  0  0
   26.9944  -21.0653  -15.3349 C   0  0  0  0  0  0  0  0  0  0  0  0
   24.8005  -20.7838  -14.3927 O   0  0  0  0  0  0  0  0  0  0  0  0
   24.5138  -19.5719  -14.5687 C   0  0  0  0  0  0  0  0  0  0  0  0
   26.1202  -21.3408  -10.8669 C   0  0  0  0  0  0  0  0  0  0  0  0
   25.3504  -21.4313   -9.7292 N   0  0  0  0  0  0  0  0  0  0  0  0
   20.0872  -23.6233  -12.5829 C   0  0  0  0  0  0  0  0  0  0  0  0
   19.6667  -22.2912  -12.8522 O   0  0  0  0  0  0  0  0  0  0  0  0
   18.5224  -22.1009  -13.2845 C   0  0  0  0  0  0  0  0  0  0  0  0
   20.5702  -21.1520  -12.6237 C   0  0  0  0  0  0  0  0  0  0  0  0
   21.9914  -21.5662  -12.8305 C   0  0  2  0  0  0  0  0  0  0  0  0
   22.3695  -21.2724  -14.2795 N   0  0  0  0  0  0  0  0  0  0  0  0
   23.7356  -21.7287  -14.4515 C   0  0  0  0  0  0  0  0  0  0  0  0
   22.3007  -19.8357  -14.5716 O   0  0  0  0  0  0  0  0  0  0  0  0
   23.0930  -18.9652  -14.1562 O   0  0  0  0  0  0  0  0  0  0  0  0
  2  1  1  0
  3  2  2  0
  4  2  1  0
  5  6  1  0
  5  4  1  0
  7  6  1  0
  8  7  1  0
  8 10  1  0
  8  9  1  1
 10 19  1  0
 10 11  2  0
 12 13  1  0
 13 23  2  0
 13 14  1  0
 14 15  2  0
 15 16  1  0
 16 17  1  0
 18 17  1  1
 19 18  1  0
 20 18  1  0
 20 30  1  0
 21 20  2  0
 22 16  2  0
 23 22  1  0
 24 25  1  0
 25 26  2  0
 27 25  1  0
 27 28  1  0
 29 28  1  6
 29 30  1  0
 29 31  1  0
 31 33  1  0
 32 31  2  0
M  END
$$$$
