RYQ.pdb
     RDKit          3D

 33 33  0  0  1  0  0  0  0  0999 V2000
   22.2869  -19.9037  -19.4625 N   0  0  0  0  0  0  0  0  0  0  0  0
   21.4177  -20.8991  -20.0248 C   0  0  0  0  0  0  0  0  0  0  0  0
   21.8896  -21.8663  -20.7307 N   0  0  0  0  0  0  0  0  0  0  0  0
   20.0356  -20.7739  -19.7735 N   0  0  0  0  0  0  0  0  0  0  0  0
   19.5652  -19.7803  -18.8385 C   0  0  0  0  0  0  0  0  0  0  0  0
   19.6670  -20.2833  -17.4300 C   0  0  0  0  0  0  0  0  0  0  0  0
   18.9709  -19.3264  -16.4968 C   0  0  0  0  0  0  0  0  0  0  0  0
   17.7978  -20.0059  -15.8048 C   0  0  2  0  0  0  0  0  0  0  0  0
   17.7952  -21.4128  -16.0585 N   0  0  0  0  0  0  0  0  0  0  0  0
   16.5590  -19.3313  -16.2689 C   0  0  0  0  0  0  0  0  0  0  0  0
   16.1134  -19.5393  -17.4270 O   0  0  0  0  0  0  0  0  0  0  0  0
   21.2749  -22.5838  -21.1647 O   0  0  0  0  0  0  0  0  0  0  0  0
    8.5477  -16.2653  -17.3253 C   0  0  0  0  0  0  0  0  0  0  0  0
    9.7245  -16.7996  -16.8262 C   0  0  0  0  0  0  0  0  0  0  0  0
   10.1508  -16.4232  -15.5837 C   0  0  0  0  0  0  0  0  0  0  0  0
   11.3208  -16.9512  -15.0815 C   0  0  0  0  0  0  0  0  0  0  0  0
   12.0980  -17.8514  -15.7713 C   0  0  0  0  0  0  0  0  0  0  0  0
   13.3672  -18.4345  -15.2425 C   0  0  2  0  0  0  0  0  0  0  0  0
   14.5880  -17.8372  -15.8813 N   0  0  0  0  0  0  0  0  0  0  0  0
   15.8140  -18.4305  -15.4596 C   0  0  0  0  0  0  0  0  0  0  0  0
   14.5696  -16.3806  -15.6311 O   0  0  0  0  0  0  0  0  0  0  0  0
   14.8042  -15.9808  -14.4620 C   0  0  0  0  0  0  0  0  0  0  0  0
   11.6482  -18.2253  -17.0391 C   0  0  0  0  0  0  0  0  0  0  0  0
   10.4800  -17.6994  -17.5430 N   0  0  0  0  0  0  0  0  0  0  0  0
   15.9932  -11.9735  -19.6847 C   0  0  0  0  0  0  0  0  0  0  0  0
   16.8619  -12.7701  -18.8880 O   0  0  0  0  0  0  0  0  0  0  0  0
   18.0475  -12.8835  -19.2258 C   0  0  0  0  0  0  0  0  0  0  0  0
   16.3682  -13.4516  -17.6805 C   0  0  0  0  0  0  0  0  0  0  0  0
   14.8900  -13.2727  -17.5504 C   0  0  2  0  0  0  0  0  0  0  0  0
   14.4308  -13.9898  -16.2839 N   0  0  0  0  0  0  0  0  0  0  0  0
   14.3069  -15.3942  -16.6252 C   0  0  0  0  0  0  0  0  0  0  0  0
   13.1300  -13.4886  -15.8249 O   0  0  0  0  0  0  0  0  0  0  0  0
   12.0607  -14.1324  -15.8106 O   0  0  0  0  0  0  0  0  0  0  0  0
  2  1  1  0
  3  2  2  0
  4  2  1  0
  5  6  1  0
  5  4  1  0
  7  6  1  0
  8  7  1  0
  8 10  1  0
  8  9  1  6
 10 19  1  0
 10 11  2  0
 12 13  1  0
 13 23  2  0
 13 14  1  0
 14 15  2  0
 15 16  1  0
 16 17  1  0
 18 17  1  6
 19 18  1  0
 20 18  1  0
 20 30  1  0
 21 20  2  0
 22 16  2  0
 23 22  1  0
 24 25  1  0
 25 26  2  0
 27 25  1  0
 27 28  1  0
 29 28  1  1
 29 30  1  0
 29 31  1  0
 31 33  1  0
 32 31  2  0
M  END
$$$$
