RYQ.pdb
     RDKit          3D

 33 33  0  0  1  0  0  0  0  0999 V2000
   25.2663  -21.2594  -21.9341 N   0  0  0  0  0  0  0  0  0  0  0  0
   24.0607  -20.4799  -21.8983 C   0  0  0  0  0  0  0  0  0  0  0  0
   23.1956  -20.5564  -22.8481 N   0  0  0  0  0  0  0  0  0  0  0  0
   23.8653  -19.6331  -20.7877 N   0  0  0  0  0  0  0  0  0  0  0  0
   24.8214  -19.6382  -19.7067 C   0  0  0  0  0  0  0  0  0  0  0  0
   25.1556  -21.0409  -19.2973 C   0  0  0  0  0  0  0  0  0  0  0  0
   24.8057  -21.2440  -17.8456 C   0  0  0  0  0  0  0  0  0  0  0  0
   26.0317  -21.6692  -17.0501 C   0  0  2  0  0  0  0  0  0  0  0  0
   26.5660  -22.8990  -17.5460 N   0  0  0  0  0  0  0  0  0  0  0  0
   25.6286  -21.7463  -15.6230 C   0  0  0  0  0  0  0  0  0  0  0  0
   24.6631  -22.4718  -15.2699 O   0  0  0  0  0  0  0  0  0  0  0  0
   22.3349  -19.9731  -22.8590 O   0  0  0  0  0  0  0  0  0  0  0  0
   24.8950  -20.4153   -6.9233 C   0  0  0  0  0  0  0  0  0  0  0  0
   25.3656  -20.4206   -8.2263 C   0  0  0  0  0  0  0  0  0  0  0  0
   25.1051  -19.3476   -9.0314 C   0  0  0  0  0  0  0  0  0  0  0  0
   25.5706  -19.3470  -10.3288 C   0  0  0  0  0  0  0  0  0  0  0  0
   26.2953  -20.3826  -10.8695 C   0  0  0  0  0  0  0  0  0  0  0  0
   26.8085  -20.3983  -12.2720 C   0  0  1  0  0  0  0  0  0  0  0  0
   25.8446  -21.0324  -13.2333 N   0  0  0  0  0  0  0  0  0  0  0  0
   26.2869  -21.0266  -14.5887 C   0  0  0  0  0  0  0  0  0  0  0  0
   24.5370  -20.3604  -13.0807 O   0  0  0  0  0  0  0  0  0  0  0  0
   24.2928  -19.3724  -13.8195 C   0  0  0  0  0  0  0  0  0  0  0  0
   26.5526  -21.4710  -10.0337 C   0  0  0  0  0  0  0  0  0  0  0  0
   26.0888  -21.4742   -8.7375 N   0  0  0  0  0  0  0  0  0  0  0  0
   20.5118  -20.9447  -16.3223 C   0  0  0  0  0  0  0  0  0  0  0  0
   19.9848  -20.1760  -15.2475 O   0  0  0  0  0  0  0  0  0  0  0  0
   19.2972  -19.1794  -15.5055 C   0  0  0  0  0  0  0  0  0  0  0  0
   20.2475  -20.5516  -13.8488 C   0  0  0  0  0  0  0  0  0  0  0  0
   21.6887  -20.9034  -13.6671 C   0  0  1  0  0  0  0  0  0  0  0  0
   22.1660  -20.3006  -12.3488 N   0  0  0  0  0  0  0  0  0  0  0  0
   23.5292  -20.7566  -12.1546 C   0  0  0  0  0  0  0  0  0  0  0  0
   21.3413  -20.7528  -11.2220 O   0  0  0  0  0  0  0  0  0  0  0  0
   21.6221  -21.6796  -10.4345 O   0  0  0  0  0  0  0  0  0  0  0  0
  2  1  1  0
  3  2  2  0
  4  2  1  0
  5  6  1  0
  5  4  1  0
  7  6  1  0
  8  7  1  0
  8 10  1  0
  8  9  1  6
 10 19  1  0
 10 11  2  0
 12 13  1  0
 13 23  2  0
 13 14  1  0
 14 15  2  0
 15 16  1  0
 16 17  1  0
 18 17  1  1
 19 18  1  0
 20 18  1  0
 20 30  1  0
 21 20  2  0
 22 16  2  0
 23 22  1  0
 24 25  1  0
 25 26  2  0
 27 25  1  0
 27 28  1  0
 29 28  1  6
 29 30  1  0
 29 31  1  0
 31 33  1  0
 32 31  2  0
M  END
$$$$
