RYQ.pdb
     RDKit          3D

 33 33  0  0  1  0  0  0  0  0999 V2000
   21.9916  -30.4713  -15.9032 N   0  0  0  0  0  0  0  0  0  0  0  0
   20.6874  -29.9359  -15.6291 C   0  0  0  0  0  0  0  0  0  0  0  0
   20.0027  -29.3577  -16.5529 N   0  0  0  0  0  0  0  0  0  0  0  0
   20.1916  -30.0689  -14.3156 N   0  0  0  0  0  0  0  0  0  0  0  0
   20.9142  -30.8678  -13.3552 C   0  0  0  0  0  0  0  0  0  0  0  0
   20.7131  -32.3297  -13.6189 C   0  0  0  0  0  0  0  0  0  0  0  0
   21.3711  -33.1380  -12.5304 C   0  0  0  0  0  0  0  0  0  0  0  0
   22.8868  -33.0772  -12.6554 C   0  0  2  0  0  0  0  0  0  0  0  0
   23.3502  -33.9196  -13.7134 N   0  0  0  0  0  0  0  0  0  0  0  0
   23.4551  -33.4422  -11.3330 C   0  0  0  0  0  0  0  0  0  0  0  0
   23.5878  -34.6499  -11.0057 O   0  0  0  0  0  0  0  0  0  0  0  0
   19.0903  -28.8987  -16.3580 O   0  0  0  0  0  0  0  0  0  0  0  0
   27.6772  -33.3990   -3.6084 C   0  0  0  0  0  0  0  0  0  0  0  0
   27.0906  -32.9961   -4.7971 C   0  0  0  0  0  0  0  0  0  0  0  0
   27.6375  -33.4061   -5.9804 C   0  0  0  0  0  0  0  0  0  0  0  0
   27.0585  -33.0086   -7.1665 C   0  0  0  0  0  0  0  0  0  0  0  0
   25.9419  -32.2089   -7.2288 C   0  0  0  0  0  0  0  0  0  0  0  0
   25.3008  -31.7698   -8.5043 C   0  0  2  0  0  0  0  0  0  0  0  0
   24.4287  -32.8325   -9.1087 N   0  0  0  0  0  0  0  0  0  0  0  0
   23.8755  -32.4800  -10.3746 C   0  0  0  0  0  0  0  0  0  0  0  0
   23.3777  -33.1751   -8.1276 O   0  0  0  0  0  0  0  0  0  0  0  0
   22.3881  -32.4049   -8.0315 C   0  0  0  0  0  0  0  0  0  0  0  0
   25.3959  -31.7990   -6.0110 C   0  0  0  0  0  0  0  0  0  0  0  0
   25.9722  -32.1945   -4.8250 N   0  0  0  0  0  0  0  0  0  0  0  0
   22.2066  -38.6395   -5.1914 C   0  0  0  0  0  0  0  0  0  0  0  0
   21.2219  -37.7462   -4.6852 O   0  0  0  0  0  0  0  0  0  0  0  0
   20.3341  -38.1909   -3.9459 C   0  0  0  0  0  0  0  0  0  0  0  0
   21.2501  -36.3154   -5.0294 C   0  0  0  0  0  0  0  0  0  0  0  0
   22.3738  -36.0299   -5.9727 C   0  0  2  0  0  0  0  0  0  0  0  0
   22.3060  -34.5568   -6.3658 N   0  0  0  0  0  0  0  0  0  0  0  0
   23.4054  -34.3220   -7.2825 C   0  0  0  0  0  0  0  0  0  0  0  0
   22.4574  -33.6818   -5.1972 O   0  0  0  0  0  0  0  0  0  0  0  0
   21.5311  -33.1159   -4.5811 O   0  0  0  0  0  0  0  0  0  0  0  0
  2  1  1  0
  3  2  2  0
  4  2  1  0
  5  6  1  0
  5  4  1  0
  7  6  1  0
  8  7  1  0
  8 10  1  0
  8  9  1  6
 10 19  1  0
 10 11  2  0
 12 13  1  0
 13 23  2  0
 13 14  1  0
 14 15  2  0
 15 16  1  0
 16 17  1  0
 18 17  1  6
 19 18  1  0
 20 18  1  0
 20 30  1  0
 21 20  2  0
 22 16  2  0
 23 22  1  0
 24 25  1  0
 25 26  2  0
 27 25  1  0
 27 28  1  0
 29 28  1  6
 29 30  1  0
 29 31  1  0
 31 33  1  0
 32 31  2  0
M  END
$$$$
