RYQ.pdb
     RDKit          3D

 33 33  0  0  1  0  0  0  0  0999 V2000
   30.0400  -20.6039  -19.3186 N   0  0  0  0  0  0  0  0  0  0  0  0
   29.4720  -19.7150  -20.2932 C   0  0  0  0  0  0  0  0  0  0  0  0
   30.0461  -19.5258  -21.4294 N   0  0  0  0  0  0  0  0  0  0  0  0
   28.2678  -19.0628  -19.9564 N   0  0  0  0  0  0  0  0  0  0  0  0
   27.6468  -19.3210  -18.6794 C   0  0  0  0  0  0  0  0  0  0  0  0
   26.9250  -20.6347  -18.6937 C   0  0  0  0  0  0  0  0  0  0  0  0
   26.1953  -20.8282  -17.3894 C   0  0  0  0  0  0  0  0  0  0  0  0
   27.1200  -21.4247  -16.3378 C   0  0  2  0  0  0  0  0  0  0  0  0
   27.7566  -22.6088  -16.8242 N   0  0  0  0  0  0  0  0  0  0  0  0
   26.3077  -21.6630  -15.1178 C   0  0  0  0  0  0  0  0  0  0  0  0
   25.7753  -22.7846  -14.9135 O   0  0  0  0  0  0  0  0  0  0  0  0
   29.6141  -18.9454  -22.1762 O   0  0  0  0  0  0  0  0  0  0  0  0
   31.1047  -21.8386  -10.1192 C   0  0  0  0  0  0  0  0  0  0  0  0
   29.8370  -21.4321  -10.5030 C   0  0  0  0  0  0  0  0  0  0  0  0
   29.6790  -20.7879  -11.6977 C   0  0  0  0  0  0  0  0  0  0  0  0
   28.4204  -20.3810  -12.0852 C   0  0  0  0  0  0  0  0  0  0  0  0
   27.2940  -20.5898  -11.3251 C   0  0  0  0  0  0  0  0  0  0  0  0
   25.9230  -20.1571  -11.7296 C   0  0  2  0  0  0  0  0  0  0  0  0
   25.3961  -20.9296  -12.9046 N   0  0  0  0  0  0  0  0  0  0  0  0
   26.0826  -20.6689  -14.1268 C   0  0  0  0  0  0  0  0  0  0  0  0
   23.9482  -20.6563  -13.0203 O   0  0  0  0  0  0  0  0  0  0  0  0
   23.5917  -19.6244  -13.6447 C   0  0  0  0  0  0  0  0  0  0  0  0
   27.4730  -21.2492  -10.1075 C   0  0  0  0  0  0  0  0  0  0  0  0
   28.7290  -21.6567   -9.7181 N   0  0  0  0  0  0  0  0  0  0  0  0
   19.0191  -24.4640  -11.9106 C   0  0  0  0  0  0  0  0  0  0  0  0
   18.4627  -23.2934  -12.4970 O   0  0  0  0  0  0  0  0  0  0  0  0
   17.2467  -23.2592  -12.7266 C   0  0  0  0  0  0  0  0  0  0  0  0
   19.3110  -22.1372  -12.8288 C   0  0  0  0  0  0  0  0  0  0  0  0
   20.7100  -22.3662  -12.3552 C   0  0  2  0  0  0  0  0  0  0  0  0
   21.5343  -21.1233  -12.6791 N   0  0  0  0  0  0  0  0  0  0  0  0
   22.9245  -21.4839  -12.4751 C   0  0  0  0  0  0  0  0  0  0  0  0
   21.1912  -20.0054  -11.7921 O   0  0  0  0  0  0  0  0  0  0  0  0
   21.5934  -19.8498  -10.6208 O   0  0  0  0  0  0  0  0  0  0  0  0
  2  1  1  0
  3  2  2  0
  4  2  1  0
  5  6  1  0
  5  4  1  0
  7  6  1  0
  8  7  1  0
  8 10  1  0
  8  9  1  6
 10 19  1  0
 10 11  2  0
 12 13  1  0
 13 23  2  0
 13 14  1  0
 14 15  2  0
 15 16  1  0
 16 17  1  0
 18 17  1  1
 19 18  1  0
 20 18  1  0
 20 30  1  0
 21 20  2  0
 22 16  2  0
 23 22  1  0
 24 25  1  0
 25 26  2  0
 27 25  1  0
 27 28  1  0
 29 28  1  6
 29 30  1  0
 29 31  1  0
 31 33  1  0
 32 31  2  0
M  END
$$$$
