RYQ.pdb
     RDKit          3D

 33 33  0  0  1  0  0  0  0  0999 V2000
   24.7543  -22.1453   -8.1537 N   0  0  0  0  0  0  0  0  0  0  0  0
   23.9512  -21.6980   -9.2571 C   0  0  0  0  0  0  0  0  0  0  0  0
   22.7108  -21.3965   -9.0926 N   0  0  0  0  0  0  0  0  0  0  0  0
   24.5732  -21.6033  -10.5193 N   0  0  0  0  0  0  0  0  0  0  0  0
   25.9684  -21.9456  -10.6571 C   0  0  0  0  0  0  0  0  0  0  0  0
   26.4168  -21.7928  -12.0793 C   0  0  0  0  0  0  0  0  0  0  0  0
   26.5291  -20.3298  -12.4227 C   0  0  0  0  0  0  0  0  0  0  0  0
   25.7728  -20.0179  -13.7063 C   0  0  2  0  0  0  0  0  0  0  0  0
   26.2764  -20.7879  -14.8005 N   0  0  0  0  0  0  0  0  0  0  0  0
   25.8719  -18.5538  -13.9339 C   0  0  0  0  0  0  0  0  0  0  0  0
   25.2976  -17.7462  -13.1587 O   0  0  0  0  0  0  0  0  0  0  0  0
   22.1089  -21.0864   -9.8817 O   0  0  0  0  0  0  0  0  0  0  0  0
   27.1857  -10.6690  -17.7039 C   0  0  0  0  0  0  0  0  0  0  0  0
   27.3262  -11.9860  -17.2971 C   0  0  0  0  0  0  0  0  0  0  0  0
   27.5491  -12.2532  -15.9757 C   0  0  0  0  0  0  0  0  0  0  0  0
   27.6897  -13.5613  -15.5648 C   0  0  0  0  0  0  0  0  0  0  0  0
   27.6171  -14.6326  -16.4235 C   0  0  0  0  0  0  0  0  0  0  0  0
   27.7657  -16.0558  -15.9958 C   0  0  1  0  0  0  0  0  0  0  0  0
   26.5186  -16.6022  -15.3623 N   0  0  0  0  0  0  0  0  0  0  0  0
   26.6012  -17.9819  -15.0120 C   0  0  0  0  0  0  0  0  0  0  0  0
   25.3868  -16.3352  -16.2745 O   0  0  0  0  0  0  0  0  0  0  0  0
   25.2569  -17.0741  -17.2839 C   0  0  0  0  0  0  0  0  0  0  0  0
   27.3889  -14.3421  -17.7699 C   0  0  0  0  0  0  0  0  0  0  0  0
   27.2482  -13.0364  -18.1830 N   0  0  0  0  0  0  0  0  0  0  0  0
   19.6761  -15.4529  -14.7328 C   0  0  0  0  0  0  0  0  0  0  0  0
   19.6072  -15.3103  -16.1466 O   0  0  0  0  0  0  0  0  0  0  0  0
   18.4957  -15.2498  -16.6884 C   0  0  0  0  0  0  0  0  0  0  0  0
   20.8317  -15.2349  -16.9598 C   0  0  0  0  0  0  0  0  0  0  0  0
   22.0414  -15.3511  -16.0897 C   0  0  1  0  0  0  0  0  0  0  0  0
   23.2798  -15.2240  -16.9724 N   0  0  0  0  0  0  0  0  0  0  0  0
   24.4276  -15.2982  -16.0885 C   0  0  0  0  0  0  0  0  0  0  0  0
   23.3020  -13.9408  -17.6846 O   0  0  0  0  0  0  0  0  0  0  0  0
   23.0750  -13.7742  -18.9007 O   0  0  0  0  0  0  0  0  0  0  0  0
  2  1  1  0
  3  2  2  0
  4  2  1  0
  5  6  1  0
  5  4  1  0
  7  6  1  0
  8  7  1  0
  8 10  1  0
  8  9  1  6
 10 19  1  0
 10 11  2  0
 12 13  1  0
 13 23  2  0
 13 14  1  0
 14 15  2  0
 15 16  1  0
 16 17  1  0
 18 17  1  1
 19 18  1  0
 20 18  1  0
 20 30  1  0
 21 20  2  0
 22 16  2  0
 23 22  1  0
 24 25  1  0
 25 26  2  0
 27 25  1  0
 27 28  1  0
 29 28  1  6
 29 30  1  0
 29 31  1  0
 31 33  1  0
 32 31  2  0
M  END
$$$$
