RYQ.pdb
     RDKit          3D

 33 33  0  0  1  0  0  0  0  0999 V2000
   30.1825  -25.9768  -16.3215 N   0  0  0  0  0  0  0  0  0  0  0  0
   28.7983  -26.3000  -16.5268 C   0  0  0  0  0  0  0  0  0  0  0  0
   28.3315  -27.4515  -16.1912 N   0  0  0  0  0  0  0  0  0  0  0  0
   27.9776  -25.3109  -17.1072 N   0  0  0  0  0  0  0  0  0  0  0  0
   28.5171  -23.9992  -17.3739 C   0  0  0  0  0  0  0  0  0  0  0  0
   28.6608  -23.2138  -16.1052 C   0  0  0  0  0  0  0  0  0  0  0  0
   27.4248  -22.3818  -15.8794 C   0  0  0  0  0  0  0  0  0  0  0  0
   27.3645  -21.2267  -16.8687 C   0  0  2  0  0  0  0  0  0  0  0  0
   28.5942  -20.4976  -16.8842 N   0  0  0  0  0  0  0  0  0  0  0  0
   26.1975  -20.3866  -16.4979 C   0  0  0  0  0  0  0  0  0  0  0  0
   26.2300  -19.6671  -15.4662 O   0  0  0  0  0  0  0  0  0  0  0  0
   27.3504  -27.7297  -16.3941 O   0  0  0  0  0  0  0  0  0  0  0  0
   18.6540  -15.8525  -16.4494 C   0  0  0  0  0  0  0  0  0  0  0  0
   19.7632  -16.5864  -16.8375 C   0  0  0  0  0  0  0  0  0  0  0  0
   19.5923  -17.8731  -17.2648 C   0  0  0  0  0  0  0  0  0  0  0  0
   20.6919  -18.6084  -17.6523 C   0  0  0  0  0  0  0  0  0  0  0  0
   21.9742  -18.1129  -17.6335 C   0  0  0  0  0  0  0  0  0  0  0  0
   23.1765  -18.8945  -18.0509 C   0  0  1  0  0  0  0  0  0  0  0  0
   23.8714  -19.5491  -16.8917 N   0  0  0  0  0  0  0  0  0  0  0  0
   24.9990  -20.3397  -17.2611 C   0  0  0  0  0  0  0  0  0  0  0  0
   22.8702  -20.3382  -16.1438 O   0  0  0  0  0  0  0  0  0  0  0  0
   22.4398  -21.3955  -16.6716 C   0  0  0  0  0  0  0  0  0  0  0  0
   22.1311  -16.7969  -17.1944 C   0  0  0  0  0  0  0  0  0  0  0  0
   21.0346  -16.0603  -16.8067 N   0  0  0  0  0  0  0  0  0  0  0  0
   22.1487  -20.3092  -10.0204 C   0  0  0  0  0  0  0  0  0  0  0  0
   21.3828  -19.3532  -10.7438 O   0  0  0  0  0  0  0  0  0  0  0  0
   20.8931  -18.3936  -10.1339 C   0  0  0  0  0  0  0  0  0  0  0  0
   21.1707  -19.4944  -12.1934 C   0  0  0  0  0  0  0  0  0  0  0  0
   21.7731  -20.7709  -12.6849 C   0  0  1  0  0  0  0  0  0  0  0  0
   21.4682  -20.9016  -14.1745 N   0  0  0  0  0  0  0  0  0  0  0  0
   22.3591  -19.9858  -14.8613 C   0  0  0  0  0  0  0  0  0  0  0  0
   20.0782  -20.5361  -14.4720 O   0  0  0  0  0  0  0  0  0  0  0  0
   19.0899  -21.2951  -14.3996 O   0  0  0  0  0  0  0  0  0  0  0  0
  2  1  1  0
  3  2  2  0
  4  2  1  0
  5  6  1  0
  5  4  1  0
  7  6  1  0
  8  7  1  0
  8 10  1  0
  8  9  1  1
 10 19  1  0
 10 11  2  0
 12 13  1  0
 13 23  2  0
 13 14  1  0
 14 15  2  0
 15 16  1  0
 16 17  1  0
 18 17  1  1
 19 18  1  0
 20 18  1  0
 20 30  1  0
 21 20  2  0
 22 16  2  0
 23 22  1  0
 24 25  1  0
 25 26  2  0
 27 25  1  0
 27 28  1  0
 29 28  1  6
 29 30  1  0
 29 31  1  0
 31 33  1  0
 32 31  2  0
M  END
$$$$
