RYQ.pdb
     RDKit          3D

 33 33  0  0  1  0  0  0  0  0999 V2000
   18.9493  -14.7022  -19.3531 N   0  0  0  0  0  0  0  0  0  0  0  0
   20.2685  -15.2266  -19.1356 C   0  0  0  0  0  0  0  0  0  0  0  0
   20.6112  -16.3722  -19.6116 N   0  0  0  0  0  0  0  0  0  0  0  0
   21.1663  -14.4403  -18.3843 N   0  0  0  0  0  0  0  0  0  0  0  0
   20.6964  -13.2398  -17.7356 C   0  0  0  0  0  0  0  0  0  0  0  0
   21.7865  -12.6132  -16.9195 C   0  0  0  0  0  0  0  0  0  0  0  0
   22.9182  -12.1916  -17.8210 C   0  0  0  0  0  0  0  0  0  0  0  0
   24.1250  -11.7547  -17.0027 C   0  0  2  0  0  0  0  0  0  0  0  0
   24.4998  -12.7622  -16.0601 N   0  0  0  0  0  0  0  0  0  0  0  0
   23.7798  -10.4608  -16.3611 C   0  0  0  0  0  0  0  0  0  0  0  0
   23.1682  -10.4355  -15.2618 O   0  0  0  0  0  0  0  0  0  0  0  0
   21.5591  -16.7718  -19.4596 O   0  0  0  0  0  0  0  0  0  0  0  0
   22.8854   -1.8633  -14.6043 C   0  0  0  0  0  0  0  0  0  0  0  0
   23.3079   -3.0740  -15.1290 C   0  0  0  0  0  0  0  0  0  0  0  0
   24.2269   -3.0755  -16.1403 C   0  0  0  0  0  0  0  0  0  0  0  0
   24.6511   -4.2768  -16.6665 C   0  0  0  0  0  0  0  0  0  0  0  0
   24.1947   -5.4959  -16.2244 C   0  0  0  0  0  0  0  0  0  0  0  0
   24.6441   -6.8067  -16.7817 C   0  0  1  0  0  0  0  0  0  0  0  0
   23.8160   -7.9586  -16.2894 N   0  0  0  0  0  0  0  0  0  0  0  0
   24.1074   -9.1992  -16.9288 C   0  0  0  0  0  0  0  0  0  0  0  0
   22.3912   -7.5912  -16.4296 O   0  0  0  0  0  0  0  0  0  0  0  0
   21.9154   -7.5103  -17.5910 C   0  0  0  0  0  0  0  0  0  0  0  0
   23.2562   -5.4765  -15.1909 C   0  0  0  0  0  0  0  0  0  0  0  0
   22.8308   -4.2781  -14.6635 N   0  0  0  0  0  0  0  0  0  0  0  0
   17.8027  -10.4812  -14.4963 C   0  0  0  0  0  0  0  0  0  0  0  0
   17.1436   -9.3320  -15.0146 O   0  0  0  0  0  0  0  0  0  0  0  0
   15.9143   -9.3611  -15.1581 C   0  0  0  0  0  0  0  0  0  0  0  0
   17.9023   -8.1239  -15.3769 C   0  0  0  0  0  0  0  0  0  0  0  0
   19.3642   -8.3425  -15.1556 C   0  0  1  0  0  0  0  0  0  0  0  0
   20.1083   -7.0852  -15.5969 N   0  0  0  0  0  0  0  0  0  0  0  0
   21.5153   -7.3245  -15.3379 C   0  0  0  0  0  0  0  0  0  0  0  0
   19.6714   -5.9082  -14.8366 O   0  0  0  0  0  0  0  0  0  0  0  0
   20.3214   -5.3335  -13.9393 O   0  0  0  0  0  0  0  0  0  0  0  0
  2  1  1  0
  3  2  2  0
  4  2  1  0
  5  6  1  0
  5  4  1  0
  7  6  1  0
  8  7  1  0
  8 10  1  0
  8  9  1  1
 10 19  1  0
 10 11  2  0
 12 13  1  0
 13 23  2  0
 13 14  1  0
 14 15  2  0
 15 16  1  0
 16 17  1  0
 18 17  1  1
 19 18  1  0
 20 18  1  0
 20 30  1  0
 21 20  2  0
 22 16  2  0
 23 22  1  0
 24 25  1  0
 25 26  2  0
 27 25  1  0
 27 28  1  0
 29 28  1  6
 29 30  1  0
 29 31  1  0
 31 33  1  0
 32 31  2  0
M  END
$$$$
