RYQ.pdb
     RDKit          3D

 33 33  0  0  1  0  0  0  0  0999 V2000
   25.0410  -27.7076  -16.8239 N   0  0  0  0  0  0  0  0  0  0  0  0
   23.8988  -27.5489  -17.6800 C   0  0  0  0  0  0  0  0  0  0  0  0
   22.9394  -28.4067  -17.6681 N   0  0  0  0  0  0  0  0  0  0  0  0
   23.8721  -26.4225  -18.5282 N   0  0  0  0  0  0  0  0  0  0  0  0
   24.7971  -25.3372  -18.3061 C   0  0  0  0  0  0  0  0  0  0  0  0
   24.6816  -24.8165  -16.9052 C   0  0  0  0  0  0  0  0  0  0  0  0
   24.5184  -23.3185  -16.9313 C   0  0  0  0  0  0  0  0  0  0  0  0
   25.6938  -22.6364  -16.2458 C   0  0  2  0  0  0  0  0  0  0  0  0
   26.8977  -23.3876  -16.4197 N   0  0  0  0  0  0  0  0  0  0  0  0
   25.3275  -22.4511  -14.8188 C   0  0  0  0  0  0  0  0  0  0  0  0
   24.8729  -23.4121  -14.1457 O   0  0  0  0  0  0  0  0  0  0  0  0
   22.1042  -28.3090  -18.2797 O   0  0  0  0  0  0  0  0  0  0  0  0
   25.6332  -19.9489   -6.4291 C   0  0  0  0  0  0  0  0  0  0  0  0
   25.7436  -19.9572   -7.8101 C   0  0  0  0  0  0  0  0  0  0  0  0
   26.5081  -20.9179   -8.4099 C   0  0  0  0  0  0  0  0  0  0  0  0
   26.6219  -20.9315   -9.7835 C   0  0  0  0  0  0  0  0  0  0  0  0
   25.9991  -20.0174  -10.6000 C   0  0  0  0  0  0  0  0  0  0  0  0
   26.1101  -20.0178  -12.0894 C   0  0  2  0  0  0  0  0  0  0  0  0
   25.2523  -21.0691  -12.7327 N   0  0  0  0  0  0  0  0  0  0  0  0
   25.4614  -21.2114  -14.1359 C   0  0  0  0  0  0  0  0  0  0  0  0
   23.8408  -20.7646  -12.4172 O   0  0  0  0  0  0  0  0  0  0  0  0
   23.2485  -19.9137  -13.1292 C   0  0  0  0  0  0  0  0  0  0  0  0
   25.2220  -19.0426   -9.9712 C   0  0  0  0  0  0  0  0  0  0  0  0
   25.1067  -19.0268   -8.5995 N   0  0  0  0  0  0  0  0  0  0  0  0
   20.1842  -23.7381   -8.3124 C   0  0  0  0  0  0  0  0  0  0  0  0
   19.3359  -23.2807   -9.3589 O   0  0  0  0  0  0  0  0  0  0  0  0
   18.1806  -23.7201   -9.4277 C   0  0  0  0  0  0  0  0  0  0  0  0
   19.8153  -22.3016  -10.3478 C   0  0  0  0  0  0  0  0  0  0  0  0
   21.1973  -21.8487  -10.0031 C   0  0  2  0  0  0  0  0  0  0  0  0
   21.7183  -20.9866  -11.1496 N   0  0  0  0  0  0  0  0  0  0  0  0
   23.1007  -21.3715  -11.3617 C   0  0  0  0  0  0  0  0  0  0  0  0
   21.6612  -19.5584  -10.8162 O   0  0  0  0  0  0  0  0  0  0  0  0
   22.5001  -18.9306  -10.1379 O   0  0  0  0  0  0  0  0  0  0  0  0
  2  1  1  0
  3  2  2  0
  4  2  1  0
  5  6  1  0
  5  4  1  0
  7  6  1  0
  8  7  1  0
  8 10  1  0
  8  9  1  1
 10 19  1  0
 10 11  2  0
 12 13  1  0
 13 23  2  0
 13 14  1  0
 14 15  2  0
 15 16  1  0
 16 17  1  0
 18 17  1  1
 19 18  1  0
 20 18  1  0
 20 30  1  0
 21 20  2  0
 22 16  2  0
 23 22  1  0
 24 25  1  0
 25 26  2  0
 27 25  1  0
 27 28  1  0
 29 28  1  6
 29 30  1  0
 29 31  1  0
 31 33  1  0
 32 31  2  0
M  END
$$$$
