RYQ.pdb
     RDKit          3D

 33 33  0  0  1  0  0  0  0  0999 V2000
   29.2346  -26.1539  -16.9046 N   0  0  0  0  0  0  0  0  0  0  0  0
   29.1171  -25.4439  -18.1475 C   0  0  0  0  0  0  0  0  0  0  0  0
   29.1687  -26.0673  -19.2723 N   0  0  0  0  0  0  0  0  0  0  0  0
   28.9443  -24.0457  -18.0851 N   0  0  0  0  0  0  0  0  0  0  0  0
   28.2542  -23.4592  -16.9614 C   0  0  0  0  0  0  0  0  0  0  0  0
   26.8425  -23.1108  -17.3257 C   0  0  0  0  0  0  0  0  0  0  0  0
   26.1434  -22.5092  -16.1339 C   0  0  0  0  0  0  0  0  0  0  0  0
   26.3345  -23.3804  -14.9005 C   0  0  2  0  0  0  0  0  0  0  0  0
   26.3453  -24.7675  -15.2468 N   0  0  0  0  0  0  0  0  0  0  0  0
   25.2568  -23.0313  -13.9405 C   0  0  0  0  0  0  0  0  0  0  0  0
   24.1968  -23.7076  -13.8959 O   0  0  0  0  0  0  0  0  0  0  0  0
   29.0722  -25.5730  -20.1820 O   0  0  0  0  0  0  0  0  0  0  0  0
   20.3503  -19.1381   -7.7216 C   0  0  0  0  0  0  0  0  0  0  0  0
   21.4072  -19.4902   -8.5453 C   0  0  0  0  0  0  0  0  0  0  0  0
   22.2363  -20.5074   -8.1644 C   0  0  0  0  0  0  0  0  0  0  0  0
   23.2896  -20.8624   -8.9796 C   0  0  0  0  0  0  0  0  0  0  0  0
   23.5590  -20.2408  -10.1759 C   0  0  0  0  0  0  0  0  0  0  0  0
   24.6944  -20.6130  -11.0720 C   0  0  1  0  0  0  0  0  0  0  0  0
   24.2856  -21.5674  -12.1570 N   0  0  0  0  0  0  0  0  0  0  0  0
   25.3469  -21.9406  -13.0330 C   0  0  0  0  0  0  0  0  0  0  0  0
   23.1534  -20.9664  -12.8928 O   0  0  0  0  0  0  0  0  0  0  0  0
   23.4141  -20.2607  -13.9006 C   0  0  0  0  0  0  0  0  0  0  0  0
   22.7023  -19.2038  -10.5502 C   0  0  0  0  0  0  0  0  0  0  0  0
   21.6496  -18.8472   -9.7378 N   0  0  0  0  0  0  0  0  0  0  0  0
   22.3040  -17.7701  -16.1284 C   0  0  0  0  0  0  0  0  0  0  0  0
   20.9258  -18.1151  -16.2021 O   0  0  0  0  0  0  0  0  0  0  0  0
   20.2156  -17.5637  -17.0531 C   0  0  0  0  0  0  0  0  0  0  0  0
   20.3452  -19.1101  -15.2859 C   0  0  0  0  0  0  0  0  0  0  0  0
   21.3876  -19.6199  -14.3439 C   0  0  2  0  0  0  0  0  0  0  0  0
   20.7532  -20.6927  -13.4632 N   0  0  0  0  0  0  0  0  0  0  0  0
   21.7827  -21.1335  -12.5413 C   0  0  0  0  0  0  0  0  0  0  0  0
   20.2954  -21.8383  -14.2583 O   0  0  0  0  0  0  0  0  0  0  0  0
   20.8150  -22.9731  -14.2743 O   0  0  0  0  0  0  0  0  0  0  0  0
  2  1  1  0
  3  2  2  0
  4  2  1  0
  5  6  1  0
  5  4  1  0
  7  6  1  0
  8  7  1  0
  8 10  1  0
  8  9  1  6
 10 19  1  0
 10 11  2  0
 12 13  1  0
 13 23  2  0
 13 14  1  0
 14 15  2  0
 15 16  1  0
 16 17  1  0
 18 17  1  1
 19 18  1  0
 20 18  1  0
 20 30  1  0
 21 20  2  0
 22 16  2  0
 23 22  1  0
 24 25  1  0
 25 26  2  0
 27 25  1  0
 27 28  1  0
 29 28  1  1
 29 30  1  0
 29 31  1  0
 31 33  1  0
 32 31  2  0
M  END
$$$$
