RYQ.pdb
     RDKit          3D

 33 33  0  0  1  0  0  0  0  0999 V2000
   17.1315  -15.7343  -17.7985 N   0  0  0  0  0  0  0  0  0  0  0  0
   17.8363  -15.7493  -19.0497 C   0  0  0  0  0  0  0  0  0  0  0  0
   18.1502  -16.8604  -19.6184 N   0  0  0  0  0  0  0  0  0  0  0  0
   18.1681  -14.5053  -19.6254 N   0  0  0  0  0  0  0  0  0  0  0  0
   17.9342  -13.2888  -18.8849 C   0  0  0  0  0  0  0  0  0  0  0  0
   18.6418  -13.3245  -17.5639 C   0  0  0  0  0  0  0  0  0  0  0  0
   18.3010  -12.0891  -16.7709 C   0  0  0  0  0  0  0  0  0  0  0  0
   19.3200  -10.9875  -17.0251 C   0  0  2  0  0  0  0  0  0  0  0  0
   20.6492  -11.5131  -17.0572 N   0  0  0  0  0  0  0  0  0  0  0  0
   19.1297   -9.9569  -15.9730 C   0  0  0  0  0  0  0  0  0  0  0  0
   17.9743   -9.5716  -15.6574 O   0  0  0  0  0  0  0  0  0  0  0  0
   18.7102  -16.8933  -20.4939 O   0  0  0  0  0  0  0  0  0  0  0  0
   19.8744   -4.7859   -8.9603 C   0  0  0  0  0  0  0  0  0  0  0  0
   20.1790   -5.6305  -10.0154 C   0  0  0  0  0  0  0  0  0  0  0  0
   20.9250   -5.1522  -11.0555 C   0  0  0  0  0  0  0  0  0  0  0  0
   21.2313   -5.9877  -12.1082 C   0  0  0  0  0  0  0  0  0  0  0  0
   20.8221   -7.2985  -12.1733 C   0  0  0  0  0  0  0  0  0  0  0  0
   21.1457   -8.2180  -13.3048 C   0  0  2  0  0  0  0  0  0  0  0  0
   20.0276   -8.3237  -14.3017 N   0  0  0  0  0  0  0  0  0  0  0  0
   20.2087   -9.3531  -15.2714 C   0  0  0  0  0  0  0  0  0  0  0  0
   19.8517   -6.9996  -14.9346 O   0  0  0  0  0  0  0  0  0  0  0  0
   20.7933   -6.5539  -15.6392 C   0  0  0  0  0  0  0  0  0  0  0  0
   20.0608   -7.7713  -11.1026 C   0  0  0  0  0  0  0  0  0  0  0  0
   19.7534   -6.9390  -10.0500 N   0  0  0  0  0  0  0  0  0  0  0  0
   14.8397   -4.8439  -17.2994 C   0  0  0  0  0  0  0  0  0  0  0  0
   15.8646   -5.6745  -17.8319 O   0  0  0  0  0  0  0  0  0  0  0  0
   15.6089   -6.3867  -18.8117 C   0  0  0  0  0  0  0  0  0  0  0  0
   17.2097   -5.6933  -17.2346 C   0  0  0  0  0  0  0  0  0  0  0  0
   17.2793   -4.7457  -16.0808 C   0  0  2  0  0  0  0  0  0  0  0  0
   18.6531   -4.8833  -15.4306 N   0  0  0  0  0  0  0  0  0  0  0  0
   18.6855   -6.1914  -14.8045 C   0  0  0  0  0  0  0  0  0  0  0  0
   18.8683   -3.8535  -14.4072 O   0  0  0  0  0  0  0  0  0  0  0  0
   18.8052   -4.0239  -13.1723 O   0  0  0  0  0  0  0  0  0  0  0  0
  2  1  1  0
  3  2  2  0
  4  2  1  0
  5  6  1  0
  5  4  1  0
  7  6  1  0
  8  7  1  0
  8 10  1  0
  8  9  1  1
 10 19  1  0
 10 11  2  0
 12 13  1  0
 13 23  2  0
 13 14  1  0
 14 15  2  0
 15 16  1  0
 16 17  1  0
 18 17  1  1
 19 18  1  0
 20 18  1  0
 20 30  1  0
 21 20  2  0
 22 16  2  0
 23 22  1  0
 24 25  1  0
 25 26  2  0
 27 25  1  0
 27 28  1  0
 29 28  1  6
 29 30  1  0
 29 31  1  0
 31 33  1  0
 32 31  2  0
M  END
$$$$
