RYQ.pdb
     RDKit          3D

 33 33  0  0  1  0  0  0  0  0999 V2000
   27.6118  -23.9702  -16.4526 N   0  0  0  0  0  0  0  0  0  0  0  0
   26.4848  -24.8508  -16.5830 C   0  0  0  0  0  0  0  0  0  0  0  0
   26.6399  -26.1285  -16.5766 N   0  0  0  0  0  0  0  0  0  0  0  0
   25.2103  -24.2622  -16.7173 N   0  0  0  0  0  0  0  0  0  0  0  0
   24.8710  -23.1020  -15.9289 C   0  0  0  0  0  0  0  0  0  0  0  0
   24.8598  -23.4354  -14.4675 C   0  0  0  0  0  0  0  0  0  0  0  0
   24.3871  -22.2423  -13.6773 C   0  0  0  0  0  0  0  0  0  0  0  0
   23.2303  -21.5511  -14.3850 C   0  0  2  0  0  0  0  0  0  0  0  0
   23.6361  -20.2909  -14.9245 N   0  0  0  0  0  0  0  0  0  0  0  0
   22.1201  -21.4319  -13.4061 C   0  0  0  0  0  0  0  0  0  0  0  0
   22.2729  -20.7759  -12.3433 O   0  0  0  0  0  0  0  0  0  0  0  0
   25.8406  -26.7820  -16.6994 O   0  0  0  0  0  0  0  0  0  0  0  0
   19.9132  -15.6228  -14.0509 C   0  0  0  0  0  0  0  0  0  0  0  0
   19.5934  -16.9539  -13.8382 C   0  0  0  0  0  0  0  0  0  0  0  0
   19.6379  -17.8244  -14.8905 C   0  0  0  0  0  0  0  0  0  0  0  0
   19.3208  -19.1501  -14.6853 C   0  0  0  0  0  0  0  0  0  0  0  0
   18.9557  -19.6564  -13.4604 C   0  0  0  0  0  0  0  0  0  0  0  0
   18.6103  -21.0893  -13.2195 C   0  0  2  0  0  0  0  0  0  0  0  0
   19.7670  -21.8797  -12.6786 N   0  0  0  0  0  0  0  0  0  0  0  0
   20.8463  -22.0334  -13.5975 C   0  0  0  0  0  0  0  0  0  0  0  0
   19.2523  -23.1852  -12.2145 O   0  0  0  0  0  0  0  0  0  0  0  0
   19.1624  -24.1157  -13.0558 C   0  0  0  0  0  0  0  0  0  0  0  0
   18.9153  -18.7537  -12.3960 C   0  0  0  0  0  0  0  0  0  0  0  0
   19.2314  -17.4291  -12.5982 N   0  0  0  0  0  0  0  0  0  0  0  0
   18.4672  -25.1819   -6.3030 C   0  0  0  0  0  0  0  0  0  0  0  0
   17.6430  -24.1868   -6.8981 O   0  0  0  0  0  0  0  0  0  0  0  0
   16.9521  -23.4660   -6.1661 C   0  0  0  0  0  0  0  0  0  0  0  0
   17.6057  -24.0098   -8.3588 C   0  0  0  0  0  0  0  0  0  0  0  0
   18.5716  -24.9393   -9.0198 C   0  0  1  0  0  0  0  0  0  0  0  0
   18.4093  -24.8029  -10.5311 N   0  0  0  0  0  0  0  0  0  0  0  0
   18.8524  -23.4654  -10.8759 C   0  0  0  0  0  0  0  0  0  0  0  0
   17.0084  -24.9664  -10.9374 O   0  0  0  0  0  0  0  0  0  0  0  0
   16.1967  -24.0436  -11.1554 O   0  0  0  0  0  0  0  0  0  0  0  0
  2  1  1  0
  3  2  2  0
  4  2  1  0
  5  6  1  0
  5  4  1  0
  7  6  1  0
  8  7  1  0
  8 10  1  0
  8  9  1  1
 10 19  1  0
 10 11  2  0
 12 13  1  0
 13 23  2  0
 13 14  1  0
 14 15  2  0
 15 16  1  0
 16 17  1  0
 18 17  1  1
 19 18  1  0
 20 18  1  0
 20 30  1  0
 21 20  2  0
 22 16  2  0
 23 22  1  0
 24 25  1  0
 25 26  2  0
 27 25  1  0
 27 28  1  0
 29 28  1  6
 29 30  1  0
 29 31  1  0
 31 33  1  0
 32 31  2  0
M  END
$$$$
