YRA.pdb
     RDKit          3D

 29 29  0  0  1  0  0  0  0  0999 V2000
   10.3553  -14.0756   31.6797 O   0  0  0  0  0  0  0  0  0  0  0  0
   10.3169  -14.4781   30.3454 C   0  0  0  0  0  0  0  0  0  0  0  0
    9.8029  -13.6722   29.3530 C   0  0  0  0  0  0  0  0  0  0  0  0
    9.7644  -14.0683   28.0299 C   0  0  0  0  0  0  0  0  0  0  0  0
   10.2460  -15.3048   27.6454 C   0  0  0  0  0  0  0  0  0  0  0  0
   10.2134  -15.7660   26.2210 C   0  0  0  0  0  0  0  0  0  0  0  0
    8.8954  -16.4726   25.9913 C   0  0  2  0  0  0  0  0  0  0  0  0
    8.8412  -17.6543   26.8155 N   0  0  0  0  0  0  0  0  0  0  0  0
    8.7635  -16.8050   24.5396 C   0  0  0  0  0  0  0  0  0  0  0  0
    9.2650  -17.8859   24.1464 O   0  0  0  0  0  0  0  0  0  0  0  0
   10.7624  -16.1179   28.6324 C   0  0  0  0  0  0  0  0  0  0  0  0
   10.8012  -15.7180   29.9670 C   0  0  0  0  0  0  0  0  0  0  0  0
    8.3173  -15.0446   16.9583 N   0  0  0  0  0  0  0  0  0  0  0  0
    8.3822  -13.6781   17.3347 C   0  0  0  0  0  0  0  0  0  0  0  0
    9.0896  -12.8740   16.5973 N   0  0  0  0  0  0  0  0  0  0  0  0
    7.7225  -13.1480   18.4638 N   0  0  0  0  0  0  0  0  0  0  0  0
    6.8941  -14.0023   19.2715 C   0  0  0  0  0  0  0  0  0  0  0  0
    7.6822  -15.0676   19.9905 C   0  0  0  0  0  0  0  0  0  0  0  0
    7.6066  -14.8966   21.4837 C   0  0  0  0  0  0  0  0  0  0  0  0
    8.2064  -16.0849   22.1823 C   0  0  2  0  0  0  0  0  0  0  0  0
    8.1148  -15.9752   23.6225 N   0  0  0  0  0  0  0  0  0  0  0  0
    9.6656  -16.0827   21.7965 C   0  0  0  0  0  0  0  0  0  0  0  0
   10.3614  -15.1075   22.1397 O   0  0  0  0  0  0  0  0  0  0  0  0
    9.1293  -11.8581   16.7602 C   0  0  0  0  0  0  0  0  0  0  0  0
   12.4373  -18.2409   21.2680 C   0  0  1  0  0  0  0  0  0  0  0  0
   11.6461  -17.1229   20.6246 N   0  0  0  0  0  0  0  0  0  0  0  0
   10.2636  -17.1348   21.0677 C   0  0  0  0  0  0  0  0  0  0  0  0
   11.7589  -17.1500   19.1559 O   0  0  0  0  0  0  0  0  0  0  0  0
   12.8635  -16.9399   18.6206 O   0  0  0  0  0  0  0  0  0  0  0  0
  2 12  2  0
  2  1  1  0
  3  2  1  0
  4  3  2  0
  5  4  1  0
  5 11  2  0
  6  5  1  0
  7  9  1  0
  7  6  1  0
  7  8  1  1
  9 10  2  0
 11 12  1  0
 14 13  1  0
 15 14  2  0
 16 14  1  0
 17 18  1  0
 17 16  1  0
 18 19  1  0
 20 19  1  6
 21 20  1  0
 21  9  1  0
 22 20  1  0
 23 22  2  0
 25 24  1  1
 25 26  1  0
 26 22  1  0
 27 25  1  0
 27 29  1  0
 28 27  2  0
M  END
$$$$
