YRA.pdb
     RDKit          3D

 29 29  0  0  1  0  0  0  0  0999 V2000
    5.3560  -10.2667   28.0308 O   0  0  0  0  0  0  0  0  0  0  0  0
    6.0601  -11.2716   27.3688 C   0  0  0  0  0  0  0  0  0  0  0  0
    6.0597  -11.3818   25.9954 C   0  0  0  0  0  0  0  0  0  0  0  0
    6.7572  -12.3761   25.3369 C   0  0  0  0  0  0  0  0  0  0  0  0
    7.4919  -13.3117   26.0396 C   0  0  0  0  0  0  0  0  0  0  0  0
    8.2539  -14.4048   25.3562 C   0  0  0  0  0  0  0  0  0  0  0  0
    7.2922  -15.5402   25.0817 C   0  0  2  0  0  0  0  0  0  0  0  0
    7.1252  -16.3209   26.2823 N   0  0  0  0  0  0  0  0  0  0  0  0
    7.8193  -16.3677   23.9535 C   0  0  0  0  0  0  0  0  0  0  0  0
    8.5471  -17.3471   24.2462 O   0  0  0  0  0  0  0  0  0  0  0  0
    7.4978  -13.2088   27.4149 C   0  0  0  0  0  0  0  0  0  0  0  0
    6.7942  -12.2055   28.0788 C   0  0  0  0  0  0  0  0  0  0  0  0
    9.3218  -15.0763   15.7226 N   0  0  0  0  0  0  0  0  0  0  0  0
    8.4896  -14.4052   16.6556 C   0  0  0  0  0  0  0  0  0  0  0  0
    8.5479  -13.1071   16.7032 N   0  0  0  0  0  0  0  0  0  0  0  0
    7.6062  -15.0703   17.5321 N   0  0  0  0  0  0  0  0  0  0  0  0
    7.7120  -16.4941   17.7058 C   0  0  0  0  0  0  0  0  0  0  0  0
    8.3523  -16.8751   19.0164 C   0  0  0  0  0  0  0  0  0  0  0  0
    7.7222  -16.1445   20.1713 C   0  0  0  0  0  0  0  0  0  0  0  0
    8.1691  -16.7376   21.4784 C   0  0  2  0  0  0  0  0  0  0  0  0
    7.5372  -16.0983   22.6126 N   0  0  0  0  0  0  0  0  0  0  0  0
    9.6539  -16.4763   21.5508 C   0  0  0  0  0  0  0  0  0  0  0  0
   10.0775  -15.3812   21.1335 O   0  0  0  0  0  0  0  0  0  0  0  0
    7.9947  -12.5483   17.3680 C   0  0  0  0  0  0  0  0  0  0  0  0
   12.0294  -15.9710   23.3958 C   0  0  2  0  0  0  0  0  0  0  0  0
   11.9489  -17.1047   22.3967 N   0  0  0  0  0  0  0  0  0  0  0  0
   10.5701  -17.4189   22.0682 C   0  0  0  0  0  0  0  0  0  0  0  0
   12.6945  -18.2898   22.8554 O   0  0  0  0  0  0  0  0  0  0  0  0
   13.9195  -18.2027   23.0623 O   0  0  0  0  0  0  0  0  0  0  0  0
  2 12  2  0
  2  1  1  0
  3  2  1  0
  4  3  2  0
  5  4  1  0
  5 11  2  0
  6  5  1  0
  7  9  1  0
  7  6  1  0
  7  8  1  1
  9 10  2  0
 11 12  1  0
 14 13  1  0
 15 14  2  0
 16 14  1  0
 17 18  1  0
 17 16  1  0
 18 19  1  0
 20 19  1  6
 21 20  1  0
 21  9  1  0
 22 20  1  0
 23 22  2  0
 25 24  1  6
 25 26  1  0
 26 22  1  0
 27 25  1  0
 27 29  1  0
 28 27  2  0
M  END
$$$$
