YRA.pdb
     RDKit          3D

 29 29  0  0  1  0  0  0  0  0999 V2000
    5.3393  -10.2942   27.4745 O   0  0  0  0  0  0  0  0  0  0  0  0
    5.9390  -11.4861   27.0701 C   0  0  0  0  0  0  0  0  0  0  0  0
    6.2303  -12.4970   27.9600 C   0  0  0  0  0  0  0  0  0  0  0  0
    6.8237  -13.6793   27.5618 C   0  0  0  0  0  0  0  0  0  0  0  0
    7.1532  -13.8969   26.2378 C   0  0  0  0  0  0  0  0  0  0  0  0
    7.8022  -15.1646   25.7751 C   0  0  0  0  0  0  0  0  0  0  0  0
    6.9071  -15.7893   24.7272 C   0  0  2  0  0  0  0  0  0  0  0  0
    6.1854  -16.8901   25.3155 N   0  0  0  0  0  0  0  0  0  0  0  0
    7.7427  -16.2324   23.5692 C   0  0  0  0  0  0  0  0  0  0  0  0
    8.0403  -17.4496   23.5037 O   0  0  0  0  0  0  0  0  0  0  0  0
    6.8651  -12.8902   25.3402 C   0  0  0  0  0  0  0  0  0  0  0  0
    6.2663  -11.6977   25.7422 C   0  0  0  0  0  0  0  0  0  0  0  0
    9.6436  -14.7442   17.5240 N   0  0  0  0  0  0  0  0  0  0  0  0
    8.4662  -14.1872   16.9614 C   0  0  0  0  0  0  0  0  0  0  0  0
    8.1817  -14.4793   15.7267 N   0  0  0  0  0  0  0  0  0  0  0  0
    7.5916  -13.3351   17.6684 N   0  0  0  0  0  0  0  0  0  0  0  0
    7.8838  -12.9874   19.0331 C   0  0  0  0  0  0  0  0  0  0  0  0
    7.7793  -14.1645   19.9694 C   0  0  0  0  0  0  0  0  0  0  0  0
    9.1349  -14.6161   20.4414 C   0  0  0  0  0  0  0  0  0  0  0  0
    9.0019  -15.7360   21.4353 C   0  0  2  0  0  0  0  0  0  0  0  0
    8.1948  -15.3605   22.5764 N   0  0  0  0  0  0  0  0  0  0  0  0
   10.4052  -16.0148   21.9158 C   0  0  0  0  0  0  0  0  0  0  0  0
   10.8356  -15.3565   22.8825 O   0  0  0  0  0  0  0  0  0  0  0  0
    7.3611  -14.0947   15.2378 C   0  0  0  0  0  0  0  0  0  0  0  0
   13.4221  -15.9117   21.5852 C   0  0  2  0  0  0  0  0  0  0  0  0
   12.6263  -17.1948   21.6875 N   0  0  0  0  0  0  0  0  0  0  0  0
   11.2391  -16.9840   21.3149 C   0  0  0  0  0  0  0  0  0  0  0  0
   12.7561  -17.8125   23.0188 O   0  0  0  0  0  0  0  0  0  0  0  0
   13.8856  -18.1126   23.4492 O   0  0  0  0  0  0  0  0  0  0  0  0
  2 12  2  0
  2  1  1  0
  3  2  1  0
  4  3  2  0
  5  4  1  0
  5 11  2  0
  6  5  1  0
  7  9  1  0
  7  6  1  0
  7  8  1  1
  9 10  2  0
 11 12  1  0
 14 13  1  0
 15 14  2  0
 16 14  1  0
 17 18  1  0
 17 16  1  0
 18 19  1  0
 20 19  1  6
 21 20  1  0
 21  9  1  0
 22 20  1  0
 23 22  2  0
 25 24  1  6
 25 26  1  0
 26 22  1  0
 27 25  1  0
 27 29  1  0
 28 27  2  0
M  END
$$$$
