YRA.pdb
     RDKit          3D

 29 29  0  0  1  0  0  0  0  0999 V2000
    9.4318  -12.5323   10.8461 O   0  0  0  0  0  0  0  0  0  0  0  0
    9.2040  -13.0906   12.1033 C   0  0  0  0  0  0  0  0  0  0  0  0
    7.9696  -13.0396   12.7134 C   0  0  0  0  0  0  0  0  0  0  0  0
    7.7410  -13.5928   13.9586 C   0  0  0  0  0  0  0  0  0  0  0  0
    8.7553  -14.2267   14.6502 C   0  0  0  0  0  0  0  0  0  0  0  0
    8.5416  -14.8311   16.0035 C   0  0  0  0  0  0  0  0  0  0  0  0
    8.7481  -16.3251   15.8831 C   0  0  2  0  0  0  0  0  0  0  0  0
    7.7420  -16.8738   15.0084 N   0  0  0  0  0  0  0  0  0  0  0  0
    8.6909  -16.9396   17.2449 C   0  0  0  0  0  0  0  0  0  0  0  0
    7.5560  -17.1414   17.7405 O   0  0  0  0  0  0  0  0  0  0  0  0
    9.9942  -14.2823   14.0468 C   0  0  0  0  0  0  0  0  0  0  0  0
   10.2244  -13.7244   12.7905 C   0  0  0  0  0  0  0  0  0  0  0  0
   10.8167  -24.7604   19.4289 N   0  0  0  0  0  0  0  0  0  0  0  0
    9.9525  -23.6895   19.0831 C   0  0  0  0  0  0  0  0  0  0  0  0
    8.6708  -23.9079   19.1028 N   0  0  0  0  0  0  0  0  0  0  0  0
   10.4092  -22.4050   18.7193 N   0  0  0  0  0  0  0  0  0  0  0  0
    9.4593  -21.3516   18.4816 C   0  0  0  0  0  0  0  0  0  0  0  0
   10.1149  -20.0576   18.0709 C   0  0  0  0  0  0  0  0  0  0  0  0
   10.5333  -19.2470   19.2677 C   0  0  0  0  0  0  0  0  0  0  0  0
    9.8314  -17.9177   19.2767 C   0  0  2  0  0  0  0  0  0  0  0  0
    9.8302  -17.2919   17.9718 N   0  0  0  0  0  0  0  0  0  0  0  0
   10.6279  -17.0497   20.2203 C   0  0  0  0  0  0  0  0  0  0  0  0
   11.6869  -16.5451   19.8000 O   0  0  0  0  0  0  0  0  0  0  0  0
    7.9800  -23.1974   18.8231 C   0  0  0  0  0  0  0  0  0  0  0  0
   10.1191  -15.5688   23.6649 C   0  0  1  0  0  0  0  0  0  0  0  0
   10.9647  -15.9544   22.4707 N   0  0  0  0  0  0  0  0  0  0  0  0
   10.2204  -16.7928   21.5483 C   0  0  0  0  0  0  0  0  0  0  0  0
   12.2373  -16.5734   22.8806 O   0  0  0  0  0  0  0  0  0  0  0  0
   12.3703  -17.8096   22.8091 O   0  0  0  0  0  0  0  0  0  0  0  0
  2 12  2  0
  2  1  1  0
  3  2  1  0
  4  3  2  0
  5  4  1  0
  5 11  2  0
  6  5  1  0
  7  9  1  0
  7  6  1  0
  7  8  1  6
  9 10  2  0
 11 12  1  0
 14 13  1  0
 15 14  2  0
 16 14  1  0
 17 18  1  0
 17 16  1  0
 18 19  1  0
 20 19  1  6
 21 20  1  0
 21  9  1  0
 22 20  1  0
 23 22  2  0
 25 24  1  6
 25 26  1  0
 26 22  1  0
 27 25  1  0
 27 29  1  0
 28 27  2  0
M  END
$$$$
