YRA.pdb
     RDKit          3D

 29 29  0  0  1  0  0  0  0  0999 V2000
   -7.8940  -19.8070   25.7694 O   0  0  0  0  0  0  0  0  0  0  0  0
   -7.2812  -20.7703   26.5697 C   0  0  0  0  0  0  0  0  0  0  0  0
   -5.9139  -20.9389   26.5940 C   0  0  0  0  0  0  0  0  0  0  0  0
   -5.3042  -21.8922   27.3867 C   0  0  0  0  0  0  0  0  0  0  0  0
   -6.0520  -22.7251   28.1966 C   0  0  0  0  0  0  0  0  0  0  0  0
   -5.4222  -23.7717   29.0629 C   0  0  0  0  0  0  0  0  0  0  0  0
   -4.9006  -24.8690   28.1611 C   0  0  2  0  0  0  0  0  0  0  0  0
   -6.0089  -25.4874   27.4771 N   0  0  0  0  0  0  0  0  0  0  0  0
   -4.1374  -25.8578   28.9828 C   0  0  0  0  0  0  0  0  0  0  0  0
   -4.7900  -26.7765   29.5348 O   0  0  0  0  0  0  0  0  0  0  0  0
   -7.4215  -22.5630   28.1785 C   0  0  0  0  0  0  0  0  0  0  0  0
   -8.0363  -21.6013   27.3788 C   0  0  0  0  0  0  0  0  0  0  0  0
    1.1588  -29.8067   27.3879 N   0  0  0  0  0  0  0  0  0  0  0  0
    1.7014  -28.8483   26.4933 C   0  0  0  0  0  0  0  0  0  0  0  0
    2.0873  -29.2568   25.3207 N   0  0  0  0  0  0  0  0  0  0  0  0
    1.8446  -27.4805   26.8086 N   0  0  0  0  0  0  0  0  0  0  0  0
    1.4226  -26.9978   28.0960 C   0  0  0  0  0  0  0  0  0  0  0  0
   -0.0648  -27.1249   28.3069 C   0  0  0  0  0  0  0  0  0  0  0  0
   -0.4816  -26.5740   29.6438 C   0  0  0  0  0  0  0  0  0  0  0  0
   -1.9547  -26.7780   29.8631 C   0  0  2  0  0  0  0  0  0  0  0  0
   -2.7527  -25.7999   29.1552 N   0  0  0  0  0  0  0  0  0  0  0  0
   -2.1703  -26.5860   31.3446 C   0  0  0  0  0  0  0  0  0  0  0  0
   -2.3434  -25.4263   31.7665 O   0  0  0  0  0  0  0  0  0  0  0  0
    2.4845  -28.6234   24.6127 C   0  0  0  0  0  0  0  0  0  0  0  0
   -3.7097  -26.6860   33.9030 C   0  0  2  0  0  0  0  0  0  0  0  0
   -2.4618  -27.5114   33.6761 N   0  0  0  0  0  0  0  0  0  0  0  0
   -2.1817  -27.6622   32.2596 C   0  0  0  0  0  0  0  0  0  0  0  0
   -2.5329  -28.8095   34.3695 O   0  0  0  0  0  0  0  0  0  0  0  0
   -2.5090  -29.8628   33.7054 O   0  0  0  0  0  0  0  0  0  0  0  0
  2 12  2  0
  2  1  1  0
  3  2  1  0
  4  3  2  0
  5  4  1  0
  5 11  2  0
  6  5  1  0
  7  9  1  0
  7  6  1  0
  7  8  1  1
  9 10  2  0
 11 12  1  0
 14 13  1  0
 15 14  2  0
 16 14  1  0
 17 18  1  0
 17 16  1  0
 18 19  1  0
 20 19  1  1
 21 20  1  0
 21  9  1  0
 22 20  1  0
 23 22  2  0
 25 24  1  1
 25 26  1  0
 26 22  1  0
 27 25  1  0
 27 29  1  0
 28 27  2  0
M  END
$$$$
