YRA.pdb
     RDKit          3D

 29 29  0  0  1  0  0  0  0  0999 V2000
    5.3962  -23.0200   28.3197 O   0  0  0  0  0  0  0  0  0  0  0  0
    6.1930  -22.2872   27.4412 C   0  0  0  0  0  0  0  0  0  0  0  0
    6.1670  -20.9100   27.4057 C   0  0  0  0  0  0  0  0  0  0  0  0
    6.9562  -20.1815   26.5368 C   0  0  0  0  0  0  0  0  0  0  0  0
    7.8136  -20.8141   25.6572 C   0  0  0  0  0  0  0  0  0  0  0  0
    8.6775  -20.0537   24.6992 C   0  0  0  0  0  0  0  0  0  0  0  0
    7.7855  -19.4933   23.6131 C   0  0  2  0  0  0  0  0  0  0  0  0
    7.2922  -20.5761   22.7991 N   0  0  0  0  0  0  0  0  0  0  0  0
    8.5603  -18.5027   22.8044 C   0  0  0  0  0  0  0  0  0  0  0  0
    9.0843  -18.9099   21.7395 O   0  0  0  0  0  0  0  0  0  0  0  0
    7.8459  -22.1925   25.6860 C   0  0  0  0  0  0  0  0  0  0  0  0
    7.0498  -22.9272   26.5628 C   0  0  0  0  0  0  0  0  0  0  0  0
    8.3404  -15.2466   17.3306 N   0  0  0  0  0  0  0  0  0  0  0  0
    7.9137  -14.0569   17.9755 C   0  0  0  0  0  0  0  0  0  0  0  0
    7.8270  -12.9729   17.2627 N   0  0  0  0  0  0  0  0  0  0  0  0
    7.5808  -13.9885   19.3449 N   0  0  0  0  0  0  0  0  0  0  0  0
    8.5466  -14.3858   20.3339 C   0  0  0  0  0  0  0  0  0  0  0  0
    7.9972  -14.3372   21.7370 C   0  0  0  0  0  0  0  0  0  0  0  0
    9.0229  -14.7767   22.7467 C   0  0  0  0  0  0  0  0  0  0  0  0
    9.4849  -16.1771   22.4548 C   0  0  2  0  0  0  0  0  0  0  0  0
    8.7189  -17.1673   23.1810 N   0  0  0  0  0  0  0  0  0  0  0  0
   10.9149  -16.2360   22.9341 C   0  0  0  0  0  0  0  0  0  0  0  0
   11.1810  -15.7427   24.0471 O   0  0  0  0  0  0  0  0  0  0  0  0
    7.5428  -12.0662   17.6594 C   0  0  0  0  0  0  0  0  0  0  0  0
   14.1162  -17.9295   21.9000 C   0  0  1  0  0  0  0  0  0  0  0  0
   13.3466  -16.8138   22.5730 N   0  0  0  0  0  0  0  0  0  0  0  0
   11.9508  -16.8230   22.1739 C   0  0  0  0  0  0  0  0  0  0  0  0
   13.9797  -15.5024   22.3493 O   0  0  0  0  0  0  0  0  0  0  0  0
   13.5013  -14.7260   21.5013 O   0  0  0  0  0  0  0  0  0  0  0  0
  2 12  2  0
  2  1  1  0
  3  2  1  0
  4  3  2  0
  5  4  1  0
  5 11  2  0
  6  5  1  0
  7  9  1  0
  7  6  1  0
  7  8  1  6
  9 10  2  0
 11 12  1  0
 14 13  1  0
 15 14  2  0
 16 14  1  0
 17 18  1  0
 17 16  1  0
 18 19  1  0
 20 19  1  1
 21 20  1  0
 21  9  1  0
 22 20  1  0
 23 22  2  0
 25 24  1  1
 25 26  1  0
 26 22  1  0
 27 25  1  0
 27 29  1  0
 28 27  2  0
M  END
$$$$
