YRA.pdb
     RDKit          3D

 29 29  0  0  1  0  0  0  0  0999 V2000
    6.5402  -10.6047   26.7320 O   0  0  0  0  0  0  0  0  0  0  0  0
    6.7518  -11.9826   26.7085 C   0  0  0  0  0  0  0  0  0  0  0  0
    5.7442  -12.8722   26.4055 C   0  0  0  0  0  0  0  0  0  0  0  0
    5.9515  -14.2379   26.3807 C   0  0  0  0  0  0  0  0  0  0  0  0
    7.1939  -14.7721   26.6633 C   0  0  0  0  0  0  0  0  0  0  0  0
    7.4497  -16.2475   26.6506 C   0  0  0  0  0  0  0  0  0  0  0  0
    8.7740  -16.4836   25.9578 C   0  0  2  0  0  0  0  0  0  0  0  0
    9.4681  -15.2274   25.8211 N   0  0  0  0  0  0  0  0  0  0  0  0
    8.5256  -17.1249   24.6302 C   0  0  0  0  0  0  0  0  0  0  0  0
    8.0565  -18.2887   24.6294 O   0  0  0  0  0  0  0  0  0  0  0  0
    8.2083  -13.8887   26.9677 C   0  0  0  0  0  0  0  0  0  0  0  0
    7.9990  -12.5110   26.9924 C   0  0  0  0  0  0  0  0  0  0  0  0
    9.2831  -13.3028   17.6684 N   0  0  0  0  0  0  0  0  0  0  0  0
    8.3141  -12.8377   18.5946 C   0  0  0  0  0  0  0  0  0  0  0  0
    8.3366  -11.5797   18.9226 N   0  0  0  0  0  0  0  0  0  0  0  0
    7.3315  -13.6660   19.1772 N   0  0  0  0  0  0  0  0  0  0  0  0
    7.4543  -14.0561   20.5560 C   0  0  0  0  0  0  0  0  0  0  0  0
    8.5376  -15.0811   20.7772 C   0  0  0  0  0  0  0  0  0  0  0  0
    7.9608  -16.4302   21.1112 C   0  0  0  0  0  0  0  0  0  0  0  0
    8.8214  -17.1374   22.1206 C   0  0  2  0  0  0  0  0  0  0  0  0
    8.7894  -16.4899   23.4146 N   0  0  0  0  0  0  0  0  0  0  0  0
   10.2278  -17.0509   21.5796 C   0  0  0  0  0  0  0  0  0  0  0  0
   10.5039  -17.7071   20.5568 O   0  0  0  0  0  0  0  0  0  0  0  0
    7.7251  -11.1821   19.6493 C   0  0  0  0  0  0  0  0  0  0  0  0
   12.8615  -14.8947   20.9768 C   0  0  2  0  0  0  0  0  0  0  0  0
   12.6001  -16.1943   21.7067 N   0  0  0  0  0  0  0  0  0  0  0  0
   11.2311  -16.2621   22.1853 C   0  0  0  0  0  0  0  0  0  0  0  0
   13.5775  -16.4199   22.7857 O   0  0  0  0  0  0  0  0  0  0  0  0
   13.1745  -16.6624   23.9389 O   0  0  0  0  0  0  0  0  0  0  0  0
  2 12  2  0
  2  1  1  0
  3  2  1  0
  4  3  2  0
  5  4  1  0
  5 11  2  0
  6  5  1  0
  7  9  1  0
  7  6  1  0
  7  8  1  6
  9 10  2  0
 11 12  1  0
 14 13  1  0
 15 14  2  0
 16 14  1  0
 17 18  1  0
 17 16  1  0
 18 19  1  0
 20 19  1  6
 21 20  1  0
 21  9  1  0
 22 20  1  0
 23 22  2  0
 25 24  1  6
 25 26  1  0
 26 22  1  0
 27 25  1  0
 27 29  1  0
 28 27  2  0
M  END
$$$$
