YRA.pdb
     RDKit          3D

 29 29  0  0  1  0  0  0  0  0999 V2000
    5.8576  -10.0275   27.0899 O   0  0  0  0  0  0  0  0  0  0  0  0
    6.3950  -11.2751   26.7762 C   0  0  0  0  0  0  0  0  0  0  0  0
    6.6154  -12.2389   27.7360 C   0  0  0  0  0  0  0  0  0  0  0  0
    7.1469  -13.4762   27.4276 C   0  0  0  0  0  0  0  0  0  0  0  0
    7.4832  -13.7997   26.1271 C   0  0  0  0  0  0  0  0  0  0  0  0
    8.0663  -15.1295   25.7610 C   0  0  0  0  0  0  0  0  0  0  0  0
    7.0500  -15.8657   24.9157 C   0  0  2  0  0  0  0  0  0  0  0  0
    6.3357  -16.8050   25.7440 N   0  0  0  0  0  0  0  0  0  0  0  0
    7.7532  -16.5483   23.7865 C   0  0  0  0  0  0  0  0  0  0  0  0
    8.1869  -17.7076   23.9924 O   0  0  0  0  0  0  0  0  0  0  0  0
    7.2658  -12.8408   25.1600 C   0  0  0  0  0  0  0  0  0  0  0  0
    6.7294  -11.5927   25.4714 C   0  0  0  0  0  0  0  0  0  0  0  0
    7.3657  -14.6558   15.0257 N   0  0  0  0  0  0  0  0  0  0  0  0
    7.9369  -14.2574   16.2619 C   0  0  0  0  0  0  0  0  0  0  0  0
    8.3495  -13.0297   16.3769 N   0  0  0  0  0  0  0  0  0  0  0  0
    8.0811  -15.1207   17.3686 N   0  0  0  0  0  0  0  0  0  0  0  0
    9.3963  -15.4575   17.8432 C   0  0  0  0  0  0  0  0  0  0  0  0
    9.3664  -16.3371   19.0673 C   0  0  0  0  0  0  0  0  0  0  0  0
    8.6272  -15.6796   20.2012 C   0  0  0  0  0  0  0  0  0  0  0  0
    8.6421  -16.5580   21.4211 C   0  0  2  0  0  0  0  0  0  0  0  0
    7.9412  -15.9568   22.5355 N   0  0  0  0  0  0  0  0  0  0  0  0
   10.0974  -16.7006   21.7950 C   0  0  0  0  0  0  0  0  0  0  0  0
   10.7213  -15.6736   22.1250 O   0  0  0  0  0  0  0  0  0  0  0  0
    8.9397  -12.7109   17.1580 C   0  0  0  0  0  0  0  0  0  0  0  0
   12.4976  -19.5778   22.3583 C   0  0  1  0  0  0  0  0  0  0  0  0
   12.1521  -18.1138   22.1935 N   0  0  0  0  0  0  0  0  0  0  0  0
   10.7699  -17.9428   21.7835 C   0  0  0  0  0  0  0  0  0  0  0  0
   13.0895  -17.4311   21.2848 O   0  0  0  0  0  0  0  0  0  0  0  0
   12.8496  -17.4023   20.0630 O   0  0  0  0  0  0  0  0  0  0  0  0
  2 12  2  0
  2  1  1  0
  3  2  1  0
  4  3  2  0
  5  4  1  0
  5 11  2  0
  6  5  1  0
  7  9  1  0
  7  6  1  0
  7  8  1  1
  9 10  2  0
 11 12  1  0
 14 13  1  0
 15 14  2  0
 16 14  1  0
 17 18  1  0
 17 16  1  0
 18 19  1  0
 20 19  1  6
 21 20  1  0
 21  9  1  0
 22 20  1  0
 23 22  2  0
 25 24  1  1
 25 26  1  0
 26 22  1  0
 27 25  1  0
 27 29  1  0
 28 27  2  0
M  END
$$$$
