YRA.pdb
     RDKit          3D

 29 29  0  0  1  0  0  0  0  0999 V2000
    5.0261  -10.2672   27.9960 O   0  0  0  0  0  0  0  0  0  0  0  0
    5.7733  -11.2933   27.4191 C   0  0  0  0  0  0  0  0  0  0  0  0
    6.8297  -11.8867   28.0753 C   0  0  0  0  0  0  0  0  0  0  0  0
    7.5711  -12.9041   27.5063 C   0  0  0  0  0  0  0  0  0  0  0  0
    7.2786  -13.3722   26.2397 C   0  0  0  0  0  0  0  0  0  0  0  0
    8.0664  -14.4693   25.5929 C   0  0  0  0  0  0  0  0  0  0  0  0
    7.1107  -15.5945   25.2615 C   0  0  2  0  0  0  0  0  0  0  0  0
    6.8741  -16.3801   26.4470 N   0  0  0  0  0  0  0  0  0  0  0  0
    7.6892  -16.4205   24.1577 C   0  0  0  0  0  0  0  0  0  0  0  0
    8.3809  -17.4158   24.4824 O   0  0  0  0  0  0  0  0  0  0  0  0
    6.2227  -12.7838   25.5758 C   0  0  0  0  0  0  0  0  0  0  0  0
    5.4748  -11.7576   26.1501 C   0  0  0  0  0  0  0  0  0  0  0  0
    8.1661  -14.8329   15.2885 N   0  0  0  0  0  0  0  0  0  0  0  0
    8.5998  -14.1831   16.4730 C   0  0  0  0  0  0  0  0  0  0  0  0
    8.7117  -12.8878   16.4535 N   0  0  0  0  0  0  0  0  0  0  0  0
    8.9161  -14.8665   17.6663 N   0  0  0  0  0  0  0  0  0  0  0  0
    8.3139  -16.1443   17.9369 C   0  0  0  0  0  0  0  0  0  0  0  0
    8.7054  -16.6995   19.2828 C   0  0  0  0  0  0  0  0  0  0  0  0
    7.9011  -16.0768   20.3918 C   0  0  0  0  0  0  0  0  0  0  0  0
    8.2174  -16.7335   21.7065 C   0  0  2  0  0  0  0  0  0  0  0  0
    7.4920  -16.1329   22.8054 N   0  0  0  0  0  0  0  0  0  0  0  0
    9.6925  -16.5014   21.9263 C   0  0  0  0  0  0  0  0  0  0  0  0
   10.0746  -15.3384   22.1596 O   0  0  0  0  0  0  0  0  0  0  0  0
    9.0571  -12.3460   17.2580 C   0  0  0  0  0  0  0  0  0  0  0  0
   12.7403  -18.6275   22.5265 C   0  0  1  0  0  0  0  0  0  0  0  0
   12.0673  -17.3453   22.0872 N   0  0  0  0  0  0  0  0  0  0  0  0
   10.6446  -17.5438   21.8767 C   0  0  0  0  0  0  0  0  0  0  0  0
   12.7270  -16.7597   20.9071 O   0  0  0  0  0  0  0  0  0  0  0  0
   12.4078  -17.1497   19.7682 O   0  0  0  0  0  0  0  0  0  0  0  0
  2 12  2  0
  2  1  1  0
  3  2  1  0
  4  3  2  0
  5  4  1  0
  5 11  2  0
  6  5  1  0
  7  9  1  0
  7  6  1  0
  7  8  1  1
  9 10  2  0
 11 12  1  0
 14 13  1  0
 15 14  2  0
 16 14  1  0
 17 18  1  0
 17 16  1  0
 18 19  1  0
 20 19  1  6
 21 20  1  0
 21  9  1  0
 22 20  1  0
 23 22  2  0
 25 24  1  1
 25 26  1  0
 26 22  1  0
 27 25  1  0
 27 29  1  0
 28 27  2  0
M  END
$$$$
