YRA.pdb
     RDKit          3D

 29 29  0  0  1  0  0  0  0  0999 V2000
    5.7335  -10.2852   27.2521 O   0  0  0  0  0  0  0  0  0  0  0  0
    6.1627  -11.5786   26.9574 C   0  0  0  0  0  0  0  0  0  0  0  0
    5.7114  -12.2645   25.8508 C   0  0  0  0  0  0  0  0  0  0  0  0
    6.1358  -13.5458   25.5560 C   0  0  0  0  0  0  0  0  0  0  0  0
    7.0411  -14.1983   26.3706 C   0  0  0  0  0  0  0  0  0  0  0  0
    7.5163  -15.5888   26.0820 C   0  0  0  0  0  0  0  0  0  0  0  0
    6.6189  -16.1742   25.0138 C   0  0  2  0  0  0  0  0  0  0  0  0
    6.0586  -17.4135   25.4922 N   0  0  0  0  0  0  0  0  0  0  0  0
    7.4118  -16.3733   23.7619 C   0  0  0  0  0  0  0  0  0  0  0  0
    7.9551  -17.4918   23.5939 O   0  0  0  0  0  0  0  0  0  0  0  0
    7.4980  -13.5189   27.4805 C   0  0  0  0  0  0  0  0  0  0  0  0
    7.0699  -12.2263   27.7775 C   0  0  0  0  0  0  0  0  0  0  0  0
    7.5458  -13.2654   15.6517 N   0  0  0  0  0  0  0  0  0  0  0  0
    8.1515  -14.5138   15.9481 C   0  0  0  0  0  0  0  0  0  0  0  0
    8.2151  -15.4023   15.0009 N   0  0  0  0  0  0  0  0  0  0  0  0
    8.6855  -14.8408   17.2125 N   0  0  0  0  0  0  0  0  0  0  0  0
    8.5811  -13.9000   18.2954 C   0  0  0  0  0  0  0  0  0  0  0  0
    9.2318  -14.3950   19.5620 C   0  0  0  0  0  0  0  0  0  0  0  0
    8.3104  -14.2615   20.7443 C   0  0  0  0  0  0  0  0  0  0  0  0
    8.3014  -15.5289   21.5526 C   0  0  2  0  0  0  0  0  0  0  0  0
    7.5668  -15.3817   22.7909 N   0  0  0  0  0  0  0  0  0  0  0  0
    9.7477  -15.8021   21.8866 C   0  0  0  0  0  0  0  0  0  0  0  0
   10.3997  -14.9015   22.4494 O   0  0  0  0  0  0  0  0  0  0  0  0
    8.6963  -16.3054   15.1152 C   0  0  0  0  0  0  0  0  0  0  0  0
   12.1718  -18.6859   21.3955 C   0  0  1  0  0  0  0  0  0  0  0  0
   11.7922  -17.2829   21.8169 N   0  0  0  0  0  0  0  0  0  0  0  0
   10.3817  -17.0283   21.5863 C   0  0  0  0  0  0  0  0  0  0  0  0
   12.6510  -16.2704   21.1781 O   0  0  0  0  0  0  0  0  0  0  0  0
   13.5582  -15.7296   21.8381 O   0  0  0  0  0  0  0  0  0  0  0  0
  2 12  2  0
  2  1  1  0
  3  2  1  0
  4  3  2  0
  5  4  1  0
  5 11  2  0
  6  5  1  0
  7  9  1  0
  7  6  1  0
  7  8  1  1
  9 10  2  0
 11 12  1  0
 14 13  1  0
 15 14  2  0
 16 14  1  0
 17 18  1  0
 17 16  1  0
 18 19  1  0
 20 19  1  6
 21 20  1  0
 21  9  1  0
 22 20  1  0
 23 22  2  0
 25 24  1  1
 25 26  1  0
 26 22  1  0
 27 25  1  0
 27 29  1  0
 28 27  2  0
M  END
$$$$
