YRA.pdb
     RDKit          3D

 29 29  0  0  1  0  0  0  0  0999 V2000
   10.6964  -14.4275   30.8690 O   0  0  0  0  0  0  0  0  0  0  0  0
   10.6469  -14.7136   29.5053 C   0  0  0  0  0  0  0  0  0  0  0  0
   11.2952  -15.8015   28.9623 C   0  0  0  0  0  0  0  0  0  0  0  0
   11.2471  -16.0877   27.6116 C   0  0  0  0  0  0  0  0  0  0  0  0
   10.5378  -15.2830   26.7408 C   0  0  0  0  0  0  0  0  0  0  0  0
   10.4707  -15.5626   25.2712 C   0  0  0  0  0  0  0  0  0  0  0  0
    9.0893  -16.0970   24.9624 C   0  0  2  0  0  0  0  0  0  0  0  0
    8.8970  -17.3446   25.6589 N   0  0  0  0  0  0  0  0  0  0  0  0
    8.9466  -16.2624   23.4833 C   0  0  0  0  0  0  0  0  0  0  0  0
    9.1257  -17.4108   23.0104 O   0  0  0  0  0  0  0  0  0  0  0  0
    9.8858  -14.1919   27.2759 C   0  0  0  0  0  0  0  0  0  0  0  0
    9.9344  -13.9035   28.6386 C   0  0  0  0  0  0  0  0  0  0  0  0
    8.8907  -14.1138   16.2333 N   0  0  0  0  0  0  0  0  0  0  0  0
    7.5530  -13.6598   16.1003 C   0  0  0  0  0  0  0  0  0  0  0  0
    6.9720  -13.8001   14.9455 N   0  0  0  0  0  0  0  0  0  0  0  0
    6.8231  -13.0652   17.1513 N   0  0  0  0  0  0  0  0  0  0  0  0
    7.4451  -12.8786   18.4346 C   0  0  0  0  0  0  0  0  0  0  0  0
    7.8399  -14.1799   19.0854 C   0  0  0  0  0  0  0  0  0  0  0  0
    8.0043  -14.0252   20.5732 C   0  0  0  0  0  0  0  0  0  0  0  0
    8.4732  -15.3136   21.1895 C   0  0  2  0  0  0  0  0  0  0  0  0
    8.6265  -15.2084   22.6248 N   0  0  0  0  0  0  0  0  0  0  0  0
    9.8302  -15.5777   20.5838 C   0  0  0  0  0  0  0  0  0  0  0  0
    9.8808  -15.9271   19.3887 O   0  0  0  0  0  0  0  0  0  0  0  0
    6.0053  -13.4938   14.7670 C   0  0  0  0  0  0  0  0  0  0  0  0
   13.1117  -14.5761   20.3646 C   0  0  2  0  0  0  0  0  0  0  0  0
   12.3368  -15.8038   20.7916 N   0  0  0  0  0  0  0  0  0  0  0  0
   11.0312  -15.4453   21.3157 C   0  0  0  0  0  0  0  0  0  0  0  0
   13.1058  -16.6329   21.7360 O   0  0  0  0  0  0  0  0  0  0  0  0
   12.6377  -16.8729   22.8649 O   0  0  0  0  0  0  0  0  0  0  0  0
  2 12  2  0
  2  1  1  0
  3  2  1  0
  4  3  2  0
  5  4  1  0
  5 11  2  0
  6  5  1  0
  7  9  1  0
  7  6  1  0
  7  8  1  1
  9 10  2  0
 11 12  1  0
 14 13  1  0
 15 14  2  0
 16 14  1  0
 17 18  1  0
 17 16  1  0
 18 19  1  0
 20 19  1  6
 21 20  1  0
 21  9  1  0
 22 20  1  0
 23 22  2  0
 25 24  1  6
 25 26  1  0
 26 22  1  0
 27 25  1  0
 27 29  1  0
 28 27  2  0
M  END
$$$$
