YRA.pdb
     RDKit          3D

 29 29  0  0  1  0  0  0  0  0999 V2000
    6.2709  -10.2531   27.7393 O   0  0  0  0  0  0  0  0  0  0  0  0
    6.5658  -11.5353   27.2780 C   0  0  0  0  0  0  0  0  0  0  0  0
    5.6996  -12.5926   27.4527 C   0  0  0  0  0  0  0  0  0  0  0  0
    5.9891  -13.8639   26.9958 C   0  0  0  0  0  0  0  0  0  0  0  0
    7.1746  -14.1283   26.3375 C   0  0  0  0  0  0  0  0  0  0  0  0
    7.5206  -15.4961   25.8353 C   0  0  0  0  0  0  0  0  0  0  0  0
    6.8083  -15.7007   24.5162 C   0  0  2  0  0  0  0  0  0  0  0  0
    5.6968  -16.5978   24.7117 N   0  0  0  0  0  0  0  0  0  0  0  0
    7.7791  -16.2344   23.5121 C   0  0  0  0  0  0  0  0  0  0  0  0
    7.8777  -17.4811   23.4098 O   0  0  0  0  0  0  0  0  0  0  0  0
    8.0475  -13.0757   26.1583 C   0  0  0  0  0  0  0  0  0  0  0  0
    7.7552  -11.7933   26.6191 C   0  0  0  0  0  0  0  0  0  0  0  0
    8.4896  -15.3351   15.4258 N   0  0  0  0  0  0  0  0  0  0  0  0
    8.1792  -14.4445   16.4858 C   0  0  0  0  0  0  0  0  0  0  0  0
    8.2602  -13.1675   16.2546 N   0  0  0  0  0  0  0  0  0  0  0  0
    7.7896  -14.8703   17.7733 N   0  0  0  0  0  0  0  0  0  0  0  0
    8.7887  -15.2990   18.7150 C   0  0  0  0  0  0  0  0  0  0  0  0
    8.8749  -14.4004   19.9224 C   0  0  0  0  0  0  0  0  0  0  0  0
   10.0130  -14.7955   20.8242 C   0  0  0  0  0  0  0  0  0  0  0  0
    9.5812  -15.8745   21.7776 C   0  0  2  0  0  0  0  0  0  0  0  0
    8.5642  -15.4144   22.6988 N   0  0  0  0  0  0  0  0  0  0  0  0
   10.8164  -16.2278   22.5698 C   0  0  0  0  0  0  0  0  0  0  0  0
   11.2800  -15.3705   23.3464 O   0  0  0  0  0  0  0  0  0  0  0  0
    8.1018  -12.4579   16.9837 C   0  0  0  0  0  0  0  0  0  0  0  0
   12.9743  -19.3064   23.0635 C   0  0  1  0  0  0  0  0  0  0  0  0
   12.6716  -17.8284   23.1814 N   0  0  0  0  0  0  0  0  0  0  0  0
   11.4589  -17.4813   22.4626 C   0  0  0  0  0  0  0  0  0  0  0  0
   13.8187  -17.0020   22.7670 O   0  0  0  0  0  0  0  0  0  0  0  0
   13.8474  -16.5229   21.6178 O   0  0  0  0  0  0  0  0  0  0  0  0
  2 12  2  0
  2  1  1  0
  3  2  1  0
  4  3  2  0
  5  4  1  0
  5 11  2  0
  6  5  1  0
  7  9  1  0
  7  6  1  0
  7  8  1  1
  9 10  2  0
 11 12  1  0
 14 13  1  0
 15 14  2  0
 16 14  1  0
 17 18  1  0
 17 16  1  0
 18 19  1  0
 20 19  1  6
 21 20  1  0
 21  9  1  0
 22 20  1  0
 23 22  2  0
 25 24  1  1
 25 26  1  0
 26 22  1  0
 27 25  1  0
 27 29  1  0
 28 27  2  0
M  END
$$$$
