FSH.pdb
     RDKit          3D

 28 29  0  0  1  0  0  0  0  0999 V2000
    6.2836  -17.0664   21.5318 N   0  0  0  0  0  0  0  0  0  0  0  0
    7.6559  -17.0606   21.0618 C   0  0  1  0  0  0  0  0  0  0  0  0
    8.3568  -15.8596   21.6555 C   0  0  0  0  0  0  0  0  0  0  0  0
    7.9350  -14.5957   21.0208 C   0  0  0  0  0  0  0  0  0  0  0  0
    7.7501  -13.4376   21.7848 C   0  0  0  0  0  0  0  0  0  0  0  0
    7.3554  -12.2599   21.1861 C   0  0  0  0  0  0  0  0  0  0  0  0
    7.1299  -12.1738   19.8328 C   0  0  0  0  0  0  0  0  0  0  0  0
    7.3051  -13.2967   19.0649 C   0  0  0  0  0  0  0  0  0  0  0  0
    7.6987  -14.4682   19.6675 C   0  0  0  0  0  0  0  0  0  0  0  0
    8.3294  -18.3155   21.5207 C   0  0  0  0  0  0  0  0  0  0  0  0
    7.8334  -19.0512   22.4098 O   0  0  0  0  0  0  0  0  0  0  0  0
   11.0467  -19.4939   19.3434 O   0  0  0  0  0  0  0  0  0  0  0  0
   11.0073  -20.5086   20.3281 C   0  0  0  0  0  0  0  0  0  0  0  0
   10.2541  -19.8748   21.5071 C   0  0  2  0  0  0  0  0  0  0  0  0
    9.5667  -18.7217   20.9599 N   0  0  0  0  0  0  0  0  0  0  0  0
   11.2868  -19.4894   22.4941 C   0  0  0  0  0  0  0  0  0  0  0  0
   12.2430  -18.7702   22.1325 O   0  0  0  0  0  0  0  0  0  0  0  0
   11.2584  -19.8994   23.8727 N   0  0  0  0  0  0  0  0  0  0  0  0
   12.2724  -19.4956   24.7922 C   0  0  1  0  0  0  0  0  0  0  0  0
   11.9398  -18.2368   25.5168 C   0  0  0  0  0  0  0  0  0  0  0  0
   11.6079  -17.0908   24.6496 C   0  0  0  0  0  0  0  0  0  0  0  0
   12.3557  -16.3713   23.7701 C   0  0  0  0  0  0  0  0  0  0  0  0
   11.5750  -15.4211   23.1761 N   0  0  0  0  0  0  0  0  0  0  0  0
   10.3630  -15.5766   23.7021 C   0  0  0  0  0  0  0  0  0  0  0  0
   10.3310  -16.5649   24.5905 N   0  0  0  0  0  0  0  0  0  0  0  0
   12.6747  -20.5463   25.7640 C   0  0  0  0  0  0  0  0  0  0  0  0
   13.5949  -20.4754   26.5847 O   0  0  0  0  0  0  0  0  0  0  0  0
   11.9277  -21.7248   25.7329 O   0  0  0  0  0  0  0  0  0  0  0  0
  2  1  1  1
  2  3  1  0
  3  4  1  0
  4  5  2  0
  5  6  1  0
  7  6  2  0
  8  7  1  0
  9  8  2  0
  9  4  1  0
 10 11  2  0
 10  2  1  0
 12 13  1  0
 14 13  1  6
 14 15  1  0
 14 16  1  0
 15 10  1  0
 16 18  1  0
 17 16  2  0
 18 19  1  0
 19 26  1  0
 19 20  1  1
 20 21  1  0
 21 25  1  0
 22 21  2  0
 22 23  1  0
 23 24  1  0
 25 24  2  0
 26 27  2  0
 26 28  1  0
M  END
$$$$
