FSH.pdb
     RDKit          3D

 28 29  0  0  1  0  0  0  0  0999 V2000
   11.5583  -18.7063   11.3313 N   0  0  0  0  0  0  0  0  0  0  0  0
   11.3460  -19.9169   12.1017 C   0  0  1  0  0  0  0  0  0  0  0  0
   12.4213  -20.9124   11.7291 C   0  0  0  0  0  0  0  0  0  0  0  0
   12.2965  -21.3738   10.3328 C   0  0  0  0  0  0  0  0  0  0  0  0
   11.8163  -22.6561   10.0426 C   0  0  0  0  0  0  0  0  0  0  0  0
   11.7024  -23.0816    8.7360 C   0  0  0  0  0  0  0  0  0  0  0  0
   12.0506  -22.2764    7.6775 C   0  0  0  0  0  0  0  0  0  0  0  0
   12.5236  -21.0158    7.9390 C   0  0  0  0  0  0  0  0  0  0  0  0
   12.6349  -20.5970    9.2439 C   0  0  0  0  0  0  0  0  0  0  0  0
   11.4468  -19.5870   13.5577 C   0  0  0  0  0  0  0  0  0  0  0  0
   12.0001  -18.5360   13.9663 O   0  0  0  0  0  0  0  0  0  0  0  0
    9.5560  -21.8577   16.3744 O   0  0  0  0  0  0  0  0  0  0  0  0
    9.7496  -20.4773   16.6149 C   0  0  0  0  0  0  0  0  0  0  0  0
   11.0922  -20.1520   15.9434 C   0  0  2  0  0  0  0  0  0  0  0  0
   10.9139  -20.4616   14.5384 N   0  0  0  0  0  0  0  0  0  0  0  0
   12.0949  -21.0320   16.5834 C   0  0  0  0  0  0  0  0  0  0  0  0
   12.5436  -22.0122   15.9510 O   0  0  0  0  0  0  0  0  0  0  0  0
   12.5959  -20.8252   17.9159 N   0  0  0  0  0  0  0  0  0  0  0  0
   13.8608  -21.3433   18.3260 C   0  0  1  0  0  0  0  0  0  0  0  0
   14.9871  -20.8961   17.4590 C   0  0  0  0  0  0  0  0  0  0  0  0
   15.2165  -21.7269   16.2621 C   0  0  0  0  0  0  0  0  0  0  0  0
   14.5629  -22.8152   15.7736 C   0  0  0  0  0  0  0  0  0  0  0  0
   15.1428  -23.2090   14.6014 N   0  0  0  0  0  0  0  0  0  0  0  0
   16.1404  -22.3540   14.3930 C   0  0  0  0  0  0  0  0  0  0  0  0
   16.2258  -21.4464   15.3605 N   0  0  0  0  0  0  0  0  0  0  0  0
   14.1932  -21.0948   19.7537 C   0  0  0  0  0  0  0  0  0  0  0  0
   13.5263  -20.4398   20.5608 O   0  0  0  0  0  0  0  0  0  0  0  0
   15.3813  -21.6660   20.2120 O   0  0  0  0  0  0  0  0  0  0  0  0
  2  1  1  6
  2  3  1  0
  3  4  1  0
  4  5  2  0
  5  6  1  0
  7  6  2  0
  8  7  1  0
  9  8  2  0
  9  4  1  0
 10 11  2  0
 10  2  1  0
 12 13  1  0
 14 13  1  1
 14 15  1  0
 14 16  1  0
 15 10  1  0
 16 18  1  0
 17 16  2  0
 18 19  1  0
 19 26  1  0
 19 20  1  6
 20 21  1  0
 21 25  1  0
 22 21  2  0
 22 23  1  0
 23 24  1  0
 25 24  2  0
 26 27  2  0
 26 28  1  0
M  END
$$$$
