FSH.pdb
     RDKit          3D

 28 29  0  0  1  0  0  0  0  0999 V2000
    8.0808  -17.1280   16.8700 N   0  0  0  0  0  0  0  0  0  0  0  0
    8.5601  -16.1882   17.8656 C   0  0  1  0  0  0  0  0  0  0  0  0
    7.3885  -15.3576   18.3383 C   0  0  0  0  0  0  0  0  0  0  0  0
    7.7827  -14.3614   19.3534 C   0  0  0  0  0  0  0  0  0  0  0  0
    7.3387  -14.4726   20.6761 C   0  0  0  0  0  0  0  0  0  0  0  0
    7.7101  -13.5384   21.6199 C   0  0  0  0  0  0  0  0  0  0  0  0
    8.5207  -12.4731   21.3067 C   0  0  0  0  0  0  0  0  0  0  0  0
    8.9674  -12.3447   20.0162 C   0  0  0  0  0  0  0  0  0  0  0  0
    8.5938  -13.2793   19.0796 C   0  0  0  0  0  0  0  0  0  0  0  0
    9.1327  -16.9537   19.0167 C   0  0  0  0  0  0  0  0  0  0  0  0
    8.5040  -17.8867   19.5754 O   0  0  0  0  0  0  0  0  0  0  0  0
   12.8085  -17.4029   19.3308 O   0  0  0  0  0  0  0  0  0  0  0  0
   12.0619  -18.2355   20.1969 C   0  0  0  0  0  0  0  0  0  0  0  0
   10.9129  -17.3456   20.6940 C   0  0  2  0  0  0  0  0  0  0  0  0
   10.4215  -16.6475   19.5224 N   0  0  0  0  0  0  0  0  0  0  0  0
   11.5091  -16.4203   21.6829 C   0  0  0  0  0  0  0  0  0  0  0  0
   12.7201  -16.1243   21.5938 O   0  0  0  0  0  0  0  0  0  0  0  0
   10.7661  -15.8279   22.7629 N   0  0  0  0  0  0  0  0  0  0  0  0
   10.8979  -16.2969   24.1044 C   0  0  1  0  0  0  0  0  0  0  0  0
    9.7259  -17.0932   24.5654 C   0  0  0  0  0  0  0  0  0  0  0  0
    8.4180  -16.4375   24.3785 C   0  0  0  0  0  0  0  0  0  0  0  0
    8.0538  -15.1270   24.3609 C   0  0  0  0  0  0  0  0  0  0  0  0
    6.7143  -15.0278   24.1133 N   0  0  0  0  0  0  0  0  0  0  0  0
    6.2828  -16.2795   23.9831 C   0  0  0  0  0  0  0  0  0  0  0  0
    7.2662  -17.1611   24.1333 N   0  0  0  0  0  0  0  0  0  0  0  0
   12.1541  -17.0454   24.3732 C   0  0  0  0  0  0  0  0  0  0  0  0
   12.9617  -17.4527   23.5323 O   0  0  0  0  0  0  0  0  0  0  0  0
   12.4340  -17.3058   25.7155 O   0  0  0  0  0  0  0  0  0  0  0  0
  2  1  1  6
  2  3  1  0
  3  4  1  0
  4  5  2  0
  5  6  1  0
  7  6  2  0
  8  7  1  0
  9  8  2  0
  9  4  1  0
 10 11  2  0
 10  2  1  0
 12 13  1  0
 14 13  1  6
 14 15  1  0
 14 16  1  0
 15 10  1  0
 16 18  1  0
 17 16  2  0
 18 19  1  0
 19 26  1  0
 19 20  1  6
 20 21  1  0
 21 25  1  0
 22 21  2  0
 22 23  1  0
 23 24  1  0
 25 24  2  0
 26 27  2  0
 26 28  1  0
M  END
$$$$
