FSH.pdb
     RDKit          3D

 28 29  0  0  1  0  0  0  0  0999 V2000
    6.1272  -18.1967   25.5307 N   0  0  0  0  0  0  0  0  0  0  0  0
    6.6069  -16.8541   25.2633 C   0  0  1  0  0  0  0  0  0  0  0  0
    6.8240  -16.1545   26.5860 C   0  0  0  0  0  0  0  0  0  0  0  0
    6.9551  -14.6927   26.4305 C   0  0  0  0  0  0  0  0  0  0  0  0
    5.8216  -13.8726   26.3881 C   0  0  0  0  0  0  0  0  0  0  0  0
    5.9505  -12.5076   26.2421 C   0  0  0  0  0  0  0  0  0  0  0  0
    7.1800  -11.9022   26.1336 C   0  0  0  0  0  0  0  0  0  0  0  0
    8.3043  -12.6870   26.1727 C   0  0  0  0  0  0  0  0  0  0  0  0
    8.1695  -14.0475   26.3184 C   0  0  0  0  0  0  0  0  0  0  0  0
    7.9030  -16.9427   24.5209 C   0  0  0  0  0  0  0  0  0  0  0  0
    8.8257  -17.7154   24.8807 O   0  0  0  0  0  0  0  0  0  0  0  0
    9.0162  -14.1777   21.7027 O   0  0  0  0  0  0  0  0  0  0  0  0
    9.1913  -15.5303   21.3277 C   0  0  0  0  0  0  0  0  0  0  0  0
    9.3901  -16.2773   22.6550 C   0  0  2  0  0  0  0  0  0  0  0  0
    8.1363  -16.1468   23.3709 N   0  0  0  0  0  0  0  0  0  0  0  0
   10.5010  -15.5902   23.3500 C   0  0  0  0  0  0  0  0  0  0  0  0
   10.2684  -14.5447   23.9942 O   0  0  0  0  0  0  0  0  0  0  0  0
   11.8604  -16.0603   23.3300 N   0  0  0  0  0  0  0  0  0  0  0  0
   12.7009  -15.9613   24.4791 C   0  0  1  0  0  0  0  0  0  0  0  0
   12.1343  -16.6366   25.6805 C   0  0  0  0  0  0  0  0  0  0  0  0
   11.4457  -15.7409   26.6286 C   0  0  0  0  0  0  0  0  0  0  0  0
   11.1513  -14.4140   26.5737 C   0  0  0  0  0  0  0  0  0  0  0  0
   10.4621  -14.0515   27.6956 N   0  0  0  0  0  0  0  0  0  0  0  0
   10.3462  -15.1633   28.4169 C   0  0  0  0  0  0  0  0  0  0  0  0
   10.9194  -16.2036   27.8201 N   0  0  0  0  0  0  0  0  0  0  0  0
   14.0998  -16.4140   24.2583 C   0  0  0  0  0  0  0  0  0  0  0  0
   14.5543  -16.9225   23.2287 O   0  0  0  0  0  0  0  0  0  0  0  0
   14.9743  -16.2397   25.3319 O   0  0  0  0  0  0  0  0  0  0  0  0
  2  1  1  1
  2  3  1  0
  3  4  1  0
  4  5  2  0
  5  6  1  0
  7  6  2  0
  8  7  1  0
  9  8  2  0
  9  4  1  0
 10 11  2  0
 10  2  1  0
 12 13  1  0
 14 13  1  6
 14 15  1  0
 14 16  1  0
 15 10  1  0
 16 18  1  0
 17 16  2  0
 18 19  1  0
 19 26  1  0
 19 20  1  1
 20 21  1  0
 21 25  1  0
 22 21  2  0
 22 23  1  0
 23 24  1  0
 25 24  2  0
 26 27  2  0
 26 28  1  0
M  END
$$$$
