FSH.pdb
     RDKit          3D

 28 29  0  0  1  0  0  0  0  0999 V2000
    7.7251  -16.6635   26.4122 N   0  0  0  0  0  0  0  0  0  0  0  0
    7.2321  -16.0680   25.1848 C   0  0  1  0  0  0  0  0  0  0  0  0
    8.0123  -14.7991   24.9251 C   0  0  0  0  0  0  0  0  0  0  0  0
    7.5708  -13.6850   25.7864 C   0  0  0  0  0  0  0  0  0  0  0  0
    8.2117  -13.4228   27.0028 C   0  0  0  0  0  0  0  0  0  0  0  0
    7.7942  -12.3807   27.8034 C   0  0  0  0  0  0  0  0  0  0  0  0
    6.7458  -11.5662   27.4465 C   0  0  0  0  0  0  0  0  0  0  0  0
    6.1034  -11.8052   26.2584 C   0  0  0  0  0  0  0  0  0  0  0  0
    6.5241  -12.8457   25.4643 C   0  0  0  0  0  0  0  0  0  0  0  0
    7.4466  -17.0312   24.0601 C   0  0  0  0  0  0  0  0  0  0  0  0
    8.2059  -18.0258   24.1699 O   0  0  0  0  0  0  0  0  0  0  0  0
    5.5133  -16.2674   20.8316 O   0  0  0  0  0  0  0  0  0  0  0  0
    5.9154  -17.6205   20.7399 C   0  0  0  0  0  0  0  0  0  0  0  0
    7.0987  -17.7393   21.7119 C   0  0  2  0  0  0  0  0  0  0  0  0
    6.7913  -16.8511   22.8157 N   0  0  0  0  0  0  0  0  0  0  0  0
    8.2937  -17.2975   20.9594 C   0  0  0  0  0  0  0  0  0  0  0  0
    8.1839  -17.0086   19.7484 O   0  0  0  0  0  0  0  0  0  0  0  0
    9.6012  -17.1773   21.5471 N   0  0  0  0  0  0  0  0  0  0  0  0
   10.5128  -16.1589   21.1367 C   0  0  1  0  0  0  0  0  0  0  0  0
    9.9331  -14.7882   21.2101 C   0  0  0  0  0  0  0  0  0  0  0  0
    9.2692  -14.3284   19.9760 C   0  0  0  0  0  0  0  0  0  0  0  0
    9.0398  -14.9442   18.7850 C   0  0  0  0  0  0  0  0  0  0  0  0
    8.3461  -14.1039   17.9617 N   0  0  0  0  0  0  0  0  0  0  0  0
    8.1625  -12.9890   18.6639 C   0  0  0  0  0  0  0  0  0  0  0  0
    8.6973  -13.0739   19.8779 N   0  0  0  0  0  0  0  0  0  0  0  0
   11.8248  -16.1903   21.8353 C   0  0  0  0  0  0  0  0  0  0  0  0
   12.1295  -16.9043   22.7959 O   0  0  0  0  0  0  0  0  0  0  0  0
   12.7988  -15.3197   21.3442 O   0  0  0  0  0  0  0  0  0  0  0  0
  2  1  1  1
  2  3  1  0
  3  4  1  0
  4  5  2  0
  5  6  1  0
  7  6  2  0
  8  7  1  0
  9  8  2  0
  9  4  1  0
 10 11  2  0
 10  2  1  0
 12 13  1  0
 14 13  1  6
 14 15  1  0
 14 16  1  0
 15 10  1  0
 16 18  1  0
 17 16  2  0
 18 19  1  0
 19 26  1  0
 19 20  1  1
 20 21  1  0
 21 25  1  0
 22 21  2  0
 22 23  1  0
 23 24  1  0
 25 24  2  0
 26 27  2  0
 26 28  1  0
M  END
$$$$
