FSH.pdb
     RDKit          3D

 28 29  0  0  1  0  0  0  0  0999 V2000
    6.1454  -16.5268   25.5953 N   0  0  0  0  0  0  0  0  0  0  0  0
    6.7819  -15.5587   24.7225 C   0  0  1  0  0  0  0  0  0  0  0  0
    7.7513  -14.7412   25.5458 C   0  0  0  0  0  0  0  0  0  0  0  0
    7.0991  -13.5871   26.1945 C   0  0  0  0  0  0  0  0  0  0  0  0
    7.8491  -12.6583   26.9253 C   0  0  0  0  0  0  0  0  0  0  0  0
    7.2339  -11.5823   27.5295 C   0  0  0  0  0  0  0  0  0  0  0  0
    5.8772  -11.3784   27.4414 C   0  0  0  0  0  0  0  0  0  0  0  0
    5.1229  -12.2764   26.7300 C   0  0  0  0  0  0  0  0  0  0  0  0
    5.7419  -13.3474   26.1298 C   0  0  0  0  0  0  0  0  0  0  0  0
    7.5242  -16.2905   23.6489 C   0  0  0  0  0  0  0  0  0  0  0  0
    7.9305  -17.4689   23.8040 O   0  0  0  0  0  0  0  0  0  0  0  0
    8.7425  -14.1687   20.5633 O   0  0  0  0  0  0  0  0  0  0  0  0
    8.5737  -15.5135   20.1585 C   0  0  0  0  0  0  0  0  0  0  0  0
    8.6799  -16.3251   21.4582 C   0  0  2  0  0  0  0  0  0  0  0  0
    7.7978  -15.6699   22.4038 N   0  0  0  0  0  0  0  0  0  0  0  0
   10.0974  -16.2481   21.8752 C   0  0  0  0  0  0  0  0  0  0  0  0
   10.5055  -15.2315   22.4770 O   0  0  0  0  0  0  0  0  0  0  0  0
   11.0551  -17.2922   21.6260 N   0  0  0  0  0  0  0  0  0  0  0  0
   12.4366  -17.1290   21.9450 C   0  0  1  0  0  0  0  0  0  0  0  0
   12.9633  -18.2000   22.8370 C   0  0  0  0  0  0  0  0  0  0  0  0
   12.3460  -18.2519   24.1755 C   0  0  0  0  0  0  0  0  0  0  0  0
   11.9797  -17.2721   25.0451 C   0  0  0  0  0  0  0  0  0  0  0  0
   11.4093  -17.8327   26.1521 N   0  0  0  0  0  0  0  0  0  0  0  0
   11.4359  -19.1457   25.9400 C   0  0  0  0  0  0  0  0  0  0  0  0
   11.9875  -19.4477   24.7689 N   0  0  0  0  0  0  0  0  0  0  0  0
   13.3258  -16.9730   20.7638 C   0  0  0  0  0  0  0  0  0  0  0  0
   12.9981  -17.0778   19.5776 O   0  0  0  0  0  0  0  0  0  0  0  0
   14.6618  -16.6789   21.0402 O   0  0  0  0  0  0  0  0  0  0  0  0
  2  1  1  1
  2  3  1  0
  3  4  1  0
  4  5  2  0
  5  6  1  0
  7  6  2  0
  8  7  1  0
  9  8  2  0
  9  4  1  0
 10 11  2  0
 10  2  1  0
 12 13  1  0
 14 13  1  6
 14 15  1  0
 14 16  1  0
 15 10  1  0
 16 18  1  0
 17 16  2  0
 18 19  1  0
 19 26  1  0
 19 20  1  6
 20 21  1  0
 21 25  1  0
 22 21  2  0
 22 23  1  0
 23 24  1  0
 25 24  2  0
 26 27  2  0
 26 28  1  0
M  END
$$$$
