FSH.pdb
     RDKit          3D

 28 29  0  0  1  0  0  0  0  0999 V2000
    6.0824  -17.4514   24.8559 N   0  0  0  0  0  0  0  0  0  0  0  0
    6.5829  -17.1330   23.5322 C   0  0  1  0  0  0  0  0  0  0  0  0
    6.2237  -15.6977   23.2205 C   0  0  0  0  0  0  0  0  0  0  0  0
    6.4928  -14.7946   24.3563 C   0  0  0  0  0  0  0  0  0  0  0  0
    5.8409  -14.9719   25.5822 C   0  0  0  0  0  0  0  0  0  0  0  0
    6.0962  -14.1246   26.6396 C   0  0  0  0  0  0  0  0  0  0  0  0
    6.9890  -13.0842   26.5367 C   0  0  0  0  0  0  0  0  0  0  0  0
    7.6391  -12.8921   25.3443 C   0  0  0  0  0  0  0  0  0  0  0  0
    7.3805  -13.7403   24.2935 C   0  0  0  0  0  0  0  0  0  0  0  0
    8.0706  -17.2931   23.5266 C   0  0  0  0  0  0  0  0  0  0  0  0
    8.6759  -17.9295   24.4246 O   0  0  0  0  0  0  0  0  0  0  0  0
   10.2451  -15.0930   21.2158 O   0  0  0  0  0  0  0  0  0  0  0  0
   10.7531  -16.4070   21.0883 C   0  0  0  0  0  0  0  0  0  0  0  0
   10.2358  -17.1444   22.3324 C   0  0  2  0  0  0  0  0  0  0  0  0
    8.8577  -16.7243   22.4935 N   0  0  0  0  0  0  0  0  0  0  0  0
   11.0877  -16.6990   23.4571 C   0  0  0  0  0  0  0  0  0  0  0  0
   11.6499  -15.5843   23.3969 O   0  0  0  0  0  0  0  0  0  0  0  0
   11.3140  -17.4853   24.6403 N   0  0  0  0  0  0  0  0  0  0  0  0
   11.5531  -16.8742   25.9076 C   0  0  1  0  0  0  0  0  0  0  0  0
   10.5685  -15.8061   26.2392 C   0  0  0  0  0  0  0  0  0  0  0  0
   10.8623  -15.0526   27.4726 C   0  0  0  0  0  0  0  0  0  0  0  0
   11.8892  -15.1305   28.3612 C   0  0  0  0  0  0  0  0  0  0  0  0
   11.7278  -14.1825   29.3310 N   0  0  0  0  0  0  0  0  0  0  0  0
   10.6054  -13.5407   29.0181 C   0  0  0  0  0  0  0  0  0  0  0  0
   10.0491  -14.0250   27.9122 N   0  0  0  0  0  0  0  0  0  0  0  0
   11.6610  -17.8308   27.0407 C   0  0  0  0  0  0  0  0  0  0  0  0
   11.1459  -18.9512   27.1088 O   0  0  0  0  0  0  0  0  0  0  0  0
   12.4243  -17.4046   28.1286 O   0  0  0  0  0  0  0  0  0  0  0  0
  2  1  1  1
  2  3  1  0
  3  4  1  0
  4  5  2  0
  5  6  1  0
  7  6  2  0
  8  7  1  0
  9  8  2  0
  9  4  1  0
 10 11  2  0
 10  2  1  0
 12 13  1  0
 14 13  1  6
 14 15  1  0
 14 16  1  0
 15 10  1  0
 16 18  1  0
 17 16  2  0
 18 19  1  0
 19 26  1  0
 19 20  1  1
 20 21  1  0
 21 25  1  0
 22 21  2  0
 22 23  1  0
 23 24  1  0
 25 24  2  0
 26 27  2  0
 26 28  1  0
M  END
$$$$
