FSH.pdb
     RDKit          3D

 28 29  0  0  1  0  0  0  0  0999 V2000
   11.1937  -16.8098   20.2781 N   0  0  0  0  0  0  0  0  0  0  0  0
   10.3358  -15.9922   21.1145 C   0  0  1  0  0  0  0  0  0  0  0  0
    8.9098  -16.1602   20.6407 C   0  0  0  0  0  0  0  0  0  0  0  0
    8.2559  -14.8660   20.3656 C   0  0  0  0  0  0  0  0  0  0  0  0
    7.6378  -14.1433   21.3926 C   0  0  0  0  0  0  0  0  0  0  0  0
    7.0281  -12.9350   21.1291 C   0  0  0  0  0  0  0  0  0  0  0  0
    7.0015  -12.3960   19.8647 C   0  0  0  0  0  0  0  0  0  0  0  0
    7.6012  -13.0874   18.8432 C   0  0  0  0  0  0  0  0  0  0  0  0
    8.2075  -14.2918   19.1119 C   0  0  0  0  0  0  0  0  0  0  0  0
   10.4549  -16.4589   22.5311 C   0  0  0  0  0  0  0  0  0  0  0  0
   11.1875  -17.4266   22.8547 O   0  0  0  0  0  0  0  0  0  0  0  0
    8.0819  -15.4163   25.5410 O   0  0  0  0  0  0  0  0  0  0  0  0
    9.3675  -14.8526   25.7157 C   0  0  0  0  0  0  0  0  0  0  0  0
   10.3021  -15.7610   24.9030 C   0  0  2  0  0  0  0  0  0  0  0  0
    9.7352  -15.8159   23.5699 N   0  0  0  0  0  0  0  0  0  0  0  0
   10.2763  -17.0802   25.5726 C   0  0  0  0  0  0  0  0  0  0  0  0
    9.7973  -18.0648   24.9699 O   0  0  0  0  0  0  0  0  0  0  0  0
   10.7787  -17.3048   26.9017 N   0  0  0  0  0  0  0  0  0  0  0  0
   11.0897  -18.6166   27.3698 C   0  0  1  0  0  0  0  0  0  0  0  0
   12.0960  -19.3182   26.5240 C   0  0  0  0  0  0  0  0  0  0  0  0
   11.5538  -19.9388   25.3007 C   0  0  0  0  0  0  0  0  0  0  0  0
   10.2992  -19.9656   24.7757 C   0  0  0  0  0  0  0  0  0  0  0  0
   10.3132  -20.6467   23.5920 N   0  0  0  0  0  0  0  0  0  0  0  0
   11.5763  -21.0240   23.4133 C   0  0  0  0  0  0  0  0  0  0  0  0
   12.3591  -20.6235   24.4102 N   0  0  0  0  0  0  0  0  0  0  0  0
   11.4991  -18.6787   28.7977 C   0  0  0  0  0  0  0  0  0  0  0  0
   11.6076  -17.7241   29.5738 O   0  0  0  0  0  0  0  0  0  0  0  0
   11.7860  -19.9506   29.2956 O   0  0  0  0  0  0  0  0  0  0  0  0
  2  1  1  6
  2  3  1  0
  3  4  1  0
  4  5  2  0
  5  6  1  0
  7  6  2  0
  8  7  1  0
  9  8  2  0
  9  4  1  0
 10 11  2  0
 10  2  1  0
 12 13  1  0
 14 13  1  1
 14 15  1  0
 14 16  1  0
 15 10  1  0
 16 18  1  0
 17 16  2  0
 18 19  1  0
 19 26  1  0
 19 20  1  6
 20 21  1  0
 21 25  1  0
 22 21  2  0
 22 23  1  0
 23 24  1  0
 25 24  2  0
 26 27  2  0
 26 28  1  0
M  END
$$$$
