FSH.pdb
     RDKit          3D

 28 29  0  0  1  0  0  0  0  0999 V2000
    7.2975  -17.4749   26.6242 N   0  0  0  0  0  0  0  0  0  0  0  0
    7.1793  -16.3610   25.7027 C   0  0  1  0  0  0  0  0  0  0  0  0
    8.2139  -15.3234   26.0756 C   0  0  0  0  0  0  0  0  0  0  0  0
    7.6017  -14.0840   26.5926 C   0  0  0  0  0  0  0  0  0  0  0  0
    6.3019  -13.7191   26.2230 C   0  0  0  0  0  0  0  0  0  0  0  0
    5.7356  -12.5596   26.7090 C   0  0  0  0  0  0  0  0  0  0  0  0
    6.4134  -11.7243   27.5650 C   0  0  0  0  0  0  0  0  0  0  0  0
    7.6885  -12.0626   27.9403 C   0  0  0  0  0  0  0  0  0  0  0  0
    8.2480  -13.2199   27.4525 C   0  0  0  0  0  0  0  0  0  0  0  0
    7.4369  -16.8535   24.3134 C   0  0  0  0  0  0  0  0  0  0  0  0
    8.1551  -17.8583   24.0850 O   0  0  0  0  0  0  0  0  0  0  0  0
    6.1109  -16.8346   19.7551 O   0  0  0  0  0  0  0  0  0  0  0  0
    5.9924  -16.1395   20.9813 C   0  0  0  0  0  0  0  0  0  0  0  0
    7.1123  -16.7138   21.8617 C   0  0  2  0  0  0  0  0  0  0  0  0
    6.8714  -16.1936   23.1931 N   0  0  0  0  0  0  0  0  0  0  0  0
    8.3815  -16.2118   21.2902 C   0  0  0  0  0  0  0  0  0  0  0  0
    8.3505  -15.4673   20.2868 O   0  0  0  0  0  0  0  0  0  0  0  0
    9.6759  -16.5340   21.8288 N   0  0  0  0  0  0  0  0  0  0  0  0
   10.8766  -16.0657   21.2159 C   0  0  1  0  0  0  0  0  0  0  0  0
   10.8622  -14.6015   20.9401 C   0  0  0  0  0  0  0  0  0  0  0  0
   10.0530  -14.1975   19.7751 C   0  0  0  0  0  0  0  0  0  0  0  0
    9.2993  -14.9162   18.8999 C   0  0  0  0  0  0  0  0  0  0  0  0
    8.7065  -14.0713   18.0055 N   0  0  0  0  0  0  0  0  0  0  0  0
    9.1073  -12.8504   18.3497 C   0  0  0  0  0  0  0  0  0  0  0  0
    9.9157  -12.8729   19.4047 N   0  0  0  0  0  0  0  0  0  0  0  0
   12.1208  -16.4302   21.9435 C   0  0  0  0  0  0  0  0  0  0  0  0
   13.2767  -16.1520   21.6089 O   0  0  0  0  0  0  0  0  0  0  0  0
   11.9480  -17.1597   23.1207 O   0  0  0  0  0  0  0  0  0  0  0  0
  2  1  1  1
  2  3  1  0
  3  4  1  0
  4  5  2  0
  5  6  1  0
  7  6  2  0
  8  7  1  0
  9  8  2  0
  9  4  1  0
 10 11  2  0
 10  2  1  0
 12 13  1  0
 14 13  1  6
 14 15  1  0
 14 16  1  0
 15 10  1  0
 16 18  1  0
 17 16  2  0
 18 19  1  0
 19 26  1  0
 19 20  1  1
 20 21  1  0
 21 25  1  0
 22 21  2  0
 22 23  1  0
 23 24  1  0
 25 24  2  0
 26 27  2  0
 26 28  1  0
M  END
$$$$
