FSH.pdb
     RDKit          3D

 28 29  0  0  1  0  0  0  0  0999 V2000
    6.4392  -16.8793   25.9255 N   0  0  0  0  0  0  0  0  0  0  0  0
    6.8367  -16.0935   24.7729 C   0  0  1  0  0  0  0  0  0  0  0  0
    7.8251  -15.0447   25.2302 C   0  0  0  0  0  0  0  0  0  0  0  0
    7.1614  -13.8914   25.8685 C   0  0  0  0  0  0  0  0  0  0  0  0
    6.7674  -12.7824   25.1109 C   0  0  0  0  0  0  0  0  0  0  0  0
    6.1482  -11.7077   25.7131 C   0  0  0  0  0  0  0  0  0  0  0  0
    5.8947  -11.6796   27.0640 C   0  0  0  0  0  0  0  0  0  0  0  0
    6.2725  -12.7559   27.8256 C   0  0  0  0  0  0  0  0  0  0  0  0
    6.8896  -13.8247   27.2196 C   0  0  0  0  0  0  0  0  0  0  0  0
    7.4866  -16.9970   23.7727 C   0  0  0  0  0  0  0  0  0  0  0  0
    8.2605  -17.9246   24.1165 O   0  0  0  0  0  0  0  0  0  0  0  0
    6.2319  -16.7674   20.0573 O   0  0  0  0  0  0  0  0  0  0  0  0
    6.7031  -18.0528   20.4133 C   0  0  0  0  0  0  0  0  0  0  0  0
    7.8075  -17.7875   21.4472 C   0  0  2  0  0  0  0  0  0  0  0  0
    7.2474  -16.8341   22.3847 N   0  0  0  0  0  0  0  0  0  0  0  0
    8.9478  -17.2211   20.6932 C   0  0  0  0  0  0  0  0  0  0  0  0
    8.7275  -16.5297   19.6755 O   0  0  0  0  0  0  0  0  0  0  0  0
   10.3226  -17.4208   21.0663 N   0  0  0  0  0  0  0  0  0  0  0  0
   11.2322  -16.3265   21.1761 C   0  0  1  0  0  0  0  0  0  0  0  0
   10.5913  -15.0791   21.6795 C   0  0  0  0  0  0  0  0  0  0  0  0
    9.8593  -14.3031   20.6610 C   0  0  0  0  0  0  0  0  0  0  0  0
    9.5664  -14.5635   19.3584 C   0  0  0  0  0  0  0  0  0  0  0  0
    8.8262  -13.5384   18.8422 N   0  0  0  0  0  0  0  0  0  0  0  0
    8.6786  -12.6691   19.8384 C   0  0  0  0  0  0  0  0  0  0  0  0
    9.2796  -13.0821   20.9499 N   0  0  0  0  0  0  0  0  0  0  0  0
   12.4552  -16.6210   21.9685 C   0  0  0  0  0  0  0  0  0  0  0  0
   12.6546  -17.6176   22.6703 O   0  0  0  0  0  0  0  0  0  0  0  0
   13.4703  -15.6655   21.9020 O   0  0  0  0  0  0  0  0  0  0  0  0
  2  1  1  1
  2  3  1  0
  3  4  1  0
  4  5  2  0
  5  6  1  0
  7  6  2  0
  8  7  1  0
  9  8  2  0
  9  4  1  0
 10 11  2  0
 10  2  1  0
 12 13  1  0
 14 13  1  6
 14 15  1  0
 14 16  1  0
 15 10  1  0
 16 18  1  0
 17 16  2  0
 18 19  1  0
 19 26  1  0
 19 20  1  1
 20 21  1  0
 21 25  1  0
 22 21  2  0
 22 23  1  0
 23 24  1  0
 25 24  2  0
 26 27  2  0
 26 28  1  0
M  END
$$$$
