FSH.pdb
     RDKit          3D

 28 29  0  0  1  0  0  0  0  0999 V2000
    7.6715  -17.9780   19.7758 N   0  0  0  0  0  0  0  0  0  0  0  0
    8.4505  -17.0997   20.6278 C   0  0  1  0  0  0  0  0  0  0  0  0
    7.4956  -16.2876   21.4733 C   0  0  0  0  0  0  0  0  0  0  0  0
    7.5208  -14.8538   21.1245 C   0  0  0  0  0  0  0  0  0  0  0  0
    8.1188  -13.9195   21.9781 C   0  0  0  0  0  0  0  0  0  0  0  0
    8.1387  -12.5812   21.6469 C   0  0  0  0  0  0  0  0  0  0  0  0
    7.5802  -12.1137   20.4810 C   0  0  0  0  0  0  0  0  0  0  0  0
    6.9888  -13.0120   19.6297 C   0  0  0  0  0  0  0  0  0  0  0  0
    6.9720  -14.3453   19.9653 C   0  0  0  0  0  0  0  0  0  0  0  0
    9.3232  -17.9334   21.5122 C   0  0  0  0  0  0  0  0  0  0  0  0
    8.9118  -18.9928   22.0473 O   0  0  0  0  0  0  0  0  0  0  0  0
   12.9444  -16.5588   22.3888 O   0  0  0  0  0  0  0  0  0  0  0  0
   12.9176  -17.9728   22.4133 C   0  0  0  0  0  0  0  0  0  0  0  0
   11.4535  -18.3271   22.7134 C   0  0  2  0  0  0  0  0  0  0  0  0
   10.6620  -17.5505   21.7797 N   0  0  0  0  0  0  0  0  0  0  0  0
   11.2130  -17.9228   24.1163 C   0  0  0  0  0  0  0  0  0  0  0  0
   11.0632  -16.7122   24.3888 O   0  0  0  0  0  0  0  0  0  0  0  0
   11.1391  -18.8557   25.2088 N   0  0  0  0  0  0  0  0  0  0  0  0
   11.0069  -18.4138   26.5594 C   0  0  1  0  0  0  0  0  0  0  0  0
    9.7733  -17.6125   26.7965 C   0  0  0  0  0  0  0  0  0  0  0  0
    8.5405  -18.1881   26.2270 C   0  0  0  0  0  0  0  0  0  0  0  0
    8.3136  -19.3262   25.5173 C   0  0  0  0  0  0  0  0  0  0  0  0
    6.9798  -19.4376   25.2457 N   0  0  0  0  0  0  0  0  0  0  0  0
    6.4140  -18.3660   25.7947 C   0  0  0  0  0  0  0  0  0  0  0  0
    7.3076  -17.5862   26.3950 N   0  0  0  0  0  0  0  0  0  0  0  0
   11.1082  -19.4966   27.5731 C   0  0  0  0  0  0  0  0  0  0  0  0
   11.2234  -20.7056   27.3487 O   0  0  0  0  0  0  0  0  0  0  0  0
   11.0673  -19.0893   28.9074 O   0  0  0  0  0  0  0  0  0  0  0  0
  2  1  1  6
  2  3  1  0
  3  4  1  0
  4  5  2  0
  5  6  1  0
  7  6  2  0
  8  7  1  0
  9  8  2  0
  9  4  1  0
 10 11  2  0
 10  2  1  0
 12 13  1  0
 14 13  1  6
 14 15  1  0
 14 16  1  0
 15 10  1  0
 16 18  1  0
 17 16  2  0
 18 19  1  0
 19 26  1  0
 19 20  1  6
 20 21  1  0
 21 25  1  0
 22 21  2  0
 22 23  1  0
 23 24  1  0
 25 24  2  0
 26 27  2  0
 26 28  1  0
M  END
$$$$
