YIK.pdb
     RDKit          3D

 30 30  0  0  1  0  0  0  0  0999 V2000
   26.7341  -11.5507  -25.8900 O   0  0  0  0  0  0  0  0  0  0  0  0
   25.9860  -11.5239  -24.7304 C   0  0  0  0  0  0  0  0  0  0  0  0
   24.6465  -11.7619  -24.7677 C   0  0  0  0  0  0  0  0  0  0  0  0
   23.9045  -11.7344  -23.6108 C   0  0  0  0  0  0  0  0  0  0  0  0
   24.4874  -11.4684  -22.3949 C   0  0  0  0  0  0  0  0  0  0  0  0
   23.6917  -11.4376  -21.1428 C   0  0  0  0  0  0  0  0  0  0  0  0
   23.8790  -12.7121  -20.3364 C   0  0  2  0  0  0  0  0  0  0  0  0
   23.2792  -13.7827  -21.0700 N   0  0  0  0  0  0  0  0  0  0  0  0
   23.2563  -12.4862  -19.0147 C   0  0  0  0  0  0  0  0  0  0  0  0
   22.0809  -12.8664  -18.8091 O   0  0  0  0  0  0  0  0  0  0  0  0
   25.8455  -11.2312  -22.3874 C   0  0  0  0  0  0  0  0  0  0  0  0
   26.5880  -11.2571  -23.5335 C   0  0  0  0  0  0  0  0  0  0  0  0
   25.1347  -14.2737  -14.3321 C   0  0  0  0  0  0  0  0  0  0  0  0
   24.3841  -13.7773  -15.5512 C   0  0  0  0  0  0  0  0  0  0  0  0
   23.9924  -12.3388  -15.4650 C   0  0  2  0  0  0  0  0  0  0  0  0
   23.2844  -12.0276  -14.1387 C   0  0  0  0  0  0  0  0  0  0  0  0
   23.3685  -11.7087  -16.6201 C   0  0  2  0  0  0  0  0  0  0  0  0
   23.8725  -11.8638  -17.9218 N   0  0  0  0  0  0  0  0  0  0  0  0
   23.0039  -10.2905  -16.3085 C   0  0  0  0  0  0  0  0  0  0  0  0
   23.8800   -9.3774  -16.2983 O   0  0  0  0  0  0  0  0  0  0  0  0
   21.6813   -9.8915  -16.0091 N   0  0  0  0  0  0  0  0  0  0  0  0
   21.3278   -8.5004  -15.8274 C   0  0  1  0  0  0  0  0  0  0  0  0
   19.9047   -8.2778  -16.2818 C   0  0  0  0  0  0  0  0  0  0  0  0
   19.4190   -6.8761  -16.1241 C   0  0  0  0  0  0  0  0  0  0  0  0
   17.9902   -6.7141  -16.5877 C   0  0  0  0  0  0  0  0  0  0  0  0
   17.5134   -5.2949  -16.5496 C   0  0  0  0  0  0  0  0  0  0  0  0
   18.2392   -4.4956  -17.5356 N   0  0  0  0  0  0  0  0  0  0  0  0
   21.3597   -8.1636  -14.3444 C   0  0  0  0  0  0  0  0  0  0  0  0
   21.6878   -6.8959  -13.9068 O   0  0  0  0  0  0  0  0  0  0  0  0
   21.0846   -9.0468  -13.4997 O   0  0  0  0  0  0  0  0  0  0  0  0
  2  1  1  0
  3  2  2  0
  4  3  1  0
  5 11  1  0
  5  4  2  0
  6  5  1  0
  7  6  1  0
  7  8  1  6
  9 10  2  0
  9  7  1  0
 11 12  2  0
 12  2  1  0
 14 13  1  0
 15 17  1  0
 15 14  1  0
 15 16  1  1
 17 18  1  6
 18  9  1  0
 19 17  1  0
 20 19  2  0
 21 19  1  0
 22 21  1  0
 22 23  1  1
 23 24  1  0
 24 25  1  0
 25 26  1  0
 27 26  1  0
 28 29  1  0
 28 22  1  0
 30 28  2  0
M  END
$$$$
