YIK.pdb
     RDKit          3D

 30 30  0  0  1  0  0  0  0  0999 V2000
   23.1598  -17.6249  -18.8957 O   0  0  0  0  0  0  0  0  0  0  0  0
   23.1691  -18.2596  -17.6701 C   0  0  0  0  0  0  0  0  0  0  0  0
   22.9521  -19.6006  -17.5858 C   0  0  0  0  0  0  0  0  0  0  0  0
   22.9620  -20.2295  -16.3634 C   0  0  0  0  0  0  0  0  0  0  0  0
   23.1891  -19.5300  -15.2025 C   0  0  0  0  0  0  0  0  0  0  0  0
   23.2012  -20.2033  -13.8803 C   0  0  0  0  0  0  0  0  0  0  0  0
   24.6185  -20.3728  -13.3583 C   0  0  2  0  0  0  0  0  0  0  0  0
   25.3193  -21.2208  -14.2715 N   0  0  0  0  0  0  0  0  0  0  0  0
   24.5159  -20.9368  -11.9957 C   0  0  0  0  0  0  0  0  0  0  0  0
   24.2395  -22.1488  -11.8447 O   0  0  0  0  0  0  0  0  0  0  0  0
   23.4057  -18.1733  -15.3182 C   0  0  0  0  0  0  0  0  0  0  0  0
   23.3970  -17.5428  -16.5298 C   0  0  0  0  0  0  0  0  0  0  0  0
   26.6319  -20.4766   -6.1809 C   0  0  0  0  0  0  0  0  0  0  0  0
   25.5251  -20.9239   -7.1141 C   0  0  0  0  0  0  0  0  0  0  0  0
   25.5825  -20.2779   -8.4593 C   0  0  2  0  0  0  0  0  0  0  0  0
   25.7047  -18.7518   -8.3451 C   0  0  0  0  0  0  0  0  0  0  0  0
   24.6488  -20.7120   -9.4890 C   0  0  2  0  0  0  0  0  0  0  0  0
   24.7042  -20.2240  -10.8048 N   0  0  0  0  0  0  0  0  0  0  0  0
   23.2538  -20.7506   -8.9471 C   0  0  0  0  0  0  0  0  0  0  0  0
   22.4626  -19.7761   -9.1082 O   0  0  0  0  0  0  0  0  0  0  0  0
   22.7440  -21.8582   -8.2319 N   0  0  0  0  0  0  0  0  0  0  0  0
   21.3971  -21.8699   -7.7040 C   0  0  1  0  0  0  0  0  0  0  0  0
   20.5572  -22.8522   -8.4854 C   0  0  0  0  0  0  0  0  0  0  0  0
   19.1475  -22.9717   -8.0121 C   0  0  0  0  0  0  0  0  0  0  0  0
   18.3803  -24.0283   -8.7724 C   0  0  0  0  0  0  0  0  0  0  0  0
   16.9511  -24.1465   -8.3410 C   0  0  0  0  0  0  0  0  0  0  0  0
   16.2758  -25.1820   -9.1218 N   0  0  0  0  0  0  0  0  0  0  0  0
   21.4239  -22.3774   -6.2704 C   0  0  0  0  0  0  0  0  0  0  0  0
   20.3699  -22.1434   -5.4099 O   0  0  0  0  0  0  0  0  0  0  0  0
   22.4165  -23.0198   -5.8562 O   0  0  0  0  0  0  0  0  0  0  0  0
  2  1  1  0
  3  2  2  0
  4  3  1  0
  5 11  1  0
  5  4  2  0
  6  5  1  0
  7  6  1  0
  7  8  1  6
  9 10  2  0
  9  7  1  0
 11 12  2  0
 12  2  1  0
 14 13  1  0
 15 17  1  0
 15 14  1  0
 15 16  1  1
 17 18  1  6
 18  9  1  0
 19 17  1  0
 20 19  2  0
 21 19  1  0
 22 21  1  0
 22 23  1  6
 23 24  1  0
 24 25  1  0
 25 26  1  0
 27 26  1  0
 28 29  1  0
 28 22  1  0
 30 28  2  0
M  END
$$$$
