YIK.pdb
     RDKit          3D

 30 30  0  0  1  0  0  0  0  0999 V2000
   17.3683  -25.4368  -10.7572 O   0  0  0  0  0  0  0  0  0  0  0  0
   18.2020  -24.4755  -11.2917 C   0  0  0  0  0  0  0  0  0  0  0  0
   17.9262  -23.1532  -11.1255 C   0  0  0  0  0  0  0  0  0  0  0  0
   18.7588  -22.1983  -11.6594 C   0  0  0  0  0  0  0  0  0  0  0  0
   19.8826  -22.5473  -12.3692 C   0  0  0  0  0  0  0  0  0  0  0  0
   20.7851  -21.5212  -12.9476 C   0  0  0  0  0  0  0  0  0  0  0  0
   22.0613  -21.3844  -12.1337 C   0  0  2  0  0  0  0  0  0  0  0  0
   21.7072  -20.8451  -10.8577 N   0  0  0  0  0  0  0  0  0  0  0  0
   22.9772  -20.5159  -12.9033 C   0  0  0  0  0  0  0  0  0  0  0  0
   22.9056  -19.2720  -12.7773 O   0  0  0  0  0  0  0  0  0  0  0  0
   20.1370  -23.8937  -12.5217 C   0  0  0  0  0  0  0  0  0  0  0  0
   19.3135  -24.8470  -11.9937 C   0  0  0  0  0  0  0  0  0  0  0  0
   27.6904  -18.2906  -14.1869 C   0  0  0  0  0  0  0  0  0  0  0  0
   27.2787  -19.4718  -15.0419 C   0  0  0  0  0  0  0  0  0  0  0  0
   26.3378  -20.4058  -14.3546 C   0  0  2  0  0  0  0  0  0  0  0  0
   26.7599  -21.8696  -14.5448 C   0  0  0  0  0  0  0  0  0  0  0  0
   24.9045  -20.1902  -14.4943 C   0  0  2  0  0  0  0  0  0  0  0  0
   23.9593  -20.9606  -13.7974 N   0  0  0  0  0  0  0  0  0  0  0  0
   24.5425  -19.9982  -15.9342 C   0  0  0  0  0  0  0  0  0  0  0  0
   24.1905  -20.9764  -16.6559 O   0  0  0  0  0  0  0  0  0  0  0  0
   24.5737  -18.7343  -16.5662 N   0  0  0  0  0  0  0  0  0  0  0  0
   24.1305  -18.5538  -17.9315 C   0  0  1  0  0  0  0  0  0  0  0  0
   23.4421  -17.2163  -18.0662 C   0  0  0  0  0  0  0  0  0  0  0  0
   22.9658  -16.9038  -19.4449 C   0  0  0  0  0  0  0  0  0  0  0  0
   22.3970  -15.5077  -19.5470 C   0  0  0  0  0  0  0  0  0  0  0  0
   21.9311  -15.1585  -20.9267 C   0  0  0  0  0  0  0  0  0  0  0  0
   21.5218  -13.7556  -20.9775 N   0  0  0  0  0  0  0  0  0  0  0  0
   25.3417  -18.5047  -18.8504 C   0  0  0  0  0  0  0  0  0  0  0  0
   25.3016  -19.0567  -20.1153 O   0  0  0  0  0  0  0  0  0  0  0  0
   26.3974  -17.9552  -18.4595 O   0  0  0  0  0  0  0  0  0  0  0  0
  2  1  1  0
  3  2  2  0
  4  3  1  0
  5 11  1  0
  5  4  2  0
  6  5  1  0
  7  6  1  0
  7  8  1  1
  9 10  2  0
  9  7  1  0
 11 12  2  0
 12  2  1  0
 14 13  1  0
 15 17  1  0
 15 14  1  0
 15 16  1  6
 17 18  1  6
 18  9  1  0
 19 17  1  0
 20 19  2  0
 21 19  1  0
 22 21  1  0
 22 23  1  1
 23 24  1  0
 24 25  1  0
 25 26  1  0
 27 26  1  0
 28 29  1  0
 28 22  1  0
 30 28  2  0
M  END
$$$$
