YIK.pdb
     RDKit          3D

 30 30  0  0  1  0  0  0  0  0999 V2000
   30.9496  -16.3900  -19.3892 O   0  0  0  0  0  0  0  0  0  0  0  0
   29.9771  -17.1051  -18.7200 C   0  0  0  0  0  0  0  0  0  0  0  0
   29.9078  -17.0711  -17.3612 C   0  0  0  0  0  0  0  0  0  0  0  0
   28.9378  -17.7845  -16.6979 C   0  0  0  0  0  0  0  0  0  0  0  0
   28.0189  -18.5453  -17.3803 C   0  0  0  0  0  0  0  0  0  0  0  0
   26.9696  -19.3173  -16.6700 C   0  0  0  0  0  0  0  0  0  0  0  0
   27.5447  -20.5648  -16.0197 C   0  0  2  0  0  0  0  0  0  0  0  0
   27.7994  -21.5168  -17.0557 N   0  0  0  0  0  0  0  0  0  0  0  0
   26.5564  -21.0319  -15.0245 C   0  0  0  0  0  0  0  0  0  0  0  0
   25.7818  -21.9727  -15.3132 O   0  0  0  0  0  0  0  0  0  0  0  0
   28.1131  -18.5609  -18.7557 C   0  0  0  0  0  0  0  0  0  0  0  0
   29.0746  -17.8542  -19.4203 C   0  0  0  0  0  0  0  0  0  0  0  0
   25.3807  -21.3345   -8.8876 C   0  0  0  0  0  0  0  0  0  0  0  0
   24.8908  -21.4354  -10.3179 C   0  0  0  0  0  0  0  0  0  0  0  0
   25.8675  -20.9146  -11.3204 C   0  0  2  0  0  0  0  0  0  0  0  0
   26.4749  -19.5780  -10.8714 C   0  0  0  0  0  0  0  0  0  0  0  0
   25.5124  -20.9478  -12.7323 C   0  0  2  0  0  0  0  0  0  0  0  0
   26.3902  -20.5077  -13.7364 N   0  0  0  0  0  0  0  0  0  0  0  0
   24.1140  -20.4518  -12.9315 C   0  0  0  0  0  0  0  0  0  0  0  0
   23.8769  -19.2233  -13.1213 O   0  0  0  0  0  0  0  0  0  0  0  0
   22.9912  -21.3103  -12.9173 N   0  0  0  0  0  0  0  0  0  0  0  0
   21.6557  -20.8229  -13.1857 C   0  0  1  0  0  0  0  0  0  0  0  0
   20.8971  -21.8484  -13.9943 C   0  0  0  0  0  0  0  0  0  0  0  0
   19.5312  -21.4175  -14.4113 C   0  0  0  0  0  0  0  0  0  0  0  0
   18.8601  -22.4378  -15.3010 C   0  0  0  0  0  0  0  0  0  0  0  0
   17.5671  -21.9559  -15.8828 C   0  0  0  0  0  0  0  0  0  0  0  0
   17.0189  -22.9634  -16.7896 N   0  0  0  0  0  0  0  0  0  0  0  0
   20.9026  -20.6726  -11.8728 C   0  0  0  0  0  0  0  0  0  0  0  0
   19.9946  -19.6499  -11.6832 O   0  0  0  0  0  0  0  0  0  0  0  0
   21.1045  -21.4873  -10.9429 O   0  0  0  0  0  0  0  0  0  0  0  0
  2  1  1  0
  3  2  2  0
  4  3  1  0
  5 11  1  0
  5  4  2  0
  6  5  1  0
  7  6  1  0
  7  8  1  6
  9 10  2  0
  9  7  1  0
 11 12  2  0
 12  2  1  0
 14 13  1  0
 15 17  1  0
 15 14  1  0
 15 16  1  1
 17 18  1  6
 18  9  1  0
 19 17  1  0
 20 19  2  0
 21 19  1  0
 22 21  1  0
 22 23  1  6
 23 24  1  0
 24 25  1  0
 25 26  1  0
 27 26  1  0
 28 29  1  0
 28 22  1  0
 30 28  2  0
M  END
$$$$
