YIK.pdb
     RDKit          3D

 30 30  0  0  1  0  0  0  0  0999 V2000
   18.9176  -14.3998  -18.2083 O   0  0  0  0  0  0  0  0  0  0  0  0
   19.0294  -15.5368  -17.4339 C   0  0  0  0  0  0  0  0  0  0  0  0
   19.0554  -15.4471  -16.0761 C   0  0  0  0  0  0  0  0  0  0  0  0
   19.1669  -16.5817  -15.3079 C   0  0  0  0  0  0  0  0  0  0  0  0
   19.2546  -17.8271  -15.8823 C   0  0  0  0  0  0  0  0  0  0  0  0
   19.3749  -19.0553  -15.0584 C   0  0  0  0  0  0  0  0  0  0  0  0
   20.8164  -19.3078  -14.6484 C   0  0  2  0  0  0  0  0  0  0  0  0
   21.5558  -19.6226  -15.8310 N   0  0  0  0  0  0  0  0  0  0  0  0
   20.8012  -20.4047  -13.6574 C   0  0  0  0  0  0  0  0  0  0  0  0
   20.8845  -21.5926  -14.0449 O   0  0  0  0  0  0  0  0  0  0  0  0
   19.2257  -17.8876  -17.2595 C   0  0  0  0  0  0  0  0  0  0  0  0
   19.1151  -16.7639  -18.0280 C   0  0  0  0  0  0  0  0  0  0  0  0
   23.6060  -20.7588   -8.8003 C   0  0  0  0  0  0  0  0  0  0  0  0
   22.9291  -20.8944  -10.1492 C   0  0  0  0  0  0  0  0  0  0  0  0
   21.4588  -21.1384  -10.0562 C   0  0  2  0  0  0  0  0  0  0  0  0
   21.1344  -22.2316   -9.0283 C   0  0  0  0  0  0  0  0  0  0  0  0
   20.6839  -21.2455  -11.2845 C   0  0  2  0  0  0  0  0  0  0  0  0
   20.6988  -20.2447  -12.2697 N   0  0  0  0  0  0  0  0  0  0  0  0
   19.3032  -21.7435  -10.9898 C   0  0  0  0  0  0  0  0  0  0  0  0
   18.3602  -20.9404  -10.7298 O   0  0  0  0  0  0  0  0  0  0  0  0
   18.9740  -23.1181  -10.9815 N   0  0  0  0  0  0  0  0  0  0  0  0
   17.6425  -23.5808  -10.6559 C   0  0  1  0  0  0  0  0  0  0  0  0
   17.4289  -24.9565  -11.2414 C   0  0  0  0  0  0  0  0  0  0  0  0
   16.0829  -25.5399  -10.9708 C   0  0  0  0  0  0  0  0  0  0  0  0
   15.9934  -26.9859  -11.3997 C   0  0  0  0  0  0  0  0  0  0  0  0
   14.6631  -27.6082  -11.1072 C   0  0  0  0  0  0  0  0  0  0  0  0
   14.6997  -29.0373  -11.4145 N   0  0  0  0  0  0  0  0  0  0  0  0
   17.5193  -23.7353   -9.1477 C   0  0  0  0  0  0  0  0  0  0  0  0
   16.3275  -23.4813   -8.4986 O   0  0  0  0  0  0  0  0  0  0  0  0
   18.5123  -24.0992   -8.4763 O   0  0  0  0  0  0  0  0  0  0  0  0
  2  1  1  0
  3  2  2  0
  4  3  1  0
  5 11  1  0
  5  4  2  0
  6  5  1  0
  7  6  1  0
  7  8  1  6
  9 10  2  0
  9  7  1  0
 11 12  2  0
 12  2  1  0
 14 13  1  0
 15 17  1  0
 15 14  1  0
 15 16  1  6
 17 18  1  1
 18  9  1  0
 19 17  1  0
 20 19  2  0
 21 19  1  0
 22 21  1  0
 22 23  1  6
 23 24  1  0
 24 25  1  0
 25 26  1  0
 27 26  1  0
 28 29  1  0
 28 22  1  0
 30 28  2  0
M  END
$$$$
