YIK.pdb
     RDKit          3D

 30 30  0  0  1  0  0  0  0  0999 V2000
   18.4544  -24.8188   -6.8386 O   0  0  0  0  0  0  0  0  0  0  0  0
   19.2297  -23.8873   -7.4990 C   0  0  0  0  0  0  0  0  0  0  0  0
   19.6598  -24.1229   -8.7687 C   0  0  0  0  0  0  0  0  0  0  0  0
   20.4319  -23.1929   -9.4235 C   0  0  0  0  0  0  0  0  0  0  0  0
   20.7885  -22.0099   -8.8217 C   0  0  0  0  0  0  0  0  0  0  0  0
   21.6214  -21.0023   -9.5234 C   0  0  0  0  0  0  0  0  0  0  0  0
   23.0934  -21.3789   -9.4877 C   0  0  2  0  0  0  0  0  0  0  0  0
   23.5628  -21.1714   -8.1532 N   0  0  0  0  0  0  0  0  0  0  0  0
   23.7824  -20.5371  -10.4888 C   0  0  0  0  0  0  0  0  0  0  0  0
   24.1799  -19.3931  -10.1701 O   0  0  0  0  0  0  0  0  0  0  0  0
   20.3387  -21.7983   -7.5357 C   0  0  0  0  0  0  0  0  0  0  0  0
   19.5714  -22.7185   -6.8799 C   0  0  0  0  0  0  0  0  0  0  0  0
   28.4430  -19.9776  -14.0582 C   0  0  0  0  0  0  0  0  0  0  0  0
   26.9753  -19.6169  -13.9512 C   0  0  0  0  0  0  0  0  0  0  0  0
   26.2271  -20.4510  -12.9639 C   0  0  2  0  0  0  0  0  0  0  0  0
   26.5781  -21.9389  -13.1050 C   0  0  0  0  0  0  0  0  0  0  0  0
   24.8054  -20.2040  -12.7678 C   0  0  2  0  0  0  0  0  0  0  0  0
   24.0478  -20.9036  -11.8143 N   0  0  0  0  0  0  0  0  0  0  0  0
   24.1077  -20.0903  -14.0874 C   0  0  0  0  0  0  0  0  0  0  0  0
   23.5810  -21.1009  -14.6378 O   0  0  0  0  0  0  0  0  0  0  0  0
   23.9984  -18.8682  -14.7893 N   0  0  0  0  0  0  0  0  0  0  0  0
   23.2399  -18.7594  -16.0165 C   0  0  1  0  0  0  0  0  0  0  0  0
   22.8747  -17.3139  -16.2577 C   0  0  0  0  0  0  0  0  0  0  0  0
   22.0598  -17.0802  -17.4852 C   0  0  0  0  0  0  0  0  0  0  0  0
   21.7008  -15.6230  -17.6602 C   0  0  0  0  0  0  0  0  0  0  0  0
   20.9233  -15.3516  -18.9111 C   0  0  0  0  0  0  0  0  0  0  0  0
   20.4411  -13.9713  -18.9121 N   0  0  0  0  0  0  0  0  0  0  0  0
   24.1158  -19.1791  -17.1871 C   0  0  0  0  0  0  0  0  0  0  0  0
   23.5835  -19.8379  -18.2774 O   0  0  0  0  0  0  0  0  0  0  0  0
   25.3426  -18.9260  -17.1685 O   0  0  0  0  0  0  0  0  0  0  0  0
  2  1  1  0
  3  2  2  0
  4  3  1  0
  5 11  1  0
  5  4  2  0
  6  5  1  0
  7  6  1  0
  7  8  1  1
  9 10  2  0
  9  7  1  0
 11 12  2  0
 12  2  1  0
 14 13  1  0
 15 17  1  0
 15 14  1  0
 15 16  1  6
 17 18  1  1
 18  9  1  0
 19 17  1  0
 20 19  2  0
 21 19  1  0
 22 21  1  0
 22 23  1  6
 23 24  1  0
 24 25  1  0
 25 26  1  0
 27 26  1  0
 28 29  1  0
 28 22  1  0
 30 28  2  0
M  END
$$$$
