YIK.pdb
     RDKit          3D

 30 30  0  0  1  0  0  0  0  0999 V2000
   15.4617  -23.3776  -14.5322 O   0  0  0  0  0  0  0  0  0  0  0  0
   16.6572  -22.7059  -14.3759 C   0  0  0  0  0  0  0  0  0  0  0  0
   17.8389  -23.3328  -14.6268 C   0  0  0  0  0  0  0  0  0  0  0  0
   19.0279  -22.6607  -14.4701 C   0  0  0  0  0  0  0  0  0  0  0  0
   19.0580  -21.3494  -14.0597 C   0  0  0  0  0  0  0  0  0  0  0  0
   20.3380  -20.6187  -13.8889 C   0  0  0  0  0  0  0  0  0  0  0  0
   21.0360  -21.0186  -12.5995 C   0  0  2  0  0  0  0  0  0  0  0  0
   20.2683  -20.4995  -11.5107 N   0  0  0  0  0  0  0  0  0  0  0  0
   22.4090  -20.4738  -12.6608 C   0  0  0  0  0  0  0  0  0  0  0  0
   22.6521  -19.3469  -12.1717 O   0  0  0  0  0  0  0  0  0  0  0  0
   17.8461  -20.7400  -13.8129 C   0  0  0  0  0  0  0  0  0  0  0  0
   16.6616  -21.4025  -13.9668 C   0  0  0  0  0  0  0  0  0  0  0  0
   28.2122  -21.2249  -11.4672 C   0  0  0  0  0  0  0  0  0  0  0  0
   27.2403  -20.5917  -12.4420 C   0  0  0  0  0  0  0  0  0  0  0  0
   25.8610  -21.1583  -12.3612 C   0  0  2  0  0  0  0  0  0  0  0  0
   25.8884  -22.6880  -12.2335 C   0  0  0  0  0  0  0  0  0  0  0  0
   24.8438  -20.6689  -13.2811 C   0  0  2  0  0  0  0  0  0  0  0  0
   23.5133  -21.1164  -13.2345 N   0  0  0  0  0  0  0  0  0  0  0  0
   25.3842  -20.6126  -14.6761 C   0  0  0  0  0  0  0  0  0  0  0  0
   25.3032  -21.6112  -15.4494 O   0  0  0  0  0  0  0  0  0  0  0  0
   26.0099  -19.4610  -15.2056 N   0  0  0  0  0  0  0  0  0  0  0  0
   26.5208  -19.4253  -16.5587 C   0  0  1  0  0  0  0  0  0  0  0  0
   25.8883  -18.2759  -17.3068 C   0  0  0  0  0  0  0  0  0  0  0  0
   24.5396  -18.5742  -17.8701 C   0  0  0  0  0  0  0  0  0  0  0  0
   23.9461  -17.3828  -18.5852 C   0  0  0  0  0  0  0  0  0  0  0  0
   22.5843  -17.6493  -19.1484 C   0  0  0  0  0  0  0  0  0  0  0  0
   21.6724  -18.0602  -18.0818 N   0  0  0  0  0  0  0  0  0  0  0  0
   28.0147  -19.1414  -16.5242 C   0  0  0  0  0  0  0  0  0  0  0  0
   28.8526  -19.6023  -17.5200 O   0  0  0  0  0  0  0  0  0  0  0  0
   28.5004  -18.4784  -15.5787 O   0  0  0  0  0  0  0  0  0  0  0  0
  2  1  1  0
  3  2  2  0
  4  3  1  0
  5 11  1  0
  5  4  2  0
  6  5  1  0
  7  6  1  0
  7  8  1  1
  9 10  2  0
  9  7  1  0
 11 12  2  0
 12  2  1  0
 14 13  1  0
 15 17  1  0
 15 14  1  0
 15 16  1  6
 17 18  1  6
 18  9  1  0
 19 17  1  0
 20 19  2  0
 21 19  1  0
 22 21  1  0
 22 23  1  6
 23 24  1  0
 24 25  1  0
 25 26  1  0
 27 26  1  0
 28 29  1  0
 28 22  1  0
 30 28  2  0
M  END
$$$$
