YIK.pdb
     RDKit          3D

 30 30  0  0  1  0  0  0  0  0999 V2000
   17.3390  -14.3021  -22.6899 O   0  0  0  0  0  0  0  0  0  0  0  0
   17.6110  -13.4629  -21.6285 C   0  0  0  0  0  0  0  0  0  0  0  0
   18.7302  -12.6884  -21.6303 C   0  0  0  0  0  0  0  0  0  0  0  0
   18.9980  -11.8537  -20.5713 C   0  0  0  0  0  0  0  0  0  0  0  0
   18.1522  -11.7773  -19.4908 C   0  0  0  0  0  0  0  0  0  0  0  0
   18.4358  -10.8782  -18.3450 C   0  0  0  0  0  0  0  0  0  0  0  0
   19.3567  -11.5424  -17.3347 C   0  0  2  0  0  0  0  0  0  0  0  0
   18.6369  -12.6224  -16.7350 N   0  0  0  0  0  0  0  0  0  0  0  0
   19.7647  -10.5014  -16.3676 C   0  0  0  0  0  0  0  0  0  0  0  0
   19.0677  -10.2937  -15.3482 O   0  0  0  0  0  0  0  0  0  0  0  0
   17.0265  -12.5730  -19.5162 C   0  0  0  0  0  0  0  0  0  0  0  0
   16.7550  -13.4043  -20.5654 C   0  0  0  0  0  0  0  0  0  0  0  0
   22.4518  -10.5142  -13.1497 C   0  0  0  0  0  0  0  0  0  0  0  0
   23.1488  -10.0849  -14.4248 C   0  0  0  0  0  0  0  0  0  0  0  0
   22.6662   -8.7751  -14.9557 C   0  0  2  0  0  0  0  0  0  0  0  0
   22.9326   -7.6341  -13.9637 C   0  0  0  0  0  0  0  0  0  0  0  0
   21.3521   -8.7096  -15.5795 C   0  0  2  0  0  0  0  0  0  0  0  0
   20.8999   -9.6886  -16.4793 N   0  0  0  0  0  0  0  0  0  0  0  0
   21.0659   -7.3177  -16.0508 C   0  0  0  0  0  0  0  0  0  0  0  0
   21.6052   -6.8588  -17.0997 O   0  0  0  0  0  0  0  0  0  0  0  0
   20.1926   -6.4443  -15.3634 N   0  0  0  0  0  0  0  0  0  0  0  0
   20.0217   -5.0652  -15.7658 C   0  0  1  0  0  0  0  0  0  0  0  0
   18.6011   -4.6319  -15.4919 C   0  0  0  0  0  0  0  0  0  0  0  0
   18.3058   -3.2170  -15.8610 C   0  0  0  0  0  0  0  0  0  0  0  0
   16.8823   -2.8296  -15.5347 C   0  0  0  0  0  0  0  0  0  0  0  0
   16.5580   -1.4123  -15.8937 C   0  0  0  0  0  0  0  0  0  0  0  0
   15.1912   -1.0918  -15.4848 N   0  0  0  0  0  0  0  0  0  0  0  0
   20.9112   -4.1779  -14.9084 C   0  0  0  0  0  0  0  0  0  0  0  0
   21.2268   -4.5246  -13.6098 O   0  0  0  0  0  0  0  0  0  0  0  0
   21.3691   -3.1125  -15.3822 O   0  0  0  0  0  0  0  0  0  0  0  0
  2  1  1  0
  3  2  2  0
  4  3  1  0
  5 11  1  0
  5  4  2  0
  6  5  1  0
  7  6  1  0
  7  8  1  1
  9 10  2  0
  9  7  1  0
 11 12  2  0
 12  2  1  0
 14 13  1  0
 15 17  1  0
 15 14  1  0
 15 16  1  1
 17 18  1  6
 18  9  1  0
 19 17  1  0
 20 19  2  0
 21 19  1  0
 22 21  1  0
 22 23  1  1
 23 24  1  0
 24 25  1  0
 25 26  1  0
 27 26  1  0
 28 29  1  0
 28 22  1  0
 30 28  2  0
M  END
$$$$
