YIK.pdb
     RDKit          3D

 30 30  0  0  1  0  0  0  0  0999 V2000
   15.3589  -13.6499  -20.5539 O   0  0  0  0  0  0  0  0  0  0  0  0
   15.7461  -12.6993  -19.6311 C   0  0  0  0  0  0  0  0  0  0  0  0
   15.1330  -12.6250  -18.4183 C   0  0  0  0  0  0  0  0  0  0  0  0
   15.5212  -11.6769  -17.5016 C   0  0  0  0  0  0  0  0  0  0  0  0
   16.5294  -10.7854  -17.7799 C   0  0  0  0  0  0  0  0  0  0  0  0
   16.9529   -9.7601  -16.7945 C   0  0  0  0  0  0  0  0  0  0  0  0
   18.2365  -10.1666  -16.0895 C   0  0  2  0  0  0  0  0  0  0  0  0
   17.9379  -11.2896  -15.2565 N   0  0  0  0  0  0  0  0  0  0  0  0
   18.7111   -8.9871  -15.3352 C   0  0  0  0  0  0  0  0  0  0  0  0
   18.1639   -8.6824  -14.2508 O   0  0  0  0  0  0  0  0  0  0  0  0
   17.1324  -10.8841  -19.0159 C   0  0  0  0  0  0  0  0  0  0  0  0
   16.7511  -11.8239  -19.9308 C   0  0  0  0  0  0  0  0  0  0  0  0
   21.9405   -5.0935  -12.8252 C   0  0  0  0  0  0  0  0  0  0  0  0
   22.0917   -5.4691  -14.2853 C   0  0  0  0  0  0  0  0  0  0  0  0
   21.5766   -6.8337  -14.6060 C   0  0  2  0  0  0  0  0  0  0  0  0
   22.5968   -7.6428  -15.4193 C   0  0  0  0  0  0  0  0  0  0  0  0
   20.2079   -6.9753  -15.0826 C   0  0  2  0  0  0  0  0  0  0  0  0
   19.7549   -8.1388  -15.7258 N   0  0  0  0  0  0  0  0  0  0  0  0
   19.7630   -5.7243  -15.7741 C   0  0  0  0  0  0  0  0  0  0  0  0
   20.0814   -5.4937  -16.9771 O   0  0  0  0  0  0  0  0  0  0  0  0
   18.9755   -4.7391  -15.1359 N   0  0  0  0  0  0  0  0  0  0  0  0
   18.4838   -3.5786  -15.8462 C   0  0  1  0  0  0  0  0  0  0  0  0
   17.0095   -3.4042  -15.5689 C   0  0  0  0  0  0  0  0  0  0  0  0
   16.3880   -2.2323  -16.2512 C   0  0  0  0  0  0  0  0  0  0  0  0
   14.9301   -2.0709  -15.8887 C   0  0  0  0  0  0  0  0  0  0  0  0
   14.2815   -0.8968  -16.5548 C   0  0  0  0  0  0  0  0  0  0  0  0
   12.9293   -0.7075  -16.0316 N   0  0  0  0  0  0  0  0  0  0  0  0
   19.1696   -2.3323  -15.3076 C   0  0  0  0  0  0  0  0  0  0  0  0
   19.5626   -2.2475  -13.9868 O   0  0  0  0  0  0  0  0  0  0  0  0
   19.3847   -1.3618  -16.0701 O   0  0  0  0  0  0  0  0  0  0  0  0
  2  1  1  0
  3  2  2  0
  4  3  1  0
  5 11  1  0
  5  4  2  0
  6  5  1  0
  7  6  1  0
  7  8  1  1
  9 10  2  0
  9  7  1  0
 11 12  2  0
 12  2  1  0
 14 13  1  0
 15 17  1  0
 15 14  1  0
 15 16  1  6
 17 18  1  6
 18  9  1  0
 19 17  1  0
 20 19  2  0
 21 19  1  0
 22 21  1  0
 22 23  1  1
 23 24  1  0
 24 25  1  0
 25 26  1  0
 27 26  1  0
 28 29  1  0
 28 22  1  0
 30 28  2  0
M  END
$$$$
