DYP.pdb
     RDKit          3D

 28 29  0  0  1  0  0  0  0  0999 V2000
    4.2249  -20.5630   22.2868 N   0  0  0  0  0  0  0  0  0  0  0  0
    5.5384  -20.2393   22.7398 C   0  0  1  0  0  0  0  0  0  0  0  0
    6.6279  -20.7110   21.8369 C   0  0  0  0  0  0  0  0  0  0  0  0
    7.0093  -22.1208   21.9893 C   0  0  0  0  0  0  0  0  0  0  0  0
    7.9840  -22.5969   21.3572 O   0  0  0  0  0  0  0  0  0  0  0  0
    5.7427  -18.8097   23.0557 C   0  0  0  0  0  0  0  0  0  0  0  0
    5.2467  -17.9369   22.2978 O   0  0  0  0  0  0  0  0  0  0  0  0
    6.2938  -22.9473   22.8390 O   0  0  0  0  0  0  0  0  0  0  0  0
    7.3565  -11.0953   26.8030 O   0  0  0  0  0  0  0  0  0  0  0  0
    7.2612  -12.4644   26.5724 C   0  0  0  0  0  0  0  0  0  0  0  0
    8.4008  -13.2098   26.3871 C   0  0  0  0  0  0  0  0  0  0  0  0
    8.3020  -14.5804   26.1562 C   0  0  0  0  0  0  0  0  0  0  0  0
    7.0767  -15.1841   26.1135 C   0  0  0  0  0  0  0  0  0  0  0  0
    6.9746  -16.6313   25.8686 C   0  0  0  0  0  0  0  0  0  0  0  0
    6.7638  -16.9278   24.3658 C   0  0  2  0  0  0  0  0  0  0  0  0
    6.4769  -18.3237   24.1798 N   0  0  0  0  0  0  0  0  0  0  0  0
    7.8497  -16.3554   23.5780 C   0  0  0  0  0  0  0  0  0  0  0  0
    8.9948  -16.9497   23.6660 O   0  0  0  0  0  0  0  0  0  0  0  0
    5.9444  -14.4364   26.2987 C   0  0  0  0  0  0  0  0  0  0  0  0
    6.0285  -13.0596   26.5316 C   0  0  0  0  0  0  0  0  0  0  0  0
    7.8340  -15.2330   22.7207 N   0  0  0  0  0  0  0  0  0  0  0  0
    6.8142  -14.2331   22.6563 C   0  0  0  0  0  0  0  0  0  0  0  0
    7.5992  -12.9489   22.3466 C   0  0  0  0  0  0  0  0  0  0  0  0
    8.5058  -13.5067   21.2423 C   0  0  0  0  0  0  0  0  0  0  0  0
    8.8616  -14.8797   21.7444 C   0  0  1  0  0  0  0  0  0  0  0  0
   10.1958  -14.7695   22.3824 C   0  0  0  0  0  0  0  0  0  0  0  0
   11.1762  -14.5863   21.6171 O   0  0  0  0  0  0  0  0  0  0  0  0
   10.4288  -14.8525   23.7282 O   0  0  0  0  0  0  0  0  0  0  0  0
  2  1  1  6
  2  3  1  0
  3  4  1  0
  4  8  1  0
  5  4  2  0
  6  2  1  0
  7  6  2  0
  9 10  1  0
 10 11  2  0
 10 20  1  0
 11 12  1  0
 12 13  2  0
 13 14  1  0
 15 14  1  1
 15 16  1  0
 15 17  1  0
 16  6  1  0
 17 18  2  0
 19 13  1  0
 20 19  2  0
 21 17  1  0
 21 25  1  0
 22 23  1  0
 22 21  1  0
 23 24  1  0
 24 25  1  0
 25 26  1  1
 26 28  1  0
 27 26  2  0
M  END
$$$$
