DYP.pdb
     RDKit          3D

 28 29  0  0  1  0  0  0  0  0999 V2000
   12.0556  -16.5980   20.1253 N   0  0  0  0  0  0  0  0  0  0  0  0
   11.5503  -17.2553   21.2863 C   0  0  1  0  0  0  0  0  0  0  0  0
   12.5176  -18.1946   21.9243 C   0  0  0  0  0  0  0  0  0  0  0  0
   12.7653  -19.4419   21.1901 C   0  0  0  0  0  0  0  0  0  0  0  0
   12.8469  -19.4472   19.9373 O   0  0  0  0  0  0  0  0  0  0  0  0
   10.9944  -16.3469   22.3116 C   0  0  0  0  0  0  0  0  0  0  0  0
   11.7196  -15.4310   22.7780 O   0  0  0  0  0  0  0  0  0  0  0  0
   12.9138  -20.6354   21.8760 O   0  0  0  0  0  0  0  0  0  0  0  0
    5.8742  -11.5031   27.4601 O   0  0  0  0  0  0  0  0  0  0  0  0
    6.3291  -12.4183   26.5155 C   0  0  0  0  0  0  0  0  0  0  0  0
    7.0493  -11.9823   25.4293 C   0  0  0  0  0  0  0  0  0  0  0  0
    7.5032  -12.9011   24.4852 C   0  0  0  0  0  0  0  0  0  0  0  0
    7.2343  -14.2325   24.6364 C   0  0  0  0  0  0  0  0  0  0  0  0
    7.7137  -15.2008   23.6378 C   0  0  0  0  0  0  0  0  0  0  0  0
    9.1985  -15.5591   23.8782 C   0  0  2  0  0  0  0  0  0  0  0  0
    9.6668  -16.4252   22.8314 N   0  0  0  0  0  0  0  0  0  0  0  0
    9.3978  -16.0011   25.2539 C   0  0  0  0  0  0  0  0  0  0  0  0
    9.0895  -17.2306   25.5098 O   0  0  0  0  0  0  0  0  0  0  0  0
    6.5160  -14.6613   25.7206 C   0  0  0  0  0  0  0  0  0  0  0  0
    6.0542  -13.7503   26.6765 C   0  0  0  0  0  0  0  0  0  0  0  0
    9.8858  -15.2742   26.3623 N   0  0  0  0  0  0  0  0  0  0  0  0
    9.9265  -13.8507   26.4877 C   0  0  0  0  0  0  0  0  0  0  0  0
    9.6596  -13.6211   27.9834 C   0  0  0  0  0  0  0  0  0  0  0  0
   10.6085  -14.6888   28.5422 C   0  0  0  0  0  0  0  0  0  0  0  0
   10.4333  -15.8420   27.5919 C   0  0  1  0  0  0  0  0  0  0  0  0
    9.4740  -16.7777   28.2271 C   0  0  0  0  0  0  0  0  0  0  0  0
    8.3191  -16.8271   27.7328 O   0  0  0  0  0  0  0  0  0  0  0  0
    9.7566  -17.5795   29.2994 O   0  0  0  0  0  0  0  0  0  0  0  0
  2  1  1  6
  2  3  1  0
  3  4  1  0
  4  8  1  0
  5  4  2  0
  6  2  1  0
  7  6  2  0
  9 10  1  0
 10 11  2  0
 10 20  1  0
 11 12  1  0
 12 13  2  0
 13 14  1  0
 15 14  1  6
 15 16  1  0
 15 17  1  0
 16  6  1  0
 17 18  2  0
 19 13  1  0
 20 19  2  0
 21 17  1  0
 21 25  1  0
 22 23  1  0
 22 21  1  0
 23 24  1  0
 24 25  1  0
 25 26  1  1
 26 28  1  0
 27 26  2  0
M  END
$$$$
