DYP.pdb
     RDKit          3D

 28 29  0  0  1  0  0  0  0  0999 V2000
   11.3095  -16.6755   19.7823 N   0  0  0  0  0  0  0  0  0  0  0  0
   11.5729  -17.1366   21.1063 C   0  0  1  0  0  0  0  0  0  0  0  0
   13.0079  -17.4474   21.3692 C   0  0  0  0  0  0  0  0  0  0  0  0
   13.5605  -18.5742   20.6069 C   0  0  0  0  0  0  0  0  0  0  0  0
   13.4769  -18.6081   19.3547 O   0  0  0  0  0  0  0  0  0  0  0  0
   11.0539  -16.2578   22.1758 C   0  0  0  0  0  0  0  0  0  0  0  0
   11.6749  -15.2006   22.4567 O   0  0  0  0  0  0  0  0  0  0  0  0
   14.1858  -19.6196   21.2650 O   0  0  0  0  0  0  0  0  0  0  0  0
    5.8231  -11.7074   27.4666 O   0  0  0  0  0  0  0  0  0  0  0  0
    6.3357  -12.5860   26.5169 C   0  0  0  0  0  0  0  0  0  0  0  0
    6.0743  -13.9316   26.6155 C   0  0  0  0  0  0  0  0  0  0  0  0
    6.5892  -14.8087   25.6630 C   0  0  0  0  0  0  0  0  0  0  0  0
    7.3522  -14.3350   24.6330 C   0  0  0  0  0  0  0  0  0  0  0  0
    7.8956  -15.2631   23.6289 C   0  0  0  0  0  0  0  0  0  0  0  0
    9.3771  -15.5949   23.9221 C   0  0  2  0  0  0  0  0  0  0  0  0
    9.8744  -16.5165   22.9378 N   0  0  0  0  0  0  0  0  0  0  0  0
    9.5488  -15.9547   25.3252 C   0  0  0  0  0  0  0  0  0  0  0  0
    9.1522  -17.1378   25.6648 O   0  0  0  0  0  0  0  0  0  0  0  0
    7.6097  -12.9932   24.5398 C   0  0  0  0  0  0  0  0  0  0  0  0
    7.0992  -12.1010   25.4886 C   0  0  0  0  0  0  0  0  0  0  0  0
   10.0931  -15.1911   26.3815 N   0  0  0  0  0  0  0  0  0  0  0  0
   10.2298  -13.7684   26.4125 C   0  0  0  0  0  0  0  0  0  0  0  0
    9.9907  -13.4238   27.8907 C   0  0  0  0  0  0  0  0  0  0  0  0
   10.8706  -14.5138   28.5154 C   0  0  0  0  0  0  0  0  0  0  0  0
   10.6112  -15.7125   27.6439 C   0  0  1  0  0  0  0  0  0  0  0  0
    9.5966  -16.5380   28.3428 C   0  0  0  0  0  0  0  0  0  0  0  0
    8.4310  -16.5219   27.8719 O   0  0  0  0  0  0  0  0  0  0  0  0
    9.8395  -17.3049   29.4497 O   0  0  0  0  0  0  0  0  0  0  0  0
  2  1  1  6
  2  3  1  0
  3  4  1  0
  4  8  1  0
  5  4  2  0
  6  2  1  0
  7  6  2  0
  9 10  1  0
 10 11  2  0
 10 20  1  0
 11 12  1  0
 12 13  2  0
 13 14  1  0
 15 14  1  6
 15 16  1  0
 15 17  1  0
 16  6  1  0
 17 18  2  0
 19 13  1  0
 20 19  2  0
 21 17  1  0
 21 25  1  0
 22 23  1  0
 22 21  1  0
 23 24  1  0
 24 25  1  0
 25 26  1  1
 26 28  1  0
 27 26  2  0
M  END
$$$$
