DYP.pdb
     RDKit          3D

 28 29  0  0  1  0  0  0  0  0999 V2000
    6.1211  -18.9710   25.7335 N   0  0  0  0  0  0  0  0  0  0  0  0
    7.0127  -18.7257   24.6472 C   0  0  1  0  0  0  0  0  0  0  0  0
    6.9180  -19.7246   23.5436 C   0  0  0  0  0  0  0  0  0  0  0  0
    7.8452  -20.8595   23.6370 C   0  0  0  0  0  0  0  0  0  0  0  0
    7.6018  -21.8301   24.3951 O   0  0  0  0  0  0  0  0  0  0  0  0
    6.9336  -17.3604   24.0858 C   0  0  0  0  0  0  0  0  0  0  0  0
    5.8098  -16.8899   23.7728 O   0  0  0  0  0  0  0  0  0  0  0  0
    9.0069  -20.8728   22.8838 O   0  0  0  0  0  0  0  0  0  0  0  0
    5.8281  -12.2511   28.2326 O   0  0  0  0  0  0  0  0  0  0  0  0
    6.5442  -12.7230   27.1366 C   0  0  0  0  0  0  0  0  0  0  0  0
    7.5353  -13.6581   27.3157 C   0  0  0  0  0  0  0  0  0  0  0  0
    8.2505  -14.1285   26.2163 C   0  0  0  0  0  0  0  0  0  0  0  0
    7.9695  -13.6630   24.9625 C   0  0  0  0  0  0  0  0  0  0  0  0
    8.7267  -14.1603   23.8032 C   0  0  0  0  0  0  0  0  0  0  0  0
    7.9650  -15.3007   23.0888 C   0  0  2  0  0  0  0  0  0  0  0  0
    8.0573  -16.5082   23.8626 N   0  0  0  0  0  0  0  0  0  0  0  0
    8.3567  -15.3717   21.6855 C   0  0  0  0  0  0  0  0  0  0  0  0
    9.0023  -16.4325   21.3250 O   0  0  0  0  0  0  0  0  0  0  0  0
    6.9810  -12.7311   24.7899 C   0  0  0  0  0  0  0  0  0  0  0  0
    6.2546  -12.2501   25.8844 C   0  0  0  0  0  0  0  0  0  0  0  0
    8.1302  -14.4401   20.6482 N   0  0  0  0  0  0  0  0  0  0  0  0
    7.4448  -13.1912   20.7688 C   0  0  0  0  0  0  0  0  0  0  0  0
    8.2000  -12.2791   19.7896 C   0  0  0  0  0  0  0  0  0  0  0  0
    8.2824  -13.2496   18.6046 C   0  0  0  0  0  0  0  0  0  0  0  0
    8.5615  -14.5752   19.2591 C   0  0  1  0  0  0  0  0  0  0  0  0
   10.0249  -14.7974   19.1684 C   0  0  0  0  0  0  0  0  0  0  0  0
   10.7067  -14.5016   20.1825 O   0  0  0  0  0  0  0  0  0  0  0  0
   10.6743  -15.2952   18.0716 O   0  0  0  0  0  0  0  0  0  0  0  0
  2  1  1  1
  2  3  1  0
  3  4  1  0
  4  8  1  0
  5  4  2  0
  6  2  1  0
  7  6  2  0
  9 10  1  0
 10 11  2  0
 10 20  1  0
 11 12  1  0
 12 13  2  0
 13 14  1  0
 15 14  1  1
 15 16  1  0
 15 17  1  0
 16  6  1  0
 17 18  2  0
 19 13  1  0
 20 19  2  0
 21 17  1  0
 21 25  1  0
 22 23  1  0
 22 21  1  0
 23 24  1  0
 24 25  1  0
 25 26  1  1
 26 28  1  0
 27 26  2  0
M  END
$$$$
