DYP.pdb
     RDKit          3D

 28 29  0  0  1  0  0  0  0  0999 V2000
   11.3714  -17.0177   20.1039 N   0  0  0  0  0  0  0  0  0  0  0  0
   11.5442  -17.3918   21.4697 C   0  0  1  0  0  0  0  0  0  0  0  0
   12.9445  -17.7600   21.8282 C   0  0  0  0  0  0  0  0  0  0  0  0
   13.5274  -18.8607   21.0505 C   0  0  0  0  0  0  0  0  0  0  0  0
   14.7449  -18.8593   20.7438 O   0  0  0  0  0  0  0  0  0  0  0  0
   11.0271  -16.4081   22.4445 C   0  0  0  0  0  0  0  0  0  0  0  0
   11.6257  -15.3108   22.5854 O   0  0  0  0  0  0  0  0  0  0  0  0
   12.7356  -19.9213   20.6441 O   0  0  0  0  0  0  0  0  0  0  0  0
    6.9617  -12.9391   19.0727 O   0  0  0  0  0  0  0  0  0  0  0  0
    7.2059  -13.5315   20.3081 C   0  0  0  0  0  0  0  0  0  0  0  0
    7.7945  -12.8031   21.3138 C   0  0  0  0  0  0  0  0  0  0  0  0
    8.0378  -13.3992   22.5495 C   0  0  0  0  0  0  0  0  0  0  0  0
    7.6932  -14.7043   22.7634 C   0  0  0  0  0  0  0  0  0  0  0  0
    7.9519  -15.3320   24.0687 C   0  0  0  0  0  0  0  0  0  0  0  0
    9.4554  -15.6457   24.2471 C   0  0  2  0  0  0  0  0  0  0  0  0
    9.8735  -16.6055   23.2625 N   0  0  0  0  0  0  0  0  0  0  0  0
    9.7492  -15.9462   25.6439 C   0  0  0  0  0  0  0  0  0  0  0  0
    9.7772  -17.1984   25.9657 O   0  0  0  0  0  0  0  0  0  0  0  0
    7.1071  -15.4254   21.7576 C   0  0  0  0  0  0  0  0  0  0  0  0
    6.8566  -14.8400   20.5121 C   0  0  0  0  0  0  0  0  0  0  0  0
   10.0125  -15.0588   26.7107 N   0  0  0  0  0  0  0  0  0  0  0  0
    9.8428  -13.6394   26.6907 C   0  0  0  0  0  0  0  0  0  0  0  0
    9.3903  -13.3185   28.1236 C   0  0  0  0  0  0  0  0  0  0  0  0
   10.4131  -14.1799   28.8749 C   0  0  0  0  0  0  0  0  0  0  0  0
   10.5001  -15.4269   28.0376 C   0  0  1  0  0  0  0  0  0  0  0  0
    9.6175  -16.4332   28.6760 C   0  0  0  0  0  0  0  0  0  0  0  0
    8.4825  -16.5990   28.1614 O   0  0  0  0  0  0  0  0  0  0  0  0
    9.9499  -17.1827   29.7716 O   0  0  0  0  0  0  0  0  0  0  0  0
  2  1  1  6
  2  3  1  0
  3  4  1  0
  4  8  1  0
  5  4  2  0
  6  2  1  0
  7  6  2  0
  9 10  1  0
 10 11  2  0
 10 20  1  0
 11 12  1  0
 12 13  2  0
 13 14  1  0
 15 14  1  1
 15 16  1  0
 15 17  1  0
 16  6  1  0
 17 18  2  0
 19 13  1  0
 20 19  2  0
 21 17  1  0
 21 25  1  0
 22 23  1  0
 22 21  1  0
 23 24  1  0
 24 25  1  0
 25 26  1  1
 26 28  1  0
 27 26  2  0
M  END
$$$$
