DYP.pdb
     RDKit          3D

 28 29  0  0  1  0  0  0  0  0999 V2000
    6.7279  -22.5444   23.2237 N   0  0  0  0  0  0  0  0  0  0  0  0
    7.2515  -21.4645   22.4524 C   0  0  1  0  0  0  0  0  0  0  0  0
    6.6432  -21.3327   21.0969 C   0  0  0  0  0  0  0  0  0  0  0  0
    7.3780  -20.4792   20.1546 C   0  0  0  0  0  0  0  0  0  0  0  0
    8.5052  -20.0128   20.4514 O   0  0  0  0  0  0  0  0  0  0  0  0
    7.2243  -20.1539   23.1356 C   0  0  0  0  0  0  0  0  0  0  0  0
    6.1291  -19.5468   23.2550 O   0  0  0  0  0  0  0  0  0  0  0  0
    6.8326  -20.1774   18.9182 O   0  0  0  0  0  0  0  0  0  0  0  0
    6.6844  -21.7472   29.1849 O   0  0  0  0  0  0  0  0  0  0  0  0
    7.2596  -20.8461   28.2939 C   0  0  0  0  0  0  0  0  0  0  0  0
    8.4846  -21.1213   27.7350 C   0  0  0  0  0  0  0  0  0  0  0  0
    9.0579  -20.2170   26.8433 C   0  0  0  0  0  0  0  0  0  0  0  0
    8.4062  -19.0590   26.5238 C   0  0  0  0  0  0  0  0  0  0  0  0
    9.0139  -18.1051   25.5828 C   0  0  0  0  0  0  0  0  0  0  0  0
    8.3159  -18.1622   24.2042 C   0  0  2  0  0  0  0  0  0  0  0  0
    8.3691  -19.5015   23.6857 N   0  0  0  0  0  0  0  0  0  0  0  0
    8.8030  -17.0899   23.3437 C   0  0  0  0  0  0  0  0  0  0  0  0
    9.8764  -17.3419   22.6680 O   0  0  0  0  0  0  0  0  0  0  0  0
    7.1859  -18.7898   27.0839 C   0  0  0  0  0  0  0  0  0  0  0  0
    6.5982  -19.6886   27.9804 C   0  0  0  0  0  0  0  0  0  0  0  0
    8.2668  -15.7997   23.1361 N   0  0  0  0  0  0  0  0  0  0  0  0
    7.0683  -15.2794   23.7163 C   0  0  0  0  0  0  0  0  0  0  0  0
    7.3977  -13.7942   23.9327 C   0  0  0  0  0  0  0  0  0  0  0  0
    8.0378  -13.5103   22.5680 C   0  0  0  0  0  0  0  0  0  0  0  0
    8.8414  -14.7526   22.2952 C   0  0  1  0  0  0  0  0  0  0  0  0
   10.2396  -14.4526   22.6883 C   0  0  0  0  0  0  0  0  0  0  0  0
   10.6467  -14.9596   23.7643 O   0  0  0  0  0  0  0  0  0  0  0  0
   11.1041  -13.6725   21.9696 O   0  0  0  0  0  0  0  0  0  0  0  0
  2  1  1  1
  2  3  1  0
  3  4  1  0
  4  8  1  0
  5  4  2  0
  6  2  1  0
  7  6  2  0
  9 10  1  0
 10 11  2  0
 10 20  1  0
 11 12  1  0
 12 13  2  0
 13 14  1  0
 15 14  1  1
 15 16  1  0
 15 17  1  0
 16  6  1  0
 17 18  2  0
 19 13  1  0
 20 19  2  0
 21 17  1  0
 21 25  1  0
 22 23  1  0
 22 21  1  0
 23 24  1  0
 24 25  1  0
 25 26  1  1
 26 28  1  0
 27 26  2  0
M  END
$$$$
