DYP.pdb
     RDKit          3D

 28 29  0  0  1  0  0  0  0  0999 V2000
    5.5743  -19.1593   24.8453 N   0  0  0  0  0  0  0  0  0  0  0  0
    6.4613  -18.9596   23.7460 C   0  0  1  0  0  0  0  0  0  0  0  0
    6.0876  -19.7162   22.5161 C   0  0  0  0  0  0  0  0  0  0  0  0
    6.2954  -21.1684   22.5797 C   0  0  0  0  0  0  0  0  0  0  0  0
    5.4297  -21.9635   22.1388 O   0  0  0  0  0  0  0  0  0  0  0  0
    6.6997  -17.5421   23.4007 C   0  0  0  0  0  0  0  0  0  0  0  0
    5.7294  -16.8264   23.0422 O   0  0  0  0  0  0  0  0  0  0  0  0
    7.4578  -21.6816   23.1298 O   0  0  0  0  0  0  0  0  0  0  0  0
    5.5236  -11.8823   27.4399 O   0  0  0  0  0  0  0  0  0  0  0  0
    6.3755  -12.5913   26.5983 C   0  0  0  0  0  0  0  0  0  0  0  0
    6.6219  -13.9225   26.8348 C   0  0  0  0  0  0  0  0  0  0  0  0
    7.4755  -14.6295   25.9904 C   0  0  0  0  0  0  0  0  0  0  0  0
    8.0674  -14.0035   24.9295 C   0  0  0  0  0  0  0  0  0  0  0  0
    8.9691  -14.7518   24.0398 C   0  0  0  0  0  0  0  0  0  0  0  0
    8.1714  -15.5519   22.9841 C   0  0  2  0  0  0  0  0  0  0  0  0
    7.9746  -16.9004   23.4406 N   0  0  0  0  0  0  0  0  0  0  0  0
    8.7569  -15.3706   21.6605 C   0  0  0  0  0  0  0  0  0  0  0  0
    9.7350  -16.1594   21.3549 O   0  0  0  0  0  0  0  0  0  0  0  0
    7.8184  -12.6768   24.6987 C   0  0  0  0  0  0  0  0  0  0  0  0
    6.9635  -11.9545   25.5379 C   0  0  0  0  0  0  0  0  0  0  0  0
    8.4071  -14.4485   20.6493 N   0  0  0  0  0  0  0  0  0  0  0  0
    7.3249  -13.5155   20.6942 C   0  0  0  0  0  0  0  0  0  0  0  0
    7.8779  -12.2979   19.9374 C   0  0  0  0  0  0  0  0  0  0  0  0
    8.4917  -13.0412   18.7443 C   0  0  0  0  0  0  0  0  0  0  0  0
    9.0914  -14.2704   19.3711 C   0  0  1  0  0  0  0  0  0  0  0  0
   10.5345  -13.9901   19.5669 C   0  0  0  0  0  0  0  0  0  0  0  0
   11.2679  -14.0572   18.5481 O   0  0  0  0  0  0  0  0  0  0  0  0
   11.1135  -13.6679   20.7642 O   0  0  0  0  0  0  0  0  0  0  0  0
  2  1  1  1
  2  3  1  0
  3  4  1  0
  4  8  1  0
  5  4  2  0
  6  2  1  0
  7  6  2  0
  9 10  1  0
 10 11  2  0
 10 20  1  0
 11 12  1  0
 12 13  2  0
 13 14  1  0
 15 14  1  1
 15 16  1  0
 15 17  1  0
 16  6  1  0
 17 18  2  0
 19 13  1  0
 20 19  2  0
 21 17  1  0
 21 25  1  0
 22 23  1  0
 22 21  1  0
 23 24  1  0
 24 25  1  0
 25 26  1  1
 26 28  1  0
 27 26  2  0
M  END
$$$$
