DYP.pdb
     RDKit          3D

 28 29  0  0  1  0  0  0  0  0999 V2000
    5.8194  -19.6361   25.4822 N   0  0  0  0  0  0  0  0  0  0  0  0
    6.6308  -19.3586   24.3421 C   0  0  1  0  0  0  0  0  0  0  0  0
    6.2829  -20.1642   23.1359 C   0  0  0  0  0  0  0  0  0  0  0  0
    6.6752  -21.5784   23.1857 C   0  0  0  0  0  0  0  0  0  0  0  0
    7.2322  -22.0575   24.2037 O   0  0  0  0  0  0  0  0  0  0  0  0
    6.7048  -17.9282   23.9763 C   0  0  0  0  0  0  0  0  0  0  0  0
    5.6419  -17.3015   23.7320 O   0  0  0  0  0  0  0  0  0  0  0  0
    6.4325  -22.4064   22.1027 O   0  0  0  0  0  0  0  0  0  0  0  0
    5.3589  -11.5876   27.3457 O   0  0  0  0  0  0  0  0  0  0  0  0
    6.1984  -12.4149   26.6057 C   0  0  0  0  0  0  0  0  0  0  0  0
    6.0872  -13.7802   26.7158 C   0  0  0  0  0  0  0  0  0  0  0  0
    6.9294  -14.6057   25.9737 C   0  0  0  0  0  0  0  0  0  0  0  0
    7.8642  -14.0620   25.1382 C   0  0  0  0  0  0  0  0  0  0  0  0
    8.7531  -14.9356   24.3562 C   0  0  0  0  0  0  0  0  0  0  0  0
    7.9442  -15.8269   23.3856 C   0  0  2  0  0  0  0  0  0  0  0  0
    7.9156  -17.1784   23.8736 N   0  0  0  0  0  0  0  0  0  0  0  0
    8.3914  -15.6188   22.0129 C   0  0  0  0  0  0  0  0  0  0  0  0
    9.2300  -16.4859   21.5470 O   0  0  0  0  0  0  0  0  0  0  0  0
    7.9707  -12.7008   25.0325 C   0  0  0  0  0  0  0  0  0  0  0  0
    7.1318  -11.8598   25.7713 C   0  0  0  0  0  0  0  0  0  0  0  0
    8.0376  -14.5962   21.1050 N   0  0  0  0  0  0  0  0  0  0  0  0
    7.1314  -13.5194   21.3564 C   0  0  0  0  0  0  0  0  0  0  0  0
    7.7432  -12.3524   20.5658 C   0  0  0  0  0  0  0  0  0  0  0  0
    8.0459  -13.1043   19.2636 C   0  0  0  0  0  0  0  0  0  0  0  0
    8.5379  -14.4436   19.7411 C   0  0  1  0  0  0  0  0  0  0  0  0
   10.0197  -14.3895   19.7136 C   0  0  0  0  0  0  0  0  0  0  0  0
   10.5975  -14.1359   20.8010 O   0  0  0  0  0  0  0  0  0  0  0  0
   10.7896  -14.5940   18.6010 O   0  0  0  0  0  0  0  0  0  0  0  0
  2  1  1  1
  2  3  1  0
  3  4  1  0
  4  8  1  0
  5  4  2  0
  6  2  1  0
  7  6  2  0
  9 10  1  0
 10 11  2  0
 10 20  1  0
 11 12  1  0
 12 13  2  0
 13 14  1  0
 15 14  1  1
 15 16  1  0
 15 17  1  0
 16  6  1  0
 17 18  2  0
 19 13  1  0
 20 19  2  0
 21 17  1  0
 21 25  1  0
 22 23  1  0
 22 21  1  0
 23 24  1  0
 24 25  1  0
 25 26  1  1
 26 28  1  0
 27 26  2  0
M  END
$$$$
