DYP.pdb
     RDKit          3D

 28 29  0  0  1  0  0  0  0  0999 V2000
    6.0343  -21.0552   23.5983 N   0  0  0  0  0  0  0  0  0  0  0  0
    5.5894  -20.1143   22.6226 C   0  0  1  0  0  0  0  0  0  0  0  0
    4.1926  -20.3403   22.1506 C   0  0  0  0  0  0  0  0  0  0  0  0
    3.8857  -21.7092   21.7169 C   0  0  0  0  0  0  0  0  0  0  0  0
    4.5471  -22.2594   20.8026 O   0  0  0  0  0  0  0  0  0  0  0  0
    5.7549  -18.6990   23.0162 C   0  0  0  0  0  0  0  0  0  0  0  0
    5.2697  -17.7979   22.2847 O   0  0  0  0  0  0  0  0  0  0  0  0
    2.8562  -22.4148   22.3165 O   0  0  0  0  0  0  0  0  0  0  0  0
    7.1661  -11.1028   27.0279 O   0  0  0  0  0  0  0  0  0  0  0  0
    7.1056  -12.4666   26.7573 C   0  0  0  0  0  0  0  0  0  0  0  0
    8.2642  -13.1794   26.5625 C   0  0  0  0  0  0  0  0  0  0  0  0
    8.2002  -14.5447   26.2916 C   0  0  0  0  0  0  0  0  0  0  0  0
    6.9901  -15.1756   26.2192 C   0  0  0  0  0  0  0  0  0  0  0  0
    6.9248  -16.6171   25.9320 C   0  0  0  0  0  0  0  0  0  0  0  0
    6.7630  -16.8758   24.4162 C   0  0  2  0  0  0  0  0  0  0  0  0
    6.4390  -18.2574   24.1891 N   0  0  0  0  0  0  0  0  0  0  0  0
    7.8966  -16.3234   23.6830 C   0  0  0  0  0  0  0  0  0  0  0  0
    9.0254  -16.9372   23.8282 O   0  0  0  0  0  0  0  0  0  0  0  0
    5.8387  -14.4603   26.4141 C   0  0  0  0  0  0  0  0  0  0  0  0
    5.8877  -13.0892   26.6870 C   0  0  0  0  0  0  0  0  0  0  0  0
    7.9429  -15.2021   22.8253 N   0  0  0  0  0  0  0  0  0  0  0  0
    6.9163  -14.2208   22.6611 C   0  0  0  0  0  0  0  0  0  0  0  0
    7.7043  -12.9230   22.4247 C   0  0  0  0  0  0  0  0  0  0  0  0
    8.7223  -13.4653   21.4136 C   0  0  0  0  0  0  0  0  0  0  0  0
    9.0527  -14.8313   21.9508 C   0  0  1  0  0  0  0  0  0  0  0  0
   10.3176  -14.6965   22.7132 C   0  0  0  0  0  0  0  0  0  0  0  0
   10.2313  -14.7431   23.9666 O   0  0  0  0  0  0  0  0  0  0  0  0
   11.5545  -14.5272   22.1530 O   0  0  0  0  0  0  0  0  0  0  0  0
  2  1  1  1
  2  3  1  0
  3  4  1  0
  4  8  1  0
  5  4  2  0
  6  2  1  0
  7  6  2  0
  9 10  1  0
 10 11  2  0
 10 20  1  0
 11 12  1  0
 12 13  2  0
 13 14  1  0
 15 14  1  1
 15 16  1  0
 15 17  1  0
 16  6  1  0
 17 18  2  0
 19 13  1  0
 20 19  2  0
 21 17  1  0
 21 25  1  0
 22 23  1  0
 22 21  1  0
 23 24  1  0
 24 25  1  0
 25 26  1  1
 26 28  1  0
 27 26  2  0
M  END
$$$$
