YEG.pdb
     RDKit          3D

 26 26  0  0  1  0  0  0  0  0999 V2000
    7.8941  -12.1871   18.9251 O   0  0  0  0  0  0  0  0  0  0  0  0
    7.9029  -12.9841   20.0587 C   0  0  0  0  0  0  0  0  0  0  0  0
    7.0133  -12.7298   21.0905 C   0  0  0  0  0  0  0  0  0  0  0  0
    6.9871  -13.4879   22.2231 C   0  0  0  0  0  0  0  0  0  0  0  0
    7.8573  -14.5576   22.3957 C   0  0  0  0  0  0  0  0  0  0  0  0
    7.8371  -15.3840   23.6158 C   0  0  0  0  0  0  0  0  0  0  0  0
    7.8051  -16.8668   23.3232 C   0  0  2  0  0  0  0  0  0  0  0  0
    6.5175  -17.2427   22.7851 N   0  0  0  0  0  0  0  0  0  0  0  0
    8.0726  -17.6734   24.5358 C   0  0  0  0  0  0  0  0  0  0  0  0
    7.0975  -18.1331   25.2151 O   0  0  0  0  0  0  0  0  0  0  0  0
    8.7435  -14.8075   21.3629 C   0  0  0  0  0  0  0  0  0  0  0  0
    8.7715  -14.0463   20.2229 C   0  0  0  0  0  0  0  0  0  0  0  0
    9.4057  -17.9395   24.9487 N   0  0  0  0  0  0  0  0  0  0  0  0
    9.6440  -18.8318   26.1015 C   0  0  1  0  0  0  0  0  0  0  0  0
   11.0458  -19.3510   25.9606 C   0  0  0  0  0  0  0  0  0  0  0  0
   11.1958  -20.4673   24.9716 C   0  0  0  0  0  0  0  0  0  0  0  0
   12.4058  -20.3217   24.1559 C   0  0  0  0  0  0  0  0  0  0  0  0
   12.4226  -19.9025   22.9775 O   0  0  0  0  0  0  0  0  0  0  0  0
    9.5608  -17.9889   27.3142 C   0  0  0  0  0  0  0  0  0  0  0  0
    9.5244  -18.4795   28.4879 O   0  0  0  0  0  0  0  0  0  0  0  0
   13.6343  -20.6820   24.7497 O   0  0  0  0  0  0  0  0  0  0  0  0
    9.5180  -16.5775   27.2003 N   0  0  0  0  0  0  0  0  0  0  0  0
    9.4480  -15.7154   28.3606 C   0  0  0  0  0  0  0  0  0  0  0  0
   10.7669  -15.6184   29.0249 C   0  0  0  0  0  0  0  0  0  0  0  0
   11.7690  -16.2474   28.5761 O   0  0  0  0  0  0  0  0  0  0  0  0
   10.9869  -14.8489   30.1577 O   0  0  0  0  0  0  0  0  0  0  0  0
  2  3  2  0
  2  1  1  0
  4  3  1  0
  5  4  2  0
  6  5  1  0
  7  6  1  0
  7  9  1  0
  7  8  1  1
  9 13  1  0
  9 10  2  0
 11  5  1  0
 11 12  2  0
 12  2  1  0
 13 14  1  0
 14 15  1  6
 15 16  1  0
 16 17  1  0
 17 21  1  0
 18 17  2  0
 19 22  1  0
 19 14  1  0
 20 19  2  0
 23 22  1  0
 24 26  1  0
 24 23  1  0
 25 24  2  0
M  END
$$$$
