YEG.pdb
     RDKit          3D

 26 26  0  0  1  0  0  0  0  0999 V2000
    5.4925  -10.1825   26.3058 O   0  0  0  0  0  0  0  0  0  0  0  0
    6.1734  -11.3786   26.1439 C   0  0  0  0  0  0  0  0  0  0  0  0
    5.6856  -12.5371   26.7273 C   0  0  0  0  0  0  0  0  0  0  0  0
    6.3228  -13.7348   26.5941 C   0  0  0  0  0  0  0  0  0  0  0  0
    7.4986  -13.8492   25.8622 C   0  0  0  0  0  0  0  0  0  0  0  0
    8.1952  -15.1391   25.7114 C   0  0  0  0  0  0  0  0  0  0  0  0
    7.8569  -15.8442   24.4177 C   0  0  2  0  0  0  0  0  0  0  0  0
    6.5280  -16.4082   24.4883 N   0  0  0  0  0  0  0  0  0  0  0  0
    8.8212  -16.9252   24.1110 C   0  0  0  0  0  0  0  0  0  0  0  0
    8.5975  -18.1075   24.5301 O   0  0  0  0  0  0  0  0  0  0  0  0
    7.9816  -12.6898   25.2818 C   0  0  0  0  0  0  0  0  0  0  0  0
    7.3424  -11.4842   25.4144 C   0  0  0  0  0  0  0  0  0  0  0  0
    9.9932  -16.6564   23.3542 N   0  0  0  0  0  0  0  0  0  0  0  0
   10.9311  -17.7573   23.0532 C   0  0  1  0  0  0  0  0  0  0  0  0
   11.8092  -17.2796   21.9328 C   0  0  0  0  0  0  0  0  0  0  0  0
   12.8567  -18.2628   21.5052 C   0  0  0  0  0  0  0  0  0  0  0  0
   13.4836  -17.8824   20.2353 C   0  0  0  0  0  0  0  0  0  0  0  0
   12.8819  -17.8005   19.1419 O   0  0  0  0  0  0  0  0  0  0  0  0
   11.7573  -17.9532   24.2644 C   0  0  0  0  0  0  0  0  0  0  0  0
   12.3434  -16.9911   24.8565 O   0  0  0  0  0  0  0  0  0  0  0  0
   14.8639  -17.5895   20.2568 O   0  0  0  0  0  0  0  0  0  0  0  0
   11.9238  -19.2490   24.8123 N   0  0  0  0  0  0  0  0  0  0  0  0
   12.7852  -19.4972   25.9484 C   0  0  0  0  0  0  0  0  0  0  0  0
   12.0023  -19.5398   27.2036 C   0  0  0  0  0  0  0  0  0  0  0  0
   11.3320  -20.5661   27.5175 O   0  0  0  0  0  0  0  0  0  0  0  0
   11.9525  -18.4814   28.0986 O   0  0  0  0  0  0  0  0  0  0  0  0
  2  3  2  0
  2  1  1  0
  4  3  1  0
  5  4  2  0
  6  5  1  0
  7  6  1  0
  7  9  1  0
  7  8  1  1
  9 13  1  0
  9 10  2  0
 11  5  1  0
 11 12  2  0
 12  2  1  0
 13 14  1  0
 14 15  1  6
 15 16  1  0
 16 17  1  0
 17 21  1  0
 18 17  2  0
 19 22  1  0
 19 14  1  0
 20 19  2  0
 23 22  1  0
 24 26  1  0
 24 23  1  0
 25 24  2  0
M  END
$$$$
