YEG.pdb
     RDKit          3D

 26 26  0  0  1  0  0  0  0  0999 V2000
    5.4798  -10.7113   28.1919 O   0  0  0  0  0  0  0  0  0  0  0  0
    6.1385  -11.6381   27.3997 C   0  0  0  0  0  0  0  0  0  0  0  0
    7.2518  -12.3014   27.8907 C   0  0  0  0  0  0  0  0  0  0  0  0
    7.9299  -13.2203   27.1464 C   0  0  0  0  0  0  0  0  0  0  0  0
    7.5329  -13.5358   25.8526 C   0  0  0  0  0  0  0  0  0  0  0  0
    8.2584  -14.5280   25.0395 C   0  0  0  0  0  0  0  0  0  0  0  0
    7.3597  -15.6146   24.4948 C   0  0  2  0  0  0  0  0  0  0  0  0
    6.8629  -16.4397   25.5724 N   0  0  0  0  0  0  0  0  0  0  0  0
    8.0654  -16.4749   23.5178 C   0  0  0  0  0  0  0  0  0  0  0  0
    8.3205  -17.6876   23.8142 O   0  0  0  0  0  0  0  0  0  0  0  0
    6.4209  -12.8710   25.3669 C   0  0  0  0  0  0  0  0  0  0  0  0
    5.7373  -11.9465   26.1137 C   0  0  0  0  0  0  0  0  0  0  0  0
    8.4606  -15.9610   22.2536 N   0  0  0  0  0  0  0  0  0  0  0  0
    8.9582  -16.8880   21.2167 C   0  0  1  0  0  0  0  0  0  0  0  0
    8.4278  -16.3890   19.9036 C   0  0  0  0  0  0  0  0  0  0  0  0
    8.9978  -17.0814   18.7027 C   0  0  0  0  0  0  0  0  0  0  0  0
    8.2240  -18.2714   18.3340 C   0  0  0  0  0  0  0  0  0  0  0  0
    7.5204  -18.3711   17.3047 O   0  0  0  0  0  0  0  0  0  0  0  0
   10.4330  -16.7722   21.2173 C   0  0  0  0  0  0  0  0  0  0  0  0
   11.1669  -17.3680   20.3653 O   0  0  0  0  0  0  0  0  0  0  0  0
    8.2826  -19.3781   19.2077 O   0  0  0  0  0  0  0  0  0  0  0  0
   11.0855  -15.9756   22.1902 N   0  0  0  0  0  0  0  0  0  0  0  0
   12.5264  -15.8492   22.2381 C   0  0  0  0  0  0  0  0  0  0  0  0
   13.0585  -16.3699   23.5171 C   0  0  0  0  0  0  0  0  0  0  0  0
   12.3902  -17.1869   24.2150 O   0  0  0  0  0  0  0  0  0  0  0  0
   14.2970  -16.0052   24.0239 O   0  0  0  0  0  0  0  0  0  0  0  0
  2  3  2  0
  2  1  1  0
  4  3  1  0
  5  4  2  0
  6  5  1  0
  7  6  1  0
  7  9  1  0
  7  8  1  1
  9 13  1  0
  9 10  2  0
 11  5  1  0
 11 12  2  0
 12  2  1  0
 13 14  1  0
 14 15  1  6
 15 16  1  0
 16 17  1  0
 17 21  1  0
 18 17  2  0
 19 22  1  0
 19 14  1  0
 20 19  2  0
 23 22  1  0
 24 26  1  0
 24 23  1  0
 25 24  2  0
M  END
$$$$
