YEG.pdb
     RDKit          3D

 26 26  0  0  1  0  0  0  0  0999 V2000
    4.9548  -10.3777   26.5991 O   0  0  0  0  0  0  0  0  0  0  0  0
    5.7748  -11.4731   26.3800 C   0  0  0  0  0  0  0  0  0  0  0  0
    6.8484  -11.3710   25.5098 C   0  0  0  0  0  0  0  0  0  0  0  0
    7.6804  -12.4226   25.2648 C   0  0  0  0  0  0  0  0  0  0  0  0
    7.4884  -13.6535   25.8809 C   0  0  0  0  0  0  0  0  0  0  0  0
    8.3821  -14.7967   25.6237 C   0  0  0  0  0  0  0  0  0  0  0  0
    7.7811  -15.8147   24.6815 C   0  0  2  0  0  0  0  0  0  0  0  0
    6.8335  -16.6490   25.3850 N   0  0  0  0  0  0  0  0  0  0  0  0
    8.8171  -16.6770   24.0685 C   0  0  0  0  0  0  0  0  0  0  0  0
    9.2728  -17.6740   24.7179 O   0  0  0  0  0  0  0  0  0  0  0  0
    6.4153  -13.7504   26.7488 C   0  0  0  0  0  0  0  0  0  0  0  0
    5.5772  -12.6940   26.9967 C   0  0  0  0  0  0  0  0  0  0  0  0
    9.3074  -16.4031   22.7634 N   0  0  0  0  0  0  0  0  0  0  0  0
   10.4926  -17.1310   22.2659 C   0  0  1  0  0  0  0  0  0  0  0  0
   10.3970  -17.1347   20.7674 C   0  0  0  0  0  0  0  0  0  0  0  0
    9.3945  -18.1017   20.2137 C   0  0  0  0  0  0  0  0  0  0  0  0
    9.3727  -18.0932   18.7474 C   0  0  0  0  0  0  0  0  0  0  0  0
   10.3893  -18.0271   18.0217 O   0  0  0  0  0  0  0  0  0  0  0  0
   11.6760  -16.3420   22.6723 C   0  0  0  0  0  0  0  0  0  0  0  0
   11.6438  -15.0763   22.8015 O   0  0  0  0  0  0  0  0  0  0  0  0
    8.1115  -18.1651   18.1181 O   0  0  0  0  0  0  0  0  0  0  0  0
   12.9086  -16.9890   22.9352 N   0  0  0  0  0  0  0  0  0  0  0  0
   14.0946  -16.2542   23.3197 C   0  0  0  0  0  0  0  0  0  0  0  0
   15.2403  -17.1699   23.5181 C   0  0  0  0  0  0  0  0  0  0  0  0
   15.0994  -18.4221   23.4030 O   0  0  0  0  0  0  0  0  0  0  0  0
   16.5152  -16.7260   23.8359 O   0  0  0  0  0  0  0  0  0  0  0  0
  2  3  2  0
  2  1  1  0
  4  3  1  0
  5  4  2  0
  6  5  1  0
  7  6  1  0
  7  9  1  0
  7  8  1  1
  9 13  1  0
  9 10  2  0
 11  5  1  0
 11 12  2  0
 12  2  1  0
 13 14  1  0
 14 15  1  6
 15 16  1  0
 16 17  1  0
 17 21  1  0
 18 17  2  0
 19 22  1  0
 19 14  1  0
 20 19  2  0
 23 22  1  0
 24 26  1  0
 24 23  1  0
 25 24  2  0
M  END
$$$$
