YEG.pdb
     RDKit          3D

 26 26  0  0  1  0  0  0  0  0999 V2000
    9.9780  -14.9490   31.1868 O   0  0  0  0  0  0  0  0  0  0  0  0
   10.2816  -14.9837   29.8351 C   0  0  0  0  0  0  0  0  0  0  0  0
    9.4668  -15.6850   28.9607 C   0  0  0  0  0  0  0  0  0  0  0  0
    9.7276  -15.7458   27.6240 C   0  0  0  0  0  0  0  0  0  0  0  0
   10.8300  -15.1028   27.0739 C   0  0  0  0  0  0  0  0  0  0  0  0
   11.1209  -15.1615   25.6303 C   0  0  0  0  0  0  0  0  0  0  0  0
   11.3713  -16.5680   25.1360 C   0  0  2  0  0  0  0  0  0  0  0  0
   12.1290  -17.3145   26.1145 N   0  0  0  0  0  0  0  0  0  0  0  0
   12.1064  -16.5775   23.8507 C   0  0  0  0  0  0  0  0  0  0  0  0
   13.3369  -16.2479   23.8256 O   0  0  0  0  0  0  0  0  0  0  0  0
   11.6404  -14.4040   27.9510 C   0  0  0  0  0  0  0  0  0  0  0  0
   11.3800  -14.3415   29.2956 C   0  0  0  0  0  0  0  0  0  0  0  0
   11.4527  -16.9504   22.6456 N   0  0  0  0  0  0  0  0  0  0  0  0
   12.2202  -16.9841   21.3840 C   0  0  1  0  0  0  0  0  0  0  0  0
   11.6958  -18.1474   20.5927 C   0  0  0  0  0  0  0  0  0  0  0  0
   12.1509  -19.4874   21.0868 C   0  0  0  0  0  0  0  0  0  0  0  0
   11.1225  -20.5179   20.9102 C   0  0  0  0  0  0  0  0  0  0  0  0
   10.0522  -20.5720   21.5551 O   0  0  0  0  0  0  0  0  0  0  0  0
   11.9076  -15.7302   20.6641 C   0  0  0  0  0  0  0  0  0  0  0  0
   10.9099  -14.9991   20.9637 O   0  0  0  0  0  0  0  0  0  0  0  0
   11.3653  -21.5157   19.9422 O   0  0  0  0  0  0  0  0  0  0  0  0
   12.7300  -15.2977   19.5947 N   0  0  0  0  0  0  0  0  0  0  0  0
   12.5109  -14.0366   18.9193 C   0  0  0  0  0  0  0  0  0  0  0  0
   13.5238  -13.8227   17.8618 C   0  0  0  0  0  0  0  0  0  0  0  0
   14.5924  -14.5000   17.8381 O   0  0  0  0  0  0  0  0  0  0  0  0
   13.3722  -12.8868   16.8494 O   0  0  0  0  0  0  0  0  0  0  0  0
  2  3  2  0
  2  1  1  0
  4  3  1  0
  5  4  2  0
  6  5  1  0
  7  6  1  0
  7  9  1  0
  7  8  1  1
  9 13  1  0
  9 10  2  0
 11  5  1  0
 11 12  2  0
 12  2  1  0
 13 14  1  0
 14 15  1  6
 15 16  1  0
 16 17  1  0
 17 21  1  0
 18 17  2  0
 19 22  1  0
 19 14  1  0
 20 19  2  0
 23 22  1  0
 24 26  1  0
 24 23  1  0
 25 24  2  0
M  END
$$$$
