YEG.pdb
     RDKit          3D

 26 26  0  0  1  0  0  0  0  0999 V2000
    6.4685  -11.7698   19.0453 O   0  0  0  0  0  0  0  0  0  0  0  0
    7.4697  -12.6311   19.4648 C   0  0  0  0  0  0  0  0  0  0  0  0
    7.1401  -13.8247   20.0869 C   0  0  0  0  0  0  0  0  0  0  0  0
    8.0922  -14.7012   20.5154 C   0  0  0  0  0  0  0  0  0  0  0  0
    9.4458  -14.4357   20.3468 C   0  0  0  0  0  0  0  0  0  0  0  0
   10.4832  -15.3765   20.8057 C   0  0  0  0  0  0  0  0  0  0  0  0
   11.2262  -16.0366   19.6667 C   0  0  2  0  0  0  0  0  0  0  0  0
   10.2983  -16.7165   18.7917 N   0  0  0  0  0  0  0  0  0  0  0  0
   12.2283  -17.0116   20.1543 C   0  0  0  0  0  0  0  0  0  0  0  0
   11.9657  -18.2579   20.1167 O   0  0  0  0  0  0  0  0  0  0  0  0
    9.7698  -13.2428   19.7252 C   0  0  0  0  0  0  0  0  0  0  0  0
    8.8140  -12.3598   19.2934 C   0  0  0  0  0  0  0  0  0  0  0  0
   13.4792  -16.5706   20.6634 N   0  0  0  0  0  0  0  0  0  0  0  0
   14.5488  -17.5578   20.9156 C   0  0  1  0  0  0  0  0  0  0  0  0
   15.0024  -18.0527   19.5726 C   0  0  0  0  0  0  0  0  0  0  0  0
   14.9259  -17.0310   18.4784 C   0  0  0  0  0  0  0  0  0  0  0  0
   15.3605  -17.5733   17.1870 C   0  0  0  0  0  0  0  0  0  0  0  0
   14.5904  -18.0177   16.3073 O   0  0  0  0  0  0  0  0  0  0  0  0
   15.6596  -16.8237   21.5602 C   0  0  0  0  0  0  0  0  0  0  0  0
   16.7888  -17.3607   21.7972 O   0  0  0  0  0  0  0  0  0  0  0  0
   16.7472  -17.5918   16.9261 O   0  0  0  0  0  0  0  0  0  0  0  0
   15.4932  -15.4695   21.9414 N   0  0  0  0  0  0  0  0  0  0  0  0
   15.4690  -15.0601   23.3294 C   0  0  0  0  0  0  0  0  0  0  0  0
   16.5632  -15.7060   24.0881 C   0  0  0  0  0  0  0  0  0  0  0  0
   17.6942  -15.1495   24.1994 O   0  0  0  0  0  0  0  0  0  0  0  0
   16.4246  -16.9362   24.7134 O   0  0  0  0  0  0  0  0  0  0  0  0
  2  3  2  0
  2  1  1  0
  4  3  1  0
  5  4  2  0
  6  5  1  0
  7  6  1  0
  7  9  1  0
  7  8  1  6
  9 13  1  0
  9 10  2  0
 11  5  1  0
 11 12  2  0
 12  2  1  0
 13 14  1  0
 14 15  1  6
 15 16  1  0
 16 17  1  0
 17 21  1  0
 18 17  2  0
 19 22  1  0
 19 14  1  0
 20 19  2  0
 23 22  1  0
 24 26  1  0
 24 23  1  0
 25 24  2  0
M  END
$$$$
