YEG.pdb
     RDKit          3D

 26 26  0  0  1  0  0  0  0  0999 V2000
   11.6258  -21.0358   37.8637 O   0  0  0  0  0  0  0  0  0  0  0  0
   12.5155  -21.0664   36.8017 C   0  0  0  0  0  0  0  0  0  0  0  0
   13.3257  -22.1742   36.6093 C   0  0  0  0  0  0  0  0  0  0  0  0
   14.2147  -22.2468   35.5785 C   0  0  0  0  0  0  0  0  0  0  0  0
   14.3499  -21.2061   34.6674 C   0  0  0  0  0  0  0  0  0  0  0  0
   15.3073  -21.2745   33.5492 C   0  0  0  0  0  0  0  0  0  0  0  0
   14.6959  -21.8284   32.2824 C   0  0  2  0  0  0  0  0  0  0  0  0
   14.2411  -23.1833   32.4976 N   0  0  0  0  0  0  0  0  0  0  0  0
   15.6575  -21.8180   31.1564 C   0  0  0  0  0  0  0  0  0  0  0  0
   16.0803  -22.9207   30.6781 O   0  0  0  0  0  0  0  0  0  0  0  0
   13.5389  -20.1024   34.8637 C   0  0  0  0  0  0  0  0  0  0  0  0
   12.6441  -20.0272   35.8998 C   0  0  0  0  0  0  0  0  0  0  0  0
   16.1128  -20.5905   30.6046 N   0  0  0  0  0  0  0  0  0  0  0  0
   16.9956  -20.6102   29.4205 C   0  0  1  0  0  0  0  0  0  0  0  0
   16.3257  -19.7712   28.3708 C   0  0  0  0  0  0  0  0  0  0  0  0
   15.8973  -20.5309   27.1517 C   0  0  0  0  0  0  0  0  0  0  0  0
   14.5263  -20.1998   26.7499 C   0  0  0  0  0  0  0  0  0  0  0  0
   13.8358  -20.8750   25.9552 O   0  0  0  0  0  0  0  0  0  0  0  0
   18.2609  -19.9590   29.8242 C   0  0  0  0  0  0  0  0  0  0  0  0
   18.3258  -19.1236   30.7821 O   0  0  0  0  0  0  0  0  0  0  0  0
   13.9528  -19.0352   27.3033 O   0  0  0  0  0  0  0  0  0  0  0  0
   19.4652  -20.2540   29.1390 N   0  0  0  0  0  0  0  0  0  0  0  0
   20.2606  -21.4217   29.4524 C   0  0  0  0  0  0  0  0  0  0  0  0
   20.6639  -21.4176   30.8763 C   0  0  0  0  0  0  0  0  0  0  0  0
   19.8910  -21.8656   31.7725 O   0  0  0  0  0  0  0  0  0  0  0  0
   21.8880  -20.9332   31.3128 O   0  0  0  0  0  0  0  0  0  0  0  0
  2  3  2  0
  2  1  1  0
  4  3  1  0
  5  4  2  0
  6  5  1  0
  7  6  1  0
  7  9  1  0
  7  8  1  1
  9 13  1  0
  9 10  2  0
 11  5  1  0
 11 12  2  0
 12  2  1  0
 13 14  1  0
 14 15  1  6
 15 16  1  0
 16 17  1  0
 17 21  1  0
 18 17  2  0
 19 22  1  0
 19 14  1  0
 20 19  2  0
 23 22  1  0
 24 26  1  0
 24 23  1  0
 25 24  2  0
M  END
$$$$
