YEG.pdb
     RDKit          3D

 26 26  0  0  1  0  0  0  0  0999 V2000
    6.1536  -12.5182   19.3292 O   0  0  0  0  0  0  0  0  0  0  0  0
    7.4311  -12.9502   19.6482 C   0  0  0  0  0  0  0  0  0  0  0  0
    7.6140  -13.8886   20.6513 C   0  0  0  0  0  0  0  0  0  0  0  0
    8.8522  -14.3415   20.9978 C   0  0  0  0  0  0  0  0  0  0  0  0
    9.9952  -13.8794   20.3563 C   0  0  0  0  0  0  0  0  0  0  0  0
   11.3384  -14.3627   20.7225 C   0  0  0  0  0  0  0  0  0  0  0  0
   11.9281  -15.3010   19.6944 C   0  0  2  0  0  0  0  0  0  0  0  0
   11.0591  -16.4393   19.4994 N   0  0  0  0  0  0  0  0  0  0  0  0
   13.2694  -15.7841   20.0946 C   0  0  0  0  0  0  0  0  0  0  0  0
   13.3726  -16.8112   20.8416 O   0  0  0  0  0  0  0  0  0  0  0  0
    9.8074  -12.9427   19.3555 C   0  0  0  0  0  0  0  0  0  0  0  0
    8.5630  -12.4858   19.0054 C   0  0  0  0  0  0  0  0  0  0  0  0
   14.4417  -15.1134   19.6538 N   0  0  0  0  0  0  0  0  0  0  0  0
   15.7673  -15.6633   20.0035 C   0  0  1  0  0  0  0  0  0  0  0  0
   16.7337  -15.1386   18.9810 C   0  0  0  0  0  0  0  0  0  0  0  0
   16.4281  -15.5498   17.5724 C   0  0  0  0  0  0  0  0  0  0  0  0
   17.2716  -14.8490   16.5987 C   0  0  0  0  0  0  0  0  0  0  0  0
   16.8485  -14.2950   15.5602 O   0  0  0  0  0  0  0  0  0  0  0  0
   16.1194  -15.1099   21.3294 C   0  0  0  0  0  0  0  0  0  0  0  0
   16.6280  -13.9525   21.4752 O   0  0  0  0  0  0  0  0  0  0  0  0
   18.6578  -14.8006   16.8591 O   0  0  0  0  0  0  0  0  0  0  0  0
   15.8950  -15.8716   22.5026 N   0  0  0  0  0  0  0  0  0  0  0  0
   16.9100  -16.7398   23.0599 C   0  0  0  0  0  0  0  0  0  0  0  0
   17.9485  -15.9530   23.7618 C   0  0  0  0  0  0  0  0  0  0  0  0
   18.9879  -15.5611   23.1558 O   0  0  0  0  0  0  0  0  0  0  0  0
   17.8534  -15.6012   25.1000 O   0  0  0  0  0  0  0  0  0  0  0  0
  2  3  2  0
  2  1  1  0
  4  3  1  0
  5  4  2  0
  6  5  1  0
  7  6  1  0
  7  9  1  0
  7  8  1  1
  9 13  1  0
  9 10  2  0
 11  5  1  0
 11 12  2  0
 12  2  1  0
 13 14  1  0
 14 15  1  6
 15 16  1  0
 16 17  1  0
 17 21  1  0
 18 17  2  0
 19 22  1  0
 19 14  1  0
 20 19  2  0
 23 22  1  0
 24 26  1  0
 24 23  1  0
 25 24  2  0
M  END
$$$$
