YEG.pdb
     RDKit          3D

 26 26  0  0  1  0  0  0  0  0999 V2000
    5.4997   -9.8768   26.4508 O   0  0  0  0  0  0  0  0  0  0  0  0
    6.0995  -11.1185   26.3136 C   0  0  0  0  0  0  0  0  0  0  0  0
    7.4443  -11.2056   25.9905 C   0  0  0  0  0  0  0  0  0  0  0  0
    8.0747  -12.4056   25.8457 C   0  0  0  0  0  0  0  0  0  0  0  0
    7.3926  -13.6043   26.0168 C   0  0  0  0  0  0  0  0  0  0  0  0
    8.0645  -14.9070   25.8632 C   0  0  0  0  0  0  0  0  0  0  0  0
    7.6792  -15.6226   24.5886 C   0  0  2  0  0  0  0  0  0  0  0  0
    6.3584  -16.1955   24.7163 N   0  0  0  0  0  0  0  0  0  0  0  0
    8.6382  -16.6985   24.2494 C   0  0  0  0  0  0  0  0  0  0  0  0
    8.4758  -17.8646   24.7365 O   0  0  0  0  0  0  0  0  0  0  0  0
    6.0503  -13.5121   26.3393 C   0  0  0  0  0  0  0  0  0  0  0  0
    5.4143  -12.3063   26.4854 C   0  0  0  0  0  0  0  0  0  0  0  0
    9.7374  -16.4428   23.3863 N   0  0  0  0  0  0  0  0  0  0  0  0
   10.7918  -17.4657   23.2313 C   0  0  1  0  0  0  0  0  0  0  0  0
   11.7483  -16.9441   22.1981 C   0  0  0  0  0  0  0  0  0  0  0  0
   12.9233  -17.8370   21.9357 C   0  0  0  0  0  0  0  0  0  0  0  0
   13.8139  -17.2877   20.9082 C   0  0  0  0  0  0  0  0  0  0  0  0
   15.0486  -17.1403   21.0427 O   0  0  0  0  0  0  0  0  0  0  0  0
   11.4890  -17.5562   24.5328 C   0  0  0  0  0  0  0  0  0  0  0  0
   11.8830  -16.5283   25.1715 O   0  0  0  0  0  0  0  0  0  0  0  0
   13.2287  -16.9004   19.6839 O   0  0  0  0  0  0  0  0  0  0  0  0
   11.7442  -18.8205   25.1188 N   0  0  0  0  0  0  0  0  0  0  0  0
   12.4190  -18.9542   26.3921 C   0  0  0  0  0  0  0  0  0  0  0  0
   12.5799  -20.3798   26.7557 C   0  0  0  0  0  0  0  0  0  0  0  0
   12.1011  -21.2953   26.0251 O   0  0  0  0  0  0  0  0  0  0  0  0
   13.2509  -20.7971   27.8956 O   0  0  0  0  0  0  0  0  0  0  0  0
  2  3  2  0
  2  1  1  0
  4  3  1  0
  5  4  2  0
  6  5  1  0
  7  6  1  0
  7  9  1  0
  7  8  1  1
  9 13  1  0
  9 10  2  0
 11  5  1  0
 11 12  2  0
 12  2  1  0
 13 14  1  0
 14 15  1  6
 15 16  1  0
 16 17  1  0
 17 21  1  0
 18 17  2  0
 19 22  1  0
 19 14  1  0
 20 19  2  0
 23 22  1  0
 24 26  1  0
 24 23  1  0
 25 24  2  0
M  END
$$$$
