YEG.pdb
     RDKit          3D

 26 26  0  0  1  0  0  0  0  0999 V2000
    5.1393  -10.2112   26.2743 O   0  0  0  0  0  0  0  0  0  0  0  0
    5.8743  -11.3793   26.1497 C   0  0  0  0  0  0  0  0  0  0  0  0
    5.6349  -12.4423   27.0059 C   0  0  0  0  0  0  0  0  0  0  0  0
    6.3339  -13.6094   26.9192 C   0  0  0  0  0  0  0  0  0  0  0  0
    7.3250  -13.7875   25.9614 C   0  0  0  0  0  0  0  0  0  0  0  0
    8.0863  -15.0453   25.8585 C   0  0  0  0  0  0  0  0  0  0  0  0
    7.4868  -16.0180   24.8687 C   0  0  2  0  0  0  0  0  0  0  0  0
    6.2621  -16.5762   25.3953 N   0  0  0  0  0  0  0  0  0  0  0  0
    8.4191  -17.1229   24.5486 C   0  0  0  0  0  0  0  0  0  0  0  0
    8.4112  -18.1805   25.2592 O   0  0  0  0  0  0  0  0  0  0  0  0
    7.5603  -12.7235   25.1089 C   0  0  0  0  0  0  0  0  0  0  0  0
    6.8585  -11.5487   25.1944 C   0  0  0  0  0  0  0  0  0  0  0  0
    9.3220  -17.0149   23.4570 N   0  0  0  0  0  0  0  0  0  0  0  0
   10.4427  -17.9707   23.3447 C   0  0  1  0  0  0  0  0  0  0  0  0
   11.2282  -17.5712   22.1290 C   0  0  0  0  0  0  0  0  0  0  0  0
   12.4238  -18.4324   21.8543 C   0  0  0  0  0  0  0  0  0  0  0  0
   13.0573  -18.1030   20.5734 C   0  0  0  0  0  0  0  0  0  0  0  0
   13.0579  -16.9660   20.0522 O   0  0  0  0  0  0  0  0  0  0  0  0
   11.2835  -17.7810   24.5469 C   0  0  0  0  0  0  0  0  0  0  0  0
   11.8700  -16.6816   24.8058 O   0  0  0  0  0  0  0  0  0  0  0  0
   13.7105  -19.1485   19.8862 O   0  0  0  0  0  0  0  0  0  0  0  0
   11.4642  -18.8439   25.4658 N   0  0  0  0  0  0  0  0  0  0  0  0
   12.3141  -18.7159   26.6302 C   0  0  0  0  0  0  0  0  0  0  0  0
   12.2683  -19.9449   27.4534 C   0  0  0  0  0  0  0  0  0  0  0  0
   12.9910  -20.0638   28.4853 O   0  0  0  0  0  0  0  0  0  0  0  0
   11.4486  -21.0232   27.1551 O   0  0  0  0  0  0  0  0  0  0  0  0
  2  3  2  0
  2  1  1  0
  4  3  1  0
  5  4  2  0
  6  5  1  0
  7  6  1  0
  7  9  1  0
  7  8  1  1
  9 13  1  0
  9 10  2  0
 11  5  1  0
 11 12  2  0
 12  2  1  0
 13 14  1  0
 14 15  1  6
 15 16  1  0
 16 17  1  0
 17 21  1  0
 18 17  2  0
 19 22  1  0
 19 14  1  0
 20 19  2  0
 23 22  1  0
 24 26  1  0
 24 23  1  0
 25 24  2  0
M  END
$$$$
