LNK.pdb
     RDKit          3D

 26 25  0  0  1  0  0  0  0  0999 V2000
    7.9711  -11.9299   19.3379 C   0  0  0  0  0  0  0  0  0  0  0  0
    8.2577  -13.1195   20.2294 C   0  0  1  0  0  0  0  0  0  0  0  0
    7.7084  -12.8389   21.5822 C   0  0  0  0  0  0  0  0  0  0  0  0
    7.8086  -14.3917   19.6027 C   0  0  0  0  0  0  0  0  0  0  0  0
    8.0329  -15.6240   20.3894 C   0  0  2  0  0  0  0  0  0  0  0  0
    7.6965  -15.5482   21.7780 N   0  0  0  0  0  0  0  0  0  0  0  0
    9.4875  -15.9601   20.3216 C   0  0  0  0  0  0  0  0  0  0  0  0
    9.8327  -16.7810   19.4348 O   0  0  0  0  0  0  0  0  0  0  0  0
   13.9202  -15.0662   18.5559 N   0  0  0  0  0  0  0  0  0  0  0  0
   12.7952  -14.4993   19.2467 C   0  0  0  0  0  0  0  0  0  0  0  0
   11.9362  -13.9375   18.5497 O   0  0  0  0  0  0  0  0  0  0  0  0
   12.6950  -14.5951   20.7023 C   0  0  0  0  0  0  0  0  0  0  0  0
   11.8890  -15.7718   21.1203 C   0  0  2  0  0  0  0  0  0  0  0  0
   10.4497  -15.4195   21.1741 N   0  0  0  0  0  0  0  0  0  0  0  0
   12.2354  -16.0857   22.5614 C   0  0  0  0  0  0  0  0  0  0  0  0
   13.4215  -16.1870   22.8938 O   0  0  0  0  0  0  0  0  0  0  0  0
   11.2336  -16.2710   23.5562 N   0  0  0  0  0  0  0  0  0  0  0  0
   11.5966  -16.4231   24.9747 C   0  0  1  0  0  0  0  0  0  0  0  0
   10.7417  -15.5611   25.8312 C   0  0  0  0  0  0  0  0  0  0  0  0
   11.0849  -15.7204   27.2842 C   0  0  0  0  0  0  0  0  0  0  0  0
   10.1438  -14.8895   28.1591 C   0  0  0  0  0  0  0  0  0  0  0  0
   10.4989  -14.9757   29.6177 C   0  0  0  0  0  0  0  0  0  0  0  0
    9.6612  -14.1069   30.4273 N   0  0  0  0  0  0  0  0  0  0  0  0
   11.5051  -17.8467   25.3600 C   0  0  0  0  0  0  0  0  0  0  0  0
   12.2675  -18.4766   26.3198 O   0  0  0  0  0  0  0  0  0  0  0  0
   10.6525  -18.6013   24.7693 O   0  0  0  0  0  0  0  0  0  0  0  0
  2  1  1  6
  2  4  1  0
  3  2  1  0
  4  5  1  0
  5  6  1  1
  7  5  1  0
  7  8  2  0
  9 10  1  0
 10 11  2  0
 10 12  1  0
 13 12  1  1
 13 14  1  0
 13 15  1  0
 14  7  1  0
 15 17  1  0
 16 15  2  0
 17 18  1  0
 18 24  1  0
 18 19  1  1
 20 19  1  0
 21 20  1  0
 22 21  1  0
 23 22  1  0
 24 26  2  0
 24 25  1  0
M  END
$$$$
