LNK.pdb
     RDKit          3D

 26 25  0  0  1  0  0  0  0  0999 V2000
    7.2244  -12.1397   19.7834 C   0  0  0  0  0  0  0  0  0  0  0  0
    8.1467  -13.1838   19.1909 C   0  0  1  0  0  0  0  0  0  0  0  0
    9.5272  -12.6325   19.1618 C   0  0  0  0  0  0  0  0  0  0  0  0
    7.9918  -14.4977   19.8713 C   0  0  0  0  0  0  0  0  0  0  0  0
    9.0266  -15.5130   19.5779 C   0  0  2  0  0  0  0  0  0  0  0  0
    8.7286  -16.4180   18.5106 N   0  0  0  0  0  0  0  0  0  0  0  0
    9.2188  -16.3477   20.8026 C   0  0  0  0  0  0  0  0  0  0  0  0
    8.1880  -16.8790   21.2868 O   0  0  0  0  0  0  0  0  0  0  0  0
   13.2331  -18.9916   20.8179 N   0  0  0  0  0  0  0  0  0  0  0  0
   12.1906  -19.0173   21.8061 C   0  0  0  0  0  0  0  0  0  0  0  0
   11.4676  -20.0253   21.8301 O   0  0  0  0  0  0  0  0  0  0  0  0
   12.0142  -17.8944   22.7258 C   0  0  0  0  0  0  0  0  0  0  0  0
   10.6363  -17.3414   22.6584 C   0  0  2  0  0  0  0  0  0  0  0  0
   10.4549  -16.5562   21.4138 N   0  0  0  0  0  0  0  0  0  0  0  0
   10.4943  -16.3087   23.7578 C   0  0  0  0  0  0  0  0  0  0  0  0
   11.2577  -15.3369   23.7820 O   0  0  0  0  0  0  0  0  0  0  0  0
    9.5038  -16.4192   24.7748 N   0  0  0  0  0  0  0  0  0  0  0  0
    9.3340  -15.3592   25.7822 C   0  0  1  0  0  0  0  0  0  0  0  0
    8.0132  -14.6963   25.6299 C   0  0  0  0  0  0  0  0  0  0  0  0
    7.8463  -13.5751   26.6144 C   0  0  0  0  0  0  0  0  0  0  0  0
    6.4610  -12.9384   26.4832 C   0  0  0  0  0  0  0  0  0  0  0  0
    6.3094  -11.7217   27.3538 C   0  0  0  0  0  0  0  0  0  0  0  0
    4.9689  -11.1663   27.2728 N   0  0  0  0  0  0  0  0  0  0  0  0
    9.5130  -15.9273   27.1346 C   0  0  0  0  0  0  0  0  0  0  0  0
    9.9230  -15.2375   28.2550 O   0  0  0  0  0  0  0  0  0  0  0  0
    9.2784  -17.1737   27.3257 O   0  0  0  0  0  0  0  0  0  0  0  0
  2  1  1  1
  2  4  1  0
  3  2  1  0
  4  5  1  0
  5  6  1  6
  7  5  1  0
  7  8  2  0
  9 10  1  0
 10 11  2  0
 10 12  1  0
 13 12  1  6
 13 14  1  0
 13 15  1  0
 14  7  1  0
 15 17  1  0
 16 15  2  0
 17 18  1  0
 18 24  1  0
 18 19  1  1
 20 19  1  0
 21 20  1  0
 22 21  1  0
 23 22  1  0
 24 26  2  0
 24 25  1  0
M  END
$$$$
