LNK.pdb
     RDKit          3D

 26 25  0  0  1  0  0  0  0  0999 V2000
    7.4239  -12.3202   20.7954 C   0  0  0  0  0  0  0  0  0  0  0  0
    8.0313  -13.1828   19.7096 C   0  0  1  0  0  0  0  0  0  0  0  0
    9.0035  -12.3606   18.9419 C   0  0  0  0  0  0  0  0  0  0  0  0
    8.5602  -14.4599   20.2595 C   0  0  0  0  0  0  0  0  0  0  0  0
    9.2689  -15.3400   19.3051 C   0  0  2  0  0  0  0  0  0  0  0  0
    8.4481  -16.0004   18.3370 N   0  0  0  0  0  0  0  0  0  0  0  0
    9.9549  -16.4143   20.0853 C   0  0  0  0  0  0  0  0  0  0  0  0
    9.2250  -17.3309   20.5396 O   0  0  0  0  0  0  0  0  0  0  0  0
   12.9940  -20.0406   19.5150 N   0  0  0  0  0  0  0  0  0  0  0  0
   13.2486  -18.6317   19.3955 C   0  0  0  0  0  0  0  0  0  0  0  0
   13.3813  -18.1828   18.2465 O   0  0  0  0  0  0  0  0  0  0  0  0
   13.3419  -17.7922   20.5891 C   0  0  0  0  0  0  0  0  0  0  0  0
   11.9999  -17.4792   21.1458 C   0  0  2  0  0  0  0  0  0  0  0  0
   11.3286  -16.4431   20.3247 N   0  0  0  0  0  0  0  0  0  0  0  0
   12.1980  -16.8016   22.4862 C   0  0  0  0  0  0  0  0  0  0  0  0
   12.8372  -15.7454   22.5456 O   0  0  0  0  0  0  0  0  0  0  0  0
   11.6697  -17.3438   23.6924 N   0  0  0  0  0  0  0  0  0  0  0  0
   11.8732  -16.6607   24.9805 C   0  0  1  0  0  0  0  0  0  0  0  0
   10.5837  -16.1523   25.5151 C   0  0  0  0  0  0  0  0  0  0  0  0
   10.7825  -15.3933   26.7952 C   0  0  0  0  0  0  0  0  0  0  0  0
    9.4502  -14.8529   27.3191 C   0  0  0  0  0  0  0  0  0  0  0  0
    9.6235  -14.0110   28.5528 C   0  0  0  0  0  0  0  0  0  0  0  0
    8.3806  -13.3672   28.9436 N   0  0  0  0  0  0  0  0  0  0  0  0
   12.5397  -17.5778   25.9282 C   0  0  0  0  0  0  0  0  0  0  0  0
   12.7142  -18.9340   25.7559 O   0  0  0  0  0  0  0  0  0  0  0  0
   13.0107  -17.1097   27.0256 O   0  0  0  0  0  0  0  0  0  0  0  0
  2  1  1  1
  2  4  1  0
  3  2  1  0
  4  5  1  0
  5  6  1  6
  7  5  1  0
  7  8  2  0
  9 10  1  0
 10 11  2  0
 10 12  1  0
 13 12  1  6
 13 14  1  0
 13 15  1  0
 14  7  1  0
 15 17  1  0
 16 15  2  0
 17 18  1  0
 18 24  1  0
 18 19  1  1
 20 19  1  0
 21 20  1  0
 22 21  1  0
 23 22  1  0
 24 26  2  0
 24 25  1  0
M  END
$$$$
