LNK.pdb
     RDKit          3D

 26 25  0  0  1  0  0  0  0  0999 V2000
    4.9034  -11.5930   26.4849 C   0  0  0  0  0  0  0  0  0  0  0  0
    6.3297  -11.8039   26.0232 C   0  0  1  0  0  0  0  0  0  0  0  0
    7.2378  -11.0739   26.9468 C   0  0  0  0  0  0  0  0  0  0  0  0
    6.6325  -13.2473   25.8290 C   0  0  0  0  0  0  0  0  0  0  0  0
    8.0396  -13.5858   25.5235 C   0  0  2  0  0  0  0  0  0  0  0  0
    8.8231  -12.5368   24.9466 N   0  0  0  0  0  0  0  0  0  0  0  0
    8.0436  -14.7106   24.5394 C   0  0  0  0  0  0  0  0  0  0  0  0
    7.2818  -15.6781   24.7902 O   0  0  0  0  0  0  0  0  0  0  0  0
    7.5908  -13.5050   20.0836 N   0  0  0  0  0  0  0  0  0  0  0  0
    7.6293  -14.8111   20.6809 C   0  0  0  0  0  0  0  0  0  0  0  0
    6.5397  -15.3771   20.8587 O   0  0  0  0  0  0  0  0  0  0  0  0
    8.9068  -15.4186   21.0512 C   0  0  0  0  0  0  0  0  0  0  0  0
    8.9029  -15.8874   22.4615 C   0  0  2  0  0  0  0  0  0  0  0  0
    8.8326  -14.7332   23.3896 N   0  0  0  0  0  0  0  0  0  0  0  0
   10.2576  -16.4996   22.7528 C   0  0  0  0  0  0  0  0  0  0  0  0
   11.2804  -15.9328   22.3522 O   0  0  0  0  0  0  0  0  0  0  0  0
   10.3964  -17.7173   23.4779 N   0  0  0  0  0  0  0  0  0  0  0  0
   11.7258  -18.2917   23.7424 C   0  0  1  0  0  0  0  0  0  0  0  0
   11.7178  -19.0755   25.0045 C   0  0  0  0  0  0  0  0  0  0  0  0
   11.3888  -18.2087   26.1855 C   0  0  0  0  0  0  0  0  0  0  0  0
   11.2698  -19.0482   27.4593 C   0  0  0  0  0  0  0  0  0  0  0  0
   10.9305  -18.2119   28.6621 C   0  0  0  0  0  0  0  0  0  0  0  0
   10.6148  -19.0348   29.8175 N   0  0  0  0  0  0  0  0  0  0  0  0
   12.1508  -19.1103   22.5879 C   0  0  0  0  0  0  0  0  0  0  0  0
   11.3487  -19.9631   21.8607 O   0  0  0  0  0  0  0  0  0  0  0  0
   13.3707  -19.0534   22.1958 O   0  0  0  0  0  0  0  0  0  0  0  0
  2  1  1  1
  2  4  1  0
  3  2  1  0
  4  5  1  0
  5  6  1  6
  7  5  1  0
  7  8  2  0
  9 10  1  0
 10 11  2  0
 10 12  1  0
 13 12  1  6
 13 14  1  0
 13 15  1  0
 14  7  1  0
 15 17  1  0
 16 15  2  0
 17 18  1  0
 18 24  1  0
 18 19  1  1
 20 19  1  0
 21 20  1  0
 22 21  1  0
 23 22  1  0
 24 26  2  0
 24 25  1  0
M  END
$$$$
