LNK.pdb
     RDKit          3D

 26 25  0  0  1  0  0  0  0  0999 V2000
    8.3195  -11.6503   18.7603 C   0  0  0  0  0  0  0  0  0  0  0  0
    8.6742  -12.9735   19.4045 C   0  0  1  0  0  0  0  0  0  0  0  0
    8.0088  -13.0457   20.7322 C   0  0  0  0  0  0  0  0  0  0  0  0
    8.4091  -14.1149   18.4880 C   0  0  0  0  0  0  0  0  0  0  0  0
    8.7885  -15.4554   18.9850 C   0  0  2  0  0  0  0  0  0  0  0  0
    8.2947  -15.8034   20.2820 N   0  0  0  0  0  0  0  0  0  0  0  0
   10.2795  -15.5155   19.0671 C   0  0  0  0  0  0  0  0  0  0  0  0
   10.8962  -15.6499   17.9804 O   0  0  0  0  0  0  0  0  0  0  0  0
   14.2440  -14.3807   17.4120 N   0  0  0  0  0  0  0  0  0  0  0  0
   14.2125  -14.6798   18.8168 C   0  0  0  0  0  0  0  0  0  0  0  0
   15.1994  -15.2677   19.2857 O   0  0  0  0  0  0  0  0  0  0  0  0
   13.0587  -14.2977   19.6296 C   0  0  0  0  0  0  0  0  0  0  0  0
   12.4756  -15.4667   20.3383 C   0  0  2  0  0  0  0  0  0  0  0  0
   10.9953  -15.4321   20.2612 N   0  0  0  0  0  0  0  0  0  0  0  0
   12.7614  -15.3050   21.8173 C   0  0  0  0  0  0  0  0  0  0  0  0
   12.4280  -14.2623   22.3910 O   0  0  0  0  0  0  0  0  0  0  0  0
   13.4077  -16.3210   22.5774 N   0  0  0  0  0  0  0  0  0  0  0  0
   12.8098  -16.8279   23.8235 C   0  0  1  0  0  0  0  0  0  0  0  0
   11.4314  -17.3259   23.5803 C   0  0  0  0  0  0  0  0  0  0  0  0
   10.4087  -16.4608   24.2586 C   0  0  0  0  0  0  0  0  0  0  0  0
    8.9982  -17.0106   24.0361 C   0  0  0  0  0  0  0  0  0  0  0  0
    7.9584  -16.2329   24.7945 C   0  0  0  0  0  0  0  0  0  0  0  0
    6.6254  -16.7738   24.5879 N   0  0  0  0  0  0  0  0  0  0  0  0
   13.6796  -17.8734   24.4013 C   0  0  0  0  0  0  0  0  0  0  0  0
   14.7941  -18.4212   23.8037 O   0  0  0  0  0  0  0  0  0  0  0  0
   13.4058  -18.3436   25.5629 O   0  0  0  0  0  0  0  0  0  0  0  0
  2  1  1  6
  2  4  1  0
  3  2  1  0
  4  5  1  0
  5  6  1  1
  7  5  1  0
  7  8  2  0
  9 10  1  0
 10 11  2  0
 10 12  1  0
 13 12  1  6
 13 14  1  0
 13 15  1  0
 14  7  1  0
 15 17  1  0
 16 15  2  0
 17 18  1  0
 18 24  1  0
 18 19  1  6
 20 19  1  0
 21 20  1  0
 22 21  1  0
 23 22  1  0
 24 26  2  0
 24 25  1  0
M  END
$$$$
