LNK.pdb
     RDKit          3D

 26 25  0  0  1  0  0  0  0  0999 V2000
    7.2290  -12.7239   18.2387 C   0  0  0  0  0  0  0  0  0  0  0  0
    7.6399  -13.9476   19.0297 C   0  0  1  0  0  0  0  0  0  0  0  0
    8.4648  -14.8210   18.1536 C   0  0  0  0  0  0  0  0  0  0  0  0
    8.2560  -13.5744   20.3313 C   0  0  0  0  0  0  0  0  0  0  0  0
    8.5103  -14.6828   21.2771 C   0  0  2  0  0  0  0  0  0  0  0  0
    7.4866  -15.6789   21.3614 N   0  0  0  0  0  0  0  0  0  0  0  0
    8.6524  -14.1015   22.6465 C   0  0  0  0  0  0  0  0  0  0  0  0
    9.5505  -13.2356   22.7979 O   0  0  0  0  0  0  0  0  0  0  0  0
    5.5208  -12.7297   27.6935 N   0  0  0  0  0  0  0  0  0  0  0  0
    6.6302  -12.6773   26.7821 C   0  0  0  0  0  0  0  0  0  0  0  0
    7.6100  -12.0013   27.1319 O   0  0  0  0  0  0  0  0  0  0  0  0
    6.5780  -13.3964   25.5100 C   0  0  0  0  0  0  0  0  0  0  0  0
    7.9308  -13.8196   25.0633 C   0  0  2  0  0  0  0  0  0  0  0  0
    7.8562  -14.4673   23.7316 N   0  0  0  0  0  0  0  0  0  0  0  0
    8.3963  -14.9337   25.9782 C   0  0  0  0  0  0  0  0  0  0  0  0
    8.4102  -14.7514   27.2007 O   0  0  0  0  0  0  0  0  0  0  0  0
    8.8237  -16.1956   25.4754 N   0  0  0  0  0  0  0  0  0  0  0  0
    9.4431  -17.1925   26.3641 C   0  0  1  0  0  0  0  0  0  0  0  0
    9.0911  -18.5703   25.9343 C   0  0  0  0  0  0  0  0  0  0  0  0
    7.7681  -18.9993   26.4999 C   0  0  0  0  0  0  0  0  0  0  0  0
    7.3954  -20.3997   26.0085 C   0  0  0  0  0  0  0  0  0  0  0  0
    6.0840  -20.8707   26.5738 C   0  0  0  0  0  0  0  0  0  0  0  0
    5.7720  -22.2258   26.1515 N   0  0  0  0  0  0  0  0  0  0  0  0
   10.9055  -16.9832   26.4009 C   0  0  0  0  0  0  0  0  0  0  0  0
   11.6201  -16.1178   25.6011 O   0  0  0  0  0  0  0  0  0  0  0  0
   11.6122  -17.6507   27.2377 O   0  0  0  0  0  0  0  0  0  0  0  0
  2  1  1  6
  2  4  1  0
  3  2  1  0
  4  5  1  0
  5  6  1  1
  7  5  1  0
  7  8  2  0
  9 10  1  0
 10 11  2  0
 10 12  1  0
 13 12  1  1
 13 14  1  0
 13 15  1  0
 14  7  1  0
 15 17  1  0
 16 15  2  0
 17 18  1  0
 18 24  1  0
 18 19  1  6
 20 19  1  0
 21 20  1  0
 22 21  1  0
 23 22  1  0
 24 26  2  0
 24 25  1  0
M  END
$$$$
