LNK.pdb
     RDKit          3D

 26 25  0  0  1  0  0  0  0  0999 V2000
    7.9887  -11.9868   25.8416 C   0  0  0  0  0  0  0  0  0  0  0  0
    6.8386  -12.7343   26.4822 C   0  0  1  0  0  0  0  0  0  0  0  0
    6.0230  -11.7668   27.2627 C   0  0  0  0  0  0  0  0  0  0  0  0
    6.0933  -13.5476   25.4841 C   0  0  0  0  0  0  0  0  0  0  0  0
    6.4356  -14.9853   25.4241 C   0  0  2  0  0  0  0  0  0  0  0  0
    7.4133  -15.4342   26.3673 N   0  0  0  0  0  0  0  0  0  0  0  0
    6.9895  -15.2746   24.0665 C   0  0  0  0  0  0  0  0  0  0  0  0
    6.3399  -16.0825   23.3562 O   0  0  0  0  0  0  0  0  0  0  0  0
    7.3819  -12.9942   19.5410 N   0  0  0  0  0  0  0  0  0  0  0  0
    7.8933  -14.1368   20.2460 C   0  0  0  0  0  0  0  0  0  0  0  0
    7.4923  -15.2499   19.8726 O   0  0  0  0  0  0  0  0  0  0  0  0
    8.8399  -13.9648   21.3471 C   0  0  0  0  0  0  0  0  0  0  0  0
    8.7964  -15.1112   22.2920 C   0  0  2  0  0  0  0  0  0  0  0  0
    8.1610  -14.7049   23.5685 N   0  0  0  0  0  0  0  0  0  0  0  0
   10.2204  -15.4417   22.6895 C   0  0  0  0  0  0  0  0  0  0  0  0
   10.8475  -14.6594   23.4125 O   0  0  0  0  0  0  0  0  0  0  0  0
   10.8692  -16.6325   22.2551 N   0  0  0  0  0  0  0  0  0  0  0  0
   11.7476  -17.3885   23.1629 C   0  0  1  0  0  0  0  0  0  0  0  0
   11.0115  -17.7971   24.3870 C   0  0  0  0  0  0  0  0  0  0  0  0
   11.8696  -18.6383   25.2871 C   0  0  0  0  0  0  0  0  0  0  0  0
   11.0767  -19.1115   26.5073 C   0  0  0  0  0  0  0  0  0  0  0  0
   11.9385  -19.8485   27.4948 C   0  0  0  0  0  0  0  0  0  0  0  0
   11.1669  -20.3280   28.6292 N   0  0  0  0  0  0  0  0  0  0  0  0
   12.3171  -18.5500   22.4487 C   0  0  0  0  0  0  0  0  0  0  0  0
   11.6096  -19.4705   21.7060 O   0  0  0  0  0  0  0  0  0  0  0  0
   13.5816  -18.7585   22.5014 O   0  0  0  0  0  0  0  0  0  0  0  0
  2  1  1  6
  2  4  1  0
  3  2  1  0
  4  5  1  0
  5  6  1  1
  7  5  1  0
  7  8  2  0
  9 10  1  0
 10 11  2  0
 10 12  1  0
 13 12  1  6
 13 14  1  0
 13 15  1  0
 14  7  1  0
 15 17  1  0
 16 15  2  0
 17 18  1  0
 18 24  1  0
 18 19  1  1
 20 19  1  0
 21 20  1  0
 22 21  1  0
 23 22  1  0
 24 26  2  0
 24 25  1  0
M  END
$$$$
