LNK.pdb
     RDKit          3D

 26 25  0  0  1  0  0  0  0  0999 V2000
    7.0490  -12.2012   27.0931 C   0  0  0  0  0  0  0  0  0  0  0  0
    6.8000  -12.7513   25.7048 C   0  0  1  0  0  0  0  0  0  0  0  0
    7.1762  -11.7119   24.7105 C   0  0  0  0  0  0  0  0  0  0  0  0
    7.4419  -14.0807   25.5215 C   0  0  0  0  0  0  0  0  0  0  0  0
    7.2595  -14.7193   24.1998 C   0  0  2  0  0  0  0  0  0  0  0  0
    5.9702  -15.2888   23.9541 N   0  0  0  0  0  0  0  0  0  0  0  0
    8.2470  -15.8350   24.0828 C   0  0  0  0  0  0  0  0  0  0  0  0
    7.8554  -16.9713   24.4497 O   0  0  0  0  0  0  0  0  0  0  0  0
   13.7367  -17.2408   21.5282 N   0  0  0  0  0  0  0  0  0  0  0  0
   12.4328  -17.5042   22.0709 C   0  0  0  0  0  0  0  0  0  0  0  0
   12.1404  -18.6931   22.2717 O   0  0  0  0  0  0  0  0  0  0  0  0
   11.5157  -16.4033   22.3620 C   0  0  0  0  0  0  0  0  0  0  0  0
   10.4738  -16.8024   23.3438 C   0  0  2  0  0  0  0  0  0  0  0  0
    9.5453  -15.6750   23.5992 N   0  0  0  0  0  0  0  0  0  0  0  0
   11.1520  -17.0183   24.6812 C   0  0  0  0  0  0  0  0  0  0  0  0
   11.7184  -16.0702   25.2363 O   0  0  0  0  0  0  0  0  0  0  0  0
   11.1612  -18.2871   25.3277 N   0  0  0  0  0  0  0  0  0  0  0  0
   11.8685  -18.4792   26.6044 C   0  0  1  0  0  0  0  0  0  0  0  0
   11.1574  -19.4679   27.4553 C   0  0  0  0  0  0  0  0  0  0  0  0
   11.8772  -19.6911   28.7539 C   0  0  0  0  0  0  0  0  0  0  0  0
   11.1088  -20.6746   29.6392 C   0  0  0  0  0  0  0  0  0  0  0  0
   11.7743  -20.8802   30.9718 C   0  0  0  0  0  0  0  0  0  0  0  0
   11.0221  -21.7958   31.8130 N   0  0  0  0  0  0  0  0  0  0  0  0
   13.2657  -18.8821   26.3415 C   0  0  0  0  0  0  0  0  0  0  0  0
   14.3841  -18.3892   26.9782 O   0  0  0  0  0  0  0  0  0  0  0  0
   13.5033  -19.7671   25.4440 O   0  0  0  0  0  0  0  0  0  0  0  0
  2  1  1  1
  2  4  1  0
  3  2  1  0
  4  5  1  0
  5  6  1  1
  7  5  1  0
  7  8  2  0
  9 10  1  0
 10 11  2  0
 10 12  1  0
 13 12  1  6
 13 14  1  0
 13 15  1  0
 14  7  1  0
 15 17  1  0
 16 15  2  0
 17 18  1  0
 18 24  1  0
 18 19  1  1
 20 19  1  0
 21 20  1  0
 22 21  1  0
 23 22  1  0
 24 26  2  0
 24 25  1  0
M  END
$$$$
