LNK.pdb
     RDKit          3D

 26 25  0  0  1  0  0  0  0  0999 V2000
    7.2142  -10.9321   25.6046 C   0  0  0  0  0  0  0  0  0  0  0  0
    6.5743  -12.0393   26.4150 C   0  0  1  0  0  0  0  0  0  0  0  0
    5.3395  -11.5069   27.0494 C   0  0  0  0  0  0  0  0  0  0  0  0
    6.4018  -13.2767   25.6074 C   0  0  0  0  0  0  0  0  0  0  0  0
    7.5740  -14.1752   25.5278 C   0  0  2  0  0  0  0  0  0  0  0  0
    8.8464  -13.5324   25.4050 N   0  0  0  0  0  0  0  0  0  0  0  0
    7.4155  -15.0396   24.3190 C   0  0  0  0  0  0  0  0  0  0  0  0
    6.3878  -15.7618   24.2767 O   0  0  0  0  0  0  0  0  0  0  0  0
    7.3576  -13.2955   20.5392 N   0  0  0  0  0  0  0  0  0  0  0  0
    8.3951  -14.2618   20.7720 C   0  0  0  0  0  0  0  0  0  0  0  0
    9.5564  -13.8304   20.8383 O   0  0  0  0  0  0  0  0  0  0  0  0
    8.0673  -15.6792   20.9193 C   0  0  0  0  0  0  0  0  0  0  0  0
    8.4011  -16.1810   22.2778 C   0  0  2  0  0  0  0  0  0  0  0  0
    8.3308  -15.0792   23.2675 N   0  0  0  0  0  0  0  0  0  0  0  0
    9.8640  -16.5747   22.2828 C   0  0  0  0  0  0  0  0  0  0  0  0
   10.3042  -17.2921   21.3776 O   0  0  0  0  0  0  0  0  0  0  0  0
   10.7588  -16.1444   23.3036 N   0  0  0  0  0  0  0  0  0  0  0  0
   11.6203  -17.1078   24.0083 C   0  0  1  0  0  0  0  0  0  0  0  0
   11.0500  -17.4487   25.3371 C   0  0  0  0  0  0  0  0  0  0  0  0
   11.8744  -18.4908   26.0361 C   0  0  0  0  0  0  0  0  0  0  0  0
   11.2621  -18.8487   27.3920 C   0  0  0  0  0  0  0  0  0  0  0  0
   12.0820  -19.8666   28.1355 C   0  0  0  0  0  0  0  0  0  0  0  0
   11.5656  -20.0993   29.4739 N   0  0  0  0  0  0  0  0  0  0  0  0
   11.8139  -18.3074   23.1674 C   0  0  0  0  0  0  0  0  0  0  0  0
   10.8436  -19.2269   22.8326 O   0  0  0  0  0  0  0  0  0  0  0  0
   12.9775  -18.5537   22.6872 O   0  0  0  0  0  0  0  0  0  0  0  0
  2  1  1  6
  2  4  1  0
  3  2  1  0
  4  5  1  0
  5  6  1  6
  7  5  1  0
  7  8  2  0
  9 10  1  0
 10 11  2  0
 10 12  1  0
 13 12  1  6
 13 14  1  0
 13 15  1  0
 14  7  1  0
 15 17  1  0
 16 15  2  0
 17 18  1  0
 18 24  1  0
 18 19  1  1
 20 19  1  0
 21 20  1  0
 22 21  1  0
 23 22  1  0
 24 26  2  0
 24 25  1  0
M  END
$$$$
