VAK.pdb
     RDKit          3D

 22 21  0  0  1  0  0  0  0  0999 V2000
    8.1785  -13.0050   20.6338 C   0  0  0  0  0  0  0  0  0  0  0  0
    8.8137  -12.8106   19.2737 C   0  0  2  0  0  0  0  0  0  0  0  0
    7.8950  -11.9085   18.4701 C   0  0  0  0  0  0  0  0  0  0  0  0
    8.9211  -14.1226   18.5218 C   0  0  2  0  0  0  0  0  0  0  0  0
    7.5913  -14.6654   18.4149 N   0  0  0  0  0  0  0  0  0  0  0  0
    9.8530  -15.0617   19.1706 C   0  0  0  0  0  0  0  0  0  0  0  0
    9.4254  -15.8450   20.0456 O   0  0  0  0  0  0  0  0  0  0  0  0
   13.3677  -16.2096   18.4572 C   0  0  0  0  0  0  0  0  0  0  0  0
   12.1473  -16.0559   19.3409 C   0  0  2  0  0  0  0  0  0  0  0  0
   11.2190  -15.0807   18.8103 N   0  0  0  0  0  0  0  0  0  0  0  0
   12.5243  -15.7241   20.7487 C   0  0  0  0  0  0  0  0  0  0  0  0
   12.7313  -14.5345   21.0945 O   0  0  0  0  0  0  0  0  0  0  0  0
   12.6618  -16.7267   21.7379 N   0  0  0  0  0  0  0  0  0  0  0  0
   13.0998  -16.4293   23.1085 C   0  0  1  0  0  0  0  0  0  0  0  0
   12.5812  -17.5443   23.9719 C   0  0  0  0  0  0  0  0  0  0  0  0
   12.9948  -17.4536   25.4193 C   0  0  0  0  0  0  0  0  0  0  0  0
   12.4699  -18.6494   26.1628 C   0  0  0  0  0  0  0  0  0  0  0  0
   12.9092  -18.7650   27.5732 C   0  0  0  0  0  0  0  0  0  0  0  0
   12.2452  -19.7679   28.3402 N   0  0  0  0  0  0  0  0  0  0  0  0
   14.5756  -16.3475   23.1087 C   0  0  0  0  0  0  0  0  0  0  0  0
   15.3220  -17.0761   22.1795 O   0  0  0  0  0  0  0  0  0  0  0  0
   15.2208  -15.6483   23.9098 O   0  0  0  0  0  0  0  0  0  0  0  0
  2  1  1  1
  2  3  1  0
  4  2  1  0
  4  6  1  0
  4  5  1  1
  6  7  2  0
  6 10  1  0
  9  8  1  6
 10  9  1  0
 11 13  1  0
 11  9  1  0
 12 11  2  0
 14 20  1  0
 14 13  1  0
 14 15  1  1
 16 15  1  0
 17 16  1  0
 18 17  1  0
 19 18  1  0
 20 21  1  0
 22 20  2  0
M  END
$$$$
