VAK.pdb
     RDKit          3D

 22 21  0  0  1  0  0  0  0  0999 V2000
    7.5511  -13.0096   20.6756 C   0  0  0  0  0  0  0  0  0  0  0  0
    8.5184  -13.4055   19.5807 C   0  0  2  0  0  0  0  0  0  0  0  0
    8.1736  -12.5824   18.3530 C   0  0  0  0  0  0  0  0  0  0  0  0
    8.3556  -14.8641   19.2008 C   0  0  2  0  0  0  0  0  0  0  0  0
    7.0544  -15.0079   18.6006 N   0  0  0  0  0  0  0  0  0  0  0  0
    8.5372  -15.7635   20.3537 C   0  0  0  0  0  0  0  0  0  0  0  0
    7.5774  -15.9731   21.1262 O   0  0  0  0  0  0  0  0  0  0  0  0
   10.6857  -18.5304   21.3662 C   0  0  0  0  0  0  0  0  0  0  0  0
   10.0279  -17.2201   21.7458 C   0  0  2  0  0  0  0  0  0  0  0  0
    9.7835  -16.3863   20.5884 N   0  0  0  0  0  0  0  0  0  0  0  0
   10.8206  -16.4837   22.7771 C   0  0  0  0  0  0  0  0  0  0  0  0
   11.8142  -15.7893   22.4480 O   0  0  0  0  0  0  0  0  0  0  0  0
   10.4868  -16.5389   24.1512 N   0  0  0  0  0  0  0  0  0  0  0  0
   11.2202  -15.7799   25.1733 C   0  0  1  0  0  0  0  0  0  0  0  0
   10.3652  -15.7944   26.4088 C   0  0  0  0  0  0  0  0  0  0  0  0
   11.0061  -15.1572   27.6159 C   0  0  0  0  0  0  0  0  0  0  0  0
   10.0889  -15.2963   28.7982 C   0  0  0  0  0  0  0  0  0  0  0  0
   10.5265  -14.5967   30.0289 C   0  0  0  0  0  0  0  0  0  0  0  0
    9.5919  -14.6127   31.1065 N   0  0  0  0  0  0  0  0  0  0  0  0
   12.5287  -16.4361   25.3782 C   0  0  0  0  0  0  0  0  0  0  0  0
   12.6535  -17.8200   25.2337 O   0  0  0  0  0  0  0  0  0  0  0  0
   13.5636  -15.8164   25.6815 O   0  0  0  0  0  0  0  0  0  0  0  0
  2  1  1  1
  2  3  1  0
  4  2  1  0
  4  6  1  0
  4  5  1  1
  6  7  2  0
  6 10  1  0
  9  8  1  6
 10  9  1  0
 11 13  1  0
 11  9  1  0
 12 11  2  0
 14 20  1  0
 14 13  1  0
 14 15  1  1
 16 15  1  0
 17 16  1  0
 18 17  1  0
 19 18  1  0
 20 21  1  0
 22 20  2  0
M  END
$$$$
