VAK.pdb
     RDKit          3D

 22 21  0  0  1  0  0  0  0  0999 V2000
    7.6739  -12.8886   20.1529 C   0  0  0  0  0  0  0  0  0  0  0  0
    8.8102  -13.5169   19.3749 C   0  0  2  0  0  0  0  0  0  0  0  0
    8.7887  -12.9187   17.9802 C   0  0  0  0  0  0  0  0  0  0  0  0
    8.6146  -15.0125   19.2226 C   0  0  2  0  0  0  0  0  0  0  0  0
    7.5091  -15.2105   18.3210 N   0  0  0  0  0  0  0  0  0  0  0  0
    8.4003  -15.6810   20.5182 C   0  0  0  0  0  0  0  0  0  0  0  0
    7.2832  -15.6016   21.0728 O   0  0  0  0  0  0  0  0  0  0  0  0
   10.2507  -18.1354   22.6750 C   0  0  0  0  0  0  0  0  0  0  0  0
    9.3308  -16.9500   22.4690 C   0  0  2  0  0  0  0  0  0  0  0  0
    9.4454  -16.4067   21.1325 N   0  0  0  0  0  0  0  0  0  0  0  0
    9.5584  -15.8901   23.4980 C   0  0  0  0  0  0  0  0  0  0  0  0
   10.5841  -15.1663   23.4581 O   0  0  0  0  0  0  0  0  0  0  0  0
    8.6369  -15.6622   24.5475 N   0  0  0  0  0  0  0  0  0  0  0  0
    8.8255  -14.6031   25.5483 C   0  0  1  0  0  0  0  0  0  0  0  0
    7.5119  -13.8819   25.6569 C   0  0  0  0  0  0  0  0  0  0  0  0
    7.4752  -12.8138   26.7208 C   0  0  0  0  0  0  0  0  0  0  0  0
    6.1137  -12.1778   26.7409 C   0  0  0  0  0  0  0  0  0  0  0  0
    5.9042  -11.1561   27.7934 C   0  0  0  0  0  0  0  0  0  0  0  0
    4.5825  -10.6256   27.8760 N   0  0  0  0  0  0  0  0  0  0  0  0
    9.2318  -15.2416   26.8179 C   0  0  0  0  0  0  0  0  0  0  0  0
    8.9223  -16.5815   27.0637 O   0  0  0  0  0  0  0  0  0  0  0  0
    9.8532  -14.6443   27.7146 O   0  0  0  0  0  0  0  0  0  0  0  0
  2  1  1  1
  2  3  1  0
  4  2  1  0
  4  6  1  0
  4  5  1  6
  6  7  2  0
  6 10  1  0
  9  8  1  6
 10  9  1  0
 11 13  1  0
 11  9  1  0
 12 11  2  0
 14 20  1  0
 14 13  1  0
 14 15  1  1
 16 15  1  0
 17 16  1  0
 18 17  1  0
 19 18  1  0
 20 21  1  0
 22 20  2  0
M  END
$$$$
