VAK.pdb
     RDKit          3D

 22 21  0  0  1  0  0  0  0  0999 V2000
    8.1551  -19.9514   16.5696 C   0  0  0  0  0  0  0  0  0  0  0  0
    8.7159  -19.1409   17.7184 C   0  0  2  0  0  0  0  0  0  0  0  0
    8.3164  -19.8419   19.0040 C   0  0  0  0  0  0  0  0  0  0  0  0
    8.1114  -17.7513   17.7609 C   0  0  2  0  0  0  0  0  0  0  0  0
    8.3375  -17.1461   16.4737 N   0  0  0  0  0  0  0  0  0  0  0  0
    8.6607  -16.9383   18.8602 C   0  0  0  0  0  0  0  0  0  0  0  0
    9.8991  -16.8697   19.0138 O   0  0  0  0  0  0  0  0  0  0  0  0
    7.1854  -14.6524   21.5017 C   0  0  0  0  0  0  0  0  0  0  0  0
    8.2939  -15.4418   20.8370 C   0  0  2  0  0  0  0  0  0  0  0  0
    7.7993  -16.2403   19.7360 N   0  0  0  0  0  0  0  0  0  0  0  0
    9.0341  -16.2889   21.8212 C   0  0  0  0  0  0  0  0  0  0  0  0
    8.5957  -17.4178   22.1543 O   0  0  0  0  0  0  0  0  0  0  0  0
   10.2459  -15.8572   22.4110 N   0  0  0  0  0  0  0  0  0  0  0  0
   10.9554  -16.6470   23.4266 C   0  0  1  0  0  0  0  0  0  0  0  0
   12.4149  -16.5770   23.0766 C   0  0  0  0  0  0  0  0  0  0  0  0
   12.8276  -17.4866   21.9469 C   0  0  0  0  0  0  0  0  0  0  0  0
   14.2984  -17.3212   21.6865 C   0  0  0  0  0  0  0  0  0  0  0  0
   14.8260  -18.0671   20.5200 C   0  0  0  0  0  0  0  0  0  0  0  0
   16.1568  -17.7318   20.1308 N   0  0  0  0  0  0  0  0  0  0  0  0
   10.6581  -16.0609   24.7507 C   0  0  0  0  0  0  0  0  0  0  0  0
   11.0003  -16.7474   25.9182 O   0  0  0  0  0  0  0  0  0  0  0  0
   10.1036  -14.9577   24.9003 O   0  0  0  0  0  0  0  0  0  0  0  0
  2  1  1  6
  2  3  1  0
  4  2  1  0
  4  6  1  0
  4  5  1  6
  6  7  2  0
  6 10  1  0
  9  8  1  1
 10  9  1  0
 11 13  1  0
 11  9  1  0
 12 11  2  0
 14 20  1  0
 14 13  1  0
 14 15  1  6
 16 15  1  0
 17 16  1  0
 18 17  1  0
 19 18  1  0
 20 21  1  0
 22 20  2  0
M  END
$$$$
