VAK.pdb
     RDKit          3D

 22 21  0  0  1  0  0  0  0  0999 V2000
    7.8904  -17.6313   18.0461 C   0  0  0  0  0  0  0  0  0  0  0  0
    9.1155  -17.4307   18.9121 C   0  0  2  0  0  0  0  0  0  0  0  0
   10.1449  -18.4611   18.4854 C   0  0  0  0  0  0  0  0  0  0  0  0
    8.8064  -17.6868   20.3740 C   0  0  2  0  0  0  0  0  0  0  0  0
    7.4755  -18.2331   20.4413 N   0  0  0  0  0  0  0  0  0  0  0  0
    8.9492  -16.4714   21.1947 C   0  0  0  0  0  0  0  0  0  0  0  0
   10.0711  -15.9313   21.3022 O   0  0  0  0  0  0  0  0  0  0  0  0
    6.5815  -14.0270   22.7961 C   0  0  0  0  0  0  0  0  0  0  0  0
    7.9222  -14.7189   22.6629 C   0  0  2  0  0  0  0  0  0  0  0  0
    7.8307  -15.9172   21.8566 N   0  0  0  0  0  0  0  0  0  0  0  0
    8.5233  -15.0179   23.9983 C   0  0  0  0  0  0  0  0  0  0  0  0
    8.6464  -14.1158   24.8635 O   0  0  0  0  0  0  0  0  0  0  0  0
    8.9731  -16.3161   24.3376 N   0  0  0  0  0  0  0  0  0  0  0  0
    9.5015  -16.6463   25.6682 C   0  0  1  0  0  0  0  0  0  0  0  0
    9.1806  -18.0948   25.9056 C   0  0  0  0  0  0  0  0  0  0  0  0
    8.0862  -18.3317   26.9156 C   0  0  0  0  0  0  0  0  0  0  0  0
    7.8690  -19.8100   27.0767 C   0  0  0  0  0  0  0  0  0  0  0  0
    6.8133  -20.1966   28.0419 C   0  0  0  0  0  0  0  0  0  0  0  0
    6.6063  -21.6000   28.1921 N   0  0  0  0  0  0  0  0  0  0  0  0
   10.9551  -16.3782   25.6618 C   0  0  0  0  0  0  0  0  0  0  0  0
   11.6131  -16.0317   26.8443 O   0  0  0  0  0  0  0  0  0  0  0  0
   11.6570  -16.4428   24.6371 O   0  0  0  0  0  0  0  0  0  0  0  0
  2  1  1  6
  2  3  1  0
  4  2  1  0
  4  6  1  0
  4  5  1  6
  6  7  2  0
  6 10  1  0
  9  8  1  1
 10  9  1  0
 11 13  1  0
 11  9  1  0
 12 11  2  0
 14 20  1  0
 14 13  1  0
 14 15  1  6
 16 15  1  0
 17 16  1  0
 18 17  1  0
 19 18  1  0
 20 21  1  0
 22 20  2  0
M  END
$$$$
