VAK.pdb
     RDKit          3D

 22 21  0  0  1  0  0  0  0  0999 V2000
    8.3590  -12.5867   17.8171 C   0  0  0  0  0  0  0  0  0  0  0  0
    8.1187  -13.4945   19.0043 C   0  0  2  0  0  0  0  0  0  0  0  0
    8.9282  -12.9454   20.1649 C   0  0  0  0  0  0  0  0  0  0  0  0
    8.6199  -14.8997   18.7354 C   0  0  2  0  0  0  0  0  0  0  0  0
    7.8517  -15.4258   17.6366 N   0  0  0  0  0  0  0  0  0  0  0  0
    8.5386  -15.7582   19.9303 C   0  0  0  0  0  0  0  0  0  0  0  0
    7.4187  -16.1147   20.3552 O   0  0  0  0  0  0  0  0  0  0  0  0
   10.6985  -18.0570   21.8239 C   0  0  0  0  0  0  0  0  0  0  0  0
    9.6796  -16.9364   21.8254 C   0  0  2  0  0  0  0  0  0  0  0  0
    9.7135  -16.1776   20.5936 N   0  0  0  0  0  0  0  0  0  0  0  0
    9.8475  -16.0403   23.0098 C   0  0  0  0  0  0  0  0  0  0  0  0
   10.8545  -15.2970   23.1149 O   0  0  0  0  0  0  0  0  0  0  0  0
    8.8884  -15.9940   24.0494 N   0  0  0  0  0  0  0  0  0  0  0  0
    9.0075  -15.0803   25.1939 C   0  0  1  0  0  0  0  0  0  0  0  0
    7.7366  -14.2797   25.2328 C   0  0  0  0  0  0  0  0  0  0  0  0
    7.6756  -13.2640   26.3457 C   0  0  0  0  0  0  0  0  0  0  0  0
    6.3359  -12.5833   26.3255 C   0  0  0  0  0  0  0  0  0  0  0  0
    6.1221  -11.5678   27.3831 C   0  0  0  0  0  0  0  0  0  0  0  0
    4.8617  -10.9008   27.3445 N   0  0  0  0  0  0  0  0  0  0  0  0
    9.2048  -15.8959   26.4107 C   0  0  0  0  0  0  0  0  0  0  0  0
    9.8703  -15.3619   27.5168 O   0  0  0  0  0  0  0  0  0  0  0  0
    8.8035  -17.0680   26.5198 O   0  0  0  0  0  0  0  0  0  0  0  0
  2  1  1  6
  2  3  1  0
  4  2  1  0
  4  6  1  0
  4  5  1  6
  6  7  2  0
  6 10  1  0
  9  8  1  6
 10  9  1  0
 11 13  1  0
 11  9  1  0
 12 11  2  0
 14 20  1  0
 14 13  1  0
 14 15  1  1
 16 15  1  0
 17 16  1  0
 18 17  1  0
 19 18  1  0
 20 21  1  0
 22 20  2  0
M  END
$$$$
