VAK.pdb
     RDKit          3D

 22 21  0  0  1  0  0  0  0  0999 V2000
    9.8736  -15.0422   17.8484 C   0  0  0  0  0  0  0  0  0  0  0  0
    8.3618  -15.0883   17.9092 C   0  0  2  0  0  0  0  0  0  0  0  0
    7.8445  -14.8273   16.5064 C   0  0  0  0  0  0  0  0  0  0  0  0
    7.8111  -13.9920   18.7996 C   0  0  2  0  0  0  0  0  0  0  0  0
    8.2248  -12.7332   18.2352 N   0  0  0  0  0  0  0  0  0  0  0  0
    8.2449  -14.1412   20.1999 C   0  0  0  0  0  0  0  0  0  0  0  0
    9.3801  -13.7416   20.5371 O   0  0  0  0  0  0  0  0  0  0  0  0
    6.5752  -15.2128   23.4203 C   0  0  0  0  0  0  0  0  0  0  0  0
    7.7670  -14.8830   22.5458 C   0  0  2  0  0  0  0  0  0  0  0  0
    7.3889  -14.7303   21.1572 N   0  0  0  0  0  0  0  0  0  0  0  0
    8.8569  -15.8950   22.6946 C   0  0  0  0  0  0  0  0  0  0  0  0
    8.8992  -16.9069   21.9517 O   0  0  0  0  0  0  0  0  0  0  0  0
    9.8740  -15.7550   23.6685 N   0  0  0  0  0  0  0  0  0  0  0  0
   10.8444  -16.8201   23.9561 C   0  0  1  0  0  0  0  0  0  0  0  0
   12.2044  -16.2393   23.6905 C   0  0  0  0  0  0  0  0  0  0  0  0
   13.0680  -17.0713   22.7761 C   0  0  0  0  0  0  0  0  0  0  0  0
   14.4113  -16.4144   22.6262 C   0  0  0  0  0  0  0  0  0  0  0  0
   15.3848  -17.1428   21.7793 C   0  0  0  0  0  0  0  0  0  0  0  0
   16.6653  -16.5270   21.6518 N   0  0  0  0  0  0  0  0  0  0  0  0
   10.6659  -17.2326   25.3642 C   0  0  0  0  0  0  0  0  0  0  0  0
   11.2699  -18.3993   25.8389 O   0  0  0  0  0  0  0  0  0  0  0  0
    9.9895  -16.5870   26.1845 O   0  0  0  0  0  0  0  0  0  0  0  0
  2  1  1  6
  2  3  1  0
  4  2  1  0
  4  6  1  0
  4  5  1  6
  6  7  2  0
  6 10  1  0
  9  8  1  1
 10  9  1  0
 11 13  1  0
 11  9  1  0
 12 11  2  0
 14 20  1  0
 14 13  1  0
 14 15  1  1
 16 15  1  0
 17 16  1  0
 18 17  1  0
 19 18  1  0
 20 21  1  0
 22 20  2  0
M  END
$$$$
