VAK.pdb
     RDKit          3D

 22 21  0  0  1  0  0  0  0  0999 V2000
    5.2027  -18.1879   20.0397 C   0  0  0  0  0  0  0  0  0  0  0  0
    6.1427  -17.9498   21.2020 C   0  0  2  0  0  0  0  0  0  0  0  0
    5.3587  -18.2020   22.4769 C   0  0  0  0  0  0  0  0  0  0  0  0
    6.6141  -16.5096   21.2450 C   0  0  2  0  0  0  0  0  0  0  0  0
    7.2676  -16.2350   19.9913 N   0  0  0  0  0  0  0  0  0  0  0  0
    7.4927  -16.2454   22.3981 C   0  0  0  0  0  0  0  0  0  0  0  0
    8.6301  -16.7619   22.4345 O   0  0  0  0  0  0  0  0  0  0  0  0
    7.3303  -14.0123   25.4489 C   0  0  0  0  0  0  0  0  0  0  0  0
    7.8682  -15.1665   24.6289 C   0  0  2  0  0  0  0  0  0  0  0  0
    7.0579  -15.4160   23.4560 N   0  0  0  0  0  0  0  0  0  0  0  0
    8.0143  -16.4061   25.4511 C   0  0  0  0  0  0  0  0  0  0  0  0
    7.0027  -17.0174   25.8761 O   0  0  0  0  0  0  0  0  0  0  0  0
    9.2849  -16.9350   25.7801 N   0  0  0  0  0  0  0  0  0  0  0  0
    9.4496  -18.1411   26.6029 C   0  0  1  0  0  0  0  0  0  0  0  0
   10.3333  -19.0716   25.8213 C   0  0  0  0  0  0  0  0  0  0  0  0
    9.7341  -19.5558   24.5250 C   0  0  0  0  0  0  0  0  0  0  0  0
   10.7546  -20.3668   23.7772 C   0  0  0  0  0  0  0  0  0  0  0  0
   10.3254  -20.8598   22.4474 C   0  0  0  0  0  0  0  0  0  0  0  0
   11.2891  -21.6430   21.7454 N   0  0  0  0  0  0  0  0  0  0  0  0
   10.0476  -17.7361   27.8925 C   0  0  0  0  0  0  0  0  0  0  0  0
   10.0657  -18.6240   28.9708 O   0  0  0  0  0  0  0  0  0  0  0  0
   10.5541  -16.6173   28.0891 O   0  0  0  0  0  0  0  0  0  0  0  0
  2  1  1  6
  2  3  1  0
  4  2  1  0
  4  6  1  0
  4  5  1  6
  6  7  2  0
  6 10  1  0
  9  8  1  1
 10  9  1  0
 11 13  1  0
 11  9  1  0
 12 11  2  0
 14 20  1  0
 14 13  1  0
 14 15  1  6
 16 15  1  0
 17 16  1  0
 18 17  1  0
 19 18  1  0
 20 21  1  0
 22 20  2  0
M  END
$$$$
