VAK.pdb
     RDKit          3D

 22 21  0  0  1  0  0  0  0  0999 V2000
    7.1716  -18.8068   22.2457 C   0  0  0  0  0  0  0  0  0  0  0  0
    6.0329  -17.9694   21.7042 C   0  0  2  0  0  0  0  0  0  0  0  0
    4.8185  -18.8733   21.5955 C   0  0  0  0  0  0  0  0  0  0  0  0
    6.3368  -17.4600   20.3091 C   0  0  2  0  0  0  0  0  0  0  0  0
    6.6167  -18.6077   19.4853 N   0  0  0  0  0  0  0  0  0  0  0  0
    7.4439  -16.4876   20.3001 C   0  0  0  0  0  0  0  0  0  0  0  0
    8.6228  -16.8988   20.3561 O   0  0  0  0  0  0  0  0  0  0  0  0
    7.7518  -12.7661   19.7428 C   0  0  0  0  0  0  0  0  0  0  0  0
    8.2347  -14.1099   20.2476 C   0  0  2  0  0  0  0  0  0  0  0  0
    7.1806  -15.1014   20.2290 N   0  0  0  0  0  0  0  0  0  0  0  0
    8.8425  -14.0016   21.6088 C   0  0  0  0  0  0  0  0  0  0  0  0
    9.8334  -13.2571   21.8120 O   0  0  0  0  0  0  0  0  0  0  0  0
    8.3310  -14.7261   22.7116 N   0  0  0  0  0  0  0  0  0  0  0  0
    8.8293  -14.5367   24.0807 C   0  0  1  0  0  0  0  0  0  0  0  0
    7.6178  -14.4176   24.9615 C   0  0  0  0  0  0  0  0  0  0  0  0
    7.3469  -13.0206   25.4605 C   0  0  0  0  0  0  0  0  0  0  0  0
    6.1198  -13.0311   26.3280 C   0  0  0  0  0  0  0  0  0  0  0  0
    5.7116  -11.7134   26.8688 C   0  0  0  0  0  0  0  0  0  0  0  0
    4.5152  -11.7153   27.6457 N   0  0  0  0  0  0  0  0  0  0  0  0
    9.6719  -15.7013   24.4251 C   0  0  0  0  0  0  0  0  0  0  0  0
    9.7813  -16.7780   23.5418 O   0  0  0  0  0  0  0  0  0  0  0  0
   10.3133  -15.7901   25.4871 O   0  0  0  0  0  0  0  0  0  0  0  0
  2  1  1  6
  2  3  1  0
  4  2  1  0
  4  6  1  0
  4  5  1  6
  6  7  2  0
  6 10  1  0
  9  8  1  1
 10  9  1  0
 11 13  1  0
 11  9  1  0
 12 11  2  0
 14 20  1  0
 14 13  1  0
 14 15  1  1
 16 15  1  0
 17 16  1  0
 18 17  1  0
 19 18  1  0
 20 21  1  0
 22 20  2  0
M  END
$$$$
