VAK.pdb
     RDKit          3D

 22 21  0  0  1  0  0  0  0  0999 V2000
    6.7299  -19.5320   17.1818 C   0  0  0  0  0  0  0  0  0  0  0  0
    7.3670  -18.7557   18.3144 C   0  0  2  0  0  0  0  0  0  0  0  0
    6.3501  -18.6790   19.4385 C   0  0  0  0  0  0  0  0  0  0  0  0
    7.6823  -17.3321   17.8993 C   0  0  2  0  0  0  0  0  0  0  0  0
    8.5369  -17.4024   16.7422 N   0  0  0  0  0  0  0  0  0  0  0  0
    8.2921  -16.5552   18.9929 C   0  0  0  0  0  0  0  0  0  0  0  0
    9.3506  -16.9615   19.5187 O   0  0  0  0  0  0  0  0  0  0  0  0
    7.4639  -13.2889   20.7403 C   0  0  0  0  0  0  0  0  0  0  0  0
    8.2883  -14.5303   20.4698 C   0  0  2  0  0  0  0  0  0  0  0  0
    7.6895  -15.3607   19.4469 N   0  0  0  0  0  0  0  0  0  0  0  0
    8.5315  -15.3137   21.7194 C   0  0  0  0  0  0  0  0  0  0  0  0
    7.5773  -15.8435   22.3409 O   0  0  0  0  0  0  0  0  0  0  0  0
    9.8332  -15.4878   22.2465 N   0  0  0  0  0  0  0  0  0  0  0  0
   10.0831  -16.1644   23.5265 C   0  0  1  0  0  0  0  0  0  0  0  0
   10.8811  -17.3969   23.2074 C   0  0  0  0  0  0  0  0  0  0  0  0
   10.1107  -18.4625   22.4692 C   0  0  0  0  0  0  0  0  0  0  0  0
   11.0373  -19.5913   22.1148 C   0  0  0  0  0  0  0  0  0  0  0  0
   10.4471  -20.6588   21.2735 C   0  0  0  0  0  0  0  0  0  0  0  0
   11.3622  -21.6531   20.8164 N   0  0  0  0  0  0  0  0  0  0  0  0
   10.8119  -15.2253   24.4049 C   0  0  0  0  0  0  0  0  0  0  0  0
   11.4335  -14.0956   23.8674 O   0  0  0  0  0  0  0  0  0  0  0  0
   10.9124  -15.3789   25.6351 O   0  0  0  0  0  0  0  0  0  0  0  0
  2  1  1  6
  2  3  1  0
  4  2  1  0
  4  6  1  0
  4  5  1  6
  6  7  2  0
  6 10  1  0
  9  8  1  1
 10  9  1  0
 11 13  1  0
 11  9  1  0
 12 11  2  0
 14 20  1  0
 14 13  1  0
 14 15  1  6
 16 15  1  0
 17 16  1  0
 18 17  1  0
 19 18  1  0
 20 21  1  0
 22 20  2  0
M  END
$$$$
