VAK.pdb
     RDKit          3D

 22 21  0  0  1  0  0  0  0  0999 V2000
    7.2197  -12.5711   20.0930 C   0  0  0  0  0  0  0  0  0  0  0  0
    8.2691  -13.5034   19.5266 C   0  0  2  0  0  0  0  0  0  0  0  0
    7.7799  -13.9610   18.1646 C   0  0  0  0  0  0  0  0  0  0  0  0
    8.4272  -14.7433   20.3843 C   0  0  2  0  0  0  0  0  0  0  0  0
    7.1763  -15.4558   20.3423 N   0  0  0  0  0  0  0  0  0  0  0  0
    8.8348  -14.4188   21.7626 C   0  0  0  0  0  0  0  0  0  0  0  0
   10.0239  -14.1126   21.9954 O   0  0  0  0  0  0  0  0  0  0  0  0
    7.0264  -13.6023   24.9470 C   0  0  0  0  0  0  0  0  0  0  0  0
    8.2355  -14.0854   24.1733 C   0  0  2  0  0  0  0  0  0  0  0  0
    7.8935  -14.4520   22.8157 N   0  0  0  0  0  0  0  0  0  0  0  0
    8.9241  -15.2120   24.8737 C   0  0  0  0  0  0  0  0  0  0  0  0
    9.2695  -15.1049   26.0765 O   0  0  0  0  0  0  0  0  0  0  0  0
    9.2116  -16.4318   24.2163 N   0  0  0  0  0  0  0  0  0  0  0  0
    9.7633  -17.5975   24.9201 C   0  0  1  0  0  0  0  0  0  0  0  0
    9.7659  -18.7290   23.9315 C   0  0  0  0  0  0  0  0  0  0  0  0
   10.3217  -20.0234   24.4697 C   0  0  0  0  0  0  0  0  0  0  0  0
   10.3957  -21.0333   23.3592 C   0  0  0  0  0  0  0  0  0  0  0  0
   10.8908  -22.3740   23.7502 C   0  0  0  0  0  0  0  0  0  0  0  0
   11.0526  -23.3023   22.6792 N   0  0  0  0  0  0  0  0  0  0  0  0
   11.1206  -17.2475   25.3892 C   0  0  0  0  0  0  0  0  0  0  0  0
   11.9183  -16.3720   24.6486 O   0  0  0  0  0  0  0  0  0  0  0  0
   11.6180  -17.6965   26.4370 O   0  0  0  0  0  0  0  0  0  0  0  0
  2  1  1  1
  2  3  1  0
  4  2  1  0
  4  6  1  0
  4  5  1  1
  6  7  2  0
  6 10  1  0
  9  8  1  1
 10  9  1  0
 11 13  1  0
 11  9  1  0
 12 11  2  0
 14 20  1  0
 14 13  1  0
 14 15  1  6
 16 15  1  0
 17 16  1  0
 18 17  1  0
 19 18  1  0
 20 21  1  0
 22 20  2  0
M  END
$$$$
