VAK.pdb
     RDKit          3D

 22 21  0  0  1  0  0  0  0  0999 V2000
    8.1482  -19.1292   17.6270 C   0  0  0  0  0  0  0  0  0  0  0  0
    6.9587  -18.2423   17.3272 C   0  0  2  0  0  0  0  0  0  0  0  0
    6.2568  -18.8220   16.1128 C   0  0  0  0  0  0  0  0  0  0  0  0
    7.3955  -16.8372   16.9624 C   0  0  2  0  0  0  0  0  0  0  0  0
    8.1782  -16.9311   15.7571 N   0  0  0  0  0  0  0  0  0  0  0  0
    8.1362  -16.1828   18.0553 C   0  0  0  0  0  0  0  0  0  0  0  0
    9.3632  -16.3882   18.1745 O   0  0  0  0  0  0  0  0  0  0  0  0
    7.2605  -13.6816   20.7678 C   0  0  0  0  0  0  0  0  0  0  0  0
    8.1537  -14.6796   20.0607 C   0  0  2  0  0  0  0  0  0  0  0  0
    7.4700  -15.3296   18.9632 N   0  0  0  0  0  0  0  0  0  0  0  0
    8.7159  -15.6866   21.0115 C   0  0  0  0  0  0  0  0  0  0  0  0
    8.0568  -16.7075   21.3293 O   0  0  0  0  0  0  0  0  0  0  0  0
   10.0001  -15.5317   21.5856 N   0  0  0  0  0  0  0  0  0  0  0  0
   10.5607  -16.4983   22.5396 C   0  0  1  0  0  0  0  0  0  0  0  0
   12.0477  -16.4944   22.3245 C   0  0  0  0  0  0  0  0  0  0  0  0
   12.5813  -17.7324   21.6486 C   0  0  0  0  0  0  0  0  0  0  0  0
   14.0702  -17.6087   21.4868 C   0  0  0  0  0  0  0  0  0  0  0  0
   14.7423  -18.7760   20.8695 C   0  0  0  0  0  0  0  0  0  0  0  0
   16.1522  -18.6474   20.6937 N   0  0  0  0  0  0  0  0  0  0  0  0
   10.1808  -16.0682   23.9018 C   0  0  0  0  0  0  0  0  0  0  0  0
   10.3380  -16.9366   24.9847 O   0  0  0  0  0  0  0  0  0  0  0  0
    9.7137  -14.9442   24.1578 O   0  0  0  0  0  0  0  0  0  0  0  0
  2  1  1  6
  2  3  1  0
  4  2  1  0
  4  6  1  0
  4  5  1  6
  6  7  2  0
  6 10  1  0
  9  8  1  1
 10  9  1  0
 11 13  1  0
 11  9  1  0
 12 11  2  0
 14 20  1  0
 14 13  1  0
 14 15  1  1
 16 15  1  0
 17 16  1  0
 18 17  1  0
 19 18  1  0
 20 21  1  0
 22 20  2  0
M  END
$$$$
