VAK.pdb
     RDKit          3D

 22 21  0  0  1  0  0  0  0  0999 V2000
    6.3399  -20.6344   24.2490 C   0  0  0  0  0  0  0  0  0  0  0  0
    7.0475  -19.3550   23.8573 C   0  0  2  0  0  0  0  0  0  0  0  0
    6.1295  -18.2015   24.2180 C   0  0  0  0  0  0  0  0  0  0  0  0
    7.2810  -19.2889   22.3608 C   0  0  2  0  0  0  0  0  0  0  0  0
    7.8017  -20.5678   21.9515 N   0  0  0  0  0  0  0  0  0  0  0  0
    8.1753  -18.1798   21.9851 C   0  0  0  0  0  0  0  0  0  0  0  0
    9.3889  -18.2437   22.2768 O   0  0  0  0  0  0  0  0  0  0  0  0
    7.7867  -14.9382   20.0613 C   0  0  0  0  0  0  0  0  0  0  0  0
    8.4890  -15.8963   21.0008 C   0  0  2  0  0  0  0  0  0  0  0  0
    7.6705  -17.0515   21.3008 N   0  0  0  0  0  0  0  0  0  0  0  0
    8.9305  -15.2140   22.2553 C   0  0  0  0  0  0  0  0  0  0  0  0
    9.9764  -14.5188   22.2740 O   0  0  0  0  0  0  0  0  0  0  0  0
    8.1953  -15.3229   23.4595 N   0  0  0  0  0  0  0  0  0  0  0  0
    8.5239  -14.5407   24.6591 C   0  0  1  0  0  0  0  0  0  0  0  0
    7.2321  -13.9494   25.1483 C   0  0  0  0  0  0  0  0  0  0  0  0
    7.3497  -13.1829   26.4415 C   0  0  0  0  0  0  0  0  0  0  0  0
    6.1963  -12.2268   26.5601 C   0  0  0  0  0  0  0  0  0  0  0  0
    6.1592  -11.4259   27.8062 C   0  0  0  0  0  0  0  0  0  0  0  0
    5.0766  -10.5024   27.9074 N   0  0  0  0  0  0  0  0  0  0  0  0
    9.1420  -15.4532   25.6441 C   0  0  0  0  0  0  0  0  0  0  0  0
   10.2394  -15.0351   26.4006 O   0  0  0  0  0  0  0  0  0  0  0  0
    8.7358  -16.6103   25.8520 O   0  0  0  0  0  0  0  0  0  0  0  0
  2  1  1  6
  2  3  1  0
  4  2  1  0
  4  6  1  0
  4  5  1  1
  6  7  2  0
  6 10  1  0
  9  8  1  6
 10  9  1  0
 11 13  1  0
 11  9  1  0
 12 11  2  0
 14 20  1  0
 14 13  1  0
 14 15  1  1
 16 15  1  0
 17 16  1  0
 18 17  1  0
 19 18  1  0
 20 21  1  0
 22 20  2  0
M  END
$$$$
