VAK.pdb
     RDKit          3D

 22 21  0  0  1  0  0  0  0  0999 V2000
    2.9403  -19.0929   21.0049 C   0  0  0  0  0  0  0  0  0  0  0  0
    4.2784  -18.5089   21.4046 C   0  0  2  0  0  0  0  0  0  0  0  0
    4.0360  -17.5918   22.5894 C   0  0  0  0  0  0  0  0  0  0  0  0
    4.8640  -17.6590   20.2942 C   0  0  2  0  0  0  0  0  0  0  0  0
    5.0220  -18.5087   19.1421 N   0  0  0  0  0  0  0  0  0  0  0  0
    6.1315  -17.0208   20.6908 C   0  0  0  0  0  0  0  0  0  0  0  0
    7.1443  -17.7294   20.8757 O   0  0  0  0  0  0  0  0  0  0  0  0
    7.2725  -13.4384   21.2076 C   0  0  0  0  0  0  0  0  0  0  0  0
    7.4485  -14.9422   21.1666 C   0  0  2  0  0  0  0  0  0  0  0  0
    6.2069  -15.6204   20.8619 N   0  0  0  0  0  0  0  0  0  0  0  0
    8.0441  -15.4622   22.4351 C   0  0  0  0  0  0  0  0  0  0  0  0
    7.4096  -15.3952   23.5170 O   0  0  0  0  0  0  0  0  0  0  0  0
    9.3333  -16.0449   22.4673 N   0  0  0  0  0  0  0  0  0  0  0  0
    9.9589  -16.5102   23.7126 C   0  0  1  0  0  0  0  0  0  0  0  0
   10.1333  -17.9960   23.5715 C   0  0  0  0  0  0  0  0  0  0  0  0
    8.8502  -18.7835   23.6581 C   0  0  0  0  0  0  0  0  0  0  0  0
    9.1576  -20.2501   23.5442 C   0  0  0  0  0  0  0  0  0  0  0  0
    7.9796  -21.1488   23.5421 C   0  0  0  0  0  0  0  0  0  0  0  0
    8.2752  -22.5444   23.5547 N   0  0  0  0  0  0  0  0  0  0  0  0
   11.2444  -15.7982   23.8716 C   0  0  0  0  0  0  0  0  0  0  0  0
   11.9212  -15.8298   25.0932 O   0  0  0  0  0  0  0  0  0  0  0  0
   11.7834  -15.1492   22.9576 O   0  0  0  0  0  0  0  0  0  0  0  0
  2  1  1  6
  2  3  1  0
  4  2  1  0
  4  6  1  0
  4  5  1  6
  6  7  2  0
  6 10  1  0
  9  8  1  1
 10  9  1  0
 11 13  1  0
 11  9  1  0
 12 11  2  0
 14 20  1  0
 14 13  1  0
 14 15  1  6
 16 15  1  0
 17 16  1  0
 18 17  1  0
 19 18  1  0
 20 21  1  0
 22 20  2  0
M  END
$$$$
