VAK.pdb
     RDKit          3D

 22 21  0  0  1  0  0  0  0  0999 V2000
    7.4057  -14.8001   18.0084 C   0  0  0  0  0  0  0  0  0  0  0  0
    7.8066  -13.5574   18.7739 C   0  0  2  0  0  0  0  0  0  0  0  0
    8.0465  -12.4570   17.7564 C   0  0  0  0  0  0  0  0  0  0  0  0
    9.1086  -13.7656   19.5220 C   0  0  2  0  0  0  0  0  0  0  0  0
   10.0838  -14.2229   18.5660 N   0  0  0  0  0  0  0  0  0  0  0  0
    8.9586  -14.6999   20.6516 C   0  0  0  0  0  0  0  0  0  0  0  0
    8.0977  -14.4705   21.5280 O   0  0  0  0  0  0  0  0  0  0  0  0
   10.6016  -17.9687   21.6615 C   0  0  0  0  0  0  0  0  0  0  0  0
    9.6641  -16.7922   21.8373 C   0  0  2  0  0  0  0  0  0  0  0  0
    9.7784  -15.8466   20.7477 N   0  0  0  0  0  0  0  0  0  0  0  0
    9.8684  -16.1166   23.1549 C   0  0  0  0  0  0  0  0  0  0  0  0
   10.9686  -15.5808   23.4378 O   0  0  0  0  0  0  0  0  0  0  0  0
    8.8410  -16.0543   24.1260 N   0  0  0  0  0  0  0  0  0  0  0  0
    8.9802  -15.2938   25.3755 C   0  0  1  0  0  0  0  0  0  0  0  0
    7.7733  -14.4035   25.4680 C   0  0  0  0  0  0  0  0  0  0  0  0
    7.7356  -13.5334   26.6990 C   0  0  0  0  0  0  0  0  0  0  0  0
    6.5053  -12.6712   26.6617 C   0  0  0  0  0  0  0  0  0  0  0  0
    6.3782  -11.6955   27.7695 C   0  0  0  0  0  0  0  0  0  0  0  0
    5.2367  -10.8423   27.7049 N   0  0  0  0  0  0  0  0  0  0  0  0
    9.0626  -16.2598   26.4912 C   0  0  0  0  0  0  0  0  0  0  0  0
    9.6515  -15.8890   27.7025 O   0  0  0  0  0  0  0  0  0  0  0  0
    8.6269  -17.4227   26.4214 O   0  0  0  0  0  0  0  0  0  0  0  0
  2  1  1  6
  2  3  1  0
  4  2  1  0
  4  6  1  0
  4  5  1  6
  6  7  2  0
  6 10  1  0
  9  8  1  6
 10  9  1  0
 11 13  1  0
 11  9  1  0
 12 11  2  0
 14 20  1  0
 14 13  1  0
 14 15  1  1
 16 15  1  0
 17 16  1  0
 18 17  1  0
 19 18  1  0
 20 21  1  0
 22 20  2  0
M  END
$$$$
