PWV.pdb
     RDKit          3D

 29 31  0  0  1  0  0  0  0  0999 V2000
   27.4178  -22.2332  -15.8283 N   0  0  0  0  0  0  0  0  0  0  0  0
   28.0611  -22.6725  -17.0536 C   0  0  0  0  0  0  0  0  0  0  0  0
   28.5596  -21.3287  -17.6020 C   0  0  0  0  0  0  0  0  0  0  0  0
   28.7754  -20.4559  -16.3674 C   0  0  0  0  0  0  0  0  0  0  0  0
   28.4380  -21.3866  -15.2534 C   0  0  1  0  0  0  0  0  0  0  0  0
   27.9306  -20.7087  -14.0396 C   0  0  0  0  0  0  0  0  0  0  0  0
   28.6767  -19.8868  -13.4547 O   0  0  0  0  0  0  0  0  0  0  0  0
   26.6384  -20.9587  -13.5238 N   0  0  0  0  0  0  0  0  0  0  0  0
   25.9446  -20.1985  -12.5360 C   0  0  1  0  0  0  0  0  0  0  0  0
   24.5305  -19.8745  -12.8672 C   0  0  0  0  0  0  0  0  0  0  0  0
   24.4487  -19.1446  -14.1734 C   0  0  0  0  0  0  0  0  0  0  0  0
   23.4927  -19.3690  -15.1378 C   0  0  0  0  0  0  0  0  0  0  0  0
   23.7468  -18.5284  -16.1549 N   0  0  0  0  0  0  0  0  0  0  0  0
   24.8182  -17.7755  -15.8918 C   0  0  0  0  0  0  0  0  0  0  0  0
   25.4841  -16.7778  -16.5914 C   0  0  0  0  0  0  0  0  0  0  0  0
   26.5918  -16.1548  -16.0655 C   0  0  0  0  0  0  0  0  0  0  0  0
   27.0281  -16.5469  -14.8192 C   0  0  0  0  0  0  0  0  0  0  0  0
   26.3791  -17.5285  -14.1222 C   0  0  0  0  0  0  0  0  0  0  0  0
   25.2652  -18.1515  -14.6566 C   0  0  0  0  0  0  0  0  0  0  0  0
   26.0119  -20.7851  -11.1580 C   0  0  0  0  0  0  0  0  0  0  0  0
   25.9168  -22.0252  -11.0394 O   0  0  0  0  0  0  0  0  0  0  0  0
   26.7715  -20.3017   -6.2983 C   0  0  0  0  0  0  0  0  0  0  0  0
   26.7813  -19.7122   -7.6810 C   0  0  1  0  0  0  0  0  0  0  0  0
   28.1717  -19.3930   -8.1721 C   0  0  0  0  0  0  0  0  0  0  0  0
   26.1271  -20.6325   -8.6636 C   0  0  2  0  0  0  0  0  0  0  0  0
   26.1749  -20.0230  -10.0000 N   0  0  0  0  0  0  0  0  0  0  0  0
   24.7252  -20.9712   -8.3016 C   0  0  0  0  0  0  0  0  0  0  0  0
   24.5077  -21.8343   -7.2462 O   0  0  0  0  0  0  0  0  0  0  0  0
   23.7273  -20.5145   -8.9042 O   0  0  0  0  0  0  0  0  0  0  0  0
  1  5  1  0
  2  3  1  0
  2  1  1  0
  3  4  1  0
  4  5  1  0
  5  6  1  1
  6  8  1  0
  6  7  2  0
  8  9  1  0
  9 10  1  6
  9 20  1  0
 10 11  1  0
 11 19  1  0
 11 12  2  0
 12 13  1  0
 14 13  1  0
 14 15  2  0
 16 15  1  0
 17 16  2  0
 18 19  2  0
 18 17  1  0
 19 14  1  0
 20 26  1  0
 21 20  2  0
 23 22  1  1
 23 24  1  0
 25 23  1  0
 25 27  1  0
 25 26  1  6
 27 29  2  0
 27 28  1  0
M  END
$$$$
