PWV.pdb
     RDKit          3D

 29 31  0  0  1  0  0  0  0  0999 V2000
   27.7874  -19.8865  -14.7462 N   0  0  0  0  0  0  0  0  0  0  0  0
   28.5059  -20.0011  -16.0027 C   0  0  0  0  0  0  0  0  0  0  0  0
   29.4603  -21.1564  -15.6719 C   0  0  0  0  0  0  0  0  0  0  0  0
   28.7270  -21.9826  -14.6174 C   0  0  0  0  0  0  0  0  0  0  0  0
   27.4280  -21.2628  -14.4919 C   0  0  1  0  0  0  0  0  0  0  0  0
   26.7937  -21.3994  -13.1619 C   0  0  0  0  0  0  0  0  0  0  0  0
   25.8615  -22.2278  -13.0234 O   0  0  0  0  0  0  0  0  0  0  0  0
   27.2049  -20.6287  -12.0504 N   0  0  0  0  0  0  0  0  0  0  0  0
   26.6641  -20.6654  -10.7308 C   0  0  1  0  0  0  0  0  0  0  0  0
   27.5315  -20.0729   -9.6767 C   0  0  0  0  0  0  0  0  0  0  0  0
   27.0143  -20.4172   -8.3131 C   0  0  0  0  0  0  0  0  0  0  0  0
   25.8543  -21.1167   -8.0686 C   0  0  0  0  0  0  0  0  0  0  0  0
   25.7286  -21.2273   -6.7354 N   0  0  0  0  0  0  0  0  0  0  0  0
   26.7497  -20.6339   -6.1115 C   0  0  0  0  0  0  0  0  0  0  0  0
   27.0903  -20.4663   -4.7758 C   0  0  0  0  0  0  0  0  0  0  0  0
   28.2327  -19.7937   -4.4094 C   0  0  0  0  0  0  0  0  0  0  0  0
   29.0368  -19.2866   -5.4063 C   0  0  0  0  0  0  0  0  0  0  0  0
   28.7101  -19.4465   -6.7247 C   0  0  0  0  0  0  0  0  0  0  0  0
   27.5593  -20.1242   -7.0869 C   0  0  0  0  0  0  0  0  0  0  0  0
   25.2840  -20.0900  -10.6222 C   0  0  0  0  0  0  0  0  0  0  0  0
   25.1709  -18.8630  -10.4162 O   0  0  0  0  0  0  0  0  0  0  0  0
   23.3151  -19.9954  -13.4022 C   0  0  0  0  0  0  0  0  0  0  0  0
   22.3678  -20.5579  -12.3796 C   0  0  1  0  0  0  0  0  0  0  0  0
   22.2113  -22.0547  -12.4866 C   0  0  0  0  0  0  0  0  0  0  0  0
   22.8130  -20.2221  -10.9906 C   0  0  2  0  0  0  0  0  0  0  0  0
   24.1182  -20.8488  -10.7385 N   0  0  0  0  0  0  0  0  0  0  0  0
   21.8344  -20.6328   -9.9491 C   0  0  0  0  0  0  0  0  0  0  0  0
   20.5974  -20.0202   -9.9297 O   0  0  0  0  0  0  0  0  0  0  0  0
   22.0723  -21.5072   -9.0852 O   0  0  0  0  0  0  0  0  0  0  0  0
  1  5  1  0
  2  3  1  0
  2  1  1  0
  3  4  1  0
  4  5  1  0
  5  6  1  1
  6  8  1  0
  6  7  2  0
  8  9  1  0
  9 10  1  1
  9 20  1  0
 10 11  1  0
 11 19  1  0
 11 12  2  0
 12 13  1  0
 14 13  1  0
 14 15  2  0
 16 15  1  0
 17 16  2  0
 18 19  2  0
 18 17  1  0
 19 14  1  0
 20 26  1  0
 21 20  2  0
 23 22  1  6
 23 24  1  0
 25 23  1  0
 25 27  1  0
 25 26  1  1
 27 29  2  0
 27 28  1  0
M  END
$$$$
