PWV.pdb
     RDKit          3D

 29 31  0  0  1  0  0  0  0  0999 V2000
   27.9166  -21.3241  -14.4313 N   0  0  0  0  0  0  0  0  0  0  0  0
   28.6587  -21.3008  -15.6791 C   0  0  0  0  0  0  0  0  0  0  0  0
   28.1778  -19.9654  -16.2625 C   0  0  0  0  0  0  0  0  0  0  0  0
   27.8257  -19.1095  -15.0476 C   0  0  0  0  0  0  0  0  0  0  0  0
   28.1849  -20.0032  -13.9104 C   0  0  1  0  0  0  0  0  0  0  0  0
   27.3965  -19.7564  -12.6825 C   0  0  0  0  0  0  0  0  0  0  0  0
   27.4322  -18.6136  -12.1657 O   0  0  0  0  0  0  0  0  0  0  0  0
   26.6097  -20.7641  -12.0793 N   0  0  0  0  0  0  0  0  0  0  0  0
   25.7173  -20.6139  -10.9766 C   0  0  1  0  0  0  0  0  0  0  0  0
   24.4204  -21.3309  -11.1121 C   0  0  0  0  0  0  0  0  0  0  0  0
   23.4844  -20.5654  -11.9971 C   0  0  0  0  0  0  0  0  0  0  0  0
   22.4264  -19.8075  -11.5492 C   0  0  0  0  0  0  0  0  0  0  0  0
   21.8283  -19.2790  -12.6302 N   0  0  0  0  0  0  0  0  0  0  0  0
   22.4493  -19.6595  -13.7498 C   0  0  0  0  0  0  0  0  0  0  0  0
   22.2394  -19.4010  -15.0979 C   0  0  0  0  0  0  0  0  0  0  0  0
   23.0570  -19.9398  -16.0638 C   0  0  0  0  0  0  0  0  0  0  0  0
   24.0965  -20.7480  -15.6591 C   0  0  0  0  0  0  0  0  0  0  0  0
   24.3115  -21.0086  -14.3340 C   0  0  0  0  0  0  0  0  0  0  0  0
   23.4856  -20.4635  -13.3668 C   0  0  0  0  0  0  0  0  0  0  0  0
   26.3308  -20.9402   -9.6481 C   0  0  0  0  0  0  0  0  0  0  0  0
   26.8641  -22.0608   -9.5039 O   0  0  0  0  0  0  0  0  0  0  0  0
   28.0393  -19.6149   -5.2399 C   0  0  0  0  0  0  0  0  0  0  0  0
   27.5002  -19.2652   -6.5987 C   0  0  1  0  0  0  0  0  0  0  0  0
   28.5539  -18.7026   -7.5203 C   0  0  0  0  0  0  0  0  0  0  0  0
   26.8791  -20.4584   -7.2552 C   0  0  2  0  0  0  0  0  0  0  0  0
   26.3394  -20.0618   -8.5634 N   0  0  0  0  0  0  0  0  0  0  0  0
   25.8164  -21.0911   -6.4297 C   0  0  0  0  0  0  0  0  0  0  0  0
   24.5161  -21.0590   -6.8927 O   0  0  0  0  0  0  0  0  0  0  0  0
   26.0374  -21.6536   -5.3333 O   0  0  0  0  0  0  0  0  0  0  0  0
  1  5  1  0
  2  3  1  0
  2  1  1  0
  3  4  1  0
  4  5  1  0
  5  6  1  1
  6  8  1  0
  6  7  2  0
  8  9  1  0
  9 10  1  6
  9 20  1  0
 10 11  1  0
 11 19  1  0
 11 12  2  0
 12 13  1  0
 14 13  1  0
 14 15  2  0
 16 15  1  0
 17 16  2  0
 18 19  2  0
 18 17  1  0
 19 14  1  0
 20 26  1  0
 21 20  2  0
 23 22  1  1
 23 24  1  0
 25 23  1  0
 25 27  1  0
 25 26  1  6
 27 29  2  0
 27 28  1  0
M  END
$$$$
