PWV.pdb
     RDKit          3D

 29 31  0  0  1  0  0  0  0  0999 V2000
   28.1381  -20.7208  -16.2246 N   0  0  0  0  0  0  0  0  0  0  0  0
   28.9255  -21.0041  -17.4112 C   0  0  0  0  0  0  0  0  0  0  0  0
   29.7822  -22.1715  -16.9032 C   0  0  0  0  0  0  0  0  0  0  0  0
   28.9332  -22.8425  -15.8254 C   0  0  0  0  0  0  0  0  0  0  0  0
   27.6771  -22.0413  -15.8613 C   0  0  1  0  0  0  0  0  0  0  0  0
   26.9530  -22.0046  -14.5712 C   0  0  0  0  0  0  0  0  0  0  0  0
   25.9141  -22.6970  -14.4458 O   0  0  0  0  0  0  0  0  0  0  0  0
   27.3951  -21.2176  -13.4833 N   0  0  0  0  0  0  0  0  0  0  0  0
   26.8400  -21.1762  -12.1699 C   0  0  1  0  0  0  0  0  0  0  0  0
   27.7780  -20.7356  -11.1019 C   0  0  0  0  0  0  0  0  0  0  0  0
   27.0839  -20.6943   -9.7745 C   0  0  0  0  0  0  0  0  0  0  0  0
   25.7482  -20.9636   -9.5800 C   0  0  0  0  0  0  0  0  0  0  0  0
   25.5005  -20.8257   -8.2665 N   0  0  0  0  0  0  0  0  0  0  0  0
   26.6103  -20.4814   -7.6079 C   0  0  0  0  0  0  0  0  0  0  0  0
   26.8916  -20.2226   -6.2729 C   0  0  0  0  0  0  0  0  0  0  0  0
   28.1593  -19.8799   -5.8639 C   0  0  0  0  0  0  0  0  0  0  0  0
   29.1505  -19.7989   -6.8172 C   0  0  0  0  0  0  0  0  0  0  0  0
   28.8835  -20.0519   -8.1344 C   0  0  0  0  0  0  0  0  0  0  0  0
   27.6060  -20.3963   -8.5396 C   0  0  0  0  0  0  0  0  0  0  0  0
   25.5675  -20.3896  -12.0712 C   0  0  0  0  0  0  0  0  0  0  0  0
   25.6491  -19.1527  -11.9159 O   0  0  0  0  0  0  0  0  0  0  0  0
   23.6362  -19.8057  -14.7402 C   0  0  0  0  0  0  0  0  0  0  0  0
   22.6189  -20.3180  -13.7594 C   0  0  1  0  0  0  0  0  0  0  0  0
   22.2758  -21.7712  -13.9761 C   0  0  0  0  0  0  0  0  0  0  0  0
   23.0936  -20.1440  -12.3506 C   0  0  2  0  0  0  0  0  0  0  0  0
   24.2966  -20.9623  -12.1432 N   0  0  0  0  0  0  0  0  0  0  0  0
   22.0578  -20.4852  -11.3397 C   0  0  0  0  0  0  0  0  0  0  0  0
   22.2181  -21.6370  -10.5955 O   0  0  0  0  0  0  0  0  0  0  0  0
   21.0441  -19.7822  -11.1260 O   0  0  0  0  0  0  0  0  0  0  0  0
  1  5  1  0
  2  3  1  0
  2  1  1  0
  3  4  1  0
  4  5  1  0
  5  6  1  1
  6  8  1  0
  6  7  2  0
  8  9  1  0
  9 10  1  1
  9 20  1  0
 10 11  1  0
 11 19  1  0
 11 12  2  0
 12 13  1  0
 14 13  1  0
 14 15  2  0
 16 15  1  0
 17 16  2  0
 18 19  2  0
 18 17  1  0
 19 14  1  0
 20 26  1  0
 21 20  2  0
 23 22  1  6
 23 24  1  0
 25 23  1  0
 25 27  1  0
 25 26  1  1
 27 29  2  0
 27 28  1  0
M  END
$$$$
