PWV.pdb
     RDKit          3D

 29 31  0  0  1  0  0  0  0  0999 V2000
   25.3876  -19.7983  -13.5377 N   0  0  0  0  0  0  0  0  0  0  0  0
   25.6669  -19.8208  -14.9624 C   0  0  0  0  0  0  0  0  0  0  0  0
   26.7303  -20.9258  -15.0189 C   0  0  0  0  0  0  0  0  0  0  0  0
   26.4161  -21.8350  -13.8327 C   0  0  0  0  0  0  0  0  0  0  0  0
   25.1946  -21.2029  -13.2585 C   0  0  1  0  0  0  0  0  0  0  0  0
   25.0304  -21.4284  -11.8052 C   0  0  0  0  0  0  0  0  0  0  0  0
   24.3874  -22.4357  -11.4227 O   0  0  0  0  0  0  0  0  0  0  0  0
   25.5735  -20.5478  -10.8419 N   0  0  0  0  0  0  0  0  0  0  0  0
   25.5859  -20.7231   -9.4262 C   0  0  1  0  0  0  0  0  0  0  0  0
   26.6808  -20.0121   -8.7119 C   0  0  0  0  0  0  0  0  0  0  0  0
   26.7461  -20.4479   -7.2797 C   0  0  0  0  0  0  0  0  0  0  0  0
   26.0393  -21.5028   -6.7486 C   0  0  0  0  0  0  0  0  0  0  0  0
   26.3593  -21.5821   -5.4460 N   0  0  0  0  0  0  0  0  0  0  0  0
   27.2363  -20.6309   -5.1140 C   0  0  0  0  0  0  0  0  0  0  0  0
   27.8712  -20.2837   -3.9289 C   0  0  0  0  0  0  0  0  0  0  0  0
   28.7517  -19.2285   -3.8733 C   0  0  0  0  0  0  0  0  0  0  0  0
   28.9905  -18.5193   -5.0299 C   0  0  0  0  0  0  0  0  0  0  0  0
   28.3702  -18.8535   -6.2020 C   0  0  0  0  0  0  0  0  0  0  0  0
   27.4853  -19.9161   -6.2514 C   0  0  0  0  0  0  0  0  0  0  0  0
   24.2767  -20.4163   -8.7632 C   0  0  0  0  0  0  0  0  0  0  0  0
   23.8180  -19.2592   -8.8705 O   0  0  0  0  0  0  0  0  0  0  0  0
   21.4522  -23.3853   -7.6888 C   0  0  0  0  0  0  0  0  0  0  0  0
   21.2051  -21.9645   -8.1127 C   0  0  1  0  0  0  0  0  0  0  0  0
   19.8215  -21.4792   -7.7575 C   0  0  0  0  0  0  0  0  0  0  0  0
   22.2083  -21.0375   -7.5005 C   0  0  2  0  0  0  0  0  0  0  0  0
   23.5417  -21.3515   -8.0327 N   0  0  0  0  0  0  0  0  0  0  0  0
   22.2210  -21.0907   -6.0145 C   0  0  0  0  0  0  0  0  0  0  0  0
   21.2317  -20.4204   -5.3232 O   0  0  0  0  0  0  0  0  0  0  0  0
   23.0835  -21.7125   -5.3536 O   0  0  0  0  0  0  0  0  0  0  0  0
  1  5  1  0
  2  3  1  0
  2  1  1  0
  3  4  1  0
  4  5  1  0
  5  6  1  1
  6  8  1  0
  6  7  2  0
  8  9  1  0
  9 10  1  1
  9 20  1  0
 10 11  1  0
 11 19  1  0
 11 12  2  0
 12 13  1  0
 14 13  1  0
 14 15  2  0
 16 15  1  0
 17 16  2  0
 18 19  2  0
 18 17  1  0
 19 14  1  0
 20 26  1  0
 21 20  2  0
 23 22  1  1
 23 24  1  0
 25 23  1  0
 25 27  1  0
 25 26  1  6
 27 29  2  0
 27 28  1  0
M  END
$$$$
