PWV.pdb
     RDKit          3D

 29 31  0  0  1  0  0  0  0  0999 V2000
   27.1740  -16.6178  -17.3079 N   0  0  0  0  0  0  0  0  0  0  0  0
   28.1270  -15.9459  -18.1731 C   0  0  0  0  0  0  0  0  0  0  0  0
   29.4416  -16.5447  -17.6552 C   0  0  0  0  0  0  0  0  0  0  0  0
   29.0602  -17.9205  -17.1126 C   0  0  0  0  0  0  0  0  0  0  0  0
   27.6033  -17.9932  -17.4178 C   0  0  1  0  0  0  0  0  0  0  0  0
   26.8389  -18.8543  -16.4881 C   0  0  0  0  0  0  0  0  0  0  0  0
   26.1218  -19.7661  -16.9663 O   0  0  0  0  0  0  0  0  0  0  0  0
   26.8930  -18.6804  -15.0862 N   0  0  0  0  0  0  0  0  0  0  0  0
   26.3286  -19.5327  -14.0912 C   0  0  1  0  0  0  0  0  0  0  0  0
   27.0508  -19.5486  -12.7903 C   0  0  0  0  0  0  0  0  0  0  0  0
   26.4216  -20.5310  -11.8498 C   0  0  0  0  0  0  0  0  0  0  0  0
   26.1029  -21.8306  -12.1720 C   0  0  0  0  0  0  0  0  0  0  0  0
   25.5618  -22.3919  -11.0776 N   0  0  0  0  0  0  0  0  0  0  0  0
   25.5170  -21.5177  -10.0687 C   0  0  0  0  0  0  0  0  0  0  0  0
   25.0652  -21.5890   -8.7576 C   0  0  0  0  0  0  0  0  0  0  0  0
   25.1438  -20.5044   -7.9154 C   0  0  0  0  0  0  0  0  0  0  0  0
   25.6854  -19.3372   -8.4072 C   0  0  0  0  0  0  0  0  0  0  0  0
   26.1332  -19.2569   -9.6969 C   0  0  0  0  0  0  0  0  0  0  0  0
   26.0514  -20.3516  -10.5393 C   0  0  0  0  0  0  0  0  0  0  0  0
   24.8677  -19.2997  -13.8475 C   0  0  0  0  0  0  0  0  0  0  0  0
   24.5011  -18.1533  -13.5125 O   0  0  0  0  0  0  0  0  0  0  0  0
   22.0042  -21.7550  -15.5370 C   0  0  0  0  0  0  0  0  0  0  0  0
   21.7953  -20.3119  -15.1720 C   0  0  1  0  0  0  0  0  0  0  0  0
   20.3371  -19.9373  -15.0742 C   0  0  0  0  0  0  0  0  0  0  0  0
   22.4613  -19.9831  -13.8725 C   0  0  2  0  0  0  0  0  0  0  0  0
   23.8944  -20.2922  -13.9740 N   0  0  0  0  0  0  0  0  0  0  0  0
   21.8615  -20.6951  -12.7131 C   0  0  0  0  0  0  0  0  0  0  0  0
   22.5496  -21.7598  -12.1663 O   0  0  0  0  0  0  0  0  0  0  0  0
   20.7619  -20.3805  -12.2037 O   0  0  0  0  0  0  0  0  0  0  0  0
  1  5  1  0
  2  3  1  0
  2  1  1  0
  3  4  1  0
  4  5  1  0
  5  6  1  1
  6  8  1  0
  6  7  2  0
  8  9  1  0
  9 10  1  1
  9 20  1  0
 10 11  1  0
 11 19  1  0
 11 12  2  0
 12 13  1  0
 14 13  1  0
 14 15  2  0
 16 15  1  0
 17 16  2  0
 18 19  2  0
 18 17  1  0
 19 14  1  0
 20 26  1  0
 21 20  2  0
 23 22  1  1
 23 24  1  0
 25 23  1  0
 25 27  1  0
 25 26  1  6
 27 29  2  0
 27 28  1  0
M  END
$$$$
