PWV.pdb
     RDKit          3D

 29 31  0  0  1  0  0  0  0  0999 V2000
   27.8271  -21.2094  -14.2776 N   0  0  0  0  0  0  0  0  0  0  0  0
   28.3834  -21.1373  -15.6168 C   0  0  0  0  0  0  0  0  0  0  0  0
   27.6270  -19.9202  -16.1659 C   0  0  0  0  0  0  0  0  0  0  0  0
   27.3110  -19.0673  -14.9390 C   0  0  0  0  0  0  0  0  0  0  0  0
   27.9534  -19.8388  -13.8376 C   0  0  1  0  0  0  0  0  0  0  0  0
   27.3070  -19.6522  -12.5195 C   0  0  0  0  0  0  0  0  0  0  0  0
   27.2329  -18.4926  -12.0459 O   0  0  0  0  0  0  0  0  0  0  0  0
   26.7743  -20.7352  -11.7836 N   0  0  0  0  0  0  0  0  0  0  0  0
   25.9706  -20.6634  -10.6072 C   0  0  1  0  0  0  0  0  0  0  0  0
   24.7341  -21.4908  -10.6362 C   0  0  0  0  0  0  0  0  0  0  0  0
   23.7021  -20.8661  -11.5251 C   0  0  0  0  0  0  0  0  0  0  0  0
   23.7300  -20.8984  -12.9009 C   0  0  0  0  0  0  0  0  0  0  0  0
   22.6448  -20.2371  -13.3376 N   0  0  0  0  0  0  0  0  0  0  0  0
   21.9216  -19.7818  -12.3111 C   0  0  0  0  0  0  0  0  0  0  0  0
   20.7412  -19.0565  -12.2170 C   0  0  0  0  0  0  0  0  0  0  0  0
   20.2080  -18.7159  -10.9957 C   0  0  0  0  0  0  0  0  0  0  0  0
   20.8779  -19.1144   -9.8599 C   0  0  0  0  0  0  0  0  0  0  0  0
   22.0410  -19.8290   -9.9421 C   0  0  0  0  0  0  0  0  0  0  0  0
   22.5723  -20.1687  -11.1737 C   0  0  0  0  0  0  0  0  0  0  0  0
   26.7223  -20.9347   -9.3387 C   0  0  0  0  0  0  0  0  0  0  0  0
   27.2627  -22.0527   -9.2009 O   0  0  0  0  0  0  0  0  0  0  0  0
   27.3337  -17.9968   -6.2573 C   0  0  0  0  0  0  0  0  0  0  0  0
   28.3335  -19.0474   -6.6524 C   0  0  1  0  0  0  0  0  0  0  0  0
   29.2892  -19.3954   -5.5381 C   0  0  0  0  0  0  0  0  0  0  0  0
   27.6490  -20.2998   -7.1034 C   0  0  2  0  0  0  0  0  0  0  0  0
   26.8521  -20.0078   -8.3032 N   0  0  0  0  0  0  0  0  0  0  0  0
   26.7922  -20.9077   -6.0511 C   0  0  0  0  0  0  0  0  0  0  0  0
   27.3966  -21.3914   -4.9079 O   0  0  0  0  0  0  0  0  0  0  0  0
   25.5476  -21.0053   -6.1457 O   0  0  0  0  0  0  0  0  0  0  0  0
  1  5  1  0
  2  3  1  0
  2  1  1  0
  3  4  1  0
  4  5  1  0
  5  6  1  1
  6  8  1  0
  6  7  2  0
  8  9  1  0
  9 10  1  6
  9 20  1  0
 10 11  1  0
 11 19  1  0
 11 12  2  0
 12 13  1  0
 14 13  1  0
 14 15  2  0
 16 15  1  0
 17 16  2  0
 18 19  2  0
 18 17  1  0
 19 14  1  0
 20 26  1  0
 21 20  2  0
 23 22  1  1
 23 24  1  0
 25 23  1  0
 25 27  1  0
 25 26  1  6
 27 29  2  0
 27 28  1  0
M  END
$$$$
