PWV.pdb
     RDKit          3D

 29 31  0  0  1  0  0  0  0  0999 V2000
   28.3285  -19.1844  -13.1700 N   0  0  0  0  0  0  0  0  0  0  0  0
   29.3606  -18.9674  -14.1680 C   0  0  0  0  0  0  0  0  0  0  0  0
   30.2996  -20.1401  -13.8551 C   0  0  0  0  0  0  0  0  0  0  0  0
   29.3963  -21.2200  -13.2632 C   0  0  0  0  0  0  0  0  0  0  0  0
   28.0478  -20.5910  -13.3453 C   0  0  1  0  0  0  0  0  0  0  0  0
   27.1010  -21.0668  -12.3122 C   0  0  0  0  0  0  0  0  0  0  0  0
   26.6031  -22.2119  -12.4357 O   0  0  0  0  0  0  0  0  0  0  0  0
   26.7439  -20.2740  -11.1976 N   0  0  0  0  0  0  0  0  0  0  0  0
   25.7155  -20.5413  -10.2458 C   0  0  1  0  0  0  0  0  0  0  0  0
   25.9275  -19.9389   -8.9017 C   0  0  0  0  0  0  0  0  0  0  0  0
   27.1692  -20.4879   -8.2676 C   0  0  0  0  0  0  0  0  0  0  0  0
   27.9972  -21.4226   -8.8466 C   0  0  0  0  0  0  0  0  0  0  0  0
   28.9966  -21.6614   -7.9806 N   0  0  0  0  0  0  0  0  0  0  0  0
   28.8517  -20.9268   -6.8746 C   0  0  0  0  0  0  0  0  0  0  0  0
   29.5885  -20.8002   -5.7044 C   0  0  0  0  0  0  0  0  0  0  0  0
   29.1958  -19.9434   -4.7026 C   0  0  0  0  0  0  0  0  0  0  0  0
   28.0457  -19.2085   -4.8892 C   0  0  0  0  0  0  0  0  0  0  0  0
   27.3132  -19.3260   -6.0381 C   0  0  0  0  0  0  0  0  0  0  0  0
   27.7136  -20.1897   -7.0423 C   0  0  0  0  0  0  0  0  0  0  0  0
   24.3364  -20.2075  -10.7298 C   0  0  0  0  0  0  0  0  0  0  0  0
   24.0111  -19.0033  -10.7998 O   0  0  0  0  0  0  0  0  0  0  0  0
   22.1617  -23.0871  -12.8544 C   0  0  0  0  0  0  0  0  0  0  0  0
   22.1837  -21.6134  -13.1496 C   0  0  1  0  0  0  0  0  0  0  0  0
   21.0116  -21.1660  -13.9876 C   0  0  0  0  0  0  0  0  0  0  0  0
   22.2016  -20.8111  -11.8861 C   0  0  2  0  0  0  0  0  0  0  0  0
   23.3954  -21.1672  -11.1064 N   0  0  0  0  0  0  0  0  0  0  0  0
   20.9761  -20.9912  -11.0634 C   0  0  0  0  0  0  0  0  0  0  0  0
   19.8185  -20.3502  -11.4571 O   0  0  0  0  0  0  0  0  0  0  0  0
   20.9369  -21.6952  -10.0288 O   0  0  0  0  0  0  0  0  0  0  0  0
  1  5  1  0
  2  3  1  0
  2  1  1  0
  3  4  1  0
  4  5  1  0
  5  6  1  1
  6  8  1  0
  6  7  2  0
  8  9  1  0
  9 10  1  1
  9 20  1  0
 10 11  1  0
 11 19  1  0
 11 12  2  0
 12 13  1  0
 14 13  1  0
 14 15  2  0
 16 15  1  0
 17 16  2  0
 18 19  2  0
 18 17  1  0
 19 14  1  0
 20 26  1  0
 21 20  2  0
 23 22  1  1
 23 24  1  0
 25 23  1  0
 25 27  1  0
 25 26  1  1
 27 29  2  0
 27 28  1  0
M  END
$$$$
