PWV.pdb
     RDKit          3D

 29 31  0  0  1  0  0  0  0  0999 V2000
   26.8382  -22.8368  -14.1787 N   0  0  0  0  0  0  0  0  0  0  0  0
   27.1307  -23.3896  -15.4891 C   0  0  0  0  0  0  0  0  0  0  0  0
   27.4639  -22.1070  -16.2628 C   0  0  0  0  0  0  0  0  0  0  0  0
   28.0015  -21.1406  -15.2094 C   0  0  0  0  0  0  0  0  0  0  0  0
   27.9745  -21.9688  -13.9706 C   0  0  1  0  0  0  0  0  0  0  0  0
   27.8098  -21.1823  -12.7279 C   0  0  0  0  0  0  0  0  0  0  0  0
   28.6906  -20.3401  -12.4291 O   0  0  0  0  0  0  0  0  0  0  0  0
   26.6963  -21.3513  -11.8736 N   0  0  0  0  0  0  0  0  0  0  0  0
   26.2917  -20.4937  -10.8079 C   0  0  1  0  0  0  0  0  0  0  0  0
   24.8413  -20.1620  -10.7806 C   0  0  0  0  0  0  0  0  0  0  0  0
   24.3882  -19.6671  -12.1204 C   0  0  0  0  0  0  0  0  0  0  0  0
   23.1921  -19.9992  -12.7149 C   0  0  0  0  0  0  0  0  0  0  0  0
   23.1450  -19.3649  -13.8986 N   0  0  0  0  0  0  0  0  0  0  0  0
   24.2511  -18.6421  -14.0939 C   0  0  0  0  0  0  0  0  0  0  0  0
   24.6911  -17.8225  -15.1248 C   0  0  0  0  0  0  0  0  0  0  0  0
   25.9075  -17.1838  -15.0594 C   0  0  0  0  0  0  0  0  0  0  0  0
   26.6845  -17.3780  -13.9386 C   0  0  0  0  0  0  0  0  0  0  0  0
   26.2600  -18.1833  -12.9180 C   0  0  0  0  0  0  0  0  0  0  0  0
   25.0352  -18.8231  -12.9897 C   0  0  0  0  0  0  0  0  0  0  0  0
   26.7209  -20.9648   -9.4508 C   0  0  0  0  0  0  0  0  0  0  0  0
   26.8160  -22.1953   -9.2564 O   0  0  0  0  0  0  0  0  0  0  0  0
   27.7331  -18.3207   -6.2051 C   0  0  0  0  0  0  0  0  0  0  0  0
   28.4078  -19.6376   -6.4696 C   0  0  1  0  0  0  0  0  0  0  0  0
   28.9954  -20.2555   -5.2249 C   0  0  0  0  0  0  0  0  0  0  0  0
   27.4570  -20.6159   -7.0855 C   0  0  2  0  0  0  0  0  0  0  0  0
   27.0201  -20.1054   -8.3925 N   0  0  0  0  0  0  0  0  0  0  0  0
   26.2791  -20.9051   -6.2253 C   0  0  0  0  0  0  0  0  0  0  0  0
   25.0175  -20.6796   -6.7387 O   0  0  0  0  0  0  0  0  0  0  0  0
   26.3694  -21.3436   -5.0560 O   0  0  0  0  0  0  0  0  0  0  0  0
  1  5  1  0
  2  3  1  0
  2  1  1  0
  3  4  1  0
  4  5  1  0
  5  6  1  1
  6  8  1  0
  6  7  2  0
  8  9  1  0
  9 10  1  1
  9 20  1  0
 10 11  1  0
 11 19  1  0
 11 12  2  0
 12 13  1  0
 14 13  1  0
 14 15  2  0
 16 15  1  0
 17 16  2  0
 18 19  2  0
 18 17  1  0
 19 14  1  0
 20 26  1  0
 21 20  2  0
 23 22  1  1
 23 24  1  0
 25 23  1  0
 25 27  1  0
 25 26  1  6
 27 29  2  0
 27 28  1  0
M  END
$$$$
