PWV.pdb
     RDKit          3D

 29 31  0  0  1  0  0  0  0  0999 V2000
   28.3580  -20.8286  -16.6216 N   0  0  0  0  0  0  0  0  0  0  0  0
   29.1736  -21.1099  -17.7894 C   0  0  0  0  0  0  0  0  0  0  0  0
   29.9596  -22.3301  -17.2912 C   0  0  0  0  0  0  0  0  0  0  0  0
   29.0443  -22.9954  -16.2654 C   0  0  0  0  0  0  0  0  0  0  0  0
   27.8267  -22.1376  -16.3177 C   0  0  1  0  0  0  0  0  0  0  0  0
   27.0598  -22.1086  -15.0524 C   0  0  0  0  0  0  0  0  0  0  0  0
   26.0619  -22.8606  -14.9377 O   0  0  0  0  0  0  0  0  0  0  0  0
   27.4166  -21.2640  -13.9764 N   0  0  0  0  0  0  0  0  0  0  0  0
   26.8357  -21.2383  -12.6738 C   0  0  1  0  0  0  0  0  0  0  0  0
   27.7280  -20.7347  -11.5947 C   0  0  0  0  0  0  0  0  0  0  0  0
   27.0023  -20.6985  -10.2842 C   0  0  0  0  0  0  0  0  0  0  0  0
   25.6466  -20.8827  -10.1339 C   0  0  0  0  0  0  0  0  0  0  0  0
   25.3729  -20.7803   -8.8223 N   0  0  0  0  0  0  0  0  0  0  0  0
   26.4850  -20.5395   -8.1229 C   0  0  0  0  0  0  0  0  0  0  0  0
   26.7466  -20.3539   -6.7718 C   0  0  0  0  0  0  0  0  0  0  0  0
   28.0229  -20.1158   -6.3179 C   0  0  0  0  0  0  0  0  0  0  0  0
   29.0430  -20.0654   -7.2423 C   0  0  0  0  0  0  0  0  0  0  0  0
   28.7957  -20.2470   -8.5750 C   0  0  0  0  0  0  0  0  0  0  0  0
   27.5094  -20.4863   -9.0255 C   0  0  0  0  0  0  0  0  0  0  0  0
   25.5204  -20.5218  -12.6078 C   0  0  0  0  0  0  0  0  0  0  0  0
   25.5208  -19.2769  -12.7130 O   0  0  0  0  0  0  0  0  0  0  0  0
   21.1115  -20.5255  -14.3269 C   0  0  0  0  0  0  0  0  0  0  0  0
   22.4593  -21.1083  -14.0061 C   0  0  1  0  0  0  0  0  0  0  0  0
   23.4577  -20.9251  -15.1223 C   0  0  0  0  0  0  0  0  0  0  0  0
   23.0232  -20.5063  -12.7571 C   0  0  2  0  0  0  0  0  0  0  0  0
   24.2953  -21.1681  -12.4353 N   0  0  0  0  0  0  0  0  0  0  0  0
   22.0932  -20.5866  -11.5996 C   0  0  0  0  0  0  0  0  0  0  0  0
   21.3655  -19.4635  -11.2603 O   0  0  0  0  0  0  0  0  0  0  0  0
   21.9338  -21.6214  -10.9130 O   0  0  0  0  0  0  0  0  0  0  0  0
  1  5  1  0
  2  3  1  0
  2  1  1  0
  3  4  1  0
  4  5  1  0
  5  6  1  1
  6  8  1  0
  6  7  2  0
  8  9  1  0
  9 10  1  1
  9 20  1  0
 10 11  1  0
 11 19  1  0
 11 12  2  0
 12 13  1  0
 14 13  1  0
 14 15  2  0
 16 15  1  0
 17 16  2  0
 18 19  2  0
 18 17  1  0
 19 14  1  0
 20 26  1  0
 21 20  2  0
 23 22  1  6
 23 24  1  0
 25 23  1  0
 25 27  1  0
 25 26  1  1
 27 29  2  0
 27 28  1  0
M  END
$$$$
