PWV.pdb
     RDKit          3D

 29 31  0  0  1  0  0  0  0  0999 V2000
   27.1325  -20.1349  -15.1541 N   0  0  0  0  0  0  0  0  0  0  0  0
   27.9064  -20.2026  -16.3808 C   0  0  0  0  0  0  0  0  0  0  0  0
   29.1959  -20.8508  -15.8594 C   0  0  0  0  0  0  0  0  0  0  0  0
   28.7588  -21.6843  -14.6567 C   0  0  0  0  0  0  0  0  0  0  0  0
   27.2828  -21.4780  -14.6426 C   0  0  1  0  0  0  0  0  0  0  0  0
   26.6744  -21.5958  -13.2988 C   0  0  0  0  0  0  0  0  0  0  0  0
   25.6811  -22.3485  -13.1533 O   0  0  0  0  0  0  0  0  0  0  0  0
   27.1765  -20.8896  -12.1818 N   0  0  0  0  0  0  0  0  0  0  0  0
   26.7144  -20.9697  -10.8347 C   0  0  1  0  0  0  0  0  0  0  0  0
   27.7390  -20.6726   -9.7972 C   0  0  0  0  0  0  0  0  0  0  0  0
   27.1316  -20.7168   -8.4281 C   0  0  0  0  0  0  0  0  0  0  0  0
   25.9532  -21.3550   -8.1139 C   0  0  0  0  0  0  0  0  0  0  0  0
   25.7400  -21.1750   -6.7995 N   0  0  0  0  0  0  0  0  0  0  0  0
   26.7225  -20.4531   -6.2539 C   0  0  0  0  0  0  0  0  0  0  0  0
   26.9765  -19.9975   -4.9670 C   0  0  0  0  0  0  0  0  0  0  0  0
   28.0974  -19.2532   -4.6814 C   0  0  0  0  0  0  0  0  0  0  0  0
   28.9683  -18.9685   -5.7100 C   0  0  0  0  0  0  0  0  0  0  0  0
   28.7271  -19.4127   -6.9807 C   0  0  0  0  0  0  0  0  0  0  0  0
   27.5976  -20.1611   -7.2617 C   0  0  0  0  0  0  0  0  0  0  0  0
   25.4821  -20.1597  -10.5645 C   0  0  0  0  0  0  0  0  0  0  0  0
   25.5938  -18.9166  -10.5086 O   0  0  0  0  0  0  0  0  0  0  0  0
   23.5847  -19.6931  -13.0005 C   0  0  0  0  0  0  0  0  0  0  0  0
   22.5424  -20.1617  -12.0242 C   0  0  1  0  0  0  0  0  0  0  0  0
   22.1887  -21.6180  -12.1984 C   0  0  0  0  0  0  0  0  0  0  0  0
   22.9901  -19.9444  -10.6125 C   0  0  2  0  0  0  0  0  0  0  0  0
   24.2169  -20.7170  -10.3720 N   0  0  0  0  0  0  0  0  0  0  0  0
   21.9516  -20.3010   -9.6097 C   0  0  0  0  0  0  0  0  0  0  0  0
   22.1756  -21.3872   -8.7876 O   0  0  0  0  0  0  0  0  0  0  0  0
   20.8809  -19.6673   -9.4699 O   0  0  0  0  0  0  0  0  0  0  0  0
  1  5  1  0
  2  3  1  0
  2  1  1  0
  3  4  1  0
  4  5  1  0
  5  6  1  1
  6  8  1  0
  6  7  2  0
  8  9  1  0
  9 10  1  1
  9 20  1  0
 10 11  1  0
 11 19  1  0
 11 12  2  0
 12 13  1  0
 14 13  1  0
 14 15  2  0
 16 15  1  0
 17 16  2  0
 18 19  2  0
 18 17  1  0
 19 14  1  0
 20 26  1  0
 21 20  2  0
 23 22  1  6
 23 24  1  0
 25 23  1  0
 25 27  1  0
 25 26  1  1
 27 29  2  0
 27 28  1  0
M  END
$$$$
