PWV.pdb
     RDKit          3D

 29 31  0  0  1  0  0  0  0  0999 V2000
   27.9037  -20.8458  -15.4994 N   0  0  0  0  0  0  0  0  0  0  0  0
   28.5982  -20.6145  -16.7533 C   0  0  0  0  0  0  0  0  0  0  0  0
   28.1739  -19.1683  -17.0424 C   0  0  0  0  0  0  0  0  0  0  0  0
   27.9182  -18.5515  -15.6689 C   0  0  0  0  0  0  0  0  0  0  0  0
   28.2676  -19.6679  -14.7456 C   0  0  1  0  0  0  0  0  0  0  0  0
   27.5419  -19.6285  -13.4565 C   0  0  0  0  0  0  0  0  0  0  0  0
   27.6576  -18.6097  -12.7332 O   0  0  0  0  0  0  0  0  0  0  0  0
   26.7274  -20.6981  -13.0194 N   0  0  0  0  0  0  0  0  0  0  0  0
   25.7289  -20.6587  -12.0015 C   0  0  1  0  0  0  0  0  0  0  0  0
   24.4584  -21.3572  -12.3364 C   0  0  0  0  0  0  0  0  0  0  0  0
   23.3931  -20.3684  -12.7009 C   0  0  0  0  0  0  0  0  0  0  0  0
   23.3318  -19.6874  -13.8955 C   0  0  0  0  0  0  0  0  0  0  0  0
   22.2437  -18.9003  -13.8507 N   0  0  0  0  0  0  0  0  0  0  0  0
   21.6032  -19.0418  -12.6872 C   0  0  0  0  0  0  0  0  0  0  0  0
   20.4562  -18.4736  -12.1490 C   0  0  0  0  0  0  0  0  0  0  0  0
   20.0139  -18.8128  -10.8916 C   0  0  0  0  0  0  0  0  0  0  0  0
   20.7413  -19.7365  -10.1737 C   0  0  0  0  0  0  0  0  0  0  0  0
   21.8722  -20.3018  -10.6950 C   0  0  0  0  0  0  0  0  0  0  0  0
   22.3120  -19.9563  -11.9607 C   0  0  0  0  0  0  0  0  0  0  0  0
   26.2108  -21.1175  -10.6579 C   0  0  0  0  0  0  0  0  0  0  0  0
   26.6978  -22.2644  -10.5660 O   0  0  0  0  0  0  0  0  0  0  0  0
   28.7696  -19.9470   -8.3510 C   0  0  0  0  0  0  0  0  0  0  0  0
   27.5078  -19.9999   -7.5358 C   0  0  1  0  0  0  0  0  0  0  0  0
   26.8978  -18.6384   -7.3112 C   0  0  0  0  0  0  0  0  0  0  0  0
   26.4851  -20.8808   -8.1826 C   0  0  2  0  0  0  0  0  0  0  0  0
   26.1456  -20.3348   -9.5041 N   0  0  0  0  0  0  0  0  0  0  0  0
   25.2559  -21.0471   -7.3625 C   0  0  0  0  0  0  0  0  0  0  0  0
   25.3653  -21.6554   -6.1279 O   0  0  0  0  0  0  0  0  0  0  0  0
   24.1227  -20.6643   -7.7321 O   0  0  0  0  0  0  0  0  0  0  0  0
  1  5  1  0
  2  3  1  0
  2  1  1  0
  3  4  1  0
  4  5  1  0
  5  6  1  1
  6  8  1  0
  6  7  2  0
  8  9  1  0
  9 10  1  6
  9 20  1  0
 10 11  1  0
 11 19  1  0
 11 12  2  0
 12 13  1  0
 14 13  1  0
 14 15  2  0
 16 15  1  0
 17 16  2  0
 18 19  2  0
 18 17  1  0
 19 14  1  0
 20 26  1  0
 21 20  2  0
 23 22  1  6
 23 24  1  0
 25 23  1  0
 25 27  1  0
 25 26  1  6
 27 29  2  0
 27 28  1  0
M  END
$$$$
