PWV.pdb
     RDKit          3D

 29 31  0  0  1  0  0  0  0  0999 V2000
   27.9323  -20.5609  -15.6607 N   0  0  0  0  0  0  0  0  0  0  0  0
   28.7357  -20.3629  -16.8538 C   0  0  0  0  0  0  0  0  0  0  0  0
   28.4453  -18.8837  -17.1411 C   0  0  0  0  0  0  0  0  0  0  0  0
   28.1333  -18.2720  -15.7769 C   0  0  0  0  0  0  0  0  0  0  0  0
   28.3259  -19.4274  -14.8555 C   0  0  1  0  0  0  0  0  0  0  0  0
   27.5093  -19.3537  -13.6235 C   0  0  0  0  0  0  0  0  0  0  0  0
   27.6241  -18.3448  -12.8865 O   0  0  0  0  0  0  0  0  0  0  0  0
   26.6094  -20.3801  -13.2557 N   0  0  0  0  0  0  0  0  0  0  0  0
   25.5695  -20.3043  -12.2822 C   0  0  1  0  0  0  0  0  0  0  0  0
   24.3033  -20.9905  -12.6567 C   0  0  0  0  0  0  0  0  0  0  0  0
   23.4629  -20.1077  -13.5284 C   0  0  0  0  0  0  0  0  0  0  0  0
   23.9369  -19.0291  -14.2401 C   0  0  0  0  0  0  0  0  0  0  0  0
   22.8932  -18.4938  -14.8956 N   0  0  0  0  0  0  0  0  0  0  0  0
   21.7728  -19.1746  -14.6404 C   0  0  0  0  0  0  0  0  0  0  0  0
   20.4542  -19.0406  -15.0547 C   0  0  0  0  0  0  0  0  0  0  0  0
   19.4785  -19.9085  -14.6226 C   0  0  0  0  0  0  0  0  0  0  0  0
   19.8433  -20.9211  -13.7629 C   0  0  0  0  0  0  0  0  0  0  0  0
   21.1392  -21.0615  -13.3492 C   0  0  0  0  0  0  0  0  0  0  0  0
   22.1163  -20.1851  -13.7874 C   0  0  0  0  0  0  0  0  0  0  0  0
   25.9867  -20.7420  -10.9103 C   0  0  0  0  0  0  0  0  0  0  0  0
   26.4999  -21.8740  -10.7828 O   0  0  0  0  0  0  0  0  0  0  0  0
   26.8792  -19.8364   -6.1581 C   0  0  0  0  0  0  0  0  0  0  0  0
   26.5995  -19.3561   -7.5547 C   0  0  1  0  0  0  0  0  0  0  0  0
   27.7989  -18.7107   -8.2037 C   0  0  0  0  0  0  0  0  0  0  0  0
   26.1306  -20.4786   -8.4267 C   0  0  2  0  0  0  0  0  0  0  0  0
   25.8338  -19.9553   -9.7675 N   0  0  0  0  0  0  0  0  0  0  0  0
   24.9455  -21.1886   -7.8767 C   0  0  0  0  0  0  0  0  0  0  0  0
   25.1222  -22.0202   -6.7889 O   0  0  0  0  0  0  0  0  0  0  0  0
   23.7915  -21.0730   -8.3484 O   0  0  0  0  0  0  0  0  0  0  0  0
  1  5  1  0
  2  3  1  0
  2  1  1  0
  3  4  1  0
  4  5  1  0
  5  6  1  1
  6  8  1  0
  6  7  2  0
  8  9  1  0
  9 10  1  6
  9 20  1  0
 10 11  1  0
 11 19  1  0
 11 12  2  0
 12 13  1  0
 14 13  1  0
 14 15  2  0
 16 15  1  0
 17 16  2  0
 18 19  2  0
 18 17  1  0
 19 14  1  0
 20 26  1  0
 21 20  2  0
 23 22  1  1
 23 24  1  0
 25 23  1  0
 25 27  1  0
 25 26  1  6
 27 29  2  0
 27 28  1  0
M  END
$$$$
