PWV.pdb
     RDKit          3D

 29 31  0  0  1  0  0  0  0  0999 V2000
   31.1299  -22.8138  -12.3376 N   0  0  0  0  0  0  0  0  0  0  0  0
   32.3810  -23.2641  -12.9208 C   0  0  0  0  0  0  0  0  0  0  0  0
   32.9874  -21.9204  -13.3473 C   0  0  0  0  0  0  0  0  0  0  0  0
   32.4047  -20.8990  -12.3728 C   0  0  0  0  0  0  0  0  0  0  0  0
   31.5816  -21.7512  -11.4687 C   0  0  1  0  0  0  0  0  0  0  0  0
   30.4295  -21.0454  -10.8650 C   0  0  0  0  0  0  0  0  0  0  0  0
   30.6056  -19.8904  -10.4074 O   0  0  0  0  0  0  0  0  0  0  0  0
   29.1450  -21.6307  -10.7896 N   0  0  0  0  0  0  0  0  0  0  0  0
   27.9533  -21.0284  -10.2877 C   0  0  1  0  0  0  0  0  0  0  0  0
   26.6922  -21.5014  -10.9206 C   0  0  0  0  0  0  0  0  0  0  0  0
   25.5615  -20.5707  -10.6031 C   0  0  0  0  0  0  0  0  0  0  0  0
   25.4606  -19.2760  -11.0591 C   0  0  0  0  0  0  0  0  0  0  0  0
   24.3184  -18.7675  -10.5670 N   0  0  0  0  0  0  0  0  0  0  0  0
   23.6807  -19.6708   -9.8178 C   0  0  0  0  0  0  0  0  0  0  0  0
   22.4916  -19.6543   -9.1008 C   0  0  0  0  0  0  0  0  0  0  0  0
   22.0652  -20.7584   -8.4001 C   0  0  0  0  0  0  0  0  0  0  0  0
   22.8515  -21.8891   -8.4267 C   0  0  0  0  0  0  0  0  0  0  0  0
   24.0242  -21.9153   -9.1299 C   0  0  0  0  0  0  0  0  0  0  0  0
   24.4478  -20.8013   -9.8329 C   0  0  0  0  0  0  0  0  0  0  0  0
   27.8184  -21.0964   -8.7961 C   0  0  0  0  0  0  0  0  0  0  0  0
   27.9490  -22.2085   -8.2421 O   0  0  0  0  0  0  0  0  0  0  0  0
   28.0778  -18.8956   -4.4321 C   0  0  0  0  0  0  0  0  0  0  0  0
   28.1256  -18.8545   -5.9339 C   0  0  1  0  0  0  0  0  0  0  0  0
   29.5268  -18.7007   -6.4717 C   0  0  0  0  0  0  0  0  0  0  0  0
   27.5192  -20.0881   -6.5262 C   0  0  2  0  0  0  0  0  0  0  0  0
   27.5549  -19.9863   -7.9919 N   0  0  0  0  0  0  0  0  0  0  0  0
   26.1289  -20.3360   -6.0606 C   0  0  0  0  0  0  0  0  0  0  0  0
   25.9421  -20.8911   -4.8105 O   0  0  0  0  0  0  0  0  0  0  0  0
   25.1143  -20.0677   -6.7435 O   0  0  0  0  0  0  0  0  0  0  0  0
  1  5  1  0
  2  3  1  0
  2  1  1  0
  3  4  1  0
  4  5  1  0
  5  6  1  6
  6  8  1  0
  6  7  2  0
  8  9  1  0
  9 10  1  6
  9 20  1  0
 10 11  1  0
 11 19  1  0
 11 12  2  0
 12 13  1  0
 14 13  1  0
 14 15  2  0
 16 15  1  0
 17 16  2  0
 18 19  2  0
 18 17  1  0
 19 14  1  0
 20 26  1  0
 21 20  2  0
 23 22  1  1
 23 24  1  0
 25 23  1  0
 25 27  1  0
 25 26  1  6
 27 29  2  0
 27 28  1  0
M  END
$$$$
