IAN.pdb
     RDKit          3D

 22 21  0  0  1  0  0  0  0  0999 V2000
    7.5355  -12.1779   19.1350 C   0  0  0  0  0  0  0  0  0  0  0  0
    8.6745  -13.1683   19.4375 C   0  0  0  0  0  0  0  0  0  0  0  0
    8.2146  -13.9766   20.5988 C   0  0  2  0  0  0  0  0  0  0  0  0
    7.6967  -13.0873   21.6817 C   0  0  0  0  0  0  0  0  0  0  0  0
    9.1808  -15.0257   21.0855 C   0  0  2  0  0  0  0  0  0  0  0  0
    9.4347  -15.8663   19.8992 N   0  0  0  0  0  0  0  0  0  0  0  0
    8.6147  -15.9258   22.1101 C   0  0  0  0  0  0  0  0  0  0  0  0
    8.4583  -15.5950   23.3264 O   0  0  0  0  0  0  0  0  0  0  0  0
    6.7452  -19.1234   22.2096 C   0  0  0  0  0  0  0  0  0  0  0  0
    7.7863  -18.1953   22.8054 C   0  0  2  0  0  0  0  0  0  0  0  0
    8.2076  -17.2416   21.7641 N   0  0  0  0  0  0  0  0  0  0  0  0
    8.9427  -18.9394   23.3323 C   0  0  0  0  0  0  0  0  0  0  0  0
    8.7712  -19.8919   24.1463 O   0  0  0  0  0  0  0  0  0  0  0  0
   14.7490  -19.2205   23.6119 N   0  0  0  0  0  0  0  0  0  0  0  0
   13.7128  -20.0572   23.0857 C   0  0  0  0  0  0  0  0  0  0  0  0
   13.8700  -21.2883   23.1319 O   0  0  0  0  0  0  0  0  0  0  0  0
   12.5089  -19.4602   22.5128 C   0  0  0  0  0  0  0  0  0  0  0  0
   11.4305  -19.3371   23.5313 C   0  0  2  0  0  0  0  0  0  0  0  0
   10.2595  -18.6422   22.9709 N   0  0  0  0  0  0  0  0  0  0  0  0
   11.8784  -18.5089   24.6549 C   0  0  0  0  0  0  0  0  0  0  0  0
   12.3204  -19.0742   25.7083 O   0  0  0  0  0  0  0  0  0  0  0  0
   11.8620  -17.1474   24.6687 O   0  0  0  0  0  0  0  0  0  0  0  0
  1  2  1  0
  2  3  1  0
  3  4  1  1
  5  3  1  0
  5  6  1  6
  7  5  1  0
  7 11  1  0
  8  7  2  0
 10 11  1  0
 10 12  1  0
 10  9  1  6
 12 19  1  0
 13 12  2  0
 15 14  1  0
 16 15  2  0
 17 15  1  0
 18 17  1  6
 19 18  1  0
 20 22  1  0
 20 18  1  0
 21 20  2  0
M  END
$$$$
