IAN.pdb
     RDKit          3D

 22 21  0  0  1  0  0  0  0  0999 V2000
    5.7790  -11.2115   26.1144 C   0  0  0  0  0  0  0  0  0  0  0  0
    6.8460  -12.1720   25.5589 C   0  0  0  0  0  0  0  0  0  0  0  0
    6.9018  -13.3143   26.5105 C   0  0  2  0  0  0  0  0  0  0  0  0
    7.2141  -12.8306   27.8891 C   0  0  0  0  0  0  0  0  0  0  0  0
    7.7433  -14.4855   26.0734 C   0  0  2  0  0  0  0  0  0  0  0  0
    9.1053  -13.9304   25.9502 N   0  0  0  0  0  0  0  0  0  0  0  0
    7.3914  -15.0043   24.7364 C   0  0  0  0  0  0  0  0  0  0  0  0
    6.4089  -15.7797   24.5202 O   0  0  0  0  0  0  0  0  0  0  0  0
    7.8198  -14.0826   21.2665 C   0  0  0  0  0  0  0  0  0  0  0  0
    7.8613  -15.2142   22.2756 C   0  0  2  0  0  0  0  0  0  0  0  0
    8.1632  -14.6435   23.6002 N   0  0  0  0  0  0  0  0  0  0  0  0
    8.8549  -16.2369   21.9076 C   0  0  0  0  0  0  0  0  0  0  0  0
    8.7656  -16.8444   20.8021 O   0  0  0  0  0  0  0  0  0  0  0  0
   11.9015  -15.6045   23.8840 N   0  0  0  0  0  0  0  0  0  0  0  0
   12.6881  -16.0991   22.7943 C   0  0  0  0  0  0  0  0  0  0  0  0
   13.8252  -15.6283   22.6280 O   0  0  0  0  0  0  0  0  0  0  0  0
   12.1501  -17.1309   21.9112 C   0  0  0  0  0  0  0  0  0  0  0  0
   10.8664  -17.6732   22.4342 C   0  0  2  0  0  0  0  0  0  0  0  0
    9.9240  -16.5835   22.7381 N   0  0  0  0  0  0  0  0  0  0  0  0
   11.0842  -18.3704   23.7053 C   0  0  0  0  0  0  0  0  0  0  0  0
   10.5784  -17.8921   24.7729 O   0  0  0  0  0  0  0  0  0  0  0  0
   11.8018  -19.5190   23.8458 O   0  0  0  0  0  0  0  0  0  0  0  0
  1  2  1  0
  2  3  1  0
  3  4  1  1
  5  3  1  0
  5  6  1  6
  7  5  1  0
  7 11  1  0
  8  7  2  0
 10 11  1  0
 10 12  1  0
 10  9  1  6
 12 19  1  0
 13 12  2  0
 15 14  1  0
 16 15  2  0
 17 15  1  0
 18 17  1  1
 19 18  1  0
 20 22  1  0
 20 18  1  0
 21 20  2  0
M  END
$$$$
