IAN.pdb
     RDKit          3D

 22 21  0  0  1  0  0  0  0  0999 V2000
    2.4898  -18.1907   20.2551 C   0  0  0  0  0  0  0  0  0  0  0  0
    3.3374  -18.7121   21.4296 C   0  0  0  0  0  0  0  0  0  0  0  0
    4.5390  -17.8367   21.4860 C   0  0  2  0  0  0  0  0  0  0  0  0
    5.1340  -17.6785   20.1248 C   0  0  0  0  0  0  0  0  0  0  0  0
    5.5465  -18.1816   22.5522 C   0  0  2  0  0  0  0  0  0  0  0  0
    4.7687  -18.1702   23.8065 N   0  0  0  0  0  0  0  0  0  0  0  0
    6.6060  -17.1667   22.7196 C   0  0  0  0  0  0  0  0  0  0  0  0
    7.7190  -17.2060   22.1089 O   0  0  0  0  0  0  0  0  0  0  0  0
    6.8490  -13.7681   24.2320 C   0  0  0  0  0  0  0  0  0  0  0  0
    7.4860  -15.0765   23.8046 C   0  0  2  0  0  0  0  0  0  0  0  0
    6.4156  -16.0682   23.5992 N   0  0  0  0  0  0  0  0  0  0  0  0
    8.4618  -15.5578   24.7969 C   0  0  0  0  0  0  0  0  0  0  0  0
    9.4433  -14.8331   25.1299 O   0  0  0  0  0  0  0  0  0  0  0  0
   10.9917  -18.4007   28.2590 N   0  0  0  0  0  0  0  0  0  0  0  0
    9.6148  -18.7902   28.3163 C   0  0  0  0  0  0  0  0  0  0  0  0
    9.2685  -19.6009   29.1911 O   0  0  0  0  0  0  0  0  0  0  0  0
    8.6567  -18.2379   27.3619 C   0  0  0  0  0  0  0  0  0  0  0  0
    9.3187  -17.3013   26.4132 C   0  0  2  0  0  0  0  0  0  0  0  0
    8.3598  -16.8095   25.4099 N   0  0  0  0  0  0  0  0  0  0  0  0
   10.3625  -17.9947   25.6525 C   0  0  0  0  0  0  0  0  0  0  0  0
   11.5456  -18.0479   26.1237 O   0  0  0  0  0  0  0  0  0  0  0  0
   10.1694  -18.6047   24.4506 O   0  0  0  0  0  0  0  0  0  0  0  0
  1  2  1  0
  2  3  1  0
  3  4  1  6
  5  3  1  0
  5  6  1  1
  7  5  1  0
  7 11  1  0
  8  7  2  0
 10 11  1  0
 10 12  1  0
 10  9  1  1
 12 19  1  0
 13 12  2  0
 15 14  1  0
 16 15  2  0
 17 15  1  0
 18 17  1  1
 19 18  1  0
 20 22  1  0
 20 18  1  0
 21 20  2  0
M  END
$$$$
