IAN.pdb
     RDKit          3D

 22 21  0  0  1  0  0  0  0  0999 V2000
    6.1828  -10.6559   25.9448 C   0  0  0  0  0  0  0  0  0  0  0  0
    7.3587  -11.5792   26.3115 C   0  0  0  0  0  0  0  0  0  0  0  0
    6.9455  -12.9484   25.9020 C   0  0  2  0  0  0  0  0  0  0  0  0
    5.5641  -13.2442   26.3878 C   0  0  0  0  0  0  0  0  0  0  0  0
    7.9389  -14.0433   26.1945 C   0  0  2  0  0  0  0  0  0  0  0  0
    9.2054  -13.5500   25.6191 N   0  0  0  0  0  0  0  0  0  0  0  0
    7.6439  -15.3141   25.5027 C   0  0  0  0  0  0  0  0  0  0  0  0
    6.7743  -16.1476   25.9057 O   0  0  0  0  0  0  0  0  0  0  0  0
    8.2500  -16.7099   22.1319 C   0  0  0  0  0  0  0  0  0  0  0  0
    8.0482  -16.9291   23.6189 C   0  0  2  0  0  0  0  0  0  0  0  0
    8.3437  -15.6662   24.3183 N   0  0  0  0  0  0  0  0  0  0  0  0
    8.8950  -18.0204   24.1292 C   0  0  0  0  0  0  0  0  0  0  0  0
    8.7090  -19.2085   23.7380 O   0  0  0  0  0  0  0  0  0  0  0  0
   12.1817  -19.4295   23.1134 N   0  0  0  0  0  0  0  0  0  0  0  0
   12.5759  -18.4398   24.0703 C   0  0  0  0  0  0  0  0  0  0  0  0
   13.2417  -17.4695   23.6731 O   0  0  0  0  0  0  0  0  0  0  0  0
   12.1959  -18.5846   25.4733 C   0  0  0  0  0  0  0  0  0  0  0  0
   10.7466  -18.8945   25.6107 C   0  0  2  0  0  0  0  0  0  0  0  0
    9.9248  -17.8089   25.0500 N   0  0  0  0  0  0  0  0  0  0  0  0
   10.3724  -18.9802   27.0255 C   0  0  0  0  0  0  0  0  0  0  0  0
    9.5882  -18.1036   27.5167 O   0  0  0  0  0  0  0  0  0  0  0  0
   10.8039  -19.9450   27.8839 O   0  0  0  0  0  0  0  0  0  0  0  0
  1  2  1  0
  2  3  1  0
  3  4  1  1
  5  3  1  0
  5  6  1  6
  7  5  1  0
  7 11  1  0
  8  7  2  0
 10 11  1  0
 10 12  1  0
 10  9  1  6
 12 19  1  0
 13 12  2  0
 15 14  1  0
 16 15  2  0
 17 15  1  0
 18 17  1  1
 19 18  1  0
 20 22  1  0
 20 18  1  0
 21 20  2  0
M  END
$$$$
