IAN.pdb
     RDKit          3D

 22 21  0  0  1  0  0  0  0  0999 V2000
    6.2573  -11.1877   26.5558 C   0  0  0  0  0  0  0  0  0  0  0  0
    5.6442  -12.4255   25.8763 C   0  0  0  0  0  0  0  0  0  0  0  0
    6.7739  -13.3656   25.6452 C   0  0  2  0  0  0  0  0  0  0  0  0
    7.9179  -12.6576   24.9957 C   0  0  0  0  0  0  0  0  0  0  0  0
    6.4112  -14.6688   24.9811 C   0  0  2  0  0  0  0  0  0  0  0  0
    5.3222  -15.2128   25.8157 N   0  0  0  0  0  0  0  0  0  0  0  0
    7.4923  -15.6742   25.0145 C   0  0  0  0  0  0  0  0  0  0  0  0
    7.8185  -16.3203   26.0582 O   0  0  0  0  0  0  0  0  0  0  0  0
    9.7579  -17.2236   22.4314 C   0  0  0  0  0  0  0  0  0  0  0  0
    9.2798  -17.0083   23.8545 C   0  0  2  0  0  0  0  0  0  0  0  0
    8.2347  -15.9695   23.8405 N   0  0  0  0  0  0  0  0  0  0  0  0
   10.3852  -16.6265   24.7493 C   0  0  0  0  0  0  0  0  0  0  0  0
   11.2961  -15.8494   24.3423 O   0  0  0  0  0  0  0  0  0  0  0  0
    9.5456  -14.5370   28.5984 N   0  0  0  0  0  0  0  0  0  0  0  0
   10.7763  -14.9139   27.9708 C   0  0  0  0  0  0  0  0  0  0  0  0
   11.3464  -14.0819   27.2461 O   0  0  0  0  0  0  0  0  0  0  0  0
   11.3317  -16.2473   28.1888 C   0  0  0  0  0  0  0  0  0  0  0  0
   11.6839  -16.9027   26.8997 C   0  0  2  0  0  0  0  0  0  0  0  0
   10.4860  -17.0893   26.0641 N   0  0  0  0  0  0  0  0  0  0  0  0
   12.2117  -18.2497   27.1365 C   0  0  0  0  0  0  0  0  0  0  0  0
   11.5357  -19.2600   26.7533 O   0  0  0  0  0  0  0  0  0  0  0  0
   13.3973  -18.5206   27.7488 O   0  0  0  0  0  0  0  0  0  0  0  0
  1  2  1  0
  2  3  1  0
  3  4  1  6
  5  3  1  0
  5  6  1  1
  7  5  1  0
  7 11  1  0
  8  7  2  0
 10 11  1  0
 10 12  1  0
 10  9  1  6
 12 19  1  0
 13 12  2  0
 15 14  1  0
 16 15  2  0
 17 15  1  0
 18 17  1  1
 19 18  1  0
 20 22  1  0
 20 18  1  0
 21 20  2  0
M  END
$$$$
