IAN.pdb
     RDKit          3D

 22 21  0  0  1  0  0  0  0  0999 V2000
    7.7854  -12.1279   21.0562 C   0  0  0  0  0  0  0  0  0  0  0  0
    7.5437  -13.1989   19.9772 C   0  0  0  0  0  0  0  0  0  0  0  0
    8.2592  -14.4169   20.4438 C   0  0  2  0  0  0  0  0  0  0  0  0
    9.6515  -14.0756   20.8646 C   0  0  0  0  0  0  0  0  0  0  0  0
    8.1778  -15.6110   19.5281 C   0  0  2  0  0  0  0  0  0  0  0  0
    6.7301  -15.8503   19.3686 N   0  0  0  0  0  0  0  0  0  0  0  0
    8.7340  -16.8476   20.1127 C   0  0  0  0  0  0  0  0  0  0  0  0
    8.1481  -17.5235   21.0145 O   0  0  0  0  0  0  0  0  0  0  0  0
   11.5949  -19.1299   19.3230 C   0  0  0  0  0  0  0  0  0  0  0  0
   10.5677  -18.5592   20.2818 C   0  0  2  0  0  0  0  0  0  0  0  0
    9.9885  -17.3482   19.6741 N   0  0  0  0  0  0  0  0  0  0  0  0
   11.1585  -18.2540   21.5957 C   0  0  0  0  0  0  0  0  0  0  0  0
   11.6861  -17.1251   21.8112 O   0  0  0  0  0  0  0  0  0  0  0  0
   11.2828  -19.2650   27.3752 N   0  0  0  0  0  0  0  0  0  0  0  0
   12.0329  -19.7141   26.2410 C   0  0  0  0  0  0  0  0  0  0  0  0
   13.2505  -19.9138   26.3823 O   0  0  0  0  0  0  0  0  0  0  0  0
   11.3661  -19.9261   24.9587 C   0  0  0  0  0  0  0  0  0  0  0  0
   11.7525  -18.8824   23.9704 C   0  0  2  0  0  0  0  0  0  0  0  0
   11.1681  -19.1711   22.6501 N   0  0  0  0  0  0  0  0  0  0  0  0
   13.2042  -18.8820   23.7661 C   0  0  0  0  0  0  0  0  0  0  0  0
   13.9249  -18.0572   24.4179 O   0  0  0  0  0  0  0  0  0  0  0  0
   13.8669  -19.7124   22.9145 O   0  0  0  0  0  0  0  0  0  0  0  0
  1  2  1  0
  2  3  1  0
  3  4  1  6
  5  3  1  0
  5  6  1  1
  7  5  1  0
  7 11  1  0
  8  7  2  0
 10 11  1  0
 10 12  1  0
 10  9  1  6
 12 19  1  0
 13 12  2  0
 15 14  1  0
 16 15  2  0
 17 15  1  0
 18 17  1  1
 19 18  1  0
 20 22  1  0
 20 18  1  0
 21 20  2  0
M  END
$$$$
