IAN.pdb
     RDKit          3D

 22 21  0  0  1  0  0  0  0  0999 V2000
    6.1041  -11.8246   27.3466 C   0  0  0  0  0  0  0  0  0  0  0  0
    5.6386  -12.9458   26.4001 C   0  0  0  0  0  0  0  0  0  0  0  0
    6.8783  -13.5442   25.8358 C   0  0  2  0  0  0  0  0  0  0  0  0
    7.7913  -12.4749   25.3309 C   0  0  0  0  0  0  0  0  0  0  0  0
    6.6704  -14.6746   24.8610 C   0  0  2  0  0  0  0  0  0  0  0  0
    6.0397  -15.7389   25.6658 N   0  0  0  0  0  0  0  0  0  0  0  0
    7.9270  -15.2480   24.3388 C   0  0  0  0  0  0  0  0  0  0  0  0
    8.7787  -14.5826   23.6715 O   0  0  0  0  0  0  0  0  0  0  0  0
   10.0376  -16.3349   22.9625 C   0  0  0  0  0  0  0  0  0  0  0  0
    9.5335  -17.1699   24.1239 C   0  0  2  0  0  0  0  0  0  0  0  0
    8.2447  -16.6125   24.5710 N   0  0  0  0  0  0  0  0  0  0  0  0
   10.5020  -17.2033   25.2326 C   0  0  0  0  0  0  0  0  0  0  0  0
   11.7090  -17.5123   25.0162 O   0  0  0  0  0  0  0  0  0  0  0  0
   11.2940  -14.3415   27.0587 N   0  0  0  0  0  0  0  0  0  0  0  0
   10.7862  -14.6673   28.3574 C   0  0  0  0  0  0  0  0  0  0  0  0
   10.4405  -13.7373   29.1044 O   0  0  0  0  0  0  0  0  0  0  0  0
   10.6850  -16.0632   28.7757 C   0  0  0  0  0  0  0  0  0  0  0  0
   11.0914  -16.9856   27.6805 C   0  0  2  0  0  0  0  0  0  0  0  0
   10.1501  -16.9027   26.5513 N   0  0  0  0  0  0  0  0  0  0  0  0
   11.0370  -18.3780   28.1361 C   0  0  0  0  0  0  0  0  0  0  0  0
   11.9460  -18.8144   28.9157 O   0  0  0  0  0  0  0  0  0  0  0  0
   10.0695  -19.2701   27.7868 O   0  0  0  0  0  0  0  0  0  0  0  0
  1  2  1  0
  2  3  1  0
  3  4  1  6
  5  3  1  0
  5  6  1  1
  7  5  1  0
  7 11  1  0
  8  7  2  0
 10 11  1  0
 10 12  1  0
 10  9  1  6
 12 19  1  0
 13 12  2  0
 15 14  1  0
 16 15  2  0
 17 15  1  0
 18 17  1  1
 19 18  1  0
 20 22  1  0
 20 18  1  0
 21 20  2  0
M  END
$$$$
