IAN.pdb
     RDKit          3D

 22 21  0  0  1  0  0  0  0  0999 V2000
    7.5083  -11.4045   20.1671 C   0  0  0  0  0  0  0  0  0  0  0  0
    7.6417  -12.9280   20.3426 C   0  0  0  0  0  0  0  0  0  0  0  0
    8.7440  -13.3481   19.4361 C   0  0  2  0  0  0  0  0  0  0  0  0
    8.4648  -12.9084   18.0359 C   0  0  0  0  0  0  0  0  0  0  0  0
    9.1636  -14.7913   19.5464 C   0  0  2  0  0  0  0  0  0  0  0  0
    7.9862  -15.5501   19.0814 N   0  0  0  0  0  0  0  0  0  0  0  0
    9.4128  -15.2336   20.9331 C   0  0  0  0  0  0  0  0  0  0  0  0
    8.5250  -15.2307   21.8414 O   0  0  0  0  0  0  0  0  0  0  0  0
   10.0872  -17.5048   22.8143 C   0  0  0  0  0  0  0  0  0  0  0  0
   10.9245  -16.2489   22.6665 C   0  0  2  0  0  0  0  0  0  0  0  0
   10.6985  -15.6968   21.3190 N   0  0  0  0  0  0  0  0  0  0  0  0
   12.3551  -16.5179   22.8886 C   0  0  0  0  0  0  0  0  0  0  0  0
   12.7397  -17.0877   23.9501 O   0  0  0  0  0  0  0  0  0  0  0  0
   15.2758  -14.0306   19.8436 N   0  0  0  0  0  0  0  0  0  0  0  0
   14.8168  -15.3812   19.9699 C   0  0  0  0  0  0  0  0  0  0  0  0
   13.8252  -15.7300   19.3084 O   0  0  0  0  0  0  0  0  0  0  0  0
   15.5095  -16.3105   20.8590 C   0  0  0  0  0  0  0  0  0  0  0  0
   14.7678  -16.4889   22.1370 C   0  0  2  0  0  0  0  0  0  0  0  0
   13.3415  -16.1677   21.9626 N   0  0  0  0  0  0  0  0  0  0  0  0
   15.2606  -15.5518   23.1510 C   0  0  0  0  0  0  0  0  0  0  0  0
   16.5084  -15.5106   23.4073 O   0  0  0  0  0  0  0  0  0  0  0  0
   14.4753  -14.6968   23.8625 O   0  0  0  0  0  0  0  0  0  0  0  0
  1  2  1  0
  2  3  1  0
  3  4  1  6
  5  3  1  0
  5  6  1  1
  7  5  1  0
  7 11  1  0
  8  7  2  0
 10 11  1  0
 10 12  1  0
 10  9  1  6
 12 19  1  0
 13 12  2  0
 15 14  1  0
 16 15  2  0
 17 15  1  0
 18 17  1  6
 19 18  1  0
 20 22  1  0
 20 18  1  0
 21 20  2  0
M  END
$$$$
