IAN.pdb
     RDKit          3D

 22 21  0  0  1  0  0  0  0  0999 V2000
    7.7084  -12.0082   19.8915 C   0  0  0  0  0  0  0  0  0  0  0  0
    7.6429  -13.4562   19.3731 C   0  0  0  0  0  0  0  0  0  0  0  0
    8.0200  -14.3193   20.5247 C   0  0  2  0  0  0  0  0  0  0  0  0
    9.3429  -13.9017   21.0791 C   0  0  0  0  0  0  0  0  0  0  0  0
    7.9007  -15.8036   20.2926 C   0  0  2  0  0  0  0  0  0  0  0  0
    6.5386  -15.9800   19.7523 N   0  0  0  0  0  0  0  0  0  0  0  0
    7.9555  -16.6053   21.5315 C   0  0  0  0  0  0  0  0  0  0  0  0
    7.1506  -16.4537   22.5023 O   0  0  0  0  0  0  0  0  0  0  0  0
    8.8667  -19.8242   22.6830 C   0  0  0  0  0  0  0  0  0  0  0  0
    9.0675  -18.3472   22.9631 C   0  0  2  0  0  0  0  0  0  0  0  0
    8.9433  -17.6129   21.6916 N   0  0  0  0  0  0  0  0  0  0  0  0
   10.3718  -18.0842   23.5941 C   0  0  0  0  0  0  0  0  0  0  0  0
   10.6887  -18.6671   24.6707 O   0  0  0  0  0  0  0  0  0  0  0  0
   15.6537  -17.9563   21.6455 N   0  0  0  0  0  0  0  0  0  0  0  0
   14.7601  -18.5486   22.5949 C   0  0  0  0  0  0  0  0  0  0  0  0
   15.2475  -19.1611   23.5592 O   0  0  0  0  0  0  0  0  0  0  0  0
   13.3154  -18.4256   22.4173 C   0  0  0  0  0  0  0  0  0  0  0  0
   12.7598  -17.3291   23.2566 C   0  0  2  0  0  0  0  0  0  0  0  0
   11.3075  -17.1990   23.0520 N   0  0  0  0  0  0  0  0  0  0  0  0
   13.3300  -16.0388   22.8577 C   0  0  0  0  0  0  0  0  0  0  0  0
   13.1867  -15.6391   21.6559 O   0  0  0  0  0  0  0  0  0  0  0  0
   14.0195  -15.2071   23.6865 O   0  0  0  0  0  0  0  0  0  0  0  0
  1  2  1  0
  2  3  1  0
  3  4  1  6
  5  3  1  0
  5  6  1  1
  7  5  1  0
  7 11  1  0
  8  7  2  0
 10 11  1  0
 10 12  1  0
 10  9  1  6
 12 19  1  0
 13 12  2  0
 15 14  1  0
 16 15  2  0
 17 15  1  0
 18 17  1  6
 19 18  1  0
 20 22  1  0
 20 18  1  0
 21 20  2  0
M  END
$$$$
