IAN.pdb
     RDKit          3D

 22 21  0  0  1  0  0  0  0  0999 V2000
    8.6151  -11.5197   20.1623 C   0  0  0  0  0  0  0  0  0  0  0  0
    7.7035  -12.7601   20.1520 C   0  0  0  0  0  0  0  0  0  0  0  0
    8.6146  -13.9358   20.1227 C   0  0  2  0  0  0  0  0  0  0  0  0
    9.6905  -13.7375   19.1053 C   0  0  0  0  0  0  0  0  0  0  0  0
    7.9399  -15.2807   20.0379 C   0  0  2  0  0  0  0  0  0  0  0  0
    7.0282  -15.3052   21.1984 N   0  0  0  0  0  0  0  0  0  0  0  0
    8.8612  -16.4205   20.2183 C   0  0  0  0  0  0  0  0  0  0  0  0
    9.2148  -16.8647   21.3545 O   0  0  0  0  0  0  0  0  0  0  0  0
   10.2553  -19.0594   17.9610 C   0  0  0  0  0  0  0  0  0  0  0  0
   10.2580  -18.2790   19.2615 C   0  0  2  0  0  0  0  0  0  0  0  0
    9.4061  -17.0889   19.0901 N   0  0  0  0  0  0  0  0  0  0  0  0
   11.6212  -17.8932   19.6632 C   0  0  0  0  0  0  0  0  0  0  0  0
   12.4991  -18.7789   19.8731 O   0  0  0  0  0  0  0  0  0  0  0  0
   15.1997  -16.2807   18.2517 N   0  0  0  0  0  0  0  0  0  0  0  0
   14.5520  -15.0280   18.5008 C   0  0  0  0  0  0  0  0  0  0  0  0
   14.7023  -14.1132   17.6744 O   0  0  0  0  0  0  0  0  0  0  0  0
   13.7396  -14.8491   19.7016 C   0  0  0  0  0  0  0  0  0  0  0  0
   13.3501  -16.1597   20.2899 C   0  0  2  0  0  0  0  0  0  0  0  0
   12.0103  -16.5613   19.8300 N   0  0  0  0  0  0  0  0  0  0  0  0
   13.2507  -16.0576   21.7489 C   0  0  0  0  0  0  0  0  0  0  0  0
   14.2901  -15.7630   22.4252 O   0  0  0  0  0  0  0  0  0  0  0  0
   12.1087  -16.2563   22.4634 O   0  0  0  0  0  0  0  0  0  0  0  0
  1  2  1  0
  2  3  1  0
  3  4  1  6
  5  3  1  0
  5  6  1  1
  7  5  1  0
  7 11  1  0
  8  7  2  0
 10 11  1  0
 10 12  1  0
 10  9  1  6
 12 19  1  0
 13 12  2  0
 15 14  1  0
 16 15  2  0
 17 15  1  0
 18 17  1  6
 19 18  1  0
 20 22  1  0
 20 18  1  0
 21 20  2  0
M  END
$$$$
