VHH.pdb
     RDKit          3D

 28 29  0  0  1  0  0  0  0  0999 V2000
    6.3565  -13.5225   20.1903 C   0  0  0  0  0  0  0  0  0  0  0  0
    7.8231  -13.3107   20.0203 C   0  0  2  0  0  0  0  0  0  0  0  0
    8.1065  -13.1196   18.5429 C   0  0  0  0  0  0  0  0  0  0  0  0
    8.6671  -14.4566   20.4998 C   0  0  2  0  0  0  0  0  0  0  0  0
    8.4117  -15.5996   19.6536 N   0  0  0  0  0  0  0  0  0  0  0  0
    8.4063  -14.8060   21.9156 C   0  0  0  0  0  0  0  0  0  0  0  0
    8.6813  -13.9426   22.7875 O   0  0  0  0  0  0  0  0  0  0  0  0
    7.8758  -16.0327   22.3316 N   0  0  0  0  0  0  0  0  0  0  0  0
    7.6884  -16.2985   23.7646 C   0  0  1  0  0  0  0  0  0  0  0  0
    7.0792  -17.6487   23.9274 C   0  0  0  0  0  0  0  0  0  0  0  0
    7.0051  -18.2187   25.2575 C   0  0  0  0  0  0  0  0  0  0  0  0
    7.7411  -19.3522   25.6373 C   0  0  0  0  0  0  0  0  0  0  0  0
    7.4937  -19.6723   26.9127 N   0  0  0  0  0  0  0  0  0  0  0  0
    6.6147  -18.7711   27.3648 C   0  0  0  0  0  0  0  0  0  0  0  0
    6.3274  -17.9076   26.3741 N   0  0  0  0  0  0  0  0  0  0  0  0
    8.9292  -16.0279   24.4914 C   0  0  0  0  0  0  0  0  0  0  0  0
    8.9526  -15.0570   25.3046 O   0  0  0  0  0  0  0  0  0  0  0  0
   10.1312  -16.7612   24.3793 N   0  0  0  0  0  0  0  0  0  0  0  0
   11.1784  -16.7116   25.3687 C   0  0  1  0  0  0  0  0  0  0  0  0
   10.6822  -17.0792   26.7470 C   0  0  0  0  0  0  0  0  0  0  0  0
   10.3098  -15.8885   27.5502 C   0  0  0  0  0  0  0  0  0  0  0  0
   10.0606  -14.6601   26.9761 C   0  0  0  0  0  0  0  0  0  0  0  0
    9.7494  -13.7810   27.9456 N   0  0  0  0  0  0  0  0  0  0  0  0
    9.8015  -14.4446   29.1138 C   0  0  0  0  0  0  0  0  0  0  0  0
   10.1453  -15.7381   28.8730 N   0  0  0  0  0  0  0  0  0  0  0  0
   12.3913  -17.4468   24.9784 C   0  0  0  0  0  0  0  0  0  0  0  0
   13.5176  -17.4872   25.7752 O   0  0  0  0  0  0  0  0  0  0  0  0
   12.4639  -18.0880   23.8777 O   0  0  0  0  0  0  0  0  0  0  0  0
  2  1  1  6
  2  3  1  0
  4  2  1  0
  4  5  1  6
  6  8  1  0
  6  4  1  0
  7  6  2  0
  9  8  1  0
  9 10  1  6
 11 12  2  0
 11 10  1  0
 13 12  1  0
 14 15  2  0
 14 13  1  0
 15 11  1  0
 16 18  1  0
 16  9  1  0
 17 16  2  0
 19 18  1  0
 19 26  1  0
 20 21  1  0
 19 20  1  1
 21 25  1  0
 22 21  2  0
 22 23  1  0
 23 24  1  0
 25 24  2  0
 26 27  1  0
 28 26  2  0
M  END
$$$$
