VHH.pdb
     RDKit          3D

 28 29  0  0  1  0  0  0  0  0999 V2000
   11.9322  -19.5454   17.6624 C   0  0  0  0  0  0  0  0  0  0  0  0
   10.4576  -19.3902   17.8237 C   0  0  2  0  0  0  0  0  0  0  0  0
    9.7727  -20.2827   16.8069 C   0  0  0  0  0  0  0  0  0  0  0  0
    9.9616  -17.9896   17.6051 C   0  0  2  0  0  0  0  0  0  0  0  0
   10.3999  -17.5462   16.3016 N   0  0  0  0  0  0  0  0  0  0  0  0
   10.4330  -17.0467   18.6459 C   0  0  0  0  0  0  0  0  0  0  0  0
   11.4161  -16.3148   18.3649 O   0  0  0  0  0  0  0  0  0  0  0  0
    9.8495  -16.9274   19.9127 N   0  0  0  0  0  0  0  0  0  0  0  0
   10.4010  -15.9718   20.8832 C   0  0  1  0  0  0  0  0  0  0  0  0
    9.2836  -15.1690   21.4556 C   0  0  0  0  0  0  0  0  0  0  0  0
    8.4202  -14.4397   20.5489 C   0  0  0  0  0  0  0  0  0  0  0  0
    8.8897  -13.4047   19.7248 C   0  0  0  0  0  0  0  0  0  0  0  0
    7.8948  -12.8982   18.9870 N   0  0  0  0  0  0  0  0  0  0  0  0
    6.7939  -13.5828   19.3164 C   0  0  0  0  0  0  0  0  0  0  0  0
    7.1132  -14.4998   20.2474 N   0  0  0  0  0  0  0  0  0  0  0  0
   11.2828  -16.6644   21.8234 C   0  0  0  0  0  0  0  0  0  0  0  0
   10.8838  -17.7521   22.3354 O   0  0  0  0  0  0  0  0  0  0  0  0
   12.5675  -16.2348   22.2233 N   0  0  0  0  0  0  0  0  0  0  0  0
   13.4182  -17.0044   23.0964 C   0  0  1  0  0  0  0  0  0  0  0  0
   14.7018  -17.4249   22.4209 C   0  0  0  0  0  0  0  0  0  0  0  0
   14.4709  -18.3927   21.3201 C   0  0  0  0  0  0  0  0  0  0  0  0
   14.4154  -18.0063   19.9979 C   0  0  0  0  0  0  0  0  0  0  0  0
   14.1959  -19.0926   19.2353 N   0  0  0  0  0  0  0  0  0  0  0  0
   14.1141  -20.1484   20.0637 C   0  0  0  0  0  0  0  0  0  0  0  0
   14.2827  -19.7207   21.3436 N   0  0  0  0  0  0  0  0  0  0  0  0
   13.6370  -16.3758   24.4081 C   0  0  0  0  0  0  0  0  0  0  0  0
   14.3817  -16.9803   25.4007 O   0  0  0  0  0  0  0  0  0  0  0  0
   13.1471  -15.2335   24.6964 O   0  0  0  0  0  0  0  0  0  0  0  0
  2  1  1  6
  2  3  1  0
  4  2  1  0
  4  5  1  6
  6  8  1  0
  6  4  1  0
  7  6  2  0
  9  8  1  0
  9 10  1  1
 11 12  2  0
 11 10  1  0
 13 12  1  0
 14 15  2  0
 14 13  1  0
 15 11  1  0
 16 18  1  0
 16  9  1  0
 17 16  2  0
 19 18  1  0
 19 26  1  0
 20 21  1  0
 19 20  1  6
 21 25  1  0
 22 21  2  0
 22 23  1  0
 23 24  1  0
 25 24  2  0
 26 27  1  0
 28 26  2  0
M  END
$$$$
