VHH.pdb
     RDKit          3D

 28 29  0  0  1  0  0  0  0  0999 V2000
    8.2927  -13.9118   20.6506 C   0  0  0  0  0  0  0  0  0  0  0  0
    8.7221  -12.9699   19.5768 C   0  0  2  0  0  0  0  0  0  0  0  0
    7.5405  -12.0901   19.2173 C   0  0  0  0  0  0  0  0  0  0  0  0
    9.1841  -13.6459   18.3179 C   0  0  2  0  0  0  0  0  0  0  0  0
    8.1068  -14.4684   17.8172 N   0  0  0  0  0  0  0  0  0  0  0  0
   10.3975  -14.4705   18.5235 C   0  0  0  0  0  0  0  0  0  0  0  0
   10.2430  -15.7130   18.6401 O   0  0  0  0  0  0  0  0  0  0  0  0
   11.6938  -13.9472   18.5944 N   0  0  0  0  0  0  0  0  0  0  0  0
   12.8433  -14.8565   18.6992 C   0  0  1  0  0  0  0  0  0  0  0  0
   13.9916  -14.2676   17.9539 C   0  0  0  0  0  0  0  0  0  0  0  0
   15.1617  -15.0904   17.7228 C   0  0  0  0  0  0  0  0  0  0  0  0
   15.2336  -16.4337   18.1238 C   0  0  0  0  0  0  0  0  0  0  0  0
   16.4167  -16.9643   17.7931 N   0  0  0  0  0  0  0  0  0  0  0  0
   17.1100  -15.9938   17.1877 C   0  0  0  0  0  0  0  0  0  0  0  0
   16.3571  -14.8796   17.1488 N   0  0  0  0  0  0  0  0  0  0  0  0
   13.0662  -15.2243   20.0978 C   0  0  0  0  0  0  0  0  0  0  0  0
   13.2361  -14.2985   20.9454 O   0  0  0  0  0  0  0  0  0  0  0  0
   13.1065  -16.5394   20.6116 N   0  0  0  0  0  0  0  0  0  0  0  0
   13.3774  -16.8352   21.9963 C   0  0  1  0  0  0  0  0  0  0  0  0
   12.5256  -17.9683   22.5173 C   0  0  0  0  0  0  0  0  0  0  0  0
   11.0845  -17.6180   22.5624 C   0  0  0  0  0  0  0  0  0  0  0  0
   10.6448  -16.3332   22.8007 C   0  0  0  0  0  0  0  0  0  0  0  0
    9.2998  -16.3225   22.7825 N   0  0  0  0  0  0  0  0  0  0  0  0
    8.8968  -17.5814   22.5366 C   0  0  0  0  0  0  0  0  0  0  0  0
    9.9907  -18.3778   22.4012 N   0  0  0  0  0  0  0  0  0  0  0  0
   14.8080  -17.0074   22.2917 C   0  0  0  0  0  0  0  0  0  0  0  0
   15.2758  -17.2247   23.5719 O   0  0  0  0  0  0  0  0  0  0  0  0
   15.6939  -16.9646   21.3744 O   0  0  0  0  0  0  0  0  0  0  0  0
  2  1  1  1
  2  3  1  0
  4  2  1  0
  4  5  1  1
  6  8  1  0
  6  4  1  0
  7  6  2  0
  9  8  1  0
  9 10  1  1
 11 12  2  0
 11 10  1  0
 13 12  1  0
 14 15  2  0
 14 13  1  0
 15 11  1  0
 16 18  1  0
 16  9  1  0
 17 16  2  0
 19 18  1  0
 19 26  1  0
 20 21  1  0
 19 20  1  6
 21 25  1  0
 22 21  2  0
 22 23  1  0
 23 24  1  0
 25 24  2  0
 26 27  1  0
 28 26  2  0
M  END
$$$$
