VHH.pdb
     RDKit          3D

 28 29  0  0  1  0  0  0  0  0999 V2000
    7.4807  -12.0575   19.4627 C   0  0  0  0  0  0  0  0  0  0  0  0
    8.4189  -13.1982   19.6710 C   0  0  2  0  0  0  0  0  0  0  0  0
    9.3488  -13.2719   18.4755 C   0  0  0  0  0  0  0  0  0  0  0  0
    7.7416  -14.5322   19.8021 C   0  0  2  0  0  0  0  0  0  0  0  0
    6.8496  -14.4838   20.9378 N   0  0  0  0  0  0  0  0  0  0  0  0
    8.7024  -15.6486   19.9597 C   0  0  0  0  0  0  0  0  0  0  0  0
    9.1743  -15.8518   21.1074 O   0  0  0  0  0  0  0  0  0  0  0  0
    9.1097  -16.4815   18.9110 N   0  0  0  0  0  0  0  0  0  0  0  0
   10.0531  -17.5771   19.1733 C   0  0  1  0  0  0  0  0  0  0  0  0
    9.5994  -18.7894   18.4349 C   0  0  0  0  0  0  0  0  0  0  0  0
    8.5293  -19.5850   19.0019 C   0  0  0  0  0  0  0  0  0  0  0  0
    7.9401  -19.2880   20.2409 C   0  0  0  0  0  0  0  0  0  0  0  0
    6.9800  -20.1730   20.5334 N   0  0  0  0  0  0  0  0  0  0  0  0
    6.9363  -21.0345   19.5112 C   0  0  0  0  0  0  0  0  0  0  0  0
    7.8617  -20.6791   18.6018 N   0  0  0  0  0  0  0  0  0  0  0  0
   11.4252  -17.1235   18.9437 C   0  0  0  0  0  0  0  0  0  0  0  0
   11.7137  -16.6198   17.8178 O   0  0  0  0  0  0  0  0  0  0  0  0
   12.4849  -17.1868   19.8754 N   0  0  0  0  0  0  0  0  0  0  0  0
   13.7784  -16.5966   19.6372 C   0  0  1  0  0  0  0  0  0  0  0  0
   13.6755  -15.1902   19.0966 C   0  0  0  0  0  0  0  0  0  0  0  0
   15.0043  -14.5979   18.8046 C   0  0  0  0  0  0  0  0  0  0  0  0
   16.1784  -15.2995   18.9768 C   0  0  0  0  0  0  0  0  0  0  0  0
   17.2122  -14.5099   18.6341 N   0  0  0  0  0  0  0  0  0  0  0  0
   16.6982  -13.3279   18.2514 C   0  0  0  0  0  0  0  0  0  0  0  0
   15.3433  -13.3801   18.3554 N   0  0  0  0  0  0  0  0  0  0  0  0
   14.6952  -16.7076   20.7821 C   0  0  0  0  0  0  0  0  0  0  0  0
   14.3029  -17.2445   21.9917 O   0  0  0  0  0  0  0  0  0  0  0  0
   15.9061  -16.3114   20.7148 O   0  0  0  0  0  0  0  0  0  0  0  0
  2  1  1  6
  2  3  1  0
  4  2  1  0
  4  5  1  1
  6  8  1  0
  6  4  1  0
  7  6  2  0
  9  8  1  0
  9 10  1  6
 11 12  2  0
 11 10  1  0
 13 12  1  0
 14 15  2  0
 14 13  1  0
 15 11  1  0
 16 18  1  0
 16  9  1  0
 17 16  2  0
 19 18  1  0
 19 26  1  0
 20 21  1  0
 19 20  1  1
 21 25  1  0
 22 21  2  0
 22 23  1  0
 23 24  1  0
 25 24  2  0
 26 27  1  0
 28 26  2  0
M  END
$$$$
