VHH.pdb
     RDKit          3D

 28 29  0  0  1  0  0  0  0  0999 V2000
    8.1398  -13.3490   20.5007 C   0  0  0  0  0  0  0  0  0  0  0  0
    9.1452  -12.7968   19.5473 C   0  0  2  0  0  0  0  0  0  0  0  0
    8.5443  -11.5755   18.8790 C   0  0  0  0  0  0  0  0  0  0  0  0
    9.5513  -13.7537   18.4634 C   0  0  2  0  0  0  0  0  0  0  0  0
    8.3790  -14.0961   17.6912 N   0  0  0  0  0  0  0  0  0  0  0  0
   10.1856  -14.9829   18.9935 C   0  0  0  0  0  0  0  0  0  0  0  0
    9.5011  -16.0378   18.9911 O   0  0  0  0  0  0  0  0  0  0  0  0
   11.4926  -15.0339   19.4921 N   0  0  0  0  0  0  0  0  0  0  0  0
   12.0462  -16.3122   19.9594 C   0  0  1  0  0  0  0  0  0  0  0  0
   13.2567  -16.6356   19.1527 C   0  0  0  0  0  0  0  0  0  0  0  0
   13.0826  -17.3205   17.8877 C   0  0  0  0  0  0  0  0  0  0  0  0
   13.0816  -16.6469   16.6561 C   0  0  0  0  0  0  0  0  0  0  0  0
   12.9035  -17.5063   15.6460 N   0  0  0  0  0  0  0  0  0  0  0  0
   12.7896  -18.7195   16.1979 C   0  0  0  0  0  0  0  0  0  0  0  0
   12.8971  -18.6024   17.5337 N   0  0  0  0  0  0  0  0  0  0  0  0
   12.1930  -16.2931   21.4152 C   0  0  0  0  0  0  0  0  0  0  0  0
   12.8318  -15.3360   21.9447 O   0  0  0  0  0  0  0  0  0  0  0  0
   11.6769  -17.2546   22.3120 N   0  0  0  0  0  0  0  0  0  0  0  0
   11.7168  -17.0960   23.7443 C   0  0  1  0  0  0  0  0  0  0  0  0
   10.4034  -17.4557   24.3973 C   0  0  0  0  0  0  0  0  0  0  0  0
    9.2603  -16.7074   23.8184 C   0  0  0  0  0  0  0  0  0  0  0  0
    9.3008  -15.3454   23.6088 C   0  0  0  0  0  0  0  0  0  0  0  0
    8.1295  -14.9513   23.0774 N   0  0  0  0  0  0  0  0  0  0  0  0
    7.3616  -16.0480   22.9535 C   0  0  0  0  0  0  0  0  0  0  0  0
    8.0540  -17.1266   23.4078 N   0  0  0  0  0  0  0  0  0  0  0  0
   12.8724  -17.7509   24.3763 C   0  0  0  0  0  0  0  0  0  0  0  0
   13.1813  -17.5751   25.7100 O   0  0  0  0  0  0  0  0  0  0  0  0
   13.6519  -18.5190   23.7202 O   0  0  0  0  0  0  0  0  0  0  0  0
  2  1  1  1
  2  3  1  0
  4  2  1  0
  4  5  1  1
  6  8  1  0
  6  4  1  0
  7  6  2  0
  9  8  1  0
  9 10  1  6
 11 12  2  0
 11 10  1  0
 13 12  1  0
 14 15  2  0
 14 13  1  0
 15 11  1  0
 16 18  1  0
 16  9  1  0
 17 16  2  0
 19 18  1  0
 19 26  1  0
 20 21  1  0
 19 20  1  1
 21 25  1  0
 22 21  2  0
 22 23  1  0
 23 24  1  0
 25 24  2  0
 26 27  1  0
 28 26  2  0
M  END
$$$$
