VHH.pdb
     RDKit          3D

 28 29  0  0  1  0  0  0  0  0999 V2000
   16.0055  -16.4383   18.2478 C   0  0  0  0  0  0  0  0  0  0  0  0
   15.1531  -16.0352   17.0921 C   0  0  2  0  0  0  0  0  0  0  0  0
   15.9812  -16.1554   15.8275 C   0  0  0  0  0  0  0  0  0  0  0  0
   14.6443  -14.6244   17.1690 C   0  0  2  0  0  0  0  0  0  0  0  0
   15.7664  -13.7443   17.4019 N   0  0  0  0  0  0  0  0  0  0  0  0
   13.6272  -14.4401   18.2302 C   0  0  0  0  0  0  0  0  0  0  0  0
   14.0199  -14.0042   19.3424 O   0  0  0  0  0  0  0  0  0  0  0  0
   12.2662  -14.7220   18.0640 N   0  0  0  0  0  0  0  0  0  0  0  0
   11.3361  -14.5152   19.1826 C   0  0  1  0  0  0  0  0  0  0  0  0
    9.9482  -14.4369   18.6456 C   0  0  0  0  0  0  0  0  0  0  0  0
    8.8583  -14.2151   19.5743 C   0  0  0  0  0  0  0  0  0  0  0  0
    9.0676  -13.9306   20.9329 C   0  0  0  0  0  0  0  0  0  0  0  0
    7.9011  -13.7694   21.5684 N   0  0  0  0  0  0  0  0  0  0  0  0
    6.9437  -13.9434   20.6507 C   0  0  0  0  0  0  0  0  0  0  0  0
    7.5201  -14.2087   19.4646 N   0  0  0  0  0  0  0  0  0  0  0  0
   11.5951  -15.4949   20.2381 C   0  0  0  0  0  0  0  0  0  0  0  0
   11.7045  -16.7149   19.9152 O   0  0  0  0  0  0  0  0  0  0  0  0
   11.7447  -15.2101   21.6134 N   0  0  0  0  0  0  0  0  0  0  0  0
   11.7750  -16.2320   22.6298 C   0  0  1  0  0  0  0  0  0  0  0  0
   13.0000  -16.1309   23.5074 C   0  0  0  0  0  0  0  0  0  0  0  0
   14.2533  -16.0302   22.7195 C   0  0  0  0  0  0  0  0  0  0  0  0
   14.2579  -16.0040   21.3412 C   0  0  0  0  0  0  0  0  0  0  0  0
   15.5291  -15.9088   20.9114 N   0  0  0  0  0  0  0  0  0  0  0  0
   16.3147  -15.8754   22.0019 C   0  0  0  0  0  0  0  0  0  0  0  0
   15.5334  -15.9499   23.1125 N   0  0  0  0  0  0  0  0  0  0  0  0
   10.5242  -16.3355   23.3970 C   0  0  0  0  0  0  0  0  0  0  0  0
    9.4428  -15.5114   23.1591 O   0  0  0  0  0  0  0  0  0  0  0  0
   10.3746  -17.1972   24.3260 O   0  0  0  0  0  0  0  0  0  0  0  0
  2  1  1  1
  2  3  1  0
  4  2  1  0
  4  5  1  1
  6  8  1  0
  6  4  1  0
  7  6  2  0
  9  8  1  0
  9 10  1  6
 11 12  2  0
 11 10  1  0
 13 12  1  0
 14 15  2  0
 14 13  1  0
 15 11  1  0
 16 18  1  0
 16  9  1  0
 17 16  2  0
 19 18  1  0
 19 26  1  0
 20 21  1  0
 19 20  1  1
 21 25  1  0
 22 21  2  0
 22 23  1  0
 23 24  1  0
 25 24  2  0
 26 27  1  0
 28 26  2  0
M  END
$$$$
