VHH.pdb
     RDKit          3D

 28 29  0  0  1  0  0  0  0  0999 V2000
    7.2741  -12.9228   21.6569 C   0  0  0  0  0  0  0  0  0  0  0  0
    8.2867  -13.2764   20.6205 C   0  0  2  0  0  0  0  0  0  0  0  0
    7.9741  -12.4879   19.3635 C   0  0  0  0  0  0  0  0  0  0  0  0
    8.3024  -14.7319   20.2510 C   0  0  2  0  0  0  0  0  0  0  0  0
    6.9789  -15.1070   19.8087 N   0  0  0  0  0  0  0  0  0  0  0  0
    8.7275  -15.6022   21.3719 C   0  0  0  0  0  0  0  0  0  0  0  0
    7.8270  -16.1044   22.0917 O   0  0  0  0  0  0  0  0  0  0  0  0
   10.0637  -15.8930   21.6707 N   0  0  0  0  0  0  0  0  0  0  0  0
   10.3824  -16.8041   22.7786 C   0  0  1  0  0  0  0  0  0  0  0  0
   11.5654  -17.6270   22.3992 C   0  0  0  0  0  0  0  0  0  0  0  0
   11.4664  -18.4868   21.2371 C   0  0  0  0  0  0  0  0  0  0  0  0
   10.5011  -19.4999   21.1250 C   0  0  0  0  0  0  0  0  0  0  0  0
   10.6246  -20.1452   19.9594 N   0  0  0  0  0  0  0  0  0  0  0  0
   11.6478  -19.5716   19.3165 C   0  0  0  0  0  0  0  0  0  0  0  0
   12.1453  -18.5842   20.0827 N   0  0  0  0  0  0  0  0  0  0  0  0
   10.4561  -16.0588   24.0357 C   0  0  0  0  0  0  0  0  0  0  0  0
   10.4947  -14.7937   23.9856 O   0  0  0  0  0  0  0  0  0  0  0  0
   10.4837  -16.6211   25.3311 N   0  0  0  0  0  0  0  0  0  0  0  0
    9.5745  -16.2286   26.3788 C   0  0  1  0  0  0  0  0  0  0  0  0
    8.1503  -16.1165   25.8891 C   0  0  0  0  0  0  0  0  0  0  0  0
    7.6266  -14.7315   25.9849 C   0  0  0  0  0  0  0  0  0  0  0  0
    8.3737  -13.6947   26.5024 C   0  0  0  0  0  0  0  0  0  0  0  0
    7.6415  -12.5669   26.4608 N   0  0  0  0  0  0  0  0  0  0  0  0
    6.4506  -12.8872   25.9252 C   0  0  0  0  0  0  0  0  0  0  0  0
    6.4397  -14.2151   25.6326 N   0  0  0  0  0  0  0  0  0  0  0  0
    9.7012  -17.0375   27.6007 C   0  0  0  0  0  0  0  0  0  0  0  0
    9.5388  -18.4082   27.5980 O   0  0  0  0  0  0  0  0  0  0  0  0
    9.9694  -16.5104   28.7313 O   0  0  0  0  0  0  0  0  0  0  0  0
  2  1  1  1
  2  3  1  0
  4  2  1  0
  4  5  1  1
  6  8  1  0
  6  4  1  0
  7  6  2  0
  9  8  1  0
  9 10  1  6
 11 12  2  0
 11 10  1  0
 13 12  1  0
 14 15  2  0
 14 13  1  0
 15 11  1  0
 16 18  1  0
 16  9  1  0
 17 16  2  0
 19 18  1  0
 19 26  1  0
 20 21  1  0
 19 20  1  6
 21 25  1  0
 22 21  2  0
 22 23  1  0
 23 24  1  0
 25 24  2  0
 26 27  1  0
 28 26  2  0
M  END
$$$$
