VHH.pdb
     RDKit          3D

 28 29  0  0  1  0  0  0  0  0999 V2000
    7.9735  -13.6632   20.3868 C   0  0  0  0  0  0  0  0  0  0  0  0
    8.4125  -13.0331   19.1082 C   0  0  2  0  0  0  0  0  0  0  0  0
    7.2093  -12.3657   18.4707 C   0  0  0  0  0  0  0  0  0  0  0  0
    8.9758  -14.0028   18.1093 C   0  0  2  0  0  0  0  0  0  0  0  0
    7.9447  -14.9532   17.7611 N   0  0  0  0  0  0  0  0  0  0  0  0
   10.1717  -14.7155   18.6154 C   0  0  0  0  0  0  0  0  0  0  0  0
   10.0165  -15.8952   19.0223 O   0  0  0  0  0  0  0  0  0  0  0  0
   11.4525  -14.1530   18.6651 N   0  0  0  0  0  0  0  0  0  0  0  0
   12.5859  -14.9591   19.1393 C   0  0  1  0  0  0  0  0  0  0  0  0
   13.8444  -14.4021   18.5680 C   0  0  0  0  0  0  0  0  0  0  0  0
   15.0841  -15.1162   18.7976 C   0  0  0  0  0  0  0  0  0  0  0  0
   16.1263  -14.5920   19.5784 C   0  0  0  0  0  0  0  0  0  0  0  0
   17.1545  -15.4466   19.6318 N   0  0  0  0  0  0  0  0  0  0  0  0
   16.7996  -16.5106   18.9032 C   0  0  0  0  0  0  0  0  0  0  0  0
   15.5651  -16.3080   18.4086 N   0  0  0  0  0  0  0  0  0  0  0  0
   12.5175  -15.1146   20.5927 C   0  0  0  0  0  0  0  0  0  0  0  0
   11.4839  -14.6996   21.1960 O   0  0  0  0  0  0  0  0  0  0  0  0
   13.5094  -15.7002   21.4102 N   0  0  0  0  0  0  0  0  0  0  0  0
   13.2080  -16.6322   22.4679 C   0  0  1  0  0  0  0  0  0  0  0  0
   12.1981  -17.6722   22.0444 C   0  0  0  0  0  0  0  0  0  0  0  0
   10.8071  -17.2791   22.3794 C   0  0  0  0  0  0  0  0  0  0  0  0
   10.4999  -16.0548   22.9339 C   0  0  0  0  0  0  0  0  0  0  0  0
    9.1702  -15.9844   23.1251 N   0  0  0  0  0  0  0  0  0  0  0  0
    8.6463  -17.1465   22.6978 C   0  0  0  0  0  0  0  0  0  0  0  0
    9.6494  -17.9423   22.2399 N   0  0  0  0  0  0  0  0  0  0  0  0
   14.4035  -17.2135   23.0977 C   0  0  0  0  0  0  0  0  0  0  0  0
   14.4421  -17.5510   24.4354 O   0  0  0  0  0  0  0  0  0  0  0  0
   15.4711  -17.4367   22.4355 O   0  0  0  0  0  0  0  0  0  0  0  0
  2  1  1  1
  2  3  1  0
  4  2  1  0
  4  5  1  1
  6  8  1  0
  6  4  1  0
  7  6  2  0
  9  8  1  0
  9 10  1  1
 11 12  2  0
 11 10  1  0
 13 12  1  0
 14 15  2  0
 14 13  1  0
 15 11  1  0
 16 18  1  0
 16  9  1  0
 17 16  2  0
 19 18  1  0
 19 26  1  0
 20 21  1  0
 19 20  1  6
 21 25  1  0
 22 21  2  0
 22 23  1  0
 23 24  1  0
 25 24  2  0
 26 27  1  0
 28 26  2  0
M  END
$$$$
