VHH.pdb
     RDKit          3D

 28 29  0  0  1  0  0  0  0  0999 V2000
    7.3726  -12.8126   21.5176 C   0  0  0  0  0  0  0  0  0  0  0  0
    8.4068  -13.0848   20.4778 C   0  0  2  0  0  0  0  0  0  0  0  0
    8.1371  -12.1788   19.2921 C   0  0  0  0  0  0  0  0  0  0  0  0
    8.4126  -14.5001   19.9756 C   0  0  2  0  0  0  0  0  0  0  0  0
    7.1373  -14.7708   19.3527 N   0  0  0  0  0  0  0  0  0  0  0  0
    8.6717  -15.4871   21.0494 C   0  0  0  0  0  0  0  0  0  0  0  0
    7.6804  -16.0840   21.5418 O   0  0  0  0  0  0  0  0  0  0  0  0
    9.9471  -15.7887   21.5410 N   0  0  0  0  0  0  0  0  0  0  0  0
   10.0960  -16.7465   22.6453 C   0  0  1  0  0  0  0  0  0  0  0  0
   11.0453  -17.8170   22.2286 C   0  0  0  0  0  0  0  0  0  0  0  0
   10.7901  -18.5246   20.9901 C   0  0  0  0  0  0  0  0  0  0  0  0
   10.0004  -19.6837   20.9296 C   0  0  0  0  0  0  0  0  0  0  0  0
    9.9227  -20.1390   19.6738 N   0  0  0  0  0  0  0  0  0  0  0  0
   10.6443  -19.3000   18.9224 C   0  0  0  0  0  0  0  0  0  0  0  0
   11.1586  -18.3402   19.7122 N   0  0  0  0  0  0  0  0  0  0  0  0
   10.3880  -16.0354   23.8904 C   0  0  0  0  0  0  0  0  0  0  0  0
   10.5418  -14.7789   23.8457 O   0  0  0  0  0  0  0  0  0  0  0  0
   10.5131  -16.6221   25.1691 N   0  0  0  0  0  0  0  0  0  0  0  0
    9.6343  -16.3087   26.2681 C   0  0  1  0  0  0  0  0  0  0  0  0
    8.1826  -16.2860   25.8521 C   0  0  0  0  0  0  0  0  0  0  0  0
    7.6038  -14.9204   25.8934 C   0  0  0  0  0  0  0  0  0  0  0  0
    8.3390  -13.8189   26.2768 C   0  0  0  0  0  0  0  0  0  0  0  0
    7.5540  -12.7282   26.2159 N   0  0  0  0  0  0  0  0  0  0  0  0
    6.3418  -13.1352   25.8004 C   0  0  0  0  0  0  0  0  0  0  0  0
    6.3705  -14.4802   25.6021 N   0  0  0  0  0  0  0  0  0  0  0  0
    9.8770  -17.1262   27.4666 C   0  0  0  0  0  0  0  0  0  0  0  0
   10.1965  -16.5680   28.6878 O   0  0  0  0  0  0  0  0  0  0  0  0
    9.8039  -18.3997   27.4379 O   0  0  0  0  0  0  0  0  0  0  0  0
  2  1  1  1
  2  3  1  0
  4  2  1  0
  4  5  1  1
  6  8  1  0
  6  4  1  0
  7  6  2  0
  9  8  1  0
  9 10  1  6
 11 12  2  0
 11 10  1  0
 13 12  1  0
 14 15  2  0
 14 13  1  0
 15 11  1  0
 16 18  1  0
 16  9  1  0
 17 16  2  0
 19 18  1  0
 19 26  1  0
 20 21  1  0
 19 20  1  6
 21 25  1  0
 22 21  2  0
 22 23  1  0
 23 24  1  0
 25 24  2  0
 26 27  1  0
 28 26  2  0
M  END
$$$$
