VHH.pdb
     RDKit          3D

 28 29  0  0  1  0  0  0  0  0999 V2000
    7.1311  -12.7799   19.0510 C   0  0  0  0  0  0  0  0  0  0  0  0
    8.1816  -13.5729   18.3493 C   0  0  2  0  0  0  0  0  0  0  0  0
    7.6561  -13.9464   16.9768 C   0  0  0  0  0  0  0  0  0  0  0  0
    8.5602  -14.8451   19.0519 C   0  0  2  0  0  0  0  0  0  0  0  0
    7.4972  -15.8058   18.8652 N   0  0  0  0  0  0  0  0  0  0  0  0
    8.8150  -14.6461   20.4976 C   0  0  0  0  0  0  0  0  0  0  0  0
    9.7986  -13.9329   20.8217 O   0  0  0  0  0  0  0  0  0  0  0  0
    8.0284  -15.2033   21.5126 N   0  0  0  0  0  0  0  0  0  0  0  0
    8.3620  -14.9442   22.9200 C   0  0  1  0  0  0  0  0  0  0  0  0
    7.1450  -14.4416   23.6178 C   0  0  0  0  0  0  0  0  0  0  0  0
    7.2373  -14.1251   25.0288 C   0  0  0  0  0  0  0  0  0  0  0  0
    6.6198  -14.9027   26.0210 C   0  0  0  0  0  0  0  0  0  0  0  0
    6.8586  -14.3969   27.2365 N   0  0  0  0  0  0  0  0  0  0  0  0
    7.6164  -13.3103   27.0513 C   0  0  0  0  0  0  0  0  0  0  0  0
    7.8387  -13.1534   25.7339 N   0  0  0  0  0  0  0  0  0  0  0  0
    9.0373  -16.1067   23.4977 C   0  0  0  0  0  0  0  0  0  0  0  0
    8.5852  -17.2601   23.2337 O   0  0  0  0  0  0  0  0  0  0  0  0
   10.1736  -16.0720   24.3360 N   0  0  0  0  0  0  0  0  0  0  0  0
   10.7344  -17.2494   24.9503 C   0  0  1  0  0  0  0  0  0  0  0  0
   12.2187  -17.3740   24.7008 C   0  0  0  0  0  0  0  0  0  0  0  0
   12.5268  -17.7508   23.2991 C   0  0  0  0  0  0  0  0  0  0  0  0
   11.5434  -18.0796   22.3906 C   0  0  0  0  0  0  0  0  0  0  0  0
   12.1203  -18.3739   21.2115 N   0  0  0  0  0  0  0  0  0  0  0  0
   13.4475  -18.2331   21.3735 C   0  0  0  0  0  0  0  0  0  0  0  0
   13.6988  -17.8507   22.6541 N   0  0  0  0  0  0  0  0  0  0  0  0
   10.3743  -17.4008   26.3685 C   0  0  0  0  0  0  0  0  0  0  0  0
   10.7875  -18.4801   27.1231 O   0  0  0  0  0  0  0  0  0  0  0  0
    9.6580  -16.5374   26.9762 O   0  0  0  0  0  0  0  0  0  0  0  0
  2  1  1  1
  2  3  1  0
  4  2  1  0
  4  5  1  1
  6  8  1  0
  6  4  1  0
  7  6  2  0
  9  8  1  0
  9 10  1  1
 11 12  2  0
 11 10  1  0
 13 12  1  0
 14 15  2  0
 14 13  1  0
 15 11  1  0
 16 18  1  0
 16  9  1  0
 17 16  2  0
 19 18  1  0
 19 26  1  0
 20 21  1  0
 19 20  1  1
 21 25  1  0
 22 21  2  0
 22 23  1  0
 23 24  1  0
 25 24  2  0
 26 27  1  0
 28 26  2  0
M  END
$$$$
