VHH.pdb
     RDKit          3D

 28 29  0  0  1  0  0  0  0  0999 V2000
    7.7697  -12.9749   26.8258 C   0  0  0  0  0  0  0  0  0  0  0  0
    7.0523  -12.7774   25.5331 C   0  0  2  0  0  0  0  0  0  0  0  0
    5.8791  -11.8486   25.7789 C   0  0  0  0  0  0  0  0  0  0  0  0
    6.5109  -14.0434   24.9335 C   0  0  2  0  0  0  0  0  0  0  0  0
    5.5996  -14.6456   25.8794 N   0  0  0  0  0  0  0  0  0  0  0  0
    7.5767  -15.0071   24.5730 C   0  0  0  0  0  0  0  0  0  0  0  0
    7.6570  -16.0647   25.2485 O   0  0  0  0  0  0  0  0  0  0  0  0
    8.4904  -14.8065   23.5316 N   0  0  0  0  0  0  0  0  0  0  0  0
    9.4564  -15.8613   23.1950 C   0  0  1  0  0  0  0  0  0  0  0  0
    9.9156  -15.6624   21.7913 C   0  0  0  0  0  0  0  0  0  0  0  0
    9.0101  -16.0019   20.7122 C   0  0  0  0  0  0  0  0  0  0  0  0
    7.7365  -16.5482   20.9364 C   0  0  0  0  0  0  0  0  0  0  0  0
    7.1048  -16.7688   19.7776 N   0  0  0  0  0  0  0  0  0  0  0  0
    7.9419  -16.3773   18.8106 C   0  0  0  0  0  0  0  0  0  0  0  0
    9.0754  -15.9214   19.3735 N   0  0  0  0  0  0  0  0  0  0  0  0
   10.4838  -15.9505   24.2330 C   0  0  0  0  0  0  0  0  0  0  0  0
   10.8721  -14.8817   24.7910 O   0  0  0  0  0  0  0  0  0  0  0  0
   11.0974  -17.1376   24.6907 N   0  0  0  0  0  0  0  0  0  0  0  0
   11.3613  -17.4005   26.0834 C   0  0  1  0  0  0  0  0  0  0  0  0
   10.2078  -16.9972   26.9710 C   0  0  0  0  0  0  0  0  0  0  0  0
   10.5103  -15.7891   27.7776 C   0  0  0  0  0  0  0  0  0  0  0  0
   11.6153  -15.0001   27.5381 C   0  0  0  0  0  0  0  0  0  0  0  0
   11.6258  -13.9854   28.4212 N   0  0  0  0  0  0  0  0  0  0  0  0
   10.5439  -14.1318   29.2060 C   0  0  0  0  0  0  0  0  0  0  0  0
    9.8583  -15.2383   28.8124 N   0  0  0  0  0  0  0  0  0  0  0  0
   11.8375  -18.7676   26.3436 C   0  0  0  0  0  0  0  0  0  0  0  0
   13.0869  -19.0257   26.8704 O   0  0  0  0  0  0  0  0  0  0  0  0
   11.1157  -19.7899   26.0945 O   0  0  0  0  0  0  0  0  0  0  0  0
  2  1  1  1
  2  3  1  0
  4  2  1  0
  4  5  1  1
  6  8  1  0
  6  4  1  0
  7  6  2  0
  9  8  1  0
  9 10  1  6
 11 12  2  0
 11 10  1  0
 13 12  1  0
 14 15  2  0
 14 13  1  0
 15 11  1  0
 16 18  1  0
 16  9  1  0
 17 16  2  0
 19 18  1  0
 19 26  1  0
 20 21  1  0
 19 20  1  1
 21 25  1  0
 22 21  2  0
 22 23  1  0
 23 24  1  0
 25 24  2  0
 26 27  1  0
 28 26  2  0
M  END
$$$$
