SNF.pdb
     RDKit          3D

 26 26  0  0  1  0  0  0  0  0999 V2000
    8.4087  -14.0924   17.3475 O   0  0  0  0  0  0  0  0  0  0  0  0
    7.2955  -13.5695   17.9893 C   0  0  0  0  0  0  0  0  0  0  0  0
    7.6674  -13.1654   19.4085 C   0  0  2  0  0  0  0  0  0  0  0  0
    8.8923  -12.4106   19.3607 N   0  0  0  0  0  0  0  0  0  0  0  0
    7.8596  -14.4430   20.1617 C   0  0  0  0  0  0  0  0  0  0  0  0
    6.8943  -15.2432   20.3501 O   0  0  0  0  0  0  0  0  0  0  0  0
   10.4135  -19.1607   21.3097 N   0  0  0  0  0  0  0  0  0  0  0  0
   11.0047  -17.8857   21.6408 C   0  0  0  0  0  0  0  0  0  0  0  0
   11.9051  -17.9230   22.4870 O   0  0  0  0  0  0  0  0  0  0  0  0
   10.4877  -16.7200   20.9576 C   0  0  0  0  0  0  0  0  0  0  0  0
    9.2330  -16.0718   21.5306 C   0  0  2  0  0  0  0  0  0  0  0  0
    9.1069  -14.8291   20.6985 N   0  0  0  0  0  0  0  0  0  0  0  0
    9.4610  -15.5693   22.8870 C   0  0  0  0  0  0  0  0  0  0  0  0
    9.6426  -14.3073   23.0365 O   0  0  0  0  0  0  0  0  0  0  0  0
    9.4858  -16.3943   24.0298 N   0  0  0  0  0  0  0  0  0  0  0  0
    9.0753  -15.8035   25.3107 C   0  0  1  0  0  0  0  0  0  0  0  0
    7.6479  -15.3531   25.1124 C   0  0  0  0  0  0  0  0  0  0  0  0
    7.3731  -14.0020   25.6424 C   0  0  0  0  0  0  0  0  0  0  0  0
    6.5129  -13.1425   25.0085 C   0  0  0  0  0  0  0  0  0  0  0  0
    6.3081  -11.8975   25.5656 C   0  0  0  0  0  0  0  0  0  0  0  0
    6.9395  -11.5072   26.7265 C   0  0  0  0  0  0  0  0  0  0  0  0
    7.8089  -12.3754   27.3678 C   0  0  0  0  0  0  0  0  0  0  0  0
    7.9958  -13.6039   26.7965 C   0  0  0  0  0  0  0  0  0  0  0  0
    9.2113  -16.7898   26.3927 C   0  0  0  0  0  0  0  0  0  0  0  0
    9.6201  -16.4923   27.6803 O   0  0  0  0  0  0  0  0  0  0  0  0
    8.9405  -18.0072   26.1516 O   0  0  0  0  0  0  0  0  0  0  0  0
  2  1  1  0
  3  2  1  0
  3  4  1  6
  5  6  2  0
  5  3  1  0
  7  8  1  0
  8  9  2  0
  8 10  1  0
 11 10  1  6
 11 12  1  0
 12  5  1  0
 13 15  1  0
 13 11  1  0
 14 13  2  0
 16 15  1  0
 16 17  1  6
 18 17  1  0
 18 23  2  0
 19 18  1  0
 20 19  2  0
 20 21  1  0
 21 22  2  0
 22 23  1  0
 24 16  1  0
 25 24  1  0
 26 24  2  0
M  END
$$$$
