SNF.pdb
     RDKit          3D

 26 26  0  0  1  0  0  0  0  0999 V2000
    6.0498  -18.1030   23.7060 O   0  0  0  0  0  0  0  0  0  0  0  0
    5.5233  -18.9202   22.7162 C   0  0  0  0  0  0  0  0  0  0  0  0
    5.0781  -18.0698   21.5354 C   0  0  2  0  0  0  0  0  0  0  0  0
    4.6718  -18.9480   20.4694 N   0  0  0  0  0  0  0  0  0  0  0  0
    6.2740  -17.2660   21.1349 C   0  0  0  0  0  0  0  0  0  0  0  0
    7.1173  -17.7178   20.3028 O   0  0  0  0  0  0  0  0  0  0  0  0
    8.7046  -13.0701   19.0223 N   0  0  0  0  0  0  0  0  0  0  0  0
    8.1931  -12.9044   20.3623 C   0  0  0  0  0  0  0  0  0  0  0  0
    8.6319  -11.9276   20.9800 O   0  0  0  0  0  0  0  0  0  0  0  0
    7.2373  -13.8842   20.8309 C   0  0  0  0  0  0  0  0  0  0  0  0
    7.7817  -15.2363   21.2759 C   0  0  2  0  0  0  0  0  0  0  0  0
    6.5311  -15.9769   21.6498 N   0  0  0  0  0  0  0  0  0  0  0  0
    8.5206  -15.1284   22.5355 C   0  0  0  0  0  0  0  0  0  0  0  0
    9.7070  -14.6400   22.4949 O   0  0  0  0  0  0  0  0  0  0  0  0
    7.9971  -15.5259   23.7827 N   0  0  0  0  0  0  0  0  0  0  0  0
    8.8419  -15.3422   24.9704 C   0  0  1  0  0  0  0  0  0  0  0  0
    7.8867  -15.1887   26.1296 C   0  0  0  0  0  0  0  0  0  0  0  0
    7.2399  -13.8623   26.1936 C   0  0  0  0  0  0  0  0  0  0  0  0
    7.9727  -12.7034   26.1716 C   0  0  0  0  0  0  0  0  0  0  0  0
    7.2957  -11.5034   26.2349 C   0  0  0  0  0  0  0  0  0  0  0  0
    5.9215  -11.4470   26.3180 C   0  0  0  0  0  0  0  0  0  0  0  0
    5.1801  -12.6178   26.3401 C   0  0  0  0  0  0  0  0  0  0  0  0
    5.8735  -13.7949   26.2762 C   0  0  0  0  0  0  0  0  0  0  0  0
    9.7476  -16.4891   25.1328 C   0  0  0  0  0  0  0  0  0  0  0  0
    9.7938  -17.5802   24.2837 O   0  0  0  0  0  0  0  0  0  0  0  0
   10.5529  -16.5014   26.1150 O   0  0  0  0  0  0  0  0  0  0  0  0
  2  1  1  0
  3  2  1  0
  3  4  1  6
  5  6  2  0
  5  3  1  0
  7  8  1  0
  8  9  2  0
  8 10  1  0
 11 10  1  1
 11 12  1  0
 12  5  1  0
 13 15  1  0
 13 11  1  0
 14 13  2  0
 16 15  1  0
 16 17  1  1
 18 17  1  0
 18 23  2  0
 19 18  1  0
 20 19  2  0
 20 21  1  0
 21 22  2  0
 22 23  1  0
 24 16  1  0
 25 24  1  0
 26 24  2  0
M  END
$$$$
