SNF.pdb
     RDKit          3D

 26 26  0  0  1  0  0  0  0  0999 V2000
    6.4150  -20.5653   21.1886 O   0  0  0  0  0  0  0  0  0  0  0  0
    7.1153  -19.4839   21.7034 C   0  0  0  0  0  0  0  0  0  0  0  0
    6.7600  -18.2272   20.9223 C   0  0  2  0  0  0  0  0  0  0  0  0
    6.6313  -18.5766   19.5317 N   0  0  0  0  0  0  0  0  0  0  0  0
    7.8989  -17.2802   21.1289 C   0  0  0  0  0  0  0  0  0  0  0  0
    9.0809  -17.5956   20.7959 O   0  0  0  0  0  0  0  0  0  0  0  0
    6.4287  -13.4137   20.0287 N   0  0  0  0  0  0  0  0  0  0  0  0
    7.8513  -13.6159   20.1703 C   0  0  0  0  0  0  0  0  0  0  0  0
    8.4877  -13.6633   19.1115 O   0  0  0  0  0  0  0  0  0  0  0  0
    8.3708  -13.7396   21.5148 C   0  0  0  0  0  0  0  0  0  0  0  0
    8.9089  -15.1023   21.9348 C   0  0  2  0  0  0  0  0  0  0  0  0
    7.7291  -15.9989   21.6968 N   0  0  0  0  0  0  0  0  0  0  0  0
    9.1215  -15.1718   23.3820 C   0  0  0  0  0  0  0  0  0  0  0  0
   10.0601  -14.4552   23.8854 O   0  0  0  0  0  0  0  0  0  0  0  0
    8.3498  -15.9758   24.2454 N   0  0  0  0  0  0  0  0  0  0  0  0
    8.6829  -15.9607   25.6761 C   0  0  1  0  0  0  0  0  0  0  0  0
    7.3975  -15.6175   26.3898 C   0  0  0  0  0  0  0  0  0  0  0  0
    7.1240  -14.1673   26.4546 C   0  0  0  0  0  0  0  0  0  0  0  0
    5.8856  -13.6557   26.1628 C   0  0  0  0  0  0  0  0  0  0  0  0
    5.7088  -12.2903   26.2462 C   0  0  0  0  0  0  0  0  0  0  0  0
    6.7341  -11.4451   26.6109 C   0  0  0  0  0  0  0  0  0  0  0  0
    7.9860  -11.9614   26.9062 C   0  0  0  0  0  0  0  0  0  0  0  0
    8.1367  -13.3178   26.8165 C   0  0  0  0  0  0  0  0  0  0  0  0
    9.2258  -17.2644   26.0858 C   0  0  0  0  0  0  0  0  0  0  0  0
    9.8110  -17.5214   27.3126 O   0  0  0  0  0  0  0  0  0  0  0  0
    9.1650  -18.2381   25.2723 O   0  0  0  0  0  0  0  0  0  0  0  0
  2  1  1  0
  3  2  1  0
  3  4  1  6
  5  6  2  0
  5  3  1  0
  7  8  1  0
  8  9  2  0
  8 10  1  0
 11 10  1  1
 11 12  1  0
 12  5  1  0
 13 15  1  0
 13 11  1  0
 14 13  2  0
 16 15  1  0
 16 17  1  1
 18 17  1  0
 18 23  2  0
 19 18  1  0
 20 19  2  0
 20 21  1  0
 21 22  2  0
 22 23  1  0
 24 16  1  0
 25 24  1  0
 26 24  2  0
M  END
$$$$
