SNF.pdb
     RDKit          3D

 26 26  0  0  1  0  0  0  0  0999 V2000
   10.5954  -17.2868   17.2249 O   0  0  0  0  0  0  0  0  0  0  0  0
    9.9668  -16.6914   18.3089 C   0  0  0  0  0  0  0  0  0  0  0  0
    8.5115  -17.1333   18.3610 C   0  0  2  0  0  0  0  0  0  0  0  0
    7.7587  -16.3310   17.4326 N   0  0  0  0  0  0  0  0  0  0  0  0
    8.0583  -16.8874   19.7648 C   0  0  0  0  0  0  0  0  0  0  0  0
    7.4353  -15.8276   20.0752 O   0  0  0  0  0  0  0  0  0  0  0  0
    4.8641  -19.5159   22.6002 N   0  0  0  0  0  0  0  0  0  0  0  0
    6.1237  -19.6679   21.9110 C   0  0  0  0  0  0  0  0  0  0  0  0
    6.0743  -20.3012   20.8505 O   0  0  0  0  0  0  0  0  0  0  0  0
    7.2900  -19.0724   22.5261 C   0  0  0  0  0  0  0  0  0  0  0  0
    7.6255  -17.6353   22.1452 C   0  0  2  0  0  0  0  0  0  0  0  0
    8.2920  -17.8057   20.8113 N   0  0  0  0  0  0  0  0  0  0  0  0
    8.6791  -17.0861   23.0010 C   0  0  0  0  0  0  0  0  0  0  0  0
    9.8684  -17.5483   22.8597 O   0  0  0  0  0  0  0  0  0  0  0  0
    8.4567  -16.0789   23.9620 N   0  0  0  0  0  0  0  0  0  0  0  0
    9.5949  -15.6585   24.7901 C   0  0  1  0  0  0  0  0  0  0  0  0
    9.6398  -14.1529   24.6863 C   0  0  0  0  0  0  0  0  0  0  0  0
    8.4869  -13.4800   25.3188 C   0  0  0  0  0  0  0  0  0  0  0  0
    8.5233  -13.0689   26.6265 C   0  0  0  0  0  0  0  0  0  0  0  0
    7.4066  -12.4475   27.1452 C   0  0  0  0  0  0  0  0  0  0  0  0
    6.2749  -12.2352   26.3885 C   0  0  0  0  0  0  0  0  0  0  0  0
    6.2372  -12.6503   25.0667 C   0  0  0  0  0  0  0  0  0  0  0  0
    7.3564  -13.2638   24.5749 C   0  0  0  0  0  0  0  0  0  0  0  0
    9.4171  -16.1243   26.1734 C   0  0  0  0  0  0  0  0  0  0  0  0
   10.3959  -16.0786   27.1499 O   0  0  0  0  0  0  0  0  0  0  0  0
    8.2943  -16.6072   26.5193 O   0  0  0  0  0  0  0  0  0  0  0  0
  2  1  1  0
  3  2  1  0
  3  4  1  6
  5  6  2  0
  5  3  1  0
  7  8  1  0
  8  9  2  0
  8 10  1  0
 11 10  1  1
 11 12  1  0
 12  5  1  0
 13 15  1  0
 13 11  1  0
 14 13  2  0
 16 15  1  0
 16 17  1  1
 18 17  1  0
 18 23  2  0
 19 18  1  0
 20 19  2  0
 20 21  1  0
 21 22  2  0
 22 23  1  0
 24 16  1  0
 25 24  1  0
 26 24  2  0
M  END
$$$$
