SNF.pdb
     RDKit          3D

 26 26  0  0  1  0  0  0  0  0999 V2000
    7.1623  -13.7813   17.8274 O   0  0  0  0  0  0  0  0  0  0  0  0
    7.9921  -12.8948   18.4984 C   0  0  0  0  0  0  0  0  0  0  0  0
    9.0691  -13.6688   19.2446 C   0  0  2  0  0  0  0  0  0  0  0  0
    9.5885  -14.6860   18.3682 N   0  0  0  0  0  0  0  0  0  0  0  0
    8.3886  -14.2825   20.4264 C   0  0  0  0  0  0  0  0  0  0  0  0
    7.8364  -13.5614   21.3110 O   0  0  0  0  0  0  0  0  0  0  0  0
    5.2947  -18.4350   22.4861 N   0  0  0  0  0  0  0  0  0  0  0  0
    6.7137  -18.6003   22.2770 C   0  0  0  0  0  0  0  0  0  0  0  0
    7.2442  -19.5041   22.9327 O   0  0  0  0  0  0  0  0  0  0  0  0
    7.3522  -17.7043   21.3376 C   0  0  0  0  0  0  0  0  0  0  0  0
    7.5381  -16.2543   21.7687 C   0  0  2  0  0  0  0  0  0  0  0  0
    8.3204  -15.6787   20.6245 N   0  0  0  0  0  0  0  0  0  0  0  0
    8.4483  -16.1472   22.9107 C   0  0  0  0  0  0  0  0  0  0  0  0
    9.7079  -16.2505   22.6855 O   0  0  0  0  0  0  0  0  0  0  0  0
    8.0152  -15.9327   24.2351 N   0  0  0  0  0  0  0  0  0  0  0  0
    9.0315  -15.9267   25.2959 C   0  0  1  0  0  0  0  0  0  0  0  0
    9.3558  -14.4726   25.5408 C   0  0  0  0  0  0  0  0  0  0  0  0
    8.2008  -13.6771   26.0046 C   0  0  0  0  0  0  0  0  0  0  0  0
    8.3590  -12.4236   26.5376 C   0  0  0  0  0  0  0  0  0  0  0  0
    7.2315  -11.7434   26.9482 C   0  0  0  0  0  0  0  0  0  0  0  0
    5.9713  -12.2890   26.8350 C   0  0  0  0  0  0  0  0  0  0  0  0
    5.8106  -13.5558   26.2962 C   0  0  0  0  0  0  0  0  0  0  0  0
    6.9430  -14.2104   25.8964 C   0  0  0  0  0  0  0  0  0  0  0  0
    8.5168  -16.6008   26.4971 C   0  0  0  0  0  0  0  0  0  0  0  0
    9.2472  -16.8134   27.6525 O   0  0  0  0  0  0  0  0  0  0  0  0
    7.3203  -17.0271   26.4970 O   0  0  0  0  0  0  0  0  0  0  0  0
  2  1  1  0
  3  2  1  0
  3  4  1  6
  5  6  2  0
  5  3  1  0
  7  8  1  0
  8  9  2  0
  8 10  1  0
 11 10  1  6
 11 12  1  0
 12  5  1  0
 13 15  1  0
 13 11  1  0
 14 13  2  0
 16 15  1  0
 16 17  1  1
 18 17  1  0
 18 23  2  0
 19 18  1  0
 20 19  2  0
 20 21  1  0
 21 22  2  0
 22 23  1  0
 24 16  1  0
 25 24  1  0
 26 24  2  0
M  END
$$$$
