SNF.pdb
     RDKit          3D

 26 26  0  0  1  0  0  0  0  0999 V2000
    8.8483  -12.0806   21.0718 O   0  0  0  0  0  0  0  0  0  0  0  0
    9.3281  -12.9488   20.1018 C   0  0  0  0  0  0  0  0  0  0  0  0
    8.1849  -13.7993   19.5675 C   0  0  2  0  0  0  0  0  0  0  0  0
    7.0756  -12.9329   19.2652 N   0  0  0  0  0  0  0  0  0  0  0  0
    7.8323  -14.7499   20.6668 C   0  0  0  0  0  0  0  0  0  0  0  0
    6.6696  -14.7636   21.1723 O   0  0  0  0  0  0  0  0  0  0  0  0
    9.4041  -18.7320   19.2476 N   0  0  0  0  0  0  0  0  0  0  0  0
    8.5483  -18.6487   20.4075 C   0  0  0  0  0  0  0  0  0  0  0  0
    7.4332  -19.1672   20.2815 O   0  0  0  0  0  0  0  0  0  0  0  0
    9.0793  -17.9776   21.5740 C   0  0  0  0  0  0  0  0  0  0  0  0
    8.3024  -16.7794   22.1066 C   0  0  2  0  0  0  0  0  0  0  0  0
    8.7573  -15.6745   21.1985 N   0  0  0  0  0  0  0  0  0  0  0  0
    8.7835  -16.3734   23.4287 C   0  0  0  0  0  0  0  0  0  0  0  0
    9.9606  -15.8674   23.5092 O   0  0  0  0  0  0  0  0  0  0  0  0
    8.0233  -16.5040   24.6087 N   0  0  0  0  0  0  0  0  0  0  0  0
    8.6031  -15.9919   25.8576 C   0  0  1  0  0  0  0  0  0  0  0  0
    7.4291  -15.5777   26.7118 C   0  0  0  0  0  0  0  0  0  0  0  0
    6.9750  -14.1939   26.4651 C   0  0  0  0  0  0  0  0  0  0  0  0
    5.7908  -13.9292   25.8263 C   0  0  0  0  0  0  0  0  0  0  0  0
    5.4356  -12.6105   25.6331 C   0  0  0  0  0  0  0  0  0  0  0  0
    6.2331  -11.5720   26.0622 C   0  0  0  0  0  0  0  0  0  0  0  0
    7.4300  -11.8387   26.7081 C   0  0  0  0  0  0  0  0  0  0  0  0
    7.7606  -13.1537   26.8880 C   0  0  0  0  0  0  0  0  0  0  0  0
    9.4295  -17.0268   26.4967 C   0  0  0  0  0  0  0  0  0  0  0  0
    9.5382  -18.3318   26.0508 O   0  0  0  0  0  0  0  0  0  0  0  0
   10.0991  -16.7247   27.5329 O   0  0  0  0  0  0  0  0  0  0  0  0
  2  1  1  0
  3  2  1  0
  3  4  1  1
  5  6  2  0
  5  3  1  0
  7  8  1  0
  8  9  2  0
  8 10  1  0
 11 10  1  6
 11 12  1  0
 12  5  1  0
 13 15  1  0
 13 11  1  0
 14 13  2  0
 16 15  1  0
 16 17  1  1
 18 17  1  0
 18 23  2  0
 19 18  1  0
 20 19  2  0
 20 21  1  0
 21 22  2  0
 22 23  1  0
 24 16  1  0
 25 24  1  0
 26 24  2  0
M  END
$$$$
