SNF.pdb
     RDKit          3D

 26 26  0  0  1  0  0  0  0  0999 V2000
    6.1784  -18.5691   19.3977 O   0  0  0  0  0  0  0  0  0  0  0  0
    7.5028  -18.9308   19.5978 C   0  0  0  0  0  0  0  0  0  0  0  0
    7.8464  -18.8130   21.0755 C   0  0  2  0  0  0  0  0  0  0  0  0
    6.6201  -18.6914   21.8198 N   0  0  0  0  0  0  0  0  0  0  0  0
    8.6727  -17.5734   21.2069 C   0  0  0  0  0  0  0  0  0  0  0  0
    9.8260  -17.4974   20.6856 O   0  0  0  0  0  0  0  0  0  0  0  0
    6.5383  -13.7085   19.9444 N   0  0  0  0  0  0  0  0  0  0  0  0
    7.9150  -13.9891   20.2772 C   0  0  0  0  0  0  0  0  0  0  0  0
    8.6773  -14.1187   19.3127 O   0  0  0  0  0  0  0  0  0  0  0  0
    8.2489  -14.0871   21.6814 C   0  0  0  0  0  0  0  0  0  0  0  0
    9.1314  -15.2529   22.1114 C   0  0  2  0  0  0  0  0  0  0  0  0
    8.2254  -16.4318   21.9067 N   0  0  0  0  0  0  0  0  0  0  0  0
    9.3735  -15.2376   23.5555 C   0  0  0  0  0  0  0  0  0  0  0  0
   10.1050  -14.2960   24.0310 O   0  0  0  0  0  0  0  0  0  0  0  0
    8.8438  -16.1947   24.4448 N   0  0  0  0  0  0  0  0  0  0  0  0
    9.2897  -16.1510   25.8439 C   0  0  1  0  0  0  0  0  0  0  0  0
    8.0581  -15.8245   26.6538 C   0  0  0  0  0  0  0  0  0  0  0  0
    7.7330  -14.3839   26.6846 C   0  0  0  0  0  0  0  0  0  0  0  0
    8.5628  -13.4725   27.2858 C   0  0  0  0  0  0  0  0  0  0  0  0
    8.1901  -12.1447   27.2729 C   0  0  0  0  0  0  0  0  0  0  0  0
    7.0209  -11.7231   26.6781 C   0  0  0  0  0  0  0  0  0  0  0  0
    6.1818  -12.6435   26.0701 C   0  0  0  0  0  0  0  0  0  0  0  0
    6.5727  -13.9539   26.0956 C   0  0  0  0  0  0  0  0  0  0  0  0
    9.8928  -17.4365   26.2259 C   0  0  0  0  0  0  0  0  0  0  0  0
   10.4987  -17.6892   27.4435 O   0  0  0  0  0  0  0  0  0  0  0  0
    9.8681  -18.3973   25.3954 O   0  0  0  0  0  0  0  0  0  0  0  0
  2  1  1  0
  3  2  1  0
  3  4  1  1
  5  6  2  0
  5  3  1  0
  7  8  1  0
  8  9  2  0
  8 10  1  0
 11 10  1  1
 11 12  1  0
 12  5  1  0
 13 15  1  0
 13 11  1  0
 14 13  2  0
 16 15  1  0
 16 17  1  1
 18 17  1  0
 18 23  2  0
 19 18  1  0
 20 19  2  0
 20 21  1  0
 21 22  2  0
 22 23  1  0
 24 16  1  0
 25 24  1  0
 26 24  2  0
M  END
$$$$
