SNF.pdb
     RDKit          3D

 26 26  0  0  1  0  0  0  0  0999 V2000
    6.3425  -14.7069   20.8800 O   0  0  0  0  0  0  0  0  0  0  0  0
    7.3951  -14.3161   20.0651 C   0  0  0  0  0  0  0  0  0  0  0  0
    7.8774  -15.5061   19.2484 C   0  0  2  0  0  0  0  0  0  0  0  0
    6.7350  -16.1274   18.6308 N   0  0  0  0  0  0  0  0  0  0  0  0
    8.5261  -16.4366   20.2230 C   0  0  0  0  0  0  0  0  0  0  0  0
    7.9409  -17.4936   20.6075 O   0  0  0  0  0  0  0  0  0  0  0  0
   12.5786  -19.7671   21.3340 N   0  0  0  0  0  0  0  0  0  0  0  0
   12.7739  -18.3400   21.4332 C   0  0  0  0  0  0  0  0  0  0  0  0
   13.7890  -17.9853   22.0431 O   0  0  0  0  0  0  0  0  0  0  0  0
   11.7763  -17.4918   20.8181 C   0  0  0  0  0  0  0  0  0  0  0  0
   10.4934  -17.2387   21.6010 C   0  0  2  0  0  0  0  0  0  0  0  0
    9.8082  -16.1985   20.7639 N   0  0  0  0  0  0  0  0  0  0  0  0
   10.7643  -16.5541   22.8668 C   0  0  0  0  0  0  0  0  0  0  0  0
   11.1335  -15.3256   22.8171 O   0  0  0  0  0  0  0  0  0  0  0  0
   10.6362  -17.1694   24.1287 N   0  0  0  0  0  0  0  0  0  0  0  0
   11.0538  -16.4030   25.3104 C   0  0  1  0  0  0  0  0  0  0  0  0
    9.7762  -16.0007   26.0071 C   0  0  0  0  0  0  0  0  0  0  0  0
    9.9920  -15.1644   27.2054 C   0  0  0  0  0  0  0  0  0  0  0  0
    9.8463  -13.8014   27.1665 C   0  0  0  0  0  0  0  0  0  0  0  0
   10.0651  -13.0896   28.3274 C   0  0  0  0  0  0  0  0  0  0  0  0
   10.4208  -13.7101   29.5051 C   0  0  0  0  0  0  0  0  0  0  0  0
   10.5682  -15.0877   29.5454 C   0  0  0  0  0  0  0  0  0  0  0  0
   10.3459  -15.7717   28.3820 C   0  0  0  0  0  0  0  0  0  0  0  0
   11.9293  -17.2203   26.1634 C   0  0  0  0  0  0  0  0  0  0  0  0
   13.0178  -16.7350   26.8657 O   0  0  0  0  0  0  0  0  0  0  0  0
   11.6892  -18.4623   26.2784 O   0  0  0  0  0  0  0  0  0  0  0  0
  2  1  1  0
  3  2  1  0
  3  4  1  1
  5  6  2  0
  5  3  1  0
  7  8  1  0
  8  9  2  0
  8 10  1  0
 11 10  1  6
 11 12  1  0
 12  5  1  0
 13 15  1  0
 13 11  1  0
 14 13  2  0
 16 15  1  0
 16 17  1  1
 18 17  1  0
 18 23  2  0
 19 18  1  0
 20 19  2  0
 20 21  1  0
 21 22  2  0
 22 23  1  0
 24 16  1  0
 25 24  1  0
 26 24  2  0
M  END
$$$$
