SNF.pdb
     RDKit          3D

 26 26  0  0  1  0  0  0  0  0999 V2000
   10.4668  -13.2537   20.2392 O   0  0  0  0  0  0  0  0  0  0  0  0
    9.9738  -14.1339   19.2869 C   0  0  0  0  0  0  0  0  0  0  0  0
    8.4626  -13.9848   19.1878 C   0  0  2  0  0  0  0  0  0  0  0  0
    8.1462  -12.5814   19.1348 N   0  0  0  0  0  0  0  0  0  0  0  0
    7.9068  -14.6082   20.4283 C   0  0  0  0  0  0  0  0  0  0  0  0
    7.2578  -13.9198   21.2724 O   0  0  0  0  0  0  0  0  0  0  0  0
    7.2144  -18.9328   19.1993 N   0  0  0  0  0  0  0  0  0  0  0  0
    6.5274  -18.4846   20.3875 C   0  0  0  0  0  0  0  0  0  0  0  0
    5.2930  -18.4935   20.3209 O   0  0  0  0  0  0  0  0  0  0  0  0
    7.3446  -18.0794   21.5105 C   0  0  0  0  0  0  0  0  0  0  0  0
    7.3390  -16.6016   21.8832 C   0  0  2  0  0  0  0  0  0  0  0  0
    8.0677  -15.9782   20.7287 N   0  0  0  0  0  0  0  0  0  0  0  0
    8.2042  -16.3360   23.0344 C   0  0  0  0  0  0  0  0  0  0  0  0
    9.4638  -16.2098   22.8214 O   0  0  0  0  0  0  0  0  0  0  0  0
    7.7272  -16.2075   24.3547 N   0  0  0  0  0  0  0  0  0  0  0  0
    8.6776  -15.7741   25.3877 C   0  0  1  0  0  0  0  0  0  0  0  0
    7.8335  -15.2298   26.5150 C   0  0  0  0  0  0  0  0  0  0  0  0
    7.3193  -13.8675   26.2668 C   0  0  0  0  0  0  0  0  0  0  0  0
    8.1040  -12.8949   25.7021 C   0  0  0  0  0  0  0  0  0  0  0  0
    7.5516  -11.6471   25.5020 C   0  0  0  0  0  0  0  0  0  0  0  0
    6.2494  -11.3634   25.8520 C   0  0  0  0  0  0  0  0  0  0  0  0
    5.4556  -12.3459   26.4227 C   0  0  0  0  0  0  0  0  0  0  0  0
    6.0255  -13.5749   26.6110 C   0  0  0  0  0  0  0  0  0  0  0  0
    9.5218  -16.9023   25.8078 C   0  0  0  0  0  0  0  0  0  0  0  0
   10.7158  -16.7771   26.4949 O   0  0  0  0  0  0  0  0  0  0  0  0
    9.1491  -18.0846   25.5308 O   0  0  0  0  0  0  0  0  0  0  0  0
  2  1  1  0
  3  2  1  0
  3  4  1  1
  5  6  2  0
  5  3  1  0
  7  8  1  0
  8  9  2  0
  8 10  1  0
 11 10  1  6
 11 12  1  0
 12  5  1  0
 13 15  1  0
 13 11  1  0
 14 13  2  0
 16 15  1  0
 16 17  1  1
 18 17  1  0
 18 23  2  0
 19 18  1  0
 20 19  2  0
 20 21  1  0
 21 22  2  0
 22 23  1  0
 24 16  1  0
 25 24  1  0
 26 24  2  0
M  END
$$$$
