SNF.pdb
     RDKit          3D

 26 26  0  0  1  0  0  0  0  0999 V2000
    9.6898  -12.3840   19.8601 O   0  0  0  0  0  0  0  0  0  0  0  0
    9.9684  -13.4182   18.9783 C   0  0  0  0  0  0  0  0  0  0  0  0
    8.6772  -14.1307   18.6029 C   0  0  2  0  0  0  0  0  0  0  0  0
    7.7306  -13.1469   18.1463 N   0  0  0  0  0  0  0  0  0  0  0  0
    8.1946  -14.7915   19.8547 C   0  0  0  0  0  0  0  0  0  0  0  0
    7.3182  -14.2427   20.5884 O   0  0  0  0  0  0  0  0  0  0  0  0
    8.0221  -19.3871   19.1343 N   0  0  0  0  0  0  0  0  0  0  0  0
    7.4381  -18.7885   20.3113 C   0  0  0  0  0  0  0  0  0  0  0  0
    6.2072  -18.8699   20.3919 O   0  0  0  0  0  0  0  0  0  0  0  0
    8.3420  -18.1672   21.2548 C   0  0  0  0  0  0  0  0  0  0  0  0
    8.1462  -16.6826   21.5383 C   0  0  2  0  0  0  0  0  0  0  0  0
    8.6771  -16.0458   20.2872 N   0  0  0  0  0  0  0  0  0  0  0  0
    9.0530  -16.2133   22.5879 C   0  0  0  0  0  0  0  0  0  0  0  0
   10.3027  -16.1284   22.3071 O   0  0  0  0  0  0  0  0  0  0  0  0
    8.6258  -15.8474   23.8806 N   0  0  0  0  0  0  0  0  0  0  0  0
    9.6468  -15.4073   24.8408 C   0  0  1  0  0  0  0  0  0  0  0  0
    9.5409  -13.9019   24.8863 C   0  0  0  0  0  0  0  0  0  0  0  0
    8.3027  -13.4133   25.5265 C   0  0  0  0  0  0  0  0  0  0  0  0
    7.1295  -13.2959   24.8263 C   0  0  0  0  0  0  0  0  0  0  0  0
    6.0157  -12.8322   25.4946 C   0  0  0  0  0  0  0  0  0  0  0  0
    6.0577  -12.4907   26.8289 C   0  0  0  0  0  0  0  0  0  0  0  0
    7.2430  -12.6093   27.5374 C   0  0  0  0  0  0  0  0  0  0  0  0
    8.3335  -13.0713   26.8533 C   0  0  0  0  0  0  0  0  0  0  0  0
    9.4137  -16.0299   26.1524 C   0  0  0  0  0  0  0  0  0  0  0  0
    8.3431  -16.8529   26.4524 O   0  0  0  0  0  0  0  0  0  0  0  0
   10.2399  -15.8104   27.0919 O   0  0  0  0  0  0  0  0  0  0  0  0
  2  1  1  0
  3  2  1  0
  3  4  1  1
  5  6  2  0
  5  3  1  0
  7  8  1  0
  8  9  2  0
  8 10  1  0
 11 10  1  6
 11 12  1  0
 12  5  1  0
 13 15  1  0
 13 11  1  0
 14 13  2  0
 16 15  1  0
 16 17  1  1
 18 17  1  0
 18 23  2  0
 19 18  1  0
 20 19  2  0
 20 21  1  0
 21 22  2  0
 22 23  1  0
 24 16  1  0
 25 24  1  0
 26 24  2  0
M  END
$$$$
