SNF.pdb
     RDKit          3D

 26 26  0  0  1  0  0  0  0  0999 V2000
    6.8854  -19.5589   19.5191 O   0  0  0  0  0  0  0  0  0  0  0  0
    5.9515  -19.0144   20.3886 C   0  0  0  0  0  0  0  0  0  0  0  0
    6.5420  -18.9371   21.7890 C   0  0  2  0  0  0  0  0  0  0  0  0
    5.5389  -18.4111   22.6776 N   0  0  0  0  0  0  0  0  0  0  0  0
    7.7073  -18.0048   21.6917 C   0  0  0  0  0  0  0  0  0  0  0  0
    8.7538  -18.3297   21.0540 O   0  0  0  0  0  0  0  0  0  0  0  0
    9.0057  -15.4526   19.4122 N   0  0  0  0  0  0  0  0  0  0  0  0
    8.3462  -14.4149   20.1691 C   0  0  0  0  0  0  0  0  0  0  0  0
    7.8612  -13.4967   19.4983 O   0  0  0  0  0  0  0  0  0  0  0  0
    8.3245  -14.5587   21.6085 C   0  0  0  0  0  0  0  0  0  0  0  0
    8.9150  -15.8362   22.1934 C   0  0  2  0  0  0  0  0  0  0  0  0
    7.7117  -16.7277   22.2934 N   0  0  0  0  0  0  0  0  0  0  0  0
    9.3325  -15.6460   23.5840 C   0  0  0  0  0  0  0  0  0  0  0  0
   10.4091  -14.9815   23.8014 O   0  0  0  0  0  0  0  0  0  0  0  0
    8.6146  -16.1473   24.6889 N   0  0  0  0  0  0  0  0  0  0  0  0
    9.1952  -15.9603   26.0253 C   0  0  1  0  0  0  0  0  0  0  0  0
    8.0426  -15.5700   26.9190 C   0  0  0  0  0  0  0  0  0  0  0  0
    7.4422  -14.2645   26.5766 C   0  0  0  0  0  0  0  0  0  0  0  0
    6.2458  -14.1757   25.9123 C   0  0  0  0  0  0  0  0  0  0  0  0
    5.7501  -12.9203   25.6285 C   0  0  0  0  0  0  0  0  0  0  0  0
    6.4214  -11.7736   25.9932 C   0  0  0  0  0  0  0  0  0  0  0  0
    7.6305  -11.8625   26.6648 C   0  0  0  0  0  0  0  0  0  0  0  0
    8.1016  -13.1178   26.9350 C   0  0  0  0  0  0  0  0  0  0  0  0
    9.8606  -17.1946   26.4681 C   0  0  0  0  0  0  0  0  0  0  0  0
    9.9649  -18.3466   25.7095 O   0  0  0  0  0  0  0  0  0  0  0  0
   10.3832  -17.2293   27.6254 O   0  0  0  0  0  0  0  0  0  0  0  0
  2  1  1  0
  3  2  1  0
  3  4  1  1
  5  6  2  0
  5  3  1  0
  7  8  1  0
  8  9  2  0
  8 10  1  0
 11 10  1  1
 11 12  1  0
 12  5  1  0
 13 15  1  0
 13 11  1  0
 14 13  2  0
 16 15  1  0
 16 17  1  1
 18 17  1  0
 18 23  2  0
 19 18  1  0
 20 19  2  0
 20 21  1  0
 21 22  2  0
 22 23  1  0
 24 16  1  0
 25 24  1  0
 26 24  2  0
M  END
$$$$
