ARD.pdb
     RDKit          3D

 25 24  0  0  1  0  0  0  0  0999 V2000
   27.6967  -22.4484  -17.9029 C   0  0  0  0  0  0  0  0  0  0  0  0
   26.8459  -21.3038  -17.4101 C   0  0  2  0  0  0  0  0  0  0  0  0
   27.6387  -20.1519  -17.0491 N   0  0  0  0  0  0  0  0  0  0  0  0
   26.0341  -21.6814  -16.2274 C   0  0  0  0  0  0  0  0  0  0  0  0
   25.2146  -22.6364  -16.2504 O   0  0  0  0  0  0  0  0  0  0  0  0
   23.2721  -20.0098   -9.6617 N   0  0  0  0  0  0  0  0  0  0  0  0
   23.9060  -20.8506   -8.7045 C   0  0  0  0  0  0  0  0  0  0  0  0
   23.2536  -21.1679   -7.6521 N   0  0  0  0  0  0  0  0  0  0  0  0
   25.2381  -21.3330   -8.9059 N   0  0  0  0  0  0  0  0  0  0  0  0
   25.9846  -20.9470  -10.0755 C   0  0  0  0  0  0  0  0  0  0  0  0
   25.2197  -21.3130  -11.3258 C   0  0  0  0  0  0  0  0  0  0  0  0
   26.0393  -20.9275  -12.5338 C   0  0  0  0  0  0  0  0  0  0  0  0
   25.3587  -21.3058  -13.8276 C   0  0  2  0  0  0  0  0  0  0  0  0
   26.1387  -20.9737  -14.9818 N   0  0  0  0  0  0  0  0  0  0  0  0
   24.0177  -20.7268  -13.9627 C   0  0  0  0  0  0  0  0  0  0  0  0
   23.8345  -19.4738  -13.9171 O   0  0  0  0  0  0  0  0  0  0  0  0
   23.6801  -21.7886   -6.9446 N   0  0  0  0  0  0  0  0  0  0  0  0
   22.8353  -21.5148  -14.1527 C   0  0  1  0  0  0  0  0  0  0  0  0
   21.5632  -20.9249  -14.4827 C   0  0  0  0  0  0  0  0  0  0  0  0
   21.4276  -20.6247  -15.9568 C   0  0  0  0  0  0  0  0  0  0  0  0
   20.1200  -19.9926  -16.2715 O   0  0  0  0  0  0  0  0  0  0  0  0
   19.4910  -19.2483  -15.4997 C   0  0  0  0  0  0  0  0  0  0  0  0
   20.4246  -21.7742  -14.0564 O   0  0  0  0  0  0  0  0  0  0  0  0
   19.2620  -21.2786  -13.5193 O   0  0  0  0  0  0  0  0  0  0  0  0
   19.5764  -20.2630  -17.5202 O   0  0  0  0  0  0  0  0  0  0  0  0
  2  1  1  1
  3  2  1  0
  4  5  2  0
  4  2  1  0
  6  7  1  0
  7  9  1  0
  7  8  2  0
  9 10  1  0
 11 10  1  0
 12 11  1  0
 13 12  1  1
 13 14  1  0
 14  4  1  0
 15 17  1  0
 15 13  1  0
 16 15  2  0
 18 17  1  0
 18 22  1  0
 18 19  1  1
 20 19  1  0
 21 20  2  0
 22 23  1  0
 24 20  1  0
 25 22  2  0
M  END
$$$$
