ARD.pdb
     RDKit          3D

 25 24  0  0  1  0  0  0  0  0999 V2000
   13.5867   -9.7939  -17.2639 C   0  0  0  0  0  0  0  0  0  0  0  0
   14.7239  -10.6268  -16.7253 C   0  0  2  0  0  0  0  0  0  0  0  0
   14.2709  -11.6222  -15.7821 N   0  0  0  0  0  0  0  0  0  0  0  0
   15.7504   -9.7974  -16.0480 C   0  0  0  0  0  0  0  0  0  0  0  0
   15.6154   -9.3932  -14.8638 O   0  0  0  0  0  0  0  0  0  0  0  0
   22.4624   -8.2064  -13.5643 N   0  0  0  0  0  0  0  0  0  0  0  0
   22.6177   -9.4498  -14.2387 C   0  0  0  0  0  0  0  0  0  0  0  0
   23.0570  -10.4484  -13.5726 N   0  0  0  0  0  0  0  0  0  0  0  0
   22.2933   -9.5883  -15.6256 N   0  0  0  0  0  0  0  0  0  0  0  0
   21.7708   -8.4701  -16.3676 C   0  0  0  0  0  0  0  0  0  0  0  0
   20.4053   -8.0902  -15.8445 C   0  0  0  0  0  0  0  0  0  0  0  0
   19.3635   -8.9478  -16.5219 C   0  0  0  0  0  0  0  0  0  0  0  0
   17.9619   -8.5874  -16.0910 C   0  0  2  0  0  0  0  0  0  0  0  0
   16.9638   -9.4067  -16.7102 N   0  0  0  0  0  0  0  0  0  0  0  0
   17.6378   -7.1739  -16.3120 C   0  0  0  0  0  0  0  0  0  0  0  0
   17.4594   -6.7146  -17.4794 O   0  0  0  0  0  0  0  0  0  0  0  0
   23.0937  -11.3857  -14.0061 N   0  0  0  0  0  0  0  0  0  0  0  0
   17.5003   -6.2220  -15.2489 C   0  0  2  0  0  0  0  0  0  0  0  0
   17.2509   -4.8248  -15.4955 C   0  0  0  0  0  0  0  0  0  0  0  0
   16.5920   -4.1371  -14.3232 C   0  0  0  0  0  0  0  0  0  0  0  0
   15.1286   -3.9808  -14.5286 O   0  0  0  0  0  0  0  0  0  0  0  0
   14.5219   -4.3041  -15.5643 C   0  0  0  0  0  0  0  0  0  0  0  0
   18.4883   -4.0897  -15.8532 O   0  0  0  0  0  0  0  0  0  0  0  0
   19.7357   -4.6630  -15.8800 O   0  0  0  0  0  0  0  0  0  0  0  0
   14.4023   -3.4332  -13.4794 O   0  0  0  0  0  0  0  0  0  0  0  0
  2  1  1  1
  3  2  1  0
  4  5  2  0
  4  2  1  0
  6  7  1  0
  7  9  1  0
  7  8  2  0
  9 10  1  0
 11 10  1  0
 12 11  1  0
 13 12  1  6
 13 14  1  0
 14  4  1  0
 15 17  1  0
 15 13  1  0
 16 15  2  0
 18 17  1  0
 18 22  1  0
 18 19  1  6
 20 19  1  0
 21 20  2  0
 22 23  1  0
 24 20  1  0
 25 22  2  0
M  END
$$$$
