ARD.pdb
     RDKit          3D

 25 24  0  0  1  0  0  0  0  0999 V2000
   24.7562  -22.2350   -9.3825 C   0  0  0  0  0  0  0  0  0  0  0  0
   25.1848  -20.8093   -9.6289 C   0  0  2  0  0  0  0  0  0  0  0  0
   24.4210  -19.8677   -8.8441 N   0  0  0  0  0  0  0  0  0  0  0  0
   25.0473  -20.4244  -11.0549 C   0  0  0  0  0  0  0  0  0  0  0  0
   26.0062  -19.9541  -11.7208 O   0  0  0  0  0  0  0  0  0  0  0  0
   26.8197  -20.8746  -17.4997 N   0  0  0  0  0  0  0  0  0  0  0  0
   27.4512  -21.6660  -16.4997 C   0  0  0  0  0  0  0  0  0  0  0  0
   28.7184  -21.5693  -16.3628 N   0  0  0  0  0  0  0  0  0  0  0  0
   26.6961  -22.5494  -15.6648 N   0  0  0  0  0  0  0  0  0  0  0  0
   25.2894  -22.7501  -15.8993 C   0  0  0  0  0  0  0  0  0  0  0  0
   24.4973  -21.5936  -15.3360 C   0  0  0  0  0  0  0  0  0  0  0  0
   24.5416  -21.6556  -13.8281 C   0  0  0  0  0  0  0  0  0  0  0  0
   23.7127  -20.5672  -13.1891 C   0  0  2  0  0  0  0  0  0  0  0  0
   23.8041  -20.5678  -11.7599 N   0  0  0  0  0  0  0  0  0  0  0  0
   22.3015  -20.6102  -13.5872 C   0  0  0  0  0  0  0  0  0  0  0  0
   21.6152  -21.6683  -13.4640 O   0  0  0  0  0  0  0  0  0  0  0  0
   29.2227  -22.2130  -15.7310 N   0  0  0  0  0  0  0  0  0  0  0  0
   21.6030  -19.4843  -14.1346 C   0  0  2  0  0  0  0  0  0  0  0  0
   20.3352  -19.6181  -14.8054 C   0  0  0  0  0  0  0  0  0  0  0  0
   20.4775  -20.1349  -16.2175 C   0  0  0  0  0  0  0  0  0  0  0  0
   21.0521  -19.1073  -17.1241 O   0  0  0  0  0  0  0  0  0  0  0  0
   21.3659  -17.9554  -16.7778 C   0  0  0  0  0  0  0  0  0  0  0  0
   19.3984  -20.4955  -14.0624 O   0  0  0  0  0  0  0  0  0  0  0  0
   18.2848  -20.0373  -13.4024 O   0  0  0  0  0  0  0  0  0  0  0  0
   21.2457  -19.4763  -18.4486 O   0  0  0  0  0  0  0  0  0  0  0  0
  2  1  1  6
  3  2  1  0
  4  5  2  0
  4  2  1  0
  6  7  1  0
  7  9  1  0
  7  8  2  0
  9 10  1  0
 11 10  1  0
 12 11  1  0
 13 12  1  6
 13 14  1  0
 14  4  1  0
 15 17  1  0
 15 13  1  0
 16 15  2  0
 18 17  1  0
 18 22  1  0
 18 19  1  1
 20 19  1  0
 21 20  2  0
 22 23  1  0
 24 20  1  0
 25 22  2  0
M  END
$$$$
