ARD.pdb
     RDKit          3D

 25 24  0  0  1  0  0  0  0  0999 V2000
   24.4081  -20.9712   -8.8496 C   0  0  0  0  0  0  0  0  0  0  0  0
   25.6237  -20.8298   -9.7323 C   0  0  2  0  0  0  0  0  0  0  0  0
   26.6237  -19.9671   -9.1480 N   0  0  0  0  0  0  0  0  0  0  0  0
   25.2820  -20.2839  -11.0686 C   0  0  0  0  0  0  0  0  0  0  0  0
   25.0301  -19.0648  -11.2536 O   0  0  0  0  0  0  0  0  0  0  0  0
   29.7523  -22.5467  -17.3597 N   0  0  0  0  0  0  0  0  0  0  0  0
   28.7299  -23.1626  -16.5847 C   0  0  0  0  0  0  0  0  0  0  0  0
   28.5245  -24.4145  -16.7401 N   0  0  0  0  0  0  0  0  0  0  0  0
   27.9474  -22.4086  -15.6536 N   0  0  0  0  0  0  0  0  0  0  0  0
   28.2488  -21.0230  -15.4013 C   0  0  0  0  0  0  0  0  0  0  0  0
   27.2938  -20.4609  -14.3745 C   0  0  0  0  0  0  0  0  0  0  0  0
   25.9325  -21.0816  -14.5777 C   0  0  0  0  0  0  0  0  0  0  0  0
   24.9351  -20.6172  -13.5435 C   0  0  2  0  0  0  0  0  0  0  0  0
   25.2192  -21.1217  -12.2337 N   0  0  0  0  0  0  0  0  0  0  0  0
   23.5480  -20.9361  -13.8983 C   0  0  0  0  0  0  0  0  0  0  0  0
   22.9483  -21.9264  -13.3832 O   0  0  0  0  0  0  0  0  0  0  0  0
   27.8384  -24.9058  -16.1437 N   0  0  0  0  0  0  0  0  0  0  0  0
   22.7785  -20.1702  -14.8345 C   0  0  1  0  0  0  0  0  0  0  0  0
   21.3387  -20.1377  -14.8019 C   0  0  0  0  0  0  0  0  0  0  0  0
   20.7992  -19.6413  -13.4813 C   0  0  0  0  0  0  0  0  0  0  0  0
   19.3140  -19.6772  -13.4454 O   0  0  0  0  0  0  0  0  0  0  0  0
   18.5776  -18.7057  -13.6885 C   0  0  0  0  0  0  0  0  0  0  0  0
   20.7722  -19.3120  -15.8958 O   0  0  0  0  0  0  0  0  0  0  0  0
   19.5645  -19.5670  -16.4973 O   0  0  0  0  0  0  0  0  0  0  0  0
   18.7231  -20.8896  -13.1152 O   0  0  0  0  0  0  0  0  0  0  0  0
  2  1  1  1
  3  2  1  0
  4  5  2  0
  4  2  1  0
  6  7  1  0
  7  9  1  0
  7  8  2  0
  9 10  1  0
 11 10  1  0
 12 11  1  0
 13 12  1  6
 13 14  1  0
 14  4  1  0
 15 17  1  0
 15 13  1  0
 16 15  2  0
 18 17  1  0
 18 22  1  0
 18 19  1  6
 20 19  1  0
 21 20  2  0
 22 23  1  0
 24 20  1  0
 25 22  2  0
M  END
$$$$
