ARD.pdb
     RDKit          3D

 25 24  0  0  1  0  0  0  0  0999 V2000
   26.9848  -22.4184  -17.6916 C   0  0  0  0  0  0  0  0  0  0  0  0
   26.2259  -21.2169  -17.1842 C   0  0  2  0  0  0  0  0  0  0  0  0
   27.0829  -20.0689  -17.0012 N   0  0  0  0  0  0  0  0  0  0  0  0
   25.5526  -21.4882  -15.8906 C   0  0  0  0  0  0  0  0  0  0  0  0
   24.6649  -22.3717  -15.7659 O   0  0  0  0  0  0  0  0  0  0  0  0
   29.0927  -21.7557   -8.7852 N   0  0  0  0  0  0  0  0  0  0  0  0
   29.8989  -21.7919   -9.9573 C   0  0  0  0  0  0  0  0  0  0  0  0
   30.9778  -22.4767   -9.9283 N   0  0  0  0  0  0  0  0  0  0  0  0
   29.5201  -21.0838  -11.1417 N   0  0  0  0  0  0  0  0  0  0  0  0
   28.2376  -20.4338  -11.2242 C   0  0  0  0  0  0  0  0  0  0  0  0
   27.3094  -21.2245  -12.1160 C   0  0  0  0  0  0  0  0  0  0  0  0
   26.0124  -20.4670  -12.2704 C   0  0  0  0  0  0  0  0  0  0  0  0
   25.2067  -20.9528  -13.4514 C   0  0  2  0  0  0  0  0  0  0  0  0
   25.8782  -20.7531  -14.7003 N   0  0  0  0  0  0  0  0  0  0  0  0
   23.8674  -20.3579  -13.5177 C   0  0  0  0  0  0  0  0  0  0  0  0
   23.6747  -19.2305  -14.0632 O   0  0  0  0  0  0  0  0  0  0  0  0
   31.6023  -22.4963  -10.7514 N   0  0  0  0  0  0  0  0  0  0  0  0
   22.6974  -20.9905  -12.9828 C   0  0  1  0  0  0  0  0  0  0  0  0
   21.3714  -20.4790  -13.2180 C   0  0  0  0  0  0  0  0  0  0  0  0
   21.0342  -20.3946  -14.6878 C   0  0  0  0  0  0  0  0  0  0  0  0
   19.6555  -19.8853  -14.9076 O   0  0  0  0  0  0  0  0  0  0  0  0
   18.7496  -20.5204  -15.4743 C   0  0  0  0  0  0  0  0  0  0  0  0
   20.3314  -21.2814  -12.5295 O   0  0  0  0  0  0  0  0  0  0  0  0
   20.3532  -22.6521  -12.4504 O   0  0  0  0  0  0  0  0  0  0  0  0
   19.3763  -18.6078  -14.4406 O   0  0  0  0  0  0  0  0  0  0  0  0
  2  1  1  1
  3  2  1  0
  4  5  2  0
  4  2  1  0
  6  7  1  0
  7  9  1  0
  7  8  2  0
  9 10  1  0
 11 10  1  0
 12 11  1  0
 13 12  1  1
 13 14  1  0
 14  4  1  0
 15 17  1  0
 15 13  1  0
 16 15  2  0
 18 17  1  0
 18 22  1  0
 18 19  1  6
 20 19  1  0
 21 20  2  0
 22 23  1  0
 24 20  1  0
 25 22  2  0
M  END
$$$$
