ARD.pdb
     RDKit          3D

 25 24  0  0  1  0  0  0  0  0999 V2000
   28.2257  -22.7533  -19.0033 C   0  0  0  0  0  0  0  0  0  0  0  0
   27.9336  -21.4830  -18.2430 C   0  0  2  0  0  0  0  0  0  0  0  0
   29.0294  -21.0977  -17.3848 N   0  0  0  0  0  0  0  0  0  0  0  0
   26.7204  -21.6053  -17.3982 C   0  0  0  0  0  0  0  0  0  0  0  0
   25.6080  -21.9636  -17.8654 O   0  0  0  0  0  0  0  0  0  0  0  0
   26.8433  -20.9551   -8.9140 N   0  0  0  0  0  0  0  0  0  0  0  0
   25.4825  -20.7968   -9.2992 C   0  0  0  0  0  0  0  0  0  0  0  0
   24.5987  -20.7183   -8.3791 N   0  0  0  0  0  0  0  0  0  0  0  0
   25.1040  -20.7263  -10.6774 N   0  0  0  0  0  0  0  0  0  0  0  0
   24.9722  -21.9282  -11.4600 C   0  0  0  0  0  0  0  0  0  0  0  0
   24.6040  -21.5844  -12.8843 C   0  0  0  0  0  0  0  0  0  0  0  0
   25.8637  -21.5095  -13.7132 C   0  0  0  0  0  0  0  0  0  0  0  0
   25.5691  -21.2891  -15.1776 C   0  0  2  0  0  0  0  0  0  0  0  0
   26.7476  -21.3197  -15.9907 N   0  0  0  0  0  0  0  0  0  0  0  0
   24.8313  -20.0477  -15.4355 C   0  0  0  0  0  0  0  0  0  0  0  0
   25.4362  -18.9640  -15.6914 O   0  0  0  0  0  0  0  0  0  0  0  0
   23.6074  -20.5596   -8.6239 N   0  0  0  0  0  0  0  0  0  0  0  0
   23.4003  -19.9641  -15.4186 C   0  0  2  0  0  0  0  0  0  0  0  0
   22.6801  -18.9600  -16.1590 C   0  0  0  0  0  0  0  0  0  0  0  0
   23.0588  -18.9336  -17.6209 C   0  0  0  0  0  0  0  0  0  0  0  0
   22.3183  -17.8799  -18.3622 O   0  0  0  0  0  0  0  0  0  0  0  0
   21.9071  -17.9937  -19.5298 C   0  0  0  0  0  0  0  0  0  0  0  0
   21.2108  -19.1257  -16.0440 O   0  0  0  0  0  0  0  0  0  0  0  0
   20.3450  -18.0935  -15.7785 O   0  0  0  0  0  0  0  0  0  0  0  0
   22.0769  -16.6901  -17.6883 O   0  0  0  0  0  0  0  0  0  0  0  0
  2  1  1  1
  3  2  1  0
  4  5  2  0
  4  2  1  0
  6  7  1  0
  7  9  1  0
  7  8  2  0
  9 10  1  0
 11 10  1  0
 12 11  1  0
 13 12  1  1
 13 14  1  0
 14  4  1  0
 15 17  1  0
 15 13  1  0
 16 15  2  0
 18 17  1  0
 18 22  1  0
 18 19  1  6
 20 19  1  0
 21 20  2  0
 22 23  1  0
 24 20  1  0
 25 22  2  0
M  END
$$$$
