ARD.pdb
     RDKit          3D

 25 24  0  0  1  0  0  0  0  0999 V2000
   28.6928  -24.3341  -17.7366 C   0  0  0  0  0  0  0  0  0  0  0  0
   28.1736  -22.9221  -17.8535 C   0  0  2  0  0  0  0  0  0  0  0  0
   29.2237  -21.9417  -17.7055 N   0  0  0  0  0  0  0  0  0  0  0  0
   27.1327  -22.6251  -16.8391 C   0  0  0  0  0  0  0  0  0  0  0  0
   26.0435  -23.2535  -16.7882 O   0  0  0  0  0  0  0  0  0  0  0  0
   25.7910  -21.1130   -9.1889 N   0  0  0  0  0  0  0  0  0  0  0  0
   24.4692  -21.0885   -9.7155 C   0  0  0  0  0  0  0  0  0  0  0  0
   23.5005  -20.8774   -8.9086 N   0  0  0  0  0  0  0  0  0  0  0  0
   24.2211  -21.2937  -11.1098 N   0  0  0  0  0  0  0  0  0  0  0  0
   25.3058  -21.6003  -12.0063 C   0  0  0  0  0  0  0  0  0  0  0  0
   25.8765  -20.3280  -12.5875 C   0  0  0  0  0  0  0  0  0  0  0  0
   26.9284  -20.6837  -13.6106 C   0  0  0  0  0  0  0  0  0  0  0  0
   26.3288  -21.2931  -14.8552 C   0  0  2  0  0  0  0  0  0  0  0  0
   27.3111  -21.5969  -15.8520 N   0  0  0  0  0  0  0  0  0  0  0  0
   25.2719  -20.4667  -15.4485 C   0  0  0  0  0  0  0  0  0  0  0  0
   25.5271  -19.3293  -15.9452 O   0  0  0  0  0  0  0  0  0  0  0  0
   22.5307  -20.8330   -9.2625 N   0  0  0  0  0  0  0  0  0  0  0  0
   23.8981  -20.8714  -15.5118 C   0  0  2  0  0  0  0  0  0  0  0  0
   22.8755  -20.0336  -16.0841 C   0  0  0  0  0  0  0  0  0  0  0  0
   22.2973  -20.6096  -17.3550 C   0  0  0  0  0  0  0  0  0  0  0  0
   21.2987  -19.6961  -17.9686 O   0  0  0  0  0  0  0  0  0  0  0  0
   20.9746  -18.5893  -17.5046 C   0  0  0  0  0  0  0  0  0  0  0  0
   21.7722  -19.7656  -15.1300 O   0  0  0  0  0  0  0  0  0  0  0  0
   20.8516  -18.7595  -15.2911 O   0  0  0  0  0  0  0  0  0  0  0  0
   20.6944  -20.1243  -19.1431 O   0  0  0  0  0  0  0  0  0  0  0  0
  2  1  1  1
  3  2  1  0
  4  5  2  0
  4  2  1  0
  6  7  1  0
  7  9  1  0
  7  8  2  0
  9 10  1  0
 11 10  1  0
 12 11  1  0
 13 12  1  1
 13 14  1  0
 14  4  1  0
 15 17  1  0
 15 13  1  0
 16 15  2  0
 18 17  1  0
 18 22  1  0
 18 19  1  6
 20 19  1  0
 21 20  2  0
 22 23  1  0
 24 20  1  0
 25 22  2  0
M  END
$$$$
