ARD.pdb
     RDKit          3D

 25 24  0  0  1  0  0  0  0  0999 V2000
   15.9673  -10.9019  -15.1406 C   0  0  0  0  0  0  0  0  0  0  0  0
   17.3134  -10.5471  -14.5584 C   0  0  2  0  0  0  0  0  0  0  0  0
   17.6785  -11.4139  -13.4624 N   0  0  0  0  0  0  0  0  0  0  0  0
   17.3553   -9.1499  -14.0619 C   0  0  0  0  0  0  0  0  0  0  0  0
   17.1915   -8.1601  -14.8218 O   0  0  0  0  0  0  0  0  0  0  0  0
   14.1597   -6.8861   -6.5681 N   0  0  0  0  0  0  0  0  0  0  0  0
   13.4093   -7.3773   -7.6730 C   0  0  0  0  0  0  0  0  0  0  0  0
   12.1815   -7.6786   -7.4840 N   0  0  0  0  0  0  0  0  0  0  0  0
   14.0046   -7.5330   -8.9649 N   0  0  0  0  0  0  0  0  0  0  0  0
   15.4220   -7.3491   -9.1419 C   0  0  0  0  0  0  0  0  0  0  0  0
   15.7849   -7.4737  -10.6030 C   0  0  0  0  0  0  0  0  0  0  0  0
   17.2839   -7.3661  -10.7481 C   0  0  0  0  0  0  0  0  0  0  0  0
   17.7286   -7.5096  -12.1840 C   0  0  2  0  0  0  0  0  0  0  0  0
   17.5868   -8.8466  -12.6770 N   0  0  0  0  0  0  0  0  0  0  0  0
   19.1035   -7.0505  -12.4089 C   0  0  0  0  0  0  0  0  0  0  0  0
   20.0941   -7.8118  -12.1974 O   0  0  0  0  0  0  0  0  0  0  0  0
   11.5969   -7.9938   -8.2756 N   0  0  0  0  0  0  0  0  0  0  0  0
   19.4278   -5.7343  -12.8753 C   0  0  1  0  0  0  0  0  0  0  0  0
   20.7286   -5.4027  -13.3980 C   0  0  0  0  0  0  0  0  0  0  0  0
   21.1115   -6.2546  -14.5850 C   0  0  0  0  0  0  0  0  0  0  0  0
   22.4382   -5.8701  -15.1331 O   0  0  0  0  0  0  0  0  0  0  0  0
   22.6223   -4.9736  -15.9744 C   0  0  0  0  0  0  0  0  0  0  0  0
   20.8320   -3.9726  -13.7769 O   0  0  0  0  0  0  0  0  0  0  0  0
   19.7560   -3.1225  -13.8485 O   0  0  0  0  0  0  0  0  0  0  0  0
   23.5396   -6.5717  -14.6614 O   0  0  0  0  0  0  0  0  0  0  0  0
  2  1  1  1
  3  2  1  0
  4  5  2  0
  4  2  1  0
  6  7  1  0
  7  9  1  0
  7  8  2  0
  9 10  1  0
 11 10  1  0
 12 11  1  0
 13 12  1  1
 13 14  1  0
 14  4  1  0
 15 17  1  0
 15 13  1  0
 16 15  2  0
 18 17  1  0
 18 22  1  0
 18 19  1  1
 20 19  1  0
 21 20  2  0
 22 23  1  0
 24 20  1  0
 25 22  2  0
M  END
$$$$
