ARD.pdb
     RDKit          3D

 25 24  0  0  1  0  0  0  0  0999 V2000
   20.1241  -13.0127  -18.0194 C   0  0  0  0  0  0  0  0  0  0  0  0
   20.5274  -12.1843  -16.8244 C   0  0  2  0  0  0  0  0  0  0  0  0
   20.2603  -12.8613  -15.5771 N   0  0  0  0  0  0  0  0  0  0  0  0
   19.8247  -10.8784  -16.7886 C   0  0  0  0  0  0  0  0  0  0  0  0
   19.9148  -10.0394  -17.7224 O   0  0  0  0  0  0  0  0  0  0  0  0
   11.7897  -10.5782  -14.9497 N   0  0  0  0  0  0  0  0  0  0  0  0
   12.3565  -11.0831  -16.1534 C   0  0  0  0  0  0  0  0  0  0  0  0
   11.5997  -11.7339  -16.9518 N   0  0  0  0  0  0  0  0  0  0  0  0
   13.7361  -10.8729  -16.4702 N   0  0  0  0  0  0  0  0  0  0  0  0
   14.5993  -10.1820  -15.5473 C   0  0  0  0  0  0  0  0  0  0  0  0
   15.9863  -10.0493  -16.1313 C   0  0  0  0  0  0  0  0  0  0  0  0
   16.8858   -9.3863  -15.1158 C   0  0  0  0  0  0  0  0  0  0  0  0
   18.3030   -9.2447  -15.6173 C   0  0  2  0  0  0  0  0  0  0  0  0
   18.9967  -10.4960  -15.6788 N   0  0  0  0  0  0  0  0  0  0  0  0
   19.0952   -8.2860  -14.8395 C   0  0  0  0  0  0  0  0  0  0  0  0
   19.7527   -8.6504  -13.8194 O   0  0  0  0  0  0  0  0  0  0  0  0
   11.9740  -12.0908  -17.8464 N   0  0  0  0  0  0  0  0  0  0  0  0
   19.1863   -6.8927  -15.1645 C   0  0  1  0  0  0  0  0  0  0  0  0
   20.1185   -6.0101  -14.5108 C   0  0  0  0  0  0  0  0  0  0  0  0
   21.5568   -6.4021  -14.7537 C   0  0  0  0  0  0  0  0  0  0  0  0
   22.5013   -5.4739  -14.0793 O   0  0  0  0  0  0  0  0  0  0  0  0
   22.6120   -5.3504  -12.8473 C   0  0  0  0  0  0  0  0  0  0  0  0
   19.9286   -4.5960  -14.9153 O   0  0  0  0  0  0  0  0  0  0  0  0
   20.3876   -3.5259  -14.1873 O   0  0  0  0  0  0  0  0  0  0  0  0
   23.3101   -4.6971  -14.8979 O   0  0  0  0  0  0  0  0  0  0  0  0
  2  1  1  6
  3  2  1  0
  4  5  2  0
  4  2  1  0
  6  7  1  0
  7  9  1  0
  7  8  2  0
  9 10  1  0
 11 10  1  0
 12 11  1  0
 13 12  1  1
 13 14  1  0
 14  4  1  0
 15 17  1  0
 15 13  1  0
 16 15  2  0
 18 17  1  0
 18 22  1  0
 18 19  1  1
 20 19  1  0
 21 20  2  0
 22 23  1  0
 24 20  1  0
 25 22  2  0
M  END
$$$$
