ARD.pdb
     RDKit          3D

 25 24  0  0  1  0  0  0  0  0999 V2000
   24.1497  -20.6157   -8.2948 C   0  0  0  0  0  0  0  0  0  0  0  0
   25.4312  -20.7229   -9.0844 C   0  0  2  0  0  0  0  0  0  0  0  0
   26.4671  -19.8636   -8.5606 N   0  0  0  0  0  0  0  0  0  0  0  0
   25.2363  -20.3754  -10.5133 C   0  0  0  0  0  0  0  0  0  0  0  0
   25.3590  -19.1988  -10.9428 O   0  0  0  0  0  0  0  0  0  0  0  0
   27.0612  -21.5802  -18.2522 N   0  0  0  0  0  0  0  0  0  0  0  0
   27.8461  -22.2229  -17.2542 C   0  0  0  0  0  0  0  0  0  0  0  0
   29.1183  -22.1968  -17.3756 N   0  0  0  0  0  0  0  0  0  0  0  0
   27.2365  -22.8835  -16.1407 N   0  0  0  0  0  0  0  0  0  0  0  0
   25.8025  -22.9745  -16.0424 C   0  0  0  0  0  0  0  0  0  0  0  0
   25.2617  -21.8193  -15.2329 C   0  0  0  0  0  0  0  0  0  0  0  0
   25.3643  -22.1573  -13.7649 C   0  0  0  0  0  0  0  0  0  0  0  0
   24.7729  -21.0782  -12.8898 C   0  0  2  0  0  0  0  0  0  0  0  0
   24.8946  -21.3689  -11.4928 N   0  0  0  0  0  0  0  0  0  0  0  0
   23.3707  -20.7852  -13.2061 C   0  0  0  0  0  0  0  0  0  0  0  0
   22.4331  -21.5288  -12.7894 O   0  0  0  0  0  0  0  0  0  0  0  0
   29.7121  -22.7496  -16.7356 N   0  0  0  0  0  0  0  0  0  0  0  0
   22.9597  -19.6602  -13.9939 C   0  0  2  0  0  0  0  0  0  0  0  0
   21.5725  -19.3593  -14.2394 C   0  0  0  0  0  0  0  0  0  0  0  0
   21.3694  -17.9688  -14.7930 C   0  0  0  0  0  0  0  0  0  0  0  0
   19.9277  -17.6437  -14.9486 O   0  0  0  0  0  0  0  0  0  0  0  0
   18.9959  -18.3251  -14.4873 C   0  0  0  0  0  0  0  0  0  0  0  0
   20.9402  -20.3402  -15.1546 O   0  0  0  0  0  0  0  0  0  0  0  0
   19.7133  -20.9139  -14.9287 O   0  0  0  0  0  0  0  0  0  0  0  0
   19.6169  -16.4941  -15.6626 O   0  0  0  0  0  0  0  0  0  0  0  0
  2  1  1  1
  3  2  1  0
  4  5  2  0
  4  2  1  0
  6  7  1  0
  7  9  1  0
  7  8  2  0
  9 10  1  0
 11 10  1  0
 12 11  1  0
 13 12  1  6
 13 14  1  0
 14  4  1  0
 15 17  1  0
 15 13  1  0
 16 15  2  0
 18 17  1  0
 18 22  1  0
 18 19  1  6
 20 19  1  0
 21 20  2  0
 22 23  1  0
 24 20  1  0
 25 22  2  0
M  END
$$$$
