ARD.pdb
     RDKit          3D

 25 24  0  0  1  0  0  0  0  0999 V2000
   27.5649  -19.8978  -17.7097 C   0  0  0  0  0  0  0  0  0  0  0  0
   27.9950  -21.0421  -16.8250 C   0  0  2  0  0  0  0  0  0  0  0  0
   28.3257  -22.2242  -17.5859 N   0  0  0  0  0  0  0  0  0  0  0  0
   26.9450  -21.4148  -15.8457 C   0  0  0  0  0  0  0  0  0  0  0  0
   26.0957  -22.3140  -16.0787 O   0  0  0  0  0  0  0  0  0  0  0  0
   22.5857  -20.3119   -9.6244 N   0  0  0  0  0  0  0  0  0  0  0  0
   23.3735  -21.0737   -8.7166 C   0  0  0  0  0  0  0  0  0  0  0  0
   22.7797  -21.6735   -7.7567 N   0  0  0  0  0  0  0  0  0  0  0  0
   24.7933  -21.1714   -8.8662 N   0  0  0  0  0  0  0  0  0  0  0  0
   25.4757  -20.3987   -9.8718 C   0  0  0  0  0  0  0  0  0  0  0  0
   25.0310  -20.8289  -11.2500 C   0  0  0  0  0  0  0  0  0  0  0  0
   26.1912  -20.6906  -12.2063 C   0  0  0  0  0  0  0  0  0  0  0  0
   25.8166  -21.0816  -13.6159 C   0  0  2  0  0  0  0  0  0  0  0  0
   26.8383  -20.7661  -14.5686 N   0  0  0  0  0  0  0  0  0  0  0  0
   24.5440  -20.4994  -14.0554 C   0  0  0  0  0  0  0  0  0  0  0  0
   24.4054  -19.2471  -14.1907 O   0  0  0  0  0  0  0  0  0  0  0  0
   23.3180  -22.2653   -7.1025 N   0  0  0  0  0  0  0  0  0  0  0  0
   23.3828  -21.2831  -14.3597 C   0  0  1  0  0  0  0  0  0  0  0  0
   22.1498  -20.6885  -14.8081 C   0  0  0  0  0  0  0  0  0  0  0  0
   21.5341  -21.4342  -15.9684 C   0  0  0  0  0  0  0  0  0  0  0  0
   22.2683  -21.1828  -17.2357 O   0  0  0  0  0  0  0  0  0  0  0  0
   23.2305  -20.4044  -17.3525 C   0  0  0  0  0  0  0  0  0  0  0  0
   21.1502  -20.5822  -13.7177 O   0  0  0  0  0  0  0  0  0  0  0  0
   20.1532  -19.6384  -13.6858 O   0  0  0  0  0  0  0  0  0  0  0  0
   21.8361  -21.8744  -18.3595 O   0  0  0  0  0  0  0  0  0  0  0  0
  2  1  1  6
  3  2  1  0
  4  5  2  0
  4  2  1  0
  6  7  1  0
  7  9  1  0
  7  8  2  0
  9 10  1  0
 11 10  1  0
 12 11  1  0
 13 12  1  1
 13 14  1  0
 14  4  1  0
 15 17  1  0
 15 13  1  0
 16 15  2  0
 18 17  1  0
 18 22  1  0
 18 19  1  6
 20 19  1  0
 21 20  2  0
 22 23  1  0
 24 20  1  0
 25 22  2  0
M  END
$$$$
