ARD.pdb
     RDKit          3D

 25 24  0  0  1  0  0  0  0  0999 V2000
   24.4741  -35.5114   -6.3475 C   0  0  0  0  0  0  0  0  0  0  0  0
   23.6974  -34.2405   -6.5893 C   0  0  2  0  0  0  0  0  0  0  0  0
   24.3818  -33.3479   -7.4952 N   0  0  0  0  0  0  0  0  0  0  0  0
   23.4395  -33.4969   -5.3320 C   0  0  0  0  0  0  0  0  0  0  0  0
   24.3503  -32.8919   -4.7087 O   0  0  0  0  0  0  0  0  0  0  0  0
   17.4210  -27.5113   -3.3389 N   0  0  0  0  0  0  0  0  0  0  0  0
   18.1693  -27.7466   -2.1515 C   0  0  0  0  0  0  0  0  0  0  0  0
   18.1108  -26.8761   -1.2174 N   0  0  0  0  0  0  0  0  0  0  0  0
   18.9688  -28.9234   -1.9982 N   0  0  0  0  0  0  0  0  0  0  0  0
   19.4309  -29.6470   -3.1546 C   0  0  0  0  0  0  0  0  0  0  0  0
   20.4176  -30.7138   -2.7413 C   0  0  0  0  0  0  0  0  0  0  0  0
   20.8102  -31.5178   -3.9575 C   0  0  0  0  0  0  0  0  0  0  0  0
   21.8154  -32.5951   -3.6274 C   0  0  2  0  0  0  0  0  0  0  0  0
   22.1274  -33.4253   -4.7518 N   0  0  0  0  0  0  0  0  0  0  0  0
   21.4059  -33.4375   -2.4985 C   0  0  0  0  0  0  0  0  0  0  0  0
   20.4486  -34.2609   -2.6054 O   0  0  0  0  0  0  0  0  0  0  0  0
   18.6009  -27.0413   -0.3228 N   0  0  0  0  0  0  0  0  0  0  0  0
   22.0417  -33.3969   -1.2143 C   0  0  1  0  0  0  0  0  0  0  0  0
   21.5691  -34.1744   -0.0975 C   0  0  0  0  0  0  0  0  0  0  0  0
   22.6942  -34.8069    0.6869 C   0  0  0  0  0  0  0  0  0  0  0  0
   23.3273  -35.9233   -0.0623 O   0  0  0  0  0  0  0  0  0  0  0  0
   22.9701  -36.3111   -1.1880 C   0  0  0  0  0  0  0  0  0  0  0  0
   20.7274  -33.3747    0.8254 O   0  0  0  0  0  0  0  0  0  0  0  0
   20.0510  -33.9066    1.8956 O   0  0  0  0  0  0  0  0  0  0  0  0
   24.3919  -36.5682    0.5531 O   0  0  0  0  0  0  0  0  0  0  0  0
  2  1  1  1
  3  2  1  0
  4  5  2  0
  4  2  1  0
  6  7  1  0
  7  9  1  0
  7  8  2  0
  9 10  1  0
 11 10  1  0
 12 11  1  0
 13 12  1  6
 13 14  1  0
 14  4  1  0
 15 17  1  0
 15 13  1  0
 16 15  2  0
 18 17  1  0
 18 22  1  0
 18 19  1  1
 20 19  1  0
 21 20  2  0
 22 23  1  0
 24 20  1  0
 25 22  2  0
M  END
$$$$
