TLI.pdb
     RDKit          3D

 24 23  0  0  1  0  0  0  0  0999 V2000
    9.6660  -19.0238   19.8046 C   0  0  0  0  0  0  0  0  0  0  0  0
    9.8098  -18.2255   21.0990 C   0  0  1  0  0  0  0  0  0  0  0  0
   11.1622  -18.2247   21.4369 O   0  0  0  0  0  0  0  0  0  0  0  0
    9.4324  -16.7693   20.8291 C   0  0  2  0  0  0  0  0  0  0  0  0
   10.2130  -16.2602   19.7440 N   0  0  0  0  0  0  0  0  0  0  0  0
    9.4823  -15.9450   22.0367 C   0  0  0  0  0  0  0  0  0  0  0  0
   10.4363  -15.1604   22.2482 O   0  0  0  0  0  0  0  0  0  0  0  0
    7.7158  -12.3861   25.0697 C   0  0  0  0  0  0  0  0  0  0  0  0
    6.7518  -13.4461   24.7212 C   0  0  2  0  0  0  0  0  0  0  0  0
    5.5230  -13.2900   25.6618 C   0  0  0  0  0  0  0  0  0  0  0  0
    7.1829  -14.8605   24.6943 C   0  0  0  0  0  0  0  0  0  0  0  0
    8.5318  -15.2292   24.2616 C   0  0  2  0  0  0  0  0  0  0  0  0
    8.4535  -16.0114   22.9996 N   0  0  0  0  0  0  0  0  0  0  0  0
    9.3522  -15.9906   25.2111 C   0  0  0  0  0  0  0  0  0  0  0  0
    9.8516  -17.1235   25.0429 O   0  0  0  0  0  0  0  0  0  0  0  0
   10.8942  -13.1562   29.7569 C   0  0  0  0  0  0  0  0  0  0  0  0
   11.2296  -14.0568   28.6254 C   0  0  0  0  0  0  0  0  0  0  0  0
   10.7941  -15.4755   28.7411 C   0  0  2  0  0  0  0  0  0  0  0  0
   11.8382  -16.3139   29.4972 C   0  0  0  0  0  0  0  0  0  0  0  0
   10.4574  -16.1794   27.4776 C   0  0  2  0  0  0  0  0  0  0  0  0
    9.6720  -15.4415   26.5253 N   0  0  0  0  0  0  0  0  0  0  0  0
    9.7437  -17.4716   27.7275 C   0  0  0  0  0  0  0  0  0  0  0  0
   10.4386  -18.6602   27.8869 O   0  0  0  0  0  0  0  0  0  0  0  0
    8.4919  -17.5146   27.7999 O   0  0  0  0  0  0  0  0  0  0  0  0
  2  1  1  6
  2  4  1  0
  3  2  1  0
  4  6  1  0
  4  5  1  6
  6  7  2  0
  9  8  1  1
  9 10  1  0
 11  9  1  0
 12 11  1  1
 13 12  1  0
 13  6  1  0
 14 15  2  0
 14 12  1  0
 17 16  1  0
 17 18  1  0
 18 20  1  0
 18 19  1  6
 20 21  1  6
 20 22  1  0
 21 14  1  0
 22 23  1  0
 24 22  2  0
M  END
$$$$
