TLI.pdb
     RDKit          3D

 24 23  0  0  1  0  0  0  0  0999 V2000
    9.3329  -18.7785   21.9469 C   0  0  0  0  0  0  0  0  0  0  0  0
   10.2776  -18.0218   21.0149 C   0  0  1  0  0  0  0  0  0  0  0  0
   10.2472  -18.6685   19.7804 O   0  0  0  0  0  0  0  0  0  0  0  0
    9.7233  -16.6172   20.7792 C   0  0  2  0  0  0  0  0  0  0  0  0
   10.4109  -16.0028   19.6856 N   0  0  0  0  0  0  0  0  0  0  0  0
    9.7048  -15.8105   21.9995 C   0  0  0  0  0  0  0  0  0  0  0  0
   10.7452  -15.2603   22.4299 O   0  0  0  0  0  0  0  0  0  0  0  0
    5.4980  -13.3563   25.9336 C   0  0  0  0  0  0  0  0  0  0  0  0
    6.8863  -13.5385   25.4711 C   0  0  2  0  0  0  0  0  0  0  0  0
    7.5145  -12.1253   25.3055 C   0  0  0  0  0  0  0  0  0  0  0  0
    7.1663  -14.3527   24.2688 C   0  0  0  0  0  0  0  0  0  0  0  0
    8.5031  -14.8952   24.0204 C   0  0  2  0  0  0  0  0  0  0  0  0
    8.5102  -15.6296   22.7277 N   0  0  0  0  0  0  0  0  0  0  0  0
    9.0628  -15.7849   25.0449 C   0  0  0  0  0  0  0  0  0  0  0  0
    9.2942  -17.0085   24.9419 O   0  0  0  0  0  0  0  0  0  0  0  0
   10.4268  -13.2968   29.9574 C   0  0  0  0  0  0  0  0  0  0  0  0
   10.7293  -14.0148   28.6937 C   0  0  0  0  0  0  0  0  0  0  0  0
   10.3875  -15.4628   28.6428 C   0  0  2  0  0  0  0  0  0  0  0  0
   11.4389  -16.3050   29.3843 C   0  0  0  0  0  0  0  0  0  0  0  0
   10.1790  -16.0563   27.2976 C   0  0  2  0  0  0  0  0  0  0  0  0
    9.4191  -15.2699   26.3635 N   0  0  0  0  0  0  0  0  0  0  0  0
    9.5258  -17.4014   27.3722 C   0  0  0  0  0  0  0  0  0  0  0  0
   10.2748  -18.5676   27.3769 O   0  0  0  0  0  0  0  0  0  0  0  0
    8.2774  -17.5107   27.4328 O   0  0  0  0  0  0  0  0  0  0  0  0
  2  1  1  1
  2  4  1  0
  3  2  1  0
  4  6  1  0
  4  5  1  6
  6  7  2  0
  9  8  1  6
  9 10  1  0
 11  9  1  0
 12 11  1  1
 13 12  1  0
 13  6  1  0
 14 15  2  0
 14 12  1  0
 17 16  1  0
 17 18  1  0
 18 20  1  0
 18 19  1  6
 20 21  1  6
 20 22  1  0
 21 14  1  0
 22 23  1  0
 24 22  2  0
M  END
$$$$
