TLI.pdb
     RDKit          3D

 24 23  0  0  1  0  0  0  0  0999 V2000
   12.4547  -19.5563   22.6301 C   0  0  0  0  0  0  0  0  0  0  0  0
   13.4925  -18.7373   21.8647 C   0  0  1  0  0  0  0  0  0  0  0  0
   14.1898  -19.6190   21.0403 O   0  0  0  0  0  0  0  0  0  0  0  0
   12.7694  -17.7610   20.9374 C   0  0  2  0  0  0  0  0  0  0  0  0
   13.7066  -17.1664   20.0350 N   0  0  0  0  0  0  0  0  0  0  0  0
   11.9525  -16.7937   21.6702 C   0  0  0  0  0  0  0  0  0  0  0  0
   12.4625  -15.7717   22.1859 O   0  0  0  0  0  0  0  0  0  0  0  0
    6.0113  -15.0663   22.2877 C   0  0  0  0  0  0  0  0  0  0  0  0
    7.4036  -15.0795   22.7734 C   0  0  2  0  0  0  0  0  0  0  0  0
    7.9241  -13.6141   22.7444 C   0  0  0  0  0  0  0  0  0  0  0  0
    8.3991  -15.9749   22.1457 C   0  0  0  0  0  0  0  0  0  0  0  0
    9.7526  -16.0965   22.6901 C   0  0  2  0  0  0  0  0  0  0  0  0
   10.5626  -16.9860   21.8166 N   0  0  0  0  0  0  0  0  0  0  0  0
    9.8758  -16.5875   24.0678 C   0  0  0  0  0  0  0  0  0  0  0  0
   10.1016  -17.7595   24.4375 O   0  0  0  0  0  0  0  0  0  0  0  0
    9.9653  -12.7443   28.4279 C   0  0  0  0  0  0  0  0  0  0  0  0
   10.3195  -13.8117   27.4587 C   0  0  0  0  0  0  0  0  0  0  0  0
    9.6316  -15.1221   27.6179 C   0  0  2  0  0  0  0  0  0  0  0  0
    9.9692  -15.7620   28.9749 C   0  0  0  0  0  0  0  0  0  0  0  0
    9.8608  -16.1340   26.5554 C   0  0  2  0  0  0  0  0  0  0  0  0
    9.7326  -15.6753   25.1984 N   0  0  0  0  0  0  0  0  0  0  0  0
    8.9589  -17.3196   26.7049 C   0  0  0  0  0  0  0  0  0  0  0  0
    9.3793  -18.4678   27.3576 O   0  0  0  0  0  0  0  0  0  0  0  0
    7.7929  -17.3067   26.2418 O   0  0  0  0  0  0  0  0  0  0  0  0
  2  1  1  6
  2  4  1  0
  3  2  1  0
  4  6  1  0
  4  5  1  1
  6  7  2  0
  9  8  1  6
  9 10  1  0
 11  9  1  0
 12 11  1  6
 13 12  1  0
 13  6  1  0
 14 15  2  0
 14 12  1  0
 17 16  1  0
 17 18  1  0
 18 20  1  0
 18 19  1  1
 20 21  1  6
 20 22  1  0
 21 14  1  0
 22 23  1  0
 24 22  2  0
M  END
$$$$
