TLI.pdb
     RDKit          3D

 24 23  0  0  1  0  0  0  0  0999 V2000
    8.3824  -19.8997   21.3355 C   0  0  0  0  0  0  0  0  0  0  0  0
    8.7496  -18.7444   22.2650 C   0  0  1  0  0  0  0  0  0  0  0  0
   10.1200  -18.8270   22.5069 O   0  0  0  0  0  0  0  0  0  0  0  0
    8.5208  -17.4238   21.5304 C   0  0  2  0  0  0  0  0  0  0  0  0
    9.2111  -17.4410   20.2776 N   0  0  0  0  0  0  0  0  0  0  0  0
    8.8262  -16.2600   22.3625 C   0  0  0  0  0  0  0  0  0  0  0  0
    9.9331  -15.6777   22.2833 O   0  0  0  0  0  0  0  0  0  0  0  0
    5.8772  -12.8710   26.7706 C   0  0  0  0  0  0  0  0  0  0  0  0
    7.0551  -13.1446   25.9267 C   0  0  2  0  0  0  0  0  0  0  0  0
    7.4930  -11.7984   25.2823 C   0  0  0  0  0  0  0  0  0  0  0  0
    6.9960  -14.1977   24.8902 C   0  0  0  0  0  0  0  0  0  0  0  0
    8.1968  -14.6016   24.1568 C   0  0  2  0  0  0  0  0  0  0  0  0
    7.8789  -15.7598   23.2804 N   0  0  0  0  0  0  0  0  0  0  0  0
    9.3784  -14.9528   24.9534 C   0  0  0  0  0  0  0  0  0  0  0  0
   10.4546  -14.3227   25.0315 O   0  0  0  0  0  0  0  0  0  0  0  0
    9.5276  -13.4934   29.3853 C   0  0  0  0  0  0  0  0  0  0  0  0
    9.9072  -14.1639   28.1164 C   0  0  0  0  0  0  0  0  0  0  0  0
    9.9834  -15.6505   28.1361 C   0  0  2  0  0  0  0  0  0  0  0  0
   10.9641  -16.1390   29.2152 C   0  0  0  0  0  0  0  0  0  0  0  0
   10.3258  -16.3220   26.8565 C   0  0  2  0  0  0  0  0  0  0  0  0
    9.3886  -16.1572   25.7782 N   0  0  0  0  0  0  0  0  0  0  0  0
   10.5369  -17.7936   27.0335 C   0  0  0  0  0  0  0  0  0  0  0  0
   11.8071  -18.3478   27.0107 O   0  0  0  0  0  0  0  0  0  0  0  0
    9.5661  -18.5690   27.2080 O   0  0  0  0  0  0  0  0  0  0  0  0
  2  1  1  6
  2  4  1  0
  3  2  1  0
  4  6  1  0
  4  5  1  6
  6  7  2  0
  9  8  1  6
  9 10  1  0
 11  9  1  0
 12 11  1  1
 13 12  1  0
 13  6  1  0
 14 15  2  0
 14 12  1  0
 17 16  1  0
 17 18  1  0
 18 20  1  0
 18 19  1  1
 20 21  1  6
 20 22  1  0
 21 14  1  0
 22 23  1  0
 24 22  2  0
M  END
$$$$
