TLI.pdb
     RDKit          3D

 24 23  0  0  1  0  0  0  0  0999 V2000
    8.2453  -20.2073   21.5729 C   0  0  0  0  0  0  0  0  0  0  0  0
    8.6365  -18.9816   22.3966 C   0  0  1  0  0  0  0  0  0  0  0  0
   10.0083  -19.0609   22.6311 O   0  0  0  0  0  0  0  0  0  0  0  0
    8.4154  -17.7257   21.5540 C   0  0  2  0  0  0  0  0  0  0  0  0
    9.1264  -17.8408   20.3181 N   0  0  0  0  0  0  0  0  0  0  0  0
    8.7032  -16.4972   22.2943 C   0  0  0  0  0  0  0  0  0  0  0  0
    9.7819  -15.8799   22.1337 O   0  0  0  0  0  0  0  0  0  0  0  0
    5.7608  -12.7798   26.4368 C   0  0  0  0  0  0  0  0  0  0  0  0
    6.9272  -13.1255   25.6034 C   0  0  2  0  0  0  0  0  0  0  0  0
    7.2596  -11.8858   24.7249 C   0  0  0  0  0  0  0  0  0  0  0  0
    6.9027  -14.3411   24.7617 C   0  0  0  0  0  0  0  0  0  0  0  0
    8.1026  -14.7930   24.0552 C   0  0  2  0  0  0  0  0  0  0  0  0
    7.7700  -15.9720   23.2127 N   0  0  0  0  0  0  0  0  0  0  0  0
    9.2681  -15.1425   24.8760 C   0  0  0  0  0  0  0  0  0  0  0  0
   10.4261  -14.6826   24.7831 O   0  0  0  0  0  0  0  0  0  0  0  0
    9.7859  -13.3617   29.4298 C   0  0  0  0  0  0  0  0  0  0  0  0
   10.1286  -14.0928   28.1840 C   0  0  0  0  0  0  0  0  0  0  0  0
    9.9988  -15.5754   28.2152 C   0  0  2  0  0  0  0  0  0  0  0  0
   10.9460  -16.1910   29.2586 C   0  0  0  0  0  0  0  0  0  0  0  0
   10.1918  -16.2932   26.9295 C   0  0  2  0  0  0  0  0  0  0  0  0
    9.1559  -16.1299   25.9454 N   0  0  0  0  0  0  0  0  0  0  0  0
   10.3780  -17.7651   27.1305 C   0  0  0  0  0  0  0  0  0  0  0  0
   11.5604  -18.2797   27.6386 O   0  0  0  0  0  0  0  0  0  0  0  0
    9.4654  -18.5768   26.8435 O   0  0  0  0  0  0  0  0  0  0  0  0
  2  1  1  6
  2  4  1  0
  3  2  1  0
  4  6  1  0
  4  5  1  6
  6  7  2  0
  9  8  1  6
  9 10  1  0
 11  9  1  0
 12 11  1  1
 13 12  1  0
 13  6  1  0
 14 15  2  0
 14 12  1  0
 17 16  1  0
 17 18  1  0
 18 20  1  0
 18 19  1  1
 20 21  1  6
 20 22  1  0
 21 14  1  0
 22 23  1  0
 24 22  2  0
M  END
$$$$
