TLI.pdb
     RDKit          3D

 24 23  0  0  1  0  0  0  0  0999 V2000
    9.3775  -18.6947   19.5898 C   0  0  0  0  0  0  0  0  0  0  0  0
    9.5741  -18.1167   20.9902 C   0  0  1  0  0  0  0  0  0  0  0  0
   10.8788  -18.4135   21.3812 O   0  0  0  0  0  0  0  0  0  0  0  0
    9.4827  -16.5929   20.9160 C   0  0  2  0  0  0  0  0  0  0  0  0
   10.3861  -16.1017   19.9216 N   0  0  0  0  0  0  0  0  0  0  0  0
    9.6363  -15.9585   22.2253 C   0  0  0  0  0  0  0  0  0  0  0  0
   10.6913  -15.3575   22.5358 O   0  0  0  0  0  0  0  0  0  0  0  0
    7.5136  -12.3423   24.7658 C   0  0  0  0  0  0  0  0  0  0  0  0
    6.7321  -13.5788   24.5795 C   0  0  2  0  0  0  0  0  0  0  0  0
    5.3950  -13.4097   25.3559 C   0  0  0  0  0  0  0  0  0  0  0  0
    7.3331  -14.8911   24.9013 C   0  0  0  0  0  0  0  0  0  0  0  0
    8.6811  -15.2348   24.4456 C   0  0  2  0  0  0  0  0  0  0  0  0
    8.5965  -16.0063   23.1775 N   0  0  0  0  0  0  0  0  0  0  0  0
    9.5269  -15.9922   25.3759 C   0  0  0  0  0  0  0  0  0  0  0  0
   10.1734  -17.0341   25.1358 O   0  0  0  0  0  0  0  0  0  0  0  0
   10.5273  -13.3162   30.0700 C   0  0  0  0  0  0  0  0  0  0  0  0
   11.0910  -14.1263   28.9610 C   0  0  0  0  0  0  0  0  0  0  0  0
   10.8030  -15.5867   28.9790 C   0  0  2  0  0  0  0  0  0  0  0  0
   11.9121  -16.3594   29.7122 C   0  0  0  0  0  0  0  0  0  0  0  0
   10.5683  -16.2408   27.6666 C   0  0  2  0  0  0  0  0  0  0  0  0
    9.6900  -15.5535   26.7586 N   0  0  0  0  0  0  0  0  0  0  0  0
   10.0393  -17.6330   27.8196 C   0  0  0  0  0  0  0  0  0  0  0  0
   10.8917  -18.7190   27.9429 O   0  0  0  0  0  0  0  0  0  0  0  0
    8.8048  -17.8562   27.8405 O   0  0  0  0  0  0  0  0  0  0  0  0
  2  1  1  6
  2  4  1  0
  3  2  1  0
  4  6  1  0
  4  5  1  6
  6  7  2  0
  9  8  1  1
  9 10  1  0
 11  9  1  0
 12 11  1  1
 13 12  1  0
 13  6  1  0
 14 15  2  0
 14 12  1  0
 17 16  1  0
 17 18  1  0
 18 20  1  0
 18 19  1  6
 20 21  1  6
 20 22  1  0
 21 14  1  0
 22 23  1  0
 24 22  2  0
M  END
$$$$
