TLI.pdb
     RDKit          3D

 24 23  0  0  1  0  0  0  0  0999 V2000
    7.8673  -20.1420   21.8192 C   0  0  0  0  0  0  0  0  0  0  0  0
    8.3219  -18.9237   22.6209 C   0  0  1  0  0  0  0  0  0  0  0  0
    9.6941  -19.0535   22.8292 O   0  0  0  0  0  0  0  0  0  0  0  0
    8.1324  -17.6692   21.7686 C   0  0  2  0  0  0  0  0  0  0  0  0
    8.8082  -17.8273   20.5178 N   0  0  0  0  0  0  0  0  0  0  0  0
    8.4880  -16.4454   22.4869 C   0  0  0  0  0  0  0  0  0  0  0  0
    9.5903  -15.8795   22.2994 O   0  0  0  0  0  0  0  0  0  0  0  0
    7.8289  -11.8827   25.5072 C   0  0  0  0  0  0  0  0  0  0  0  0
    6.6239  -12.6580   25.1590 C   0  0  2  0  0  0  0  0  0  0  0  0
    5.6077  -12.4938   26.3250 C   0  0  0  0  0  0  0  0  0  0  0  0
    6.7409  -14.0871   24.7970 C   0  0  0  0  0  0  0  0  0  0  0  0
    7.9288  -14.5955   24.1090 C   0  0  2  0  0  0  0  0  0  0  0  0
    7.5957  -15.8669   23.4139 N   0  0  0  0  0  0  0  0  0  0  0  0
    9.1239  -14.8317   24.9277 C   0  0  0  0  0  0  0  0  0  0  0  0
   10.1886  -14.1778   24.9211 O   0  0  0  0  0  0  0  0  0  0  0  0
    9.8085  -13.3788   29.5204 C   0  0  0  0  0  0  0  0  0  0  0  0
   10.0333  -13.9943   28.1883 C   0  0  0  0  0  0  0  0  0  0  0  0
   10.1112  -15.4800   28.1368 C   0  0  2  0  0  0  0  0  0  0  0  0
   11.2369  -16.0059   29.0429 C   0  0  0  0  0  0  0  0  0  0  0  0
   10.2656  -16.0978   26.7952 C   0  0  2  0  0  0  0  0  0  0  0  0
    9.1640  -15.9326   25.8855 N   0  0  0  0  0  0  0  0  0  0  0  0
   10.5467  -17.5658   26.8819 C   0  0  0  0  0  0  0  0  0  0  0  0
    9.6777  -18.4998   26.3399 O   0  0  0  0  0  0  0  0  0  0  0  0
   11.5807  -17.9931   27.4498 O   0  0  0  0  0  0  0  0  0  0  0  0
  2  1  1  6
  2  4  1  0
  3  2  1  0
  4  6  1  0
  4  5  1  6
  6  7  2  0
  9  8  1  1
  9 10  1  0
 11  9  1  0
 12 11  1  1
 13 12  1  0
 13  6  1  0
 14 15  2  0
 14 12  1  0
 17 16  1  0
 17 18  1  0
 18 20  1  0
 18 19  1  1
 20 21  1  6
 20 22  1  0
 21 14  1  0
 22 23  1  0
 24 22  2  0
M  END
$$$$
