TLI.pdb
     RDKit          3D

 24 23  0  0  1  0  0  0  0  0999 V2000
    6.2950  -18.3715   25.0214 C   0  0  0  0  0  0  0  0  0  0  0  0
    7.0250  -19.3524   24.1057 C   0  0  1  0  0  0  0  0  0  0  0  0
    6.3155  -20.5520   24.1343 O   0  0  0  0  0  0  0  0  0  0  0  0
    6.9482  -18.8407   22.6676 C   0  0  2  0  0  0  0  0  0  0  0  0
    7.0972  -19.9334   21.7565 N   0  0  0  0  0  0  0  0  0  0  0  0
    7.8662  -17.7290   22.4191 C   0  0  0  0  0  0  0  0  0  0  0  0
    9.0607  -17.9324   22.0994 O   0  0  0  0  0  0  0  0  0  0  0  0
    8.6297  -14.0280   19.3134 C   0  0  0  0  0  0  0  0  0  0  0  0
    7.4489  -14.0798   20.1950 C   0  0  2  0  0  0  0  0  0  0  0  0
    6.5406  -12.8700   19.8337 C   0  0  0  0  0  0  0  0  0  0  0  0
    7.6216  -14.1530   21.6619 C   0  0  0  0  0  0  0  0  0  0  0  0
    8.3565  -15.2580   22.2800 C   0  0  2  0  0  0  0  0  0  0  0  0
    7.4295  -16.3925   22.5333 N   0  0  0  0  0  0  0  0  0  0  0  0
    9.0654  -14.9696   23.5325 C   0  0  0  0  0  0  0  0  0  0  0  0
   10.1595  -14.3812   23.6660 O   0  0  0  0  0  0  0  0  0  0  0  0
    6.3804  -12.0739   26.5477 C   0  0  0  0  0  0  0  0  0  0  0  0
    7.5217  -12.8090   25.9467 C   0  0  0  0  0  0  0  0  0  0  0  0
    8.1361  -13.8879   26.7679 C   0  0  2  0  0  0  0  0  0  0  0  0
    8.9277  -13.3007   27.9483 C   0  0  0  0  0  0  0  0  0  0  0  0
    9.0084  -14.8576   26.0580 C   0  0  2  0  0  0  0  0  0  0  0  0
    8.5044  -15.3797   24.8163 N   0  0  0  0  0  0  0  0  0  0  0  0
    9.3587  -16.0321   26.9179 C   0  0  0  0  0  0  0  0  0  0  0  0
   10.3843  -15.9647   27.8478 O   0  0  0  0  0  0  0  0  0  0  0  0
    8.7312  -17.1142   26.8202 O   0  0  0  0  0  0  0  0  0  0  0  0
  2  1  1  1
  2  4  1  0
  3  2  1  0
  4  6  1  0
  4  5  1  6
  6  7  2  0
  9  8  1  6
  9 10  1  0
 11  9  1  0
 12 11  1  1
 13 12  1  0
 13  6  1  0
 14 15  2  0
 14 12  1  0
 17 16  1  0
 17 18  1  0
 18 20  1  0
 18 19  1  1
 20 21  1  6
 20 22  1  0
 21 14  1  0
 22 23  1  0
 24 22  2  0
M  END
$$$$
