TLI.pdb
     RDKit          3D

 24 23  0  0  1  0  0  0  0  0999 V2000
    8.4356  -18.3129   19.5330 C   0  0  0  0  0  0  0  0  0  0  0  0
    8.8231  -17.8195   20.9259 C   0  0  1  0  0  0  0  0  0  0  0  0
   10.1143  -18.2776   21.1831 O   0  0  0  0  0  0  0  0  0  0  0  0
    8.9032  -16.2933   20.9078 C   0  0  2  0  0  0  0  0  0  0  0  0
    9.8091  -15.8684   19.8856 N   0  0  0  0  0  0  0  0  0  0  0  0
    9.1895  -15.7321   22.2280 C   0  0  0  0  0  0  0  0  0  0  0  0
   10.3206  -15.2691   22.5053 O   0  0  0  0  0  0  0  0  0  0  0  0
    7.6298  -12.0166   25.1109 C   0  0  0  0  0  0  0  0  0  0  0  0
    6.6802  -13.1245   24.8979 C   0  0  2  0  0  0  0  0  0  0  0  0
    5.4490  -12.8692   25.8134 C   0  0  0  0  0  0  0  0  0  0  0  0
    7.1302  -14.5254   25.0464 C   0  0  0  0  0  0  0  0  0  0  0  0
    8.4169  -14.9652   24.5042 C   0  0  2  0  0  0  0  0  0  0  0  0
    8.1959  -15.6967   23.2288 N   0  0  0  0  0  0  0  0  0  0  0  0
    9.2507  -15.8102   25.3674 C   0  0  0  0  0  0  0  0  0  0  0  0
    9.5124  -17.0226   25.2166 O   0  0  0  0  0  0  0  0  0  0  0  0
   11.1325  -14.1268   30.7357 C   0  0  0  0  0  0  0  0  0  0  0  0
   10.4914  -14.8654   29.6189 C   0  0  0  0  0  0  0  0  0  0  0  0
   11.3858  -15.3612   28.5372 C   0  0  2  0  0  0  0  0  0  0  0  0
   12.2564  -14.2245   27.9760 C   0  0  0  0  0  0  0  0  0  0  0  0
   10.7379  -16.0584   27.3973 C   0  0  2  0  0  0  0  0  0  0  0  0
    9.8865  -15.2574   26.5595 N   0  0  0  0  0  0  0  0  0  0  0  0
    9.9298  -17.2364   27.8455 C   0  0  0  0  0  0  0  0  0  0  0  0
    8.5467  -17.2384   27.7558 O   0  0  0  0  0  0  0  0  0  0  0  0
   10.4844  -18.2585   28.3165 O   0  0  0  0  0  0  0  0  0  0  0  0
  2  1  1  6
  2  4  1  0
  3  2  1  0
  4  6  1  0
  4  5  1  6
  6  7  2  0
  9  8  1  1
  9 10  1  0
 11  9  1  0
 12 11  1  1
 13 12  1  0
 13  6  1  0
 14 15  2  0
 14 12  1  0
 17 16  1  0
 17 18  1  0
 18 20  1  0
 18 19  1  6
 20 21  1  1
 20 22  1  0
 21 14  1  0
 22 23  1  0
 24 22  2  0
M  END
$$$$
