TLI.pdb
     RDKit          3D

 24 23  0  0  1  0  0  0  0  0999 V2000
    5.7288  -20.0908   24.4275 C   0  0  0  0  0  0  0  0  0  0  0  0
    6.7516  -18.9776   24.2079 C   0  0  1  0  0  0  0  0  0  0  0  0
    7.9773  -19.4419   24.6824 O   0  0  0  0  0  0  0  0  0  0  0  0
    6.9278  -18.7540   22.7062 C   0  0  2  0  0  0  0  0  0  0  0  0
    7.2741  -19.9878   22.0706 N   0  0  0  0  0  0  0  0  0  0  0  0
    7.8436  -17.6530   22.4078 C   0  0  0  0  0  0  0  0  0  0  0  0
    9.0423  -17.8675   22.1119 O   0  0  0  0  0  0  0  0  0  0  0  0
    8.7450  -13.9916   19.2382 C   0  0  0  0  0  0  0  0  0  0  0  0
    7.5283  -14.0463   20.0695 C   0  0  2  0  0  0  0  0  0  0  0  0
    6.6187  -12.8571   19.6479 C   0  0  0  0  0  0  0  0  0  0  0  0
    7.6389  -14.0914   21.5434 C   0  0  0  0  0  0  0  0  0  0  0  0
    8.3414  -15.1871   22.2133 C   0  0  2  0  0  0  0  0  0  0  0  0
    7.4000  -16.3143   22.4451 N   0  0  0  0  0  0  0  0  0  0  0  0
    8.9948  -14.8784   23.4909 C   0  0  0  0  0  0  0  0  0  0  0  0
   10.0315  -14.2040   23.6687 O   0  0  0  0  0  0  0  0  0  0  0  0
    6.1908  -12.1900   26.6135 C   0  0  0  0  0  0  0  0  0  0  0  0
    7.2664  -12.9539   25.9328 C   0  0  0  0  0  0  0  0  0  0  0  0
    7.9909  -13.9685   26.7463 C   0  0  2  0  0  0  0  0  0  0  0  0
    8.7803  -13.3020   27.8853 C   0  0  0  0  0  0  0  0  0  0  0  0
    8.9062  -14.8835   26.0180 C   0  0  2  0  0  0  0  0  0  0  0  0
    8.4420  -15.3734   24.7480 N   0  0  0  0  0  0  0  0  0  0  0  0
    9.2771  -16.0784   26.8403 C   0  0  0  0  0  0  0  0  0  0  0  0
    9.0092  -17.3661   26.4030 O   0  0  0  0  0  0  0  0  0  0  0  0
    9.8429  -15.9469   27.9523 O   0  0  0  0  0  0  0  0  0  0  0  0
  2  1  1  6
  2  4  1  0
  3  2  1  0
  4  6  1  0
  4  5  1  6
  6  7  2  0
  9  8  1  6
  9 10  1  0
 11  9  1  0
 12 11  1  1
 13 12  1  0
 13  6  1  0
 14 15  2  0
 14 12  1  0
 17 16  1  0
 17 18  1  0
 18 20  1  0
 18 19  1  1
 20 21  1  6
 20 22  1  0
 21 14  1  0
 22 23  1  0
 24 22  2  0
M  END
$$$$
