TLI.pdb
     RDKit          3D

 24 23  0  0  1  0  0  0  0  0999 V2000
    5.2568  -19.9897   22.9185 C   0  0  0  0  0  0  0  0  0  0  0  0
    6.4019  -18.9943   23.0959 C   0  0  1  0  0  0  0  0  0  0  0  0
    7.4526  -19.6764   23.7075 O   0  0  0  0  0  0  0  0  0  0  0  0
    6.9085  -18.5692   21.7180 C   0  0  2  0  0  0  0  0  0  0  0  0
    7.3433  -19.7189   20.9863 N   0  0  0  0  0  0  0  0  0  0  0  0
    7.9039  -17.4997   21.7929 C   0  0  0  0  0  0  0  0  0  0  0  0
    9.1275  -17.7419   21.6717 O   0  0  0  0  0  0  0  0  0  0  0  0
    8.7246  -13.7901   18.9830 C   0  0  0  0  0  0  0  0  0  0  0  0
    7.6200  -13.7881   19.9599 C   0  0  2  0  0  0  0  0  0  0  0  0
    6.7346  -12.5441   19.6639 C   0  0  0  0  0  0  0  0  0  0  0  0
    7.9110  -13.8600   21.4080 C   0  0  0  0  0  0  0  0  0  0  0  0
    8.5090  -15.0589   21.9980 C   0  0  2  0  0  0  0  0  0  0  0  0
    7.5114  -16.1613   22.0044 N   0  0  0  0  0  0  0  0  0  0  0  0
    9.0494  -14.9350   23.3571 C   0  0  0  0  0  0  0  0  0  0  0  0
   10.0724  -14.3116   23.7121 O   0  0  0  0  0  0  0  0  0  0  0  0
    5.9967  -12.4970   26.6640 C   0  0  0  0  0  0  0  0  0  0  0  0
    6.6296  -13.6724   26.0144 C   0  0  0  0  0  0  0  0  0  0  0  0
    8.0780  -13.8905   26.2796 C   0  0  2  0  0  0  0  0  0  0  0  0
    8.9265  -12.7585   25.6766 C   0  0  0  0  0  0  0  0  0  0  0  0
    8.6526  -15.1879   25.8415 C   0  0  2  0  0  0  0  0  0  0  0  0
    8.3830  -15.5800   24.4844 N   0  0  0  0  0  0  0  0  0  0  0  0
    8.2181  -16.3198   26.7199 C   0  0  0  0  0  0  0  0  0  0  0  0
    8.5586  -16.3623   28.0628 O   0  0  0  0  0  0  0  0  0  0  0  0
    7.5309  -17.2649   26.2631 O   0  0  0  0  0  0  0  0  0  0  0  0
  2  1  1  6
  2  4  1  0
  3  2  1  0
  4  6  1  0
  4  5  1  1
  6  7  2  0
  9  8  1  6
  9 10  1  0
 11  9  1  0
 12 11  1  1
 13 12  1  0
 13  6  1  0
 14 15  2  0
 14 12  1  0
 17 16  1  0
 17 18  1  0
 18 20  1  0
 18 19  1  6
 20 21  1  6
 20 22  1  0
 21 14  1  0
 22 23  1  0
 24 22  2  0
M  END
$$$$
