KQN.pdb
     RDKit          3D

 27 26  0  0  1  0  0  0  0  0999 V2000
   26.1721  -18.5219  -17.5296 N   0  0  0  0  0  0  0  0  0  0  0  0
   24.8640  -19.1380  -17.9643 C   0  0  1  0  0  0  0  0  0  0  0  0
   25.0307  -19.4887  -19.3801 C   0  0  0  0  0  0  0  0  0  0  0  0
   25.9667  -18.8294  -20.2743 C   0  0  0  0  0  0  0  0  0  0  0  0
   25.7524  -17.6676  -21.1032 C   0  0  0  0  0  0  0  0  0  0  0  0
   26.7355  -17.1409  -22.0727 C   0  0  0  0  0  0  0  0  0  0  0  0
   27.7477  -16.2847  -21.5501 N   0  0  0  0  0  0  0  0  0  0  0  0
   24.5596  -20.2651  -17.0618 C   0  0  0  0  0  0  0  0  0  0  0  0
   24.0399  -21.3302  -17.4845 O   0  0  0  0  0  0  0  0  0  0  0  0
   25.8616  -24.6081  -14.5927 N   0  0  0  0  0  0  0  0  0  0  0  0
   26.7760  -23.8245  -15.3682 C   0  0  0  0  0  0  0  0  0  0  0  0
   27.5322  -24.3703  -16.1989 O   0  0  0  0  0  0  0  0  0  0  0  0
   26.8270  -22.3631  -15.1901 C   0  0  0  0  0  0  0  0  0  0  0  0
   25.8335  -21.8838  -14.1890 C   0  0  0  0  0  0  0  0  0  0  0  0
   24.5544  -21.3399  -14.7648 C   0  0  2  0  0  0  0  0  0  0  0  0
   24.8301  -20.2295  -15.6579 N   0  0  0  0  0  0  0  0  0  0  0  0
   23.5708  -20.9798  -13.7132 C   0  0  0  0  0  0  0  0  0  0  0  0
   23.4430  -21.7648  -12.7485 O   0  0  0  0  0  0  0  0  0  0  0  0
   18.8680  -17.5425  -13.7173 N   0  0  0  0  0  0  0  0  0  0  0  0
   19.3284  -18.5458  -14.6096 C   0  0  0  0  0  0  0  0  0  0  0  0
   18.4702  -19.2146  -15.2335 O   0  0  0  0  0  0  0  0  0  0  0  0
   20.7767  -18.7458  -14.7536 C   0  0  0  0  0  0  0  0  0  0  0  0
   21.3782  -19.6655  -13.7666 C   0  0  2  0  0  0  0  0  0  0  0  0
   22.7799  -19.8122  -13.7418 N   0  0  0  0  0  0  0  0  0  0  0  0
   20.5862  -20.9485  -13.7887 C   0  0  0  0  0  0  0  0  0  0  0  0
   20.8678  -21.7923  -14.6545 O   0  0  0  0  0  0  0  0  0  0  0  0
   19.5737  -21.1724  -12.8654 O   0  0  0  0  0  0  0  0  0  0  0  0
  2  1  1  1
  3  2  1  0
  4  3  1  0
  5  4  1  0
  6  5  1  0
  7  6  1  0
  8  2  1  0
  8  9  2  0
 10 11  1  0
 11 12  2  0
 13 11  1  0
 13 14  1  0
 15 14  1  1
 15 16  1  0
 16  8  1  0
 17 15  1  0
 18 17  2  0
 20 22  1  0
 20 19  1  0
 21 20  2  0
 23 22  1  6
 23 25  1  0
 23 24  1  0
 24 17  1  0
 25 27  1  0
 26 25  2  0
M  END
$$$$
