KQN.pdb
     RDKit          3D

 27 26  0  0  1  0  0  0  0  0999 V2000
   44.8365  -11.5934   -9.4784 N   0  0  0  0  0  0  0  0  0  0  0  0
   44.1058  -11.2433   -8.2044 C   0  0  1  0  0  0  0  0  0  0  0  0
   45.0710  -10.5187   -7.3684 C   0  0  0  0  0  0  0  0  0  0  0  0
   46.2235  -11.1384   -6.7377 C   0  0  0  0  0  0  0  0  0  0  0  0
   46.6286  -12.5232   -6.7670 C   0  0  0  0  0  0  0  0  0  0  0  0
   47.8180  -13.0600   -6.0734 C   0  0  0  0  0  0  0  0  0  0  0  0
   48.0775  -14.4511   -6.2407 N   0  0  0  0  0  0  0  0  0  0  0  0
   42.8853  -10.4944   -8.5606 C   0  0  0  0  0  0  0  0  0  0  0  0
   42.8070   -9.8211   -9.6208 O   0  0  0  0  0  0  0  0  0  0  0  0
   37.1645  -11.2687   -5.9369 N   0  0  0  0  0  0  0  0  0  0  0  0
   36.9478  -10.1022   -6.7391 C   0  0  0  0  0  0  0  0  0  0  0  0
   35.8092   -9.5970   -6.8289 O   0  0  0  0  0  0  0  0  0  0  0  0
   38.0738   -9.4882   -7.4640 C   0  0  0  0  0  0  0  0  0  0  0  0
   39.3381  -10.2572   -7.2937 C   0  0  0  0  0  0  0  0  0  0  0  0
   40.5160   -9.7345   -8.0701 C   0  0  2  0  0  0  0  0  0  0  0  0
   41.7163  -10.4795   -7.7369 N   0  0  0  0  0  0  0  0  0  0  0  0
   40.7008   -8.2718   -7.8979 C   0  0  0  0  0  0  0  0  0  0  0  0
   41.5203   -7.8908   -7.0340 O   0  0  0  0  0  0  0  0  0  0  0  0
   42.3291   -3.2732   -8.3100 N   0  0  0  0  0  0  0  0  0  0  0  0
   41.6944   -3.9891   -9.3586 C   0  0  0  0  0  0  0  0  0  0  0  0
   41.2773   -3.3368  -10.3453 O   0  0  0  0  0  0  0  0  0  0  0  0
   41.5609   -5.4466   -9.2326 C   0  0  0  0  0  0  0  0  0  0  0  0
   40.2388   -5.9116   -8.7660 C   0  0  2  0  0  0  0  0  0  0  0  0
   40.0096   -7.2973   -8.6478 N   0  0  0  0  0  0  0  0  0  0  0  0
   39.1856   -5.1355   -9.5158 C   0  0  0  0  0  0  0  0  0  0  0  0
   39.1465   -3.9047   -9.3585 O   0  0  0  0  0  0  0  0  0  0  0  0
   38.2899   -5.7845  -10.3549 O   0  0  0  0  0  0  0  0  0  0  0  0
  2  1  1  6
  3  2  1  0
  4  3  1  0
  5  4  1  0
  6  5  1  0
  7  6  1  0
  8  2  1  0
  8  9  2  0
 10 11  1  0
 11 12  2  0
 13 11  1  0
 13 14  1  0
 15 14  1  1
 15 16  1  0
 16  8  1  0
 17 15  1  0
 18 17  2  0
 20 22  1  0
 20 19  1  0
 21 20  2  0
 23 22  1  6
 23 25  1  0
 23 24  1  0
 24 17  1  0
 25 27  1  0
 26 25  2  0
M  END
$$$$
