KQN.pdb
     RDKit          3D

 27 26  0  0  1  0  0  0  0  0999 V2000
   25.9936  -25.3149  -18.2598 N   0  0  0  0  0  0  0  0  0  0  0  0
   27.1257  -25.6054  -17.3040 C   0  0  1  0  0  0  0  0  0  0  0  0
   28.2668  -26.0070  -18.1358 C   0  0  0  0  0  0  0  0  0  0  0  0
   28.4067  -27.3198  -18.7418 C   0  0  0  0  0  0  0  0  0  0  0  0
   28.3624  -28.6138  -18.1045 C   0  0  0  0  0  0  0  0  0  0  0  0
   29.5204  -29.2666  -17.4589 C   0  0  0  0  0  0  0  0  0  0  0  0
   29.2554  -30.4730  -16.7482 N   0  0  0  0  0  0  0  0  0  0  0  0
   27.3407  -24.4120  -16.4632 C   0  0  0  0  0  0  0  0  0  0  0  0
   28.3136  -24.3274  -15.6696 O   0  0  0  0  0  0  0  0  0  0  0  0
   27.2968  -18.6364  -18.0086 N   0  0  0  0  0  0  0  0  0  0  0  0
   27.2565  -18.4576  -16.5881 C   0  0  0  0  0  0  0  0  0  0  0  0
   27.4049  -17.3231  -16.0874 O   0  0  0  0  0  0  0  0  0  0  0  0
   27.0362  -19.6172  -15.7066 C   0  0  0  0  0  0  0  0  0  0  0  0
   26.9108  -20.8891  -16.4718 C   0  0  0  0  0  0  0  0  0  0  0  0
   26.6504  -22.1150  -15.6394 C   0  0  2  0  0  0  0  0  0  0  0  0
   26.4697  -23.2779  -16.4889 N   0  0  0  0  0  0  0  0  0  0  0  0
   25.5165  -21.9283  -14.6998 C   0  0  0  0  0  0  0  0  0  0  0  0
   24.3696  -22.1990  -15.1173 O   0  0  0  0  0  0  0  0  0  0  0  0
   24.1916  -21.0974   -8.9584 N   0  0  0  0  0  0  0  0  0  0  0  0
   24.0428  -20.3442  -10.1523 C   0  0  0  0  0  0  0  0  0  0  0  0
   23.0228  -19.6236  -10.2678 O   0  0  0  0  0  0  0  0  0  0  0  0
   25.0851  -20.4485  -11.1823 C   0  0  0  0  0  0  0  0  0  0  0  0
   24.6808  -21.1729  -12.4044 C   0  0  2  0  0  0  0  0  0  0  0  0
   25.6602  -21.4669  -13.3745 N   0  0  0  0  0  0  0  0  0  0  0  0
   23.4170  -20.5343  -12.9228 C   0  0  0  0  0  0  0  0  0  0  0  0
   22.3459  -21.1373  -12.7492 O   0  0  0  0  0  0  0  0  0  0  0  0
   23.4577  -19.3086  -13.5737 O   0  0  0  0  0  0  0  0  0  0  0  0
  2  1  1  6
  3  2  1  0
  4  3  1  0
  5  4  1  0
  6  5  1  0
  7  6  1  0
  8  2  1  0
  8  9  2  0
 10 11  1  0
 11 12  2  0
 13 11  1  0
 13 14  1  0
 15 14  1  6
 15 16  1  0
 16  8  1  0
 17 15  1  0
 18 17  2  0
 20 22  1  0
 20 19  1  0
 21 20  2  0
 23 22  1  1
 23 25  1  0
 23 24  1  0
 24 17  1  0
 25 27  1  0
 26 25  2  0
M  END
$$$$
