KQN.pdb
     RDKit          3D

 27 26  0  0  1  0  0  0  0  0999 V2000
   21.3345  -11.7543  -17.8887 N   0  0  0  0  0  0  0  0  0  0  0  0
   21.9287  -10.7217  -18.8161 C   0  0  1  0  0  0  0  0  0  0  0  0
   21.6515  -11.1920  -20.1789 C   0  0  0  0  0  0  0  0  0  0  0  0
   21.9633  -12.5286  -20.6548 C   0  0  0  0  0  0  0  0  0  0  0  0
   22.9776  -12.9336  -21.5981 C   0  0  0  0  0  0  0  0  0  0  0  0
   23.1167  -14.3020  -22.1384 C   0  0  0  0  0  0  0  0  0  0  0  0
   23.3132  -15.3443  -21.1867 N   0  0  0  0  0  0  0  0  0  0  0  0
   21.3593   -9.4050  -18.4699 C   0  0  0  0  0  0  0  0  0  0  0  0
   21.6589   -8.3646  -19.1111 O   0  0  0  0  0  0  0  0  0  0  0  0
   15.8994   -8.5592  -15.5145 N   0  0  0  0  0  0  0  0  0  0  0  0
   16.3626   -7.2064  -15.5960 C   0  0  0  0  0  0  0  0  0  0  0  0
   15.6315   -6.2627  -15.2286 O   0  0  0  0  0  0  0  0  0  0  0  0
   17.7117   -6.9205  -16.1140 C   0  0  0  0  0  0  0  0  0  0  0  0
   18.4469   -8.1624  -16.4831 C   0  0  0  0  0  0  0  0  0  0  0  0
   19.8019   -7.9459  -17.1000 C   0  0  2  0  0  0  0  0  0  0  0  0
   20.4364   -9.2179  -17.3935 N   0  0  0  0  0  0  0  0  0  0  0  0
   20.6657   -7.0692  -16.2703 C   0  0  0  0  0  0  0  0  0  0  0  0
   21.3431   -7.6107  -15.3697 O   0  0  0  0  0  0  0  0  0  0  0  0
   23.6745   -1.9488  -16.0797 N   0  0  0  0  0  0  0  0  0  0  0  0
   22.4735   -2.4347  -15.4997 C   0  0  0  0  0  0  0  0  0  0  0  0
   22.1872   -2.0551  -14.3391 O   0  0  0  0  0  0  0  0  0  0  0  0
   21.6354   -3.3506  -16.2851 C   0  0  0  0  0  0  0  0  0  0  0  0
   21.5580   -4.7284  -15.7582 C   0  0  2  0  0  0  0  0  0  0  0  0
   20.7638   -5.6723  -16.4402 N   0  0  0  0  0  0  0  0  0  0  0  0
   21.3376   -4.6414  -14.2690 C   0  0  0  0  0  0  0  0  0  0  0  0
   22.1414   -3.9734  -13.5991 O   0  0  0  0  0  0  0  0  0  0  0  0
   20.2658   -5.2913  -13.6720 O   0  0  0  0  0  0  0  0  0  0  0  0
  2  1  1  1
  3  2  1  0
  4  3  1  0
  5  4  1  0
  6  5  1  0
  7  6  1  0
  8  2  1  0
  8  9  2  0
 10 11  1  0
 11 12  2  0
 13 11  1  0
 13 14  1  0
 15 14  1  1
 15 16  1  0
 16  8  1  0
 17 15  1  0
 18 17  2  0
 20 22  1  0
 20 19  1  0
 21 20  2  0
 23 22  1  6
 23 25  1  0
 23 24  1  0
 24 17  1  0
 25 27  1  0
 26 25  2  0
M  END
$$$$
