KQN.pdb
     RDKit          3D

 27 26  0  0  1  0  0  0  0  0999 V2000
   22.2902  -14.4226  -18.7401 N   0  0  0  0  0  0  0  0  0  0  0  0
   21.3762  -13.6554  -17.8152 C   0  0  1  0  0  0  0  0  0  0  0  0
   20.7779  -14.6509  -16.9174 C   0  0  0  0  0  0  0  0  0  0  0  0
   20.4635  -16.0133  -17.3113 C   0  0  0  0  0  0  0  0  0  0  0  0
   21.3664  -17.1185  -17.5263 C   0  0  0  0  0  0  0  0  0  0  0  0
   20.9491  -18.4612  -17.9811 C   0  0  0  0  0  0  0  0  0  0  0  0
   21.9919  -19.3973  -18.2397 N   0  0  0  0  0  0  0  0  0  0  0  0
   22.1655  -12.5974  -17.1556 C   0  0  0  0  0  0  0  0  0  0  0  0
   21.6778  -11.8761  -16.2471 O   0  0  0  0  0  0  0  0  0  0  0  0
   28.4643  -11.9428  -17.2981 N   0  0  0  0  0  0  0  0  0  0  0  0
   28.0683  -10.6757  -16.7606 C   0  0  0  0  0  0  0  0  0  0  0  0
   28.9269   -9.8316  -16.4288 O   0  0  0  0  0  0  0  0  0  0  0  0
   26.6387  -10.3598  -16.5981 C   0  0  0  0  0  0  0  0  0  0  0  0
   25.7611  -11.4665  -17.0713 C   0  0  0  0  0  0  0  0  0  0  0  0
   24.2843  -11.2242  -16.9175 C   0  0  2  0  0  0  0  0  0  0  0  0
   23.5261  -12.3183  -17.4964 N   0  0  0  0  0  0  0  0  0  0  0  0
   23.8691   -9.9074  -17.4622 C   0  0  0  0  0  0  0  0  0  0  0  0
   23.8747   -9.7683  -18.7047 O   0  0  0  0  0  0  0  0  0  0  0  0
   20.3376   -5.9309  -19.2057 N   0  0  0  0  0  0  0  0  0  0  0  0
   21.5405   -6.1254  -18.4776 C   0  0  0  0  0  0  0  0  0  0  0  0
   22.2704   -5.1261  -18.2732 O   0  0  0  0  0  0  0  0  0  0  0  0
   21.8640   -7.4783  -18.0054 C   0  0  0  0  0  0  0  0  0  0  0  0
   22.9773   -7.5491  -17.0372 C   0  0  2  0  0  0  0  0  0  0  0  0
   23.4722   -8.8147  -16.6632 N   0  0  0  0  0  0  0  0  0  0  0  0
   22.6622   -6.6079  -15.9020 C   0  0  0  0  0  0  0  0  0  0  0  0
   23.4154   -5.6373  -15.7238 O   0  0  0  0  0  0  0  0  0  0  0  0
   21.5613   -6.8265  -15.0849 O   0  0  0  0  0  0  0  0  0  0  0  0
  2  1  1  6
  3  2  1  0
  4  3  1  0
  5  4  1  0
  6  5  1  0
  7  6  1  0
  8  2  1  0
  8  9  2  0
 10 11  1  0
 11 12  2  0
 13 11  1  0
 13 14  1  0
 15 14  1  6
 15 16  1  0
 16  8  1  0
 17 15  1  0
 18 17  2  0
 20 22  1  0
 20 19  1  0
 21 20  2  0
 23 22  1  1
 23 25  1  0
 23 24  1  0
 24 17  1  0
 25 27  1  0
 26 25  2  0
M  END
$$$$
