KQN.pdb
     RDKit          3D

 27 26  0  0  1  0  0  0  0  0999 V2000
   27.8795  -22.8469  -16.5748 N   0  0  0  0  0  0  0  0  0  0  0  0
   27.1493  -21.5650  -16.2538 C   0  0  1  0  0  0  0  0  0  0  0  0
   26.7611  -20.9842  -17.5450 C   0  0  0  0  0  0  0  0  0  0  0  0
   27.7084  -20.5013  -18.5348 C   0  0  0  0  0  0  0  0  0  0  0  0
   28.0782  -19.1393  -18.8362 C   0  0  0  0  0  0  0  0  0  0  0  0
   29.0415  -18.7487  -19.8866 C   0  0  0  0  0  0  0  0  0  0  0  0
   29.3375  -17.3588  -19.9927 N   0  0  0  0  0  0  0  0  0  0  0  0
   26.0358  -21.8822  -15.3389 C   0  0  0  0  0  0  0  0  0  0  0  0
   25.2683  -22.8582  -15.5431 O   0  0  0  0  0  0  0  0  0  0  0  0
   25.6972  -20.5568   -9.2438 N   0  0  0  0  0  0  0  0  0  0  0  0
   24.3767  -21.0593   -9.4787 C   0  0  0  0  0  0  0  0  0  0  0  0
   23.5869  -21.2355   -8.5274 O   0  0  0  0  0  0  0  0  0  0  0  0
   23.9411  -21.3700  -10.8512 C   0  0  0  0  0  0  0  0  0  0  0  0
   25.0120  -21.1095  -11.8534 C   0  0  0  0  0  0  0  0  0  0  0  0
   24.6353  -21.3918  -13.2823 C   0  0  2  0  0  0  0  0  0  0  0  0
   25.7513  -21.1127  -14.1674 N   0  0  0  0  0  0  0  0  0  0  0  0
   23.4033  -20.6730  -13.6933 C   0  0  0  0  0  0  0  0  0  0  0  0
   23.4442  -19.4236  -13.7172 O   0  0  0  0  0  0  0  0  0  0  0  0
   20.8356  -19.1520  -17.0593 N   0  0  0  0  0  0  0  0  0  0  0  0
   20.9485  -20.5601  -16.9197 C   0  0  0  0  0  0  0  0  0  0  0  0
   21.5412  -21.1936  -17.8255 O   0  0  0  0  0  0  0  0  0  0  0  0
   20.3686  -21.1959  -15.7292 C   0  0  0  0  0  0  0  0  0  0  0  0
   20.9615  -20.7689  -14.4454 C   0  0  2  0  0  0  0  0  0  0  0  0
   22.2007  -21.3154  -14.0550 N   0  0  0  0  0  0  0  0  0  0  0  0
   19.8739  -20.8011  -13.4014 C   0  0  0  0  0  0  0  0  0  0  0  0
   20.0283  -21.5482  -12.4221 O   0  0  0  0  0  0  0  0  0  0  0  0
   18.7369  -20.0161  -13.5379 O   0  0  0  0  0  0  0  0  0  0  0  0
  2  1  1  6
  3  2  1  0
  4  3  1  0
  5  4  1  0
  6  5  1  0
  7  6  1  0
  8  2  1  0
  8  9  2  0
 10 11  1  0
 11 12  2  0
 13 11  1  0
 13 14  1  0
 15 14  1  1
 15 16  1  0
 16  8  1  0
 17 15  1  0
 18 17  2  0
 20 22  1  0
 20 19  1  0
 21 20  2  0
 23 22  1  6
 23 25  1  0
 23 24  1  0
 24 17  1  0
 25 27  1  0
 26 25  2  0
M  END
$$$$
