KQN.pdb
     RDKit          3D

 27 26  0  0  1  0  0  0  0  0999 V2000
   16.3374  -11.2812  -16.5116 N   0  0  0  0  0  0  0  0  0  0  0  0
   17.2751  -11.2375  -15.3291 C   0  0  1  0  0  0  0  0  0  0  0  0
   18.5560  -11.7731  -15.8062 C   0  0  0  0  0  0  0  0  0  0  0  0
   18.6930  -12.6324  -16.9695 C   0  0  0  0  0  0  0  0  0  0  0  0
   19.2654  -13.9548  -17.0483 C   0  0  0  0  0  0  0  0  0  0  0  0
   19.5091  -14.6853  -18.3096 C   0  0  0  0  0  0  0  0  0  0  0  0
   20.1620  -15.9469  -18.1977 N   0  0  0  0  0  0  0  0  0  0  0  0
   17.3152   -9.8531  -14.8199 C   0  0  0  0  0  0  0  0  0  0  0  0
   17.1712   -8.8625  -15.5824 O   0  0  0  0  0  0  0  0  0  0  0  0
   15.8589   -8.0659   -9.0084 N   0  0  0  0  0  0  0  0  0  0  0  0
   16.5164   -6.8808   -9.4717 C   0  0  0  0  0  0  0  0  0  0  0  0
   16.6147   -5.8797   -8.7314 O   0  0  0  0  0  0  0  0  0  0  0  0
   17.0850   -6.8380  -10.8300 C   0  0  0  0  0  0  0  0  0  0  0  0
   16.9371   -8.1379  -11.5424 C   0  0  0  0  0  0  0  0  0  0  0  0
   17.5323   -8.1834  -12.9234 C   0  0  2  0  0  0  0  0  0  0  0  0
   17.5180   -9.5401  -13.4392 N   0  0  0  0  0  0  0  0  0  0  0  0
   18.8881   -7.5813  -12.9734 C   0  0  0  0  0  0  0  0  0  0  0  0
   19.8169   -8.2018  -12.4115 O   0  0  0  0  0  0  0  0  0  0  0  0
   22.8525   -4.3745  -13.8697 N   0  0  0  0  0  0  0  0  0  0  0  0
   21.8175   -3.8790  -14.7052 C   0  0  0  0  0  0  0  0  0  0  0  0
   22.0915   -2.9300  -15.4782 O   0  0  0  0  0  0  0  0  0  0  0  0
   20.4890   -4.5003  -14.6201 C   0  0  0  0  0  0  0  0  0  0  0  0
   20.3975   -5.6475  -13.6941 C   0  0  2  0  0  0  0  0  0  0  0  0
   19.1838   -6.3597  -13.6136 N   0  0  0  0  0  0  0  0  0  0  0  0
   20.9978   -5.2261  -12.3766 C   0  0  0  0  0  0  0  0  0  0  0  0
   22.1495   -4.7629  -12.3827 O   0  0  0  0  0  0  0  0  0  0  0  0
   20.2783   -5.3552  -11.1962 O   0  0  0  0  0  0  0  0  0  0  0  0
  2  1  1  6
  3  2  1  0
  4  3  1  0
  5  4  1  0
  6  5  1  0
  7  6  1  0
  8  2  1  0
  8  9  2  0
 10 11  1  0
 11 12  2  0
 13 11  1  0
 13 14  1  0
 15 14  1  1
 15 16  1  0
 16  8  1  0
 17 15  1  0
 18 17  2  0
 20 22  1  0
 20 19  1  0
 21 20  2  0
 23 22  1  6
 23 25  1  0
 23 24  1  0
 24 17  1  0
 25 27  1  0
 26 25  2  0
M  END
$$$$
