KQN.pdb
     RDKit          3D

 27 26  0  0  1  0  0  0  0  0999 V2000
   25.8124  -19.9593  -18.4558 N   0  0  0  0  0  0  0  0  0  0  0  0
   25.5288  -19.1085  -17.2412 C   0  0  1  0  0  0  0  0  0  0  0  0
   24.7072  -17.9872  -17.7136 C   0  0  0  0  0  0  0  0  0  0  0  0
   25.2520  -16.7541  -18.2549 C   0  0  0  0  0  0  0  0  0  0  0  0
   26.6199  -16.2942  -18.2442 C   0  0  0  0  0  0  0  0  0  0  0  0
   27.0755  -15.0160  -18.8293 C   0  0  0  0  0  0  0  0  0  0  0  0
   28.4618  -14.7143  -18.6963 N   0  0  0  0  0  0  0  0  0  0  0  0
   24.9065  -19.9628  -16.2115 C   0  0  0  0  0  0  0  0  0  0  0  0
   24.1209  -20.8983  -16.5132 O   0  0  0  0  0  0  0  0  0  0  0  0
   26.7446  -21.8742  -10.1623 N   0  0  0  0  0  0  0  0  0  0  0  0
   25.4798  -21.2022  -10.1462 C   0  0  0  0  0  0  0  0  0  0  0  0
   25.0945  -20.6006   -9.1217 O   0  0  0  0  0  0  0  0  0  0  0  0
   24.6242  -21.2157  -11.3453 C   0  0  0  0  0  0  0  0  0  0  0  0
   25.2772  -20.5541  -12.5092 C   0  0  0  0  0  0  0  0  0  0  0  0
   24.4837  -20.5759  -13.7872 C   0  0  2  0  0  0  0  0  0  0  0  0
   25.1483  -19.7921  -14.8123 N   0  0  0  0  0  0  0  0  0  0  0  0
   23.0760  -20.1510  -13.5844 C   0  0  0  0  0  0  0  0  0  0  0  0
   22.8696  -18.9501  -13.3043 O   0  0  0  0  0  0  0  0  0  0  0  0
   17.3465  -21.3645  -15.3123 N   0  0  0  0  0  0  0  0  0  0  0  0
   18.3169  -20.8016  -14.4427 C   0  0  0  0  0  0  0  0  0  0  0  0
   18.0244  -19.7365  -13.8484 O   0  0  0  0  0  0  0  0  0  0  0  0
   19.6040  -21.4923  -14.2865 C   0  0  0  0  0  0  0  0  0  0  0  0
   20.5991  -20.7741  -13.4645 C   0  0  2  0  0  0  0  0  0  0  0  0
   21.9689  -21.0188  -13.6892 N   0  0  0  0  0  0  0  0  0  0  0  0
   20.1486  -20.8456  -12.0272 C   0  0  0  0  0  0  0  0  0  0  0  0
   19.0307  -20.3862  -11.7435 O   0  0  0  0  0  0  0  0  0  0  0  0
   20.9646  -21.4095  -11.0558 O   0  0  0  0  0  0  0  0  0  0  0  0
  2  1  1  6
  3  2  1  0
  4  3  1  0
  5  4  1  0
  6  5  1  0
  7  6  1  0
  8  2  1  0
  8  9  2  0
 10 11  1  0
 11 12  2  0
 13 11  1  0
 13 14  1  0
 15 14  1  1
 15 16  1  0
 16  8  1  0
 17 15  1  0
 18 17  2  0
 20 22  1  0
 20 19  1  0
 21 20  2  0
 23 22  1  6
 23 25  1  0
 23 24  1  0
 24 17  1  0
 25 27  1  0
 26 25  2  0
M  END
$$$$
