KQN.pdb
     RDKit          3D

 27 26  0  0  1  0  0  0  0  0999 V2000
   16.7872  -13.4729  -17.4264 N   0  0  0  0  0  0  0  0  0  0  0  0
   17.7700  -13.4551  -16.2803 C   0  0  1  0  0  0  0  0  0  0  0  0
   18.2074  -14.8447  -16.0986 C   0  0  0  0  0  0  0  0  0  0  0  0
   17.2999  -15.9751  -16.0047 C   0  0  0  0  0  0  0  0  0  0  0  0
   16.6235  -16.6763  -17.0693 C   0  0  0  0  0  0  0  0  0  0  0  0
   15.7586  -17.8583  -16.8730 C   0  0  0  0  0  0  0  0  0  0  0  0
   16.1314  -18.7523  -15.8278 N   0  0  0  0  0  0  0  0  0  0  0  0
   18.8384  -12.4890  -16.6004 C   0  0  0  0  0  0  0  0  0  0  0  0
   19.8588  -12.3653  -15.8745 O   0  0  0  0  0  0  0  0  0  0  0  0
   19.6193   -9.6218  -22.1985 N   0  0  0  0  0  0  0  0  0  0  0  0
   20.6850   -9.0470  -21.4335 C   0  0  0  0  0  0  0  0  0  0  0  0
   21.5215   -8.2953  -21.9766 O   0  0  0  0  0  0  0  0  0  0  0  0
   20.7985   -9.3397  -19.9942 C   0  0  0  0  0  0  0  0  0  0  0  0
   19.7550  -10.2966  -19.5312 C   0  0  0  0  0  0  0  0  0  0  0  0
   19.8505  -10.6990  -18.0847 C   0  0  2  0  0  0  0  0  0  0  0  0
   18.7928  -11.6333  -17.7455 N   0  0  0  0  0  0  0  0  0  0  0  0
   19.8739   -9.5273  -17.1737 C   0  0  0  0  0  0  0  0  0  0  0  0
   18.7744   -9.0581  -16.8076 O   0  0  0  0  0  0  0  0  0  0  0  0
   21.4227   -5.7869  -13.9633 N   0  0  0  0  0  0  0  0  0  0  0  0
   21.1433   -7.0644  -13.4111 C   0  0  0  0  0  0  0  0  0  0  0  0
   21.0336   -7.1533  -12.1648 O   0  0  0  0  0  0  0  0  0  0  0  0
   20.9987   -8.2068  -14.3232 C   0  0  0  0  0  0  0  0  0  0  0  0
   21.2344   -7.8979  -15.7484 C   0  0  2  0  0  0  0  0  0  0  0  0
   21.0567   -8.9198  -16.7028 N   0  0  0  0  0  0  0  0  0  0  0  0
   22.5278   -7.1287  -15.8461 C   0  0  0  0  0  0  0  0  0  0  0  0
   23.5042   -7.6942  -16.3637 O   0  0  0  0  0  0  0  0  0  0  0  0
   22.6165   -5.8277  -15.3695 O   0  0  0  0  0  0  0  0  0  0  0  0
  2  1  1  6
  3  2  1  0
  4  3  1  0
  5  4  1  0
  6  5  1  0
  7  6  1  0
  8  2  1  0
  8  9  2  0
 10 11  1  0
 11 12  2  0
 13 11  1  0
 13 14  1  0
 15 14  1  6
 15 16  1  0
 16  8  1  0
 17 15  1  0
 18 17  2  0
 20 22  1  0
 20 19  1  0
 21 20  2  0
 23 22  1  1
 23 25  1  0
 23 24  1  0
 24 17  1  0
 25 27  1  0
 26 25  2  0
M  END
$$$$
