KQN.pdb
     RDKit          3D

 27 26  0  0  1  0  0  0  0  0999 V2000
   22.2858  -20.3002  -15.2816 N   0  0  0  0  0  0  0  0  0  0  0  0
   22.8993  -20.1326  -13.9123 C   0  0  1  0  0  0  0  0  0  0  0  0
   22.7286  -21.4212  -13.2301 C   0  0  0  0  0  0  0  0  0  0  0  0
   21.8984  -22.5018  -13.7335 C   0  0  0  0  0  0  0  0  0  0  0  0
   22.2812  -23.6178  -14.5645 C   0  0  0  0  0  0  0  0  0  0  0  0
   21.3507  -24.6632  -15.0390 C   0  0  0  0  0  0  0  0  0  0  0  0
   21.9085  -25.6857  -15.8600 N   0  0  0  0  0  0  0  0  0  0  0  0
   24.2945  -19.6826  -14.0811 C   0  0  0  0  0  0  0  0  0  0  0  0
   25.0167  -19.3804  -13.0960 O   0  0  0  0  0  0  0  0  0  0  0  0
   26.9016  -22.5990  -17.3488 N   0  0  0  0  0  0  0  0  0  0  0  0
   27.8495  -22.3093  -16.3148 C   0  0  0  0  0  0  0  0  0  0  0  0
   28.5701  -23.2141  -15.8437 O   0  0  0  0  0  0  0  0  0  0  0  0
   27.9810  -20.9349  -15.8013 C   0  0  0  0  0  0  0  0  0  0  0  0
   27.0386  -19.9933  -16.4678 C   0  0  0  0  0  0  0  0  0  0  0  0
   26.2794  -19.0829  -15.5412 C   0  0  2  0  0  0  0  0  0  0  0  0
   24.9200  -19.5588  -15.3612 N   0  0  0  0  0  0  0  0  0  0  0  0
   26.3214  -17.6664  -15.9828 C   0  0  0  0  0  0  0  0  0  0  0  0
   27.4427  -17.1191  -16.0626 O   0  0  0  0  0  0  0  0  0  0  0  0
   24.3405  -14.8058  -19.8223 N   0  0  0  0  0  0  0  0  0  0  0  0
   24.9112  -16.0940  -19.9941 C   0  0  0  0  0  0  0  0  0  0  0  0
   25.1265  -16.4888  -21.1649 O   0  0  0  0  0  0  0  0  0  0  0  0
   25.2172  -16.8910  -18.7985 C   0  0  0  0  0  0  0  0  0  0  0  0
   24.8351  -16.2620  -17.5178 C   0  0  2  0  0  0  0  0  0  0  0  0
   25.1772  -16.9110  -16.3142 N   0  0  0  0  0  0  0  0  0  0  0  0
   23.4005  -15.8125  -17.6342 C   0  0  0  0  0  0  0  0  0  0  0  0
   23.1130  -15.0093  -18.5361 O   0  0  0  0  0  0  0  0  0  0  0  0
   22.4356  -16.2867  -16.7558 O   0  0  0  0  0  0  0  0  0  0  0  0
  2  1  1  6
  3  2  1  0
  4  3  1  0
  5  4  1  0
  6  5  1  0
  7  6  1  0
  8  2  1  0
  8  9  2  0
 10 11  1  0
 11 12  2  0
 13 11  1  0
 13 14  1  0
 15 14  1  6
 15 16  1  0
 16  8  1  0
 17 15  1  0
 18 17  2  0
 20 22  1  0
 20 19  1  0
 21 20  2  0
 23 22  1  6
 23 25  1  0
 23 24  1  0
 24 17  1  0
 25 27  1  0
 26 25  2  0
M  END
$$$$
