KQN.pdb
     RDKit          3D

 27 26  0  0  1  0  0  0  0  0999 V2000
   17.2874  -13.8572  -17.6836 N   0  0  0  0  0  0  0  0  0  0  0  0
   16.8715  -12.4419  -17.3619 C   0  0  1  0  0  0  0  0  0  0  0  0
   16.3200  -12.4797  -16.0019 C   0  0  0  0  0  0  0  0  0  0  0  0
   14.9512  -12.8542  -15.6918 C   0  0  0  0  0  0  0  0  0  0  0  0
   14.1212  -13.8430  -16.3368 C   0  0  0  0  0  0  0  0  0  0  0  0
   12.7028  -14.0888  -16.0028 C   0  0  0  0  0  0  0  0  0  0  0  0
   12.3565  -14.0355  -14.6215 N   0  0  0  0  0  0  0  0  0  0  0  0
   18.0403  -11.5610  -17.5498 C   0  0  0  0  0  0  0  0  0  0  0  0
   19.2153  -11.9706  -17.3625 O   0  0  0  0  0  0  0  0  0  0  0  0
   19.6905   -8.5082  -21.7245 N   0  0  0  0  0  0  0  0  0  0  0  0
   20.3160   -7.5208  -20.8967 C   0  0  0  0  0  0  0  0  0  0  0  0
   21.2343   -6.8047  -21.3479 O   0  0  0  0  0  0  0  0  0  0  0  0
   19.8748   -7.3430  -19.5024 C   0  0  0  0  0  0  0  0  0  0  0  0
   18.7430   -8.2456  -19.1516 C   0  0  0  0  0  0  0  0  0  0  0  0
   19.0674   -9.3217  -18.1514 C   0  0  2  0  0  0  0  0  0  0  0  0
   17.9243  -10.1940  -17.9536 N   0  0  0  0  0  0  0  0  0  0  0  0
   19.5751   -8.7675  -16.8714 C   0  0  0  0  0  0  0  0  0  0  0  0
   20.5614   -8.0010  -16.9245 O   0  0  0  0  0  0  0  0  0  0  0  0
   19.8624   -7.9257  -11.6810 N   0  0  0  0  0  0  0  0  0  0  0  0
   20.8999   -8.6086  -12.3681 C   0  0  0  0  0  0  0  0  0  0  0  0
   21.9800   -8.7989  -11.7596 O   0  0  0  0  0  0  0  0  0  0  0  0
   20.6545   -9.0529  -13.7466 C   0  0  0  0  0  0  0  0  0  0  0  0
   19.3753   -8.5973  -14.3281 C   0  0  2  0  0  0  0  0  0  0  0  0
   19.0115   -9.0549  -15.6107 N   0  0  0  0  0  0  0  0  0  0  0  0
   19.2740   -7.1085  -14.1112 C   0  0  0  0  0  0  0  0  0  0  0  0
   18.4459   -6.6953  -13.2838 O   0  0  0  0  0  0  0  0  0  0  0  0
   20.0856   -6.2323  -14.8191 O   0  0  0  0  0  0  0  0  0  0  0  0
  2  1  1  1
  3  2  1  0
  4  3  1  0
  5  4  1  0
  6  5  1  0
  7  6  1  0
  8  2  1  0
  8  9  2  0
 10 11  1  0
 11 12  2  0
 13 11  1  0
 13 14  1  0
 15 14  1  6
 15 16  1  0
 16  8  1  0
 17 15  1  0
 18 17  2  0
 20 22  1  0
 20 19  1  0
 21 20  2  0
 23 22  1  6
 23 25  1  0
 23 24  1  0
 24 17  1  0
 25 27  1  0
 26 25  2  0
M  END
$$$$
