KQN.pdb
     RDKit          3D

 27 26  0  0  1  0  0  0  0  0999 V2000
   17.9571  -14.2942  -18.6218 N   0  0  0  0  0  0  0  0  0  0  0  0
   18.1707  -14.1022  -17.1396 C   0  0  1  0  0  0  0  0  0  0  0  0
   18.3671  -15.4452  -16.5800 C   0  0  0  0  0  0  0  0  0  0  0  0
   17.2851  -16.3728  -16.2985 C   0  0  0  0  0  0  0  0  0  0  0  0
   17.3538  -17.6715  -15.6729 C   0  0  0  0  0  0  0  0  0  0  0  0
   16.2141  -18.6055  -15.5608 C   0  0  0  0  0  0  0  0  0  0  0  0
   16.5172  -19.9293  -15.1292 N   0  0  0  0  0  0  0  0  0  0  0  0
   19.2940  -13.1643  -16.9505 C   0  0  0  0  0  0  0  0  0  0  0  0
   19.7510  -12.8998  -15.8083 O   0  0  0  0  0  0  0  0  0  0  0  0
   22.9674  -10.9118  -21.6238 N   0  0  0  0  0  0  0  0  0  0  0  0
   23.5427  -10.2756  -20.4767 C   0  0  0  0  0  0  0  0  0  0  0  0
   24.5512   -9.5483  -20.5943 O   0  0  0  0  0  0  0  0  0  0  0  0
   22.9427  -10.4756  -19.1462 C   0  0  0  0  0  0  0  0  0  0  0  0
   21.7753  -11.3998  -19.1892 C   0  0  0  0  0  0  0  0  0  0  0  0
   21.0858  -11.6234  -17.8709 C   0  0  2  0  0  0  0  0  0  0  0  0
   19.9377  -12.4956  -18.0386 N   0  0  0  0  0  0  0  0  0  0  0  0
   20.7259  -10.3495  -17.1994 C   0  0  0  0  0  0  0  0  0  0  0  0
   19.7751   -9.6931  -17.6772 O   0  0  0  0  0  0  0  0  0  0  0  0
   20.6739   -6.2571  -14.0409 N   0  0  0  0  0  0  0  0  0  0  0  0
   20.9750   -7.3799  -13.2263 C   0  0  0  0  0  0  0  0  0  0  0  0
   21.0148   -7.2095  -11.9843 O   0  0  0  0  0  0  0  0  0  0  0  0
   21.2223   -8.6732  -13.8775 C   0  0  0  0  0  0  0  0  0  0  0  0
   21.1903   -8.6418  -15.3540 C   0  0  2  0  0  0  0  0  0  0  0  0
   21.3908   -9.8435  -16.0629 N   0  0  0  0  0  0  0  0  0  0  0  0
   22.0197   -7.4674  -15.8087 C   0  0  0  0  0  0  0  0  0  0  0  0
   23.0179   -7.6960  -16.5104 O   0  0  0  0  0  0  0  0  0  0  0  0
   21.6714   -6.1723  -15.4495 O   0  0  0  0  0  0  0  0  0  0  0  0
  2  1  1  6
  3  2  1  0
  4  3  1  0
  5  4  1  0
  6  5  1  0
  7  6  1  0
  8  2  1  0
  8  9  2  0
 10 11  1  0
 11 12  2  0
 13 11  1  0
 13 14  1  0
 15 14  1  6
 15 16  1  0
 16  8  1  0
 17 15  1  0
 18 17  2  0
 20 22  1  0
 20 19  1  0
 21 20  2  0
 23 22  1  1
 23 25  1  0
 23 24  1  0
 24 17  1  0
 25 27  1  0
 26 25  2  0
M  END
$$$$
