KQN.pdb
     RDKit          3D

 27 26  0  0  1  0  0  0  0  0999 V2000
   22.4591  -13.2213  -19.0534 N   0  0  0  0  0  0  0  0  0  0  0  0
   23.2334  -12.1004  -18.4025 C   0  0  1  0  0  0  0  0  0  0  0  0
   24.5061  -12.0106  -19.1286 C   0  0  0  0  0  0  0  0  0  0  0  0
   25.1742  -13.1475  -19.7382 C   0  0  0  0  0  0  0  0  0  0  0  0
   26.3496  -13.1571  -20.5754 C   0  0  0  0  0  0  0  0  0  0  0  0
   26.9387  -14.3732  -21.1736 C   0  0  0  0  0  0  0  0  0  0  0  0
   28.0215  -14.1760  -22.0787 N   0  0  0  0  0  0  0  0  0  0  0  0
   22.3989  -10.8837  -18.4294 C   0  0  0  0  0  0  0  0  0  0  0  0
   22.3672  -10.1244  -19.4323 O   0  0  0  0  0  0  0  0  0  0  0  0
   16.6216  -10.5516  -17.5323 N   0  0  0  0  0  0  0  0  0  0  0  0
   16.8767   -9.1454  -17.4365 C   0  0  0  0  0  0  0  0  0  0  0  0
   15.9331   -8.3274  -17.4513 O   0  0  0  0  0  0  0  0  0  0  0  0
   18.2608   -8.6554  -17.3170 C   0  0  0  0  0  0  0  0  0  0  0  0
   19.2564   -9.7614  -17.3832 C   0  0  0  0  0  0  0  0  0  0  0  0
   20.6973   -9.3285  -17.3723 C   0  0  2  0  0  0  0  0  0  0  0  0
   21.5753  -10.4836  -17.3308 N   0  0  0  0  0  0  0  0  0  0  0  0
   20.9888   -8.3660  -16.2807 C   0  0  0  0  0  0  0  0  0  0  0  0
   21.2610   -8.8351  -15.1542 O   0  0  0  0  0  0  0  0  0  0  0  0
   22.9686   -2.8605  -14.9084 N   0  0  0  0  0  0  0  0  0  0  0  0
   22.6757   -4.1926  -14.5154 C   0  0  0  0  0  0  0  0  0  0  0  0
   22.5835   -4.4353  -13.2883 O   0  0  0  0  0  0  0  0  0  0  0  0
   22.4974   -5.2095  -15.5605 C   0  0  0  0  0  0  0  0  0  0  0  0
   21.2150   -5.9404  -15.5043 C   0  0  2  0  0  0  0  0  0  0  0  0
   20.9759   -6.9648  -16.4425 N   0  0  0  0  0  0  0  0  0  0  0  0
   20.1113   -4.9248  -15.3485 C   0  0  0  0  0  0  0  0  0  0  0  0
   19.6698   -4.3822  -16.3740 O   0  0  0  0  0  0  0  0  0  0  0  0
   19.6090   -4.6108  -14.0928 O   0  0  0  0  0  0  0  0  0  0  0  0
  2  1  1  6
  3  2  1  0
  4  3  1  0
  5  4  1  0
  6  5  1  0
  7  6  1  0
  8  2  1  0
  8  9  2  0
 10 11  1  0
 11 12  2  0
 13 11  1  0
 13 14  1  0
 15 14  1  1
 15 16  1  0
 16  8  1  0
 17 15  1  0
 18 17  2  0
 20 22  1  0
 20 19  1  0
 21 20  2  0
 23 22  1  6
 23 25  1  0
 23 24  1  0
 24 17  1  0
 25 27  1  0
 26 25  2  0
M  END
$$$$
