KQN.pdb
     RDKit          3D

 27 26  0  0  1  0  0  0  0  0999 V2000
   24.7290  -22.7029  -15.1015 N   0  0  0  0  0  0  0  0  0  0  0  0
   25.4343  -21.4499  -14.6411 C   0  0  1  0  0  0  0  0  0  0  0  0
   26.5700  -21.2646  -15.5527 C   0  0  0  0  0  0  0  0  0  0  0  0
   27.1864  -22.3404  -16.3096 C   0  0  0  0  0  0  0  0  0  0  0  0
   28.3094  -22.2752  -17.2137 C   0  0  0  0  0  0  0  0  0  0  0  0
   29.6001  -22.9600  -16.9926 C   0  0  0  0  0  0  0  0  0  0  0  0
   29.5665  -24.3842  -16.9581 N   0  0  0  0  0  0  0  0  0  0  0  0
   24.4531  -20.3480  -14.6159 C   0  0  0  0  0  0  0  0  0  0  0  0
   24.7544  -19.2023  -14.1915 O   0  0  0  0  0  0  0  0  0  0  0  0
   24.7764  -17.1373  -17.5650 N   0  0  0  0  0  0  0  0  0  0  0  0
   23.9034  -18.0207  -18.2783 C   0  0  0  0  0  0  0  0  0  0  0  0
   24.0554  -18.2096  -19.5035 O   0  0  0  0  0  0  0  0  0  0  0  0
   22.8178  -18.7162  -17.5657 C   0  0  0  0  0  0  0  0  0  0  0  0
   22.7601  -18.3408  -16.1253 C   0  0  0  0  0  0  0  0  0  0  0  0
   22.1828  -19.3881  -15.2124 C   0  0  2  0  0  0  0  0  0  0  0  0
   23.1044  -20.5000  -15.0666 N   0  0  0  0  0  0  0  0  0  0  0  0
   20.8348  -19.8333  -15.6461 C   0  0  0  0  0  0  0  0  0  0  0  0
   19.9976  -18.9488  -15.9291 O   0  0  0  0  0  0  0  0  0  0  0  0
   17.1088  -24.1152  -17.1840 N   0  0  0  0  0  0  0  0  0  0  0  0
   17.6645  -23.7324  -15.9352 C   0  0  0  0  0  0  0  0  0  0  0  0
   16.9448  -23.8435  -14.9141 O   0  0  0  0  0  0  0  0  0  0  0  0
   19.0445  -23.2294  -15.9059 C   0  0  0  0  0  0  0  0  0  0  0  0
   19.1712  -21.7745  -15.6846 C   0  0  2  0  0  0  0  0  0  0  0  0
   20.4500  -21.1859  -15.7557 N   0  0  0  0  0  0  0  0  0  0  0  0
   18.3542  -21.4199  -14.4677 C   0  0  0  0  0  0  0  0  0  0  0  0
   17.1532  -21.1515  -14.6304 O   0  0  0  0  0  0  0  0  0  0  0  0
   18.9345  -21.3964  -13.2066 O   0  0  0  0  0  0  0  0  0  0  0  0
  2  1  1  6
  3  2  1  0
  4  3  1  0
  5  4  1  0
  6  5  1  0
  7  6  1  0
  8  2  1  0
  8  9  2  0
 10 11  1  0
 11 12  2  0
 13 11  1  0
 13 14  1  0
 15 14  1  6
 15 16  1  0
 16  8  1  0
 17 15  1  0
 18 17  2  0
 20 22  1  0
 20 19  1  0
 21 20  2  0
 23 22  1  1
 23 25  1  0
 23 24  1  0
 24 17  1  0
 25 27  1  0
 26 25  2  0
M  END
$$$$
