KQN.pdb
     RDKit          3D

 27 26  0  0  1  0  0  0  0  0999 V2000
   28.9811  -21.3073  -15.7103 N   0  0  0  0  0  0  0  0  0  0  0  0
   27.5673  -21.3255  -16.2399 C   0  0  1  0  0  0  0  0  0  0  0  0
   27.5721  -22.2515  -17.3791 C   0  0  0  0  0  0  0  0  0  0  0  0
   28.7237  -22.4789  -18.2348 C   0  0  0  0  0  0  0  0  0  0  0  0
   29.1882  -21.6858  -19.3474 C   0  0  0  0  0  0  0  0  0  0  0  0
   30.4126  -21.9724  -20.1235 C   0  0  0  0  0  0  0  0  0  0  0  0
   30.7160  -21.0739  -21.1871 N   0  0  0  0  0  0  0  0  0  0  0  0
   26.6616  -21.6853  -15.1319 C   0  0  0  0  0  0  0  0  0  0  0  0
   25.6816  -22.4562  -15.3014 O   0  0  0  0  0  0  0  0  0  0  0  0
   26.3846  -19.4084   -9.4940 N   0  0  0  0  0  0  0  0  0  0  0  0
   25.6649  -20.6208   -9.2414 C   0  0  0  0  0  0  0  0  0  0  0  0
   25.0027  -20.7579   -8.1914 O   0  0  0  0  0  0  0  0  0  0  0  0
   25.7010  -21.7164  -10.2255 C   0  0  0  0  0  0  0  0  0  0  0  0
   26.5661  -21.3937  -11.3944 C   0  0  0  0  0  0  0  0  0  0  0  0
   25.8793  -21.4388  -12.7322 C   0  0  2  0  0  0  0  0  0  0  0  0
   26.8297  -21.1903  -13.8008 N   0  0  0  0  0  0  0  0  0  0  0  0
   24.7127  -20.5235  -12.7983 C   0  0  0  0  0  0  0  0  0  0  0  0
   24.9422  -19.2945  -12.8048 O   0  0  0  0  0  0  0  0  0  0  0  0
   21.1904  -17.9611  -15.6544 N   0  0  0  0  0  0  0  0  0  0  0  0
   21.1579  -19.3683  -15.4712 C   0  0  0  0  0  0  0  0  0  0  0  0
   20.1099  -19.9776  -15.7929 O   0  0  0  0  0  0  0  0  0  0  0  0
   22.3462  -20.0315  -14.9179 C   0  0  0  0  0  0  0  0  0  0  0  0
   22.2540  -20.3779  -13.4850 C   0  0  2  0  0  0  0  0  0  0  0  0
   23.3723  -20.9594  -12.8539 N   0  0  0  0  0  0  0  0  0  0  0  0
   20.9386  -21.0810  -13.2638 C   0  0  0  0  0  0  0  0  0  0  0  0
   20.8859  -22.3014  -13.4850 O   0  0  0  0  0  0  0  0  0  0  0  0
   19.8241  -20.3783  -12.8260 O   0  0  0  0  0  0  0  0  0  0  0  0
  2  1  1  1
  3  2  1  0
  4  3  1  0
  5  4  1  0
  6  5  1  0
  7  6  1  0
  8  2  1  0
  8  9  2  0
 10 11  1  0
 11 12  2  0
 13 11  1  0
 13 14  1  0
 15 14  1  1
 15 16  1  0
 16  8  1  0
 17 15  1  0
 18 17  2  0
 20 22  1  0
 20 19  1  0
 21 20  2  0
 23 22  1  6
 23 25  1  0
 23 24  1  0
 24 17  1  0
 25 27  1  0
 26 25  2  0
M  END
$$$$
