CQC.pdb
     RDKit          3D

 22 21  0  0  1  0  0  0  0  0999 V2000
   26.2183  -19.5595  -17.9461 N   0  0  0  0  0  0  0  0  0  0  0  0
   26.6768  -20.2235  -16.7648 C   0  0  1  0  0  0  0  0  0  0  0  0
   28.1829  -20.3424  -16.8327 C   0  0  0  0  0  0  0  0  0  0  0  0
   28.5689  -21.7938  -17.8545 S   0  0  0  0  0  0  0  0  0  0  0  0
   26.2168  -19.5910  -15.5167 C   0  0  0  0  0  0  0  0  0  0  0  0
   25.9597  -18.3530  -15.5601 O   0  0  0  0  0  0  0  0  0  0  0  0
   21.9397  -19.1284  -15.0669 N   0  0  0  0  0  0  0  0  0  0  0  0
   22.0932  -20.3636  -14.4012 C   0  0  0  0  0  0  0  0  0  0  0  0
   21.2645  -21.2700  -14.6569 O   0  0  0  0  0  0  0  0  0  0  0  0
   23.1823  -20.6112  -13.4313 C   0  0  0  0  0  0  0  0  0  0  0  0
   24.0300  -19.3880  -13.3211 C   0  0  0  0  0  0  0  0  0  0  0  0
   25.4839  -19.6828  -13.0906 C   0  0  2  0  0  0  0  0  0  0  0  0
   26.0441  -20.2653  -14.2845 N   0  0  0  0  0  0  0  0  0  0  0  0
   25.6690  -20.5831  -11.8966 C   0  0  0  0  0  0  0  0  0  0  0  0
   25.6512  -21.8156  -12.0871 O   0  0  0  0  0  0  0  0  0  0  0  0
   25.8527  -20.0468  -10.6297 N   0  0  0  0  0  0  0  0  0  0  0  0
   25.9797  -20.8001   -9.4366 C   0  0  1  0  0  0  0  0  0  0  0  0
   27.0209  -20.3522   -8.4893 C   0  0  0  0  0  0  0  0  0  0  0  0
   26.5355  -18.7703   -7.7553 S   0  0  0  0  0  0  0  0  0  0  0  0
   24.6977  -21.1730   -8.7635 C   0  0  0  0  0  0  0  0  0  0  0  0
   24.5307  -22.0850   -7.7661 O   0  0  0  0  0  0  0  0  0  0  0  0
   23.6703  -20.5506   -9.1884 O   0  0  0  0  0  0  0  0  0  0  0  0
  2  1  1  6
  2  5  1  0
  3  2  1  0
  4  3  1  0
  5  6  2  0
  7  8  1  0
  8  9  2  0
  8 10  1  0
 10 11  1  0
 12 11  1  6
 12 14  1  0
 13 12  1  0
 13  5  1  0
 14 15  2  0
 14 16  1  0
 16 17  1  0
 17 20  1  0
 17 18  1  1
 19 18  1  0
 20 22  2  0
 20 21  1  0
M  END
$$$$
