CQC.pdb
     RDKit          3D

 22 21  0  0  1  0  0  0  0  0999 V2000
   13.9130  -13.8087  -11.5648 N   0  0  0  0  0  0  0  0  0  0  0  0
   13.7010  -12.4663  -12.0114 C   0  0  1  0  0  0  0  0  0  0  0  0
   12.4305  -11.9432  -11.3795 C   0  0  0  0  0  0  0  0  0  0  0  0
   11.0509  -12.9240  -12.0383 S   0  0  0  0  0  0  0  0  0  0  0  0
   14.8532  -11.5786  -11.7791 C   0  0  0  0  0  0  0  0  0  0  0  0
   15.4135  -11.6479  -10.6468 O   0  0  0  0  0  0  0  0  0  0  0  0
   18.6751   -9.4768  -16.1543 N   0  0  0  0  0  0  0  0  0  0  0  0
   19.2162   -8.8606  -15.0055 C   0  0  0  0  0  0  0  0  0  0  0  0
   20.3120   -8.2622  -15.1271 O   0  0  0  0  0  0  0  0  0  0  0  0
   18.5392   -8.9016  -13.6909 C   0  0  0  0  0  0  0  0  0  0  0  0
   17.3142   -9.7474  -13.7949 C   0  0  0  0  0  0  0  0  0  0  0  0
   16.5244   -9.8210  -12.5203 C   0  0  2  0  0  0  0  0  0  0  0  0
   15.3720  -10.6627  -12.7250 N   0  0  0  0  0  0  0  0  0  0  0  0
   16.1280   -8.4450  -12.0512 C   0  0  0  0  0  0  0  0  0  0  0  0
   15.1762   -7.8833  -12.6296 O   0  0  0  0  0  0  0  0  0  0  0  0
   16.8074   -7.8317  -11.0078 N   0  0  0  0  0  0  0  0  0  0  0  0
   16.4730   -6.5755  -10.4446 C   0  0  1  0  0  0  0  0  0  0  0  0
   16.7241   -6.4212   -8.9971 C   0  0  0  0  0  0  0  0  0  0  0  0
   15.9033   -7.7567   -8.0918 S   0  0  0  0  0  0  0  0  0  0  0  0
   16.8809   -5.3770  -11.2402 C   0  0  0  0  0  0  0  0  0  0  0  0
   16.5180   -4.0834  -11.0179 O   0  0  0  0  0  0  0  0  0  0  0  0
   17.6539   -5.6253  -12.2222 O   0  0  0  0  0  0  0  0  0  0  0  0
  2  1  1  1
  2  5  1  0
  3  2  1  0
  4  3  1  0
  5  6  2  0
  7  8  1  0
  8  9  2  0
  8 10  1  0
 10 11  1  0
 12 11  1  6
 12 14  1  0
 13 12  1  0
 13  5  1  0
 14 15  2  0
 14 16  1  0
 16 17  1  0
 17 20  1  0
 17 18  1  1
 19 18  1  0
 20 22  2  0
 20 21  1  0
M  END
$$$$
