CQC.pdb
     RDKit          3D

 22 21  0  0  1  0  0  0  0  0999 V2000
   28.4011  -21.1091  -16.9305 N   0  0  0  0  0  0  0  0  0  0  0  0
   27.9292  -20.2562  -15.8835 C   0  0  1  0  0  0  0  0  0  0  0  0
   27.4268  -18.9697  -16.4995 C   0  0  0  0  0  0  0  0  0  0  0  0
   28.8793  -18.0149  -17.0268 S   0  0  0  0  0  0  0  0  0  0  0  0
   26.9274  -20.8925  -15.0110 C   0  0  0  0  0  0  0  0  0  0  0  0
   26.2341  -21.8232  -15.5149 O   0  0  0  0  0  0  0  0  0  0  0  0
   26.2213  -20.0082   -8.8020 N   0  0  0  0  0  0  0  0  0  0  0  0
   25.0989  -20.8029   -9.1199 C   0  0  0  0  0  0  0  0  0  0  0  0
   24.3814  -21.2032   -8.1719 O   0  0  0  0  0  0  0  0  0  0  0  0
   24.7548  -21.1677  -10.5115 C   0  0  0  0  0  0  0  0  0  0  0  0
   25.8295  -20.6838  -11.4268 C   0  0  0  0  0  0  0  0  0  0  0  0
   25.5634  -20.9773  -12.8748 C   0  0  2  0  0  0  0  0  0  0  0  0
   26.6889  -20.5386  -13.6617 N   0  0  0  0  0  0  0  0  0  0  0  0
   24.2828  -20.3269  -13.3305 C   0  0  0  0  0  0  0  0  0  0  0  0
   24.2247  -19.0809  -13.3174 O   0  0  0  0  0  0  0  0  0  0  0  0
   23.2085  -21.0994  -13.7493 N   0  0  0  0  0  0  0  0  0  0  0  0
   21.9423  -20.5940  -14.1340 C   0  0  1  0  0  0  0  0  0  0  0  0
   21.5712  -20.7729  -15.5526 C   0  0  0  0  0  0  0  0  0  0  0  0
   23.0687  -20.8999  -16.5616 S   0  0  0  0  0  0  0  0  0  0  0  0
   20.8152  -20.8797  -13.1939 C   0  0  0  0  0  0  0  0  0  0  0  0
   20.8333  -21.7229  -12.1248 O   0  0  0  0  0  0  0  0  0  0  0  0
   19.7372  -20.2483  -13.4446 O   0  0  0  0  0  0  0  0  0  0  0  0
  2  1  1  6
  2  5  1  0
  3  2  1  0
  4  3  1  0
  5  6  2  0
  7  8  1  0
  8  9  2  0
  8 10  1  0
 10 11  1  0
 12 11  1  1
 12 14  1  0
 13 12  1  0
 13  5  1  0
 14 15  2  0
 14 16  1  0
 16 17  1  0
 17 20  1  0
 17 18  1  6
 19 18  1  0
 20 22  2  0
 20 21  1  0
M  END
$$$$
