CQC.pdb
     RDKit          3D

 22 21  0  0  1  0  0  0  0  0999 V2000
   15.2171  -11.9240  -13.9860 N   0  0  0  0  0  0  0  0  0  0  0  0
   16.4892  -11.4624  -13.5220 C   0  0  1  0  0  0  0  0  0  0  0  0
   17.5467  -11.8819  -14.5183 C   0  0  0  0  0  0  0  0  0  0  0  0
   17.8378  -13.6599  -14.2873 S   0  0  0  0  0  0  0  0  0  0  0  0
   16.5242  -10.0177  -13.2371 C   0  0  0  0  0  0  0  0  0  0  0  0
   16.0357   -9.2468  -14.1133 O   0  0  0  0  0  0  0  0  0  0  0  0
   15.2328   -7.2462   -8.0726 N   0  0  0  0  0  0  0  0  0  0  0  0
   15.7952   -6.1550   -8.7695 C   0  0  0  0  0  0  0  0  0  0  0  0
   15.6928   -5.0175   -8.2507 O   0  0  0  0  0  0  0  0  0  0  0  0
   16.4867   -6.3152  -10.0673 C   0  0  0  0  0  0  0  0  0  0  0  0
   16.4469   -7.7510  -10.4717 C   0  0  0  0  0  0  0  0  0  0  0  0
   17.1181   -8.0241  -11.7866 C   0  0  2  0  0  0  0  0  0  0  0  0
   17.0609   -9.4379  -12.0630 N   0  0  0  0  0  0  0  0  0  0  0  0
   18.5374   -7.5183  -11.7830 C   0  0  0  0  0  0  0  0  0  0  0  0
   19.4265   -8.2785  -11.3502 O   0  0  0  0  0  0  0  0  0  0  0  0
   18.8344   -6.2450  -12.2489 N   0  0  0  0  0  0  0  0  0  0  0  0
   20.1199   -5.8024  -12.6473 C   0  0  1  0  0  0  0  0  0  0  0  0
   20.9518   -6.7827  -13.3746 C   0  0  0  0  0  0  0  0  0  0  0  0
   22.5799   -6.0670  -13.7120 S   0  0  0  0  0  0  0  0  0  0  0  0
   20.1807   -4.4304  -13.2386 C   0  0  0  0  0  0  0  0  0  0  0  0
   21.1389   -3.4869  -13.0236 O   0  0  0  0  0  0  0  0  0  0  0  0
   19.2210   -4.1452  -14.0267 O   0  0  0  0  0  0  0  0  0  0  0  0
  2  1  1  6
  2  5  1  0
  3  2  1  0
  4  3  1  0
  5  6  2  0
  7  8  1  0
  8  9  2  0
  8 10  1  0
 10 11  1  0
 12 11  1  1
 12 14  1  0
 13 12  1  0
 13  5  1  0
 14 15  2  0
 14 16  1  0
 16 17  1  0
 17 20  1  0
 17 18  1  6
 19 18  1  0
 20 22  2  0
 20 21  1  0
M  END
$$$$
