CQC.pdb
     RDKit          3D

 22 21  0  0  1  0  0  0  0  0999 V2000
   20.0508  -15.1922  -17.4743 N   0  0  0  0  0  0  0  0  0  0  0  0
   19.0677  -14.1625  -17.3337 C   0  0  1  0  0  0  0  0  0  0  0  0
   18.2390  -14.4524  -16.1023 C   0  0  0  0  0  0  0  0  0  0  0  0
   17.2152  -15.9082  -16.4653 S   0  0  0  0  0  0  0  0  0  0  0  0
   19.6346  -12.8031  -17.3247 C   0  0  0  0  0  0  0  0  0  0  0  0
   20.7424  -12.6459  -16.7340 O   0  0  0  0  0  0  0  0  0  0  0  0
   21.2744   -9.4540  -20.7072 N   0  0  0  0  0  0  0  0  0  0  0  0
   20.7434   -8.2536  -20.1880 C   0  0  0  0  0  0  0  0  0  0  0  0
   21.3217   -7.1822  -20.4902 O   0  0  0  0  0  0  0  0  0  0  0  0
   19.5490   -8.2275  -19.3158 C   0  0  0  0  0  0  0  0  0  0  0  0
   19.0233   -9.6154  -19.1601 C   0  0  0  0  0  0  0  0  0  0  0  0
   19.6240  -10.3595  -18.0027 C   0  0  2  0  0  0  0  0  0  0  0  0
   19.0324  -11.6719  -17.9250 N   0  0  0  0  0  0  0  0  0  0  0  0
   19.4432   -9.5943  -16.7173 C   0  0  0  0  0  0  0  0  0  0  0  0
   18.3083   -9.5829  -16.2000 O   0  0  0  0  0  0  0  0  0  0  0  0
   20.5126   -8.9270  -16.1364 N   0  0  0  0  0  0  0  0  0  0  0  0
   20.4544   -8.1916  -14.9270 C   0  0  1  0  0  0  0  0  0  0  0  0
   21.0018   -8.8603  -13.7290 C   0  0  0  0  0  0  0  0  0  0  0  0
   22.8009   -8.6636  -13.6916 S   0  0  0  0  0  0  0  0  0  0  0  0
   20.8441   -6.7512  -15.0224 C   0  0  0  0  0  0  0  0  0  0  0  0
   20.6814   -5.7930  -14.0685 O   0  0  0  0  0  0  0  0  0  0  0  0
   21.3875   -6.4167  -16.1253 O   0  0  0  0  0  0  0  0  0  0  0  0
  2  1  1  1
  2  5  1  0
  3  2  1  0
  4  3  1  0
  5  6  2  0
  7  8  1  0
  8  9  2  0
  8 10  1  0
 10 11  1  0
 12 11  1  6
 12 14  1  0
 13 12  1  0
 13  5  1  0
 14 15  2  0
 14 16  1  0
 16 17  1  0
 17 20  1  0
 17 18  1  1
 19 18  1  0
 20 22  2  0
 20 21  1  0
M  END
$$$$
