CQC.pdb
     RDKit          3D

 22 21  0  0  1  0  0  0  0  0999 V2000
   31.2517  -22.5446  -12.2073 N   0  0  0  0  0  0  0  0  0  0  0  0
   30.4304  -21.4231  -11.8696 C   0  0  1  0  0  0  0  0  0  0  0  0
   31.1228  -20.1615  -12.3341 C   0  0  0  0  0  0  0  0  0  0  0  0
   32.5692  -19.9089  -11.2648 S   0  0  0  0  0  0  0  0  0  0  0  0
   29.0512  -21.5285  -12.3759 C   0  0  0  0  0  0  0  0  0  0  0  0
   28.8895  -22.1109  -13.4874 O   0  0  0  0  0  0  0  0  0  0  0  0
   23.8395  -20.3465   -9.0516 N   0  0  0  0  0  0  0  0  0  0  0  0
   23.3065  -20.7071  -10.3079 C   0  0  0  0  0  0  0  0  0  0  0  0
   22.0586  -20.7847  -10.4106 O   0  0  0  0  0  0  0  0  0  0  0  0
   24.1629  -20.9897  -11.4804 C   0  0  0  0  0  0  0  0  0  0  0  0
   25.5964  -20.8869  -11.0786 C   0  0  0  0  0  0  0  0  0  0  0  0
   26.5558  -21.1072  -12.2120 C   0  0  2  0  0  0  0  0  0  0  0  0
   27.9058  -21.0286  -11.7120 N   0  0  0  0  0  0  0  0  0  0  0  0
   26.3180  -20.1147  -13.3206 C   0  0  0  0  0  0  0  0  0  0  0  0
   26.5710  -18.9147  -13.0933 O   0  0  0  0  0  0  0  0  0  0  0  0
   25.8324  -20.5339  -14.5514 N   0  0  0  0  0  0  0  0  0  0  0  0
   25.6199  -19.6942  -15.6724 C   0  0  1  0  0  0  0  0  0  0  0  0
   26.2656  -20.1124  -16.9335 C   0  0  0  0  0  0  0  0  0  0  0  0
   28.0630  -20.1301  -16.7196 S   0  0  0  0  0  0  0  0  0  0  0  0
   24.2186  -19.2094  -15.8654 C   0  0  0  0  0  0  0  0  0  0  0  0
   23.8297  -18.0124  -16.3852 O   0  0  0  0  0  0  0  0  0  0  0  0
   23.3145  -20.0285  -15.4978 O   0  0  0  0  0  0  0  0  0  0  0  0
  2  1  1  6
  2  5  1  0
  3  2  1  0
  4  3  1  0
  5  6  2  0
  7  8  1  0
  8  9  2  0
  8 10  1  0
 10 11  1  0
 12 11  1  1
 12 14  1  0
 13 12  1  0
 13  5  1  0
 14 15  2  0
 14 16  1  0
 16 17  1  0
 17 20  1  0
 17 18  1  6
 19 18  1  0
 20 22  2  0
 20 21  1  0
M  END
$$$$
