CQC.pdb
     RDKit          3D

 22 21  0  0  1  0  0  0  0  0999 V2000
   19.5907  -11.0028  -17.9549 N   0  0  0  0  0  0  0  0  0  0  0  0
   20.4722   -9.8767  -17.9172 C   0  0  1  0  0  0  0  0  0  0  0  0
   20.8863   -9.5414  -19.3325 C   0  0  0  0  0  0  0  0  0  0  0  0
   22.1514  -10.7464  -19.8295 S   0  0  0  0  0  0  0  0  0  0  0  0
   19.9150   -8.7154  -17.2026 C   0  0  0  0  0  0  0  0  0  0  0  0
   18.7006   -8.4349  -17.4199 O   0  0  0  0  0  0  0  0  0  0  0  0
   22.1667   -6.4165  -11.9327 N   0  0  0  0  0  0  0  0  0  0  0  0
   20.9342   -7.1045  -11.9419 C   0  0  0  0  0  0  0  0  0  0  0  0
   20.5412   -7.6099  -10.8631 O   0  0  0  0  0  0  0  0  0  0  0  0
   20.1124   -7.2417  -13.1642 C   0  0  0  0  0  0  0  0  0  0  0  0
   20.8118   -6.5792  -14.3039 C   0  0  0  0  0  0  0  0  0  0  0  0
   20.1072   -6.7438  -15.6192 C   0  0  2  0  0  0  0  0  0  0  0  0
   20.6366   -7.8999  -16.2988 N   0  0  0  0  0  0  0  0  0  0  0  0
   20.2371   -5.5003  -16.4601 C   0  0  0  0  0  0  0  0  0  0  0  0
   21.0377   -5.5238  -17.4164 O   0  0  0  0  0  0  0  0  0  0  0  0
   19.4850   -4.3703  -16.1705 N   0  0  0  0  0  0  0  0  0  0  0  0
   19.4406   -3.1961  -16.9620 C   0  0  1  0  0  0  0  0  0  0  0  0
   19.4801   -3.3932  -18.4254 C   0  0  0  0  0  0  0  0  0  0  0  0
   20.9511   -4.3496  -18.8707 S   0  0  0  0  0  0  0  0  0  0  0  0
   18.4465   -2.1630  -16.5375 C   0  0  0  0  0  0  0  0  0  0  0  0
   17.4680   -2.3032  -15.6009 O   0  0  0  0  0  0  0  0  0  0  0  0
   18.5552   -1.0410  -17.1314 O   0  0  0  0  0  0  0  0  0  0  0  0
  2  1  1  6
  2  5  1  0
  3  2  1  0
  4  3  1  0
  5  6  2  0
  7  8  1  0
  8  9  2  0
  8 10  1  0
 10 11  1  0
 12 11  1  1
 12 14  1  0
 13 12  1  0
 13  5  1  0
 14 15  2  0
 14 16  1  0
 16 17  1  0
 17 20  1  0
 17 18  1  6
 19 18  1  0
 20 22  2  0
 20 21  1  0
M  END
$$$$
