CQC.pdb
     RDKit          3D

 22 21  0  0  1  0  0  0  0  0999 V2000
   19.2488  -12.6057  -17.0211 N   0  0  0  0  0  0  0  0  0  0  0  0
   18.5189  -11.5996  -16.3131 C   0  0  1  0  0  0  0  0  0  0  0  0
   18.4149  -12.0113  -14.8617 C   0  0  0  0  0  0  0  0  0  0  0  0
   17.1875  -13.3466  -14.7611 S   0  0  0  0  0  0  0  0  0  0  0  0
   19.0726  -10.2445  -16.4765 C   0  0  0  0  0  0  0  0  0  0  0  0
   20.3311  -10.1269  -16.4206 O   0  0  0  0  0  0  0  0  0  0  0  0
   18.4075   -8.8221  -19.3363 N   0  0  0  0  0  0  0  0  0  0  0  0
   18.3494   -7.4830  -19.7787 C   0  0  0  0  0  0  0  0  0  0  0  0
   18.4944   -7.2683  -21.0062 O   0  0  0  0  0  0  0  0  0  0  0  0
   18.1268   -6.3513  -18.8525 C   0  0  0  0  0  0  0  0  0  0  0  0
   17.7748   -6.8824  -17.5031 C   0  0  0  0  0  0  0  0  0  0  0  0
   18.8389   -7.7558  -16.9043 C   0  0  2  0  0  0  0  0  0  0  0  0
   18.3023   -9.0766  -16.6897 N   0  0  0  0  0  0  0  0  0  0  0  0
   19.3696   -7.1600  -15.6261 C   0  0  0  0  0  0  0  0  0  0  0  0
   18.6886   -7.2998  -14.5905 O   0  0  0  0  0  0  0  0  0  0  0  0
   20.5791   -6.4793  -15.6132 N   0  0  0  0  0  0  0  0  0  0  0  0
   21.1732   -5.8950  -14.4675 C   0  0  1  0  0  0  0  0  0  0  0  0
   21.9017   -6.8138  -13.5691 C   0  0  0  0  0  0  0  0  0  0  0  0
   22.5862   -5.8850  -12.1743 S   0  0  0  0  0  0  0  0  0  0  0  0
   21.8945   -4.6052  -14.6952 C   0  0  0  0  0  0  0  0  0  0  0  0
   22.1513   -3.6358  -13.7739 O   0  0  0  0  0  0  0  0  0  0  0  0
   22.3036   -4.4253  -15.8885 O   0  0  0  0  0  0  0  0  0  0  0  0
  2  1  1  6
  2  5  1  0
  3  2  1  0
  4  3  1  0
  5  6  2  0
  7  8  1  0
  8  9  2  0
  8 10  1  0
 10 11  1  0
 12 11  1  1
 12 14  1  0
 13 12  1  0
 13  5  1  0
 14 15  2  0
 14 16  1  0
 16 17  1  0
 17 20  1  0
 17 18  1  6
 19 18  1  0
 20 22  2  0
 20 21  1  0
M  END
$$$$
