CQC.pdb
     RDKit          3D

 22 21  0  0  1  0  0  0  0  0999 V2000
   14.6848  -11.0370  -14.2899 N   0  0  0  0  0  0  0  0  0  0  0  0
   15.9267  -10.9006  -13.5930 C   0  0  1  0  0  0  0  0  0  0  0  0
   17.0141  -11.5577  -14.4132 C   0  0  0  0  0  0  0  0  0  0  0  0
   16.8233  -13.3548  -14.2305 S   0  0  0  0  0  0  0  0  0  0  0  0
   16.2526   -9.5094  -13.2356 C   0  0  0  0  0  0  0  0  0  0  0  0
   16.1882   -8.6480  -14.1601 O   0  0  0  0  0  0  0  0  0  0  0  0
   15.5499   -7.0641   -7.6719 N   0  0  0  0  0  0  0  0  0  0  0  0
   14.6082   -7.1286   -8.7215 C   0  0  0  0  0  0  0  0  0  0  0  0
   13.3933   -7.0463   -8.4198 O   0  0  0  0  0  0  0  0  0  0  0  0
   15.0085   -7.2872  -10.1367 C   0  0  0  0  0  0  0  0  0  0  0  0
   16.4933   -7.4137  -10.2164 C   0  0  0  0  0  0  0  0  0  0  0  0
   16.9971   -7.7234  -11.5963 C   0  0  2  0  0  0  0  0  0  0  0  0
   16.6291   -9.0736  -11.9429 N   0  0  0  0  0  0  0  0  0  0  0  0
   18.4868   -7.5159  -11.6858 C   0  0  0  0  0  0  0  0  0  0  0  0
   19.2288   -8.4251  -11.2632 O   0  0  0  0  0  0  0  0  0  0  0  0
   19.0058   -6.3462  -12.2233 N   0  0  0  0  0  0  0  0  0  0  0  0
   20.3497   -6.1637  -12.6325 C   0  0  1  0  0  0  0  0  0  0  0  0
   20.9881   -7.3114  -13.3086 C   0  0  0  0  0  0  0  0  0  0  0  0
   22.7383   -6.9503  -13.5976 S   0  0  0  0  0  0  0  0  0  0  0  0
   20.6584   -4.8544  -13.2854 C   0  0  0  0  0  0  0  0  0  0  0  0
   21.7347   -4.0543  -13.0492 O   0  0  0  0  0  0  0  0  0  0  0  0
   19.8061   -4.4763  -14.1538 O   0  0  0  0  0  0  0  0  0  0  0  0
  2  1  1  6
  2  5  1  0
  3  2  1  0
  4  3  1  0
  5  6  2  0
  7  8  1  0
  8  9  2  0
  8 10  1  0
 10 11  1  0
 12 11  1  1
 12 14  1  0
 13 12  1  0
 13  5  1  0
 14 15  2  0
 14 16  1  0
 16 17  1  0
 17 20  1  0
 17 18  1  6
 19 18  1  0
 20 22  2  0
 20 21  1  0
M  END
$$$$
