CQC.pdb
     RDKit          3D

 22 21  0  0  1  0  0  0  0  0999 V2000
   23.4946  -12.0051  -18.5769 N   0  0  0  0  0  0  0  0  0  0  0  0
   23.3173  -11.5574  -17.2298 C   0  0  1  0  0  0  0  0  0  0  0  0
   24.6657  -11.1588  -16.6730 C   0  0  0  0  0  0  0  0  0  0  0  0
   25.6272  -12.6810  -16.4327 S   0  0  0  0  0  0  0  0  0  0  0  0
   22.3118  -10.4901  -17.0906 C   0  0  0  0  0  0  0  0  0  0  0  0
   22.2672   -9.6190  -18.0070 O   0  0  0  0  0  0  0  0  0  0  0  0
   16.9552  -11.2647  -14.2811 N   0  0  0  0  0  0  0  0  0  0  0  0
   17.3287  -11.5890  -15.6031 C   0  0  0  0  0  0  0  0  0  0  0  0
   16.6546  -12.4616  -16.2014 O   0  0  0  0  0  0  0  0  0  0  0  0
   18.4694  -10.9406  -16.2860 C   0  0  0  0  0  0  0  0  0  0  0  0
   19.1296   -9.9892  -15.3448 C   0  0  0  0  0  0  0  0  0  0  0  0
   20.3773   -9.3642  -15.8984 C   0  0  2  0  0  0  0  0  0  0  0  0
   21.4012  -10.3726  -16.0137 N   0  0  0  0  0  0  0  0  0  0  0  0
   20.8301   -8.2118  -15.0397 C   0  0  0  0  0  0  0  0  0  0  0  0
   21.5592   -8.4657  -14.0600 O   0  0  0  0  0  0  0  0  0  0  0  0
   20.4421   -6.9132  -15.3388 N   0  0  0  0  0  0  0  0  0  0  0  0
   20.9282   -5.7487  -14.6948 C   0  0  1  0  0  0  0  0  0  0  0  0
   22.3807   -5.7075  -14.4291 C   0  0  0  0  0  0  0  0  0  0  0  0
   22.7827   -4.2220  -13.4760 S   0  0  0  0  0  0  0  0  0  0  0  0
   20.3898   -4.4506  -15.2054 C   0  0  0  0  0  0  0  0  0  0  0  0
   19.9278   -3.4063  -14.4635 O   0  0  0  0  0  0  0  0  0  0  0  0
   20.3789   -4.3389  -16.4746 O   0  0  0  0  0  0  0  0  0  0  0  0
  2  1  1  6
  2  5  1  0
  3  2  1  0
  4  3  1  0
  5  6  2  0
  7  8  1  0
  8  9  2  0
  8 10  1  0
 10 11  1  0
 12 11  1  1
 12 14  1  0
 13 12  1  0
 13  5  1  0
 14 15  2  0
 14 16  1  0
 16 17  1  0
 17 20  1  0
 17 18  1  6
 19 18  1  0
 20 22  2  0
 20 21  1  0
M  END
$$$$
