IQS.pdb
     RDKit          3D

 24 23  0  0  1  0  0  0  0  0999 V2000
    7.1468  -11.7946   27.9723 C   0  0  0  0  0  0  0  0  0  0  0  0
    6.3752  -12.7839   27.1566 C   0  0  0  0  0  0  0  0  0  0  0  0
    7.1003  -13.3691   26.0089 C   0  0  2  0  0  0  0  0  0  0  0  0
    7.7443  -12.2379   25.2262 C   0  0  0  0  0  0  0  0  0  0  0  0
    6.3131  -14.2916   25.1522 C   0  0  2  0  0  0  0  0  0  0  0  0
    5.8627  -15.4338   25.9519 N   0  0  0  0  0  0  0  0  0  0  0  0
    7.0282  -14.8081   23.9901 C   0  0  0  0  0  0  0  0  0  0  0  0
    7.5064  -15.9670   24.0091 O   0  0  0  0  0  0  0  0  0  0  0  0
    9.2804  -15.9757   18.3925 N   0  0  0  0  0  0  0  0  0  0  0  0
    8.3614  -14.9356   18.6931 C   0  0  0  0  0  0  0  0  0  0  0  0
    7.1707  -15.0801   18.3345 O   0  0  0  0  0  0  0  0  0  0  0  0
    8.8132  -13.6918   19.4252 C   0  0  0  0  0  0  0  0  0  0  0  0
    7.9034  -13.5318   20.5829 C   0  0  0  0  0  0  0  0  0  0  0  0
    8.0043  -14.5364   21.6824 C   0  0  2  0  0  0  0  0  0  0  0  0
    7.2015  -14.0292   22.8236 N   0  0  0  0  0  0  0  0  0  0  0  0
    9.3537  -14.8792   22.1276 C   0  0  0  0  0  0  0  0  0  0  0  0
   10.1886  -13.9469   22.4314 O   0  0  0  0  0  0  0  0  0  0  0  0
   10.4629  -18.6374   22.5951 O   0  0  0  0  0  0  0  0  0  0  0  0
   11.4267  -17.8296   23.2089 C   0  0  0  0  0  0  0  0  0  0  0  0
   11.2472  -16.4345   22.6421 C   0  0  2  0  0  0  0  0  0  0  0  0
    9.8662  -16.1890   22.2720 N   0  0  0  0  0  0  0  0  0  0  0  0
   12.0917  -16.3643   21.4292 C   0  0  0  0  0  0  0  0  0  0  0  0
   13.4583  -16.5714   21.4629 O   0  0  0  0  0  0  0  0  0  0  0  0
   11.5745  -16.1078   20.3083 O   0  0  0  0  0  0  0  0  0  0  0  0
  1  2  1  0
  3  2  1  0
  3  4  1  6
  5  3  1  0
  5  6  1  1
  7  5  1  0
  7  8  2  0
  9 10  1  0
 10 12  1  0
 11 10  2  0
 12 13  1  0
 14 15  1  0
 14 13  1  6
 15  7  1  0
 16 14  1  0
 17 16  2  0
 18 19  1  0
 20 19  1  6
 20 21  1  0
 21 16  1  0
 22 23  1  0
 22 20  1  0
 24 22  2  0
M  END
$$$$
