IQS.pdb
     RDKit          3D

 24 23  0  0  1  0  0  0  0  0999 V2000
    7.6383  -12.5518   18.7525 C   0  0  0  0  0  0  0  0  0  0  0  0
    7.6486  -13.9945   19.1497 C   0  0  0  0  0  0  0  0  0  0  0  0
    7.3603  -14.2669   20.5738 C   0  0  2  0  0  0  0  0  0  0  0  0
    8.3236  -13.4512   21.4187 C   0  0  0  0  0  0  0  0  0  0  0  0
    7.3211  -15.6999   20.9606 C   0  0  2  0  0  0  0  0  0  0  0  0
    6.2984  -16.3899   20.1700 N   0  0  0  0  0  0  0  0  0  0  0  0
    7.0433  -15.9460   22.3715 C   0  0  0  0  0  0  0  0  0  0  0  0
    5.9018  -15.7182   22.8374 O   0  0  0  0  0  0  0  0  0  0  0  0
    7.4595  -20.6101   25.3797 N   0  0  0  0  0  0  0  0  0  0  0  0
    7.3335  -19.8166   26.5506 C   0  0  0  0  0  0  0  0  0  0  0  0
    7.0828  -20.3970   27.6311 O   0  0  0  0  0  0  0  0  0  0  0  0
    7.4983  -18.3145   26.4886 C   0  0  0  0  0  0  0  0  0  0  0  0
    7.7035  -17.9728   25.0622 C   0  0  0  0  0  0  0  0  0  0  0  0
    7.7943  -16.5259   24.7065 C   0  0  2  0  0  0  0  0  0  0  0  0
    8.0382  -16.4417   23.2444 N   0  0  0  0  0  0  0  0  0  0  0  0
    8.7917  -15.7401   25.4306 C   0  0  0  0  0  0  0  0  0  0  0  0
   10.0363  -15.8258   25.1106 O   0  0  0  0  0  0  0  0  0  0  0  0
    7.8324  -12.7432   27.8274 O   0  0  0  0  0  0  0  0  0  0  0  0
    9.1969  -12.7255   27.5174 C   0  0  0  0  0  0  0  0  0  0  0  0
    9.5873  -14.1558   27.1986 C   0  0  2  0  0  0  0  0  0  0  0  0
    8.5245  -14.8483   26.4947 N   0  0  0  0  0  0  0  0  0  0  0  0
    9.8214  -14.8245   28.4975 C   0  0  0  0  0  0  0  0  0  0  0  0
   10.7521  -14.3661   29.4116 O   0  0  0  0  0  0  0  0  0  0  0  0
    9.1632  -15.8531   28.8110 O   0  0  0  0  0  0  0  0  0  0  0  0
  1  2  1  0
  3  2  1  0
  3  4  1  1
  5  3  1  0
  5  6  1  6
  7  5  1  0
  7  8  2  0
  9 10  1  0
 10 12  1  0
 11 10  2  0
 12 13  1  0
 14 15  1  0
 14 13  1  1
 15  7  1  0
 16 14  1  0
 17 16  2  0
 18 19  1  0
 20 19  1  1
 20 21  1  0
 21 16  1  0
 22 23  1  0
 22 20  1  0
 24 22  2  0
M  END
$$$$
