IQS.pdb
     RDKit          3D

 24 23  0  0  1  0  0  0  0  0999 V2000
    6.4028  -12.3279   19.4261 C   0  0  0  0  0  0  0  0  0  0  0  0
    7.3478  -12.9469   18.4447 C   0  0  0  0  0  0  0  0  0  0  0  0
    8.5059  -13.6537   19.0318 C   0  0  2  0  0  0  0  0  0  0  0  0
    9.2610  -12.6768   19.9164 C   0  0  0  0  0  0  0  0  0  0  0  0
    9.3856  -14.3609   18.0672 C   0  0  2  0  0  0  0  0  0  0  0  0
    8.5885  -15.3117   17.2876 N   0  0  0  0  0  0  0  0  0  0  0  0
   10.4950  -15.0907   18.6715 C   0  0  0  0  0  0  0  0  0  0  0  0
   10.3220  -16.2555   19.1021 O   0  0  0  0  0  0  0  0  0  0  0  0
   16.2761  -13.7281   17.5445 N   0  0  0  0  0  0  0  0  0  0  0  0
   16.5550  -14.5159   18.6926 C   0  0  0  0  0  0  0  0  0  0  0  0
   17.7483  -14.6283   19.0539 O   0  0  0  0  0  0  0  0  0  0  0  0
   15.4392  -15.1972   19.4529 C   0  0  0  0  0  0  0  0  0  0  0  0
   14.1710  -14.7219   18.8536 C   0  0  0  0  0  0  0  0  0  0  0  0
   12.8985  -15.2708   19.4083 C   0  0  2  0  0  0  0  0  0  0  0  0
   11.7806  -14.5154   18.7887 N   0  0  0  0  0  0  0  0  0  0  0  0
   12.7673  -15.2625   20.8641 C   0  0  0  0  0  0  0  0  0  0  0  0
   12.7783  -14.1460   21.5061 O   0  0  0  0  0  0  0  0  0  0  0  0
   11.3611  -18.3174   22.9207 O   0  0  0  0  0  0  0  0  0  0  0  0
   11.3870  -17.1374   23.6726 C   0  0  0  0  0  0  0  0  0  0  0  0
   12.5306  -16.3027   23.1293 C   0  0  2  0  0  0  0  0  0  0  0  0
   12.6180  -16.4041   21.6848 N   0  0  0  0  0  0  0  0  0  0  0  0
   13.7684  -16.8499   23.7273 C   0  0  0  0  0  0  0  0  0  0  0  0
   14.0210  -16.8017   25.0858 O   0  0  0  0  0  0  0  0  0  0  0  0
   14.6444  -17.3864   22.9963 O   0  0  0  0  0  0  0  0  0  0  0  0
  1  2  1  0
  3  2  1  0
  3  4  1  6
  5  3  1  0
  5  6  1  1
  7  5  1  0
  7  8  2  0
  9 10  1  0
 10 12  1  0
 11 10  2  0
 12 13  1  0
 14 15  1  0
 14 13  1  1
 15  7  1  0
 16 14  1  0
 17 16  2  0
 18 19  1  0
 20 19  1  1
 20 21  1  0
 21 16  1  0
 22 23  1  0
 22 20  1  0
 24 22  2  0
M  END
$$$$
