IQS.pdb
     RDKit          3D

 24 23  0  0  1  0  0  0  0  0999 V2000
    7.1186  -11.7731   19.1639 C   0  0  0  0  0  0  0  0  0  0  0  0
    7.4467  -13.0958   18.5454 C   0  0  0  0  0  0  0  0  0  0  0  0
    8.3793  -13.9467   19.3145 C   0  0  2  0  0  0  0  0  0  0  0  0
    9.6336  -13.1395   19.6010 C   0  0  0  0  0  0  0  0  0  0  0  0
    8.6694  -15.2790   18.7268 C   0  0  2  0  0  0  0  0  0  0  0  0
    7.4103  -15.9851   18.4755 N   0  0  0  0  0  0  0  0  0  0  0  0
    9.5135  -16.1399   19.5483 C   0  0  0  0  0  0  0  0  0  0  0  0
    9.0130  -16.7985   20.4905 O   0  0  0  0  0  0  0  0  0  0  0  0
   13.6542  -19.4646   17.3968 N   0  0  0  0  0  0  0  0  0  0  0  0
   14.2556  -19.5393   18.6810 C   0  0  0  0  0  0  0  0  0  0  0  0
   15.1388  -20.4065   18.8681 O   0  0  0  0  0  0  0  0  0  0  0  0
   13.8377  -18.5961   19.7870 C   0  0  0  0  0  0  0  0  0  0  0  0
   12.8288  -17.6832   19.2018 C   0  0  0  0  0  0  0  0  0  0  0  0
   11.7305  -17.2075   20.0938 C   0  0  2  0  0  0  0  0  0  0  0  0
   10.9019  -16.2565   19.3108 N   0  0  0  0  0  0  0  0  0  0  0  0
   12.1382  -16.5987   21.3586 C   0  0  0  0  0  0  0  0  0  0  0  0
   12.6807  -15.4306   21.3665 O   0  0  0  0  0  0  0  0  0  0  0  0
   10.2621  -17.2064   24.5413 O   0  0  0  0  0  0  0  0  0  0  0  0
   11.5413  -16.9254   25.0341 C   0  0  0  0  0  0  0  0  0  0  0  0
   12.3734  -16.4769   23.8483 C   0  0  2  0  0  0  0  0  0  0  0  0
   11.9905  -17.1804   22.6388 N   0  0  0  0  0  0  0  0  0  0  0  0
   13.7782  -16.8074   24.1745 C   0  0  0  0  0  0  0  0  0  0  0  0
   14.4541  -16.2194   25.2277 O   0  0  0  0  0  0  0  0  0  0  0  0
   14.4093  -17.6530   23.4844 O   0  0  0  0  0  0  0  0  0  0  0  0
  1  2  1  0
  3  2  1  0
  3  4  1  6
  5  3  1  0
  5  6  1  1
  7  5  1  0
  7  8  2  0
  9 10  1  0
 10 12  1  0
 11 10  2  0
 12 13  1  0
 14 15  1  0
 14 13  1  6
 15  7  1  0
 16 14  1  0
 17 16  2  0
 18 19  1  0
 20 19  1  1
 20 21  1  0
 21 16  1  0
 22 23  1  0
 22 20  1  0
 24 22  2  0
M  END
$$$$
