IQS.pdb
     RDKit          3D

 24 23  0  0  1  0  0  0  0  0999 V2000
    7.3754  -12.5956   18.3732 C   0  0  0  0  0  0  0  0  0  0  0  0
    6.8383  -13.4816   19.4530 C   0  0  0  0  0  0  0  0  0  0  0  0
    7.8214  -13.9230   20.4650 C   0  0  2  0  0  0  0  0  0  0  0  0
    9.0286  -14.4914   19.7393 C   0  0  0  0  0  0  0  0  0  0  0  0
    7.2987  -14.8297   21.5183 C   0  0  2  0  0  0  0  0  0  0  0  0
    6.0528  -14.2803   22.0595 N   0  0  0  0  0  0  0  0  0  0  0  0
    8.2108  -15.0633   22.6328 C   0  0  0  0  0  0  0  0  0  0  0  0
    8.4889  -14.1318   23.4245 O   0  0  0  0  0  0  0  0  0  0  0  0
    8.4572  -19.6041   26.4005 N   0  0  0  0  0  0  0  0  0  0  0  0
    7.9668  -18.3212   26.7615 C   0  0  0  0  0  0  0  0  0  0  0  0
    7.2290  -18.2350   27.7691 O   0  0  0  0  0  0  0  0  0  0  0  0
    8.3285  -17.0980   25.9490 C   0  0  0  0  0  0  0  0  0  0  0  0
    9.2249  -17.5632   24.8657 C   0  0  0  0  0  0  0  0  0  0  0  0
    9.7851  -16.5312   23.9440 C   0  0  2  0  0  0  0  0  0  0  0  0
    8.8006  -16.3290   22.8513 N   0  0  0  0  0  0  0  0  0  0  0  0
   11.1079  -16.8070   23.3867 C   0  0  0  0  0  0  0  0  0  0  0  0
   11.2171  -17.3766   22.2368 O   0  0  0  0  0  0  0  0  0  0  0  0
   14.9067  -15.4528   21.6470 O   0  0  0  0  0  0  0  0  0  0  0  0
   13.6331  -15.4096   22.2253 C   0  0  0  0  0  0  0  0  0  0  0  0
   13.5915  -16.5137   23.2641 C   0  0  2  0  0  0  0  0  0  0  0  0
   12.3426  -16.4971   24.0020 N   0  0  0  0  0  0  0  0  0  0  0  0
   14.7079  -16.2506   24.1988 C   0  0  0  0  0  0  0  0  0  0  0  0
   14.5062  -15.9877   25.5411 O   0  0  0  0  0  0  0  0  0  0  0  0
   15.8989  -16.2594   23.7853 O   0  0  0  0  0  0  0  0  0  0  0  0
  1  2  1  0
  3  2  1  0
  3  4  1  6
  5  3  1  0
  5  6  1  1
  7  5  1  0
  7  8  2  0
  9 10  1  0
 10 12  1  0
 11 10  2  0
 12 13  1  0
 14 15  1  0
 14 13  1  1
 15  7  1  0
 16 14  1  0
 17 16  2  0
 18 19  1  0
 20 19  1  6
 20 21  1  0
 21 16  1  0
 22 23  1  0
 22 20  1  0
 24 22  2  0
M  END
$$$$
