IQS.pdb
     RDKit          3D

 24 23  0  0  1  0  0  0  0  0999 V2000
    8.7886  -11.9179   19.1958 C   0  0  0  0  0  0  0  0  0  0  0  0
    8.4524  -12.8043   20.3537 C   0  0  0  0  0  0  0  0  0  0  0  0
    8.1887  -14.2198   20.0189 C   0  0  2  0  0  0  0  0  0  0  0  0
    6.9571  -14.2773   19.1317 C   0  0  0  0  0  0  0  0  0  0  0  0
    8.1157  -15.1518   21.1724 C   0  0  2  0  0  0  0  0  0  0  0  0
    6.9922  -14.7738   22.0337 N   0  0  0  0  0  0  0  0  0  0  0  0
    9.3189  -15.2021   21.9960 C   0  0  0  0  0  0  0  0  0  0  0  0
    9.4503  -14.4198   22.9669 O   0  0  0  0  0  0  0  0  0  0  0  0
   11.8853  -19.4822   25.1201 N   0  0  0  0  0  0  0  0  0  0  0  0
   12.3134  -18.2006   25.5570 C   0  0  0  0  0  0  0  0  0  0  0  0
   12.3902  -17.9939   26.7892 O   0  0  0  0  0  0  0  0  0  0  0  0
   12.6651  -17.1205   24.5584 C   0  0  0  0  0  0  0  0  0  0  0  0
   11.5004  -16.9901   23.6528 C   0  0  0  0  0  0  0  0  0  0  0  0
   11.6344  -16.0683   22.4864 C   0  0  2  0  0  0  0  0  0  0  0  0
   10.3588  -16.1212   21.7287 N   0  0  0  0  0  0  0  0  0  0  0  0
   12.7637  -16.3131   21.5911 C   0  0  0  0  0  0  0  0  0  0  0  0
   12.8298  -17.4117   20.9223 O   0  0  0  0  0  0  0  0  0  0  0  0
   15.0862  -13.6396   19.6540 O   0  0  0  0  0  0  0  0  0  0  0  0
   15.0264  -14.9829   19.2662 C   0  0  0  0  0  0  0  0  0  0  0  0
   14.9788  -15.8004   20.5426 C   0  0  2  0  0  0  0  0  0  0  0  0
   13.8433  -15.4285   21.3652 N   0  0  0  0  0  0  0  0  0  0  0  0
   16.2268  -15.4998   21.2783 C   0  0  0  0  0  0  0  0  0  0  0  0
   17.4790  -15.7685   20.7573 O   0  0  0  0  0  0  0  0  0  0  0  0
   16.1789  -14.9792   22.4256 O   0  0  0  0  0  0  0  0  0  0  0  0
  1  2  1  0
  3  2  1  0
  3  4  1  1
  5  3  1  0
  5  6  1  1
  7  5  1  0
  7  8  2  0
  9 10  1  0
 10 12  1  0
 11 10  2  0
 12 13  1  0
 14 15  1  0
 14 13  1  1
 15  7  1  0
 16 14  1  0
 17 16  2  0
 18 19  1  0
 20 19  1  6
 20 21  1  0
 21 16  1  0
 22 23  1  0
 22 20  1  0
 24 22  2  0
M  END
$$$$
