IQS.pdb
     RDKit          3D

 24 23  0  0  1  0  0  0  0  0999 V2000
    5.4577  -11.4524   27.0295 C   0  0  0  0  0  0  0  0  0  0  0  0
    6.4432  -12.4670   27.5184 C   0  0  0  0  0  0  0  0  0  0  0  0
    7.1638  -13.2157   26.4670 C   0  0  2  0  0  0  0  0  0  0  0  0
    8.0127  -12.2325   25.6797 C   0  0  0  0  0  0  0  0  0  0  0  0
    6.3229  -14.0791   25.5997 C   0  0  2  0  0  0  0  0  0  0  0  0
    5.5920  -15.0394   26.4306 N   0  0  0  0  0  0  0  0  0  0  0  0
    7.0568  -14.8272   24.5846 C   0  0  0  0  0  0  0  0  0  0  0  0
    7.5441  -15.9493   24.8591 O   0  0  0  0  0  0  0  0  0  0  0  0
    7.5539  -12.8167   18.8168 N   0  0  0  0  0  0  0  0  0  0  0  0
    8.4424  -13.9152   18.6737 C   0  0  0  0  0  0  0  0  0  0  0  0
    8.9751  -14.0999   17.5561 O   0  0  0  0  0  0  0  0  0  0  0  0
    8.7330  -14.8322   19.8408 C   0  0  0  0  0  0  0  0  0  0  0  0
    7.9540  -14.3121   20.9880 C   0  0  0  0  0  0  0  0  0  0  0  0
    8.0345  -15.0659   22.2739 C   0  0  2  0  0  0  0  0  0  0  0  0
    7.2386  -14.3173   23.2790 N   0  0  0  0  0  0  0  0  0  0  0  0
    9.3766  -15.3309   22.7888 C   0  0  0  0  0  0  0  0  0  0  0  0
   10.1801  -14.3532   23.0280 O   0  0  0  0  0  0  0  0  0  0  0  0
   10.5254  -18.9610   23.9601 O   0  0  0  0  0  0  0  0  0  0  0  0
   11.3673  -17.9773   24.4911 C   0  0  0  0  0  0  0  0  0  0  0  0
   11.2655  -16.7769   23.5700 C   0  0  2  0  0  0  0  0  0  0  0  0
    9.9140  -16.6080   23.0708 N   0  0  0  0  0  0  0  0  0  0  0  0
   12.1706  -17.0462   22.4309 C   0  0  0  0  0  0  0  0  0  0  0  0
   11.7089  -17.2066   21.1375 O   0  0  0  0  0  0  0  0  0  0  0  0
   13.4144  -17.1384   22.6151 O   0  0  0  0  0  0  0  0  0  0  0  0
  1  2  1  0
  3  2  1  0
  3  4  1  6
  5  3  1  0
  5  6  1  1
  7  5  1  0
  7  8  2  0
  9 10  1  0
 10 12  1  0
 11 10  2  0
 12 13  1  0
 14 15  1  0
 14 13  1  6
 15  7  1  0
 16 14  1  0
 17 16  2  0
 18 19  1  0
 20 19  1  1
 20 21  1  0
 21 16  1  0
 22 23  1  0
 22 20  1  0
 24 22  2  0
M  END
$$$$
