IQS.pdb
     RDKit          3D

 24 23  0  0  1  0  0  0  0  0999 V2000
    7.5107  -11.4046   27.6628 C   0  0  0  0  0  0  0  0  0  0  0  0
    7.4457  -12.8178   27.1748 C   0  0  0  0  0  0  0  0  0  0  0  0
    6.8212  -13.0074   25.8484 C   0  0  2  0  0  0  0  0  0  0  0  0
    5.3727  -12.5586   25.9360 C   0  0  0  0  0  0  0  0  0  0  0  0
    6.9740  -14.3583   25.2516 C   0  0  2  0  0  0  0  0  0  0  0  0
    6.3858  -15.3565   26.1487 N   0  0  0  0  0  0  0  0  0  0  0  0
    8.3511  -14.7541   24.9768 C   0  0  0  0  0  0  0  0  0  0  0  0
    9.0692  -14.0537   24.2246 O   0  0  0  0  0  0  0  0  0  0  0  0
   11.8883  -19.3124   27.2888 N   0  0  0  0  0  0  0  0  0  0  0  0
   10.5816  -19.0085   27.7543 C   0  0  0  0  0  0  0  0  0  0  0  0
   10.0353  -19.8132   28.5424 O   0  0  0  0  0  0  0  0  0  0  0  0
    9.8750  -17.7480   27.3079 C   0  0  0  0  0  0  0  0  0  0  0  0
   10.8429  -16.9956   26.4769 C   0  0  0  0  0  0  0  0  0  0  0  0
   10.3175  -16.3045   25.2626 C   0  0  2  0  0  0  0  0  0  0  0  0
    8.9102  -15.9226   25.5419 N   0  0  0  0  0  0  0  0  0  0  0  0
   10.3990  -17.0469   24.0061 C   0  0  0  0  0  0  0  0  0  0  0  0
    9.5406  -17.9713   23.7466 O   0  0  0  0  0  0  0  0  0  0  0  0
   11.5603  -16.0019   20.5011 O   0  0  0  0  0  0  0  0  0  0  0  0
   11.1363  -17.3318   20.6007 C   0  0  0  0  0  0  0  0  0  0  0  0
   11.5996  -17.8338   21.9547 C   0  0  2  0  0  0  0  0  0  0  0  0
   11.3639  -16.8475   22.9920 N   0  0  0  0  0  0  0  0  0  0  0  0
   13.0552  -18.0716   21.8366 C   0  0  0  0  0  0  0  0  0  0  0  0
   13.5912  -18.9557   20.9186 O   0  0  0  0  0  0  0  0  0  0  0  0
   13.8623  -17.4599   22.5876 O   0  0  0  0  0  0  0  0  0  0  0  0
  1  2  1  0
  3  2  1  0
  3  4  1  1
  5  3  1  0
  5  6  1  1
  7  5  1  0
  7  8  2  0
  9 10  1  0
 10 12  1  0
 11 10  2  0
 12 13  1  0
 14 15  1  0
 14 13  1  1
 15  7  1  0
 16 14  1  0
 17 16  2  0
 18 19  1  0
 20 19  1  6
 20 21  1  0
 21 16  1  0
 22 23  1  0
 22 20  1  0
 24 22  2  0
M  END
$$$$
