IQS.pdb
     RDKit          3D

 24 23  0  0  1  0  0  0  0  0999 V2000
    6.7662  -12.1459   19.8182 C   0  0  0  0  0  0  0  0  0  0  0  0
    7.7956  -12.9439   19.0812 C   0  0  0  0  0  0  0  0  0  0  0  0
    8.3450  -14.1065   19.8104 C   0  0  2  0  0  0  0  0  0  0  0  0
    8.9549  -13.6084   21.1093 C   0  0  0  0  0  0  0  0  0  0  0  0
    9.2643  -14.9774   19.0352 C   0  0  2  0  0  0  0  0  0  0  0  0
    8.5930  -15.4288   17.8135 N   0  0  0  0  0  0  0  0  0  0  0  0
    9.7397  -16.1565   19.7510 C   0  0  0  0  0  0  0  0  0  0  0  0
    9.0710  -17.2168   19.7318 O   0  0  0  0  0  0  0  0  0  0  0  0
   15.0998  -18.6566   19.1703 N   0  0  0  0  0  0  0  0  0  0  0  0
   14.9661  -18.7219   20.5826 C   0  0  0  0  0  0  0  0  0  0  0  0
   16.0104  -18.7677   21.2713 O   0  0  0  0  0  0  0  0  0  0  0  0
   13.5996  -18.7352   21.2305 C   0  0  0  0  0  0  0  0  0  0  0  0
   12.8390  -17.6151   20.6303 C   0  0  0  0  0  0  0  0  0  0  0  0
   11.4581  -17.3683   21.1406 C   0  0  2  0  0  0  0  0  0  0  0  0
   10.9517  -16.1401   20.4779 N   0  0  0  0  0  0  0  0  0  0  0  0
   11.3116  -17.2563   22.5907 C   0  0  0  0  0  0  0  0  0  0  0  0
   11.7473  -16.2108   23.2038 O   0  0  0  0  0  0  0  0  0  0  0  0
    9.2369  -19.8928   24.7814 O   0  0  0  0  0  0  0  0  0  0  0  0
    9.4633  -18.7060   25.4874 C   0  0  0  0  0  0  0  0  0  0  0  0
   10.6968  -18.0681   24.8780 C   0  0  2  0  0  0  0  0  0  0  0  0
   10.7097  -18.2174   23.4351 N   0  0  0  0  0  0  0  0  0  0  0  0
   11.8611  -18.7817   25.4474 C   0  0  0  0  0  0  0  0  0  0  0  0
   12.1870  -18.7186   26.7897 O   0  0  0  0  0  0  0  0  0  0  0  0
   12.6028  -19.4816   24.7060 O   0  0  0  0  0  0  0  0  0  0  0  0
  1  2  1  0
  3  2  1  0
  3  4  1  1
  5  3  1  0
  5  6  1  6
  7  5  1  0
  7  8  2  0
  9 10  1  0
 10 12  1  0
 11 10  2  0
 12 13  1  0
 14 15  1  0
 14 13  1  1
 15  7  1  0
 16 14  1  0
 17 16  2  0
 18 19  1  0
 20 19  1  1
 20 21  1  0
 21 16  1  0
 22 23  1  0
 22 20  1  0
 24 22  2  0
M  END
$$$$
