IQS.pdb
     RDKit          3D

 24 23  0  0  1  0  0  0  0  0999 V2000
    6.5132  -12.2339   19.4102 C   0  0  0  0  0  0  0  0  0  0  0  0
    7.3929  -12.9473   18.4321 C   0  0  0  0  0  0  0  0  0  0  0  0
    8.6039  -13.5750   19.0019 C   0  0  2  0  0  0  0  0  0  0  0  0
    9.3878  -12.5078   19.7459 C   0  0  0  0  0  0  0  0  0  0  0  0
    9.4389  -14.3475   18.0476 C   0  0  2  0  0  0  0  0  0  0  0  0
    8.6099  -15.3540   17.3792 N   0  0  0  0  0  0  0  0  0  0  0  0
   10.5815  -15.0290   18.6463 C   0  0  0  0  0  0  0  0  0  0  0  0
   10.4425  -16.1703   19.1464 O   0  0  0  0  0  0  0  0  0  0  0  0
   16.4441  -13.8404   17.0673 N   0  0  0  0  0  0  0  0  0  0  0  0
   16.6217  -14.2243   18.4229 C   0  0  0  0  0  0  0  0  0  0  0  0
   17.6745  -13.8725   19.0015 O   0  0  0  0  0  0  0  0  0  0  0  0
   15.5664  -15.0348   19.1419 C   0  0  0  0  0  0  0  0  0  0  0  0
   14.2576  -14.5738   18.6244 C   0  0  0  0  0  0  0  0  0  0  0  0
   13.0292  -15.1665   19.2312 C   0  0  2  0  0  0  0  0  0  0  0  0
   11.8622  -14.4322   18.6807 N   0  0  0  0  0  0  0  0  0  0  0  0
   12.9703  -15.1856   20.6916 C   0  0  0  0  0  0  0  0  0  0  0  0
   13.1371  -14.0961   21.3578 O   0  0  0  0  0  0  0  0  0  0  0  0
   10.8157  -17.6161   22.7949 O   0  0  0  0  0  0  0  0  0  0  0  0
   11.3188  -16.5072   23.4845 C   0  0  0  0  0  0  0  0  0  0  0  0
   12.7118  -16.2546   22.9409 C   0  0  2  0  0  0  0  0  0  0  0  0
   12.7340  -16.3268   21.4922 N   0  0  0  0  0  0  0  0  0  0  0  0
   13.5751  -17.3232   23.4905 C   0  0  0  0  0  0  0  0  0  0  0  0
   14.2648  -18.2092   22.6836 O   0  0  0  0  0  0  0  0  0  0  0  0
   13.7065  -17.4562   24.7374 O   0  0  0  0  0  0  0  0  0  0  0  0
  1  2  1  0
  3  2  1  0
  3  4  1  6
  5  3  1  0
  5  6  1  1
  7  5  1  0
  7  8  2  0
  9 10  1  0
 10 12  1  0
 11 10  2  0
 12 13  1  0
 14 15  1  0
 14 13  1  1
 15  7  1  0
 16 14  1  0
 17 16  2  0
 18 19  1  0
 20 19  1  1
 20 21  1  0
 21 16  1  0
 22 23  1  0
 22 20  1  0
 24 22  2  0
M  END
$$$$
