IQS.pdb
     RDKit          3D

 24 23  0  0  1  0  0  0  0  0999 V2000
    8.5367  -11.8729   27.3346 C   0  0  0  0  0  0  0  0  0  0  0  0
    7.7033  -13.0464   26.9249 C   0  0  0  0  0  0  0  0  0  0  0  0
    6.9487  -12.8847   25.6640 C   0  0  2  0  0  0  0  0  0  0  0  0
    6.0540  -11.6647   25.7980 C   0  0  0  0  0  0  0  0  0  0  0  0
    6.2198  -14.0885   25.1905 C   0  0  2  0  0  0  0  0  0  0  0  0
    5.3276  -14.5658   26.2503 N   0  0  0  0  0  0  0  0  0  0  0  0
    7.0727  -15.2001   24.7837 C   0  0  0  0  0  0  0  0  0  0  0  0
    7.2803  -16.1547   25.5697 O   0  0  0  0  0  0  0  0  0  0  0  0
    7.8217  -19.0258   20.7522 N   0  0  0  0  0  0  0  0  0  0  0  0
    6.9867  -17.9137   21.0398 C   0  0  0  0  0  0  0  0  0  0  0  0
    5.8452  -18.1384   21.5019 O   0  0  0  0  0  0  0  0  0  0  0  0
    7.4675  -16.5011   20.7931 C   0  0  0  0  0  0  0  0  0  0  0  0
    8.6843  -16.3214   21.6180 C   0  0  0  0  0  0  0  0  0  0  0  0
    8.5271  -16.3856   23.1010 C   0  0  2  0  0  0  0  0  0  0  0  0
    7.6826  -15.2349   23.5092 N   0  0  0  0  0  0  0  0  0  0  0  0
    9.7607  -16.4093   23.8848 C   0  0  0  0  0  0  0  0  0  0  0  0
   10.5959  -15.4324   23.8022 O   0  0  0  0  0  0  0  0  0  0  0  0
   10.2489  -18.1006   27.4261 O   0  0  0  0  0  0  0  0  0  0  0  0
   11.1335  -17.1065   26.9930 C   0  0  0  0  0  0  0  0  0  0  0  0
   11.3937  -17.3691   25.5223 C   0  0  2  0  0  0  0  0  0  0  0  0
   10.1544  -17.4380   24.7713 N   0  0  0  0  0  0  0  0  0  0  0  0
   12.0776  -18.6789   25.4461 C   0  0  0  0  0  0  0  0  0  0  0  0
   11.5686  -19.7414   24.7224 O   0  0  0  0  0  0  0  0  0  0  0  0
   13.1669  -18.8637   26.0534 O   0  0  0  0  0  0  0  0  0  0  0  0
  1  2  1  0
  3  2  1  0
  3  4  1  1
  5  3  1  0
  5  6  1  1
  7  5  1  0
  7  8  2  0
  9 10  1  0
 10 12  1  0
 11 10  2  0
 12 13  1  0
 14 15  1  0
 14 13  1  6
 15  7  1  0
 16 14  1  0
 17 16  2  0
 18 19  1  0
 20 19  1  1
 20 21  1  0
 21 16  1  0
 22 23  1  0
 22 20  1  0
 24 22  2  0
M  END
$$$$
