IQS.pdb
     RDKit          3D

 24 23  0  0  1  0  0  0  0  0999 V2000
    6.6028  -11.3448   27.2051 C   0  0  0  0  0  0  0  0  0  0  0  0
    6.0650  -12.4777   26.3884 C   0  0  0  0  0  0  0  0  0  0  0  0
    7.0544  -13.4983   25.9824 C   0  0  2  0  0  0  0  0  0  0  0  0
    8.2535  -12.7858   25.3812 C   0  0  0  0  0  0  0  0  0  0  0  0
    6.5366  -14.5900   25.1195 C   0  0  2  0  0  0  0  0  0  0  0  0
    5.4855  -15.3190   25.8344 N   0  0  0  0  0  0  0  0  0  0  0  0
    7.5403  -15.5557   24.6853 C   0  0  0  0  0  0  0  0  0  0  0  0
    7.7816  -16.5694   25.3825 O   0  0  0  0  0  0  0  0  0  0  0  0
    9.2443  -18.4258   20.5205 N   0  0  0  0  0  0  0  0  0  0  0  0
    8.4062  -17.3664   20.0825 C   0  0  0  0  0  0  0  0  0  0  0  0
    7.5242  -17.6260   19.2331 O   0  0  0  0  0  0  0  0  0  0  0  0
    8.5786  -15.9670   20.6297 C   0  0  0  0  0  0  0  0  0  0  0  0
    9.6553  -16.0420   21.6438 C   0  0  0  0  0  0  0  0  0  0  0  0
    9.2620  -16.3854   23.0423 C   0  0  2  0  0  0  0  0  0  0  0  0
    8.2615  -15.3807   23.4825 N   0  0  0  0  0  0  0  0  0  0  0  0
   10.3465  -16.4786   24.0180 C   0  0  0  0  0  0  0  0  0  0  0  0
   10.7609  -15.4206   24.6242 O   0  0  0  0  0  0  0  0  0  0  0  0
   10.5644  -19.0661   26.6109 O   0  0  0  0  0  0  0  0  0  0  0  0
   11.4197  -17.9728   26.7880 C   0  0  0  0  0  0  0  0  0  0  0  0
   12.0302  -17.6764   25.4319 C   0  0  2  0  0  0  0  0  0  0  0  0
   11.0208  -17.6643   24.3901 N   0  0  0  0  0  0  0  0  0  0  0  0
   12.9921  -18.7671   25.1591 C   0  0  0  0  0  0  0  0  0  0  0  0
   14.0520  -19.0501   26.0007 O   0  0  0  0  0  0  0  0  0  0  0  0
   12.8669  -19.4825   24.1285 O   0  0  0  0  0  0  0  0  0  0  0  0
  1  2  1  0
  3  2  1  0
  3  4  1  6
  5  3  1  0
  5  6  1  1
  7  5  1  0
  7  8  2  0
  9 10  1  0
 10 12  1  0
 11 10  2  0
 12 13  1  0
 14 15  1  0
 14 13  1  6
 15  7  1  0
 16 14  1  0
 17 16  2  0
 18 19  1  0
 20 19  1  1
 20 21  1  0
 21 16  1  0
 22 23  1  0
 22 20  1  0
 24 22  2  0
M  END
$$$$
