IQS.pdb
     RDKit          3D

 24 23  0  0  1  0  0  0  0  0999 V2000
    7.7927  -12.1047   21.0644 C   0  0  0  0  0  0  0  0  0  0  0  0
    7.9367  -13.5141   20.5825 C   0  0  0  0  0  0  0  0  0  0  0  0
    8.9110  -13.7192   19.4899 C   0  0  2  0  0  0  0  0  0  0  0  0
    8.5808  -12.7482   18.3695 C   0  0  0  0  0  0  0  0  0  0  0  0
    9.0642  -15.1185   19.0175 C   0  0  2  0  0  0  0  0  0  0  0  0
    7.8449  -15.5327   18.3185 N   0  0  0  0  0  0  0  0  0  0  0  0
    9.3354  -16.0933   20.0685 C   0  0  0  0  0  0  0  0  0  0  0  0
    8.3870  -16.6442   20.6760 O   0  0  0  0  0  0  0  0  0  0  0  0
   15.7077  -18.2347   20.1682 N   0  0  0  0  0  0  0  0  0  0  0  0
   14.3099  -18.4826   20.2070 C   0  0  0  0  0  0  0  0  0  0  0  0
   13.8359  -19.3099   19.3959 O   0  0  0  0  0  0  0  0  0  0  0  0
   13.4244  -17.7653   21.2013 C   0  0  0  0  0  0  0  0  0  0  0  0
   12.0574  -18.3023   21.0104 C   0  0  0  0  0  0  0  0  0  0  0  0
   10.9155  -17.4616   21.4768 C   0  0  2  0  0  0  0  0  0  0  0  0
   10.6567  -16.4419   20.4293 N   0  0  0  0  0  0  0  0  0  0  0  0
   11.0723  -16.8179   22.7798 C   0  0  0  0  0  0  0  0  0  0  0  0
   11.7142  -15.7055   22.8763 O   0  0  0  0  0  0  0  0  0  0  0  0
    8.4700  -16.8272   25.4681 O   0  0  0  0  0  0  0  0  0  0  0  0
    9.5183  -15.9452   25.7538 C   0  0  0  0  0  0  0  0  0  0  0  0
   10.7892  -16.6081   25.2587 C   0  0  2  0  0  0  0  0  0  0  0  0
   10.5668  -17.3062   24.0066 N   0  0  0  0  0  0  0  0  0  0  0  0
   11.1801  -17.5890   26.2952 C   0  0  0  0  0  0  0  0  0  0  0  0
   11.4912  -17.2169   27.5900 O   0  0  0  0  0  0  0  0  0  0  0  0
   11.2410  -18.8173   26.0176 O   0  0  0  0  0  0  0  0  0  0  0  0
  1  2  1  0
  3  2  1  0
  3  4  1  6
  5  3  1  0
  5  6  1  1
  7  5  1  0
  7  8  2  0
  9 10  1  0
 10 12  1  0
 11 10  2  0
 12 13  1  0
 14 15  1  0
 14 13  1  6
 15  7  1  0
 16 14  1  0
 17 16  2  0
 18 19  1  0
 20 19  1  1
 20 21  1  0
 21 16  1  0
 22 23  1  0
 22 20  1  0
 24 22  2  0
M  END
$$$$
