IQS.pdb
     RDKit          3D

 24 23  0  0  1  0  0  0  0  0999 V2000
    6.5481  -12.0378   28.1144 C   0  0  0  0  0  0  0  0  0  0  0  0
    6.0399  -13.0911   27.1807 C   0  0  0  0  0  0  0  0  0  0  0  0
    7.0494  -13.6875   26.2804 C   0  0  2  0  0  0  0  0  0  0  0  0
    7.7319  -12.5637   25.5201 C   0  0  0  0  0  0  0  0  0  0  0  0
    6.5603  -14.7735   25.3937 C   0  0  2  0  0  0  0  0  0  0  0  0
    5.9377  -15.8221   26.2058 N   0  0  0  0  0  0  0  0  0  0  0  0
    7.5866  -15.3949   24.5636 C   0  0  0  0  0  0  0  0  0  0  0  0
    8.0958  -16.4884   24.9053 O   0  0  0  0  0  0  0  0  0  0  0  0
    9.5263  -13.3399   19.3837 N   0  0  0  0  0  0  0  0  0  0  0  0
    9.7435  -14.7042   19.0546 C   0  0  0  0  0  0  0  0  0  0  0  0
   10.4514  -14.9633   18.0553 O   0  0  0  0  0  0  0  0  0  0  0  0
    9.1349  -15.8079   19.8906 C   0  0  0  0  0  0  0  0  0  0  0  0
    8.4579  -15.1473   21.0302 C   0  0  0  0  0  0  0  0  0  0  0  0
    8.8811  -15.5423   22.4061 C   0  0  2  0  0  0  0  0  0  0  0  0
    8.0321  -14.7920   23.3654 N   0  0  0  0  0  0  0  0  0  0  0  0
   10.2943  -15.3558   22.7299 C   0  0  0  0  0  0  0  0  0  0  0  0
   11.1783  -15.3753   21.7934 O   0  0  0  0  0  0  0  0  0  0  0  0
   11.3642  -18.2390   25.8492 O   0  0  0  0  0  0  0  0  0  0  0  0
   10.5882  -17.2987   25.1621 C   0  0  0  0  0  0  0  0  0  0  0  0
   11.5276  -16.1833   24.7456 C   0  0  2  0  0  0  0  0  0  0  0  0
   10.8221  -15.1413   24.0239 N   0  0  0  0  0  0  0  0  0  0  0  0
   12.5322  -16.7961   23.8486 C   0  0  0  0  0  0  0  0  0  0  0  0
   13.8892  -16.7456   24.1090 O   0  0  0  0  0  0  0  0  0  0  0  0
   12.1679  -17.3936   22.7999 O   0  0  0  0  0  0  0  0  0  0  0  0
  1  2  1  0
  3  2  1  0
  3  4  1  6
  5  3  1  0
  5  6  1  1
  7  5  1  0
  7  8  2  0
  9 10  1  0
 10 12  1  0
 11 10  2  0
 12 13  1  0
 14 15  1  0
 14 13  1  6
 15  7  1  0
 16 14  1  0
 17 16  2  0
 18 19  1  0
 20 19  1  6
 20 21  1  0
 21 16  1  0
 22 23  1  0
 22 20  1  0
 24 22  2  0
M  END
$$$$
