KVG.pdb
     RDKit          3D

 21 20  0  0  1  0  0  0  0  0999 V2000
    6.2610  -17.8661   22.9309 N   0  0  0  0  0  0  0  0  0  0  0  0
    6.2556  -17.4028   24.2856 C   0  0  1  0  0  0  0  0  0  0  0  0
    6.7121  -18.4383   25.2634 C   0  0  0  0  0  0  0  0  0  0  0  0
    7.6245  -19.4743   24.7227 C   0  0  0  0  0  0  0  0  0  0  0  0
    7.9711  -20.5934   25.6344 C   0  0  0  0  0  0  0  0  0  0  0  0
    8.9592  -21.5713   25.0504 C   0  0  0  0  0  0  0  0  0  0  0  0
    9.2352  -22.5741   26.0631 N   0  0  0  0  0  0  0  0  0  0  0  0
    6.9486  -16.1040   24.4539 C   0  0  0  0  0  0  0  0  0  0  0  0
    7.7837  -15.7166   23.5738 O   0  0  0  0  0  0  0  0  0  0  0  0
    7.6711  -11.8796   27.0448 C   0  0  0  0  0  0  0  0  0  0  0  0
    6.7912  -13.0347   26.6582 C   0  0  1  0  0  0  0  0  0  0  0  0
    5.4376  -12.5721   26.2068 C   0  0  0  0  0  0  0  0  0  0  0  0
    7.4572  -13.9327   25.6278 C   0  0  2  0  0  0  0  0  0  0  0  0
    6.7622  -15.2181   25.5443 N   0  0  0  0  0  0  0  0  0  0  0  0
    8.8446  -14.2177   26.0790 C   0  0  0  0  0  0  0  0  0  0  0  0
    9.7015  -13.2926   26.1166 O   0  0  0  0  0  0  0  0  0  0  0  0
    9.2643  -15.5153   26.4806 N   0  0  0  0  0  0  0  0  0  0  0  0
   10.6024  -15.8282   26.8897 C   0  0  0  0  0  0  0  0  0  0  0  0
   10.6135  -16.0701   28.3531 C   0  0  0  0  0  0  0  0  0  0  0  0
   11.8086  -16.2475   29.0600 O   0  0  0  0  0  0  0  0  0  0  0  0
    9.5168  -16.1147   28.9614 O   0  0  0  0  0  0  0  0  0  0  0  0
  2  1  1  6
  3  4  1  0
  3  2  1  0
  5  4  1  0
  6  5  1  0
  7  6  1  0
  8  2  1  0
  9  8  2  0
 11 10  1  6
 11 13  1  0
 12 11  1  0
 13 15  1  0
 13 14  1  1
 14  8  1  0
 15 17  1  0
 16 15  2  0
 17 18  1  0
 19 18  1  0
 19 20  1  0
 21 19  2  0
M  END
$$$$
