KVG.pdb
     RDKit          3D

 21 20  0  0  1  0  0  0  0  0999 V2000
    6.5270  -18.4490   18.1672 N   0  0  0  0  0  0  0  0  0  0  0  0
    6.3097  -17.8336   19.4415 C   0  0  1  0  0  0  0  0  0  0  0  0
    5.8837  -18.8027   20.4980 C   0  0  0  0  0  0  0  0  0  0  0  0
    4.7055  -19.6388   20.1651 C   0  0  0  0  0  0  0  0  0  0  0  0
    4.2659  -20.6069   21.2011 C   0  0  0  0  0  0  0  0  0  0  0  0
    3.0755  -21.4376   20.7927 C   0  0  0  0  0  0  0  0  0  0  0  0
    2.7370  -22.2991   21.9109 N   0  0  0  0  0  0  0  0  0  0  0  0
    7.4393  -16.9744   19.8674 C   0  0  0  0  0  0  0  0  0  0  0  0
    8.6320  -17.3091   19.5718 O   0  0  0  0  0  0  0  0  0  0  0  0
    7.4204  -12.9744   19.6230 C   0  0  0  0  0  0  0  0  0  0  0  0
    8.0068  -13.4402   20.9257 C   0  0  1  0  0  0  0  0  0  0  0  0
    7.0707  -13.1969   22.0721 C   0  0  0  0  0  0  0  0  0  0  0  0
    8.4556  -14.8912   20.8569 C   0  0  2  0  0  0  0  0  0  0  0  0
    7.3122  -15.7684   20.6011 N   0  0  0  0  0  0  0  0  0  0  0  0
    9.0097  -15.2754   22.1817 C   0  0  0  0  0  0  0  0  0  0  0  0
    8.2340  -15.5318   23.1430 O   0  0  0  0  0  0  0  0  0  0  0  0
   10.4072  -15.3706   22.4251 N   0  0  0  0  0  0  0  0  0  0  0  0
   10.9707  -15.8408   23.6569 C   0  0  0  0  0  0  0  0  0  0  0  0
   12.4499  -15.7900   23.5592 C   0  0  0  0  0  0  0  0  0  0  0  0
   13.2276  -15.1290   24.5172 O   0  0  0  0  0  0  0  0  0  0  0  0
   13.0062  -16.3578   22.5883 O   0  0  0  0  0  0  0  0  0  0  0  0
  2  1  1  6
  3  4  1  0
  3  2  1  0
  5  4  1  0
  6  5  1  0
  7  6  1  0
  8  2  1  0
  9  8  2  0
 11 10  1  6
 11 13  1  0
 12 11  1  0
 13 15  1  0
 13 14  1  1
 14  8  1  0
 15 17  1  0
 16 15  2  0
 17 18  1  0
 19 18  1  0
 19 20  1  0
 21 19  2  0
M  END
$$$$
