KVG.pdb
     RDKit          3D

 21 20  0  0  1  0  0  0  0  0999 V2000
    7.0493  -15.4851   22.1752 N   0  0  0  0  0  0  0  0  0  0  0  0
    8.2655  -14.7335   22.0998 C   0  0  1  0  0  0  0  0  0  0  0  0
    8.3070  -13.7968   20.9345 C   0  0  0  0  0  0  0  0  0  0  0  0
    7.9309  -14.3829   19.6257 C   0  0  0  0  0  0  0  0  0  0  0  0
    8.0363  -13.4896   18.4447 C   0  0  0  0  0  0  0  0  0  0  0  0
    7.5098  -14.1000   17.1702 C   0  0  0  0  0  0  0  0  0  0  0  0
    7.6878  -13.1244   16.1101 N   0  0  0  0  0  0  0  0  0  0  0  0
    8.6189  -14.0779   23.3807 C   0  0  0  0  0  0  0  0  0  0  0  0
    9.6279  -13.3025   23.4345 O   0  0  0  0  0  0  0  0  0  0  0  0
    6.3390  -11.9945   25.9412 C   0  0  0  0  0  0  0  0  0  0  0  0
    7.0767  -13.1183   26.6125 C   0  0  1  0  0  0  0  0  0  0  0  0
    6.1720  -14.2792   26.9016 C   0  0  0  0  0  0  0  0  0  0  0  0
    8.3059  -13.5391   25.8227 C   0  0  2  0  0  0  0  0  0  0  0  0
    7.9123  -14.2387   24.5987 N   0  0  0  0  0  0  0  0  0  0  0  0
    9.0845  -14.5038   26.6429 C   0  0  0  0  0  0  0  0  0  0  0  0
    9.5398  -14.1570   27.7672 O   0  0  0  0  0  0  0  0  0  0  0  0
    9.3482  -15.8326   26.2116 N   0  0  0  0  0  0  0  0  0  0  0  0
   10.2326  -16.7308   26.8950 C   0  0  0  0  0  0  0  0  0  0  0  0
    9.4403  -17.5684   27.8282 C   0  0  0  0  0  0  0  0  0  0  0  0
   10.0546  -18.4109   28.7620 O   0  0  0  0  0  0  0  0  0  0  0  0
    8.1881  -17.5111   27.7689 O   0  0  0  0  0  0  0  0  0  0  0  0
  2  1  1  1
  3  4  1  0
  3  2  1  0
  5  4  1  0
  6  5  1  0
  7  6  1  0
  8  2  1  0
  9  8  2  0
 11 10  1  6
 11 13  1  0
 12 11  1  0
 13 15  1  0
 13 14  1  6
 14  8  1  0
 15 17  1  0
 16 15  2  0
 17 18  1  0
 19 18  1  0
 19 20  1  0
 21 19  2  0
M  END
$$$$
