KVG.pdb
     RDKit          3D

 21 20  0  0  1  0  0  0  0  0999 V2000
    5.7623  -18.9038   24.8084 N   0  0  0  0  0  0  0  0  0  0  0  0
    6.0116  -17.8650   25.7616 C   0  0  1  0  0  0  0  0  0  0  0  0
    6.6747  -18.3574   27.0086 C   0  0  0  0  0  0  0  0  0  0  0  0
    7.9896  -19.0155   26.8197 C   0  0  0  0  0  0  0  0  0  0  0  0
    8.7274  -19.3883   28.0529 C   0  0  0  0  0  0  0  0  0  0  0  0
   10.1454  -19.8360   27.8026 C   0  0  0  0  0  0  0  0  0  0  0  0
   10.7900  -19.9945   29.0936 N   0  0  0  0  0  0  0  0  0  0  0  0
    6.6939  -16.6905   25.1697 C   0  0  0  0  0  0  0  0  0  0  0  0
    7.2864  -16.8048   24.0482 O   0  0  0  0  0  0  0  0  0  0  0  0
    5.7449  -12.7597   26.0547 C   0  0  0  0  0  0  0  0  0  0  0  0
    7.2176  -12.9983   25.8761 C   0  0  1  0  0  0  0  0  0  0  0  0
    7.9524  -12.9236   27.1816 C   0  0  0  0  0  0  0  0  0  0  0  0
    7.4945  -14.3009   25.1424 C   0  0  2  0  0  0  0  0  0  0  0  0
    6.7512  -15.4019   25.7571 N   0  0  0  0  0  0  0  0  0  0  0  0
    8.9393  -14.6213   25.2816 C   0  0  0  0  0  0  0  0  0  0  0  0
    9.4762  -14.6445   26.4230 O   0  0  0  0  0  0  0  0  0  0  0  0
    9.7675  -14.9103   24.1628 N   0  0  0  0  0  0  0  0  0  0  0  0
   11.1616  -15.2293   24.2654 C   0  0  0  0  0  0  0  0  0  0  0  0
   11.6981  -15.4827   22.9060 C   0  0  0  0  0  0  0  0  0  0  0  0
   13.0653  -15.3791   22.6240 O   0  0  0  0  0  0  0  0  0  0  0  0
   10.8956  -15.7973   21.9940 O   0  0  0  0  0  0  0  0  0  0  0  0
  2  1  1  6
  3  4  1  0
  3  2  1  0
  5  4  1  0
  6  5  1  0
  7  6  1  0
  8  2  1  0
  9  8  2  0
 11 10  1  1
 11 13  1  0
 12 11  1  0
 13 15  1  0
 13 14  1  1
 14  8  1  0
 15 17  1  0
 16 15  2  0
 17 18  1  0
 19 18  1  0
 19 20  1  0
 21 19  2  0
M  END
$$$$
