KVG.pdb
     RDKit          3D

 21 20  0  0  1  0  0  0  0  0999 V2000
    5.9889  -19.7355   24.7490 N   0  0  0  0  0  0  0  0  0  0  0  0
    6.1487  -18.5968   25.6019 C   0  0  1  0  0  0  0  0  0  0  0  0
    6.8491  -18.9159   26.8843 C   0  0  0  0  0  0  0  0  0  0  0  0
    7.0120  -20.3583   27.1855 C   0  0  0  0  0  0  0  0  0  0  0  0
    8.3197  -20.7735   27.7523 C   0  0  0  0  0  0  0  0  0  0  0  0
    8.3947  -22.2384   28.1020 C   0  0  0  0  0  0  0  0  0  0  0  0
    9.6424  -22.4571   28.8111 N   0  0  0  0  0  0  0  0  0  0  0  0
    6.7306  -17.4281   24.9011 C   0  0  0  0  0  0  0  0  0  0  0  0
    7.2390  -17.5768   23.7430 O   0  0  0  0  0  0  0  0  0  0  0  0
    6.8363  -13.4923   26.5950 C   0  0  0  0  0  0  0  0  0  0  0  0
    6.8089  -13.6787   25.1042 C   0  0  1  0  0  0  0  0  0  0  0  0
    7.4516  -12.5264   24.3908 C   0  0  0  0  0  0  0  0  0  0  0  0
    7.4126  -15.0112   24.6898 C   0  0  2  0  0  0  0  0  0  0  0  0
    6.7763  -16.1095   25.4186 N   0  0  0  0  0  0  0  0  0  0  0  0
    8.8501  -15.0143   25.0683 C   0  0  0  0  0  0  0  0  0  0  0  0
    9.1985  -14.6917   26.2370 O   0  0  0  0  0  0  0  0  0  0  0  0
    9.8784  -15.3722   24.1540 N   0  0  0  0  0  0  0  0  0  0  0  0
   11.2715  -15.3966   24.4924 C   0  0  0  0  0  0  0  0  0  0  0  0
   12.0405  -15.8978   23.3273 C   0  0  0  0  0  0  0  0  0  0  0  0
   13.2868  -15.3615   22.9831 O   0  0  0  0  0  0  0  0  0  0  0  0
   11.5504  -16.8268   22.6406 O   0  0  0  0  0  0  0  0  0  0  0  0
  2  1  1  6
  3  4  1  0
  3  2  1  0
  5  4  1  0
  6  5  1  0
  7  6  1  0
  8  2  1  0
  9  8  2  0
 11 10  1  1
 11 13  1  0
 12 11  1  0
 13 15  1  0
 13 14  1  1
 14  8  1  0
 15 17  1  0
 16 15  2  0
 17 18  1  0
 19 18  1  0
 19 20  1  0
 21 19  2  0
M  END
$$$$
