KVG.pdb
     RDKit          3D

 21 20  0  0  1  0  0  0  0  0999 V2000
    8.0835  -14.0507   20.5756 N   0  0  0  0  0  0  0  0  0  0  0  0
    7.0922  -14.1751   21.6011 C   0  0  1  0  0  0  0  0  0  0  0  0
    6.1592  -15.3232   21.3815 C   0  0  0  0  0  0  0  0  0  0  0  0
    6.7641  -16.5365   20.7815 C   0  0  0  0  0  0  0  0  0  0  0  0
    6.6328  -17.7954   21.5573 C   0  0  0  0  0  0  0  0  0  0  0  0
    5.2223  -18.0947   21.9987 C   0  0  0  0  0  0  0  0  0  0  0  0
    5.2428  -19.3640   22.7028 N   0  0  0  0  0  0  0  0  0  0  0  0
    7.6683  -14.1518   22.9661 C   0  0  0  0  0  0  0  0  0  0  0  0
    8.8812  -14.4969   23.1442 O   0  0  0  0  0  0  0  0  0  0  0  0
    7.1086  -11.3292   25.8722 C   0  0  0  0  0  0  0  0  0  0  0  0
    6.9258  -12.7380   26.3619 C   0  0  1  0  0  0  0  0  0  0  0  0
    5.4775  -13.0668   26.5723 C   0  0  0  0  0  0  0  0  0  0  0  0
    7.6107  -13.7460   25.4527 C   0  0  2  0  0  0  0  0  0  0  0  0
    6.9692  -13.7666   24.1373 N   0  0  0  0  0  0  0  0  0  0  0  0
    7.4405  -15.1008   26.0401 C   0  0  0  0  0  0  0  0  0  0  0  0
    6.2989  -15.6365   26.0776 O   0  0  0  0  0  0  0  0  0  0  0  0
    8.5292  -15.8420   26.5756 N   0  0  0  0  0  0  0  0  0  0  0  0
    8.4003  -17.1579   27.1303 C   0  0  0  0  0  0  0  0  0  0  0  0
    9.7388  -17.6323   27.5584 C   0  0  0  0  0  0  0  0  0  0  0  0
    9.9084  -18.8526   28.2230 O   0  0  0  0  0  0  0  0  0  0  0  0
   10.7367  -16.9122   27.3127 O   0  0  0  0  0  0  0  0  0  0  0  0
  2  1  1  6
  3  4  1  0
  3  2  1  0
  5  4  1  0
  6  5  1  0
  7  6  1  0
  8  2  1  0
  9  8  2  0
 11 10  1  6
 11 13  1  0
 12 11  1  0
 13 15  1  0
 13 14  1  6
 14  8  1  0
 15 17  1  0
 16 15  2  0
 17 18  1  0
 19 18  1  0
 19 20  1  0
 21 19  2  0
M  END
$$$$
