KVG.pdb
     RDKit          3D

 21 20  0  0  1  0  0  0  0  0999 V2000
    6.5090  -15.8947   22.5395 N   0  0  0  0  0  0  0  0  0  0  0  0
    7.6180  -15.0317   22.2657 C   0  0  1  0  0  0  0  0  0  0  0  0
    7.3243  -14.0129   21.2109 C   0  0  0  0  0  0  0  0  0  0  0  0
    7.5640  -14.4474   19.8138 C   0  0  0  0  0  0  0  0  0  0  0  0
    7.9739  -13.3928   18.8528 C   0  0  0  0  0  0  0  0  0  0  0  0
    7.9719  -13.8453   17.4143 C   0  0  0  0  0  0  0  0  0  0  0  0
    8.4655  -12.7444   16.6072 N   0  0  0  0  0  0  0  0  0  0  0  0
    8.2061  -14.4414   23.4910 C   0  0  0  0  0  0  0  0  0  0  0  0
    9.3667  -13.9192   23.4445 O   0  0  0  0  0  0  0  0  0  0  0  0
    7.0163  -11.6025   25.6016 C   0  0  0  0  0  0  0  0  0  0  0  0
    7.2828  -12.7444   26.5412 C   0  0  1  0  0  0  0  0  0  0  0  0
    6.0087  -13.3574   27.0421 C   0  0  0  0  0  0  0  0  0  0  0  0
    8.2073  -13.7812   25.9232 C   0  0  2  0  0  0  0  0  0  0  0  0
    7.5738  -14.4018   24.7588 N   0  0  0  0  0  0  0  0  0  0  0  0
    8.4366  -14.8603   26.9194 C   0  0  0  0  0  0  0  0  0  0  0  0
    7.5406  -15.1480   27.7597 O   0  0  0  0  0  0  0  0  0  0  0  0
    9.6473  -15.6035   26.9734 N   0  0  0  0  0  0  0  0  0  0  0  0
    9.8977  -16.6499   27.9213 C   0  0  0  0  0  0  0  0  0  0  0  0
   11.2939  -17.1232   27.7571 C   0  0  0  0  0  0  0  0  0  0  0  0
   11.8397  -18.1061   28.5910 O   0  0  0  0  0  0  0  0  0  0  0  0
   11.9931  -16.6217   26.8437 O   0  0  0  0  0  0  0  0  0  0  0  0
  2  1  1  1
  3  4  1  0
  3  2  1  0
  5  4  1  0
  6  5  1  0
  7  6  1  0
  8  2  1  0
  9  8  2  0
 11 10  1  6
 11 13  1  0
 12 11  1  0
 13 15  1  0
 13 14  1  6
 14  8  1  0
 15 17  1  0
 16 15  2  0
 17 18  1  0
 19 18  1  0
 19 20  1  0
 21 19  2  0
M  END
$$$$
