KVG.pdb
     RDKit          3D

 21 20  0  0  1  0  0  0  0  0999 V2000
    6.6747  -15.5351   21.5367 N   0  0  0  0  0  0  0  0  0  0  0  0
    7.9974  -14.9905   21.5975 C   0  0  1  0  0  0  0  0  0  0  0  0
    8.2582  -13.9598   20.5456 C   0  0  0  0  0  0  0  0  0  0  0  0
    7.8655  -14.3360   19.1664 C   0  0  0  0  0  0  0  0  0  0  0  0
    8.2278  -13.3800   18.0900 C   0  0  0  0  0  0  0  0  0  0  0  0
    7.8328  -13.8392   16.7090 C   0  0  0  0  0  0  0  0  0  0  0  0
    8.1189  -12.7548   15.7874 N   0  0  0  0  0  0  0  0  0  0  0  0
    8.3722  -14.5359   22.9571 C   0  0  0  0  0  0  0  0  0  0  0  0
    9.5038  -13.9836   23.1473 O   0  0  0  0  0  0  0  0  0  0  0  0
    7.5603  -12.8854   27.4538 C   0  0  0  0  0  0  0  0  0  0  0  0
    7.0306  -13.4054   26.1473 C   0  0  1  0  0  0  0  0  0  0  0  0
    6.5548  -12.2927   25.2611 C   0  0  0  0  0  0  0  0  0  0  0  0
    8.0393  -14.2997   25.4440 C   0  0  2  0  0  0  0  0  0  0  0  0
    7.5581  -14.6629   24.1103 N   0  0  0  0  0  0  0  0  0  0  0  0
    8.1682  -15.5624   26.2178 C   0  0  0  0  0  0  0  0  0  0  0  0
    7.1485  -16.2650   26.4588 O   0  0  0  0  0  0  0  0  0  0  0  0
    9.4166  -16.0293   26.7125 N   0  0  0  0  0  0  0  0  0  0  0  0
    9.5859  -17.2800   27.3929 C   0  0  0  0  0  0  0  0  0  0  0  0
   10.2453  -17.0318   28.6982 C   0  0  0  0  0  0  0  0  0  0  0  0
   10.7332  -18.0805   29.4866 O   0  0  0  0  0  0  0  0  0  0  0  0
   10.3625  -15.8470   29.0946 O   0  0  0  0  0  0  0  0  0  0  0  0
  2  1  1  1
  3  4  1  0
  3  2  1  0
  5  4  1  0
  6  5  1  0
  7  6  1  0
  8  2  1  0
  9  8  2  0
 11 10  1  1
 11 13  1  0
 12 11  1  0
 13 15  1  0
 13 14  1  6
 14  8  1  0
 15 17  1  0
 16 15  2  0
 17 18  1  0
 19 18  1  0
 19 20  1  0
 21 19  2  0
M  END
$$$$
