KVG.pdb
     RDKit          3D

 21 20  0  0  1  0  0  0  0  0999 V2000
    7.6947  -14.7327   20.8028 N   0  0  0  0  0  0  0  0  0  0  0  0
    7.1899  -15.2130   22.0534 C   0  0  1  0  0  0  0  0  0  0  0  0
    7.1166  -16.7052   22.1244 C   0  0  0  0  0  0  0  0  0  0  0  0
    6.2977  -17.3586   21.0755 C   0  0  0  0  0  0  0  0  0  0  0  0
    7.0373  -18.0969   20.0211 C   0  0  0  0  0  0  0  0  0  0  0  0
    6.1449  -18.8016   19.0307 C   0  0  0  0  0  0  0  0  0  0  0  0
    6.9946  -19.3629   17.9962 N   0  0  0  0  0  0  0  0  0  0  0  0
    7.8757  -14.6122   23.2214 C   0  0  0  0  0  0  0  0  0  0  0  0
    9.1457  -14.5176   23.2265 O   0  0  0  0  0  0  0  0  0  0  0  0
    7.2960  -11.2818   25.3644 C   0  0  0  0  0  0  0  0  0  0  0  0
    7.2752  -12.5092   26.2309 C   0  0  1  0  0  0  0  0  0  0  0  0
    5.8821  -12.8560   26.6655 C   0  0  0  0  0  0  0  0  0  0  0  0
    7.9708  -13.6847   25.5628 C   0  0  2  0  0  0  0  0  0  0  0  0
    7.2259  -14.1134   24.3780 N   0  0  0  0  0  0  0  0  0  0  0  0
    7.9749  -14.8295   26.5110 C   0  0  0  0  0  0  0  0  0  0  0  0
    6.9145  -15.1616   27.1082 O   0  0  0  0  0  0  0  0  0  0  0  0
    9.1455  -15.5883   26.7850 N   0  0  0  0  0  0  0  0  0  0  0  0
    9.1639  -16.7464   27.6303 C   0  0  0  0  0  0  0  0  0  0  0  0
   10.5574  -17.2441   27.7335 C   0  0  0  0  0  0  0  0  0  0  0  0
   11.2673  -17.1977   28.9390 O   0  0  0  0  0  0  0  0  0  0  0  0
   11.1026  -17.7164   26.7066 O   0  0  0  0  0  0  0  0  0  0  0  0
  2  1  1  6
  3  4  1  0
  3  2  1  0
  5  4  1  0
  6  5  1  0
  7  6  1  0
  8  2  1  0
  9  8  2  0
 11 10  1  6
 11 13  1  0
 12 11  1  0
 13 15  1  0
 13 14  1  6
 14  8  1  0
 15 17  1  0
 16 15  2  0
 17 18  1  0
 19 18  1  0
 19 20  1  0
 21 19  2  0
M  END
$$$$
