KVG.pdb
     RDKit          3D

 21 20  0  0  1  0  0  0  0  0999 V2000
    6.7023  -18.7774   19.0372 N   0  0  0  0  0  0  0  0  0  0  0  0
    6.5368  -17.7994   20.0696 C   0  0  1  0  0  0  0  0  0  0  0  0
    6.2697  -18.4009   21.4126 C   0  0  0  0  0  0  0  0  0  0  0  0
    5.9975  -19.8583   21.4209 C   0  0  0  0  0  0  0  0  0  0  0  0
    5.5831  -20.4477   22.7188 C   0  0  0  0  0  0  0  0  0  0  0  0
    5.3002  -21.9274   22.6533 C   0  0  0  0  0  0  0  0  0  0  0  0
    4.8825  -22.3535   23.9767 N   0  0  0  0  0  0  0  0  0  0  0  0
    7.6261  -16.7951   20.0928 C   0  0  0  0  0  0  0  0  0  0  0  0
    8.7659  -17.0902   19.6072 O   0  0  0  0  0  0  0  0  0  0  0  0
    7.1930  -12.7866   19.3467 C   0  0  0  0  0  0  0  0  0  0  0  0
    8.0361  -13.0923   20.5523 C   0  0  1  0  0  0  0  0  0  0  0  0
    7.2952  -12.8225   21.8283 C   0  0  0  0  0  0  0  0  0  0  0  0
    8.5946  -14.5058   20.5079 C   0  0  2  0  0  0  0  0  0  0  0  0
    7.5143  -15.4863   20.6251 N   0  0  0  0  0  0  0  0  0  0  0  0
    9.4841  -14.6971   21.6834 C   0  0  0  0  0  0  0  0  0  0  0  0
   10.5240  -13.9946   21.8124 O   0  0  0  0  0  0  0  0  0  0  0  0
    9.2137  -15.6580   22.6958 N   0  0  0  0  0  0  0  0  0  0  0  0
    9.9858  -15.7877   23.8970 C   0  0  0  0  0  0  0  0  0  0  0  0
   11.1553  -16.6586   23.6250 C   0  0  0  0  0  0  0  0  0  0  0  0
   12.1024  -16.9479   24.6143 O   0  0  0  0  0  0  0  0  0  0  0  0
   11.2878  -17.1420   22.4746 O   0  0  0  0  0  0  0  0  0  0  0  0
  2  1  1  6
  3  4  1  0
  3  2  1  0
  5  4  1  0
  6  5  1  0
  7  6  1  0
  8  2  1  0
  9  8  2  0
 11 10  1  6
 11 13  1  0
 12 11  1  0
 13 15  1  0
 13 14  1  1
 14  8  1  0
 15 17  1  0
 16 15  2  0
 17 18  1  0
 19 18  1  0
 19 20  1  0
 21 19  2  0
M  END
$$$$
