KVG.pdb
     RDKit          3D

 21 20  0  0  1  0  0  0  0  0999 V2000
    7.6998  -17.4460   16.7633 N   0  0  0  0  0  0  0  0  0  0  0  0
    7.5806  -17.5912   18.1826 C   0  0  1  0  0  0  0  0  0  0  0  0
    7.7310  -19.0059   18.6441 C   0  0  0  0  0  0  0  0  0  0  0  0
    7.3227  -20.0460   17.6698 C   0  0  0  0  0  0  0  0  0  0  0  0
    7.5501  -21.4568   18.0721 C   0  0  0  0  0  0  0  0  0  0  0  0
    7.1652  -22.4613   17.0154 C   0  0  0  0  0  0  0  0  0  0  0  0
    7.4225  -23.7848   17.5534 N   0  0  0  0  0  0  0  0  0  0  0  0
    8.4383  -16.6444   18.9335 C   0  0  0  0  0  0  0  0  0  0  0  0
    9.6757  -16.5519   18.6470 O   0  0  0  0  0  0  0  0  0  0  0  0
    7.5433  -12.8669   19.8667 C   0  0  0  0  0  0  0  0  0  0  0  0
    8.1101  -13.5973   21.0512 C   0  0  1  0  0  0  0  0  0  0  0  0
    7.0508  -13.9126   22.0653 C   0  0  0  0  0  0  0  0  0  0  0  0
    8.8834  -14.8379   20.6334 C   0  0  2  0  0  0  0  0  0  0  0  0
    7.9935  -15.7995   19.9809 N   0  0  0  0  0  0  0  0  0  0  0  0
    9.4124  -15.4966   21.8565 C   0  0  0  0  0  0  0  0  0  0  0  0
    8.6249  -16.0674   22.6599 O   0  0  0  0  0  0  0  0  0  0  0  0
   10.7982  -15.5153   22.1738 N   0  0  0  0  0  0  0  0  0  0  0  0
   11.3299  -16.0652   23.3865 C   0  0  0  0  0  0  0  0  0  0  0  0
   12.8104  -15.9840   23.3425 C   0  0  0  0  0  0  0  0  0  0  0  0
   13.5988  -16.3317   24.4456 O   0  0  0  0  0  0  0  0  0  0  0  0
   13.3578  -15.5920   22.2835 O   0  0  0  0  0  0  0  0  0  0  0  0
  2  1  1  6
  3  4  1  0
  3  2  1  0
  5  4  1  0
  6  5  1  0
  7  6  1  0
  8  2  1  0
  9  8  2  0
 11 10  1  6
 11 13  1  0
 12 11  1  0
 13 15  1  0
 13 14  1  1
 14  8  1  0
 15 17  1  0
 16 15  2  0
 17 18  1  0
 19 18  1  0
 19 20  1  0
 21 19  2  0
M  END
$$$$
