KVG.pdb
     RDKit          3D

 21 20  0  0  1  0  0  0  0  0999 V2000
    7.8813  -15.0467   20.5266 N   0  0  0  0  0  0  0  0  0  0  0  0
    7.1424  -15.4074   21.6986 C   0  0  1  0  0  0  0  0  0  0  0  0
    6.7439  -16.8488   21.7225 C   0  0  0  0  0  0  0  0  0  0  0  0
    5.9702  -17.3207   20.5491 C   0  0  0  0  0  0  0  0  0  0  0  0
    5.6114  -18.7611   20.5277 C   0  0  0  0  0  0  0  0  0  0  0  0
    4.7195  -19.1496   19.3755 C   0  0  0  0  0  0  0  0  0  0  0  0
    4.4809  -20.5786   19.4676 N   0  0  0  0  0  0  0  0  0  0  0  0
    7.7990  -14.9689   22.9524 C   0  0  0  0  0  0  0  0  0  0  0  0
    9.0225  -15.2572   23.1573 O   0  0  0  0  0  0  0  0  0  0  0  0
    5.7504  -12.8744   26.1130 C   0  0  0  0  0  0  0  0  0  0  0  0
    7.2195  -12.6686   25.8739 C   0  0  1  0  0  0  0  0  0  0  0  0
    7.9321  -12.2591   27.1286 C   0  0  0  0  0  0  0  0  0  0  0  0
    7.8629  -13.8847   25.2266 C   0  0  2  0  0  0  0  0  0  0  0  0
    7.1691  -14.2300   23.9849 N   0  0  0  0  0  0  0  0  0  0  0  0
    7.7101  -15.0428   26.1459 C   0  0  0  0  0  0  0  0  0  0  0  0
    6.5608  -15.4754   26.4348 O   0  0  0  0  0  0  0  0  0  0  0  0
    8.8244  -15.7043   26.7307 N   0  0  0  0  0  0  0  0  0  0  0  0
    8.7104  -16.8370   27.6024 C   0  0  0  0  0  0  0  0  0  0  0  0
   10.0675  -17.2440   28.0417 C   0  0  0  0  0  0  0  0  0  0  0  0
   10.2630  -18.2912   28.9497 O   0  0  0  0  0  0  0  0  0  0  0  0
   11.0573  -16.6258   27.5803 O   0  0  0  0  0  0  0  0  0  0  0  0
  2  1  1  6
  3  4  1  0
  3  2  1  0
  5  4  1  0
  6  5  1  0
  7  6  1  0
  8  2  1  0
  9  8  2  0
 11 10  1  1
 11 13  1  0
 12 11  1  0
 13 15  1  0
 13 14  1  6
 14  8  1  0
 15 17  1  0
 16 15  2  0
 17 18  1  0
 19 18  1  0
 19 20  1  0
 21 19  2  0
M  END
$$$$
