KVG.pdb
     RDKit          3D

 21 20  0  0  1  0  0  0  0  0999 V2000
    6.4774  -15.3355   21.6464 N   0  0  0  0  0  0  0  0  0  0  0  0
    6.5659  -15.6317   23.0443 C   0  0  1  0  0  0  0  0  0  0  0  0
    6.9656  -17.0460   23.3219 C   0  0  0  0  0  0  0  0  0  0  0  0
    6.0718  -18.0877   22.7617 C   0  0  0  0  0  0  0  0  0  0  0  0
    6.4279  -19.4975   23.0611 C   0  0  0  0  0  0  0  0  0  0  0  0
    5.5431  -20.5081   22.3759 C   0  0  0  0  0  0  0  0  0  0  0  0
    6.0911  -21.8251   22.6446 N   0  0  0  0  0  0  0  0  0  0  0  0
    7.3783  -14.6443   23.7930 C   0  0  0  0  0  0  0  0  0  0  0  0
    8.4586  -14.2016   23.2842 O   0  0  0  0  0  0  0  0  0  0  0  0
    6.3526  -11.1851   25.2944 C   0  0  0  0  0  0  0  0  0  0  0  0
    7.0107  -12.0327   26.3462 C   0  0  1  0  0  0  0  0  0  0  0  0
    6.0086  -12.5960   27.3096 C   0  0  0  0  0  0  0  0  0  0  0  0
    7.8822  -13.1179   25.7341 C   0  0  2  0  0  0  0  0  0  0  0  0
    7.0534  -14.1261   25.0715 N   0  0  0  0  0  0  0  0  0  0  0  0
    8.6129  -13.8080   26.8293 C   0  0  0  0  0  0  0  0  0  0  0  0
    9.3263  -13.1450   27.6312 O   0  0  0  0  0  0  0  0  0  0  0  0
    8.5455  -15.2149   27.0226 N   0  0  0  0  0  0  0  0  0  0  0  0
    9.1288  -15.8934   28.1430 C   0  0  0  0  0  0  0  0  0  0  0  0
   10.4330  -16.4677   27.7315 C   0  0  0  0  0  0  0  0  0  0  0  0
   11.2094  -17.2327   28.6097 O   0  0  0  0  0  0  0  0  0  0  0  0
   10.8396  -16.2550   26.5635 O   0  0  0  0  0  0  0  0  0  0  0  0
  2  1  1  6
  3  4  1  0
  3  2  1  0
  5  4  1  0
  6  5  1  0
  7  6  1  0
  8  2  1  0
  9  8  2  0
 11 10  1  6
 11 13  1  0
 12 11  1  0
 13 15  1  0
 13 14  1  1
 14  8  1  0
 15 17  1  0
 16 15  2  0
 17 18  1  0
 19 18  1  0
 19 20  1  0
 21 19  2  0
M  END
$$$$
