LTK.pdb
     RDKit          3D

 25 24  0  0  1  0  0  0  0  0999 V2000
   27.8384  -18.8452  -18.2419 C   0  0  0  0  0  0  0  0  0  0  0  0
   26.5904  -18.0492  -18.4017 C   0  0  2  0  0  0  0  0  0  0  0  0
   26.8450  -16.6698  -18.9754 C   0  0  0  0  0  0  0  0  0  0  0  0
   25.7777  -17.9209  -17.1487 C   0  0  0  0  0  0  0  0  0  0  0  0
   25.5183  -19.2120  -16.4487 C   0  0  2  0  0  0  0  0  0  0  0  0
   25.1678  -20.2227  -17.3960 N   0  0  0  0  0  0  0  0  0  0  0  0
   24.4351  -18.9642  -15.4472 C   0  0  0  0  0  0  0  0  0  0  0  0
   24.6167  -18.0857  -14.5658 O   0  0  0  0  0  0  0  0  0  0  0  0
   21.6920  -17.0703  -15.2273 C   0  0  0  0  0  0  0  0  0  0  0  0
   21.1524  -18.4903  -15.1588 C   0  0  1  0  0  0  0  0  0  0  0  0
   20.8948  -18.9552  -16.4606 O   0  0  0  0  0  0  0  0  0  0  0  0
   22.1406  -19.4232  -14.4902 C   0  0  2  0  0  0  0  0  0  0  0  0
   23.2115  -19.6643  -15.4336 N   0  0  0  0  0  0  0  0  0  0  0  0
   21.4124  -20.6639  -14.1360 C   0  0  0  0  0  0  0  0  0  0  0  0
   21.4652  -21.6072  -14.9672 O   0  0  0  0  0  0  0  0  0  0  0  0
   20.6848  -20.8460  -12.9576 N   0  0  0  0  0  0  0  0  0  0  0  0
   20.0022  -22.1742  -12.7096 C   0  0  1  0  0  0  0  0  0  0  0  0
   19.8848  -22.2563  -11.2431 C   0  0  0  0  0  0  0  0  0  0  0  0
   19.3272  -23.3857  -10.5213 C   0  0  0  0  0  0  0  0  0  0  0  0
   19.1570  -23.4087   -9.0630 C   0  0  0  0  0  0  0  0  0  0  0  0
   18.5247  -24.8057   -8.7440 C   0  0  0  0  0  0  0  0  0  0  0  0
   18.2964  -24.9273   -7.3231 N   0  0  0  0  0  0  0  0  0  0  0  0
   18.7138  -22.0936  -13.4278 C   0  0  0  0  0  0  0  0  0  0  0  0
   18.1434  -23.3162  -13.8752 O   0  0  0  0  0  0  0  0  0  0  0  0
   18.0615  -21.0727  -13.6913 O   0  0  0  0  0  0  0  0  0  0  0  0
  2  1  1  1
  2  3  1  0
  4  2  1  0
  5  7  1  0
  5  4  1  0
  5  6  1  6
  7  8  2  0
 10  9  1  6
 10 11  1  0
 12 10  1  0
 12 13  1  6
 13  7  1  0
 14 12  1  0
 15 14  2  0
 16 14  1  0
 17 16  1  0
 17 18  1  1
 19 18  1  0
 20 19  1  0
 21 20  1  0
 22 21  1  0
 23 24  1  0
 23 17  1  0
 25 23  2  0
M  END
$$$$
