LTK.pdb
     RDKit          3D

 25 24  0  0  1  0  0  0  0  0999 V2000
   17.8869  -14.1780  -16.3923 C   0  0  0  0  0  0  0  0  0  0  0  0
   19.1961  -13.5344  -16.6897 C   0  0  2  0  0  0  0  0  0  0  0  0
   20.3450  -14.5226  -16.7026 C   0  0  0  0  0  0  0  0  0  0  0  0
   19.5390  -12.3898  -15.7845 C   0  0  0  0  0  0  0  0  0  0  0  0
   18.4746  -11.3507  -15.6766 C   0  0  2  0  0  0  0  0  0  0  0  0
   18.2487  -10.7445  -16.9507 N   0  0  0  0  0  0  0  0  0  0  0  0
   18.9200  -10.3648  -14.6433 C   0  0  0  0  0  0  0  0  0  0  0  0
   19.2579  -10.7898  -13.5089 O   0  0  0  0  0  0  0  0  0  0  0  0
   21.6996   -7.8302  -14.6223 C   0  0  0  0  0  0  0  0  0  0  0  0
   20.3835   -7.0903  -14.4415 C   0  0  1  0  0  0  0  0  0  0  0  0
   19.9420   -6.6114  -15.6876 O   0  0  0  0  0  0  0  0  0  0  0  0
   19.3188   -7.9953  -13.8573 C   0  0  2  0  0  0  0  0  0  0  0  0
   18.9835   -8.9747  -14.8690 N   0  0  0  0  0  0  0  0  0  0  0  0
   18.1622   -7.1445  -13.4921 C   0  0  0  0  0  0  0  0  0  0  0  0
   17.2605   -7.0134  -14.3600 O   0  0  0  0  0  0  0  0  0  0  0  0
   18.0153   -6.4917  -12.2660 N   0  0  0  0  0  0  0  0  0  0  0  0
   16.7540   -5.6984  -11.9988 C   0  0  1  0  0  0  0  0  0  0  0  0
   16.5130   -5.8708  -10.5554 C   0  0  0  0  0  0  0  0  0  0  0  0
   15.4409   -5.2305   -9.8150 C   0  0  0  0  0  0  0  0  0  0  0  0
   15.2603   -5.3768   -8.3651 C   0  0  0  0  0  0  0  0  0  0  0  0
   13.9364   -4.6076   -8.0352 C   0  0  0  0  0  0  0  0  0  0  0  0
   13.5598   -4.8472   -6.6617 N   0  0  0  0  0  0  0  0  0  0  0  0
   17.0660   -4.3145  -12.4109 C   0  0  0  0  0  0  0  0  0  0  0  0
   15.9778   -3.5024  -12.8314 O   0  0  0  0  0  0  0  0  0  0  0  0
   18.1791   -3.7690  -12.4347 O   0  0  0  0  0  0  0  0  0  0  0  0
  2  1  1  1
  2  3  1  0
  4  2  1  0
  5  7  1  0
  5  4  1  0
  5  6  1  6
  7  8  2  0
 10  9  1  6
 10 11  1  0
 12 10  1  0
 12 13  1  6
 13  7  1  0
 14 12  1  0
 15 14  2  0
 16 14  1  0
 17 16  1  0
 17 18  1  1
 19 18  1  0
 20 19  1  0
 21 20  1  0
 22 21  1  0
 23 24  1  0
 23 17  1  0
 25 23  2  0
M  END
$$$$
