LTK.pdb
     RDKit          3D

 25 24  0  0  1  0  0  0  0  0999 V2000
   18.8058  -12.1741  -20.0390 C   0  0  0  0  0  0  0  0  0  0  0  0
   17.9807  -12.3679  -18.8150 C   0  0  2  0  0  0  0  0  0  0  0  0
   16.5840  -11.7962  -18.9535 C   0  0  0  0  0  0  0  0  0  0  0  0
   18.6081  -11.8405  -17.5599 C   0  0  0  0  0  0  0  0  0  0  0  0
   20.0025  -12.3139  -17.3233 C   0  0  2  0  0  0  0  0  0  0  0  0
   20.0013  -13.7075  -17.0076 N   0  0  0  0  0  0  0  0  0  0  0  0
   20.5747  -11.4770  -16.2232 C   0  0  0  0  0  0  0  0  0  0  0  0
   20.1307  -11.6276  -15.0562 O   0  0  0  0  0  0  0  0  0  0  0  0
   24.0385  -11.2959  -14.9918 C   0  0  0  0  0  0  0  0  0  0  0  0
   23.6529   -9.8831  -15.4009 C   0  0  1  0  0  0  0  0  0  0  0  0
   24.1211   -9.6297  -16.7024 O   0  0  0  0  0  0  0  0  0  0  0  0
   22.1507   -9.6923  -15.3732 C   0  0  2  0  0  0  0  0  0  0  0  0
   21.5918  -10.5209  -16.4202 N   0  0  0  0  0  0  0  0  0  0  0  0
   21.8804   -8.2520  -15.5904 C   0  0  0  0  0  0  0  0  0  0  0  0
   21.4795   -7.9185  -16.7357 O   0  0  0  0  0  0  0  0  0  0  0  0
   22.0406   -7.2609  -14.6191 N   0  0  0  0  0  0  0  0  0  0  0  0
   21.8049   -5.8138  -14.9955 C   0  0  1  0  0  0  0  0  0  0  0  0
   20.3670   -5.7479  -15.3107 C   0  0  0  0  0  0  0  0  0  0  0  0
   19.6091   -4.5184  -15.4565 C   0  0  0  0  0  0  0  0  0  0  0  0
   18.1574   -4.4847  -15.6742 C   0  0  0  0  0  0  0  0  0  0  0  0
   17.7953   -2.9663  -15.8035 C   0  0  0  0  0  0  0  0  0  0  0  0
   16.4076   -2.8236  -16.1773 N   0  0  0  0  0  0  0  0  0  0  0  0
   22.2135   -5.0289  -13.8126 C   0  0  0  0  0  0  0  0  0  0  0  0
   22.2668   -5.7129  -12.5677 O   0  0  0  0  0  0  0  0  0  0  0  0
   22.5193   -3.8280  -13.7749 O   0  0  0  0  0  0  0  0  0  0  0  0
  2  1  1  6
  2  3  1  0
  4  2  1  0
  5  7  1  0
  5  4  1  0
  5  6  1  1
  7  8  2  0
 10  9  1  6
 10 11  1  0
 12 10  1  0
 12 13  1  6
 13  7  1  0
 14 12  1  0
 15 14  2  0
 16 14  1  0
 17 16  1  0
 17 18  1  1
 19 18  1  0
 20 19  1  0
 21 20  1  0
 22 21  1  0
 23 24  1  0
 23 17  1  0
 25 23  2  0
M  END
$$$$
