LTK.pdb
     RDKit          3D

 25 24  0  0  1  0  0  0  0  0999 V2000
   18.1414  -12.0360  -19.7150 C   0  0  0  0  0  0  0  0  0  0  0  0
   17.1588  -12.1681  -18.6043 C   0  0  2  0  0  0  0  0  0  0  0  0
   15.7262  -11.9900  -19.0653 C   0  0  0  0  0  0  0  0  0  0  0  0
   17.4198  -11.2602  -17.4404 C   0  0  0  0  0  0  0  0  0  0  0  0
   18.8258  -11.2857  -16.9434 C   0  0  2  0  0  0  0  0  0  0  0  0
   19.0795  -12.5089  -16.2497 N   0  0  0  0  0  0  0  0  0  0  0  0
   19.0106  -10.0835  -16.0726 C   0  0  0  0  0  0  0  0  0  0  0  0
   18.3557  -10.0068  -15.0016 O   0  0  0  0  0  0  0  0  0  0  0  0
   21.8809   -8.9891  -14.2386 C   0  0  0  0  0  0  0  0  0  0  0  0
   21.5381   -7.8230  -15.1524 C   0  0  1  0  0  0  0  0  0  0  0  0
   22.3340   -7.8872  -16.3099 O   0  0  0  0  0  0  0  0  0  0  0  0
   20.0789   -7.8509  -15.5570 C   0  0  2  0  0  0  0  0  0  0  0  0
   19.8838   -9.0219  -16.3853 N   0  0  0  0  0  0  0  0  0  0  0  0
   19.7943   -6.5925  -16.2852 C   0  0  0  0  0  0  0  0  0  0  0  0
   19.6355   -6.6833  -17.5302 O   0  0  0  0  0  0  0  0  0  0  0  0
   19.6937   -5.3354  -15.6845 N   0  0  0  0  0  0  0  0  0  0  0  0
   19.3953   -4.1273  -16.5465 C   0  0  1  0  0  0  0  0  0  0  0  0
   18.0528   -4.3915  -17.0933 C   0  0  0  0  0  0  0  0  0  0  0  0
   17.2127   -3.3972  -17.7361 C   0  0  0  0  0  0  0  0  0  0  0  0
   15.8663   -3.6847  -18.2467 C   0  0  0  0  0  0  0  0  0  0  0  0
   15.3528   -2.3293  -18.8406 C   0  0  0  0  0  0  0  0  0  0  0  0
   13.9976   -2.4844  -19.3150 N   0  0  0  0  0  0  0  0  0  0  0  0
   19.4728   -2.9666  -15.6359 C   0  0  0  0  0  0  0  0  0  0  0  0
   19.4352   -3.2338  -14.2404 O   0  0  0  0  0  0  0  0  0  0  0  0
   19.5676   -1.7704  -15.9477 O   0  0  0  0  0  0  0  0  0  0  0  0
  2  1  1  6
  2  3  1  0
  4  2  1  0
  5  7  1  0
  5  4  1  0
  5  6  1  1
  7  8  2  0
 10  9  1  1
 10 11  1  0
 12 10  1  0
 12 13  1  6
 13  7  1  0
 14 12  1  0
 15 14  2  0
 16 14  1  0
 17 16  1  0
 17 18  1  1
 19 18  1  0
 20 19  1  0
 21 20  1  0
 22 21  1  0
 23 24  1  0
 23 17  1  0
 25 23  2  0
M  END
$$$$
