LTK.pdb
     RDKit          3D

 25 24  0  0  1  0  0  0  0  0999 V2000
   27.2804  -14.1643  -15.4437 C   0  0  0  0  0  0  0  0  0  0  0  0
   26.9024  -14.3695  -16.8691 C   0  0  2  0  0  0  0  0  0  0  0  0
   27.9556  -15.1285  -17.6510 C   0  0  0  0  0  0  0  0  0  0  0  0
   26.5565  -13.1083  -17.6017 C   0  0  0  0  0  0  0  0  0  0  0  0
   25.5094  -12.2789  -16.9383 C   0  0  2  0  0  0  0  0  0  0  0  0
   24.3823  -13.0893  -16.5995 N   0  0  0  0  0  0  0  0  0  0  0  0
   25.1572  -11.1716  -17.8805 C   0  0  0  0  0  0  0  0  0  0  0  0
   26.0835  -10.4694  -18.3606 O   0  0  0  0  0  0  0  0  0  0  0  0
   22.8579  -11.3688  -21.0484 C   0  0  0  0  0  0  0  0  0  0  0  0
   22.3509  -10.3345  -20.0557 C   0  0  1  0  0  0  0  0  0  0  0  0
   21.3707  -10.9179  -19.2334 O   0  0  0  0  0  0  0  0  0  0  0  0
   23.4739   -9.8097  -19.1855 C   0  0  2  0  0  0  0  0  0  0  0  0
   23.8357  -10.8667  -18.2652 N   0  0  0  0  0  0  0  0  0  0  0  0
   22.9704   -8.6036  -18.4878 C   0  0  0  0  0  0  0  0  0  0  0  0
   22.6376   -8.7454  -17.2825 O   0  0  0  0  0  0  0  0  0  0  0  0
   22.8453   -7.3429  -19.0760 N   0  0  0  0  0  0  0  0  0  0  0  0
   22.3141   -6.1919  -18.2486 C   0  0  1  0  0  0  0  0  0  0  0  0
   22.9116   -4.9936  -18.8637 C   0  0  0  0  0  0  0  0  0  0  0  0
   22.7155   -3.6362  -18.3878 C   0  0  0  0  0  0  0  0  0  0  0  0
   23.1983   -2.4501  -19.1062 C   0  0  0  0  0  0  0  0  0  0  0  0
   22.7073   -1.2273  -18.2595 C   0  0  0  0  0  0  0  0  0  0  0  0
   23.2468   -0.0044  -18.8063 N   0  0  0  0  0  0  0  0  0  0  0  0
   20.8433   -6.2741  -18.3603 C   0  0  0  0  0  0  0  0  0  0  0  0
   20.0808   -5.7414  -17.2854 O   0  0  0  0  0  0  0  0  0  0  0  0
   20.1851   -6.7593  -19.2922 O   0  0  0  0  0  0  0  0  0  0  0  0
  2  1  1  1
  2  3  1  0
  4  2  1  0
  5  7  1  0
  5  4  1  0
  5  6  1  6
  7  8  2  0
 10  9  1  6
 10 11  1  0
 12 10  1  0
 12 13  1  1
 13  7  1  0
 14 12  1  0
 15 14  2  0
 16 14  1  0
 17 16  1  0
 17 18  1  6
 19 18  1  0
 20 19  1  0
 21 20  1  0
 22 21  1  0
 23 24  1  0
 23 17  1  0
 25 23  2  0
M  END
$$$$
