LTK.pdb
     RDKit          3D

 25 24  0  0  1  0  0  0  0  0999 V2000
   29.2008  -15.5651  -17.9831 C   0  0  0  0  0  0  0  0  0  0  0  0
   27.9250  -15.5378  -18.7499 C   0  0  2  0  0  0  0  0  0  0  0  0
   27.3165  -14.1518  -18.8253 C   0  0  0  0  0  0  0  0  0  0  0  0
   26.8908  -16.5053  -18.2586 C   0  0  0  0  0  0  0  0  0  0  0  0
   27.4308  -17.8427  -17.8788 C   0  0  2  0  0  0  0  0  0  0  0  0
   27.9376  -18.5140  -19.0339 N   0  0  0  0  0  0  0  0  0  0  0  0
   26.3216  -18.5976  -17.2172 C   0  0  0  0  0  0  0  0  0  0  0  0
   25.3454  -18.9727  -17.9157 O   0  0  0  0  0  0  0  0  0  0  0  0
   25.9222  -21.3657  -17.2771 C   0  0  0  0  0  0  0  0  0  0  0  0
   26.0087  -21.2820  -15.7613 C   0  0  1  0  0  0  0  0  0  0  0  0
   27.3483  -21.4313  -15.3611 O   0  0  0  0  0  0  0  0  0  0  0  0
   25.4889  -19.9534  -15.2526 C   0  0  2  0  0  0  0  0  0  0  0  0
   26.3068  -18.9159  -15.8439 N   0  0  0  0  0  0  0  0  0  0  0  0
   25.5864  -19.9734  -13.7745 C   0  0  0  0  0  0  0  0  0  0  0  0
   26.7203  -19.7435  -13.2796 O   0  0  0  0  0  0  0  0  0  0  0  0
   24.5160  -20.2272  -12.9136 N   0  0  0  0  0  0  0  0  0  0  0  0
   24.7743  -20.3310  -11.4256 C   0  0  1  0  0  0  0  0  0  0  0  0
   23.4483  -20.6014  -10.8428 C   0  0  0  0  0  0  0  0  0  0  0  0
   23.1984  -20.8343   -9.4318 C   0  0  0  0  0  0  0  0  0  0  0  0
   21.8834  -21.2059   -8.8944 C   0  0  0  0  0  0  0  0  0  0  0  0
   22.0610  -21.2116   -7.3382 C   0  0  0  0  0  0  0  0  0  0  0  0
   20.8100  -21.5548   -6.7035 N   0  0  0  0  0  0  0  0  0  0  0  0
   25.7507  -21.4290  -11.2724 C   0  0  0  0  0  0  0  0  0  0  0  0
   26.7135  -21.3002  -10.2347 O   0  0  0  0  0  0  0  0  0  0  0  0
   25.8324  -22.4638  -11.9504 O   0  0  0  0  0  0  0  0  0  0  0  0
  2  1  1  1
  2  3  1  0
  4  2  1  0
  5  7  1  0
  5  4  1  0
  5  6  1  6
  7  8  2  0
 10  9  1  6
 10 11  1  0
 12 10  1  0
 12 13  1  6
 13  7  1  0
 14 12  1  0
 15 14  2  0
 16 14  1  0
 17 16  1  0
 17 18  1  1
 19 18  1  0
 20 19  1  0
 21 20  1  0
 22 21  1  0
 23 24  1  0
 23 17  1  0
 25 23  2  0
M  END
$$$$
