LTK.pdb
     RDKit          3D

 25 24  0  0  1  0  0  0  0  0999 V2000
   22.9961  -20.6451  -17.6256 C   0  0  0  0  0  0  0  0  0  0  0  0
   23.5625  -19.9517  -16.4361 C   0  0  2  0  0  0  0  0  0  0  0  0
   24.7462  -20.6857  -15.8388 C   0  0  0  0  0  0  0  0  0  0  0  0
   22.5627  -19.6656  -15.3565 C   0  0  0  0  0  0  0  0  0  0  0  0
   21.3476  -18.9361  -15.8209 C   0  0  2  0  0  0  0  0  0  0  0  0
   21.6959  -17.6123  -16.2308 N   0  0  0  0  0  0  0  0  0  0  0  0
   20.3649  -18.9475  -14.6931 C   0  0  0  0  0  0  0  0  0  0  0  0
   20.3150  -17.9527  -13.9252 O   0  0  0  0  0  0  0  0  0  0  0  0
   15.9329  -18.9370  -13.9622 C   0  0  0  0  0  0  0  0  0  0  0  0
   17.3594  -18.9317  -14.4886 C   0  0  1  0  0  0  0  0  0  0  0  0
   17.8950  -17.6367  -14.3729 O   0  0  0  0  0  0  0  0  0  0  0  0
   18.2350  -19.8966  -13.7163 C   0  0  2  0  0  0  0  0  0  0  0  0
   19.4835  -20.0179  -14.4385 N   0  0  0  0  0  0  0  0  0  0  0  0
   17.5083  -21.1846  -13.6279 C   0  0  0  0  0  0  0  0  0  0  0  0
   17.2577  -21.7680  -14.7143 O   0  0  0  0  0  0  0  0  0  0  0  0
   17.0925  -21.7789  -12.4341 N   0  0  0  0  0  0  0  0  0  0  0  0
   16.5161  -23.1782  -12.4679 C   0  0  1  0  0  0  0  0  0  0  0  0
   16.4457  -23.5786  -11.0517 C   0  0  0  0  0  0  0  0  0  0  0  0
   17.5877  -23.9752  -10.2479 C   0  0  0  0  0  0  0  0  0  0  0  0
   17.4889  -24.3465   -8.8307 C   0  0  0  0  0  0  0  0  0  0  0  0
   18.9385  -24.7678   -8.4132 C   0  0  0  0  0  0  0  0  0  0  0  0
   18.9671  -25.0981   -7.0076 N   0  0  0  0  0  0  0  0  0  0  0  0
   15.2058  -23.0470  -13.1375 C   0  0  0  0  0  0  0  0  0  0  0  0
   14.7303  -24.1759  -13.8585 O   0  0  0  0  0  0  0  0  0  0  0  0
   14.4610  -22.0559  -13.1464 O   0  0  0  0  0  0  0  0  0  0  0  0
  2  1  1  6
  2  3  1  0
  4  2  1  0
  5  7  1  0
  5  4  1  0
  5  6  1  1
  7  8  2  0
 10  9  1  1
 10 11  1  0
 12 10  1  0
 12 13  1  6
 13  7  1  0
 14 12  1  0
 15 14  2  0
 16 14  1  0
 17 16  1  0
 17 18  1  1
 19 18  1  0
 20 19  1  0
 21 20  1  0
 22 21  1  0
 23 24  1  0
 23 17  1  0
 25 23  2  0
M  END
$$$$
