LTK.pdb
     RDKit          3D

 25 24  0  0  1  0  0  0  0  0999 V2000
   19.1875  -14.4916  -18.8286 C   0  0  0  0  0  0  0  0  0  0  0  0
   18.3187  -14.2678  -17.6404 C   0  0  2  0  0  0  0  0  0  0  0  0
   16.9561  -14.9162  -17.7806 C   0  0  0  0  0  0  0  0  0  0  0  0
   18.1440  -12.8262  -17.2685 C   0  0  0  0  0  0  0  0  0  0  0  0
   19.4214  -12.0743  -17.1036 C   0  0  2  0  0  0  0  0  0  0  0  0
   20.1876  -12.6356  -16.0361 N   0  0  0  0  0  0  0  0  0  0  0  0
   19.0651  -10.6415  -16.8622 C   0  0  0  0  0  0  0  0  0  0  0  0
   18.4009  -10.0286  -17.7368 O   0  0  0  0  0  0  0  0  0  0  0  0
   16.8376   -9.0460  -14.5085 C   0  0  0  0  0  0  0  0  0  0  0  0
   18.2284   -8.5052  -14.2161 C   0  0  1  0  0  0  0  0  0  0  0  0
   18.8272   -9.2785  -13.2058 O   0  0  0  0  0  0  0  0  0  0  0  0
   19.1053   -8.5448  -15.4503 C   0  0  2  0  0  0  0  0  0  0  0  0
   19.4337   -9.9320  -15.7012 N   0  0  0  0  0  0  0  0  0  0  0  0
   20.3063   -7.7237  -15.1701 C   0  0  0  0  0  0  0  0  0  0  0  0
   21.2952   -8.3206  -14.6710 O   0  0  0  0  0  0  0  0  0  0  0  0
   20.4049   -6.3533  -15.4219 N   0  0  0  0  0  0  0  0  0  0  0  0
   21.7410   -5.6644  -15.2433 C   0  0  1  0  0  0  0  0  0  0  0  0
   21.7517   -4.6146  -16.2771 C   0  0  0  0  0  0  0  0  0  0  0  0
   22.7475   -3.5628  -16.3756 C   0  0  0  0  0  0  0  0  0  0  0  0
   22.7184   -2.5159  -17.4049 C   0  0  0  0  0  0  0  0  0  0  0  0
   23.9905   -1.6416  -17.1392 C   0  0  0  0  0  0  0  0  0  0  0  0
   24.0600   -0.5712  -18.1063 N   0  0  0  0  0  0  0  0  0  0  0  0
   21.7410   -5.1619  -13.8541 C   0  0  0  0  0  0  0  0  0  0  0  0
   20.4816   -5.0527  -13.2042 O   0  0  0  0  0  0  0  0  0  0  0  0
   22.7218   -4.8189  -13.1778 O   0  0  0  0  0  0  0  0  0  0  0  0
  2  1  1  6
  2  3  1  0
  4  2  1  0
  5  7  1  0
  5  4  1  0
  5  6  1  1
  7  8  2  0
 10  9  1  6
 10 11  1  0
 12 10  1  0
 12 13  1  1
 13  7  1  0
 14 12  1  0
 15 14  2  0
 16 14  1  0
 17 16  1  0
 17 18  1  6
 19 18  1  0
 20 19  1  0
 21 20  1  0
 22 21  1  0
 23 24  1  0
 23 17  1  0
 25 23  2  0
M  END
$$$$
