LTK.pdb
     RDKit          3D

 25 24  0  0  1  0  0  0  0  0999 V2000
   25.1147  -17.5524  -15.8813 C   0  0  0  0  0  0  0  0  0  0  0  0
   26.3588  -16.7545  -15.7015 C   0  0  2  0  0  0  0  0  0  0  0  0
   27.3592  -17.4283  -14.7840 C   0  0  0  0  0  0  0  0  0  0  0  0
   26.1266  -15.3497  -15.2327 C   0  0  0  0  0  0  0  0  0  0  0  0
   25.1446  -14.5822  -16.0519 C   0  0  2  0  0  0  0  0  0  0  0  0
   25.4996  -14.6489  -17.4344 N   0  0  0  0  0  0  0  0  0  0  0  0
   25.1309  -13.1803  -15.5301 C   0  0  0  0  0  0  0  0  0  0  0  0
   24.9807  -12.9968  -14.2950 O   0  0  0  0  0  0  0  0  0  0  0  0
   27.7152  -10.5383  -15.8182 C   0  0  0  0  0  0  0  0  0  0  0  0
   26.4371   -9.9575  -16.4023 C   0  0  1  0  0  0  0  0  0  0  0  0
   26.4674  -10.0771  -17.8030 O   0  0  0  0  0  0  0  0  0  0  0  0
   25.2135  -10.6770  -15.8739 C   0  0  2  0  0  0  0  0  0  0  0  0
   25.2779  -12.0426  -16.3495 N   0  0  0  0  0  0  0  0  0  0  0  0
   24.0209   -9.9596  -16.3817 C   0  0  0  0  0  0  0  0  0  0  0  0
   23.5603  -10.3416  -17.4887 O   0  0  0  0  0  0  0  0  0  0  0  0
   23.3891   -8.9051  -15.7184 N   0  0  0  0  0  0  0  0  0  0  0  0
   22.1782   -8.2543  -16.3522 C   0  0  1  0  0  0  0  0  0  0  0  0
   21.1090   -9.2586  -16.2131 C   0  0  0  0  0  0  0  0  0  0  0  0
   19.7215   -9.0441  -16.5825 C   0  0  0  0  0  0  0  0  0  0  0  0
   18.6641  -10.0395  -16.3653 C   0  0  0  0  0  0  0  0  0  0  0  0
   17.3585   -9.3832  -16.9291 C   0  0  0  0  0  0  0  0  0  0  0  0
   16.2483  -10.2948  -16.7805 N   0  0  0  0  0  0  0  0  0  0  0  0
   21.9575   -7.0088  -15.5891 C   0  0  0  0  0  0  0  0  0  0  0  0
   21.0666   -6.0539  -16.1504 O   0  0  0  0  0  0  0  0  0  0  0  0
   22.4637   -6.6919  -14.5026 O   0  0  0  0  0  0  0  0  0  0  0  0
  2  1  1  1
  2  3  1  0
  4  2  1  0
  5  7  1  0
  5  4  1  0
  5  6  1  6
  7  8  2  0
 10  9  1  1
 10 11  1  0
 12 10  1  0
 12 13  1  6
 13  7  1  0
 14 12  1  0
 15 14  2  0
 16 14  1  0
 17 16  1  0
 17 18  1  1
 19 18  1  0
 20 19  1  0
 21 20  1  0
 22 21  1  0
 23 24  1  0
 23 17  1  0
 25 23  2  0
M  END
$$$$
