LTK.pdb
     RDKit          3D

 25 24  0  0  1  0  0  0  0  0999 V2000
   26.4455  -19.1137  -17.8623 C   0  0  0  0  0  0  0  0  0  0  0  0
   25.1193  -18.4522  -18.0044 C   0  0  2  0  0  0  0  0  0  0  0  0
   25.2200  -17.0580  -18.5899 C   0  0  0  0  0  0  0  0  0  0  0  0
   24.3190  -18.3996  -16.7381 C   0  0  0  0  0  0  0  0  0  0  0  0
   24.2614  -19.6901  -15.9926 C   0  0  2  0  0  0  0  0  0  0  0  0
   23.8151  -20.7371  -16.8566 N   0  0  0  0  0  0  0  0  0  0  0  0
   23.3530  -19.4862  -14.8217 C   0  0  0  0  0  0  0  0  0  0  0  0
   23.6033  -18.5514  -14.0185 O   0  0  0  0  0  0  0  0  0  0  0  0
   20.8222  -17.6812  -14.1591 C   0  0  0  0  0  0  0  0  0  0  0  0
   20.2418  -19.0786  -14.0090 C   0  0  1  0  0  0  0  0  0  0  0  0
   19.7769  -19.5277  -15.2578 O   0  0  0  0  0  0  0  0  0  0  0  0
   21.2793  -20.0531  -13.4913 C   0  0  2  0  0  0  0  0  0  0  0  0
   22.2226  -20.2881  -14.5637 N   0  0  0  0  0  0  0  0  0  0  0  0
   20.5679  -21.2879  -13.0865 C   0  0  0  0  0  0  0  0  0  0  0  0
   20.4510  -22.1854  -13.9608 O   0  0  0  0  0  0  0  0  0  0  0  0
   20.0294  -21.5116  -11.8172 N   0  0  0  0  0  0  0  0  0  0  0  0
   19.3724  -22.8422  -11.5183 C   0  0  1  0  0  0  0  0  0  0  0  0
   19.4346  -22.9588  -10.0507 C   0  0  0  0  0  0  0  0  0  0  0  0
   18.9359  -24.0905   -9.2904 C   0  0  0  0  0  0  0  0  0  0  0  0
   18.9819  -24.1628   -7.8245 C   0  0  0  0  0  0  0  0  0  0  0  0
   18.2561  -25.5008   -7.4551 C   0  0  0  0  0  0  0  0  0  0  0  0
   18.3346  -25.7236   -6.0304 N   0  0  0  0  0  0  0  0  0  0  0  0
   18.0064  -22.7385  -12.0713 C   0  0  0  0  0  0  0  0  0  0  0  0
   17.4027  -23.9382  -12.5368 O   0  0  0  0  0  0  0  0  0  0  0  0
   17.3139  -21.7159  -12.1799 O   0  0  0  0  0  0  0  0  0  0  0  0
  2  1  1  1
  2  3  1  0
  4  2  1  0
  5  7  1  0
  5  4  1  0
  5  6  1  6
  7  8  2  0
 10  9  1  6
 10 11  1  0
 12 10  1  0
 12 13  1  6
 13  7  1  0
 14 12  1  0
 15 14  2  0
 16 14  1  0
 17 16  1  0
 17 18  1  1
 19 18  1  0
 20 19  1  0
 21 20  1  0
 22 21  1  0
 23 24  1  0
 23 17  1  0
 25 23  2  0
M  END
$$$$
