SQK.pdb
     RDKit          3D

 25 24  0  0  1  0  0  0  0  0999 V2000
    8.3253  -19.2902   20.1950 O   0  0  0  0  0  0  0  0  0  0  0  0
    7.4231  -20.3109   19.9734 C   0  0  0  0  0  0  0  0  0  0  0  0
    6.0632  -19.9201   20.5155 C   0  0  2  0  0  0  0  0  0  0  0  0
    5.6280  -18.6819   19.9451 N   0  0  0  0  0  0  0  0  0  0  0  0
    6.1691  -19.7823   21.9804 C   0  0  0  0  0  0  0  0  0  0  0  0
    6.3323  -18.6083   22.4606 O   0  0  0  0  0  0  0  0  0  0  0  0
    4.1962  -23.4012   22.9638 N   0  0  0  0  0  0  0  0  0  0  0  0
    3.3803  -22.6169   23.8242 C   0  0  0  0  0  0  0  0  0  0  0  0
    2.1456  -22.6615   23.6387 O   0  0  0  0  0  0  0  0  0  0  0  0
    3.9811  -21.7886   24.8857 C   0  0  0  0  0  0  0  0  0  0  0  0
    5.4658  -21.9078   24.9424 C   0  0  0  0  0  0  0  0  0  0  0  0
    6.1513  -20.7835   24.2601 C   0  0  2  0  0  0  0  0  0  0  0  0
    6.0900  -20.9192   22.8073 N   0  0  0  0  0  0  0  0  0  0  0  0
    7.6209  -20.8275   24.5857 C   0  0  0  0  0  0  0  0  0  0  0  0
    8.4270  -21.5769   23.9551 O   0  0  0  0  0  0  0  0  0  0  0  0
    8.1970  -20.0403   25.6113 N   0  0  0  0  0  0  0  0  0  0  0  0
    9.6136  -20.0556   25.8790 C   0  0  1  0  0  0  0  0  0  0  0  0
   10.3746  -18.9090   25.3187 C   0  0  0  0  0  0  0  0  0  0  0  0
   11.8440  -18.9232   25.4962 C   0  0  0  0  0  0  0  0  0  0  0  0
   12.5781  -17.7509   24.9334 C   0  0  0  0  0  0  0  0  0  0  0  0
   14.0971  -17.9369   25.1424 C   0  0  0  0  0  0  0  0  0  0  0  0
   14.7165  -16.7397   24.6243 N   0  0  0  0  0  0  0  0  0  0  0  0
    9.8791  -20.2779   27.3042 C   0  0  0  0  0  0  0  0  0  0  0  0
   11.0559  -20.5448   27.7328 O   0  0  0  0  0  0  0  0  0  0  0  0
    8.8939  -20.2157   28.2672 O   0  0  0  0  0  0  0  0  0  0  0  0
  2  1  1  0
  3  2  1  0
  3  4  1  6
  5  6  2  0
  5  3  1  0
  7  8  1  0
  8 10  1  0
  9  8  2  0
 10 11  1  0
 12 11  1  1
 12 13  1  0
 13  5  1  0
 14 12  1  0
 14 16  1  0
 15 14  2  0
 17 16  1  0
 17 18  1  1
 18 19  1  0
 20 19  1  0
 21 22  1  0
 21 20  1  0
 23 17  1  0
 24 23  2  0
 25 23  1  0
M  END
$$$$
