SQK.pdb
     RDKit          3D

 25 24  0  0  1  0  0  0  0  0999 V2000
    7.9813  -13.5527   20.3697 O   0  0  0  0  0  0  0  0  0  0  0  0
    8.5451  -12.5460   19.6123 C   0  0  0  0  0  0  0  0  0  0  0  0
    9.0219  -13.1065   18.2877 C   0  0  2  0  0  0  0  0  0  0  0  0
    7.9311  -13.6769   17.5578 N   0  0  0  0  0  0  0  0  0  0  0  0
   10.0344  -14.1442   18.5598 C   0  0  0  0  0  0  0  0  0  0  0  0
    9.6980  -15.3667   18.3928 O   0  0  0  0  0  0  0  0  0  0  0  0
   15.9836  -13.9291   16.6745 N   0  0  0  0  0  0  0  0  0  0  0  0
   15.0556  -14.9967   16.5324 C   0  0  0  0  0  0  0  0  0  0  0  0
   15.4592  -16.0331   15.9633 O   0  0  0  0  0  0  0  0  0  0  0  0
   13.6767  -14.8704   17.0389 C   0  0  0  0  0  0  0  0  0  0  0  0
   13.6197  -14.3882   18.4482 C   0  0  0  0  0  0  0  0  0  0  0  0
   12.3688  -14.7916   19.1354 C   0  0  2  0  0  0  0  0  0  0  0  0
   11.3253  -13.7804   18.9886 N   0  0  0  0  0  0  0  0  0  0  0  0
   12.6199  -14.8682   20.6182 C   0  0  0  0  0  0  0  0  0  0  0  0
   12.9450  -13.8482   21.2985 O   0  0  0  0  0  0  0  0  0  0  0  0
   12.5105  -16.0766   21.3470 N   0  0  0  0  0  0  0  0  0  0  0  0
   12.8660  -16.1602   22.7418 C   0  0  1  0  0  0  0  0  0  0  0  0
   12.1854  -17.2392   23.5034 C   0  0  0  0  0  0  0  0  0  0  0  0
   12.5978  -17.4346   24.9114 C   0  0  0  0  0  0  0  0  0  0  0  0
   11.8913  -18.5228   25.6507 C   0  0  0  0  0  0  0  0  0  0  0  0
   12.3677  -18.5504   27.1198 C   0  0  0  0  0  0  0  0  0  0  0  0
   11.5405  -19.5296   27.7848 N   0  0  0  0  0  0  0  0  0  0  0  0
   14.3223  -16.1669   22.9158 C   0  0  0  0  0  0  0  0  0  0  0  0
   14.8610  -15.9723   24.0611 O   0  0  0  0  0  0  0  0  0  0  0  0
   15.1992  -16.3802   21.8731 O   0  0  0  0  0  0  0  0  0  0  0  0
  2  1  1  0
  3  2  1  0
  3  4  1  1
  5  6  2  0
  5  3  1  0
  7  8  1  0
  8 10  1  0
  9  8  2  0
 10 11  1  0
 12 11  1  6
 12 13  1  0
 13  5  1  0
 14 12  1  0
 14 16  1  0
 15 14  2  0
 17 16  1  0
 17 18  1  6
 18 19  1  0
 20 19  1  0
 21 22  1  0
 21 20  1  0
 23 17  1  0
 24 23  2  0
 25 23  1  0
M  END
$$$$
