SQK.pdb
     RDKit          3D

 25 24  0  0  1  0  0  0  0  0999 V2000
    7.2817  -19.0986   23.8933 O   0  0  0  0  0  0  0  0  0  0  0  0
    7.1092  -19.9825   22.8475 C   0  0  0  0  0  0  0  0  0  0  0  0
    6.7588  -19.2213   21.5851 C   0  0  2  0  0  0  0  0  0  0  0  0
    6.5887  -20.1192   20.4838 N   0  0  0  0  0  0  0  0  0  0  0  0
    7.8543  -18.2778   21.2922 C   0  0  0  0  0  0  0  0  0  0  0  0
    8.9219  -18.7454   20.7658 O   0  0  0  0  0  0  0  0  0  0  0  0
    7.6179  -12.1890   19.3378 N   0  0  0  0  0  0  0  0  0  0  0  0
    7.8188  -13.3727   18.5764 C   0  0  0  0  0  0  0  0  0  0  0  0
    7.4217  -13.3648   17.3919 O   0  0  0  0  0  0  0  0  0  0  0  0
    8.4689  -14.5532   19.1743 C   0  0  0  0  0  0  0  0  0  0  0  0
    8.1493  -14.7196   20.6207 C   0  0  0  0  0  0  0  0  0  0  0  0
    8.7406  -15.9530   21.1938 C   0  0  2  0  0  0  0  0  0  0  0  0
    7.7100  -16.9091   21.5896 N   0  0  0  0  0  0  0  0  0  0  0  0
    9.4561  -15.6116   22.4741 C   0  0  0  0  0  0  0  0  0  0  0  0
    8.8304  -15.2722   23.5240 O   0  0  0  0  0  0  0  0  0  0  0  0
   10.8664  -15.6463   22.5903 N   0  0  0  0  0  0  0  0  0  0  0  0
   11.5248  -16.3242   23.6791 C   0  0  1  0  0  0  0  0  0  0  0  0
   10.9771  -17.6647   24.0119 C   0  0  0  0  0  0  0  0  0  0  0  0
   11.6961  -18.4514   25.0390 C   0  0  0  0  0  0  0  0  0  0  0  0
   11.1040  -18.4260   26.4097 C   0  0  0  0  0  0  0  0  0  0  0  0
   11.9391  -19.3170   27.3556 C   0  0  0  0  0  0  0  0  0  0  0  0
   11.3205  -19.2015   28.6553 N   0  0  0  0  0  0  0  0  0  0  0  0
   12.9799  -16.3294   23.4950 C   0  0  0  0  0  0  0  0  0  0  0  0
   13.5091  -16.5315   22.3466 O   0  0  0  0  0  0  0  0  0  0  0  0
   13.8656  -16.1199   24.5309 O   0  0  0  0  0  0  0  0  0  0  0  0
  2  1  1  0
  3  2  1  0
  3  4  1  6
  5  6  2  0
  5  3  1  0
  7  8  1  0
  8 10  1  0
  9  8  2  0
 10 11  1  0
 12 11  1  1
 12 13  1  0
 13  5  1  0
 14 12  1  0
 14 16  1  0
 15 14  2  0
 17 16  1  0
 17 18  1  6
 18 19  1  0
 20 19  1  0
 21 22  1  0
 21 20  1  0
 23 17  1  0
 24 23  2  0
 25 23  1  0
M  END
$$$$
