SQK.pdb
     RDKit          3D

 25 24  0  0  1  0  0  0  0  0999 V2000
    5.7216  -21.4228   19.5726 O   0  0  0  0  0  0  0  0  0  0  0  0
    6.1569  -20.2607   20.1766 C   0  0  0  0  0  0  0  0  0  0  0  0
    6.4765  -19.2223   19.1204 C   0  0  2  0  0  0  0  0  0  0  0  0
    6.7253  -19.8461   17.8568 N   0  0  0  0  0  0  0  0  0  0  0  0
    7.6740  -18.4757   19.5503 C   0  0  0  0  0  0  0  0  0  0  0  0
    8.8177  -19.0093   19.3440 O   0  0  0  0  0  0  0  0  0  0  0  0
    7.7628  -12.2964   20.1160 N   0  0  0  0  0  0  0  0  0  0  0  0
    7.8686  -13.0906   18.9416 C   0  0  0  0  0  0  0  0  0  0  0  0
    7.6364  -12.5301   17.8495 O   0  0  0  0  0  0  0  0  0  0  0  0
    8.2361  -14.5160   19.0252 C   0  0  0  0  0  0  0  0  0  0  0  0
    8.4568  -14.9757   20.4258 C   0  0  0  0  0  0  0  0  0  0  0  0
    8.7247  -16.4321   20.5091 C   0  0  2  0  0  0  0  0  0  0  0  0
    7.5415  -17.2164   20.1660 N   0  0  0  0  0  0  0  0  0  0  0  0
    9.0255  -16.8003   21.9379 C   0  0  0  0  0  0  0  0  0  0  0  0
    8.1187  -16.8549   22.8232 O   0  0  0  0  0  0  0  0  0  0  0  0
   10.3325  -17.1081   22.3855 N   0  0  0  0  0  0  0  0  0  0  0  0
   10.6049  -17.4625   23.7562 C   0  0  1  0  0  0  0  0  0  0  0  0
   11.6512  -18.5007   23.9440 C   0  0  0  0  0  0  0  0  0  0  0  0
   11.9745  -18.8888   25.3352 C   0  0  0  0  0  0  0  0  0  0  0  0
   12.9592  -20.0011   25.4877 C   0  0  0  0  0  0  0  0  0  0  0  0
   13.2071  -20.2768   26.9872 C   0  0  0  0  0  0  0  0  0  0  0  0
   14.0967  -21.4132   27.0378 N   0  0  0  0  0  0  0  0  0  0  0  0
   10.8301  -16.2672   24.5758 C   0  0  0  0  0  0  0  0  0  0  0  0
   11.3187  -15.1944   24.0758 O   0  0  0  0  0  0  0  0  0  0  0  0
   10.5353  -16.2170   25.9219 O   0  0  0  0  0  0  0  0  0  0  0  0
  2  1  1  0
  3  2  1  0
  3  4  1  6
  5  6  2  0
  5  3  1  0
  7  8  1  0
  8 10  1  0
  9  8  2  0
 10 11  1  0
 12 11  1  1
 12 13  1  0
 13  5  1  0
 14 12  1  0
 14 16  1  0
 15 14  2  0
 17 16  1  0
 17 18  1  6
 18 19  1  0
 20 19  1  0
 21 22  1  0
 21 20  1  0
 23 17  1  0
 24 23  2  0
 25 23  1  0
M  END
$$$$
