SQK.pdb
     RDKit          3D

 25 24  0  0  1  0  0  0  0  0999 V2000
    7.3572  -13.4486   20.2582 O   0  0  0  0  0  0  0  0  0  0  0  0
    8.1224  -12.3941   19.8028 C   0  0  0  0  0  0  0  0  0  0  0  0
    8.8204  -12.7850   18.5160 C   0  0  2  0  0  0  0  0  0  0  0  0
    7.8752  -12.9281   17.4511 N   0  0  0  0  0  0  0  0  0  0  0  0
    9.5181  -14.0660   18.7365 C   0  0  0  0  0  0  0  0  0  0  0  0
    9.0282  -15.1152   18.1938 O   0  0  0  0  0  0  0  0  0  0  0  0
   14.8565  -15.4835   17.1587 N   0  0  0  0  0  0  0  0  0  0  0  0
   14.6743  -14.3645   18.0165 C   0  0  0  0  0  0  0  0  0  0  0  0
   15.5496  -13.4735   17.9877 O   0  0  0  0  0  0  0  0  0  0  0  0
   13.4970  -14.2744   18.8995 C   0  0  0  0  0  0  0  0  0  0  0  0
   12.5777  -15.4393   18.7591 C   0  0  0  0  0  0  0  0  0  0  0  0
   11.4206  -15.3631   19.6838 C   0  0  2  0  0  0  0  0  0  0  0  0
   10.6855  -14.1116   19.5224 N   0  0  0  0  0  0  0  0  0  0  0  0
   11.9215  -15.3311   21.1035 C   0  0  0  0  0  0  0  0  0  0  0  0
   12.3003  -14.2552   21.6586 O   0  0  0  0  0  0  0  0  0  0  0  0
   12.0026  -16.4926   21.9083 N   0  0  0  0  0  0  0  0  0  0  0  0
   12.4601  -16.4427   23.2746 C   0  0  1  0  0  0  0  0  0  0  0  0
   11.8401  -17.4398   24.1851 C   0  0  0  0  0  0  0  0  0  0  0  0
   12.3866  -17.5319   25.5576 C   0  0  0  0  0  0  0  0  0  0  0  0
   11.7943  -18.5949   26.4232 C   0  0  0  0  0  0  0  0  0  0  0  0
   12.3294  -18.4521   27.8651 C   0  0  0  0  0  0  0  0  0  0  0  0
   11.7846  -19.5689   28.6008 N   0  0  0  0  0  0  0  0  0  0  0  0
   13.9253  -16.4395   23.3409 C   0  0  0  0  0  0  0  0  0  0  0  0
   14.6389  -16.9648   22.4164 O   0  0  0  0  0  0  0  0  0  0  0  0
   14.6254  -15.8785   24.3882 O   0  0  0  0  0  0  0  0  0  0  0  0
  2  1  1  0
  3  2  1  0
  3  4  1  6
  5  6  2  0
  5  3  1  0
  7  8  1  0
  8 10  1  0
  9  8  2  0
 10 11  1  0
 12 11  1  6
 12 13  1  0
 13  5  1  0
 14 12  1  0
 14 16  1  0
 15 14  2  0
 17 16  1  0
 17 18  1  1
 18 19  1  0
 20 19  1  0
 21 22  1  0
 21 20  1  0
 23 17  1  0
 24 23  2  0
 25 23  1  0
M  END
$$$$
