SQK.pdb
     RDKit          3D

 25 24  0  0  1  0  0  0  0  0999 V2000
    9.5182  -15.1022   20.0745 O   0  0  0  0  0  0  0  0  0  0  0  0
   10.6049  -15.9119   19.8130 C   0  0  0  0  0  0  0  0  0  0  0  0
   10.1361  -17.3259   19.5360 C   0  0  2  0  0  0  0  0  0  0  0  0
    9.2551  -17.3549   18.4087 N   0  0  0  0  0  0  0  0  0  0  0  0
    9.4297  -17.8237   20.7316 C   0  0  0  0  0  0  0  0  0  0  0  0
    8.2049  -18.1682   20.6026 O   0  0  0  0  0  0  0  0  0  0  0  0
   11.7830  -21.4175   25.3031 N   0  0  0  0  0  0  0  0  0  0  0  0
   12.2496  -20.0768   25.2250 C   0  0  0  0  0  0  0  0  0  0  0  0
   13.2831  -19.7928   25.8669 O   0  0  0  0  0  0  0  0  0  0  0  0
   11.5318  -19.0739   24.4172 C   0  0  0  0  0  0  0  0  0  0  0  0
   10.4092  -19.6598   23.6308 C   0  0  0  0  0  0  0  0  0  0  0  0
    9.4961  -18.6247   23.0882 C   0  0  2  0  0  0  0  0  0  0  0  0
   10.1000  -17.9102   21.9668 N   0  0  0  0  0  0  0  0  0  0  0  0
    9.2670  -17.5671   24.1354 C   0  0  0  0  0  0  0  0  0  0  0  0
    8.7239  -17.8320   25.2507 O   0  0  0  0  0  0  0  0  0  0  0  0
    9.6402  -16.2150   23.9459 N   0  0  0  0  0  0  0  0  0  0  0  0
    9.4272  -15.2158   24.9632 C   0  0  1  0  0  0  0  0  0  0  0  0
    8.1536  -14.4592   24.8484 C   0  0  0  0  0  0  0  0  0  0  0  0
    7.8680  -13.4557   25.8983 C   0  0  0  0  0  0  0  0  0  0  0  0
    6.5679  -12.7323   25.7696 C   0  0  0  0  0  0  0  0  0  0  0  0
    6.4315  -11.6975   26.9082 C   0  0  0  0  0  0  0  0  0  0  0  0
    5.2032  -10.9840   26.6482 N   0  0  0  0  0  0  0  0  0  0  0  0
    9.6446  -15.7719   26.3029 C   0  0  0  0  0  0  0  0  0  0  0  0
    9.2719  -16.9593   26.6040 O   0  0  0  0  0  0  0  0  0  0  0  0
   10.2567  -15.0643   27.3160 O   0  0  0  0  0  0  0  0  0  0  0  0
  2  1  1  0
  3  2  1  0
  3  4  1  6
  5  6  2  0
  5  3  1  0
  7  8  1  0
  8 10  1  0
  9  8  2  0
 10 11  1  0
 12 11  1  1
 12 13  1  0
 13  5  1  0
 14 12  1  0
 14 16  1  0
 15 14  2  0
 17 16  1  0
 17 18  1  1
 18 19  1  0
 20 19  1  0
 21 22  1  0
 21 20  1  0
 23 17  1  0
 24 23  2  0
 25 23  1  0
M  END
$$$$
