SQK.pdb
     RDKit          3D

 25 24  0  0  1  0  0  0  0  0999 V2000
    6.7906  -12.9346   18.7549 O   0  0  0  0  0  0  0  0  0  0  0  0
    7.7749  -13.8406   19.0945 C   0  0  0  0  0  0  0  0  0  0  0  0
    8.8756  -13.8163   18.0534 C   0  0  2  0  0  0  0  0  0  0  0  0
    8.3852  -14.2711   16.7882 N   0  0  0  0  0  0  0  0  0  0  0  0
    9.9663  -14.6986   18.5098 C   0  0  0  0  0  0  0  0  0  0  0  0
   10.1742  -15.7790   17.8579 O   0  0  0  0  0  0  0  0  0  0  0  0
   15.8077  -15.2406   19.3281 N   0  0  0  0  0  0  0  0  0  0  0  0
   14.7943  -14.8410   18.4145 C   0  0  0  0  0  0  0  0  0  0  0  0
   14.8596  -15.2968   17.2531 O   0  0  0  0  0  0  0  0  0  0  0  0
   13.7184  -13.9246   18.8345 C   0  0  0  0  0  0  0  0  0  0  0  0
   13.1210  -14.2968   20.1484 C   0  0  0  0  0  0  0  0  0  0  0  0
   11.9099  -15.1403   20.0021 C   0  0  2  0  0  0  0  0  0  0  0  0
   10.7432  -14.3448   19.6296 N   0  0  0  0  0  0  0  0  0  0  0  0
   11.5551  -15.7350   21.3392 C   0  0  0  0  0  0  0  0  0  0  0  0
   10.9541  -15.0665   22.2341 O   0  0  0  0  0  0  0  0  0  0  0  0
   11.8669  -17.0719   21.6843 N   0  0  0  0  0  0  0  0  0  0  0  0
   11.5859  -17.6063   22.9935 C   0  0  1  0  0  0  0  0  0  0  0  0
   11.4863  -19.0872   23.0630 C   0  0  0  0  0  0  0  0  0  0  0  0
   11.2780  -19.6873   24.3999 C   0  0  0  0  0  0  0  0  0  0  0  0
   11.3574  -21.1772   24.4632 C   0  0  0  0  0  0  0  0  0  0  0  0
   10.9882  -21.6597   25.8833 C   0  0  0  0  0  0  0  0  0  0  0  0
   11.1810  -23.0908   25.8765 N   0  0  0  0  0  0  0  0  0  0  0  0
   12.4944  -17.0452   23.9989 C   0  0  0  0  0  0  0  0  0  0  0  0
   13.6998  -16.7252   23.7083 O   0  0  0  0  0  0  0  0  0  0  0  0
   12.1187  -16.8267   25.3076 O   0  0  0  0  0  0  0  0  0  0  0  0
  2  1  1  0
  3  2  1  0
  3  4  1  6
  5  6  2  0
  5  3  1  0
  7  8  1  0
  8 10  1  0
  9  8  2  0
 10 11  1  0
 12 11  1  1
 12 13  1  0
 13  5  1  0
 14 12  1  0
 14 16  1  0
 15 14  2  0
 17 16  1  0
 17 18  1  6
 18 19  1  0
 20 19  1  0
 21 22  1  0
 21 20  1  0
 23 17  1  0
 24 23  2  0
 25 23  1  0
M  END
$$$$
