SQK.pdb
     RDKit          3D

 25 24  0  0  1  0  0  0  0  0999 V2000
    7.1171  -12.3403   19.7179 O   0  0  0  0  0  0  0  0  0  0  0  0
    8.1307  -13.2662   19.8604 C   0  0  0  0  0  0  0  0  0  0  0  0
    8.7492  -13.5616   18.5091 C   0  0  2  0  0  0  0  0  0  0  0  0
    7.8069  -14.2161   17.6537 N   0  0  0  0  0  0  0  0  0  0  0  0
    9.9217  -14.4329   18.7153 C   0  0  0  0  0  0  0  0  0  0  0  0
    9.8037  -15.6730   18.4262 O   0  0  0  0  0  0  0  0  0  0  0  0
   15.3609  -13.5789   16.6527 N   0  0  0  0  0  0  0  0  0  0  0  0
   15.6841  -14.5356   17.6535 C   0  0  0  0  0  0  0  0  0  0  0  0
   16.7852  -15.1172   17.5540 O   0  0  0  0  0  0  0  0  0  0  0  0
   14.7474  -14.8201   18.7560 C   0  0  0  0  0  0  0  0  0  0  0  0
   13.4943  -14.0171   18.6726 C   0  0  0  0  0  0  0  0  0  0  0  0
   12.3319  -14.7164   19.2723 C   0  0  2  0  0  0  0  0  0  0  0  0
   11.1242  -13.8972   19.2149 N   0  0  0  0  0  0  0  0  0  0  0  0
   12.5824  -14.9241   20.7425 C   0  0  0  0  0  0  0  0  0  0  0  0
   12.9761  -13.9835   21.4969 O   0  0  0  0  0  0  0  0  0  0  0  0
   12.3963  -16.1758   21.3768 N   0  0  0  0  0  0  0  0  0  0  0  0
   12.7697  -16.3964   22.7517 C   0  0  1  0  0  0  0  0  0  0  0  0
   12.2426  -17.6471   23.3563 C   0  0  0  0  0  0  0  0  0  0  0  0
   12.5712  -17.9002   24.7772 C   0  0  0  0  0  0  0  0  0  0  0  0
   12.0144  -19.1578   25.3591 C   0  0  0  0  0  0  0  0  0  0  0  0
   12.2667  -19.1842   26.8827 C   0  0  0  0  0  0  0  0  0  0  0  0
   11.6723  -20.4106   27.3601 N   0  0  0  0  0  0  0  0  0  0  0  0
   14.2154  -16.2346   22.9386 C   0  0  0  0  0  0  0  0  0  0  0  0
   15.0558  -16.6818   22.0821 O   0  0  0  0  0  0  0  0  0  0  0  0
   14.7615  -15.5987   24.0336 O   0  0  0  0  0  0  0  0  0  0  0  0
  2  1  1  0
  3  2  1  0
  3  4  1  6
  5  6  2  0
  5  3  1  0
  7  8  1  0
  8 10  1  0
  9  8  2  0
 10 11  1  0
 12 11  1  1
 12 13  1  0
 13  5  1  0
 14 12  1  0
 14 16  1  0
 15 14  2  0
 17 16  1  0
 17 18  1  6
 18 19  1  0
 20 19  1  0
 21 22  1  0
 21 20  1  0
 23 17  1  0
 24 23  2  0
 25 23  1  0
M  END
$$$$
