SQK.pdb
     RDKit          3D

 25 24  0  0  1  0  0  0  0  0999 V2000
   10.1797  -20.4164   18.8907 O   0  0  0  0  0  0  0  0  0  0  0  0
    9.3853  -20.0670   17.8175 C   0  0  0  0  0  0  0  0  0  0  0  0
    9.8997  -18.7852   17.1944 C   0  0  2  0  0  0  0  0  0  0  0  0
   11.0785  -19.0355   16.4227 N   0  0  0  0  0  0  0  0  0  0  0  0
   10.2081  -17.8330   18.2782 C   0  0  0  0  0  0  0  0  0  0  0  0
   11.4085  -17.7951   18.7175 O   0  0  0  0  0  0  0  0  0  0  0  0
    6.3668  -13.2094   20.5020 N   0  0  0  0  0  0  0  0  0  0  0  0
    7.5512  -13.1117   21.2823 C   0  0  0  0  0  0  0  0  0  0  0  0
    7.5908  -12.2153   22.1516 O   0  0  0  0  0  0  0  0  0  0  0  0
    8.6784  -14.0361   21.0618 C   0  0  0  0  0  0  0  0  0  0  0  0
    8.4275  -15.0011   19.9538 C   0  0  0  0  0  0  0  0  0  0  0  0
    9.5172  -15.9971   19.8116 C   0  0  2  0  0  0  0  0  0  0  0  0
    9.1993  -17.0001   18.7989 N   0  0  0  0  0  0  0  0  0  0  0  0
    9.6468  -16.7768   21.0934 C   0  0  0  0  0  0  0  0  0  0  0  0
    8.8448  -17.7119   21.3955 O   0  0  0  0  0  0  0  0  0  0  0  0
   10.6665  -16.5195   22.0408 N   0  0  0  0  0  0  0  0  0  0  0  0
   10.7931  -17.2906   23.2524 C   0  0  1  0  0  0  0  0  0  0  0  0
   11.7667  -18.4113   23.1889 C   0  0  0  0  0  0  0  0  0  0  0  0
   13.1941  -18.0773   23.3930 C   0  0  0  0  0  0  0  0  0  0  0  0
   14.1616  -19.1917   23.1647 C   0  0  0  0  0  0  0  0  0  0  0  0
   15.6009  -18.6948   23.4240 C   0  0  0  0  0  0  0  0  0  0  0  0
   16.4591  -19.8328   23.1928 N   0  0  0  0  0  0  0  0  0  0  0  0
   10.9979  -16.4188   24.4140 C   0  0  0  0  0  0  0  0  0  0  0  0
   11.2235  -15.1655   24.2795 O   0  0  0  0  0  0  0  0  0  0  0  0
   10.9620  -16.8820   25.7123 O   0  0  0  0  0  0  0  0  0  0  0  0
  2  1  1  0
  3  2  1  0
  3  4  1  1
  5  6  2  0
  5  3  1  0
  7  8  1  0
  8 10  1  0
  9  8  2  0
 10 11  1  0
 12 11  1  1
 12 13  1  0
 13  5  1  0
 14 12  1  0
 14 16  1  0
 15 14  2  0
 17 16  1  0
 17 18  1  6
 18 19  1  0
 20 19  1  0
 21 22  1  0
 21 20  1  0
 23 17  1  0
 24 23  2  0
 25 23  1  0
M  END
$$$$
