SQK.pdb
     RDKit          3D

 25 24  0  0  1  0  0  0  0  0999 V2000
    8.4256  -18.2114   19.7203 O   0  0  0  0  0  0  0  0  0  0  0  0
    9.0567  -17.6152   18.6473 C   0  0  0  0  0  0  0  0  0  0  0  0
    9.9503  -18.6229   17.9531 C   0  0  2  0  0  0  0  0  0  0  0  0
    9.2837  -19.8821   17.8191 N   0  0  0  0  0  0  0  0  0  0  0  0
   11.1740  -18.7918   18.7594 C   0  0  0  0  0  0  0  0  0  0  0  0
   11.3522  -19.9127   19.3487 O   0  0  0  0  0  0  0  0  0  0  0  0
   17.2796  -19.3662   19.7381 N   0  0  0  0  0  0  0  0  0  0  0  0
   16.6563  -18.3286   18.9924 C   0  0  0  0  0  0  0  0  0  0  0  0
   16.8955  -18.2822   17.7671 O   0  0  0  0  0  0  0  0  0  0  0  0
   15.7684  -17.3539   19.6522 C   0  0  0  0  0  0  0  0  0  0  0  0
   14.4718  -17.1765   18.9386 C   0  0  0  0  0  0  0  0  0  0  0  0
   13.3675  -17.9379   19.5714 C   0  0  2  0  0  0  0  0  0  0  0  0
   12.1049  -17.7406   18.8643 N   0  0  0  0  0  0  0  0  0  0  0  0
   13.1192  -17.3952   20.9539 C   0  0  0  0  0  0  0  0  0  0  0  0
   12.6125  -16.2481   21.1449 O   0  0  0  0  0  0  0  0  0  0  0  0
   13.4331  -18.1248   22.1255 N   0  0  0  0  0  0  0  0  0  0  0  0
   13.1813  -17.5960   23.4429 C   0  0  1  0  0  0  0  0  0  0  0  0
   12.7878  -18.6024   24.4627 C   0  0  0  0  0  0  0  0  0  0  0  0
   12.4457  -18.0979   25.8116 C   0  0  0  0  0  0  0  0  0  0  0  0
   12.1030  -19.1379   26.8270 C   0  0  0  0  0  0  0  0  0  0  0  0
   11.7079  -18.4588   28.1568 C   0  0  0  0  0  0  0  0  0  0  0  0
   11.4143  -19.5326   29.0765 N   0  0  0  0  0  0  0  0  0  0  0  0
   14.2818  -16.7328   23.8845 C   0  0  0  0  0  0  0  0  0  0  0  0
   14.1184  -15.8563   24.8037 O   0  0  0  0  0  0  0  0  0  0  0  0
   15.5502  -16.8046   23.3481 O   0  0  0  0  0  0  0  0  0  0  0  0
  2  1  1  0
  3  2  1  0
  3  4  1  1
  5  6  2  0
  5  3  1  0
  7  8  1  0
  8 10  1  0
  9  8  2  0
 10 11  1  0
 12 11  1  6
 12 13  1  0
 13  5  1  0
 14 12  1  0
 14 16  1  0
 15 14  2  0
 17 16  1  0
 17 18  1  1
 18 19  1  0
 20 19  1  0
 21 22  1  0
 21 20  1  0
 23 17  1  0
 24 23  2  0
 25 23  1  0
M  END
$$$$
