SQK.pdb
     RDKit          3D

 25 24  0  0  1  0  0  0  0  0999 V2000
    6.2759  -20.7382   20.9417 O   0  0  0  0  0  0  0  0  0  0  0  0
    5.4000  -19.8071   20.4215 C   0  0  0  0  0  0  0  0  0  0  0  0
    6.0548  -19.0758   19.2672 C   0  0  2  0  0  0  0  0  0  0  0  0
    6.3995  -19.9887   18.2204 N   0  0  0  0  0  0  0  0  0  0  0  0
    7.2730  -18.4121   19.7688 C   0  0  0  0  0  0  0  0  0  0  0  0
    8.3956  -18.9902   19.5666 O   0  0  0  0  0  0  0  0  0  0  0  0
    7.8225  -12.2102   20.5852 N   0  0  0  0  0  0  0  0  0  0  0  0
    7.9884  -12.9392   19.3759 C   0  0  0  0  0  0  0  0  0  0  0  0
    7.9507  -12.2916   18.3082 O   0  0  0  0  0  0  0  0  0  0  0  0
    8.1937  -14.3990   19.3970 C   0  0  0  0  0  0  0  0  0  0  0  0
    8.1474  -14.9703   20.7730 C   0  0  0  0  0  0  0  0  0  0  0  0
    8.3893  -16.4335   20.7879 C   0  0  2  0  0  0  0  0  0  0  0  0
    7.1822  -17.1809   20.4461 N   0  0  0  0  0  0  0  0  0  0  0  0
    8.7220  -16.8670   22.1911 C   0  0  0  0  0  0  0  0  0  0  0  0
    7.8217  -17.1081   23.0515 O   0  0  0  0  0  0  0  0  0  0  0  0
   10.0538  -17.0332   22.6406 N   0  0  0  0  0  0  0  0  0  0  0  0
   10.3567  -17.4804   23.9774 C   0  0  1  0  0  0  0  0  0  0  0  0
   11.3400  -18.5909   24.0641 C   0  0  0  0  0  0  0  0  0  0  0  0
   11.6561  -19.1082   25.4145 C   0  0  0  0  0  0  0  0  0  0  0  0
   12.6056  -20.2598   25.4636 C   0  0  0  0  0  0  0  0  0  0  0  0
   12.8344  -20.6853   26.9307 C   0  0  0  0  0  0  0  0  0  0  0  0
   13.6157  -21.8984   26.8726 N   0  0  0  0  0  0  0  0  0  0  0  0
   10.6913  -16.3494   24.8492 C   0  0  0  0  0  0  0  0  0  0  0  0
   11.1451  -15.2497   24.3755 O   0  0  0  0  0  0  0  0  0  0  0  0
   10.5424  -16.3917   26.2195 O   0  0  0  0  0  0  0  0  0  0  0  0
  2  1  1  0
  3  2  1  0
  3  4  1  6
  5  6  2  0
  5  3  1  0
  7  8  1  0
  8 10  1  0
  9  8  2  0
 10 11  1  0
 12 11  1  1
 12 13  1  0
 13  5  1  0
 14 12  1  0
 14 16  1  0
 15 14  2  0
 17 16  1  0
 17 18  1  6
 18 19  1  0
 20 19  1  0
 21 22  1  0
 21 20  1  0
 23 17  1  0
 24 23  2  0
 25 23  1  0
M  END
$$$$
