PLS.pdb
     RDKit          3D

 22 22  0  0  1  0  0  0  0  0999 V2000
   26.7365  -19.7343  -15.4217 N   0  0  0  0  0  0  0  0  0  0  0  0
   27.7376  -19.6007  -16.4670 C   0  0  0  0  0  0  0  0  0  0  0  0
   28.7788  -20.6022  -16.0149 C   0  0  0  0  0  0  0  0  0  0  0  0
   27.9546  -21.7731  -15.4989 C   0  0  0  0  0  0  0  0  0  0  0  0
   26.6321  -21.1614  -15.2344 C   0  0  1  0  0  0  0  0  0  0  0  0
   26.0276  -21.5243  -13.9403 C   0  0  0  0  0  0  0  0  0  0  0  0
   25.6198  -22.7150  -13.8145 O   0  0  0  0  0  0  0  0  0  0  0  0
   24.1222  -20.8117   -8.9521 C   0  0  0  0  0  0  0  0  0  0  0  0
   25.6635  -20.8513   -9.0702 C   0  0  2  0  0  0  0  0  0  0  0  0
   26.1192  -19.7617   -8.1016 C   0  0  0  0  0  0  0  0  0  0  0  0
   26.0948  -20.4967  -10.4447 C   0  0  0  0  0  0  0  0  0  0  0  0
   25.3050  -21.0710  -11.5707 C   0  0  2  0  0  0  0  0  0  0  0  0
   25.8706  -20.6633  -12.8492 N   0  0  0  0  0  0  0  0  0  0  0  0
   23.8429  -20.8788  -11.5039 C   0  0  0  0  0  0  0  0  0  0  0  0
   23.2643  -21.2634  -10.4477 O   0  0  0  0  0  0  0  0  0  0  0  0
   20.0605  -18.4050  -13.1031 O   0  0  0  0  0  0  0  0  0  0  0  0
   21.4061  -18.7404  -13.2037 C   0  0  0  0  0  0  0  0  0  0  0  0
   21.7166  -20.0521  -12.5091 C   0  0  2  0  0  0  0  0  0  0  0  0
   23.1327  -20.2901  -12.5837 N   0  0  0  0  0  0  0  0  0  0  0  0
   20.9185  -21.1680  -13.0652 C   0  0  0  0  0  0  0  0  0  0  0  0
   21.3504  -21.8325  -14.0399 O   0  0  0  0  0  0  0  0  0  0  0  0
   19.6809  -21.5438  -12.5651 O   0  0  0  0  0  0  0  0  0  0  0  0
  2  1  1  0
  3  4  1  0
  3  2  1  0
  4  5  1  0
  5  1  1  0
  5  6  1  1
  7  6  2  0
  9  8  1  6
  9 10  1  0
  9 11  1  0
 12 11  1  1
 12 13  1  0
 12 14  1  0
 13  6  1  0
 14 15  2  0
 17 16  1  0
 18 17  1  6
 19 14  1  0
 19 18  1  0
 20 18  1  0
 20 22  1  0
 21 20  2  0
M  END
$$$$
