PLS.pdb
     RDKit          3D

 22 22  0  0  1  0  0  0  0  0999 V2000
   26.7299  -17.8188  -16.3829 N   0  0  0  0  0  0  0  0  0  0  0  0
   27.8597  -17.2125  -17.0673 C   0  0  0  0  0  0  0  0  0  0  0  0
   29.0215  -17.9602  -16.4488 C   0  0  0  0  0  0  0  0  0  0  0  0
   28.5120  -19.3898  -16.3342 C   0  0  0  0  0  0  0  0  0  0  0  0
   27.0414  -19.2278  -16.3994 C   0  0  1  0  0  0  0  0  0  0  0  0
   26.2871  -19.9907  -15.3892 C   0  0  0  0  0  0  0  0  0  0  0  0
   26.2979  -21.2508  -15.4998 O   0  0  0  0  0  0  0  0  0  0  0  0
   25.1717  -20.2959   -9.5083 C   0  0  0  0  0  0  0  0  0  0  0  0
   24.9347  -20.9016  -10.9112 C   0  0  2  0  0  0  0  0  0  0  0  0
   25.9001  -22.0844  -10.9521 C   0  0  0  0  0  0  0  0  0  0  0  0
   25.3030  -19.9316  -11.9717 C   0  0  0  0  0  0  0  0  0  0  0  0
   24.8243  -20.2248  -13.3524 C   0  0  2  0  0  0  0  0  0  0  0  0
   25.5660  -19.4363  -14.3265 N   0  0  0  0  0  0  0  0  0  0  0  0
   23.3641  -20.1662  -13.5606 C   0  0  0  0  0  0  0  0  0  0  0  0
   22.8306  -19.0202  -13.5438 O   0  0  0  0  0  0  0  0  0  0  0  0
   21.1557  -22.6537  -15.8385 O   0  0  0  0  0  0  0  0  0  0  0  0
   20.6885  -22.5756  -14.5312 C   0  0  0  0  0  0  0  0  0  0  0  0
   21.1706  -21.3198  -13.8313 C   0  0  2  0  0  0  0  0  0  0  0  0
   22.6068  -21.3499  -13.7667 N   0  0  0  0  0  0  0  0  0  0  0  0
   20.5410  -21.1587  -12.5012 C   0  0  0  0  0  0  0  0  0  0  0  0
   21.1956  -21.3995  -11.4564 O   0  0  0  0  0  0  0  0  0  0  0  0
   19.2295  -20.7448  -12.3234 O   0  0  0  0  0  0  0  0  0  0  0  0
  2  1  1  0
  3  4  1  0
  3  2  1  0
  4  5  1  0
  5  1  1  0
  5  6  1  1
  7  6  2  0
  9  8  1  1
  9 10  1  0
  9 11  1  0
 12 11  1  1
 12 13  1  0
 12 14  1  0
 13  6  1  0
 14 15  2  0
 17 16  1  0
 18 17  1  1
 19 14  1  0
 19 18  1  0
 20 18  1  0
 20 22  1  0
 21 20  2  0
M  END
$$$$
