PLS.pdb
     RDKit          3D

 22 22  0  0  1  0  0  0  0  0999 V2000
   26.6608  -19.3605  -14.7035 N   0  0  0  0  0  0  0  0  0  0  0  0
   27.5960  -19.0715  -15.7779 C   0  0  0  0  0  0  0  0  0  0  0  0
   28.8957  -19.5760  -15.1881 C   0  0  0  0  0  0  0  0  0  0  0  0
   28.4936  -20.8543  -14.4665 C   0  0  0  0  0  0  0  0  0  0  0  0
   27.0340  -20.6883  -14.2789 C   0  0  1  0  0  0  0  0  0  0  0  0
   26.5401  -21.0158  -12.9296 C   0  0  0  0  0  0  0  0  0  0  0  0
   26.6584  -22.2180  -12.5545 O   0  0  0  0  0  0  0  0  0  0  0  0
   26.0963  -18.7583   -7.3324 C   0  0  0  0  0  0  0  0  0  0  0  0
   25.7321  -19.9405   -8.2603 C   0  0  2  0  0  0  0  0  0  0  0  0
   26.6291  -21.0708   -7.7597 C   0  0  0  0  0  0  0  0  0  0  0  0
   26.0770  -19.6286   -9.6692 C   0  0  0  0  0  0  0  0  0  0  0  0
   25.4526  -20.4785  -10.7225 C   0  0  2  0  0  0  0  0  0  0  0  0
   25.9556  -20.1098  -12.0384 N   0  0  0  0  0  0  0  0  0  0  0  0
   23.9811  -20.5882  -10.6818 C   0  0  0  0  0  0  0  0  0  0  0  0
   23.3391  -19.9972  -11.5966 O   0  0  0  0  0  0  0  0  0  0  0  0
   22.4705  -22.9712   -7.8344 O   0  0  0  0  0  0  0  0  0  0  0  0
   21.5023  -22.0881   -8.2995 C   0  0  0  0  0  0  0  0  0  0  0  0
   21.8994  -21.4558   -9.6194 C   0  0  2  0  0  0  0  0  0  0  0  0
   23.3308  -21.3245   -9.6561 N   0  0  0  0  0  0  0  0  0  0  0  0
   21.2006  -20.1699   -9.8422 C   0  0  0  0  0  0  0  0  0  0  0  0
   21.8433  -19.0905   -9.8416 O   0  0  0  0  0  0  0  0  0  0  0  0
   19.8345  -20.0720  -10.0596 O   0  0  0  0  0  0  0  0  0  0  0  0
  2  1  1  0
  3  4  1  0
  3  2  1  0
  4  5  1  0
  5  1  1  0
  5  6  1  1
  7  6  2  0
  9  8  1  1
  9 10  1  0
  9 11  1  0
 12 11  1  1
 12 13  1  0
 12 14  1  0
 13  6  1  0
 14 15  2  0
 17 16  1  0
 18 17  1  1
 19 14  1  0
 19 18  1  0
 20 18  1  0
 20 22  1  0
 21 20  2  0
M  END
$$$$
