PLS.pdb
     RDKit          3D

 22 22  0  0  1  0  0  0  0  0999 V2000
   23.2071  -21.1885   -9.9906 N   0  0  0  0  0  0  0  0  0  0  0  0
   23.4660  -21.3669   -8.5715 C   0  0  0  0  0  0  0  0  0  0  0  0
   24.7602  -20.5998   -8.4040 C   0  0  0  0  0  0  0  0  0  0  0  0
   24.5718  -19.3748   -9.2874 C   0  0  0  0  0  0  0  0  0  0  0  0
   23.4940  -19.7919  -10.2134 C   0  0  1  0  0  0  0  0  0  0  0  0
   23.7388  -19.4790  -11.6325 C   0  0  0  0  0  0  0  0  0  0  0  0
   23.7830  -18.2549  -11.9479 O   0  0  0  0  0  0  0  0  0  0  0  0
   27.9028  -20.6343  -13.9606 C   0  0  0  0  0  0  0  0  0  0  0  0
   26.4433  -20.7796  -13.4708 C   0  0  2  0  0  0  0  0  0  0  0  0
   26.2647  -22.2908  -13.3389 C   0  0  0  0  0  0  0  0  0  0  0  0
   25.4939  -20.2607  -14.4858 C   0  0  0  0  0  0  0  0  0  0  0  0
   24.0790  -20.0746  -14.0558 C   0  0  2  0  0  0  0  0  0  0  0  0
   23.9245  -20.4209  -12.6498 N   0  0  0  0  0  0  0  0  0  0  0  0
   23.0513  -20.6951  -14.9148 C   0  0  0  0  0  0  0  0  0  0  0  0
   23.2228  -20.6074  -16.1643 O   0  0  0  0  0  0  0  0  0  0  0  0
   20.2925  -23.4670  -13.6173 O   0  0  0  0  0  0  0  0  0  0  0  0
   20.4201  -23.1223  -14.9584 C   0  0  0  0  0  0  0  0  0  0  0  0
   20.7614  -21.6556  -15.1363 C   0  0  2  0  0  0  0  0  0  0  0  0
   21.9272  -21.3544  -14.3502 N   0  0  0  0  0  0  0  0  0  0  0  0
   19.6107  -20.7828  -14.8116 C   0  0  0  0  0  0  0  0  0  0  0  0
   19.7078  -19.9153  -13.9081 O   0  0  0  0  0  0  0  0  0  0  0  0
   18.3877  -20.8602  -15.4607 O   0  0  0  0  0  0  0  0  0  0  0  0
  2  1  1  0
  3  4  1  0
  3  2  1  0
  4  5  1  0
  5  1  1  0
  5  6  1  6
  7  6  2  0
  9  8  1  6
  9 10  1  0
  9 11  1  0
 12 11  1  6
 12 13  1  0
 12 14  1  0
 13  6  1  0
 14 15  2  0
 17 16  1  0
 18 17  1  1
 19 14  1  0
 19 18  1  0
 20 18  1  0
 20 22  1  0
 21 20  2  0
M  END
$$$$
