PLS.pdb
     RDKit          3D

 22 22  0  0  1  0  0  0  0  0999 V2000
   28.2277  -19.3546  -16.5930 N   0  0  0  0  0  0  0  0  0  0  0  0
   28.5989  -18.2131  -17.4125 C   0  0  0  0  0  0  0  0  0  0  0  0
   27.4545  -17.2613  -17.1370 C   0  0  0  0  0  0  0  0  0  0  0  0
   27.1865  -17.4384  -15.6493 C   0  0  0  0  0  0  0  0  0  0  0  0
   27.7972  -18.7547  -15.3531 C   0  0  1  0  0  0  0  0  0  0  0  0
   26.9623  -19.6582  -14.5417 C   0  0  0  0  0  0  0  0  0  0  0  0
   26.5060  -20.6867  -15.1195 O   0  0  0  0  0  0  0  0  0  0  0  0
   23.8241  -20.5583   -9.9556 C   0  0  0  0  0  0  0  0  0  0  0  0
   25.2470  -21.1479  -10.0940 C   0  0  2  0  0  0  0  0  0  0  0  0
   25.8025  -21.0649   -8.6736 C   0  0  0  0  0  0  0  0  0  0  0  0
   26.0775  -20.3111  -10.9947 C   0  0  0  0  0  0  0  0  0  0  0  0
   25.7439  -20.3440  -12.4470 C   0  0  2  0  0  0  0  0  0  0  0  0
   26.6372  -19.4698  -13.1943 N   0  0  0  0  0  0  0  0  0  0  0  0
   24.3231  -20.1416  -12.7925 C   0  0  0  0  0  0  0  0  0  0  0  0
   23.8682  -18.9680  -12.6736 O   0  0  0  0  0  0  0  0  0  0  0  0
   22.0058  -23.2901  -14.5193 O   0  0  0  0  0  0  0  0  0  0  0  0
   21.9799  -21.9607  -14.9261 C   0  0  0  0  0  0  0  0  0  0  0  0
   22.1982  -21.0089  -13.7660 C   0  0  2  0  0  0  0  0  0  0  0  0
   23.5167  -21.2241  -13.2342 N   0  0  0  0  0  0  0  0  0  0  0  0
   21.1385  -21.1434  -12.7411 C   0  0  0  0  0  0  0  0  0  0  0  0
   19.9364  -20.9354  -13.0407 O   0  0  0  0  0  0  0  0  0  0  0  0
   21.3917  -21.4965  -11.4242 O   0  0  0  0  0  0  0  0  0  0  0  0
  2  1  1  0
  3  4  1  0
  3  2  1  0
  4  5  1  0
  5  1  1  0
  5  6  1  6
  7  6  2  0
  9  8  1  1
  9 10  1  0
  9 11  1  0
 12 11  1  1
 12 13  1  0
 12 14  1  0
 13  6  1  0
 14 15  2  0
 17 16  1  0
 18 17  1  6
 19 14  1  0
 19 18  1  0
 20 18  1  0
 20 22  1  0
 21 20  2  0
M  END
$$$$
