PLS.pdb
     RDKit          3D

 22 22  0  0  1  0  0  0  0  0999 V2000
   31.2110  -21.3764   -9.8074 N   0  0  0  0  0  0  0  0  0  0  0  0
   32.5735  -21.8687   -9.9240 C   0  0  0  0  0  0  0  0  0  0  0  0
   32.7683  -22.5341   -8.5784 C   0  0  0  0  0  0  0  0  0  0  0  0
   31.4308  -23.2098   -8.3118 C   0  0  0  0  0  0  0  0  0  0  0  0
   30.5028  -22.4811   -9.2069 C   0  0  1  0  0  0  0  0  0  0  0  0
   29.2313  -22.0728   -8.5838 C   0  0  0  0  0  0  0  0  0  0  0  0
   28.4470  -22.9989   -8.2271 O   0  0  0  0  0  0  0  0  0  0  0  0
   28.0434  -20.9496   -4.6823 C   0  0  0  0  0  0  0  0  0  0  0  0
   28.6215  -19.8908   -5.6499 C   0  0  2  0  0  0  0  0  0  0  0  0
   28.8973  -18.6953   -4.7402 C   0  0  0  0  0  0  0  0  0  0  0  0
   27.6162  -19.5076   -6.6714 C   0  0  0  0  0  0  0  0  0  0  0  0
   27.5043  -20.3835   -7.8722 C   0  0  2  0  0  0  0  0  0  0  0  0
   28.8266  -20.7531   -8.3576 N   0  0  0  0  0  0  0  0  0  0  0  0
   26.6134  -19.9031   -8.9467 C   0  0  0  0  0  0  0  0  0  0  0  0
   26.8944  -18.7843   -9.4638 O   0  0  0  0  0  0  0  0  0  0  0  0
   25.6287  -22.0835  -11.8514 O   0  0  0  0  0  0  0  0  0  0  0  0
   25.4685  -20.7047  -11.7688 C   0  0  0  0  0  0  0  0  0  0  0  0
   24.7171  -20.2955  -10.5169 C   0  0  2  0  0  0  0  0  0  0  0  0
   25.4956  -20.6715   -9.3678 N   0  0  0  0  0  0  0  0  0  0  0  0
   23.3488  -20.8600  -10.4909 C   0  0  0  0  0  0  0  0  0  0  0  0
   22.9695  -21.5590   -9.5185 O   0  0  0  0  0  0  0  0  0  0  0  0
   22.4231  -20.6624  -11.5042 O   0  0  0  0  0  0  0  0  0  0  0  0
  2  1  1  0
  3  4  1  0
  3  2  1  0
  4  5  1  0
  5  1  1  0
  5  6  1  1
  7  6  2  0
  9  8  1  1
  9 10  1  0
  9 11  1  0
 12 11  1  1
 12 13  1  0
 12 14  1  0
 13  6  1  0
 14 15  2  0
 17 16  1  0
 18 17  1  6
 19 14  1  0
 19 18  1  0
 20 18  1  0
 20 22  1  0
 21 20  2  0
M  END
$$$$
