PLS.pdb
     RDKit          3D

 22 22  0  0  1  0  0  0  0  0999 V2000
   20.6148  -10.4728  -20.0959 N   0  0  0  0  0  0  0  0  0  0  0  0
   19.8967  -11.2682  -21.0778 C   0  0  0  0  0  0  0  0  0  0  0  0
   18.8732  -11.9662  -20.2080 C   0  0  0  0  0  0  0  0  0  0  0  0
   18.4469  -10.8920  -19.2177 C   0  0  0  0  0  0  0  0  0  0  0  0
   19.5643   -9.9216  -19.2741 C   0  0  1  0  0  0  0  0  0  0  0  0
   20.0501   -9.4569  -17.9627 C   0  0  0  0  0  0  0  0  0  0  0  0
   19.1945   -8.9410  -17.1870 O   0  0  0  0  0  0  0  0  0  0  0  0
   21.9060  -11.5305  -14.2844 C   0  0  0  0  0  0  0  0  0  0  0  0
   22.7766  -11.2623  -15.5340 C   0  0  2  0  0  0  0  0  0  0  0  0
   24.1094  -11.9204  -15.1828 C   0  0  0  0  0  0  0  0  0  0  0  0
   22.9850   -9.8061  -15.7269 C   0  0  0  0  0  0  0  0  0  0  0  0
   21.8247   -9.0177  -16.2304 C   0  0  2  0  0  0  0  0  0  0  0  0
   21.3716   -9.5406  -17.5118 N   0  0  0  0  0  0  0  0  0  0  0  0
   21.9887   -7.5507  -16.2362 C   0  0  0  0  0  0  0  0  0  0  0  0
   22.7122   -7.0607  -17.1499 O   0  0  0  0  0  0  0  0  0  0  0  0
   20.1598   -3.3090  -15.4633 O   0  0  0  0  0  0  0  0  0  0  0  0
   20.1286   -4.6974  -15.5327 C   0  0  0  0  0  0  0  0  0  0  0  0
   21.4905   -5.3088  -15.2662 C   0  0  2  0  0  0  0  0  0  0  0  0
   21.3592   -6.7407  -15.2540 N   0  0  0  0  0  0  0  0  0  0  0  0
   22.0943   -4.7787  -14.0229 C   0  0  0  0  0  0  0  0  0  0  0  0
   22.3823   -3.5596  -13.9274 O   0  0  0  0  0  0  0  0  0  0  0  0
   22.3741   -5.5651  -12.9155 O   0  0  0  0  0  0  0  0  0  0  0  0
  2  1  1  0
  3  4  1  0
  3  2  1  0
  4  5  1  0
  5  1  1  0
  5  6  1  1
  7  6  2  0
  9  8  1  1
  9 10  1  0
  9 11  1  0
 12 11  1  6
 12 13  1  0
 12 14  1  0
 13  6  1  0
 14 15  2  0
 17 16  1  0
 18 17  1  1
 19 14  1  0
 19 18  1  0
 20 18  1  0
 20 22  1  0
 21 20  2  0
M  END
$$$$
