PLS.pdb
     RDKit          3D

 22 22  0  0  1  0  0  0  0  0999 V2000
   19.3566  -11.7232  -18.3303 N   0  0  0  0  0  0  0  0  0  0  0  0
   18.2896  -12.6075  -18.7687 C   0  0  0  0  0  0  0  0  0  0  0  0
   18.0593  -13.4392  -17.5251 C   0  0  0  0  0  0  0  0  0  0  0  0
   18.1849  -12.4342  -16.3891 C   0  0  0  0  0  0  0  0  0  0  0  0
   18.9402  -11.3209  -17.0084 C   0  0  1  0  0  0  0  0  0  0  0  0
   20.0515  -10.7963  -16.1951 C   0  0  0  0  0  0  0  0  0  0  0  0
   19.7552  -10.3269  -15.0585 O   0  0  0  0  0  0  0  0  0  0  0  0
   23.3402  -12.7891  -14.1507 C   0  0  0  0  0  0  0  0  0  0  0  0
   23.5684  -12.4908  -15.6508 C   0  0  2  0  0  0  0  0  0  0  0  0
   24.9029  -13.1722  -15.9467 C   0  0  0  0  0  0  0  0  0  0  0  0
   23.7014  -11.0314  -15.8823 C   0  0  0  0  0  0  0  0  0  0  0  0
   22.4625  -10.2117  -15.7614 C   0  0  2  0  0  0  0  0  0  0  0  0
   21.3968  -10.7765  -16.5775 N   0  0  0  0  0  0  0  0  0  0  0  0
   22.6235   -8.7573  -15.9561 C   0  0  0  0  0  0  0  0  0  0  0  0
   22.9876   -8.3718  -17.1037 O   0  0  0  0  0  0  0  0  0  0  0  0
   21.1452   -4.7291  -16.3172 O   0  0  0  0  0  0  0  0  0  0  0  0
   21.2655   -6.0984  -16.1075 C   0  0  0  0  0  0  0  0  0  0  0  0
   22.3637   -6.4251  -15.1143 C   0  0  2  0  0  0  0  0  0  0  0  0
   22.3794   -7.8461  -14.8944 N   0  0  0  0  0  0  0  0  0  0  0  0
   22.2142   -5.6534  -13.8599 C   0  0  0  0  0  0  0  0  0  0  0  0
   22.4034   -4.4115  -13.8530 O   0  0  0  0  0  0  0  0  0  0  0  0
   21.8668   -6.2291  -12.6471 O   0  0  0  0  0  0  0  0  0  0  0  0
  2  1  1  0
  3  4  1  0
  3  2  1  0
  4  5  1  0
  5  1  1  0
  5  6  1  1
  7  6  2  0
  9  8  1  1
  9 10  1  0
  9 11  1  0
 12 11  1  6
 12 13  1  0
 12 14  1  0
 13  6  1  0
 14 15  2  0
 17 16  1  0
 18 17  1  6
 19 14  1  0
 19 18  1  0
 20 18  1  0
 20 22  1  0
 21 20  2  0
M  END
$$$$
