PLS.pdb
     RDKit          3D

 22 22  0  0  1  0  0  0  0  0999 V2000
   27.7136  -19.6135  -16.6231 N   0  0  0  0  0  0  0  0  0  0  0  0
   28.9706  -19.4820  -17.3408 C   0  0  0  0  0  0  0  0  0  0  0  0
   29.8326  -20.5000  -16.6253 C   0  0  0  0  0  0  0  0  0  0  0  0
   28.8859  -21.6659  -16.3780 C   0  0  0  0  0  0  0  0  0  0  0  0
   27.5480  -21.0410  -16.4907 C   0  0  1  0  0  0  0  0  0  0  0  0
   26.5990  -21.4089  -15.4250 C   0  0  0  0  0  0  0  0  0  0  0  0
   26.1206  -22.5792  -15.4655 O   0  0  0  0  0  0  0  0  0  0  0  0
   25.4330  -19.9774   -9.5973 C   0  0  0  0  0  0  0  0  0  0  0  0
   25.0358  -20.8848  -10.7849 C   0  0  2  0  0  0  0  0  0  0  0  0
   25.3906  -22.2862  -10.2917 C   0  0  0  0  0  0  0  0  0  0  0  0
   25.8492  -20.5669  -11.9843 C   0  0  0  0  0  0  0  0  0  0  0  0
   25.3054  -20.9972  -13.3037 C   0  0  2  0  0  0  0  0  0  0  0  0
   26.1888  -20.5732  -14.3810 N   0  0  0  0  0  0  0  0  0  0  0  0
   23.8894  -20.6695  -13.5615 C   0  0  0  0  0  0  0  0  0  0  0  0
   23.5914  -19.4431  -13.6347 O   0  0  0  0  0  0  0  0  0  0  0  0
   19.6439  -22.3517  -15.1658 O   0  0  0  0  0  0  0  0  0  0  0  0
   20.9965  -22.5239  -14.8930 C   0  0  0  0  0  0  0  0  0  0  0  0
   21.5543  -21.3900  -14.0548 C   0  0  2  0  0  0  0  0  0  0  0  0
   22.9182  -21.6943  -13.7159 N   0  0  0  0  0  0  0  0  0  0  0  0
   20.7143  -21.1246  -12.8650 C   0  0  0  0  0  0  0  0  0  0  0  0
   21.0142  -21.6254  -11.7526 O   0  0  0  0  0  0  0  0  0  0  0  0
   19.5771  -20.3317  -12.8959 O   0  0  0  0  0  0  0  0  0  0  0  0
  2  1  1  0
  3  4  1  0
  3  2  1  0
  4  5  1  0
  5  1  1  0
  5  6  1  1
  7  6  2  0
  9  8  1  1
  9 10  1  0
  9 11  1  0
 12 11  1  1
 12 13  1  0
 12 14  1  0
 13  6  1  0
 14 15  2  0
 17 16  1  0
 18 17  1  1
 19 14  1  0
 19 18  1  0
 20 18  1  0
 20 22  1  0
 21 20  2  0
M  END
$$$$
