PLS.pdb
     RDKit          3D

 22 22  0  0  1  0  0  0  0  0999 V2000
   22.0056  -11.8309  -19.2918 N   0  0  0  0  0  0  0  0  0  0  0  0
   21.4294  -13.0430  -19.8497 C   0  0  0  0  0  0  0  0  0  0  0  0
   21.2569  -13.8920  -18.6085 C   0  0  0  0  0  0  0  0  0  0  0  0
   20.7880  -12.9000  -17.5537 C   0  0  0  0  0  0  0  0  0  0  0  0
   21.2147  -11.5947  -18.1080 C   0  0  1  0  0  0  0  0  0  0  0  0
   21.8810  -10.6992  -17.1458 C   0  0  0  0  0  0  0  0  0  0  0  0
   21.2460  -10.4251  -16.0868 O   0  0  0  0  0  0  0  0  0  0  0  0
   25.6638  -11.2396  -14.8737 C   0  0  0  0  0  0  0  0  0  0  0  0
   25.8178  -10.6768  -16.3058 C   0  0  2  0  0  0  0  0  0  0  0  0
   27.3316  -10.5950  -16.4914 C   0  0  0  0  0  0  0  0  0  0  0  0
   25.2381   -9.3144  -16.4004 C   0  0  0  0  0  0  0  0  0  0  0  0
   23.7520   -9.2073  -16.3608 C   0  0  2  0  0  0  0  0  0  0  0  0
   23.1496  -10.1331  -17.3098 N   0  0  0  0  0  0  0  0  0  0  0  0
   23.1955   -7.8436  -16.4589 C   0  0  0  0  0  0  0  0  0  0  0  0
   23.2230   -7.2964  -17.5983 O   0  0  0  0  0  0  0  0  0  0  0  0
   19.9074   -6.6087  -14.8247 O   0  0  0  0  0  0  0  0  0  0  0  0
   20.6599   -5.9445  -15.7870 C   0  0  0  0  0  0  0  0  0  0  0  0
   22.1236   -5.8570  -15.4007 C   0  0  2  0  0  0  0  0  0  0  0  0
   22.6596   -7.1888  -15.3182 N   0  0  0  0  0  0  0  0  0  0  0  0
   22.3148   -5.0847  -14.1523 C   0  0  0  0  0  0  0  0  0  0  0  0
   22.8281   -5.6281  -13.1427 O   0  0  0  0  0  0  0  0  0  0  0  0
   21.9525   -3.7530  -14.0164 O   0  0  0  0  0  0  0  0  0  0  0  0
  2  1  1  0
  3  4  1  0
  3  2  1  0
  4  5  1  0
  5  1  1  0
  5  6  1  1
  7  6  2  0
  9  8  1  1
  9 10  1  0
  9 11  1  0
 12 11  1  6
 12 13  1  0
 12 14  1  0
 13  6  1  0
 14 15  2  0
 17 16  1  0
 18 17  1  1
 19 14  1  0
 19 18  1  0
 20 18  1  0
 20 22  1  0
 21 20  2  0
M  END
$$$$
