PLS.pdb
     RDKit          3D

 22 22  0  0  1  0  0  0  0  0999 V2000
   21.0731  -11.5221  -19.0990 N   0  0  0  0  0  0  0  0  0  0  0  0
   20.5148  -12.7163  -19.7111 C   0  0  0  0  0  0  0  0  0  0  0  0
   20.4628  -13.6623  -18.5305 C   0  0  0  0  0  0  0  0  0  0  0  0
   20.0223  -12.7751  -17.3749 C   0  0  0  0  0  0  0  0  0  0  0  0
   20.3532  -11.4130  -17.8529 C   0  0  1  0  0  0  0  0  0  0  0  0
   21.0423  -10.5597  -16.8687 C   0  0  0  0  0  0  0  0  0  0  0  0
   20.4267  -10.3212  -15.7897 O   0  0  0  0  0  0  0  0  0  0  0  0
   24.5703  -10.9102  -14.0389 C   0  0  0  0  0  0  0  0  0  0  0  0
   24.8260  -10.7140  -15.5513 C   0  0  2  0  0  0  0  0  0  0  0  0
   26.3445  -10.8274  -15.6697 C   0  0  0  0  0  0  0  0  0  0  0  0
   24.4003   -9.3607  -15.9853 C   0  0  0  0  0  0  0  0  0  0  0  0
   22.9340   -9.1053  -16.0631 C   0  0  2  0  0  0  0  0  0  0  0  0
   22.3126   -9.9975  -17.0320 N   0  0  0  0  0  0  0  0  0  0  0  0
   22.5275   -7.6971  -16.2383 C   0  0  0  0  0  0  0  0  0  0  0  0
   22.7094   -7.1884  -17.3813 O   0  0  0  0  0  0  0  0  0  0  0  0
   19.4080   -6.1410  -16.3045 O   0  0  0  0  0  0  0  0  0  0  0  0
   20.0321   -5.5325  -15.2210 C   0  0  0  0  0  0  0  0  0  0  0  0
   21.5433   -5.5945  -15.3295 C   0  0  2  0  0  0  0  0  0  0  0  0
   21.9622   -6.9601  -15.1638 N   0  0  0  0  0  0  0  0  0  0  0  0
   22.1987   -4.6746  -14.3725 C   0  0  0  0  0  0  0  0  0  0  0  0
   22.8706   -5.1301  -13.4137 O   0  0  0  0  0  0  0  0  0  0  0  0
   22.1188   -3.2934  -14.4659 O   0  0  0  0  0  0  0  0  0  0  0  0
  2  1  1  0
  3  4  1  0
  3  2  1  0
  4  5  1  0
  5  1  1  0
  5  6  1  1
  7  6  2  0
  9  8  1  1
  9 10  1  0
  9 11  1  0
 12 11  1  6
 12 13  1  0
 12 14  1  0
 13  6  1  0
 14 15  2  0
 17 16  1  0
 18 17  1  1
 19 14  1  0
 19 18  1  0
 20 18  1  0
 20 22  1  0
 21 20  2  0
M  END
$$$$
