FFH.pdb
     RDKit          3D

 33 35  0  0  1  0  0  0  0  0999 V2000
   41.2458   -9.5326   -5.6931 N   0  0  0  0  0  0  0  0  0  0  0  0
   40.7400  -10.4360   -6.6847 C   0  0  1  0  0  0  0  0  0  0  0  0
   40.1150   -9.6856   -7.8649 C   0  0  0  0  0  0  0  0  0  0  0  0
   38.9063   -8.9460   -7.3994 C   0  0  0  0  0  0  0  0  0  0  0  0
   37.9032   -9.5650   -6.6814 C   0  0  0  0  0  0  0  0  0  0  0  0
   36.7732   -8.8761   -6.2459 C   0  0  0  0  0  0  0  0  0  0  0  0
   36.6298   -7.5507   -6.5240 C   0  0  0  0  0  0  0  0  0  0  0  0
   37.6089   -6.9060   -7.2357 C   0  0  0  0  0  0  0  0  0  0  0  0
   38.7409   -7.6030   -7.6702 C   0  0  0  0  0  0  0  0  0  0  0  0
   41.7220  -11.4270   -7.1319 C   0  0  0  0  0  0  0  0  0  0  0  0
   42.9567  -11.1040   -7.2208 O   0  0  0  0  0  0  0  0  0  0  0  0
   41.4113  -12.7604   -7.4872 N   0  0  0  0  0  0  0  0  0  0  0  0
   42.4101  -13.6956   -7.9946 C   0  0  1  0  0  0  0  0  0  0  0  0
   41.9909  -15.1181   -7.7882 C   0  0  0  0  0  0  0  0  0  0  0  0
   42.8392  -16.1266   -8.3878 C   0  0  0  0  0  0  0  0  0  0  0  0
   44.0448  -16.5412   -7.8181 C   0  0  0  0  0  0  0  0  0  0  0  0
   44.7969  -17.5010   -8.4360 C   0  0  0  0  0  0  0  0  0  0  0  0
   44.3690  -18.0640   -9.6240 C   0  0  0  0  0  0  0  0  0  0  0  0
   43.1949  -17.6799  -10.2059 C   0  0  0  0  0  0  0  0  0  0  0  0
   42.4403  -16.7085   -9.5743 C   0  0  0  0  0  0  0  0  0  0  0  0
   42.7774  -13.3731   -9.3958 C   0  0  0  0  0  0  0  0  0  0  0  0
   41.9794  -12.8594  -10.2163 O   0  0  0  0  0  0  0  0  0  0  0  0
   44.1145  -13.6402   -9.9096 N   0  0  0  0  0  0  0  0  0  0  0  0
   44.4858  -13.2268  -11.2266 C   0  0  1  0  0  0  0  0  0  0  0  0
   44.4527  -11.7429  -11.3491 C   0  0  0  0  0  0  0  0  0  0  0  0
   44.8604  -11.2150  -12.6574 C   0  0  0  0  0  0  0  0  0  0  0  0
   44.8587  -11.7524  -13.9085 C   0  0  0  0  0  0  0  0  0  0  0  0
   45.3121  -10.8109  -14.7794 N   0  0  0  0  0  0  0  0  0  0  0  0
   45.5854   -9.7178  -14.0748 C   0  0  0  0  0  0  0  0  0  0  0  0
   45.3255   -9.9192  -12.7821 N   0  0  0  0  0  0  0  0  0  0  0  0
   45.7921  -13.8022  -11.6815 C   0  0  0  0  0  0  0  0  0  0  0  0
   46.4058  -14.8609  -11.0554 O   0  0  0  0  0  0  0  0  0  0  0  0
   46.3236  -13.2690  -12.6862 O   0  0  0  0  0  0  0  0  0  0  0  0
  2  1  1  1
  3  4  1  0
  3  2  1  0
  4  5  2  0
  5  6  1  0
  7  6  2  0
  8  7  1  0
  9  8  2  0
  9  4  1  0
 10  2  1  0
 10 11  2  0
 12 10  1  0
 13 12  1  0
 13 14  1  6
 15 14  1  0
 15 20  1  0
 16 15  2  0
 17 16  1  0
 17 18  2  0
 18 19  1  0
 19 20  2  0
 21 13  1  0
 22 21  2  0
 23 21  1  0
 24 23  1  0
 24 25  1  1
 25 26  1  0
 26 30  1  0
 26 27  2  0
 27 28  1  0
 28 29  1  0
 30 29  2  0
 31 24  1  0
 32 31  1  0
 33 31  2  0
M  END
$$$$
