FFH.pdb
     RDKit          3D

 33 35  0  0  1  0  0  0  0  0999 V2000
   26.2812  -21.7518  -13.5175 N   0  0  0  0  0  0  0  0  0  0  0  0
   25.8684  -20.6994  -12.6361 C   0  0  1  0  0  0  0  0  0  0  0  0
   24.4271  -20.2622  -12.9158 C   0  0  0  0  0  0  0  0  0  0  0  0
   24.3386  -19.6938  -14.2919 C   0  0  0  0  0  0  0  0  0  0  0  0
   24.8399  -18.4453  -14.5997 C   0  0  0  0  0  0  0  0  0  0  0  0
   24.7580  -17.9123  -15.8843 C   0  0  0  0  0  0  0  0  0  0  0  0
   24.1700  -18.6247  -16.8849 C   0  0  0  0  0  0  0  0  0  0  0  0
   23.6618  -19.8688  -16.6120 C   0  0  0  0  0  0  0  0  0  0  0  0
   23.7470  -20.3985  -15.3204 C   0  0  0  0  0  0  0  0  0  0  0  0
   26.0761  -21.0052  -11.2184 C   0  0  0  0  0  0  0  0  0  0  0  0
   25.8222  -22.1788  -10.7768 O   0  0  0  0  0  0  0  0  0  0  0  0
   26.5510  -20.0803  -10.2594 N   0  0  0  0  0  0  0  0  0  0  0  0
   26.6469  -20.3959   -8.8378 C   0  0  1  0  0  0  0  0  0  0  0  0
   27.7360  -19.6147   -8.1704 C   0  0  0  0  0  0  0  0  0  0  0  0
   27.8576  -19.7854   -6.7377 C   0  0  0  0  0  0  0  0  0  0  0  0
   28.3575  -20.9501   -6.1516 C   0  0  0  0  0  0  0  0  0  0  0  0
   28.4480  -21.0443   -4.7909 C   0  0  0  0  0  0  0  0  0  0  0  0
   28.0463  -19.9906   -3.9911 C   0  0  0  0  0  0  0  0  0  0  0  0
   27.5532  -18.8387   -4.5341 C   0  0  0  0  0  0  0  0  0  0  0  0
   27.4651  -18.7517   -5.9112 C   0  0  0  0  0  0  0  0  0  0  0  0
   25.3247  -20.2732   -8.1753 C   0  0  0  0  0  0  0  0  0  0  0  0
   24.6220  -19.2352   -8.2270 O   0  0  0  0  0  0  0  0  0  0  0  0
   24.7549  -21.3749   -7.4106 N   0  0  0  0  0  0  0  0  0  0  0  0
   23.3658  -21.3870   -7.0735 C   0  0  1  0  0  0  0  0  0  0  0  0
   22.5367  -21.7909   -8.2428 C   0  0  0  0  0  0  0  0  0  0  0  0
   21.0984  -21.9168   -7.9748 C   0  0  0  0  0  0  0  0  0  0  0  0
   20.3754  -22.7872   -7.2174 C   0  0  0  0  0  0  0  0  0  0  0  0
   19.0645  -22.4312   -7.2898 N   0  0  0  0  0  0  0  0  0  0  0  0
   18.9867  -21.3626   -8.0761 C   0  0  0  0  0  0  0  0  0  0  0  0
   20.1984  -21.0165   -8.5136 N   0  0  0  0  0  0  0  0  0  0  0  0
   23.0595  -22.2030   -5.8549 C   0  0  0  0  0  0  0  0  0  0  0  0
   22.1144  -21.8398   -4.9251 O   0  0  0  0  0  0  0  0  0  0  0  0
   23.7146  -23.2637   -5.7075 O   0  0  0  0  0  0  0  0  0  0  0  0
  2  1  1  6
  3  4  1  0
  3  2  1  0
  4  5  2  0
  5  6  1  0
  7  6  2  0
  8  7  1  0
  9  8  2  0
  9  4  1  0
 10  2  1  0
 10 11  2  0
 12 10  1  0
 13 12  1  0
 13 14  1  1
 15 14  1  0
 15 20  1  0
 16 15  2  0
 17 16  1  0
 17 18  2  0
 18 19  1  0
 19 20  2  0
 21 13  1  0
 22 21  2  0
 23 21  1  0
 24 23  1  0
 24 25  1  6
 25 26  1  0
 26 30  1  0
 26 27  2  0
 27 28  1  0
 28 29  1  0
 30 29  2  0
 31 24  1  0
 32 31  1  0
 33 31  2  0
M  END
$$$$
