FFH.pdb
     RDKit          3D

 33 35  0  0  1  0  0  0  0  0999 V2000
   30.4133  -30.3936  -17.2452 N   0  0  0  0  0  0  0  0  0  0  0  0
   29.1643  -30.5499  -17.9312 C   0  0  1  0  0  0  0  0  0  0  0  0
   28.8106  -32.0272  -18.1291 C   0  0  0  0  0  0  0  0  0  0  0  0
   29.6287  -32.5891  -19.2424 C   0  0  0  0  0  0  0  0  0  0  0  0
   30.7426  -33.3696  -19.0080 C   0  0  0  0  0  0  0  0  0  0  0  0
   31.5085  -33.8952  -20.0463 C   0  0  0  0  0  0  0  0  0  0  0  0
   31.1689  -33.6462  -21.3414 C   0  0  0  0  0  0  0  0  0  0  0  0
   30.0675  -32.8741  -21.6084 C   0  0  0  0  0  0  0  0  0  0  0  0
   29.3027  -32.3492  -20.5617 C   0  0  0  0  0  0  0  0  0  0  0  0
   28.0606  -29.8061  -17.3188 C   0  0  0  0  0  0  0  0  0  0  0  0
   28.0847  -29.5488  -16.0658 O   0  0  0  0  0  0  0  0  0  0  0  0
   26.9280  -29.3299  -18.0195 N   0  0  0  0  0  0  0  0  0  0  0  0
   25.8864  -28.5285  -17.3851 C   0  0  1  0  0  0  0  0  0  0  0  0
   25.7837  -27.1676  -18.0009 C   0  0  0  0  0  0  0  0  0  0  0  0
   26.8032  -26.2144  -17.6157 C   0  0  0  0  0  0  0  0  0  0  0  0
   28.1386  -26.3312  -18.0072 C   0  0  0  0  0  0  0  0  0  0  0  0
   29.0503  -25.3934  -17.6100 C   0  0  0  0  0  0  0  0  0  0  0  0
   28.6563  -24.3284  -16.8213 C   0  0  0  0  0  0  0  0  0  0  0  0
   27.3581  -24.1866  -16.4222 C   0  0  0  0  0  0  0  0  0  0  0  0
   26.4423  -25.1395  -16.8284 C   0  0  0  0  0  0  0  0  0  0  0  0
   24.6003  -29.2676  -17.3392 C   0  0  0  0  0  0  0  0  0  0  0  0
   24.1856  -29.9872  -18.2795 O   0  0  0  0  0  0  0  0  0  0  0  0
   23.7273  -29.1983  -16.1748 N   0  0  0  0  0  0  0  0  0  0  0  0
   22.4631  -29.8655  -16.1703 C   0  0  1  0  0  0  0  0  0  0  0  0
   21.9114  -29.9536  -14.7897 C   0  0  0  0  0  0  0  0  0  0  0  0
   20.6700  -30.7275  -14.6615 C   0  0  0  0  0  0  0  0  0  0  0  0
   20.0031  -31.5476  -15.5199 C   0  0  0  0  0  0  0  0  0  0  0  0
   18.9117  -32.0437  -14.8772 N   0  0  0  0  0  0  0  0  0  0  0  0
   18.9110  -31.5375  -13.6484 C   0  0  0  0  0  0  0  0  0  0  0  0
   19.9610  -30.7332  -13.4749 N   0  0  0  0  0  0  0  0  0  0  0  0
   21.4796  -29.2770  -17.1352 C   0  0  0  0  0  0  0  0  0  0  0  0
   20.7500  -30.0343  -18.0205 O   0  0  0  0  0  0  0  0  0  0  0  0
   21.3389  -28.0298  -17.1063 O   0  0  0  0  0  0  0  0  0  0  0  0
  2  1  1  1
  3  4  1  0
  3  2  1  0
  4  5  2  0
  5  6  1  0
  7  6  2  0
  8  7  1  0
  9  8  2  0
  9  4  1  0
 10  2  1  0
 10 11  2  0
 12 10  1  0
 13 12  1  0
 13 14  1  6
 15 14  1  0
 15 20  1  0
 16 15  2  0
 17 16  1  0
 17 18  2  0
 18 19  1  0
 19 20  2  0
 21 13  1  0
 22 21  2  0
 23 21  1  0
 24 23  1  0
 24 25  1  1
 25 26  1  0
 26 30  1  0
 26 27  2  0
 27 28  1  0
 28 29  1  0
 30 29  2  0
 31 24  1  0
 32 31  1  0
 33 31  2  0
M  END
$$$$
