FFH.pdb
     RDKit          3D

 33 35  0  0  1  0  0  0  0  0999 V2000
   21.1531  -20.6318  -20.7523 N   0  0  0  0  0  0  0  0  0  0  0  0
   19.7549  -20.8606  -20.9710 C   0  0  1  0  0  0  0  0  0  0  0  0
   19.2227  -21.9902  -20.0837 C   0  0  0  0  0  0  0  0  0  0  0  0
   19.1775  -23.2584  -20.8674 C   0  0  0  0  0  0  0  0  0  0  0  0
   20.2636  -24.1064  -20.9471 C   0  0  0  0  0  0  0  0  0  0  0  0
   20.2237  -25.2912  -21.6789 C   0  0  0  0  0  0  0  0  0  0  0  0
   19.0905  -25.6467  -22.3452 C   0  0  0  0  0  0  0  0  0  0  0  0
   17.9936  -24.8258  -22.2863 C   0  0  0  0  0  0  0  0  0  0  0  0
   18.0397  -23.6375  -21.5500 C   0  0  0  0  0  0  0  0  0  0  0  0
   18.9368  -19.6507  -20.8564 C   0  0  0  0  0  0  0  0  0  0  0  0
   19.3694  -18.6513  -20.1849 O   0  0  0  0  0  0  0  0  0  0  0  0
   17.6618  -19.4856  -21.4463 N   0  0  0  0  0  0  0  0  0  0  0  0
   16.9217  -18.2292  -21.3883 C   0  0  1  0  0  0  0  0  0  0  0  0
   16.7853  -17.6049  -22.7424 C   0  0  0  0  0  0  0  0  0  0  0  0
   17.9387  -16.8772  -23.2285 C   0  0  0  0  0  0  0  0  0  0  0  0
   18.8952  -17.4460  -24.0721 C   0  0  0  0  0  0  0  0  0  0  0  0
   19.9597  -16.7010  -24.4966 C   0  0  0  0  0  0  0  0  0  0  0  0
   20.0943  -15.3852  -24.0942 C   0  0  0  0  0  0  0  0  0  0  0  0
   19.1760  -14.8006  -23.2698 C   0  0  0  0  0  0  0  0  0  0  0  0
   18.1022  -15.5611  -22.8451 C   0  0  0  0  0  0  0  0  0  0  0  0
   15.6333  -18.4033  -20.6727 C   0  0  0  0  0  0  0  0  0  0  0  0
   14.8686  -19.3803  -20.8587 O   0  0  0  0  0  0  0  0  0  0  0  0
   15.1731  -17.4288  -19.6921 N   0  0  0  0  0  0  0  0  0  0  0  0
   13.9261  -17.6071  -19.0163 C   0  0  1  0  0  0  0  0  0  0  0  0
   13.7839  -16.6376  -17.8947 C   0  0  0  0  0  0  0  0  0  0  0  0
   12.5741  -16.8002  -17.0784 C   0  0  0  0  0  0  0  0  0  0  0  0
   11.5171  -17.6548  -17.1584 C   0  0  0  0  0  0  0  0  0  0  0  0
   10.6789  -17.3975  -16.1183 N   0  0  0  0  0  0  0  0  0  0  0  0
   11.2131  -16.4048  -15.4147 C   0  0  0  0  0  0  0  0  0  0  0  0
   12.3644  -16.0121  -15.9623 N   0  0  0  0  0  0  0  0  0  0  0  0
   12.7448  -17.5826  -19.9374 C   0  0  0  0  0  0  0  0  0  0  0  0
   11.6564  -18.4084  -19.7860 O   0  0  0  0  0  0  0  0  0  0  0  0
   12.7829  -16.7556  -20.8812 O   0  0  0  0  0  0  0  0  0  0  0  0
  2  1  1  1
  3  4  1  0
  3  2  1  0
  4  5  2  0
  5  6  1  0
  7  6  2  0
  8  7  1  0
  9  8  2  0
  9  4  1  0
 10  2  1  0
 10 11  2  0
 12 10  1  0
 13 12  1  0
 13 14  1  6
 15 14  1  0
 15 20  1  0
 16 15  2  0
 17 16  1  0
 17 18  2  0
 18 19  1  0
 19 20  2  0
 21 13  1  0
 22 21  2  0
 23 21  1  0
 24 23  1  0
 24 25  1  1
 25 26  1  0
 26 30  1  0
 26 27  2  0
 27 28  1  0
 28 29  1  0
 30 29  2  0
 31 24  1  0
 32 31  1  0
 33 31  2  0
M  END
$$$$
