FFH.pdb
     RDKit          3D

 33 35  0  0  1  0  0  0  0  0999 V2000
   14.0504   -1.1608   -6.8699 N   0  0  0  0  0  0  0  0  0  0  0  0
   15.3468   -0.5934   -7.0987 C   0  0  1  0  0  0  0  0  0  0  0  0
   15.3672    0.2768   -8.3592 C   0  0  0  0  0  0  0  0  0  0  0  0
   15.0984   -0.5738   -9.5545 C   0  0  0  0  0  0  0  0  0  0  0  0
   13.8621   -0.6018  -10.1675 C   0  0  0  0  0  0  0  0  0  0  0  0
   13.6087   -1.3959  -11.2838 C   0  0  0  0  0  0  0  0  0  0  0  0
   14.5940   -2.1776  -11.8059 C   0  0  0  0  0  0  0  0  0  0  0  0
   15.8340   -2.1726  -11.2201 C   0  0  0  0  0  0  0  0  0  0  0  0
   16.0822   -1.3734  -10.0995 C   0  0  0  0  0  0  0  0  0  0  0  0
   15.8887    0.1200   -5.9393 C   0  0  0  0  0  0  0  0  0  0  0  0
   15.1767    1.0010   -5.3446 O   0  0  0  0  0  0  0  0  0  0  0  0
   17.1796   -0.0891   -5.4003 N   0  0  0  0  0  0  0  0  0  0  0  0
   17.6867    0.6572   -4.2533 C   0  0  1  0  0  0  0  0  0  0  0  0
   18.2466   -0.2536   -3.2050 C   0  0  0  0  0  0  0  0  0  0  0  0
   18.8495    0.3900   -2.0567 C   0  0  0  0  0  0  0  0  0  0  0  0
   20.1875    0.7886   -2.0252 C   0  0  0  0  0  0  0  0  0  0  0  0
   20.6928    1.3941   -0.9087 C   0  0  0  0  0  0  0  0  0  0  0  0
   19.8845    1.6141    0.1911 C   0  0  0  0  0  0  0  0  0  0  0  0
   18.5723    1.2360    0.1910 C   0  0  0  0  0  0  0  0  0  0  0  0
   18.0692    0.6242   -0.9423 C   0  0  0  0  0  0  0  0  0  0  0  0
   18.6218    1.7256   -4.6850 C   0  0  0  0  0  0  0  0  0  0  0  0
   19.4099    1.6013   -5.6532 O   0  0  0  0  0  0  0  0  0  0  0  0
   18.6792    3.0073   -3.9944 N   0  0  0  0  0  0  0  0  0  0  0  0
   19.4779    4.0766   -4.5064 C   0  0  1  0  0  0  0  0  0  0  0  0
   19.0616    4.4382   -5.8899 C   0  0  0  0  0  0  0  0  0  0  0  0
   19.7736    5.5799   -6.4780 C   0  0  0  0  0  0  0  0  0  0  0  0
   20.8011    6.3537   -6.0313 C   0  0  0  0  0  0  0  0  0  0  0  0
   21.1035    7.2629   -6.9969 N   0  0  0  0  0  0  0  0  0  0  0  0
   20.2772    7.0491   -8.0156 C   0  0  0  0  0  0  0  0  0  0  0  0
   19.4532    6.0363   -7.7429 N   0  0  0  0  0  0  0  0  0  0  0  0
   19.5225    5.2687   -3.6001 C   0  0  0  0  0  0  0  0  0  0  0  0
   18.4874    5.6177   -2.7657 O   0  0  0  0  0  0  0  0  0  0  0  0
   20.5706    5.9593   -3.6283 O   0  0  0  0  0  0  0  0  0  0  0  0
  2  1  1  1
  3  4  1  0
  3  2  1  0
  4  5  2  0
  5  6  1  0
  7  6  2  0
  8  7  1  0
  9  8  2  0
  9  4  1  0
 10  2  1  0
 10 11  2  0
 12 10  1  0
 13 12  1  0
 13 14  1  1
 15 14  1  0
 15 20  1  0
 16 15  2  0
 17 16  1  0
 17 18  2  0
 18 19  1  0
 19 20  2  0
 21 13  1  0
 22 21  2  0
 23 21  1  0
 24 23  1  0
 24 25  1  6
 25 26  1  0
 26 30  1  0
 26 27  2  0
 27 28  1  0
 28 29  1  0
 30 29  2  0
 31 24  1  0
 32 31  1  0
 33 31  2  0
M  END
$$$$
