FFH.pdb
     RDKit          3D

 33 35  0  0  1  0  0  0  0  0999 V2000
   15.6513  -20.1232  -22.7421 N   0  0  0  0  0  0  0  0  0  0  0  0
   15.5150  -19.2639  -21.6028 C   0  0  1  0  0  0  0  0  0  0  0  0
   14.1611  -18.5472  -21.5957 C   0  0  0  0  0  0  0  0  0  0  0  0
   14.0754  -17.6357  -22.7731 C   0  0  0  0  0  0  0  0  0  0  0  0
   14.6541  -16.3827  -22.7700 C   0  0  0  0  0  0  0  0  0  0  0  0
   14.5749  -15.5295  -23.8685 C   0  0  0  0  0  0  0  0  0  0  0  0
   13.9120  -15.9198  -24.9922 C   0  0  0  0  0  0  0  0  0  0  0  0
   13.3257  -17.1590  -25.0275 C   0  0  0  0  0  0  0  0  0  0  0  0
   13.4086  -18.0111  -23.9215 C   0  0  0  0  0  0  0  0  0  0  0  0
   15.7799  -19.9336  -20.3269 C   0  0  0  0  0  0  0  0  0  0  0  0
   15.2446  -21.0693  -20.0812 O   0  0  0  0  0  0  0  0  0  0  0  0
   16.6077  -19.4135  -19.3047 N   0  0  0  0  0  0  0  0  0  0  0  0
   16.8389  -20.1116  -18.0441 C   0  0  1  0  0  0  0  0  0  0  0  0
   18.2971  -20.1853  -17.7124 C   0  0  0  0  0  0  0  0  0  0  0  0
   19.1255  -20.9277  -18.6392 C   0  0  0  0  0  0  0  0  0  0  0  0
   19.6708  -20.3601  -19.7927 C   0  0  0  0  0  0  0  0  0  0  0  0
   20.4472  -21.1177  -20.6243 C   0  0  0  0  0  0  0  0  0  0  0  0
   20.6956  -22.4452  -20.3286 C   0  0  0  0  0  0  0  0  0  0  0  0
   20.1767  -23.0290  -19.2085 C   0  0  0  0  0  0  0  0  0  0  0  0
   19.3925  -22.2556  -18.3727 C   0  0  0  0  0  0  0  0  0  0  0  0
   16.0023  -19.5414  -16.9591 C   0  0  0  0  0  0  0  0  0  0  0  0
   16.2039  -18.4098  -16.4562 O   0  0  0  0  0  0  0  0  0  0  0  0
   14.8750  -20.2789  -16.4040 N   0  0  0  0  0  0  0  0  0  0  0  0
   14.0468  -19.6951  -15.3957 C   0  0  1  0  0  0  0  0  0  0  0  0
   12.6050  -19.8412  -15.7392 C   0  0  0  0  0  0  0  0  0  0  0  0
   11.6686  -19.2933  -14.7495 C   0  0  0  0  0  0  0  0  0  0  0  0
   10.9759  -18.1227  -14.6864 C   0  0  0  0  0  0  0  0  0  0  0  0
   10.2158  -18.1353  -13.5584 N   0  0  0  0  0  0  0  0  0  0  0  0
   10.4384  -19.2921  -12.9432 C   0  0  0  0  0  0  0  0  0  0  0  0
   11.3139  -20.0257  -13.6321 N   0  0  0  0  0  0  0  0  0  0  0  0
   14.3523  -20.1939  -14.0165 C   0  0  0  0  0  0  0  0  0  0  0  0
   14.1826  -19.4302  -12.8862 O   0  0  0  0  0  0  0  0  0  0  0  0
   14.7809  -21.3704  -13.9247 O   0  0  0  0  0  0  0  0  0  0  0  0
  2  1  1  6
  3  4  1  0
  3  2  1  0
  4  5  2  0
  5  6  1  0
  7  6  2  0
  8  7  1  0
  9  8  2  0
  9  4  1  0
 10  2  1  0
 10 11  2  0
 12 10  1  0
 13 12  1  0
 13 14  1  1
 15 14  1  0
 15 20  1  0
 16 15  2  0
 17 16  1  0
 17 18  2  0
 18 19  1  0
 19 20  2  0
 21 13  1  0
 22 21  2  0
 23 21  1  0
 24 23  1  0
 24 25  1  6
 25 26  1  0
 26 30  1  0
 26 27  2  0
 27 28  1  0
 28 29  1  0
 30 29  2  0
 31 24  1  0
 32 31  1  0
 33 31  2  0
M  END
$$$$
