FFH.pdb
     RDKit          3D

 33 35  0  0  1  0  0  0  0  0999 V2000
   24.5721  -20.4584  -17.9742 N   0  0  0  0  0  0  0  0  0  0  0  0
   23.6656  -19.6344  -17.2297 C   0  0  1  0  0  0  0  0  0  0  0  0
   22.4635  -19.2088  -18.0785 C   0  0  0  0  0  0  0  0  0  0  0  0
   22.9211  -18.2960  -19.1657 C   0  0  0  0  0  0  0  0  0  0  0  0
   23.0951  -18.7351  -20.4626 C   0  0  0  0  0  0  0  0  0  0  0  0
   23.5229  -17.8843  -21.4795 C   0  0  0  0  0  0  0  0  0  0  0  0
   23.7841  -16.5748  -21.2121 C   0  0  0  0  0  0  0  0  0  0  0  0
   23.6211  -16.1069  -19.9334 C   0  0  0  0  0  0  0  0  0  0  0  0
   23.1914  -16.9659  -18.9167 C   0  0  0  0  0  0  0  0  0  0  0  0
   23.2472  -20.2241  -15.9555 C   0  0  0  0  0  0  0  0  0  0  0  0
   23.1021  -21.4915  -15.8581 O   0  0  0  0  0  0  0  0  0  0  0  0
   22.9800  -19.4856  -14.7791 N   0  0  0  0  0  0  0  0  0  0  0  0
   22.5348  -20.1111  -13.5381 C   0  0  1  0  0  0  0  0  0  0  0  0
   22.8886  -19.2814  -12.3429 C   0  0  0  0  0  0  0  0  0  0  0  0
   22.4789  -19.8071  -11.0575 C   0  0  0  0  0  0  0  0  0  0  0  0
   21.2410  -19.5191  -10.4790 C   0  0  0  0  0  0  0  0  0  0  0  0
   20.9162  -20.0512   -9.2626 C   0  0  0  0  0  0  0  0  0  0  0  0
   21.8087  -20.8744   -8.6012 C   0  0  0  0  0  0  0  0  0  0  0  0
   23.0267  -21.1747   -9.1407 C   0  0  0  0  0  0  0  0  0  0  0  0
   23.3473  -20.6323  -10.3715 C   0  0  0  0  0  0  0  0  0  0  0  0
   21.0989  -20.4784  -13.6128 C   0  0  0  0  0  0  0  0  0  0  0  0
   20.2134  -19.7094  -14.0583 O   0  0  0  0  0  0  0  0  0  0  0  0
   20.6254  -21.7811  -13.1634 N   0  0  0  0  0  0  0  0  0  0  0  0
   19.2295  -22.0892  -13.1626 C   0  0  1  0  0  0  0  0  0  0  0  0
   18.9526  -23.3111  -13.9679 C   0  0  0  0  0  0  0  0  0  0  0  0
   18.9473  -23.1121  -15.4229 C   0  0  0  0  0  0  0  0  0  0  0  0
   19.1388  -22.0125  -16.2028 C   0  0  0  0  0  0  0  0  0  0  0  0
   19.0621  -22.3936  -17.5064 N   0  0  0  0  0  0  0  0  0  0  0  0
   18.8289  -23.7018  -17.5240 C   0  0  0  0  0  0  0  0  0  0  0  0
   18.7521  -24.1785  -16.2805 N   0  0  0  0  0  0  0  0  0  0  0  0
   18.6428  -22.1744  -11.7868 C   0  0  0  0  0  0  0  0  0  0  0  0
   17.5251  -21.4731  -11.4015 O   0  0  0  0  0  0  0  0  0  0  0  0
   19.2237  -22.9327  -10.9722 O   0  0  0  0  0  0  0  0  0  0  0  0
  2  1  1  6
  3  4  1  0
  3  2  1  0
  4  5  2  0
  5  6  1  0
  7  6  2  0
  8  7  1  0
  9  8  2  0
  9  4  1  0
 10  2  1  0
 10 11  2  0
 12 10  1  0
 13 12  1  0
 13 14  1  1
 15 14  1  0
 15 20  1  0
 16 15  2  0
 17 16  1  0
 17 18  2  0
 18 19  1  0
 19 20  2  0
 21 13  1  0
 22 21  2  0
 23 21  1  0
 24 23  1  0
 24 25  1  1
 25 26  1  0
 26 30  1  0
 26 27  2  0
 27 28  1  0
 28 29  1  0
 30 29  2  0
 31 24  1  0
 32 31  1  0
 33 31  2  0
M  END
$$$$
