FFH.pdb
     RDKit          3D

 33 35  0  0  1  0  0  0  0  0999 V2000
   34.9394  -23.0394   10.6296 N   0  0  0  0  0  0  0  0  0  0  0  0
   35.8165  -23.1508    9.5012 C   0  0  1  0  0  0  0  0  0  0  0  0
   37.1379  -23.8276    9.8787 C   0  0  0  0  0  0  0  0  0  0  0  0
   37.8552  -22.9911   10.8837 C   0  0  0  0  0  0  0  0  0  0  0  0
   37.8413  -23.2950   12.2300 C   0  0  0  0  0  0  0  0  0  0  0  0
   38.5102  -22.5149   13.1706 C   0  0  0  0  0  0  0  0  0  0  0  0
   39.2067  -21.4133   12.7757 C   0  0  0  0  0  0  0  0  0  0  0  0
   39.2404  -21.0837   11.4449 C   0  0  0  0  0  0  0  0  0  0  0  0
   38.5667  -21.8708   10.5054 C   0  0  0  0  0  0  0  0  0  0  0  0
   35.1963  -23.7858    8.3356 C   0  0  0  0  0  0  0  0  0  0  0  0
   34.3436  -24.7251    8.5013 O   0  0  0  0  0  0  0  0  0  0  0  0
   35.4691  -23.4370    6.9922 N   0  0  0  0  0  0  0  0  0  0  0  0
   34.8836  -24.1448    5.8582 C   0  0  1  0  0  0  0  0  0  0  0  0
   34.5742  -23.2150    4.7262 C   0  0  0  0  0  0  0  0  0  0  0  0
   33.4124  -22.3678    4.8957 C   0  0  0  0  0  0  0  0  0  0  0  0
   32.4358  -22.2122    3.9098 C   0  0  0  0  0  0  0  0  0  0  0  0
   31.3615  -21.3980    4.1363 C   0  0  0  0  0  0  0  0  0  0  0  0
   31.2369  -20.7268    5.3385 C   0  0  0  0  0  0  0  0  0  0  0  0
   32.1750  -20.8583    6.3222 C   0  0  0  0  0  0  0  0  0  0  0  0
   33.2584  -21.6838    6.0849 C   0  0  0  0  0  0  0  0  0  0  0  0
   35.7172  -25.3097    5.4704 C   0  0  0  0  0  0  0  0  0  0  0  0
   36.9712  -25.3023    5.5076 O   0  0  0  0  0  0  0  0  0  0  0  0
   35.1139  -26.5553    5.0146 N   0  0  0  0  0  0  0  0  0  0  0  0
   35.6543  -27.8167    5.4150 C   0  0  1  0  0  0  0  0  0  0  0  0
   35.9286  -27.8391    6.8786 C   0  0  0  0  0  0  0  0  0  0  0  0
   36.4630  -29.1059    7.3945 C   0  0  0  0  0  0  0  0  0  0  0  0
   36.7441  -30.2976    6.7987 C   0  0  0  0  0  0  0  0  0  0  0  0
   37.2597  -31.1350    7.7386 N   0  0  0  0  0  0  0  0  0  0  0  0
   37.2943  -30.4682    8.8876 C   0  0  0  0  0  0  0  0  0  0  0  0
   36.8200  -29.2323    8.7240 N   0  0  0  0  0  0  0  0  0  0  0  0
   34.8213  -28.9830    4.9784 C   0  0  0  0  0  0  0  0  0  0  0  0
   35.2907  -29.9729    4.1482 O   0  0  0  0  0  0  0  0  0  0  0  0
   33.6436  -29.0278    5.4108 O   0  0  0  0  0  0  0  0  0  0  0  0
  2  1  1  1
  3  4  1  0
  3  2  1  0
  4  5  2  0
  5  6  1  0
  7  6  2  0
  8  7  1  0
  9  8  2  0
  9  4  1  0
 10  2  1  0
 10 11  2  0
 12 10  1  0
 13 12  1  0
 13 14  1  6
 15 14  1  0
 15 20  1  0
 16 15  2  0
 17 16  1  0
 17 18  2  0
 18 19  1  0
 19 20  2  0
 21 13  1  0
 22 21  2  0
 23 21  1  0
 24 23  1  0
 24 25  1  1
 25 26  1  0
 26 30  1  0
 26 27  2  0
 27 28  1  0
 28 29  1  0
 30 29  2  0
 31 24  1  0
 32 31  1  0
 33 31  2  0
M  END
$$$$
