FFH.pdb
     RDKit          3D

 33 35  0  0  1  0  0  0  0  0999 V2000
   24.9053  -20.4879  -19.2633 N   0  0  0  0  0  0  0  0  0  0  0  0
   23.8259  -19.9873  -18.4638 C   0  0  1  0  0  0  0  0  0  0  0  0
   22.4857  -20.0881  -19.1988 C   0  0  0  0  0  0  0  0  0  0  0  0
   22.5241  -19.2345  -20.4213 C   0  0  0  0  0  0  0  0  0  0  0  0
   22.9004  -19.7365  -21.6507 C   0  0  0  0  0  0  0  0  0  0  0  0
   22.9374  -18.9409  -22.7938 C   0  0  0  0  0  0  0  0  0  0  0  0
   22.5965  -17.6244  -22.7230 C   0  0  0  0  0  0  0  0  0  0  0  0
   22.2179  -17.0946  -21.5161 C   0  0  0  0  0  0  0  0  0  0  0  0
   22.1828  -17.8984  -20.3720 C   0  0  0  0  0  0  0  0  0  0  0  0
   23.7574  -20.5859  -17.1283 C   0  0  0  0  0  0  0  0  0  0  0  0
   23.8891  -21.8510  -16.9906 O   0  0  0  0  0  0  0  0  0  0  0  0
   23.5506  -19.8586  -15.9329 N   0  0  0  0  0  0  0  0  0  0  0  0
   23.4581  -20.4992  -14.6249 C   0  0  1  0  0  0  0  0  0  0  0  0
   24.1077  -19.6737  -13.5579 C   0  0  0  0  0  0  0  0  0  0  0  0
   24.0259  -20.1950  -12.2096 C   0  0  0  0  0  0  0  0  0  0  0  0
   23.0494  -19.7902  -11.2970 C   0  0  0  0  0  0  0  0  0  0  0  0
   23.0277  -20.3250  -10.0393 C   0  0  0  0  0  0  0  0  0  0  0  0
   23.9690  -21.2661   -9.6657 C   0  0  0  0  0  0  0  0  0  0  0  0
   24.9363  -21.6822  -10.5352 C   0  0  0  0  0  0  0  0  0  0  0  0
   24.9512  -21.1363  -11.8054 C   0  0  0  0  0  0  0  0  0  0  0  0
   22.0581  -20.8850  -14.3194 C   0  0  0  0  0  0  0  0  0  0  0  0
   21.1106  -20.0637  -14.2779 O   0  0  0  0  0  0  0  0  0  0  0  0
   21.6961  -22.2693  -14.0444 N   0  0  0  0  0  0  0  0  0  0  0  0
   20.3396  -22.6281  -13.7712 C   0  0  1  0  0  0  0  0  0  0  0  0
   20.1255  -24.0895  -13.9621 C   0  0  0  0  0  0  0  0  0  0  0  0
   18.7386  -24.5439  -13.7998 C   0  0  0  0  0  0  0  0  0  0  0  0
   17.6386  -24.4475  -14.5965 C   0  0  0  0  0  0  0  0  0  0  0  0
   16.6039  -25.0754  -13.9755 N   0  0  0  0  0  0  0  0  0  0  0  0
   17.0621  -25.5479  -12.8210 C   0  0  0  0  0  0  0  0  0  0  0  0
   18.3535  -25.2479  -12.6741 N   0  0  0  0  0  0  0  0  0  0  0  0
   19.8610  -22.1573  -12.4318 C   0  0  0  0  0  0  0  0  0  0  0  0
   18.5800  -21.7130  -12.2050 O   0  0  0  0  0  0  0  0  0  0  0  0
   20.6950  -22.1840  -11.4938 O   0  0  0  0  0  0  0  0  0  0  0  0
  2  1  1  6
  3  4  1  0
  3  2  1  0
  4  5  2  0
  5  6  1  0
  7  6  2  0
  8  7  1  0
  9  8  2  0
  9  4  1  0
 10  2  1  0
 10 11  2  0
 12 10  1  0
 13 12  1  0
 13 14  1  1
 15 14  1  0
 15 20  1  0
 16 15  2  0
 17 16  1  0
 17 18  2  0
 18 19  1  0
 19 20  2  0
 21 13  1  0
 22 21  2  0
 23 21  1  0
 24 23  1  0
 24 25  1  1
 25 26  1  0
 26 30  1  0
 26 27  2  0
 27 28  1  0
 28 29  1  0
 30 29  2  0
 31 24  1  0
 32 31  1  0
 33 31  2  0
M  END
$$$$
