FFH.pdb
     RDKit          3D

 33 35  0  0  1  0  0  0  0  0999 V2000
   28.1291  -20.3029  -18.6189 N   0  0  0  0  0  0  0  0  0  0  0  0
   27.6399  -19.4531  -17.5733 C   0  0  1  0  0  0  0  0  0  0  0  0
   26.6115  -18.4467  -18.0991 C   0  0  0  0  0  0  0  0  0  0  0  0
   27.2606  -17.5490  -19.0977 C   0  0  0  0  0  0  0  0  0  0  0  0
   28.3086  -16.7171  -18.7590 C   0  0  0  0  0  0  0  0  0  0  0  0
   28.9161  -15.8774  -19.6901 C   0  0  0  0  0  0  0  0  0  0  0  0
   28.4815  -15.8579  -20.9805 C   0  0  0  0  0  0  0  0  0  0  0  0
   27.4420  -16.6726  -21.3496 C   0  0  0  0  0  0  0  0  0  0  0  0
   26.8361  -17.5133  -20.4103 C   0  0  0  0  0  0  0  0  0  0  0  0
   27.1347  -20.1854  -16.4092 C   0  0  0  0  0  0  0  0  0  0  0  0
   26.4079  -21.2247  -16.5777 O   0  0  0  0  0  0  0  0  0  0  0  0
   27.3909  -19.8294  -15.0645 N   0  0  0  0  0  0  0  0  0  0  0  0
   26.6471  -20.3936  -13.9429 C   0  0  1  0  0  0  0  0  0  0  0  0
   27.2298  -19.9776  -12.6279 C   0  0  0  0  0  0  0  0  0  0  0  0
   26.5118  -20.4087  -11.4468 C   0  0  0  0  0  0  0  0  0  0  0  0
   25.5562  -19.6161  -10.8076 C   0  0  0  0  0  0  0  0  0  0  0  0
   24.9126  -20.0858   -9.6970 C   0  0  0  0  0  0  0  0  0  0  0  0
   25.2036  -21.3438   -9.2027 C   0  0  0  0  0  0  0  0  0  0  0  0
   26.1328  -22.1426   -9.8053 C   0  0  0  0  0  0  0  0  0  0  0  0
   26.7791  -21.6598  -10.9282 C   0  0  0  0  0  0  0  0  0  0  0  0
   25.1953  -20.1154  -14.0735 C   0  0  0  0  0  0  0  0  0  0  0  0
   24.7291  -18.9679  -14.2733 O   0  0  0  0  0  0  0  0  0  0  0  0
   24.2073  -21.1817  -13.9751 N   0  0  0  0  0  0  0  0  0  0  0  0
   22.8092  -20.8869  -14.0183 C   0  0  1  0  0  0  0  0  0  0  0  0
   22.1138  -21.7448  -15.0176 C   0  0  0  0  0  0  0  0  0  0  0  0
   22.1296  -21.2370  -16.3954 C   0  0  0  0  0  0  0  0  0  0  0  0
   22.6007  -20.0846  -16.9468 C   0  0  0  0  0  0  0  0  0  0  0  0
   22.3903  -20.1353  -18.2898 N   0  0  0  0  0  0  0  0  0  0  0  0
   21.8022  -21.2971  -18.5554 C   0  0  0  0  0  0  0  0  0  0  0  0
   21.6253  -21.9973  -17.4339 N   0  0  0  0  0  0  0  0  0  0  0  0
   22.1512  -20.9393  -12.6734 C   0  0  0  0  0  0  0  0  0  0  0  0
   21.2191  -20.0190  -12.2562 O   0  0  0  0  0  0  0  0  0  0  0  0
   22.4894  -21.8823  -11.9168 O   0  0  0  0  0  0  0  0  0  0  0  0
  2  1  1  6
  3  4  1  0
  3  2  1  0
  4  5  2  0
  5  6  1  0
  7  6  2  0
  8  7  1  0
  9  8  2  0
  9  4  1  0
 10  2  1  0
 10 11  2  0
 12 10  1  0
 13 12  1  0
 13 14  1  1
 15 14  1  0
 15 20  1  0
 16 15  2  0
 17 16  1  0
 17 18  2  0
 18 19  1  0
 19 20  2  0
 21 13  1  0
 22 21  2  0
 23 21  1  0
 24 23  1  0
 24 25  1  6
 25 26  1  0
 26 30  1  0
 26 27  2  0
 27 28  1  0
 28 29  1  0
 30 29  2  0
 31 24  1  0
 32 31  1  0
 33 31  2  0
M  END
$$$$
