FFH.pdb
     RDKit          3D

 33 35  0  0  1  0  0  0  0  0999 V2000
   28.3909  -20.7915  -15.7513 N   0  0  0  0  0  0  0  0  0  0  0  0
   27.6338  -20.0877  -14.7581 C   0  0  1  0  0  0  0  0  0  0  0  0
   26.7759  -18.9822  -15.3814 C   0  0  0  0  0  0  0  0  0  0  0  0
   27.6573  -18.0068  -16.0856 C   0  0  0  0  0  0  0  0  0  0  0  0
   28.2587  -16.9558  -15.4233 C   0  0  0  0  0  0  0  0  0  0  0  0
   29.0821  -16.0432  -16.0791 C   0  0  0  0  0  0  0  0  0  0  0  0
   29.3171  -16.1698  -17.4145 C   0  0  0  0  0  0  0  0  0  0  0  0
   28.7345  -17.2035  -18.1021 C   0  0  0  0  0  0  0  0  0  0  0  0
   27.9087  -18.1164  -17.4381 C   0  0  0  0  0  0  0  0  0  0  0  0
   26.8415  -20.9651  -13.8926 C   0  0  0  0  0  0  0  0  0  0  0  0
   26.1751  -21.9302  -14.4039 O   0  0  0  0  0  0  0  0  0  0  0  0
   26.7461  -20.8325  -12.4876 N   0  0  0  0  0  0  0  0  0  0  0  0
   25.7756  -21.5737  -11.6887 C   0  0  1  0  0  0  0  0  0  0  0  0
   26.4036  -22.1657  -10.4652 C   0  0  0  0  0  0  0  0  0  0  0  0
   26.8614  -21.2250   -9.4642 C   0  0  0  0  0  0  0  0  0  0  0  0
   25.9934  -20.4077   -8.7371 C   0  0  0  0  0  0  0  0  0  0  0  0
   26.4924  -19.5426   -7.8039 C   0  0  0  0  0  0  0  0  0  0  0  0
   27.8542  -19.4727   -7.5760 C   0  0  0  0  0  0  0  0  0  0  0  0
   28.7285  -20.2587   -8.2707 C   0  0  0  0  0  0  0  0  0  0  0  0
   28.2155  -21.1311   -9.2128 C   0  0  0  0  0  0  0  0  0  0  0  0
   24.5746  -20.7479  -11.4097 C   0  0  0  0  0  0  0  0  0  0  0  0
   24.6288  -19.5270  -11.1260 O   0  0  0  0  0  0  0  0  0  0  0  0
   23.2351  -21.3199  -11.4504 N   0  0  0  0  0  0  0  0  0  0  0  0
   22.1644  -20.6250  -12.0939 C   0  0  1  0  0  0  0  0  0  0  0  0
   22.5282  -20.2618  -13.4917 C   0  0  0  0  0  0  0  0  0  0  0  0
   21.4904  -19.5407  -14.2398 C   0  0  0  0  0  0  0  0  0  0  0  0
   20.2421  -19.1132  -13.9038 C   0  0  0  0  0  0  0  0  0  0  0  0
   19.7119  -18.4584  -14.9719 N   0  0  0  0  0  0  0  0  0  0  0  0
   20.6189  -18.4841  -15.9429 C   0  0  0  0  0  0  0  0  0  0  0  0
   21.7140  -19.1312  -15.5410 N   0  0  0  0  0  0  0  0  0  0  0  0
   20.8574  -21.3538  -12.0215 C   0  0  0  0  0  0  0  0  0  0  0  0
   20.6329  -22.5583  -12.6447 O   0  0  0  0  0  0  0  0  0  0  0  0
   19.9458  -20.8110  -11.3503 O   0  0  0  0  0  0  0  0  0  0  0  0
  2  1  1  6
  3  4  1  0
  3  2  1  0
  4  5  2  0
  5  6  1  0
  7  6  2  0
  8  7  1  0
  9  8  2  0
  9  4  1  0
 10  2  1  0
 10 11  2  0
 12 10  1  0
 13 12  1  0
 13 14  1  1
 15 14  1  0
 15 20  1  0
 16 15  2  0
 17 16  1  0
 17 18  2  0
 18 19  1  0
 19 20  2  0
 21 13  1  0
 22 21  2  0
 23 21  1  0
 24 23  1  0
 24 25  1  6
 25 26  1  0
 26 30  1  0
 26 27  2  0
 27 28  1  0
 28 29  1  0
 30 29  2  0
 31 24  1  0
 32 31  1  0
 33 31  2  0
M  END
$$$$
