TPY.pdb
     RDKit          3D

 27 28  0  0  1  0  0  0  0  0999 V2000
    6.1182  -11.1154   26.1462 C   0  0  0  0  0  0  0  0  0  0  0  0
    6.9677  -12.2678   25.6927 C   0  0  1  0  0  0  0  0  0  0  0  0
    7.6985  -12.7145   26.7925 O   0  0  0  0  0  0  0  0  0  0  0  0
    6.1096  -13.4502   25.2484 C   0  0  2  0  0  0  0  0  0  0  0  0
    5.2531  -13.8138   26.3246 N   0  0  0  0  0  0  0  0  0  0  0  0
    6.9022  -14.5330   24.6979 C   0  0  0  0  0  0  0  0  0  0  0  0
    7.2866  -15.4455   25.4723 O   0  0  0  0  0  0  0  0  0  0  0  0
    7.2713  -14.6265   23.3298 N   0  0  0  0  0  0  0  0  0  0  0  0
    6.7160  -13.8625   22.2601 C   0  0  0  0  0  0  0  0  0  0  0  0
    7.8173  -13.8117   21.2088 C   0  0  0  0  0  0  0  0  0  0  0  0
    8.3092  -15.2620   21.3105 C   0  0  0  0  0  0  0  0  0  0  0  0
    8.2555  -15.5472   22.7797 C   0  0  1  0  0  0  0  0  0  0  0  0
    9.5799  -15.3736   23.4356 C   0  0  0  0  0  0  0  0  0  0  0  0
    9.8691  -14.3551   24.1289 O   0  0  0  0  0  0  0  0  0  0  0  0
   10.7774  -14.1388   30.1796 O   0  0  0  0  0  0  0  0  0  0  0  0
   10.7514  -14.9643   29.0483 C   0  0  0  0  0  0  0  0  0  0  0  0
   10.1693  -14.4764   27.8949 C   0  0  0  0  0  0  0  0  0  0  0  0
   10.1146  -15.2419   26.7530 C   0  0  0  0  0  0  0  0  0  0  0  0
   10.6401  -16.5118   26.7366 C   0  0  0  0  0  0  0  0  0  0  0  0
   10.5567  -17.3054   25.4874 C   0  0  0  0  0  0  0  0  0  0  0  0
   11.4574  -16.7788   24.3878 C   0  0  2  0  0  0  0  0  0  0  0  0
   10.5743  -16.3608   23.3011 N   0  0  0  0  0  0  0  0  0  0  0  0
   12.4528  -17.7606   23.9293 C   0  0  0  0  0  0  0  0  0  0  0  0
   13.8008  -17.5973   24.2049 O   0  0  0  0  0  0  0  0  0  0  0  0
   11.2181  -16.9930   27.8869 C   0  0  0  0  0  0  0  0  0  0  0  0
   11.2703  -16.2291   29.0192 C   0  0  0  0  0  0  0  0  0  0  0  0
   12.1436  -18.7955   23.2667 O   0  0  0  0  0  0  0  0  0  0  0  0
  2  1  1  1
  2  3  1  0
  4  2  1  0
  4  5  1  1
  6  7  2  0
  6  4  1  0
  8  6  1  0
  9  8  1  0
 10  9  1  0
 11 10  1  0
 11 12  1  0
 12  8  1  0
 13 22  1  0
 12 13  1  1
 14 13  2  0
 16 15  1  0
 17 16  2  0
 18 17  1  0
 19 25  1  0
 19 18  2  0
 21 20  1  1
 20 19  1  0
 21 22  1  0
 23 21  1  0
 24 23  1  0
 25 26  2  0
 26 16  1  0
 27 23  2  0
M  END
$$$$
