TPY.pdb
     RDKit          3D

 27 28  0  0  1  0  0  0  0  0999 V2000
    6.3029  -15.7836   21.1633 C   0  0  0  0  0  0  0  0  0  0  0  0
    7.0311  -15.6342   22.4682 C   0  0  1  0  0  0  0  0  0  0  0  0
    7.9673  -16.6636   22.5517 O   0  0  0  0  0  0  0  0  0  0  0  0
    7.8296  -14.3334   22.5137 C   0  0  2  0  0  0  0  0  0  0  0  0
    8.6944  -14.2969   21.3846 N   0  0  0  0  0  0  0  0  0  0  0  0
    8.4782  -14.1269   23.7945 C   0  0  0  0  0  0  0  0  0  0  0  0
    9.6507  -14.5541   23.9459 O   0  0  0  0  0  0  0  0  0  0  0  0
    7.8669  -13.4669   24.8931 N   0  0  0  0  0  0  0  0  0  0  0  0
    6.5981  -12.8140   24.8753 C   0  0  0  0  0  0  0  0  0  0  0  0
    6.1099  -12.8782   26.3170 C   0  0  0  0  0  0  0  0  0  0  0  0
    7.4336  -12.5686   27.0296 C   0  0  0  0  0  0  0  0  0  0  0  0
    8.4496  -13.3115   26.2180 C   0  0  1  0  0  0  0  0  0  0  0  0
    8.7900  -14.6319   26.8139 C   0  0  0  0  0  0  0  0  0  0  0  0
    7.9985  -15.6189   26.7818 O   0  0  0  0  0  0  0  0  0  0  0  0
   11.2533  -17.8618   22.1631 O   0  0  0  0  0  0  0  0  0  0  0  0
   11.3830  -17.4862   23.5063 C   0  0  0  0  0  0  0  0  0  0  0  0
   10.9103  -18.3486   24.4759 C   0  0  0  0  0  0  0  0  0  0  0  0
   11.0101  -18.0330   25.8114 C   0  0  0  0  0  0  0  0  0  0  0  0
   11.5844  -16.8493   26.2090 C   0  0  0  0  0  0  0  0  0  0  0  0
   11.6684  -16.5450   27.6573 C   0  0  0  0  0  0  0  0  0  0  0  0
   10.3687  -16.0144   28.2292 C   0  0  2  0  0  0  0  0  0  0  0  0
   10.0323  -14.8270   27.4465 N   0  0  0  0  0  0  0  0  0  0  0  0
   10.4452  -15.7112   29.6670 C   0  0  0  0  0  0  0  0  0  0  0  0
   10.6724  -16.7105   30.5994 O   0  0  0  0  0  0  0  0  0  0  0  0
   12.0530  -15.9943   25.2404 C   0  0  0  0  0  0  0  0  0  0  0  0
   11.9519  -16.3118   23.9148 C   0  0  0  0  0  0  0  0  0  0  0  0
   10.3101  -14.5399   30.1311 O   0  0  0  0  0  0  0  0  0  0  0  0
  2  1  1  6
  2  3  1  0
  4  2  1  0
  4  5  1  6
  6  7  2  0
  6  4  1  0
  8  6  1  0
  9  8  1  0
 10  9  1  0
 11 10  1  0
 11 12  1  0
 12  8  1  0
 13 22  1  0
 12 13  1  1
 14 13  2  0
 16 15  1  0
 17 16  2  0
 18 17  1  0
 19 25  1  0
 19 18  2  0
 21 20  1  6
 20 19  1  0
 21 22  1  0
 23 21  1  0
 24 23  1  0
 25 26  2  0
 26 16  1  0
 27 23  2  0
M  END
$$$$
