TPY.pdb
     RDKit          3D

 27 28  0  0  1  0  0  0  0  0999 V2000
    7.7503  -12.3754   19.7980 C   0  0  0  0  0  0  0  0  0  0  0  0
    8.0288  -13.4757   18.8146 C   0  0  1  0  0  0  0  0  0  0  0  0
    8.7484  -12.9255   17.7551 O   0  0  0  0  0  0  0  0  0  0  0  0
    8.9279  -14.5502   19.4220 C   0  0  2  0  0  0  0  0  0  0  0  0
    9.1185  -15.5763   18.4551 N   0  0  0  0  0  0  0  0  0  0  0  0
    8.4531  -15.0022   20.7158 C   0  0  0  0  0  0  0  0  0  0  0  0
    8.4128  -14.1736   21.6602 O   0  0  0  0  0  0  0  0  0  0  0  0
    8.0272  -16.3305   20.9818 N   0  0  0  0  0  0  0  0  0  0  0  0
    7.9795  -17.3983   20.0363 C   0  0  0  0  0  0  0  0  0  0  0  0
    8.1257  -18.6628   20.8732 C   0  0  0  0  0  0  0  0  0  0  0  0
    7.2251  -18.2718   22.0529 C   0  0  0  0  0  0  0  0  0  0  0  0
    7.5299  -16.8201   22.2593 C   0  0  1  0  0  0  0  0  0  0  0  0
    8.5260  -16.6026   23.3431 C   0  0  0  0  0  0  0  0  0  0  0  0
    9.7575  -16.4248   23.1118 O   0  0  0  0  0  0  0  0  0  0  0  0
    6.1740  -10.6147   25.7833 O   0  0  0  0  0  0  0  0  0  0  0  0
    6.6125  -11.9157   26.0611 C   0  0  0  0  0  0  0  0  0  0  0  0
    7.9472  -12.1069   26.3603 C   0  0  0  0  0  0  0  0  0  0  0  0
    8.4352  -13.3622   26.6415 C   0  0  0  0  0  0  0  0  0  0  0  0
    7.6017  -14.4551   26.6305 C   0  0  0  0  0  0  0  0  0  0  0  0
    8.1680  -15.7908   26.9343 C   0  0  0  0  0  0  0  0  0  0  0  0
    9.0236  -16.3427   25.8112 C   0  0  2  0  0  0  0  0  0  0  0  0
    8.1184  -16.5880   24.6904 N   0  0  0  0  0  0  0  0  0  0  0  0
    9.7636  -17.5582   26.1854 C   0  0  0  0  0  0  0  0  0  0  0  0
   10.9300  -17.4869   26.9298 O   0  0  0  0  0  0  0  0  0  0  0  0
    6.2745  -14.2597   26.3319 C   0  0  0  0  0  0  0  0  0  0  0  0
    5.7938  -13.0109   26.0532 C   0  0  0  0  0  0  0  0  0  0  0  0
    9.3864  -18.7220   25.8555 O   0  0  0  0  0  0  0  0  0  0  0  0
  2  1  1  1
  2  3  1  0
  4  2  1  0
  4  5  1  6
  6  7  2  0
  6  4  1  0
  8  6  1  0
  9  8  1  0
 10  9  1  0
 11 10  1  0
 11 12  1  0
 12  8  1  0
 13 22  1  0
 12 13  1  1
 14 13  2  0
 16 15  1  0
 17 16  2  0
 18 17  1  0
 19 25  1  0
 19 18  2  0
 21 20  1  1
 20 19  1  0
 21 22  1  0
 23 21  1  0
 24 23  1  0
 25 26  2  0
 26 16  1  0
 27 23  2  0
M  END
$$$$
