TPY.pdb
     RDKit          3D

 27 28  0  0  1  0  0  0  0  0999 V2000
    2.9854  -18.3619   21.8980 C   0  0  0  0  0  0  0  0  0  0  0  0
    4.3304  -17.8765   22.3570 C   0  0  1  0  0  0  0  0  0  0  0  0
    4.7635  -18.7259   23.3738 O   0  0  0  0  0  0  0  0  0  0  0  0
    5.3706  -17.9860   21.2444 C   0  0  2  0  0  0  0  0  0  0  0  0
    5.3980  -19.3323   20.7854 N   0  0  0  0  0  0  0  0  0  0  0  0
    6.6570  -17.4409   21.6342 C   0  0  0  0  0  0  0  0  0  0  0  0
    7.4764  -18.1987   22.2124 O   0  0  0  0  0  0  0  0  0  0  0  0
    7.0498  -16.0966   21.3998 N   0  0  0  0  0  0  0  0  0  0  0  0
    6.4055  -15.1792   20.5169 C   0  0  0  0  0  0  0  0  0  0  0  0
    6.7233  -13.8036   21.0892 C   0  0  0  0  0  0  0  0  0  0  0  0
    8.1939  -14.0359   21.4622 C   0  0  0  0  0  0  0  0  0  0  0  0
    8.2026  -15.4358   21.9943 C   0  0  1  0  0  0  0  0  0  0  0  0
    8.1369  -15.4736   23.4805 C   0  0  0  0  0  0  0  0  0  0  0  0
    7.1049  -15.1278   24.1263 O   0  0  0  0  0  0  0  0  0  0  0  0
    7.1979  -21.0862   27.2404 O   0  0  0  0  0  0  0  0  0  0  0  0
    7.5313  -19.7351   27.0811 C   0  0  0  0  0  0  0  0  0  0  0  0
    6.8221  -18.9899   26.1597 C   0  0  0  0  0  0  0  0  0  0  0  0
    7.1052  -17.6583   25.9601 C   0  0  0  0  0  0  0  0  0  0  0  0
    8.1026  -17.0406   26.6761 C   0  0  0  0  0  0  0  0  0  0  0  0
    8.3791  -15.6056   26.4276 C   0  0  0  0  0  0  0  0  0  0  0  0
    9.5930  -15.3781   25.5486 C   0  0  2  0  0  0  0  0  0  0  0  0
    9.2474  -15.9052   24.2301 N   0  0  0  0  0  0  0  0  0  0  0  0
   10.8188  -15.9986   26.0754 C   0  0  0  0  0  0  0  0  0  0  0  0
   11.3086  -15.6673   27.3284 O   0  0  0  0  0  0  0  0  0  0  0  0
    8.8057  -17.7864   27.5916 C   0  0  0  0  0  0  0  0  0  0  0  0
    8.5212  -19.1090   27.7868 C   0  0  0  0  0  0  0  0  0  0  0  0
   11.4884  -16.8571   25.4273 O   0  0  0  0  0  0  0  0  0  0  0  0
  2  1  1  6
  2  3  1  0
  4  2  1  0
  4  5  1  1
  6  7  2  0
  6  4  1  0
  8  6  1  0
  9  8  1  0
 10  9  1  0
 11 10  1  0
 11 12  1  0
 12  8  1  0
 13 22  1  0
 12 13  1  1
 14 13  2  0
 16 15  1  0
 17 16  2  0
 18 17  1  0
 19 25  1  0
 19 18  2  0
 21 20  1  1
 20 19  1  0
 21 22  1  0
 23 21  1  0
 24 23  1  0
 25 26  2  0
 26 16  1  0
 27 23  2  0
M  END
$$$$
