TPY.pdb
     RDKit          3D

 27 28  0  0  1  0  0  0  0  0999 V2000
   11.0046  -14.1383   19.3863 C   0  0  0  0  0  0  0  0  0  0  0  0
    9.9767  -13.1080   19.0157 C   0  0  1  0  0  0  0  0  0  0  0  0
   10.3282  -12.5865   17.7717 O   0  0  0  0  0  0  0  0  0  0  0  0
    8.5977  -13.7383   18.8343 C   0  0  2  0  0  0  0  0  0  0  0  0
    7.7123  -12.7453   18.3302 N   0  0  0  0  0  0  0  0  0  0  0  0
    8.1410  -14.4231   20.0285 C   0  0  0  0  0  0  0  0  0  0  0  0
    7.7998  -13.7307   21.0206 O   0  0  0  0  0  0  0  0  0  0  0  0
    8.0539  -15.8356   20.1454 N   0  0  0  0  0  0  0  0  0  0  0  0
    8.2727  -16.7765   19.0951 C   0  0  0  0  0  0  0  0  0  0  0  0
    8.7229  -18.0483   19.8027 C   0  0  0  0  0  0  0  0  0  0  0  0
    7.7506  -18.0160   20.9898 C   0  0  0  0  0  0  0  0  0  0  0  0
    7.6888  -16.5641   21.3517 C   0  0  1  0  0  0  0  0  0  0  0  0
    8.5981  -16.2259   22.4801 C   0  0  0  0  0  0  0  0  0  0  0  0
    9.4668  -15.3088   22.4044 O   0  0  0  0  0  0  0  0  0  0  0  0
   10.6234  -14.2755   30.6986 O   0  0  0  0  0  0  0  0  0  0  0  0
   10.1095  -14.5219   29.4190 C   0  0  0  0  0  0  0  0  0  0  0  0
    9.5790  -15.7695   29.1555 C   0  0  0  0  0  0  0  0  0  0  0  0
    9.0600  -16.0691   27.9170 C   0  0  0  0  0  0  0  0  0  0  0  0
    9.0587  -15.1299   26.9136 C   0  0  0  0  0  0  0  0  0  0  0  0
    8.4944  -15.4943   25.5922 C   0  0  0  0  0  0  0  0  0  0  0  0
    9.2801  -16.5846   24.8910 C   0  0  2  0  0  0  0  0  0  0  0  0
    8.5171  -16.9333   23.6944 N   0  0  0  0  0  0  0  0  0  0  0  0
    9.5266  -17.7622   25.7381 C   0  0  0  0  0  0  0  0  0  0  0  0
   10.7603  -17.9721   26.3328 O   0  0  0  0  0  0  0  0  0  0  0  0
    9.5880  -13.8899   27.1805 C   0  0  0  0  0  0  0  0  0  0  0  0
   10.1026  -13.5964   28.4124 C   0  0  0  0  0  0  0  0  0  0  0  0
    8.6424  -18.6396   25.9705 O   0  0  0  0  0  0  0  0  0  0  0  0
  2  1  1  6
  2  3  1  0
  4  2  1  0
  4  5  1  1
  6  7  2  0
  6  4  1  0
  8  6  1  0
  9  8  1  0
 10  9  1  0
 11 10  1  0
 11 12  1  0
 12  8  1  0
 13 22  1  0
 12 13  1  1
 14 13  2  0
 16 15  1  0
 17 16  2  0
 18 17  1  0
 19 25  1  0
 19 18  2  0
 21 20  1  1
 20 19  1  0
 21 22  1  0
 23 21  1  0
 24 23  1  0
 25 26  2  0
 26 16  1  0
 27 23  2  0
M  END
$$$$
