TPY.pdb
     RDKit          3D

 27 28  0  0  1  0  0  0  0  0999 V2000
    7.6677  -12.1882   20.2642 C   0  0  0  0  0  0  0  0  0  0  0  0
    8.0254  -13.1978   21.3170 C   0  0  1  0  0  0  0  0  0  0  0  0
    7.3438  -12.8540   22.4833 O   0  0  0  0  0  0  0  0  0  0  0  0
    7.5354  -14.5936   20.9382 C   0  0  2  0  0  0  0  0  0  0  0  0
    6.1761  -14.4975   20.5296 N   0  0  0  0  0  0  0  0  0  0  0  0
    7.8002  -15.5730   21.9747 C   0  0  0  0  0  0  0  0  0  0  0  0
    7.0531  -15.5898   22.9855 O   0  0  0  0  0  0  0  0  0  0  0  0
    8.8566  -16.5201   21.9164 N   0  0  0  0  0  0  0  0  0  0  0  0
    9.6748  -16.7908   20.7790 C   0  0  0  0  0  0  0  0  0  0  0  0
   10.9851  -17.3078   21.3593 C   0  0  0  0  0  0  0  0  0  0  0  0
   10.4163  -18.1987   22.4722 C   0  0  0  0  0  0  0  0  0  0  0  0
    9.2609  -17.4049   22.9993 C   0  0  1  0  0  0  0  0  0  0  0  0
    9.6188  -16.6323   24.2198 C   0  0  0  0  0  0  0  0  0  0  0  0
   10.2576  -15.5408   24.1729 O   0  0  0  0  0  0  0  0  0  0  0  0
    6.5179  -11.1767   25.6091 O   0  0  0  0  0  0  0  0  0  0  0  0
    7.0897  -12.3574   26.0998 C   0  0  0  0  0  0  0  0  0  0  0  0
    6.3362  -13.5143   26.0631 C   0  0  0  0  0  0  0  0  0  0  0  0
    6.8451  -14.7038   26.5311 C   0  0  0  0  0  0  0  0  0  0  0  0
    8.1178  -14.7654   27.0463 C   0  0  0  0  0  0  0  0  0  0  0  0
    8.6267  -16.0654   27.5445 C   0  0  0  0  0  0  0  0  0  0  0  0
    9.8025  -16.5892   26.7438 C   0  0  2  0  0  0  0  0  0  0  0  0
    9.2486  -17.1041   25.4933 N   0  0  0  0  0  0  0  0  0  0  0  0
   10.5807  -17.6160   27.4546 C   0  0  0  0  0  0  0  0  0  0  0  0
   11.3711  -17.2898   28.5448 O   0  0  0  0  0  0  0  0  0  0  0  0
    8.8636  -13.6115   27.0811 C   0  0  0  0  0  0  0  0  0  0  0  0
    8.3541  -12.4318   26.6150 C   0  0  0  0  0  0  0  0  0  0  0  0
   10.5755  -18.8378   27.1190 O   0  0  0  0  0  0  0  0  0  0  0  0
  2  1  1  6
  2  3  1  0
  4  2  1  0
  4  5  1  1
  6  7  2  0
  6  4  1  0
  8  6  1  0
  9  8  1  0
 10  9  1  0
 11 10  1  0
 11 12  1  0
 12  8  1  0
 13 22  1  0
 12 13  1  1
 14 13  2  0
 16 15  1  0
 17 16  2  0
 18 17  1  0
 19 25  1  0
 19 18  2  0
 21 20  1  1
 20 19  1  0
 21 22  1  0
 23 21  1  0
 24 23  1  0
 25 26  2  0
 26 16  1  0
 27 23  2  0
M  END
$$$$
