TPY.pdb
     RDKit          3D

 27 28  0  0  1  0  0  0  0  0999 V2000
   11.3467  -14.4083   20.0907 C   0  0  0  0  0  0  0  0  0  0  0  0
   10.5325  -13.4233   19.3019 C   0  0  1  0  0  0  0  0  0  0  0  0
   11.3641  -12.8659   18.3320 O   0  0  0  0  0  0  0  0  0  0  0  0
    9.4041  -14.1168   18.5418 C   0  0  2  0  0  0  0  0  0  0  0  0
    8.7612  -13.1542   17.7147 N   0  0  0  0  0  0  0  0  0  0  0  0
    8.5229  -14.8630   19.4195 C   0  0  0  0  0  0  0  0  0  0  0  0
    7.6923  -14.2252   20.1149 O   0  0  0  0  0  0  0  0  0  0  0  0
    8.5401  -16.2777   19.5406 N   0  0  0  0  0  0  0  0  0  0  0  0
    9.2369  -17.1816   18.6841 C   0  0  0  0  0  0  0  0  0  0  0  0
    9.5081  -18.4046   19.5510 C   0  0  0  0  0  0  0  0  0  0  0  0
    8.1581  -18.4847   20.2768 C   0  0  0  0  0  0  0  0  0  0  0  0
    7.8171  -17.0505   20.5402 C   0  0  1  0  0  0  0  0  0  0  0  0
    8.1873  -16.6276   21.9180 C   0  0  0  0  0  0  0  0  0  0  0  0
    9.3896  -16.5129   22.2962 O   0  0  0  0  0  0  0  0  0  0  0  0
    7.4619  -11.6026   29.0575 O   0  0  0  0  0  0  0  0  0  0  0  0
    7.2593  -12.2879   27.8528 C   0  0  0  0  0  0  0  0  0  0  0  0
    8.3474  -12.5002   27.0293 C   0  0  0  0  0  0  0  0  0  0  0  0
    8.2090  -13.1670   25.8338 C   0  0  0  0  0  0  0  0  0  0  0  0
    6.9811  -13.6372   25.4335 C   0  0  0  0  0  0  0  0  0  0  0  0
    6.8739  -14.3464   24.1363 C   0  0  0  0  0  0  0  0  0  0  0  0
    7.4547  -15.7461   24.1747 C   0  0  2  0  0  0  0  0  0  0  0  0
    7.1871  -16.3358   22.8646 N   0  0  0  0  0  0  0  0  0  0  0  0
    6.9097  -16.5737   25.2624 C   0  0  0  0  0  0  0  0  0  0  0  0
    7.5962  -16.7328   26.4553 O   0  0  0  0  0  0  0  0  0  0  0  0
    5.9013  -13.4233   26.2563 C   0  0  0  0  0  0  0  0  0  0  0  0
    6.0432  -12.7603   27.4431 C   0  0  0  0  0  0  0  0  0  0  0  0
    5.8004  -17.1800   25.1757 O   0  0  0  0  0  0  0  0  0  0  0  0
  2  1  1  6
  2  3  1  0
  4  2  1  0
  4  5  1  1
  6  7  2  0
  6  4  1  0
  8  6  1  0
  9  8  1  0
 10  9  1  0
 11 10  1  0
 11 12  1  0
 12  8  1  0
 13 22  1  0
 12 13  1  1
 14 13  2  0
 16 15  1  0
 17 16  2  0
 18 17  1  0
 19 25  1  0
 19 18  2  0
 21 20  1  6
 20 19  1  0
 21 22  1  0
 23 21  1  0
 24 23  1  0
 25 26  2  0
 26 16  1  0
 27 23  2  0
M  END
$$$$
