TPY.pdb
     RDKit          3D

 27 28  0  0  1  0  0  0  0  0999 V2000
    5.4061  -17.2332   21.7185 C   0  0  0  0  0  0  0  0  0  0  0  0
    6.2982  -18.1984   20.9918 C   0  0  1  0  0  0  0  0  0  0  0  0
    5.4830  -19.0635   20.2637 O   0  0  0  0  0  0  0  0  0  0  0  0
    7.1745  -17.4820   19.9667 C   0  0  2  0  0  0  0  0  0  0  0  0
    7.6964  -18.4514   19.0656 N   0  0  0  0  0  0  0  0  0  0  0  0
    8.1634  -16.6225   20.5888 C   0  0  0  0  0  0  0  0  0  0  0  0
    9.0744  -17.1563   21.2709 O   0  0  0  0  0  0  0  0  0  0  0  0
    8.1662  -15.2073   20.4724 N   0  0  0  0  0  0  0  0  0  0  0  0
    7.2859  -14.4337   19.6582 C   0  0  0  0  0  0  0  0  0  0  0  0
    7.2141  -13.0768   20.3471 C   0  0  0  0  0  0  0  0  0  0  0  0
    8.6943  -12.9231   20.7228 C   0  0  0  0  0  0  0  0  0  0  0  0
    9.0951  -14.3051   21.1376 C   0  0  1  0  0  0  0  0  0  0  0  0
    9.0539  -14.4839   22.6143 C   0  0  0  0  0  0  0  0  0  0  0  0
    8.2743  -13.8220   23.3598 O   0  0  0  0  0  0  0  0  0  0  0  0
    5.7271  -11.2882   26.9029 O   0  0  0  0  0  0  0  0  0  0  0  0
    6.4995  -12.3822   26.4923 C   0  0  0  0  0  0  0  0  0  0  0  0
    5.8507  -13.5586   26.1723 C   0  0  0  0  0  0  0  0  0  0  0  0
    6.5572  -14.6660   25.7630 C   0  0  0  0  0  0  0  0  0  0  0  0
    7.9274  -14.6240   25.6637 C   0  0  0  0  0  0  0  0  0  0  0  0
    8.6512  -15.8403   25.2235 C   0  0  0  0  0  0  0  0  0  0  0  0
   10.0392  -15.5452   24.6902 C   0  0  2  0  0  0  0  0  0  0  0  0
    9.9015  -15.4169   23.2410 N   0  0  0  0  0  0  0  0  0  0  0  0
   11.0322  -16.5693   25.0511 C   0  0  0  0  0  0  0  0  0  0  0  0
   11.6583  -17.3344   24.0804 O   0  0  0  0  0  0  0  0  0  0  0  0
    8.5685  -13.4512   25.9836 C   0  0  0  0  0  0  0  0  0  0  0  0
    7.8628  -12.3533   26.3897 C   0  0  0  0  0  0  0  0  0  0  0  0
   11.3686  -16.8092   26.2490 O   0  0  0  0  0  0  0  0  0  0  0  0
  2  1  1  6
  2  3  1  0
  4  2  1  0
  4  5  1  1
  6  7  2  0
  6  4  1  0
  8  6  1  0
  9  8  1  0
 10  9  1  0
 11 10  1  0
 11 12  1  0
 12  8  1  0
 13 22  1  0
 12 13  1  1
 14 13  2  0
 16 15  1  0
 17 16  2  0
 18 17  1  0
 19 25  1  0
 19 18  2  0
 21 20  1  1
 20 19  1  0
 21 22  1  0
 23 21  1  0
 24 23  1  0
 25 26  2  0
 26 16  1  0
 27 23  2  0
M  END
$$$$
