TPY.pdb
     RDKit          3D

 27 28  0  0  1  0  0  0  0  0999 V2000
    6.6374  -19.0223   18.2711 C   0  0  0  0  0  0  0  0  0  0  0  0
    7.0558  -18.1053   19.3844 C   0  0  1  0  0  0  0  0  0  0  0  0
    7.3512  -18.8941   20.4951 O   0  0  0  0  0  0  0  0  0  0  0  0
    8.3452  -17.3635   19.0392 C   0  0  2  0  0  0  0  0  0  0  0  0
    9.3318  -18.3220   18.6760 N   0  0  0  0  0  0  0  0  0  0  0  0
    8.7426  -16.4322   20.0776 C   0  0  0  0  0  0  0  0  0  0  0  0
    9.4358  -16.8635   21.0334 O   0  0  0  0  0  0  0  0  0  0  0  0
    8.3959  -15.0552   20.0796 N   0  0  0  0  0  0  0  0  0  0  0  0
    7.8648  -14.3252   18.9745 C   0  0  0  0  0  0  0  0  0  0  0  0
    7.0694  -13.1902   19.6070 C   0  0  0  0  0  0  0  0  0  0  0  0
    8.0430  -12.8175   20.7335 C   0  0  0  0  0  0  0  0  0  0  0  0
    8.5591  -14.1429   21.2023 C   0  0  1  0  0  0  0  0  0  0  0  0
    7.8349  -14.6356   22.4052 C   0  0  0  0  0  0  0  0  0  0  0  0
    6.6981  -15.1877   22.3381 O   0  0  0  0  0  0  0  0  0  0  0  0
   11.8695  -19.8132   24.8782 O   0  0  0  0  0  0  0  0  0  0  0  0
   10.7408  -18.9890   24.7854 C   0  0  0  0  0  0  0  0  0  0  0  0
   10.5228  -18.0622   25.7859 C   0  0  0  0  0  0  0  0  0  0  0  0
    9.4310  -17.2258   25.7482 C   0  0  0  0  0  0  0  0  0  0  0  0
    8.5321  -17.2957   24.7108 C   0  0  0  0  0  0  0  0  0  0  0  0
    7.3665  -16.3800   24.7102 C   0  0  0  0  0  0  0  0  0  0  0  0
    7.7512  -14.9286   24.9179 C   0  0  2  0  0  0  0  0  0  0  0  0
    8.4064  -14.4988   23.6843 N   0  0  0  0  0  0  0  0  0  0  0  0
    8.6135  -14.7162   26.0912 C   0  0  0  0  0  0  0  0  0  0  0  0
    8.1399  -14.9256   27.3763 O   0  0  0  0  0  0  0  0  0  0  0  0
    8.7532  -18.2198   23.7178 C   0  0  0  0  0  0  0  0  0  0  0  0
    9.8392  -19.0488   23.7591 C   0  0  0  0  0  0  0  0  0  0  0  0
    9.8186  -14.3357   25.9992 O   0  0  0  0  0  0  0  0  0  0  0  0
  2  1  1  6
  2  3  1  0
  4  2  1  0
  4  5  1  1
  6  7  2  0
  6  4  1  0
  8  6  1  0
  9  8  1  0
 10  9  1  0
 11 10  1  0
 11 12  1  0
 12  8  1  0
 13 22  1  0
 12 13  1  1
 14 13  2  0
 16 15  1  0
 17 16  2  0
 18 17  1  0
 19 25  1  0
 19 18  2  0
 21 20  1  6
 20 19  1  0
 21 22  1  0
 23 21  1  0
 24 23  1  0
 25 26  2  0
 26 16  1  0
 27 23  2  0
M  END
$$$$
