TPY.pdb
     RDKit          3D

 27 28  0  0  1  0  0  0  0  0999 V2000
    7.3434  -18.7415   19.1486 C   0  0  0  0  0  0  0  0  0  0  0  0
    7.4843  -17.7487   20.2666 C   0  0  1  0  0  0  0  0  0  0  0  0
    7.4970  -18.4593   21.4657 O   0  0  0  0  0  0  0  0  0  0  0  0
    8.8230  -17.0174   20.1956 C   0  0  2  0  0  0  0  0  0  0  0  0
    9.8599  -17.9864   20.0955 N   0  0  0  0  0  0  0  0  0  0  0  0
    8.9829  -16.0511   21.2653 C   0  0  0  0  0  0  0  0  0  0  0  0
    9.4526  -16.4465   22.3621 O   0  0  0  0  0  0  0  0  0  0  0  0
    8.6407  -14.6779   21.1480 N   0  0  0  0  0  0  0  0  0  0  0  0
    8.3327  -13.9939   19.9341 C   0  0  0  0  0  0  0  0  0  0  0  0
    7.4286  -12.8431   20.3573 C   0  0  0  0  0  0  0  0  0  0  0  0
    8.1653  -12.4207   21.6358 C   0  0  0  0  0  0  0  0  0  0  0  0
    8.5824  -13.7234   22.2455 C   0  0  1  0  0  0  0  0  0  0  0  0
    7.6396  -14.1774   23.3035 C   0  0  0  0  0  0  0  0  0  0  0  0
    6.9981  -15.2654   23.2240 O   0  0  0  0  0  0  0  0  0  0  0  0
   11.4984  -14.5858   29.3385 O   0  0  0  0  0  0  0  0  0  0  0  0
   10.3809  -14.7607   28.5123 C   0  0  0  0  0  0  0  0  0  0  0  0
    9.4875  -13.7148   28.3891 C   0  0  0  0  0  0  0  0  0  0  0  0
    8.3719  -13.8289   27.5918 C   0  0  0  0  0  0  0  0  0  0  0  0
    8.1232  -14.9899   26.8994 C   0  0  0  0  0  0  0  0  0  0  0  0
    6.9077  -15.0738   26.0552 C   0  0  0  0  0  0  0  0  0  0  0  0
    6.4729  -13.7300   25.5047 C   0  0  2  0  0  0  0  0  0  0  0  0
    7.4281  -13.3911   24.4518 N   0  0  0  0  0  0  0  0  0  0  0  0
    6.4000  -12.6763   26.5291 C   0  0  0  0  0  0  0  0  0  0  0  0
    7.3155  -11.6366   26.5547 O   0  0  0  0  0  0  0  0  0  0  0  0
    9.0150  -16.0280   27.0255 C   0  0  0  0  0  0  0  0  0  0  0  0
   10.1220  -15.9103   27.8185 C   0  0  0  0  0  0  0  0  0  0  0  0
    5.5125  -12.6563   27.4333 O   0  0  0  0  0  0  0  0  0  0  0  0
  2  1  1  6
  2  3  1  0
  4  2  1  0
  4  5  1  1
  6  7  2  0
  6  4  1  0
  8  6  1  0
  9  8  1  0
 10  9  1  0
 11 10  1  0
 11 12  1  0
 12  8  1  0
 13 22  1  0
 12 13  1  1
 14 13  2  0
 16 15  1  0
 17 16  2  0
 18 17  1  0
 19 25  1  0
 19 18  2  0
 21 20  1  1
 20 19  1  0
 21 22  1  0
 23 21  1  0
 24 23  1  0
 25 26  2  0
 26 16  1  0
 27 23  2  0
M  END
$$$$
