TPY.pdb
     RDKit          3D

 27 28  0  0  1  0  0  0  0  0999 V2000
   10.9807  -14.6158   19.2730 C   0  0  0  0  0  0  0  0  0  0  0  0
   10.2621  -13.3334   18.9655 C   0  0  1  0  0  0  0  0  0  0  0  0
   10.7011  -12.8896   17.7192 O   0  0  0  0  0  0  0  0  0  0  0  0
    8.7580  -13.5580   18.8273 C   0  0  2  0  0  0  0  0  0  0  0  0
    8.1668  -12.3579   18.3431 N   0  0  0  0  0  0  0  0  0  0  0  0
    8.1651  -14.0929   20.0381 C   0  0  0  0  0  0  0  0  0  0  0  0
    8.0639  -13.3377   21.0378 O   0  0  0  0  0  0  0  0  0  0  0  0
    7.6878  -15.4245   20.1632 N   0  0  0  0  0  0  0  0  0  0  0  0
    7.5548  -16.3681   19.1010 C   0  0  0  0  0  0  0  0  0  0  0  0
    7.6731  -17.7290   19.7755 C   0  0  0  0  0  0  0  0  0  0  0  0
    6.8368  -17.4449   21.0308 C   0  0  0  0  0  0  0  0  0  0  0  0
    7.2167  -16.0426   21.3941 C   0  0  1  0  0  0  0  0  0  0  0  0
    8.2620  -15.9987   22.4522 C   0  0  0  0  0  0  0  0  0  0  0  0
    9.4930  -16.1522   22.2014 O   0  0  0  0  0  0  0  0  0  0  0  0
   11.3083  -14.8874   30.7685 O   0  0  0  0  0  0  0  0  0  0  0  0
   10.5138  -14.9913   29.6196 C   0  0  0  0  0  0  0  0  0  0  0  0
   10.5008  -13.9313   28.7344 C   0  0  0  0  0  0  0  0  0  0  0  0
    9.7394  -13.9766   27.5893 C   0  0  0  0  0  0  0  0  0  0  0  0
    8.9740  -15.0814   27.3019 C   0  0  0  0  0  0  0  0  0  0  0  0
    8.1644  -15.0885   26.0602 C   0  0  0  0  0  0  0  0  0  0  0  0
    8.8598  -15.7753   24.9015 C   0  0  2  0  0  0  0  0  0  0  0  0
    7.9041  -15.7801   23.7960 N   0  0  0  0  0  0  0  0  0  0  0  0
    9.3232  -17.1345   25.2226 C   0  0  0  0  0  0  0  0  0  0  0  0
   10.6457  -17.3817   25.5534 O   0  0  0  0  0  0  0  0  0  0  0  0
    8.9900  -16.1336   28.1859 C   0  0  0  0  0  0  0  0  0  0  0  0
    9.7479  -16.0844   29.3224 C   0  0  0  0  0  0  0  0  0  0  0  0
    8.5553  -18.1424   25.2158 O   0  0  0  0  0  0  0  0  0  0  0  0
  2  1  1  6
  2  3  1  0
  4  2  1  0
  4  5  1  1
  6  7  2  0
  6  4  1  0
  8  6  1  0
  9  8  1  0
 10  9  1  0
 11 10  1  0
 11 12  1  0
 12  8  1  0
 13 22  1  0
 12 13  1  1
 14 13  2  0
 16 15  1  0
 17 16  2  0
 18 17  1  0
 19 25  1  0
 19 18  2  0
 21 20  1  1
 20 19  1  0
 21 22  1  0
 23 21  1  0
 24 23  1  0
 25 26  2  0
 26 16  1  0
 27 23  2  0
M  END
$$$$
