TPY.pdb
     RDKit          3D

 27 28  0  0  1  0  0  0  0  0999 V2000
    5.3199  -18.0241   22.9293 C   0  0  0  0  0  0  0  0  0  0  0  0
    6.2141  -18.9763   22.1883 C   0  0  1  0  0  0  0  0  0  0  0  0
    5.4023  -19.9244   21.5675 O   0  0  0  0  0  0  0  0  0  0  0  0
    6.9708  -18.2695   21.0659 C   0  0  2  0  0  0  0  0  0  0  0  0
    7.4547  -19.2542   20.1603 N   0  0  0  0  0  0  0  0  0  0  0  0
    7.9721  -17.3484   21.5685 C   0  0  0  0  0  0  0  0  0  0  0  0
    8.9474  -17.8170   22.2082 O   0  0  0  0  0  0  0  0  0  0  0  0
    7.9184  -15.9420   21.3796 N   0  0  0  0  0  0  0  0  0  0  0  0
    6.9863  -15.2443   20.5546 C   0  0  0  0  0  0  0  0  0  0  0  0
    6.8839  -13.8566   21.1748 C   0  0  0  0  0  0  0  0  0  0  0  0
    8.3676  -13.6303   21.4958 C   0  0  0  0  0  0  0  0  0  0  0  0
    8.8319  -14.9734   21.9684 C   0  0  1  0  0  0  0  0  0  0  0  0
    8.8406  -15.0759   23.4529 C   0  0  0  0  0  0  0  0  0  0  0  0
    8.0731  -14.3891   24.1883 O   0  0  0  0  0  0  0  0  0  0  0  0
    6.0760  -11.0720   26.8318 O   0  0  0  0  0  0  0  0  0  0  0  0
    6.6693  -12.3310   26.6736 C   0  0  0  0  0  0  0  0  0  0  0  0
    8.0323  -12.4415   26.8672 C   0  0  0  0  0  0  0  0  0  0  0  0
    8.6698  -13.6525   26.7255 C   0  0  0  0  0  0  0  0  0  0  0  0
    7.9611  -14.7805   26.3875 C   0  0  0  0  0  0  0  0  0  0  0  0
    8.6866  -16.0648   26.2401 C   0  0  0  0  0  0  0  0  0  0  0  0
   10.0176  -15.9170   25.5298 C   0  0  2  0  0  0  0  0  0  0  0  0
    9.7244  -15.9609   24.0988 N   0  0  0  0  0  0  0  0  0  0  0  0
   10.9999  -16.9434   25.9129 C   0  0  0  0  0  0  0  0  0  0  0  0
   11.5885  -17.7624   24.9631 O   0  0  0  0  0  0  0  0  0  0  0  0
    6.6051  -14.6654   26.1955 C   0  0  0  0  0  0  0  0  0  0  0  0
    5.9757  -13.4604   26.3374 C   0  0  0  0  0  0  0  0  0  0  0  0
   11.3600  -17.1371   27.1122 O   0  0  0  0  0  0  0  0  0  0  0  0
  2  1  1  6
  2  3  1  0
  4  2  1  0
  4  5  1  6
  6  7  2  0
  6  4  1  0
  8  6  1  0
  9  8  1  0
 10  9  1  0
 11 10  1  0
 11 12  1  0
 12  8  1  0
 13 22  1  0
 12 13  1  1
 14 13  2  0
 16 15  1  0
 17 16  2  0
 18 17  1  0
 19 25  1  0
 19 18  2  0
 21 20  1  1
 20 19  1  0
 21 22  1  0
 23 21  1  0
 24 23  1  0
 25 26  2  0
 26 16  1  0
 27 23  2  0
M  END
$$$$
