TPY.pdb
     RDKit          3D

 27 28  0  0  1  0  0  0  0  0999 V2000
    9.6728  -14.2308   16.4880 C   0  0  0  0  0  0  0  0  0  0  0  0
    9.4211  -14.6190   17.9167 C   0  0  1  0  0  0  0  0  0  0  0  0
   10.3915  -13.9988   18.7020 O   0  0  0  0  0  0  0  0  0  0  0  0
    8.0770  -14.0870   18.4090 C   0  0  2  0  0  0  0  0  0  0  0  0
    8.0259  -12.6885   18.1529 N   0  0  0  0  0  0  0  0  0  0  0  0
    7.7970  -14.4740   19.7785 C   0  0  0  0  0  0  0  0  0  0  0  0
    8.0938  -13.6708   20.6988 O   0  0  0  0  0  0  0  0  0  0  0  0
    7.2034  -15.7109   20.1450 N   0  0  0  0  0  0  0  0  0  0  0  0
    6.7521  -16.7211   19.2439 C   0  0  0  0  0  0  0  0  0  0  0  0
    6.8445  -18.0175   20.0386 C   0  0  0  0  0  0  0  0  0  0  0  0
    6.3147  -17.5079   21.3859 C   0  0  0  0  0  0  0  0  0  0  0  0
    6.9195  -16.1432   21.5058 C   0  0  1  0  0  0  0  0  0  0  0  0
    8.1533  -16.1452   22.3378 C   0  0  0  0  0  0  0  0  0  0  0  0
    9.2924  -16.4329   21.8674 O   0  0  0  0  0  0  0  0  0  0  0  0
    5.1952  -11.6913   27.4752 O   0  0  0  0  0  0  0  0  0  0  0  0
    6.2267  -12.3272   26.7727 C   0  0  0  0  0  0  0  0  0  0  0  0
    7.3755  -12.6657   27.4605 C   0  0  0  0  0  0  0  0  0  0  0  0
    8.4218  -13.2917   26.8230 C   0  0  0  0  0  0  0  0  0  0  0  0
    8.3449  -13.5941   25.4844 C   0  0  0  0  0  0  0  0  0  0  0  0
    9.4960  -14.2646   24.8343 C   0  0  0  0  0  0  0  0  0  0  0  0
    9.2575  -15.7396   24.5789 C   0  0  2  0  0  0  0  0  0  0  0  0
    8.0884  -15.8195   23.7057 N   0  0  0  0  0  0  0  0  0  0  0  0
    9.0673  -16.5213   25.8110 C   0  0  0  0  0  0  0  0  0  0  0  0
    7.8698  -17.1670   26.0728 O   0  0  0  0  0  0  0  0  0  0  0  0
    7.1998  -13.2550   24.8043 C   0  0  0  0  0  0  0  0  0  0  0  0
    6.1626  -12.6332   25.4415 C   0  0  0  0  0  0  0  0  0  0  0  0
    9.9701  -16.6486   26.6909 O   0  0  0  0  0  0  0  0  0  0  0  0
  2  1  1  6
  2  3  1  0
  4  2  1  0
  4  5  1  1
  6  7  2  0
  6  4  1  0
  8  6  1  0
  9  8  1  0
 10  9  1  0
 11 10  1  0
 11 12  1  0
 12  8  1  0
 13 22  1  0
 12 13  1  1
 14 13  2  0
 16 15  1  0
 17 16  2  0
 18 17  1  0
 19 25  1  0
 19 18  2  0
 21 20  1  1
 20 19  1  0
 21 22  1  0
 23 21  1  0
 24 23  1  0
 25 26  2  0
 26 16  1  0
 27 23  2  0
M  END
$$$$
