TPY.pdb
     RDKit          3D

 27 28  0  0  1  0  0  0  0  0999 V2000
    6.6889  -18.9887   18.2640 C   0  0  0  0  0  0  0  0  0  0  0  0
    7.4154  -18.1944   19.3112 C   0  0  1  0  0  0  0  0  0  0  0  0
    8.3081  -19.0526   19.9511 O   0  0  0  0  0  0  0  0  0  0  0  0
    8.2663  -17.0929   18.6829 C   0  0  2  0  0  0  0  0  0  0  0  0
    9.1236  -17.6846   17.7139 N   0  0  0  0  0  0  0  0  0  0  0  0
    8.9320  -16.2732   19.6771 C   0  0  0  0  0  0  0  0  0  0  0  0
   10.0045  -16.6957   20.1787 O   0  0  0  0  0  0  0  0  0  0  0  0
    8.4446  -15.0151   20.1197 N   0  0  0  0  0  0  0  0  0  0  0  0
    7.4006  -14.2602   19.5061 C   0  0  0  0  0  0  0  0  0  0  0  0
    6.8143  -13.4221   20.6352 C   0  0  0  0  0  0  0  0  0  0  0  0
    8.1200  -13.0210   21.3353 C   0  0  0  0  0  0  0  0  0  0  0  0
    8.9544  -14.2621   21.2565 C   0  0  1  0  0  0  0  0  0  0  0  0
    8.8878  -15.0657   22.5072 C   0  0  0  0  0  0  0  0  0  0  0  0
    8.0134  -15.9606   22.6969 O   0  0  0  0  0  0  0  0  0  0  0  0
    5.6260  -11.1953   27.1755 O   0  0  0  0  0  0  0  0  0  0  0  0
    6.2255  -12.3495   26.6554 C   0  0  0  0  0  0  0  0  0  0  0  0
    7.6030  -12.3880   26.5655 C   0  0  0  0  0  0  0  0  0  0  0  0
    8.2473  -13.4949   26.0628 C   0  0  0  0  0  0  0  0  0  0  0  0
    7.5308  -14.5885   25.6387 C   0  0  0  0  0  0  0  0  0  0  0  0
    8.2629  -15.7591   25.0993 C   0  0  0  0  0  0  0  0  0  0  0  0
    9.7330  -15.4801   24.8567 C   0  0  2  0  0  0  0  0  0  0  0  0
    9.8177  -14.8488   23.5415 N   0  0  0  0  0  0  0  0  0  0  0  0
   10.5754  -16.6840   24.9346 C   0  0  0  0  0  0  0  0  0  0  0  0
   11.0733  -17.2860   23.7903 O   0  0  0  0  0  0  0  0  0  0  0  0
    6.1602  -14.5452   25.7299 C   0  0  0  0  0  0  0  0  0  0  0  0
    5.5241  -13.4436   26.2300 C   0  0  0  0  0  0  0  0  0  0  0  0
   10.8905  -17.2332   26.0322 O   0  0  0  0  0  0  0  0  0  0  0  0
  2  1  1  6
  2  3  1  0
  4  2  1  0
  4  5  1  6
  6  7  2  0
  6  4  1  0
  8  6  1  0
  9  8  1  0
 10  9  1  0
 11 10  1  0
 11 12  1  0
 12  8  1  0
 13 22  1  0
 12 13  1  1
 14 13  2  0
 16 15  1  0
 17 16  2  0
 18 17  1  0
 19 25  1  0
 19 18  2  0
 21 20  1  6
 20 19  1  0
 21 22  1  0
 23 21  1  0
 24 23  1  0
 25 26  2  0
 26 16  1  0
 27 23  2  0
M  END
$$$$
