RWC.pdb
     RDKit          3D

 32 33  0  0  1  0  0  0  0  0999 V2000
    7.8060  -22.4400   17.5482 N   0  0  0  0  0  0  0  0  0  0  0  0
    6.9929  -22.5710   18.7207 C   0  0  0  0  0  0  0  0  0  0  0  0
    5.7473  -22.8434   18.5543 N   0  0  0  0  0  0  0  0  0  0  0  0
    7.5352  -22.4076   20.0237 N   0  0  0  0  0  0  0  0  0  0  0  0
    8.9397  -22.0905   20.1994 C   0  0  0  0  0  0  0  0  0  0  0  0
    9.2052  -20.6706   19.7904 C   0  0  0  0  0  0  0  0  0  0  0  0
    8.4120  -19.6852   20.5737 C   0  0  0  0  0  0  0  0  0  0  0  0
    8.5417  -18.3021   20.0552 C   0  0  2  0  0  0  0  0  0  0  0  0
    9.3680  -18.1434   18.9153 N   0  0  0  0  0  0  0  0  0  0  0  0
    8.9855  -17.4440   21.2099 C   0  0  0  0  0  0  0  0  0  0  0  0
   10.2578  -17.3893   21.3477 O   0  0  0  0  0  0  0  0  0  0  0  0
    5.0718  -22.8985   19.3206 N   0  0  0  0  0  0  0  0  0  0  0  0
    8.1146  -16.7598   22.0668 C   0  0  2  0  0  0  0  0  0  0  0  0
    8.6085  -15.8542   23.1083 C   0  0  0  0  0  0  0  0  0  0  0  0
    7.6347  -14.7593   23.3593 C   0  0  0  0  0  0  0  0  0  0  0  0
    8.0617  -13.8591   24.4346 C   0  0  0  0  0  0  0  0  0  0  0  0
    9.3479  -13.3309   24.6250 N   0  0  0  0  0  0  0  0  0  0  0  0
    9.4179  -12.5858   25.7123 C   0  0  0  0  0  0  0  0  0  0  0  0
    8.2034  -12.5970   26.2638 C   0  0  0  0  0  0  0  0  0  0  0  0
    7.7592  -11.9529   27.4021 C   0  0  0  0  0  0  0  0  0  0  0  0
    6.4386  -12.0982   27.7613 C   0  0  0  0  0  0  0  0  0  0  0  0
    5.5543  -12.8524   27.0373 C   0  0  0  0  0  0  0  0  0  0  0  0
    6.0067  -13.4902   25.9063 C   0  0  0  0  0  0  0  0  0  0  0  0
    7.3370  -13.3610   25.5211 C   0  0  0  0  0  0  0  0  0  0  0  0
    8.9755  -16.5619   24.3152 O   0  0  0  0  0  0  0  0  0  0  0  0
    8.2381  -17.4491   24.8352 N   0  0  0  0  0  0  0  0  0  0  0  0
   10.1952  -16.3413   25.0440 C   0  0  1  0  0  0  0  0  0  0  0  0
   10.6365  -17.1759   26.1142 C   0  0  0  0  0  0  0  0  0  0  0  0
   12.1066  -17.5026   26.0642 S   0  0  0  0  0  0  0  0  0  0  0  0
   12.6931  -17.9658   24.4359 C   0  0  0  0  0  0  0  0  0  0  0  0
   10.2867  -16.6259   27.4248 O   0  0  0  0  0  0  0  0  0  0  0  0
   10.5905  -17.2993   28.6121 O   0  0  0  0  0  0  0  0  0  0  0  0
  2  1  1  0
  2  3  2  0
  4  2  1  0
  5  4  1  0
  6  5  1  0
  7  6  1  0
  8  7  1  0
  8  9  1  6
 10  8  1  0
 10 11  2  0
 12 10  1  0
 13 12  1  0
 13 14  1  6
 14 15  1  0
 15 16  2  0
 16 17  1  0
 18 17  1  0
 19 18  2  0
 20 19  1  0
 21 22  1  0
 21 20  2  0
 22 23  2  0
 23 15  1  0
 23 18  1  0
 24 13  1  0
 25 24  2  0
 26 24  1  0
 27 28  1  1
 27 26  1  0
 28 29  1  0
 30 27  1  0
 31 30  1  0
 32 30  2  0
M  END
$$$$
