RWC.pdb
     RDKit          3D

 32 33  0  0  1  0  0  0  0  0999 V2000
    9.5369  -14.4559   16.6647 N   0  0  0  0  0  0  0  0  0  0  0  0
    8.2324  -13.9032   16.4510 C   0  0  0  0  0  0  0  0  0  0  0  0
    8.0455  -13.2140   15.3816 N   0  0  0  0  0  0  0  0  0  0  0  0
    7.1779  -14.1046   17.3816 N   0  0  0  0  0  0  0  0  0  0  0  0
    7.1342  -13.3450   18.6166 C   0  0  0  0  0  0  0  0  0  0  0  0
    8.2315  -13.7919   19.5387 C   0  0  0  0  0  0  0  0  0  0  0  0
    7.7216  -14.5012   20.7431 C   0  0  0  0  0  0  0  0  0  0  0  0
    8.3965  -15.8015   20.9718 C   0  0  2  0  0  0  0  0  0  0  0  0
    7.5591  -16.9443   20.9583 N   0  0  0  0  0  0  0  0  0  0  0  0
    9.1689  -15.6711   22.2575 C   0  0  0  0  0  0  0  0  0  0  0  0
   10.1885  -14.9011   22.1662 O   0  0  0  0  0  0  0  0  0  0  0  0
    7.1264  -12.8927   15.0678 N   0  0  0  0  0  0  0  0  0  0  0  0
    8.8294  -16.3170   23.4527 C   0  0  1  0  0  0  0  0  0  0  0  0
    9.6547  -16.1955   24.6580 C   0  0  0  0  0  0  0  0  0  0  0  0
    8.8169  -16.2943   25.8822 C   0  0  0  0  0  0  0  0  0  0  0  0
    7.6827  -15.3658   25.8667 C   0  0  0  0  0  0  0  0  0  0  0  0
    6.3394  -15.6869   25.6173 N   0  0  0  0  0  0  0  0  0  0  0  0
    5.5665  -14.6171   25.6336 C   0  0  0  0  0  0  0  0  0  0  0  0
    6.3589  -13.5752   25.8903 C   0  0  0  0  0  0  0  0  0  0  0  0
    6.0252  -12.2421   26.0294 C   0  0  0  0  0  0  0  0  0  0  0  0
    7.0273  -11.3453   26.3223 C   0  0  0  0  0  0  0  0  0  0  0  0
    8.3341  -11.7225   26.4800 C   0  0  0  0  0  0  0  0  0  0  0  0
    8.6559  -13.0518   26.3387 C   0  0  0  0  0  0  0  0  0  0  0  0
    7.6628  -13.9792   26.0417 C   0  0  0  0  0  0  0  0  0  0  0  0
   10.7569  -17.1322   24.6592 O   0  0  0  0  0  0  0  0  0  0  0  0
   10.6126  -18.3537   24.3616 N   0  0  0  0  0  0  0  0  0  0  0  0
   12.1125  -16.7869   24.9914 C   0  0  1  0  0  0  0  0  0  0  0  0
   13.1980  -17.7119   24.9371 C   0  0  0  0  0  0  0  0  0  0  0  0
   14.4867  -17.1088   24.4413 S   0  0  0  0  0  0  0  0  0  0  0  0
   14.4938  -15.3171   24.4309 C   0  0  0  0  0  0  0  0  0  0  0  0
   13.4165  -18.3839   26.2190 O   0  0  0  0  0  0  0  0  0  0  0  0
   14.4168  -19.3467   26.3858 O   0  0  0  0  0  0  0  0  0  0  0  0
  2  1  1  0
  2  3  2  0
  4  2  1  0
  5  4  1  0
  6  5  1  0
  7  6  1  0
  8  7  1  0
  8  9  1  1
 10  8  1  0
 10 11  2  0
 12 10  1  0
 13 12  1  0
 13 14  1  1
 14 15  1  0
 15 16  2  0
 16 17  1  0
 18 17  1  0
 19 18  2  0
 20 19  1  0
 21 22  1  0
 21 20  2  0
 22 23  2  0
 23 15  1  0
 23 18  1  0
 24 13  1  0
 25 24  2  0
 26 24  1  0
 27 28  1  1
 27 26  1  0
 28 29  1  0
 30 27  1  0
 31 30  1  0
 32 30  2  0
M  END
$$$$
