RWC.pdb
     RDKit          3D

 32 33  0  0  1  0  0  0  0  0999 V2000
    8.3372  -12.6724   15.0571 N   0  0  0  0  0  0  0  0  0  0  0  0
    8.2571  -13.6862   16.0665 C   0  0  0  0  0  0  0  0  0  0  0  0
    8.8818  -14.7897   15.8531 N   0  0  0  0  0  0  0  0  0  0  0  0
    7.5166  -13.4876   17.2626 N   0  0  0  0  0  0  0  0  0  0  0  0
    7.3454  -14.5738   18.2086 C   0  0  0  0  0  0  0  0  0  0  0  0
    8.5798  -14.7278   19.0493 C   0  0  0  0  0  0  0  0  0  0  0  0
    8.3451  -14.4124   20.4843 C   0  0  0  0  0  0  0  0  0  0  0  0
    7.8451  -15.5772   21.2535 C   0  0  2  0  0  0  0  0  0  0  0  0
    6.4611  -15.8533   21.1290 N   0  0  0  0  0  0  0  0  0  0  0  0
    8.2618  -15.3654   22.6846 C   0  0  0  0  0  0  0  0  0  0  0  0
    7.8100  -14.2805   23.1941 O   0  0  0  0  0  0  0  0  0  0  0  0
    8.9576  -15.5407   16.5436 N   0  0  0  0  0  0  0  0  0  0  0  0
    9.0647  -16.2514   23.4136 C   0  0  1  0  0  0  0  0  0  0  0  0
    9.6107  -15.8972   24.7270 C   0  0  0  0  0  0  0  0  0  0  0  0
    8.6236  -16.1816   25.8018 C   0  0  0  0  0  0  0  0  0  0  0  0
    7.4699  -15.2781   25.7626 C   0  0  0  0  0  0  0  0  0  0  0  0
    6.1443  -15.6235   25.4574 N   0  0  0  0  0  0  0  0  0  0  0  0
    5.3472  -14.5714   25.4662 C   0  0  0  0  0  0  0  0  0  0  0  0
    6.1059  -13.5178   25.7723 C   0  0  0  0  0  0  0  0  0  0  0  0
    5.7372  -12.1955   25.9251 C   0  0  0  0  0  0  0  0  0  0  0  0
    6.7073  -11.2830   26.2723 C   0  0  0  0  0  0  0  0  0  0  0  0
    8.0156  -11.6346   26.4707 C   0  0  0  0  0  0  0  0  0  0  0  0
    8.3725  -12.9533   26.3154 C   0  0  0  0  0  0  0  0  0  0  0  0
    7.4122  -13.8961   25.9638 C   0  0  0  0  0  0  0  0  0  0  0  0
   10.8936  -16.5197   24.9687 O   0  0  0  0  0  0  0  0  0  0  0  0
   11.2667  -17.5672   24.3646 N   0  0  0  0  0  0  0  0  0  0  0  0
   11.8691  -16.0277   25.9034 C   0  0  2  0  0  0  0  0  0  0  0  0
   11.8973  -16.3966   27.2817 C   0  0  0  0  0  0  0  0  0  0  0  0
   10.7343  -15.8636   28.0778 S   0  0  0  0  0  0  0  0  0  0  0  0
   11.2142  -14.9455   29.5396 C   0  0  0  0  0  0  0  0  0  0  0  0
   12.0117  -17.8443   27.4644 O   0  0  0  0  0  0  0  0  0  0  0  0
   13.0672  -18.4161   28.1817 O   0  0  0  0  0  0  0  0  0  0  0  0
  2  1  1  0
  2  3  2  0
  4  2  1  0
  5  4  1  0
  6  5  1  0
  7  6  1  0
  8  7  1  0
  8  9  1  1
 10  8  1  0
 10 11  2  0
 12 10  1  0
 13 12  1  0
 13 14  1  1
 14 15  1  0
 15 16  2  0
 16 17  1  0
 18 17  1  0
 19 18  2  0
 20 19  1  0
 21 22  1  0
 21 20  2  0
 22 23  2  0
 23 15  1  0
 23 18  1  0
 24 13  1  0
 25 24  2  0
 26 24  1  0
 27 28  1  6
 27 26  1  0
 28 29  1  0
 30 27  1  0
 31 30  1  0
 32 30  2  0
M  END
$$$$
