RWC.pdb
     RDKit          3D

 32 33  0  0  1  0  0  0  0  0999 V2000
   11.0517  -20.9458   17.5293 N   0  0  0  0  0  0  0  0  0  0  0  0
   11.5553  -21.0038   18.8695 C   0  0  0  0  0  0  0  0  0  0  0  0
   12.3864  -21.9430   19.1533 N   0  0  0  0  0  0  0  0  0  0  0  0
   11.1562  -20.0616   19.8551 N   0  0  0  0  0  0  0  0  0  0  0  0
   10.2717  -18.9658   19.5072 C   0  0  0  0  0  0  0  0  0  0  0  0
   10.0670  -18.0688   20.6936 C   0  0  0  0  0  0  0  0  0  0  0  0
    8.7058  -18.1897   21.2820 C   0  0  0  0  0  0  0  0  0  0  0  0
    8.0636  -16.8742   21.5178 C   0  0  2  0  0  0  0  0  0  0  0  0
    7.8870  -16.0576   20.3736 N   0  0  0  0  0  0  0  0  0  0  0  0
    8.8599  -16.1878   22.5955 C   0  0  0  0  0  0  0  0  0  0  0  0
    9.5572  -15.2021   22.1677 O   0  0  0  0  0  0  0  0  0  0  0  0
   12.8137  -22.0624   20.0751 N   0  0  0  0  0  0  0  0  0  0  0  0
    8.8581  -16.5679   23.9433 C   0  0  1  0  0  0  0  0  0  0  0  0
    9.6850  -15.8821   24.9406 C   0  0  0  0  0  0  0  0  0  0  0  0
    8.9515  -15.7411   26.2260 C   0  0  0  0  0  0  0  0  0  0  0  0
    7.7817  -14.8646   26.1155 C   0  0  0  0  0  0  0  0  0  0  0  0
    6.4589  -15.2594   25.8625 N   0  0  0  0  0  0  0  0  0  0  0  0
    5.6436  -14.2245   25.7807 C   0  0  0  0  0  0  0  0  0  0  0  0
    6.3872  -13.1341   25.9743 C   0  0  0  0  0  0  0  0  0  0  0  0
    5.9972  -11.8094   26.0043 C   0  0  0  0  0  0  0  0  0  0  0  0
    6.9550  -10.8520   26.2495 C   0  0  0  0  0  0  0  0  0  0  0  0
    8.2716  -11.1615   26.4635 C   0  0  0  0  0  0  0  0  0  0  0  0
    8.6497  -12.4830   26.4307 C   0  0  0  0  0  0  0  0  0  0  0  0
    7.7021  -13.4708   26.1840 C   0  0  0  0  0  0  0  0  0  0  0  0
   10.9771  -16.5118   25.1017 O   0  0  0  0  0  0  0  0  0  0  0  0
   11.9213  -15.9725   25.7490 N   0  0  0  0  0  0  0  0  0  0  0  0
   11.3259  -17.7954   24.5559 C   0  0  1  0  0  0  0  0  0  0  0  0
   12.5200  -18.4991   24.8962 C   0  0  0  0  0  0  0  0  0  0  0  0
   12.6596  -18.7834   26.3693 S   0  0  0  0  0  0  0  0  0  0  0  0
   11.2285  -19.5812   27.0942 C   0  0  0  0  0  0  0  0  0  0  0  0
   12.6710  -19.7358   24.1279 O   0  0  0  0  0  0  0  0  0  0  0  0
   11.6652  -20.2021   23.2756 O   0  0  0  0  0  0  0  0  0  0  0  0
  2  1  1  0
  2  3  2  0
  4  2  1  0
  5  4  1  0
  6  5  1  0
  7  6  1  0
  8  7  1  0
  8  9  1  6
 10  8  1  0
 10 11  2  0
 12 10  1  0
 13 12  1  0
 13 14  1  1
 14 15  1  0
 15 16  2  0
 16 17  1  0
 18 17  1  0
 19 18  2  0
 20 19  1  0
 21 22  1  0
 21 20  2  0
 22 23  2  0
 23 15  1  0
 23 18  1  0
 24 13  1  0
 25 24  2  0
 26 24  1  0
 27 28  1  6
 27 26  1  0
 28 29  1  0
 30 27  1  0
 31 30  1  0
 32 30  2  0
M  END
$$$$
