RWC.pdb
     RDKit          3D

 32 33  0  0  1  0  0  0  0  0999 V2000
    8.9687  -12.8148   17.2668 N   0  0  0  0  0  0  0  0  0  0  0  0
    8.1751  -13.6037   16.3719 C   0  0  0  0  0  0  0  0  0  0  0  0
    7.6974  -13.0221   15.3293 N   0  0  0  0  0  0  0  0  0  0  0  0
    7.9204  -14.9793   16.6200 N   0  0  0  0  0  0  0  0  0  0  0  0
    8.1399  -15.5398   17.9397 C   0  0  0  0  0  0  0  0  0  0  0  0
    7.3310  -14.7931   18.9606 C   0  0  0  0  0  0  0  0  0  0  0  0
    7.9815  -14.7543   20.2981 C   0  0  0  0  0  0  0  0  0  0  0  0
    8.1468  -16.1015   20.8950 C   0  0  2  0  0  0  0  0  0  0  0  0
    6.9510  -16.8202   21.1418 N   0  0  0  0  0  0  0  0  0  0  0  0
    8.9792  -15.9283   22.1375 C   0  0  0  0  0  0  0  0  0  0  0  0
   10.0862  -15.3179   21.9310 O   0  0  0  0  0  0  0  0  0  0  0  0
    7.1844  -13.5118   14.5922 N   0  0  0  0  0  0  0  0  0  0  0  0
    8.6050  -16.3801   23.4090 C   0  0  1  0  0  0  0  0  0  0  0  0
    9.4575  -16.1749   24.5837 C   0  0  0  0  0  0  0  0  0  0  0  0
    8.6456  -16.1685   25.8291 C   0  0  0  0  0  0  0  0  0  0  0  0
    7.5335  -15.2150   25.7734 C   0  0  0  0  0  0  0  0  0  0  0  0
    6.1690  -15.5238   25.6618 N   0  0  0  0  0  0  0  0  0  0  0  0
    5.4225  -14.4372   25.5942 C   0  0  0  0  0  0  0  0  0  0  0  0
    6.2539  -13.3961   25.6586 C   0  0  0  0  0  0  0  0  0  0  0  0
    5.9601  -12.0465   25.6478 C   0  0  0  0  0  0  0  0  0  0  0  0
    7.0000  -11.1510   25.7521 C   0  0  0  0  0  0  0  0  0  0  0  0
    8.3064  -11.5451   25.8654 C   0  0  0  0  0  0  0  0  0  0  0  0
    8.5883  -12.8908   25.8743 C   0  0  0  0  0  0  0  0  0  0  0  0
    7.5564  -13.8175   25.7694 C   0  0  0  0  0  0  0  0  0  0  0  0
   10.5501  -17.1212   24.6349 O   0  0  0  0  0  0  0  0  0  0  0  0
   10.4002  -18.3492   24.3686 N   0  0  0  0  0  0  0  0  0  0  0  0
   11.9017  -16.7792   24.9864 C   0  0  1  0  0  0  0  0  0  0  0  0
   12.9759  -17.7187   24.9962 C   0  0  0  0  0  0  0  0  0  0  0  0
   14.1674  -17.2887   24.1802 S   0  0  0  0  0  0  0  0  0  0  0  0
   14.2375  -15.5254   23.8699 C   0  0  0  0  0  0  0  0  0  0  0  0
   13.3946  -18.0658   26.3551 O   0  0  0  0  0  0  0  0  0  0  0  0
   12.7778  -17.5116   27.4811 O   0  0  0  0  0  0  0  0  0  0  0  0
  2  1  1  0
  2  3  2  0
  4  2  1  0
  5  4  1  0
  6  5  1  0
  7  6  1  0
  8  7  1  0
  8  9  1  1
 10  8  1  0
 10 11  2  0
 12 10  1  0
 13 12  1  0
 13 14  1  6
 14 15  1  0
 15 16  2  0
 16 17  1  0
 18 17  1  0
 19 18  2  0
 20 19  1  0
 21 22  1  0
 21 20  2  0
 22 23  2  0
 23 15  1  0
 23 18  1  0
 24 13  1  0
 25 24  2  0
 26 24  1  0
 27 28  1  1
 27 26  1  0
 28 29  1  0
 30 27  1  0
 31 30  1  0
 32 30  2  0
M  END
$$$$
