RWC.pdb
     RDKit          3D

 32 33  0  0  1  0  0  0  0  0999 V2000
    8.0126  -12.6239   16.5437 N   0  0  0  0  0  0  0  0  0  0  0  0
    7.8361  -13.8937   15.9037 C   0  0  0  0  0  0  0  0  0  0  0  0
    7.5803  -13.8950   14.6436 N   0  0  0  0  0  0  0  0  0  0  0  0
    7.9385  -15.1118   16.6278 N   0  0  0  0  0  0  0  0  0  0  0  0
    8.5089  -15.1270   17.9613 C   0  0  0  0  0  0  0  0  0  0  0  0
    7.5395  -14.5399   18.9460 C   0  0  0  0  0  0  0  0  0  0  0  0
    8.0580  -14.5442   20.3406 C   0  0  0  0  0  0  0  0  0  0  0  0
    8.3768  -15.9071   20.8301 C   0  0  2  0  0  0  0  0  0  0  0  0
    7.2923  -16.8175   20.8764 N   0  0  0  0  0  0  0  0  0  0  0  0
    9.0466  -15.7435   22.1685 C   0  0  0  0  0  0  0  0  0  0  0  0
    9.9882  -14.8751   22.1670 O   0  0  0  0  0  0  0  0  0  0  0  0
    7.5338  -14.7446   14.0756 N   0  0  0  0  0  0  0  0  0  0  0  0
    8.6956  -16.4578   23.3207 C   0  0  1  0  0  0  0  0  0  0  0  0
    9.4218  -16.2928   24.5833 C   0  0  0  0  0  0  0  0  0  0  0  0
    8.4994  -16.4214   25.7420 C   0  0  0  0  0  0  0  0  0  0  0  0
    7.4641  -15.3837   25.7578 C   0  0  0  0  0  0  0  0  0  0  0  0
    6.0895  -15.5672   25.5423 N   0  0  0  0  0  0  0  0  0  0  0  0
    5.4286  -14.4252   25.5809 C   0  0  0  0  0  0  0  0  0  0  0  0
    6.3280  -13.4694   25.8194 C   0  0  0  0  0  0  0  0  0  0  0  0
    6.1336  -12.1102   25.9700 C   0  0  0  0  0  0  0  0  0  0  0  0
    7.2277  -11.3199   26.2390 C   0  0  0  0  0  0  0  0  0  0  0  0
    8.4936  -11.8272   26.3622 C   0  0  0  0  0  0  0  0  0  0  0  0
    8.6766  -13.1813   26.2097 C   0  0  0  0  0  0  0  0  0  0  0  0
    7.5881  -14.0030   25.9363 C   0  0  0  0  0  0  0  0  0  0  0  0
   10.5607  -17.1796   24.6756 O   0  0  0  0  0  0  0  0  0  0  0  0
   10.5176  -18.3851   24.2932 N   0  0  0  0  0  0  0  0  0  0  0  0
   11.8435  -16.7980   25.2010 C   0  0  1  0  0  0  0  0  0  0  0  0
   12.9545  -17.6889   25.2940 C   0  0  0  0  0  0  0  0  0  0  0  0
   14.2638  -17.0744   24.8716 S   0  0  0  0  0  0  0  0  0  0  0  0
   14.1825  -16.1883   23.3165 C   0  0  0  0  0  0  0  0  0  0  0  0
   13.0812  -18.2774   26.6282 O   0  0  0  0  0  0  0  0  0  0  0  0
   14.0862  -19.2001   26.9349 O   0  0  0  0  0  0  0  0  0  0  0  0
  2  1  1  0
  2  3  2  0
  4  2  1  0
  5  4  1  0
  6  5  1  0
  7  6  1  0
  8  7  1  0
  8  9  1  1
 10  8  1  0
 10 11  2  0
 12 10  1  0
 13 12  1  0
 13 14  1  6
 14 15  1  0
 15 16  2  0
 16 17  1  0
 18 17  1  0
 19 18  2  0
 20 19  1  0
 21 22  1  0
 21 20  2  0
 22 23  2  0
 23 15  1  0
 23 18  1  0
 24 13  1  0
 25 24  2  0
 26 24  1  0
 27 28  1  1
 27 26  1  0
 28 29  1  0
 30 27  1  0
 31 30  1  0
 32 30  2  0
M  END
$$$$
