RWC.pdb
     RDKit          3D

 32 33  0  0  1  0  0  0  0  0999 V2000
    7.2730  -13.9651   15.5466 N   0  0  0  0  0  0  0  0  0  0  0  0
    8.5821  -14.1975   16.0808 C   0  0  0  0  0  0  0  0  0  0  0  0
    9.4723  -14.6787   15.2874 N   0  0  0  0  0  0  0  0  0  0  0  0
    8.8937  -13.9095   17.4367 N   0  0  0  0  0  0  0  0  0  0  0  0
    7.8728  -13.3990   18.3317 C   0  0  0  0  0  0  0  0  0  0  0  0
    7.0464  -14.5295   18.8732 C   0  0  0  0  0  0  0  0  0  0  0  0
    7.1456  -14.6618   20.3518 C   0  0  0  0  0  0  0  0  0  0  0  0
    7.6288  -15.9976   20.7772 C   0  0  2  0  0  0  0  0  0  0  0  0
    6.6263  -16.9386   21.1188 N   0  0  0  0  0  0  0  0  0  0  0  0
    8.6081  -15.7699   21.8978 C   0  0  0  0  0  0  0  0  0  0  0  0
    9.5638  -14.9750   21.5888 O   0  0  0  0  0  0  0  0  0  0  0  0
   10.4598  -14.7763   15.5359 N   0  0  0  0  0  0  0  0  0  0  0  0
    8.5092  -16.3566   23.1655 C   0  0  1  0  0  0  0  0  0  0  0  0
    9.5273  -16.1416   24.1979 C   0  0  0  0  0  0  0  0  0  0  0  0
    8.9406  -16.2918   25.5556 C   0  0  0  0  0  0  0  0  0  0  0  0
    7.8327  -15.3630   25.7980 C   0  0  0  0  0  0  0  0  0  0  0  0
    6.4633  -15.6703   25.7876 N   0  0  0  0  0  0  0  0  0  0  0  0
    5.7177  -14.6021   26.0009 C   0  0  0  0  0  0  0  0  0  0  0  0
    6.5545  -13.5751   26.1569 C   0  0  0  0  0  0  0  0  0  0  0  0
    6.2660  -12.2506   26.4218 C   0  0  0  0  0  0  0  0  0  0  0  0
    7.3140  -11.3704   26.5671 C   0  0  0  0  0  0  0  0  0  0  0  0
    8.6234  -11.7559   26.4595 C   0  0  0  0  0  0  0  0  0  0  0  0
    8.9000  -13.0765   26.1947 C   0  0  0  0  0  0  0  0  0  0  0  0
    7.8597  -13.9871   26.0423 C   0  0  0  0  0  0  0  0  0  0  0  0
   10.6905  -16.9775   23.9972 O   0  0  0  0  0  0  0  0  0  0  0  0
   10.6159  -18.1417   23.5068 N   0  0  0  0  0  0  0  0  0  0  0  0
   12.0348  -16.5868   24.3253 C   0  0  1  0  0  0  0  0  0  0  0  0
   13.1812  -17.3864   24.0372 C   0  0  0  0  0  0  0  0  0  0  0  0
   13.7413  -17.1707   22.6551 S   0  0  0  0  0  0  0  0  0  0  0  0
   14.3345  -15.5055   22.3631 C   0  0  0  0  0  0  0  0  0  0  0  0
   14.2354  -17.2229   25.0393 O   0  0  0  0  0  0  0  0  0  0  0  0
   15.4294  -17.9483   24.9788 O   0  0  0  0  0  0  0  0  0  0  0  0
  2  1  1  0
  2  3  2  0
  4  2  1  0
  5  4  1  0
  6  5  1  0
  7  6  1  0
  8  7  1  0
  8  9  1  1
 10  8  1  0
 10 11  2  0
 12 10  1  0
 13 12  1  0
 13 14  1  1
 14 15  1  0
 15 16  2  0
 16 17  1  0
 18 17  1  0
 19 18  2  0
 20 19  1  0
 21 22  1  0
 21 20  2  0
 22 23  2  0
 23 15  1  0
 23 18  1  0
 24 13  1  0
 25 24  2  0
 26 24  1  0
 27 28  1  1
 27 26  1  0
 28 29  1  0
 30 27  1  0
 31 30  1  0
 32 30  2  0
M  END
$$$$
