RWC.pdb
     RDKit          3D

 32 33  0  0  1  0  0  0  0  0999 V2000
    8.8139  -15.7733   16.2147 N   0  0  0  0  0  0  0  0  0  0  0  0
    8.4843  -14.3909   16.0325 C   0  0  0  0  0  0  0  0  0  0  0  0
    8.2410  -13.9894   14.8354 N   0  0  0  0  0  0  0  0  0  0  0  0
    8.4262  -13.4896   17.1292 N   0  0  0  0  0  0  0  0  0  0  0  0
    9.1377  -13.7832   18.3587 C   0  0  0  0  0  0  0  0  0  0  0  0
    8.1914  -13.7557   19.5239 C   0  0  0  0  0  0  0  0  0  0  0  0
    8.2237  -15.0092   20.3249 C   0  0  0  0  0  0  0  0  0  0  0  0
    9.5901  -15.3667   20.7761 C   0  0  2  0  0  0  0  0  0  0  0  0
   10.2521  -16.3627   20.0164 N   0  0  0  0  0  0  0  0  0  0  0  0
    9.4863  -15.7306   22.2333 C   0  0  0  0  0  0  0  0  0  0  0  0
    9.5354  -16.9920   22.4506 O   0  0  0  0  0  0  0  0  0  0  0  0
    8.1009  -13.0076   14.5843 N   0  0  0  0  0  0  0  0  0  0  0  0
    9.3489  -14.8018   23.2722 C   0  0  2  0  0  0  0  0  0  0  0  0
    9.0550  -15.2178   24.6467 C   0  0  0  0  0  0  0  0  0  0  0  0
    7.6730  -15.7558   24.7501 C   0  0  0  0  0  0  0  0  0  0  0  0
    6.7270  -14.7806   25.3005 C   0  0  0  0  0  0  0  0  0  0  0  0
    5.3539  -14.9743   25.5172 N   0  0  0  0  0  0  0  0  0  0  0  0
    4.7714  -13.8864   25.9857 C   0  0  0  0  0  0  0  0  0  0  0  0
    5.7228  -12.9575   26.0923 C   0  0  0  0  0  0  0  0  0  0  0  0
    5.6229  -11.6590   26.5526 C   0  0  0  0  0  0  0  0  0  0  0  0
    6.7640  -10.8906   26.5922 C   0  0  0  0  0  0  0  0  0  0  0  0
    7.9867  -11.3620   26.1951 C   0  0  0  0  0  0  0  0  0  0  0  0
    8.0754  -12.6557   25.7377 C   0  0  0  0  0  0  0  0  0  0  0  0
    6.9374  -13.4538   25.6863 C   0  0  0  0  0  0  0  0  0  0  0  0
   10.0498  -16.1324   25.1626 O   0  0  0  0  0  0  0  0  0  0  0  0
   10.6303  -16.9888   24.4340 N   0  0  0  0  0  0  0  0  0  0  0  0
   10.4820  -16.1695   26.5335 C   0  0  1  0  0  0  0  0  0  0  0  0
   11.6684  -16.8325   26.9688 C   0  0  0  0  0  0  0  0  0  0  0  0
   12.4278  -16.0839   28.0333 S   0  0  0  0  0  0  0  0  0  0  0  0
   11.3830  -15.1537   29.1529 C   0  0  0  0  0  0  0  0  0  0  0  0
   11.4061  -18.2042   27.4072 O   0  0  0  0  0  0  0  0  0  0  0  0
   12.4427  -19.0927   27.7100 O   0  0  0  0  0  0  0  0  0  0  0  0
  2  1  1  0
  2  3  2  0
  4  2  1  0
  5  4  1  0
  6  5  1  0
  7  6  1  0
  8  7  1  0
  8  9  1  6
 10  8  1  0
 10 11  2  0
 12 10  1  0
 13 12  1  0
 13 14  1  1
 14 15  1  0
 15 16  2  0
 16 17  1  0
 18 17  1  0
 19 18  2  0
 20 19  1  0
 21 22  1  0
 21 20  2  0
 22 23  2  0
 23 15  1  0
 23 18  1  0
 24 13  1  0
 25 24  2  0
 26 24  1  0
 27 28  1  1
 27 26  1  0
 28 29  1  0
 30 27  1  0
 31 30  1  0
 32 30  2  0
M  END
$$$$
