RWC.pdb
     RDKit          3D

 32 33  0  0  1  0  0  0  0  0999 V2000
    8.2399  -15.3321   15.9363 N   0  0  0  0  0  0  0  0  0  0  0  0
    8.3877  -13.9148   16.0854 C   0  0  0  0  0  0  0  0  0  0  0  0
    8.2942  -13.1916   15.0263 N   0  0  0  0  0  0  0  0  0  0  0  0
    8.6291  -13.3217   17.3537 N   0  0  0  0  0  0  0  0  0  0  0  0
    7.5343  -13.0940   18.2775 C   0  0  0  0  0  0  0  0  0  0  0  0
    7.4689  -14.2036   19.2867 C   0  0  0  0  0  0  0  0  0  0  0  0
    8.7099  -14.3202   20.0992 C   0  0  0  0  0  0  0  0  0  0  0  0
    9.0238  -15.7212   20.4696 C   0  0  2  0  0  0  0  0  0  0  0  0
    7.9376  -16.6300   20.4306 N   0  0  0  0  0  0  0  0  0  0  0  0
    9.6866  -15.6765   21.8206 C   0  0  0  0  0  0  0  0  0  0  0  0
   10.7001  -14.8946   21.8680 O   0  0  0  0  0  0  0  0  0  0  0  0
    8.3662  -12.1711   15.0286 N   0  0  0  0  0  0  0  0  0  0  0  0
    9.2587  -16.4077   22.9356 C   0  0  1  0  0  0  0  0  0  0  0  0
    9.8862  -16.2490   24.2508 C   0  0  0  0  0  0  0  0  0  0  0  0
    9.7748  -14.8431   24.7213 C   0  0  0  0  0  0  0  0  0  0  0  0
    8.4048  -14.4794   25.0948 C   0  0  0  0  0  0  0  0  0  0  0  0
    7.2731  -15.3078   25.0418 N   0  0  0  0  0  0  0  0  0  0  0  0
    6.1775  -14.6681   25.4062 C   0  0  0  0  0  0  0  0  0  0  0  0
    6.5434  -13.4210   25.7066 C   0  0  0  0  0  0  0  0  0  0  0  0
    5.7670  -12.3717   26.1584 C   0  0  0  0  0  0  0  0  0  0  0  0
    6.3840  -11.1712   26.4270 C   0  0  0  0  0  0  0  0  0  0  0  0
    7.7300  -10.9793   26.2643 C   0  0  0  0  0  0  0  0  0  0  0  0
    8.4939  -12.0298   25.8134 C   0  0  0  0  0  0  0  0  0  0  0  0
    7.8955  -13.2538   25.5333 C   0  0  0  0  0  0  0  0  0  0  0  0
    9.3791  -17.2014   25.2140 O   0  0  0  0  0  0  0  0  0  0  0  0
    8.2520  -17.7628   25.0879 N   0  0  0  0  0  0  0  0  0  0  0  0
   10.0850  -17.6093   26.3983 C   0  0  1  0  0  0  0  0  0  0  0  0
   10.7077  -18.8849   26.5455 C   0  0  0  0  0  0  0  0  0  0  0  0
   11.6940  -19.2099   25.4538 S   0  0  0  0  0  0  0  0  0  0  0  0
   12.4358  -20.8339   25.6044 C   0  0  0  0  0  0  0  0  0  0  0  0
   11.3371  -19.0450   27.8573 O   0  0  0  0  0  0  0  0  0  0  0  0
   11.7695  -20.2915   28.3207 O   0  0  0  0  0  0  0  0  0  0  0  0
  2  1  1  0
  2  3  2  0
  4  2  1  0
  5  4  1  0
  6  5  1  0
  7  6  1  0
  8  7  1  0
  8  9  1  1
 10  8  1  0
 10 11  2  0
 12 10  1  0
 13 12  1  0
 13 14  1  1
 14 15  1  0
 15 16  2  0
 16 17  1  0
 18 17  1  0
 19 18  2  0
 20 19  1  0
 21 22  1  0
 21 20  2  0
 22 23  2  0
 23 15  1  0
 23 18  1  0
 24 13  1  0
 25 24  2  0
 26 24  1  0
 27 28  1  1
 27 26  1  0
 28 29  1  0
 30 27  1  0
 31 30  1  0
 32 30  2  0
M  END
$$$$
