RWC.pdb
     RDKit          3D

 32 33  0  0  1  0  0  0  0  0999 V2000
    6.8960  -14.9487   16.6581 N   0  0  0  0  0  0  0  0  0  0  0  0
    7.9239  -13.9584   16.5321 C   0  0  0  0  0  0  0  0  0  0  0  0
    7.6214  -12.8584   15.9388 N   0  0  0  0  0  0  0  0  0  0  0  0
    9.2323  -14.1758   17.0413 N   0  0  0  0  0  0  0  0  0  0  0  0
    9.4746  -14.1629   18.4714 C   0  0  0  0  0  0  0  0  0  0  0  0
    8.2345  -14.5752   19.2105 C   0  0  0  0  0  0  0  0  0  0  0  0
    8.4518  -14.7062   20.6766 C   0  0  0  0  0  0  0  0  0  0  0  0
    8.7809  -16.0927   21.0863 C   0  0  2  0  0  0  0  0  0  0  0  0
    7.7546  -17.0522   20.9035 N   0  0  0  0  0  0  0  0  0  0  0  0
    9.2551  -16.0242   22.5135 C   0  0  0  0  0  0  0  0  0  0  0  0
   10.2345  -15.2177   22.6893 O   0  0  0  0  0  0  0  0  0  0  0  0
    8.2855  -12.0952   15.7869 N   0  0  0  0  0  0  0  0  0  0  0  0
    8.6987  -16.7593   23.5676 C   0  0  1  0  0  0  0  0  0  0  0  0
    9.2332  -16.6818   24.9303 C   0  0  0  0  0  0  0  0  0  0  0  0
    8.1325  -16.6968   25.9294 C   0  0  0  0  0  0  0  0  0  0  0  0
    7.2234  -15.5559   25.7855 C   0  0  0  0  0  0  0  0  0  0  0  0
    5.8879  -15.5968   25.3559 N   0  0  0  0  0  0  0  0  0  0  0  0
    5.3539  -14.3912   25.2937 C   0  0  0  0  0  0  0  0  0  0  0  0
    6.3009  -13.5321   25.6738 C   0  0  0  0  0  0  0  0  0  0  0  0
    6.2304  -12.1581   25.7963 C   0  0  0  0  0  0  0  0  0  0  0  0
    7.3464  -11.4837   26.2366 C   0  0  0  0  0  0  0  0  0  0  0  0
    8.5163  -12.1195   26.5558 C   0  0  0  0  0  0  0  0  0  0  0  0
    8.5765  -13.4873   26.4296 C   0  0  0  0  0  0  0  0  0  0  0  0
    7.4634  -14.1936   25.9858 C   0  0  0  0  0  0  0  0  0  0  0  0
   10.2296  -17.6994   25.1825 O   0  0  0  0  0  0  0  0  0  0  0  0
   10.6338  -18.4939   24.2842 N   0  0  0  0  0  0  0  0  0  0  0  0
   10.8600  -17.9173   26.4562 C   0  0  1  0  0  0  0  0  0  0  0  0
   12.0292  -18.7166   26.6311 C   0  0  0  0  0  0  0  0  0  0  0  0
   13.1987  -18.2759   25.7895 S   0  0  0  0  0  0  0  0  0  0  0  0
   14.4381  -19.5466   25.5454 C   0  0  0  0  0  0  0  0  0  0  0  0
   12.4277  -18.8135   28.0362 O   0  0  0  0  0  0  0  0  0  0  0  0
   13.4366  -19.6850   28.4584 O   0  0  0  0  0  0  0  0  0  0  0  0
  2  1  1  0
  2  3  2  0
  4  2  1  0
  5  4  1  0
  6  5  1  0
  7  6  1  0
  8  7  1  0
  8  9  1  1
 10  8  1  0
 10 11  2  0
 12 10  1  0
 13 12  1  0
 13 14  1  1
 14 15  1  0
 15 16  2  0
 16 17  1  0
 18 17  1  0
 19 18  2  0
 20 19  1  0
 21 22  1  0
 21 20  2  0
 22 23  2  0
 23 15  1  0
 23 18  1  0
 24 13  1  0
 25 24  2  0
 26 24  1  0
 27 28  1  1
 27 26  1  0
 28 29  1  0
 30 27  1  0
 31 30  1  0
 32 30  2  0
M  END
$$$$
