KAV.pdb
     RDKit          3D

 22 21  0  0  1  0  0  0  0  0999 V2000
    8.7298  -16.8711   20.5773 N   0  0  0  0  0  0  0  0  0  0  0  0
    8.8240  -15.5632   21.1549 C   0  0  1  0  0  0  0  0  0  0  0  0
    7.9198  -14.6095   20.4447 C   0  0  0  0  0  0  0  0  0  0  0  0
    8.2015  -14.4675   18.9946 C   0  0  0  0  0  0  0  0  0  0  0  0
    7.3387  -13.5237   18.2345 C   0  0  0  0  0  0  0  0  0  0  0  0
    7.6884  -13.4774   16.7493 C   0  0  0  0  0  0  0  0  0  0  0  0
    6.7521  -12.6058   16.0835 N   0  0  0  0  0  0  0  0  0  0  0  0
    8.6076  -15.5687   22.6239 C   0  0  0  0  0  0  0  0  0  0  0  0
    8.7593  -14.5056   23.2778 O   0  0  0  0  0  0  0  0  0  0  0  0
    7.4758  -18.0748   25.2694 C   0  0  0  0  0  0  0  0  0  0  0  0
    8.0747  -16.7670   24.7843 C   0  0  2  0  0  0  0  0  0  0  0  0
    8.2310  -16.7236   23.3599 N   0  0  0  0  0  0  0  0  0  0  0  0
    9.3365  -16.5419   25.5228 C   0  0  0  0  0  0  0  0  0  0  0  0
   10.4705  -16.8535   25.0972 O   0  0  0  0  0  0  0  0  0  0  0  0
    8.9857  -14.1330   29.0147 C   0  0  0  0  0  0  0  0  0  0  0  0
   10.2430  -14.2962   28.2025 C   0  0  2  0  0  0  0  0  0  0  0  0
   10.1877  -13.3088   27.0567 C   0  0  0  0  0  0  0  0  0  0  0  0
   10.4037  -15.6764   27.6342 C   0  0  2  0  0  0  0  0  0  0  0  0
    9.2466  -15.9318   26.7971 N   0  0  0  0  0  0  0  0  0  0  0  0
   10.4277  -16.7287   28.6785 C   0  0  0  0  0  0  0  0  0  0  0  0
   11.5502  -16.9953   29.4522 O   0  0  0  0  0  0  0  0  0  0  0  0
    9.4135  -17.4559   28.9302 O   0  0  0  0  0  0  0  0  0  0  0  0
  2  1  1  6
  2  8  1  0
  3  4  1  0
  3  2  1  0
  5  6  1  0
  5  4  1  0
  6  7  1  0
  8 12  1  0
  8  9  2  0
 11 10  1  6
 11 13  1  0
 12 11  1  0
 13 14  2  0
 16 17  1  6
 16 15  1  0
 16 18  1  0
 18 19  1  6
 19 13  1  0
 20 21  1  0
 20 18  1  0
 22 20  2  0
M  END
$$$$
