KAV.pdb
     RDKit          3D

 22 21  0  0  1  0  0  0  0  0999 V2000
    6.0175  -16.9084   20.1457 N   0  0  0  0  0  0  0  0  0  0  0  0
    6.9926  -16.1214   20.8406 C   0  0  1  0  0  0  0  0  0  0  0  0
    6.9692  -14.7086   20.3557 C   0  0  0  0  0  0  0  0  0  0  0  0
    7.8418  -14.4522   19.1831 C   0  0  0  0  0  0  0  0  0  0  0  0
    7.7840  -13.0887   18.5913 C   0  0  0  0  0  0  0  0  0  0  0  0
    8.6492  -12.9560   17.3407 C   0  0  0  0  0  0  0  0  0  0  0  0
    8.4761  -14.1390   16.5343 N   0  0  0  0  0  0  0  0  0  0  0  0
    6.8627  -16.2206   22.3165 C   0  0  0  0  0  0  0  0  0  0  0  0
    5.7849  -15.8830   22.8690 O   0  0  0  0  0  0  0  0  0  0  0  0
    8.2581  -18.0587   25.1744 C   0  0  0  0  0  0  0  0  0  0  0  0
    7.8227  -16.7228   24.5998 C   0  0  2  0  0  0  0  0  0  0  0  0
    7.9004  -16.6832   23.1688 N   0  0  0  0  0  0  0  0  0  0  0  0
    8.6127  -15.6623   25.2626 C   0  0  0  0  0  0  0  0  0  0  0  0
    9.7235  -15.2519   24.8604 O   0  0  0  0  0  0  0  0  0  0  0  0
    6.4994  -13.5398   28.2386 C   0  0  0  0  0  0  0  0  0  0  0  0
    7.6520  -12.9731   27.4529 C   0  0  2  0  0  0  0  0  0  0  0  0
    7.1056  -12.4373   26.1470 C   0  0  0  0  0  0  0  0  0  0  0  0
    8.7124  -13.9899   27.1438 C   0  0  2  0  0  0  0  0  0  0  0  0
    8.0681  -15.0767   26.4308 N   0  0  0  0  0  0  0  0  0  0  0  0
    9.3249  -14.5703   28.3630 C   0  0  0  0  0  0  0  0  0  0  0  0
    9.1086  -15.8833   28.7615 O   0  0  0  0  0  0  0  0  0  0  0  0
   10.0911  -13.8948   29.1230 O   0  0  0  0  0  0  0  0  0  0  0  0
  2  1  1  6
  2  8  1  0
  3  4  1  0
  3  2  1  0
  5  6  1  0
  5  4  1  0
  6  7  1  0
  8 12  1  0
  8  9  2  0
 11 10  1  1
 11 13  1  0
 12 11  1  0
 13 14  2  0
 16 17  1  6
 16 15  1  0
 16 18  1  0
 18 19  1  1
 19 13  1  0
 20 21  1  0
 20 18  1  0
 22 20  2  0
M  END
$$$$
