KAV.pdb
     RDKit          3D

 22 21  0  0  1  0  0  0  0  0999 V2000
    8.3357  -15.2083   19.5820 N   0  0  0  0  0  0  0  0  0  0  0  0
    7.6003  -15.6834   20.7163 C   0  0  1  0  0  0  0  0  0  0  0  0
    7.2528  -17.1267   20.5496 C   0  0  0  0  0  0  0  0  0  0  0  0
    6.6006  -17.4511   19.2567 C   0  0  0  0  0  0  0  0  0  0  0  0
    6.0798  -18.8355   19.0988 C   0  0  0  0  0  0  0  0  0  0  0  0
    5.3340  -19.0337   17.7816 C   0  0  0  0  0  0  0  0  0  0  0  0
    4.8039  -20.3745   17.7507 N   0  0  0  0  0  0  0  0  0  0  0  0
    8.2892  -15.4069   22.0023 C   0  0  0  0  0  0  0  0  0  0  0  0
    9.5165  -15.6560   22.1154 O   0  0  0  0  0  0  0  0  0  0  0  0
    7.3934  -13.9096   25.3945 C   0  0  0  0  0  0  0  0  0  0  0  0
    8.2461  -14.7185   24.4337 C   0  0  2  0  0  0  0  0  0  0  0  0
    7.6390  -14.8660   23.1434 N   0  0  0  0  0  0  0  0  0  0  0  0
    8.5682  -16.0073   25.0843 C   0  0  0  0  0  0  0  0  0  0  0  0
    7.7798  -16.9747   25.1665 O   0  0  0  0  0  0  0  0  0  0  0  0
   11.9403  -17.6936   24.2620 C   0  0  0  0  0  0  0  0  0  0  0  0
   11.7852  -17.5335   25.7510 C   0  0  2  0  0  0  0  0  0  0  0  0
   12.3775  -18.7582   26.4145 C   0  0  0  0  0  0  0  0  0  0  0  0
   10.3539  -17.4023   26.1848 C   0  0  2  0  0  0  0  0  0  0  0  0
    9.8582  -16.1480   25.6503 N   0  0  0  0  0  0  0  0  0  0  0  0
   10.2036  -17.3386   27.6584 C   0  0  0  0  0  0  0  0  0  0  0  0
   10.0890  -16.1404   28.3519 O   0  0  0  0  0  0  0  0  0  0  0  0
   10.1703  -18.3860   28.3815 O   0  0  0  0  0  0  0  0  0  0  0  0
  2  1  1  6
  2  8  1  0
  3  4  1  0
  3  2  1  0
  5  6  1  0
  5  4  1  0
  6  7  1  0
  8 12  1  0
  8  9  2  0
 11 10  1  1
 11 13  1  0
 12 11  1  0
 13 14  2  0
 16 17  1  1
 16 15  1  0
 16 18  1  0
 18 19  1  6
 19 13  1  0
 20 21  1  0
 20 18  1  0
 22 20  2  0
M  END
$$$$
