KAV.pdb
     RDKit          3D

 22 21  0  0  1  0  0  0  0  0999 V2000
    7.7091  -16.4349   18.8148 N   0  0  0  0  0  0  0  0  0  0  0  0
    8.2058  -15.3926   19.6634 C   0  0  1  0  0  0  0  0  0  0  0  0
    7.7158  -14.0598   19.1996 C   0  0  0  0  0  0  0  0  0  0  0  0
    8.4020  -13.5458   17.9884 C   0  0  0  0  0  0  0  0  0  0  0  0
    8.2504  -14.3456   16.7433 C   0  0  0  0  0  0  0  0  0  0  0  0
    9.0167  -13.7474   15.5663 C   0  0  0  0  0  0  0  0  0  0  0  0
    8.0655  -13.2810   14.5878 N   0  0  0  0  0  0  0  0  0  0  0  0
    7.9197  -15.6380   21.0996 C   0  0  0  0  0  0  0  0  0  0  0  0
    6.7392  -15.5440   21.5224 O   0  0  0  0  0  0  0  0  0  0  0  0
    9.4631  -17.4191   23.9697 C   0  0  0  0  0  0  0  0  0  0  0  0
    8.6587  -16.2463   23.4386 C   0  0  2  0  0  0  0  0  0  0  0  0
    8.9149  -15.9806   22.0534 N   0  0  0  0  0  0  0  0  0  0  0  0
    8.9118  -15.0844   24.3183 C   0  0  0  0  0  0  0  0  0  0  0  0
    9.8997  -14.3238   24.2190 O   0  0  0  0  0  0  0  0  0  0  0  0
    6.0583  -12.5868   25.1683 C   0  0  0  0  0  0  0  0  0  0  0  0
    6.6634  -13.1576   26.4234 C   0  0  2  0  0  0  0  0  0  0  0  0
    6.7032  -12.0575   27.4622 C   0  0  0  0  0  0  0  0  0  0  0  0
    8.0586  -13.6748   26.2239 C   0  0  2  0  0  0  0  0  0  0  0  0
    7.9674  -14.8214   25.3397 N   0  0  0  0  0  0  0  0  0  0  0  0
    8.6832  -14.1440   27.4841 C   0  0  0  0  0  0  0  0  0  0  0  0
    8.7974  -15.4890   27.8118 O   0  0  0  0  0  0  0  0  0  0  0  0
    9.1555  -13.3361   28.3473 O   0  0  0  0  0  0  0  0  0  0  0  0
  2  1  1  6
  2  8  1  0
  3  4  1  0
  3  2  1  0
  5  6  1  0
  5  4  1  0
  6  7  1  0
  8 12  1  0
  8  9  2  0
 11 10  1  1
 11 13  1  0
 12 11  1  0
 13 14  2  0
 16 17  1  1
 16 15  1  0
 16 18  1  0
 18 19  1  6
 19 13  1  0
 20 21  1  0
 20 18  1  0
 22 20  2  0
M  END
$$$$
