KAV.pdb
     RDKit          3D

 22 21  0  0  1  0  0  0  0  0999 V2000
    8.3469  -15.2514   19.2441 N   0  0  0  0  0  0  0  0  0  0  0  0
    7.4428  -15.3006   20.3546 C   0  0  1  0  0  0  0  0  0  0  0  0
    6.5696  -16.5096   20.2673 C   0  0  0  0  0  0  0  0  0  0  0  0
    7.2870  -17.7539   19.8944 C   0  0  0  0  0  0  0  0  0  0  0  0
    6.4534  -18.9655   19.6704 C   0  0  0  0  0  0  0  0  0  0  0  0
    7.2577  -20.1331   19.1047 C   0  0  0  0  0  0  0  0  0  0  0  0
    6.3680  -21.2504   18.9055 N   0  0  0  0  0  0  0  0  0  0  0  0
    8.1360  -15.1904   21.6631 C   0  0  0  0  0  0  0  0  0  0  0  0
    9.3149  -15.6123   21.7787 O   0  0  0  0  0  0  0  0  0  0  0  0
    7.3322  -13.8215   25.1366 C   0  0  0  0  0  0  0  0  0  0  0  0
    8.1671  -14.5689   24.1125 C   0  0  2  0  0  0  0  0  0  0  0  0
    7.5424  -14.6260   22.8234 N   0  0  0  0  0  0  0  0  0  0  0  0
    8.4890  -15.9002   24.6710 C   0  0  0  0  0  0  0  0  0  0  0  0
    7.7147  -16.8822   24.6500 O   0  0  0  0  0  0  0  0  0  0  0  0
   11.6595  -17.6982   23.7250 C   0  0  0  0  0  0  0  0  0  0  0  0
   11.6267  -17.5375   25.2217 C   0  0  2  0  0  0  0  0  0  0  0  0
   12.2118  -18.7906   25.8367 C   0  0  0  0  0  0  0  0  0  0  0  0
   10.2405  -17.3433   25.7645 C   0  0  2  0  0  0  0  0  0  0  0  0
    9.7617  -16.0669   25.2682 N   0  0  0  0  0  0  0  0  0  0  0  0
   10.2074  -17.2760   27.2453 C   0  0  0  0  0  0  0  0  0  0  0  0
   10.1794  -18.4083   28.0494 O   0  0  0  0  0  0  0  0  0  0  0  0
   10.2028  -16.1682   27.8727 O   0  0  0  0  0  0  0  0  0  0  0  0
  2  1  1  6
  2  8  1  0
  3  4  1  0
  3  2  1  0
  5  6  1  0
  5  4  1  0
  6  7  1  0
  8 12  1  0
  8  9  2  0
 11 10  1  1
 11 13  1  0
 12 11  1  0
 13 14  2  0
 16 17  1  1
 16 15  1  0
 16 18  1  0
 18 19  1  6
 19 13  1  0
 20 21  1  0
 20 18  1  0
 22 20  2  0
M  END
$$$$
