KAV.pdb
     RDKit          3D

 22 21  0  0  1  0  0  0  0  0999 V2000
    5.3364  -16.8362   21.0854 N   0  0  0  0  0  0  0  0  0  0  0  0
    6.6027  -16.4509   21.6341 C   0  0  1  0  0  0  0  0  0  0  0  0
    6.9343  -15.0452   21.2524 C   0  0  0  0  0  0  0  0  0  0  0  0
    7.4436  -14.8939   19.8668 C   0  0  0  0  0  0  0  0  0  0  0  0
    7.8435  -13.5240   19.4468 C   0  0  0  0  0  0  0  0  0  0  0  0
    8.3470  -13.4769   18.0064 C   0  0  0  0  0  0  0  0  0  0  0  0
    8.5073  -12.0967   17.6204 N   0  0  0  0  0  0  0  0  0  0  0  0
    6.6859  -16.6796   23.0989 C   0  0  0  0  0  0  0  0  0  0  0  0
    5.9051  -16.0642   23.8687 O   0  0  0  0  0  0  0  0  0  0  0  0
    8.0362  -19.1521   25.5379 C   0  0  0  0  0  0  0  0  0  0  0  0
    7.7979  -17.7123   25.1198 C   0  0  2  0  0  0  0  0  0  0  0  0
    7.6118  -17.5695   23.7055 N   0  0  0  0  0  0  0  0  0  0  0  0
    8.9076  -16.8930   25.6540 C   0  0  0  0  0  0  0  0  0  0  0  0
    9.9432  -16.6025   25.0158 O   0  0  0  0  0  0  0  0  0  0  0  0
    8.3264  -13.5487   27.3072 C   0  0  0  0  0  0  0  0  0  0  0  0
    9.0552  -14.4390   28.2784 C   0  0  2  0  0  0  0  0  0  0  0  0
   10.0652  -13.5897   29.0197 C   0  0  0  0  0  0  0  0  0  0  0  0
    9.7828  -15.5700   27.6109 C   0  0  2  0  0  0  0  0  0  0  0  0
    8.7819  -16.4082   26.9781 N   0  0  0  0  0  0  0  0  0  0  0  0
   10.5229  -16.4234   28.5713 C   0  0  0  0  0  0  0  0  0  0  0  0
   11.8505  -16.1965   28.9113 O   0  0  0  0  0  0  0  0  0  0  0  0
    9.9817  -17.4225   29.1458 O   0  0  0  0  0  0  0  0  0  0  0  0
  2  1  1  1
  2  8  1  0
  3  4  1  0
  3  2  1  0
  5  6  1  0
  5  4  1  0
  6  7  1  0
  8 12  1  0
  8  9  2  0
 11 10  1  6
 11 13  1  0
 12 11  1  0
 13 14  2  0
 16 17  1  6
 16 15  1  0
 16 18  1  0
 18 19  1  1
 19 13  1  0
 20 21  1  0
 20 18  1  0
 22 20  2  0
M  END
$$$$
