KAV.pdb
     RDKit          3D

 22 21  0  0  1  0  0  0  0  0999 V2000
    7.8812  -16.5844   18.7454 N   0  0  0  0  0  0  0  0  0  0  0  0
    8.4807  -15.6752   19.6766 C   0  0  1  0  0  0  0  0  0  0  0  0
    8.3048  -14.2639   19.2197 C   0  0  0  0  0  0  0  0  0  0  0  0
    7.5917  -14.1267   17.9255 C   0  0  0  0  0  0  0  0  0  0  0  0
    8.4252  -13.8252   16.7309 C   0  0  0  0  0  0  0  0  0  0  0  0
    7.5866  -13.5707   15.4810 C   0  0  0  0  0  0  0  0  0  0  0  0
    8.4758  -13.3096   14.3761 N   0  0  0  0  0  0  0  0  0  0  0  0
    8.0095  -15.8875   21.0687 C   0  0  0  0  0  0  0  0  0  0  0  0
    6.7820  -15.8052   21.3280 O   0  0  0  0  0  0  0  0  0  0  0  0
    8.9060  -17.6462   24.1321 C   0  0  0  0  0  0  0  0  0  0  0  0
    8.4495  -16.3358   23.5167 C   0  0  2  0  0  0  0  0  0  0  0  0
    8.8740  -16.1851   22.1557 N   0  0  0  0  0  0  0  0  0  0  0  0
    8.8985  -15.2369   24.3992 C   0  0  0  0  0  0  0  0  0  0  0  0
   10.0205  -14.6885   24.3312 O   0  0  0  0  0  0  0  0  0  0  0  0
    6.5661  -12.2171   25.3321 C   0  0  0  0  0  0  0  0  0  0  0  0
    7.0516  -12.9413   26.5596 C   0  0  2  0  0  0  0  0  0  0  0  0
    7.3197  -11.9084   27.6331 C   0  0  0  0  0  0  0  0  0  0  0  0
    8.3123  -13.7219   26.3246 C   0  0  2  0  0  0  0  0  0  0  0  0
    7.9914  -14.7801   25.3855 N   0  0  0  0  0  0  0  0  0  0  0  0
    8.8240  -14.3711   27.5555 C   0  0  0  0  0  0  0  0  0  0  0  0
    9.6923  -13.7372   28.4351 O   0  0  0  0  0  0  0  0  0  0  0  0
    8.4958  -15.5571   27.8819 O   0  0  0  0  0  0  0  0  0  0  0  0
  2  1  1  6
  2  8  1  0
  3  4  1  0
  3  2  1  0
  5  6  1  0
  5  4  1  0
  6  7  1  0
  8 12  1  0
  8  9  2  0
 11 10  1  1
 11 13  1  0
 12 11  1  0
 13 14  2  0
 16 17  1  1
 16 15  1  0
 16 18  1  0
 18 19  1  6
 19 13  1  0
 20 21  1  0
 20 18  1  0
 22 20  2  0
M  END
$$$$
