KAV.pdb
     RDKit          3D

 22 21  0  0  1  0  0  0  0  0999 V2000
    7.2058  -17.7390   19.8243 N   0  0  0  0  0  0  0  0  0  0  0  0
    8.1794  -17.6892   20.8745 C   0  0  1  0  0  0  0  0  0  0  0  0
    9.4794  -17.1625   20.3605 C   0  0  0  0  0  0  0  0  0  0  0  0
   10.5740  -18.1641   20.3313 C   0  0  0  0  0  0  0  0  0  0  0  0
   11.8822  -17.7099   19.7880 C   0  0  0  0  0  0  0  0  0  0  0  0
   12.9721  -18.7703   19.9230 C   0  0  0  0  0  0  0  0  0  0  0  0
   14.1948  -18.2463   19.3661 N   0  0  0  0  0  0  0  0  0  0  0  0
    7.6965  -16.9509   22.0689 C   0  0  0  0  0  0  0  0  0  0  0  0
    7.3759  -15.7397   21.9625 O   0  0  0  0  0  0  0  0  0  0  0  0
    6.7125  -17.8166   25.6441 C   0  0  0  0  0  0  0  0  0  0  0  0
    7.0359  -16.8646   24.5068 C   0  0  2  0  0  0  0  0  0  0  0  0
    7.5687  -17.5352   23.3572 N   0  0  0  0  0  0  0  0  0  0  0  0
    7.9241  -15.8069   25.0364 C   0  0  0  0  0  0  0  0  0  0  0  0
    9.1727  -15.8313   24.9669 O   0  0  0  0  0  0  0  0  0  0  0  0
    5.8699  -12.6529   27.0400 C   0  0  0  0  0  0  0  0  0  0  0  0
    7.2179  -12.4396   26.4041 C   0  0  2  0  0  0  0  0  0  0  0  0
    6.9925  -11.9848   24.9782 C   0  0  0  0  0  0  0  0  0  0  0  0
    8.0625  -13.6806   26.3802 C   0  0  2  0  0  0  0  0  0  0  0  0
    7.3125  -14.6946   25.6632 N   0  0  0  0  0  0  0  0  0  0  0  0
    8.3353  -14.2162   27.7355 C   0  0  0  0  0  0  0  0  0  0  0  0
    9.2998  -13.6770   28.5774 O   0  0  0  0  0  0  0  0  0  0  0  0
    7.6973  -15.2096   28.2120 O   0  0  0  0  0  0  0  0  0  0  0  0
  2  1  1  6
  2  8  1  0
  3  4  1  0
  3  2  1  0
  5  6  1  0
  5  4  1  0
  6  7  1  0
  8 12  1  0
  8  9  2  0
 11 10  1  1
 11 13  1  0
 12 11  1  0
 13 14  2  0
 16 17  1  6
 16 15  1  0
 16 18  1  0
 18 19  1  6
 19 13  1  0
 20 21  1  0
 20 18  1  0
 22 20  2  0
M  END
$$$$
