KAV.pdb
     RDKit          3D

 22 21  0  0  1  0  0  0  0  0999 V2000
    8.2100  -17.1082   19.4033 N   0  0  0  0  0  0  0  0  0  0  0  0
    8.4334  -15.8381   20.0278 C   0  0  1  0  0  0  0  0  0  0  0  0
    7.7637  -14.7485   19.2557 C   0  0  0  0  0  0  0  0  0  0  0  0
    7.8399  -14.9100   17.7825 C   0  0  0  0  0  0  0  0  0  0  0  0
    8.0829  -13.6775   16.9859 C   0  0  0  0  0  0  0  0  0  0  0  0
    8.2131  -13.9622   15.4918 C   0  0  0  0  0  0  0  0  0  0  0  0
    8.4258  -12.7134   14.8026 N   0  0  0  0  0  0  0  0  0  0  0  0
    8.0593  -15.8325   21.4647 C   0  0  0  0  0  0  0  0  0  0  0  0
    7.1175  -15.0984   21.8583 O   0  0  0  0  0  0  0  0  0  0  0  0
    8.8676  -17.9056   24.5404 C   0  0  0  0  0  0  0  0  0  0  0  0
    8.3298  -16.6755   23.8319 C   0  0  2  0  0  0  0  0  0  0  0  0
    8.7103  -16.6207   22.4508 N   0  0  0  0  0  0  0  0  0  0  0  0
    8.7459  -15.4855   24.6056 C   0  0  0  0  0  0  0  0  0  0  0  0
    9.8184  -14.8666   24.4292 O   0  0  0  0  0  0  0  0  0  0  0  0
    6.0913  -12.6823   25.4616 C   0  0  0  0  0  0  0  0  0  0  0  0
    6.7891  -13.1992   26.6916 C   0  0  2  0  0  0  0  0  0  0  0  0
    7.0071  -12.0304   27.6282 C   0  0  0  0  0  0  0  0  0  0  0  0
    8.1204  -13.8267   26.3953 C   0  0  2  0  0  0  0  0  0  0  0  0
    7.8656  -15.0212   25.6124 N   0  0  0  0  0  0  0  0  0  0  0  0
    8.8401  -14.2526   27.6196 C   0  0  0  0  0  0  0  0  0  0  0  0
    9.6929  -13.4108   28.3223 O   0  0  0  0  0  0  0  0  0  0  0  0
    8.7185  -15.4240   28.1034 O   0  0  0  0  0  0  0  0  0  0  0  0
  2  1  1  6
  2  8  1  0
  3  4  1  0
  3  2  1  0
  5  6  1  0
  5  4  1  0
  6  7  1  0
  8 12  1  0
  8  9  2  0
 11 10  1  1
 11 13  1  0
 12 11  1  0
 13 14  2  0
 16 17  1  1
 16 15  1  0
 16 18  1  0
 18 19  1  6
 19 13  1  0
 20 21  1  0
 20 18  1  0
 22 20  2  0
M  END
$$$$
