KAV.pdb
     RDKit          3D

 22 21  0  0  1  0  0  0  0  0999 V2000
   11.8449  -16.4381   14.6296 N   0  0  0  0  0  0  0  0  0  0  0  0
   11.3841  -15.5219   15.6303 C   0  0  1  0  0  0  0  0  0  0  0  0
    9.8933  -15.4295   15.6107 C   0  0  0  0  0  0  0  0  0  0  0  0
    9.3245  -15.0320   14.2990 C   0  0  0  0  0  0  0  0  0  0  0  0
    7.8455  -14.8898   14.2264 C   0  0  0  0  0  0  0  0  0  0  0  0
    7.3758  -14.3364   12.8834 C   0  0  0  0  0  0  0  0  0  0  0  0
    5.9339  -14.3123   12.8750 N   0  0  0  0  0  0  0  0  0  0  0  0
   11.9193  -15.8315   16.9803 C   0  0  0  0  0  0  0  0  0  0  0  0
   11.9752  -17.0266   17.3671 O   0  0  0  0  0  0  0  0  0  0  0  0
   13.8451  -13.9893   19.6715 C   0  0  0  0  0  0  0  0  0  0  0  0
   12.9703  -15.1226   19.1667 C   0  0  2  0  0  0  0  0  0  0  0  0
   12.3844  -14.8433   17.8884 N   0  0  0  0  0  0  0  0  0  0  0  0
   11.9750  -15.4324   20.2162 C   0  0  0  0  0  0  0  0  0  0  0  0
   10.9360  -14.7679   20.4240 O   0  0  0  0  0  0  0  0  0  0  0  0
   12.4077  -19.2038   21.9636 C   0  0  0  0  0  0  0  0  0  0  0  0
   11.1335  -18.4072   22.0580 C   0  0  2  0  0  0  0  0  0  0  0  0
   10.3173  -18.6869   20.8144 C   0  0  0  0  0  0  0  0  0  0  0  0
   11.3679  -16.9273   22.1508 C   0  0  2  0  0  0  0  0  0  0  0  0
   12.2219  -16.5588   21.0374 N   0  0  0  0  0  0  0  0  0  0  0  0
   12.0761  -16.5344   23.3927 C   0  0  0  0  0  0  0  0  0  0  0  0
   11.4229  -16.3480   24.6045 O   0  0  0  0  0  0  0  0  0  0  0  0
   13.3344  -16.3431   23.4229 O   0  0  0  0  0  0  0  0  0  0  0  0
  2  1  1  6
  2  8  1  0
  3  4  1  0
  3  2  1  0
  5  6  1  0
  5  4  1  0
  6  7  1  0
  8 12  1  0
  8  9  2  0
 11 10  1  1
 11 13  1  0
 12 11  1  0
 13 14  2  0
 16 17  1  6
 16 15  1  0
 16 18  1  0
 18 19  1  6
 19 13  1  0
 20 21  1  0
 20 18  1  0
 22 20  2  0
M  END
$$$$
