KAV.pdb
     RDKit          3D

 22 21  0  0  1  0  0  0  0  0999 V2000
    5.6760  -17.4284   20.3105 N   0  0  0  0  0  0  0  0  0  0  0  0
    6.8030  -16.9319   21.0430 C   0  0  1  0  0  0  0  0  0  0  0  0
    7.1914  -15.5753   20.5527 C   0  0  0  0  0  0  0  0  0  0  0  0
    7.5044  -15.5176   19.1033 C   0  0  0  0  0  0  0  0  0  0  0  0
    7.7970  -14.1744   18.5348 C   0  0  0  0  0  0  0  0  0  0  0  0
    8.1245  -14.2280   17.0448 C   0  0  0  0  0  0  0  0  0  0  0  0
    8.4552  -12.8972   16.5986 N   0  0  0  0  0  0  0  0  0  0  0  0
    6.5928  -16.9694   22.5124 C   0  0  0  0  0  0  0  0  0  0  0  0
    5.5520  -16.4632   23.0039 O   0  0  0  0  0  0  0  0  0  0  0  0
    7.7899  -18.6771   25.5930 C   0  0  0  0  0  0  0  0  0  0  0  0
    7.4573  -17.3967   24.8485 C   0  0  2  0  0  0  0  0  0  0  0  0
    7.5117  -17.5535   23.4245 N   0  0  0  0  0  0  0  0  0  0  0  0
    8.3455  -16.3293   25.3583 C   0  0  0  0  0  0  0  0  0  0  0  0
    9.4859  -16.0828   24.9078 O   0  0  0  0  0  0  0  0  0  0  0  0
    6.9781  -12.7724   26.2487 C   0  0  0  0  0  0  0  0  0  0  0  0
    7.6845  -13.3889   27.4268 C   0  0  2  0  0  0  0  0  0  0  0  0
    8.4578  -12.2942   28.1300 C   0  0  0  0  0  0  0  0  0  0  0  0
    8.6447  -14.4751   27.0372 C   0  0  2  0  0  0  0  0  0  0  0  0
    7.8655  -15.5369   26.4288 N   0  0  0  0  0  0  0  0  0  0  0  0
    9.3500  -15.0634   28.2011 C   0  0  0  0  0  0  0  0  0  0  0  0
   10.5551  -14.5658   28.6807 O   0  0  0  0  0  0  0  0  0  0  0  0
    8.8899  -16.0669   28.8352 O   0  0  0  0  0  0  0  0  0  0  0  0
  2  1  1  6
  2  8  1  0
  3  4  1  0
  3  2  1  0
  5  6  1  0
  5  4  1  0
  6  7  1  0
  8 12  1  0
  8  9  2  0
 11 10  1  1
 11 13  1  0
 12 11  1  0
 13 14  2  0
 16 17  1  6
 16 15  1  0
 16 18  1  0
 18 19  1  1
 19 13  1  0
 20 21  1  0
 20 18  1  0
 22 20  2  0
M  END
$$$$
