KAV.pdb
     RDKit          3D

 22 21  0  0  1  0  0  0  0  0999 V2000
    8.2594  -14.1959   20.1602 N   0  0  0  0  0  0  0  0  0  0  0  0
    7.8112  -15.0317   21.2343 C   0  0  1  0  0  0  0  0  0  0  0  0
    8.2924  -16.4332   21.0448 C   0  0  0  0  0  0  0  0  0  0  0  0
    7.9245  -17.0323   19.7379 C   0  0  0  0  0  0  0  0  0  0  0  0
    8.3228  -18.4481   19.5150 C   0  0  0  0  0  0  0  0  0  0  0  0
    7.7749  -19.0113   18.2061 C   0  0  0  0  0  0  0  0  0  0  0  0
    8.0825  -20.4190   18.1470 N   0  0  0  0  0  0  0  0  0  0  0  0
    8.1596  -14.4842   22.5699 C   0  0  0  0  0  0  0  0  0  0  0  0
    9.3273  -14.0713   22.7864 O   0  0  0  0  0  0  0  0  0  0  0  0
    6.3708  -13.8318   25.8779 C   0  0  0  0  0  0  0  0  0  0  0  0
    7.5854  -14.0069   24.9844 C   0  0  2  0  0  0  0  0  0  0  0  0
    7.2392  -14.3929   23.6478 N   0  0  0  0  0  0  0  0  0  0  0  0
    8.5087  -14.9515   25.6502 C   0  0  0  0  0  0  0  0  0  0  0  0
    8.7358  -16.1161   25.2546 O   0  0  0  0  0  0  0  0  0  0  0  0
   11.0539  -13.1629   28.4870 C   0  0  0  0  0  0  0  0  0  0  0  0
   10.5293  -14.5464   28.7661 C   0  0  2  0  0  0  0  0  0  0  0  0
   11.6128  -15.3172   29.4892 C   0  0  0  0  0  0  0  0  0  0  0  0
   10.1590  -15.2996   27.5214 C   0  0  2  0  0  0  0  0  0  0  0  0
    9.1770  -14.4999   26.8137 N   0  0  0  0  0  0  0  0  0  0  0  0
    9.5288  -16.6105   27.8091 C   0  0  0  0  0  0  0  0  0  0  0  0
   10.2357  -17.8061   27.7871 O   0  0  0  0  0  0  0  0  0  0  0  0
    8.2931  -16.7193   28.0956 O   0  0  0  0  0  0  0  0  0  0  0  0
  2  1  1  6
  2  8  1  0
  3  4  1  0
  3  2  1  0
  5  6  1  0
  5  4  1  0
  6  7  1  0
  8 12  1  0
  8  9  2  0
 11 10  1  1
 11 13  1  0
 12 11  1  0
 13 14  2  0
 16 17  1  6
 16 15  1  0
 16 18  1  0
 18 19  1  1
 19 13  1  0
 20 21  1  0
 20 18  1  0
 22 20  2  0
M  END
$$$$
