KAV.pdb
     RDKit          3D

 22 21  0  0  1  0  0  0  0  0999 V2000
    6.0969  -14.7776   21.3112 N   0  0  0  0  0  0  0  0  0  0  0  0
    7.2303  -15.4060   21.9228 C   0  0  1  0  0  0  0  0  0  0  0  0
    8.2673  -15.7302   20.8975 C   0  0  0  0  0  0  0  0  0  0  0  0
    7.9278  -15.2818   19.5243 C   0  0  0  0  0  0  0  0  0  0  0  0
    8.4922  -13.9766   19.0877 C   0  0  0  0  0  0  0  0  0  0  0  0
    8.2729  -13.7119   17.6004 C   0  0  0  0  0  0  0  0  0  0  0  0
    8.8584  -12.4363   17.2692 N   0  0  0  0  0  0  0  0  0  0  0  0
    7.7764  -14.6215   23.0590 C   0  0  0  0  0  0  0  0  0  0  0  0
    9.0213  -14.5022   23.1897 O   0  0  0  0  0  0  0  0  0  0  0  0
    6.3372  -12.8952   26.1480 C   0  0  0  0  0  0  0  0  0  0  0  0
    7.4176  -13.5880   25.3373 C   0  0  2  0  0  0  0  0  0  0  0  0
    6.9670  -13.9798   24.0339 N   0  0  0  0  0  0  0  0  0  0  0  0
    7.9411  -14.7129   26.1427 C   0  0  0  0  0  0  0  0  0  0  0  0
    7.3807  -15.8257   26.2519 O   0  0  0  0  0  0  0  0  0  0  0  0
   11.5555  -15.7534   25.7908 C   0  0  0  0  0  0  0  0  0  0  0  0
   11.2811  -15.4939   27.2483 C   0  0  2  0  0  0  0  0  0  0  0  0
   12.0077  -16.5498   28.0533 C   0  0  0  0  0  0  0  0  0  0  0  0
    9.8212  -15.5526   27.5938 C   0  0  2  0  0  0  0  0  0  0  0  0
    9.1595  -14.5088   26.8340 N   0  0  0  0  0  0  0  0  0  0  0  0
    9.5587  -15.2819   29.0277 C   0  0  0  0  0  0  0  0  0  0  0  0
    9.0742  -14.0636   29.4869 O   0  0  0  0  0  0  0  0  0  0  0  0
    9.7633  -16.1562   29.9303 O   0  0  0  0  0  0  0  0  0  0  0  0
  2  1  1  6
  2  8  1  0
  3  4  1  0
  3  2  1  0
  5  6  1  0
  5  4  1  0
  6  7  1  0
  8 12  1  0
  8  9  2  0
 11 10  1  1
 11 13  1  0
 12 11  1  0
 13 14  2  0
 16 17  1  1
 16 15  1  0
 16 18  1  0
 18 19  1  6
 19 13  1  0
 20 21  1  0
 20 18  1  0
 22 20  2  0
M  END
$$$$
