KAV.pdb
     RDKit          3D

 22 21  0  0  1  0  0  0  0  0999 V2000
    6.9439  -16.1124   19.2088 N   0  0  0  0  0  0  0  0  0  0  0  0
    7.5521  -15.1947   20.1260 C   0  0  1  0  0  0  0  0  0  0  0  0
    7.1426  -13.7923   19.8142 C   0  0  0  0  0  0  0  0  0  0  0  0
    8.2474  -12.9283   19.3293 C   0  0  0  0  0  0  0  0  0  0  0  0
    9.4376  -13.6185   18.7636 C   0  0  0  0  0  0  0  0  0  0  0  0
   10.6060  -12.6665   18.5209 C   0  0  0  0  0  0  0  0  0  0  0  0
   11.7424  -13.4367   18.0792 N   0  0  0  0  0  0  0  0  0  0  0  0
    7.3098  -15.5580   21.5452 C   0  0  0  0  0  0  0  0  0  0  0  0
    6.1813  -15.3446   22.0569 O   0  0  0  0  0  0  0  0  0  0  0  0
    8.6244  -17.8486   24.1273 C   0  0  0  0  0  0  0  0  0  0  0  0
    8.0917  -16.4735   23.7673 C   0  0  2  0  0  0  0  0  0  0  0  0
    8.2921  -16.1457   22.3861 N   0  0  0  0  0  0  0  0  0  0  0  0
    8.6924  -15.4938   24.6987 C   0  0  0  0  0  0  0  0  0  0  0  0
    9.7996  -14.9389   24.5244 O   0  0  0  0  0  0  0  0  0  0  0  0
    6.5106  -12.6594   26.0440 C   0  0  0  0  0  0  0  0  0  0  0  0
    7.1589  -13.3730   27.2005 C   0  0  2  0  0  0  0  0  0  0  0  0
    7.5593  -12.3319   28.2236 C   0  0  0  0  0  0  0  0  0  0  0  0
    8.3828  -14.1473   26.8052 C   0  0  2  0  0  0  0  0  0  0  0  0
    7.9585  -15.1670   25.8644 N   0  0  0  0  0  0  0  0  0  0  0  0
    9.0156  -14.8457   27.9498 C   0  0  0  0  0  0  0  0  0  0  0  0
    9.9847  -14.2537   28.7498 O   0  0  0  0  0  0  0  0  0  0  0  0
    8.7060  -16.0384   28.2701 O   0  0  0  0  0  0  0  0  0  0  0  0
  2  1  1  6
  2  8  1  0
  3  4  1  0
  3  2  1  0
  5  6  1  0
  5  4  1  0
  6  7  1  0
  8 12  1  0
  8  9  2  0
 11 10  1  6
 11 13  1  0
 12 11  1  0
 13 14  2  0
 16 17  1  1
 16 15  1  0
 16 18  1  0
 18 19  1  6
 19 13  1  0
 20 21  1  0
 20 18  1  0
 22 20  2  0
M  END
$$$$
