MAM.pdb
     RDKit          3D

 22 21  0  0  1  0  0  0  0  0999 V2000
   20.0692  -18.6644  -10.6579 C   0  0  0  0  0  0  0  0  0  0  0  0
   18.3948  -18.9947  -11.2527 S   0  0  0  0  0  0  0  0  0  0  0  0
   18.4165  -19.8188  -12.8681 C   0  0  0  0  0  0  0  0  0  0  0  0
   19.7422  -20.5085  -13.0860 C   0  0  0  0  0  0  0  0  0  0  0  0
   19.8006  -21.2010  -14.4332 C   0  0  2  0  0  0  0  0  0  0  0  0
   18.9107  -22.3557  -14.4402 N   0  0  0  0  0  0  0  0  0  0  0  0
   21.1899  -21.7197  -14.5822 C   0  0  0  0  0  0  0  0  0  0  0  0
   21.7399  -22.4213  -13.6823 O   0  0  0  0  0  0  0  0  0  0  0  0
   23.6554  -21.8559  -17.4329 C   0  0  0  0  0  0  0  0  0  0  0  0
   23.2642  -21.8998  -15.9650 C   0  0  2  0  0  0  0  0  0  0  0  0
   21.9271  -21.4230  -15.7666 N   0  0  0  0  0  0  0  0  0  0  0  0
   24.1899  -21.1383  -15.1228 C   0  0  0  0  0  0  0  0  0  0  0  0
   24.0521  -19.9013  -14.9988 O   0  0  0  0  0  0  0  0  0  0  0  0
   26.0072  -20.2154   -8.3221 C   0  0  0  0  0  0  0  0  0  0  0  0
   26.1463  -21.5458   -9.5637 S   0  0  0  0  0  0  0  0  0  0  0  0
   26.2063  -20.7527  -11.1833 C   0  0  0  0  0  0  0  0  0  0  0  0
   26.3634  -21.7556  -12.3070 C   0  0  0  0  0  0  0  0  0  0  0  0
   26.1767  -20.9594  -13.6079 C   0  0  2  0  0  0  0  0  0  0  0  0
   25.2579  -21.7508  -14.4265 N   0  0  0  0  0  0  0  0  0  0  0  0
   27.4477  -20.7517  -14.3046 C   0  0  0  0  0  0  0  0  0  0  0  0
   27.8779  -21.6552  -15.0732 O   0  0  0  0  0  0  0  0  0  0  0  0
   28.1670  -19.5798  -14.1215 O   0  0  0  0  0  0  0  0  0  0  0  0
  2  1  1  0
  3  4  1  0
  3  2  1  0
  4  5  1  0
  5  6  1  1
  7 11  1  0
  7  5  1  0
  8  7  2  0
 10  9  1  6
 10 12  1  0
 10 11  1  0
 12 19  1  0
 13 12  2  0
 15 14  1  0
 16 15  1  0
 17 16  1  0
 18 17  1  1
 19 18  1  0
 20 18  1  0
 20 22  1  0
 21 20  2  0
M  END
$$$$
