MAM.pdb
     RDKit          3D

 22 21  0  0  1  0  0  0  0  0999 V2000
   29.1640  -24.2317  -24.9527 C   0  0  0  0  0  0  0  0  0  0  0  0
   28.1226  -23.5190  -23.6588 S   0  0  0  0  0  0  0  0  0  0  0  0
   29.1163  -22.9130  -22.2680 C   0  0  0  0  0  0  0  0  0  0  0  0
   28.9666  -23.8313  -21.0784 C   0  0  0  0  0  0  0  0  0  0  0  0
   29.7067  -23.3042  -19.8650 C   0  0  2  0  0  0  0  0  0  0  0  0
   31.1456  -23.4182  -20.0692 N   0  0  0  0  0  0  0  0  0  0  0  0
   29.3541  -24.2044  -18.7306 C   0  0  0  0  0  0  0  0  0  0  0  0
   30.0729  -25.2007  -18.4216 O   0  0  0  0  0  0  0  0  0  0  0  0
   26.6645  -24.1539  -16.0653 C   0  0  0  0  0  0  0  0  0  0  0  0
   27.7798  -24.7889  -16.8793 C   0  0  2  0  0  0  0  0  0  0  0  0
   28.1778  -23.9445  -17.9671 N   0  0  0  0  0  0  0  0  0  0  0  0
   27.4081  -26.1104  -17.3906 C   0  0  0  0  0  0  0  0  0  0  0  0
   26.8407  -26.2169  -18.5002 O   0  0  0  0  0  0  0  0  0  0  0  0
   26.7495  -32.7124  -14.5242 C   0  0  0  0  0  0  0  0  0  0  0  0
   28.0274  -32.3597  -15.7786 S   0  0  0  0  0  0  0  0  0  0  0  0
   27.4165  -30.9924  -16.7850 C   0  0  0  0  0  0  0  0  0  0  0  0
   27.8624  -29.6461  -16.2541 C   0  0  0  0  0  0  0  0  0  0  0  0
   27.2151  -28.5983  -17.1729 C   0  0  2  0  0  0  0  0  0  0  0  0
   27.6671  -27.3004  -16.6712 N   0  0  0  0  0  0  0  0  0  0  0  0
   25.7536  -28.6851  -17.1504 C   0  0  0  0  0  0  0  0  0  0  0  0
   25.1693  -29.3807  -18.0262 O   0  0  0  0  0  0  0  0  0  0  0  0
   25.0237  -28.0126  -16.1812 O   0  0  0  0  0  0  0  0  0  0  0  0
  2  1  1  0
  3  4  1  0
  3  2  1  0
  4  5  1  0
  5  6  1  6
  7 11  1  0
  7  5  1  0
  8  7  2  0
 10  9  1  6
 10 12  1  0
 10 11  1  0
 12 19  1  0
 13 12  2  0
 15 14  1  0
 16 15  1  0
 17 16  1  0
 18 17  1  1
 19 18  1  0
 20 18  1  0
 20 22  1  0
 21 20  2  0
M  END
$$$$
