MAM.pdb
     RDKit          3D

 22 21  0  0  1  0  0  0  0  0999 V2000
   32.6537  -22.6973   -8.0310 C   0  0  0  0  0  0  0  0  0  0  0  0
   33.1948  -23.3031   -9.6456 S   0  0  0  0  0  0  0  0  0  0  0  0
   32.9630  -22.0489  -10.9350 C   0  0  0  0  0  0  0  0  0  0  0  0
   31.6536  -21.3245  -10.7312 C   0  0  0  0  0  0  0  0  0  0  0  0
   30.4882  -22.0936  -11.3210 C   0  0  2  0  0  0  0  0  0  0  0  0
   30.6738  -22.2574  -12.7577 N   0  0  0  0  0  0  0  0  0  0  0  0
   29.2799  -21.2418  -11.1313 C   0  0  0  0  0  0  0  0  0  0  0  0
   28.9831  -20.7472  -10.0035 O   0  0  0  0  0  0  0  0  0  0  0  0
   26.6166  -19.8741  -13.4525 C   0  0  0  0  0  0  0  0  0  0  0  0
   27.2041  -20.2419  -12.0999 C   0  0  2  0  0  0  0  0  0  0  0  0
   28.4296  -20.9711  -12.2440 N   0  0  0  0  0  0  0  0  0  0  0  0
   26.2652  -21.0114  -11.2798 C   0  0  0  0  0  0  0  0  0  0  0  0
   26.4230  -22.2438  -11.1351 O   0  0  0  0  0  0  0  0  0  0  0  0
   26.9178  -18.4620   -5.8731 C   0  0  0  0  0  0  0  0  0  0  0  0
   26.6014  -20.2498   -5.6865 S   0  0  0  0  0  0  0  0  0  0  0  0
   25.3935  -20.7068   -6.9466 C   0  0  0  0  0  0  0  0  0  0  0  0
   25.8642  -20.3612   -8.3438 C   0  0  0  0  0  0  0  0  0  0  0  0
   24.7528  -20.8402   -9.2905 C   0  0  2  0  0  0  0  0  0  0  0  0
   25.1622  -20.4119  -10.6282 N   0  0  0  0  0  0  0  0  0  0  0  0
   23.4528  -20.2675   -8.9354 C   0  0  0  0  0  0  0  0  0  0  0  0
   22.8431  -20.7156   -7.9256 O   0  0  0  0  0  0  0  0  0  0  0  0
   22.9009  -19.2486   -9.6980 O   0  0  0  0  0  0  0  0  0  0  0  0
  2  1  1  0
  3  4  1  0
  3  2  1  0
  4  5  1  0
  5  6  1  6
  7 11  1  0
  7  5  1  0
  8  7  2  0
 10  9  1  6
 10 12  1  0
 10 11  1  0
 12 19  1  0
 13 12  2  0
 15 14  1  0
 16 15  1  0
 17 16  1  0
 18 17  1  1
 19 18  1  0
 20 18  1  0
 20 22  1  0
 21 20  2  0
M  END
$$$$
