MAM.pdb
     RDKit          3D

 22 21  0  0  1  0  0  0  0  0999 V2000
   22.7789  -26.9442  -14.0722 C   0  0  0  0  0  0  0  0  0  0  0  0
   21.5002  -26.0002  -14.9328 S   0  0  0  0  0  0  0  0  0  0  0  0
   21.9082  -24.2341  -14.9921 C   0  0  0  0  0  0  0  0  0  0  0  0
   23.0818  -23.9374  -14.0891 C   0  0  0  0  0  0  0  0  0  0  0  0
   24.2660  -23.3971  -14.8659 C   0  0  2  0  0  0  0  0  0  0  0  0
   24.9735  -24.4899  -15.5221 N   0  0  0  0  0  0  0  0  0  0  0  0
   25.1999  -22.8133  -13.8616 C   0  0  0  0  0  0  0  0  0  0  0  0
   25.9939  -23.5366  -13.1899 O   0  0  0  0  0  0  0  0  0  0  0  0
   26.1989  -19.2818  -12.9640 C   0  0  0  0  0  0  0  0  0  0  0  0
   26.1234  -20.7823  -12.7350 C   0  0  2  0  0  0  0  0  0  0  0  0
   25.2064  -21.4036  -13.6447 N   0  0  0  0  0  0  0  0  0  0  0  0
   25.7525  -21.1136  -11.3570 C   0  0  0  0  0  0  0  0  0  0  0  0
   24.5896  -21.4919  -11.0941 O   0  0  0  0  0  0  0  0  0  0  0  0
   29.3341  -19.8861   -5.5727 C   0  0  0  0  0  0  0  0  0  0  0  0
   27.7372  -19.0075   -5.6674 S   0  0  0  0  0  0  0  0  0  0  0  0
   26.6573  -19.9877   -6.7300 C   0  0  0  0  0  0  0  0  0  0  0  0
   27.1579  -20.0462   -8.1580 C   0  0  0  0  0  0  0  0  0  0  0  0
   26.2069  -21.0009   -8.8963 C   0  0  2  0  0  0  0  0  0  0  0  0
   26.6698  -21.0238  -10.2840 N   0  0  0  0  0  0  0  0  0  0  0  0
   24.8161  -20.5496   -8.8186 C   0  0  0  0  0  0  0  0  0  0  0  0
   24.4411  -19.5962   -9.5553 O   0  0  0  0  0  0  0  0  0  0  0  0
   23.9256  -21.1609   -7.9482 O   0  0  0  0  0  0  0  0  0  0  0  0
  2  1  1  0
  3  4  1  0
  3  2  1  0
  4  5  1  0
  5  6  1  1
  7 11  1  0
  7  5  1  0
  8  7  2  0
 10  9  1  1
 10 12  1  0
 10 11  1  0
 12 19  1  0
 13 12  2  0
 15 14  1  0
 16 15  1  0
 17 16  1  0
 18 17  1  1
 19 18  1  0
 20 18  1  0
 20 22  1  0
 21 20  2  0
M  END
$$$$
