MAM.pdb
     RDKit          3D

 22 21  0  0  1  0  0  0  0  0999 V2000
   15.8554  -13.1603  -15.2890 C   0  0  0  0  0  0  0  0  0  0  0  0
   16.1363  -13.5805  -17.0243 S   0  0  0  0  0  0  0  0  0  0  0  0
   17.4038  -12.5166  -17.7664 C   0  0  0  0  0  0  0  0  0  0  0  0
   17.9752  -11.5808  -16.7278 C   0  0  0  0  0  0  0  0  0  0  0  0
   19.0484  -10.6827  -17.3104 C   0  0  2  0  0  0  0  0  0  0  0  0
   20.0974  -11.4897  -17.9216 N   0  0  0  0  0  0  0  0  0  0  0  0
   19.6660   -9.9615  -16.1616 C   0  0  0  0  0  0  0  0  0  0  0  0
   18.9815   -9.2253  -15.3906 O   0  0  0  0  0  0  0  0  0  0  0  0
   23.0459  -10.0286  -14.4951 C   0  0  0  0  0  0  0  0  0  0  0  0
   21.7217   -9.3803  -14.8640 C   0  0  2  0  0  0  0  0  0  0  0  0
   21.0643  -10.0982  -15.9161 N   0  0  0  0  0  0  0  0  0  0  0  0
   21.8816   -7.9761  -15.2495 C   0  0  0  0  0  0  0  0  0  0  0  0
   22.0334   -7.6693  -16.4526 O   0  0  0  0  0  0  0  0  0  0  0  0
   16.9371   -4.2006  -14.2495 C   0  0  0  0  0  0  0  0  0  0  0  0
   18.2556   -4.3464  -15.5030 S   0  0  0  0  0  0  0  0  0  0  0  0
   19.7427   -4.8993  -14.6435 C   0  0  0  0  0  0  0  0  0  0  0  0
   20.8869   -5.1740  -15.5969 C   0  0  0  0  0  0  0  0  0  0  0  0
   22.0899   -5.5383  -14.7131 C   0  0  2  0  0  0  0  0  0  0  0  0
   21.8722   -6.9255  -14.3025 N   0  0  0  0  0  0  0  0  0  0  0  0
   22.1924   -4.6597  -13.5462 C   0  0  0  0  0  0  0  0  0  0  0  0
   22.5289   -3.4554  -13.7159 O   0  0  0  0  0  0  0  0  0  0  0  0
   21.9237   -5.1446  -12.2746 O   0  0  0  0  0  0  0  0  0  0  0  0
  2  1  1  0
  3  4  1  0
  3  2  1  0
  4  5  1  0
  5  6  1  1
  7 11  1  0
  7  5  1  0
  8  7  2  0
 10  9  1  6
 10 12  1  0
 10 11  1  0
 12 19  1  0
 13 12  2  0
 15 14  1  0
 16 15  1  0
 17 16  1  0
 18 17  1  6
 19 18  1  0
 20 18  1  0
 20 22  1  0
 21 20  2  0
M  END
$$$$
