MAM.pdb
     RDKit          3D

 22 21  0  0  1  0  0  0  0  0999 V2000
   24.8440  -20.5986   -8.3163 C   0  0  0  0  0  0  0  0  0  0  0  0
   26.3592  -20.3032   -9.2562 S   0  0  0  0  0  0  0  0  0  0  0  0
   26.2566  -21.0186  -10.9196 C   0  0  0  0  0  0  0  0  0  0  0  0
   24.8481  -20.9046  -11.4524 C   0  0  0  0  0  0  0  0  0  0  0  0
   24.7201  -21.5095  -12.8364 C   0  0  2  0  0  0  0  0  0  0  0  0
   25.9623  -21.3280  -13.5776 N   0  0  0  0  0  0  0  0  0  0  0  0
   23.6700  -20.7248  -13.5455 C   0  0  0  0  0  0  0  0  0  0  0  0
   23.5709  -19.4691  -13.4108 O   0  0  0  0  0  0  0  0  0  0  0  0
   21.9525  -20.8871  -16.6496 C   0  0  0  0  0  0  0  0  0  0  0  0
   21.7587  -20.6861  -15.1557 C   0  0  2  0  0  0  0  0  0  0  0  0
   22.7478  -21.3975  -14.4007 N   0  0  0  0  0  0  0  0  0  0  0  0
   20.4199  -21.0833  -14.7131 C   0  0  0  0  0  0  0  0  0  0  0  0
   19.4074  -20.5816  -15.2495 O   0  0  0  0  0  0  0  0  0  0  0  0
   19.0108  -26.2266  -10.8568 C   0  0  0  0  0  0  0  0  0  0  0  0
   17.6836  -25.0635  -10.3911 S   0  0  0  0  0  0  0  0  0  0  0  0
   17.6574  -23.7636  -11.6423 C   0  0  0  0  0  0  0  0  0  0  0  0
   19.0506  -23.3323  -12.0498 C   0  0  0  0  0  0  0  0  0  0  0  0
   18.8631  -22.3888  -13.2480 C   0  0  2  0  0  0  0  0  0  0  0  0
   20.2133  -22.0304  -13.6830 N   0  0  0  0  0  0  0  0  0  0  0  0
   18.0989  -21.1940  -12.8840 C   0  0  0  0  0  0  0  0  0  0  0  0
   18.6444  -20.3174  -12.1585 O   0  0  0  0  0  0  0  0  0  0  0  0
   16.7957  -21.0295  -13.3299 O   0  0  0  0  0  0  0  0  0  0  0  0
  2  1  1  0
  3  4  1  0
  3  2  1  0
  4  5  1  0
  5  6  1  6
  7 11  1  0
  7  5  1  0
  8  7  2  0
 10  9  1  6
 10 12  1  0
 10 11  1  0
 12 19  1  0
 13 12  2  0
 15 14  1  0
 16 15  1  0
 17 16  1  0
 18 17  1  1
 19 18  1  0
 20 18  1  0
 20 22  1  0
 21 20  2  0
M  END
$$$$
