MAM.pdb
     RDKit          3D

 22 21  0  0  1  0  0  0  0  0999 V2000
   16.9922  -15.9187  -18.6475 C   0  0  0  0  0  0  0  0  0  0  0  0
   17.2018  -14.5329  -17.5063 S   0  0  0  0  0  0  0  0  0  0  0  0
   18.9057  -13.9120  -17.5246 C   0  0  0  0  0  0  0  0  0  0  0  0
   19.0361  -12.7144  -16.6137 C   0  0  0  0  0  0  0  0  0  0  0  0
   19.8924  -11.6278  -17.2332 C   0  0  2  0  0  0  0  0  0  0  0  0
   21.0377  -12.2210  -17.9127 N   0  0  0  0  0  0  0  0  0  0  0  0
   20.4274  -10.8156  -16.1039 C   0  0  0  0  0  0  0  0  0  0  0  0
   19.6618  -10.2073  -15.2985 O   0  0  0  0  0  0  0  0  0  0  0  0
   23.8934  -10.1124  -14.7502 C   0  0  0  0  0  0  0  0  0  0  0  0
   22.4115   -9.8352  -14.9421 C   0  0  2  0  0  0  0  0  0  0  0  0
   21.8379  -10.7151  -15.9174 N   0  0  0  0  0  0  0  0  0  0  0  0
   22.1534   -8.4436  -15.3202 C   0  0  0  0  0  0  0  0  0  0  0  0
   21.7948   -8.1666  -16.4860 O   0  0  0  0  0  0  0  0  0  0  0  0
   18.1954   -5.2845  -17.4955 C   0  0  0  0  0  0  0  0  0  0  0  0
   18.3487   -4.4169  -15.8972 S   0  0  0  0  0  0  0  0  0  0  0  0
   20.0666   -4.5806  -15.3700 C   0  0  0  0  0  0  0  0  0  0  0  0
   20.4525   -6.0223  -15.1134 C   0  0  0  0  0  0  0  0  0  0  0  0
   21.9552   -6.0029  -14.7932 C   0  0  2  0  0  0  0  0  0  0  0  0
   22.2940   -7.3728  -14.4069 N   0  0  0  0  0  0  0  0  0  0  0  0
   22.2683   -5.0647  -13.7135 C   0  0  0  0  0  0  0  0  0  0  0  0
   22.2852   -5.4858  -12.5240 O   0  0  0  0  0  0  0  0  0  0  0  0
   22.5415   -3.7341  -13.9947 O   0  0  0  0  0  0  0  0  0  0  0  0
  2  1  1  0
  3  4  1  0
  3  2  1  0
  4  5  1  0
  5  6  1  1
  7 11  1  0
  7  5  1  0
  8  7  2  0
 10  9  1  6
 10 12  1  0
 10 11  1  0
 12 19  1  0
 13 12  2  0
 15 14  1  0
 16 15  1  0
 17 16  1  0
 18 17  1  1
 19 18  1  0
 20 18  1  0
 20 22  1  0
 21 20  2  0
M  END
$$$$
