MAM.pdb
     RDKit          3D

 22 21  0  0  1  0  0  0  0  0999 V2000
   26.6526  -15.7831  -15.2130 C   0  0  0  0  0  0  0  0  0  0  0  0
   26.0626  -17.0270  -16.3839 S   0  0  0  0  0  0  0  0  0  0  0  0
   26.6759  -18.6800  -15.9589 C   0  0  0  0  0  0  0  0  0  0  0  0
   27.4142  -18.6417  -14.6420 C   0  0  0  0  0  0  0  0  0  0  0  0
   27.9544  -20.0058  -14.2608 C   0  0  2  0  0  0  0  0  0  0  0  0
   28.3412  -20.7422  -15.4580 N   0  0  0  0  0  0  0  0  0  0  0  0
   26.8231  -20.7495  -13.6374 C   0  0  0  0  0  0  0  0  0  0  0  0
   26.1589  -21.6150  -14.2811 O   0  0  0  0  0  0  0  0  0  0  0  0
   25.2915  -20.8111  -10.1706 C   0  0  0  0  0  0  0  0  0  0  0  0
   25.3255  -21.0864  -11.6649 C   0  0  2  0  0  0  0  0  0  0  0  0
   26.4723  -20.4859  -12.2803 N   0  0  0  0  0  0  0  0  0  0  0  0
   24.1077  -20.6303  -12.3393 C   0  0  0  0  0  0  0  0  0  0  0  0
   24.0119  -19.4449  -12.7270 O   0  0  0  0  0  0  0  0  0  0  0  0
   20.6793  -23.6636  -16.6289 C   0  0  0  0  0  0  0  0  0  0  0  0
   19.3030  -22.6737  -15.9529 S   0  0  0  0  0  0  0  0  0  0  0  0
   20.0157  -21.5253  -14.7575 C   0  0  0  0  0  0  0  0  0  0  0  0
   21.3045  -22.0483  -14.1584 C   0  0  0  0  0  0  0  0  0  0  0  0
   21.7660  -20.9773  -13.1578 C   0  0  2  0  0  0  0  0  0  0  0  0
   23.0086  -21.4879  -12.5785 N   0  0  0  0  0  0  0  0  0  0  0  0
   20.7647  -20.7399  -12.1162 C   0  0  0  0  0  0  0  0  0  0  0  0
   20.8836  -21.3320  -11.0082 O   0  0  0  0  0  0  0  0  0  0  0  0
   19.7023  -19.8777  -12.3448 O   0  0  0  0  0  0  0  0  0  0  0  0
  2  1  1  0
  3  4  1  0
  3  2  1  0
  4  5  1  0
  5  6  1  6
  7 11  1  0
  7  5  1  0
  8  7  2  0
 10  9  1  1
 10 12  1  0
 10 11  1  0
 12 19  1  0
 13 12  2  0
 15 14  1  0
 16 15  1  0
 17 16  1  0
 18 17  1  6
 19 18  1  0
 20 18  1  0
 20 22  1  0
 21 20  2  0
M  END
$$$$
