MAM.pdb
     RDKit          3D

 22 21  0  0  1  0  0  0  0  0999 V2000
   32.5213  -22.1099   -9.1283 C   0  0  0  0  0  0  0  0  0  0  0  0
   32.7686  -22.9383  -10.7155 S   0  0  0  0  0  0  0  0  0  0  0  0
   32.4972  -21.8035  -12.1040 C   0  0  0  0  0  0  0  0  0  0  0  0
   31.2433  -20.9922  -11.8795 C   0  0  0  0  0  0  0  0  0  0  0  0
   29.9973  -21.7663  -12.2614 C   0  0  2  0  0  0  0  0  0  0  0  0
   29.8903  -21.8562  -13.7125 N   0  0  0  0  0  0  0  0  0  0  0  0
   28.8367  -20.9601  -11.7874 C   0  0  0  0  0  0  0  0  0  0  0  0
   28.8560  -20.3531  -10.6757 O   0  0  0  0  0  0  0  0  0  0  0  0
   25.3298  -20.4161  -13.1281 C   0  0  0  0  0  0  0  0  0  0  0  0
   26.4539  -20.2799  -12.1144 C   0  0  2  0  0  0  0  0  0  0  0  0
   27.6691  -20.8641  -12.6008 N   0  0  0  0  0  0  0  0  0  0  0  0
   26.1060  -20.8704  -10.8197 C   0  0  0  0  0  0  0  0  0  0  0  0
   26.2219  -22.1030  -10.6410 O   0  0  0  0  0  0  0  0  0  0  0  0
   27.2512  -19.6920   -3.3466 C   0  0  0  0  0  0  0  0  0  0  0  0
   27.2196  -18.8933   -4.9874 S   0  0  0  0  0  0  0  0  0  0  0  0
   26.3906  -20.0333   -6.1139 C   0  0  0  0  0  0  0  0  0  0  0  0
   26.4358  -19.5543   -7.5498 C   0  0  0  0  0  0  0  0  0  0  0  0
   25.6717  -20.6078   -8.3668 C   0  0  2  0  0  0  0  0  0  0  0  0
   25.6336  -20.0937   -9.7361 N   0  0  0  0  0  0  0  0  0  0  0  0
   24.3173  -20.8173   -7.8513 C   0  0  0  0  0  0  0  0  0  0  0  0
   24.1706  -21.3665   -6.7248 O   0  0  0  0  0  0  0  0  0  0  0  0
   23.2135  -20.4182   -8.5907 O   0  0  0  0  0  0  0  0  0  0  0  0
  2  1  1  0
  3  4  1  0
  3  2  1  0
  4  5  1  0
  5  6  1  6
  7 11  1  0
  7  5  1  0
  8  7  2  0
 10  9  1  6
 10 12  1  0
 10 11  1  0
 12 19  1  0
 13 12  2  0
 15 14  1  0
 16 15  1  0
 17 16  1  0
 18 17  1  1
 19 18  1  0
 20 18  1  0
 20 22  1  0
 21 20  2  0
M  END
$$$$
