MAM.pdb
     RDKit          3D

 22 21  0  0  1  0  0  0  0  0999 V2000
   17.8223  -13.5951  -11.4964 C   0  0  0  0  0  0  0  0  0  0  0  0
   16.0701  -13.8873  -11.8298 S   0  0  0  0  0  0  0  0  0  0  0  0
   15.0141  -12.9012  -10.7335 C   0  0  0  0  0  0  0  0  0  0  0  0
   15.2339  -11.4277  -10.9813 C   0  0  0  0  0  0  0  0  0  0  0  0
   14.3662  -10.5710  -10.0808 C   0  0  2  0  0  0  0  0  0  0  0  0
   12.9619  -10.7375  -10.4349 N   0  0  0  0  0  0  0  0  0  0  0  0
   14.7246   -9.1538  -10.3719 C   0  0  0  0  0  0  0  0  0  0  0  0
   14.4517   -8.6118  -11.4838 O   0  0  0  0  0  0  0  0  0  0  0  0
   15.6314   -6.1829   -8.3445 C   0  0  0  0  0  0  0  0  0  0  0  0
   15.7713   -7.0167   -9.6075 C   0  0  2  0  0  0  0  0  0  0  0  0
   15.3929   -8.3799   -9.3775 N   0  0  0  0  0  0  0  0  0  0  0  0
   17.1289   -6.9668  -10.1557 C   0  0  0  0  0  0  0  0  0  0  0  0
   17.9541   -7.8622   -9.8695 O   0  0  0  0  0  0  0  0  0  0  0  0
   21.9394   -8.6603  -15.1322 C   0  0  0  0  0  0  0  0  0  0  0  0
   20.2416   -8.6567  -14.4626 S   0  0  0  0  0  0  0  0  0  0  0  0
   20.1165   -7.2435  -13.3478 C   0  0  0  0  0  0  0  0  0  0  0  0
   18.7792   -7.1892  -12.6391 C   0  0  0  0  0  0  0  0  0  0  0  0
   18.8626   -5.9928  -11.6787 C   0  0  2  0  0  0  0  0  0  0  0  0
   17.5608   -5.9289  -11.0140 N   0  0  0  0  0  0  0  0  0  0  0  0
   19.1462   -4.7445  -12.3895 C   0  0  0  0  0  0  0  0  0  0  0  0
   18.1921   -4.1165  -12.9258 O   0  0  0  0  0  0  0  0  0  0  0  0
   20.4438   -4.2608  -12.4718 O   0  0  0  0  0  0  0  0  0  0  0  0
  2  1  1  0
  3  4  1  0
  3  2  1  0
  4  5  1  0
  5  6  1  6
  7 11  1  0
  7  5  1  0
  8  7  2  0
 10  9  1  1
 10 12  1  0
 10 11  1  0
 12 19  1  0
 13 12  2  0
 15 14  1  0
 16 15  1  0
 17 16  1  0
 18 17  1  6
 19 18  1  0
 20 18  1  0
 20 22  1  0
 21 20  2  0
M  END
$$$$
