MAM.pdb
     RDKit          3D

 22 21  0  0  1  0  0  0  0  0999 V2000
   28.4784  -19.9935   -5.7875 C   0  0  0  0  0  0  0  0  0  0  0  0
   28.2580  -18.2109   -5.5871 S   0  0  0  0  0  0  0  0  0  0  0  0
   27.8946  -17.4065   -7.1715 C   0  0  0  0  0  0  0  0  0  0  0  0
   28.0611  -18.3880   -8.3071 C   0  0  0  0  0  0  0  0  0  0  0  0
   27.8829  -17.7212   -9.6567 C   0  0  2  0  0  0  0  0  0  0  0  0
   26.8348  -16.7108   -9.5801 N   0  0  0  0  0  0  0  0  0  0  0  0
   27.4023  -18.7787  -10.5907 C   0  0  0  0  0  0  0  0  0  0  0  0
   26.3459  -18.6343  -11.2747 O   0  0  0  0  0  0  0  0  0  0  0  0
   28.7796  -22.1328  -11.6995 C   0  0  0  0  0  0  0  0  0  0  0  0
   27.7270  -21.0408  -11.6029 C   0  0  2  0  0  0  0  0  0  0  0  0
   28.1456  -19.9887  -10.7241 N   0  0  0  0  0  0  0  0  0  0  0  0
   26.4287  -21.5609  -11.1670 C   0  0  0  0  0  0  0  0  0  0  0  0
   25.9028  -22.5215  -11.7715 O   0  0  0  0  0  0  0  0  0  0  0  0
   24.7018  -21.2614   -5.1268 C   0  0  0  0  0  0  0  0  0  0  0  0
   23.0945  -21.8749   -5.7362 S   0  0  0  0  0  0  0  0  0  0  0  0
   23.2028  -21.9423   -7.5361 C   0  0  0  0  0  0  0  0  0  0  0  0
   24.5763  -21.5543   -8.0425 C   0  0  0  0  0  0  0  0  0  0  0  0
   24.4967  -21.6380   -9.5747 C   0  0  2  0  0  0  0  0  0  0  0  0
   25.7250  -21.0149  -10.0682 N   0  0  0  0  0  0  0  0  0  0  0  0
   23.3160  -20.9463  -10.0958 C   0  0  0  0  0  0  0  0  0  0  0  0
   22.1733  -21.4285   -9.8636 O   0  0  0  0  0  0  0  0  0  0  0  0
   23.4527  -19.7793  -10.8332 O   0  0  0  0  0  0  0  0  0  0  0  0
  2  1  1  0
  3  4  1  0
  3  2  1  0
  4  5  1  0
  5  6  1  1
  7 11  1  0
  7  5  1  0
  8  7  2  0
 10  9  1  1
 10 12  1  0
 10 11  1  0
 12 19  1  0
 13 12  2  0
 15 14  1  0
 16 15  1  0
 17 16  1  0
 18 17  1  1
 19 18  1  0
 20 18  1  0
 20 22  1  0
 21 20  2  0
M  END
$$$$
