MAM.pdb
     RDKit          3D

 22 21  0  0  1  0  0  0  0  0999 V2000
   21.0794  -14.8092  -19.8311 C   0  0  0  0  0  0  0  0  0  0  0  0
   19.3739  -15.4076  -19.8163 S   0  0  0  0  0  0  0  0  0  0  0  0
   18.2972  -14.3145  -18.8493 C   0  0  0  0  0  0  0  0  0  0  0  0
   18.9353  -12.9545  -18.6944 C   0  0  0  0  0  0  0  0  0  0  0  0
   18.6336  -12.3431  -17.3406 C   0  0  2  0  0  0  0  0  0  0  0  0
   17.1924  -12.2232  -17.1567 N   0  0  0  0  0  0  0  0  0  0  0  0
   19.1866  -10.9594  -17.3687 C   0  0  0  0  0  0  0  0  0  0  0  0
   20.4026  -10.7326  -17.6421 O   0  0  0  0  0  0  0  0  0  0  0  0
   17.6912   -7.5054  -16.9375 C   0  0  0  0  0  0  0  0  0  0  0  0
   18.8274   -8.5124  -17.0074 C   0  0  2  0  0  0  0  0  0  0  0  0
   18.3310   -9.8550  -17.0813 N   0  0  0  0  0  0  0  0  0  0  0  0
   19.7475   -8.3878  -15.8743 C   0  0  0  0  0  0  0  0  0  0  0  0
   19.7923   -9.2825  -15.0014 O   0  0  0  0  0  0  0  0  0  0  0  0
   26.7061   -9.5187  -14.5389 C   0  0  0  0  0  0  0  0  0  0  0  0
   25.2486   -9.4992  -15.6372 S   0  0  0  0  0  0  0  0  0  0  0  0
   24.0347   -8.3967  -14.8845 C   0  0  0  0  0  0  0  0  0  0  0  0
   22.7177   -8.3985  -15.6320 C   0  0  0  0  0  0  0  0  0  0  0  0
   21.8264   -7.3744  -14.9124 C   0  0  2  0  0  0  0  0  0  0  0  0
   20.6085   -7.2767  -15.7173 N   0  0  0  0  0  0  0  0  0  0  0  0
   22.4813   -6.0697  -14.7984 C   0  0  0  0  0  0  0  0  0  0  0  0
   23.2575   -5.8587  -13.8261 O   0  0  0  0  0  0  0  0  0  0  0  0
   22.2512   -5.0819  -15.7446 O   0  0  0  0  0  0  0  0  0  0  0  0
  2  1  1  0
  3  4  1  0
  3  2  1  0
  4  5  1  0
  5  6  1  6
  7 11  1  0
  7  5  1  0
  8  7  2  0
 10  9  1  1
 10 12  1  0
 10 11  1  0
 12 19  1  0
 13 12  2  0
 15 14  1  0
 16 15  1  0
 17 16  1  0
 18 17  1  6
 19 18  1  0
 20 18  1  0
 20 22  1  0
 21 20  2  0
M  END
$$$$
