ISD.pdb
     RDKit          3D

 23 22  0  0  1  0  0  0  0  0999 V2000
   14.2915   -9.9458  -17.9025 C   0  0  0  0  0  0  0  0  0  0  0  0
   15.5321  -10.7430  -17.6727 C   0  0  0  0  0  0  0  0  0  0  0  0
   16.5754  -10.0900  -16.8318 C   0  0  2  0  0  0  0  0  0  0  0  0
   16.9793   -8.8007  -17.5248 C   0  0  0  0  0  0  0  0  0  0  0  0
   17.7548  -10.9523  -16.5183 C   0  0  2  0  0  0  0  0  0  0  0  0
   17.2780  -12.1616  -15.8613 N   0  0  0  0  0  0  0  0  0  0  0  0
   18.6825  -10.2492  -15.6089 C   0  0  0  0  0  0  0  0  0  0  0  0
   18.2508   -9.8994  -14.4614 O   0  0  0  0  0  0  0  0  0  0  0  0
   22.7815   -9.8029  -16.3207 O   0  0  0  0  0  0  0  0  0  0  0  0
   22.2301   -9.8684  -15.0450 C   0  0  0  0  0  0  0  0  0  0  0  0
   20.8557   -9.2386  -15.0133 C   0  0  2  0  0  0  0  0  0  0  0  0
   20.0228   -9.9460  -15.9563 N   0  0  0  0  0  0  0  0  0  0  0  0
   20.9083   -7.7868  -15.2972 C   0  0  0  0  0  0  0  0  0  0  0  0
   20.6013   -7.3624  -16.4313 O   0  0  0  0  0  0  0  0  0  0  0  0
   21.3053   -6.8396  -14.2990 N   0  0  0  0  0  0  0  0  0  0  0  0
   21.4503   -5.4411  -14.5522 C   0  0  1  0  0  0  0  0  0  0  0  0
   20.1088   -4.8285  -14.8799 C   0  0  0  0  0  0  0  0  0  0  0  0
   20.1308   -3.3804  -15.0959 C   0  0  0  0  0  0  0  0  0  0  0  0
   21.1369   -2.8050  -15.5695 O   0  0  0  0  0  0  0  0  0  0  0  0
   22.1030   -4.7252  -13.4196 C   0  0  0  0  0  0  0  0  0  0  0  0
   22.3697   -3.5021  -13.4688 O   0  0  0  0  0  0  0  0  0  0  0  0
   19.0276   -2.5747  -14.7865 O   0  0  0  0  0  0  0  0  0  0  0  0
   22.4408   -5.4048  -12.2490 O   0  0  0  0  0  0  0  0  0  0  0  0
  1  2  1  0
  2  3  1  0
  3  4  1  6
  5  3  1  0
  5  6  1  1
  7  5  1  0
  7  8  2  0
 10  9  1  0
 11 10  1  6
 11 12  1  0
 12  7  1  0
 13 15  1  0
 13 11  1  0
 14 13  2  0
 16 15  1  0
 16 20  1  0
 16 17  1  1
 18 17  1  0
 18 22  1  0
 19 18  2  0
 20 23  1  0
 21 20  2  0
M  END
$$$$
