ISD.pdb
     RDKit          3D

 23 22  0  0  1  0  0  0  0  0999 V2000
   16.3354  -12.5352  -19.4946 C   0  0  0  0  0  0  0  0  0  0  0  0
   17.6626  -12.9269  -18.9356 C   0  0  0  0  0  0  0  0  0  0  0  0
   18.2398  -11.9966  -17.9239 C   0  0  2  0  0  0  0  0  0  0  0  0
   18.3484  -10.6277  -18.5720 C   0  0  0  0  0  0  0  0  0  0  0  0
   19.5378  -12.4430  -17.3336 C   0  0  2  0  0  0  0  0  0  0  0  0
   19.3467  -13.7634  -16.7491 N   0  0  0  0  0  0  0  0  0  0  0  0
   19.9721  -11.5102  -16.2738 C   0  0  0  0  0  0  0  0  0  0  0  0
   19.2437  -11.4004  -15.2332 O   0  0  0  0  0  0  0  0  0  0  0  0
   23.2943   -9.3821  -13.7649 O   0  0  0  0  0  0  0  0  0  0  0  0
   22.8695  -10.2375  -14.7766 C   0  0  0  0  0  0  0  0  0  0  0  0
   21.5012   -9.8421  -15.2846 C   0  0  2  0  0  0  0  0  0  0  0  0
   21.1550  -10.7347  -16.3648 N   0  0  0  0  0  0  0  0  0  0  0  0
   21.4569   -8.4222  -15.7003 C   0  0  0  0  0  0  0  0  0  0  0  0
   21.7377   -8.1085  -16.8765 O   0  0  0  0  0  0  0  0  0  0  0  0
   21.0973   -7.3816  -14.7843 N   0  0  0  0  0  0  0  0  0  0  0  0
   21.1932   -5.9902  -15.0941 C   0  0  1  0  0  0  0  0  0  0  0  0
   19.8183   -5.4153  -15.3423 C   0  0  0  0  0  0  0  0  0  0  0  0
   19.8032   -4.0021  -15.7255 C   0  0  0  0  0  0  0  0  0  0  0  0
   19.5587   -3.1009  -14.8914 O   0  0  0  0  0  0  0  0  0  0  0  0
   21.9111   -5.2228  -14.0373 C   0  0  0  0  0  0  0  0  0  0  0  0
   22.2190   -5.7332  -12.9354 O   0  0  0  0  0  0  0  0  0  0  0  0
   20.0649   -3.5945  -17.0397 O   0  0  0  0  0  0  0  0  0  0  0  0
   22.2709   -3.8911  -14.2459 O   0  0  0  0  0  0  0  0  0  0  0  0
  1  2  1  0
  2  3  1  0
  3  4  1  6
  5  3  1  0
  5  6  1  1
  7  5  1  0
  7  8  2  0
 10  9  1  0
 11 10  1  6
 11 12  1  0
 12  7  1  0
 13 15  1  0
 13 11  1  0
 14 13  2  0
 16 15  1  0
 16 20  1  0
 16 17  1  1
 18 17  1  0
 18 22  1  0
 19 18  2  0
 20 23  1  0
 21 20  2  0
M  END
$$$$
