ISD.pdb
     RDKit          3D

 23 22  0  0  1  0  0  0  0  0999 V2000
   13.6304  -12.1035  -16.5575 C   0  0  0  0  0  0  0  0  0  0  0  0
   15.1114  -12.0610  -16.7375 C   0  0  0  0  0  0  0  0  0  0  0  0
   15.8747  -11.3623  -15.6645 C   0  0  2  0  0  0  0  0  0  0  0  0
   15.3043   -9.9608  -15.5370 C   0  0  0  0  0  0  0  0  0  0  0  0
   17.3562  -11.3502  -15.8586 C   0  0  2  0  0  0  0  0  0  0  0  0
   17.8402  -12.7220  -15.7864 N   0  0  0  0  0  0  0  0  0  0  0  0
   18.0104  -10.5568  -14.7981 C   0  0  0  0  0  0  0  0  0  0  0  0
   18.1030  -11.0687  -13.6341 O   0  0  0  0  0  0  0  0  0  0  0  0
   21.0100   -7.1461  -13.4189 O   0  0  0  0  0  0  0  0  0  0  0  0
   20.3006   -7.7525  -14.4508 C   0  0  0  0  0  0  0  0  0  0  0  0
   19.1249   -8.5379  -13.9145 C   0  0  2  0  0  0  0  0  0  0  0  0
   18.5336   -9.2578  -15.0170 N   0  0  0  0  0  0  0  0  0  0  0  0
   18.1448   -7.6645  -13.2307 C   0  0  0  0  0  0  0  0  0  0  0  0
   17.3071   -7.0243  -13.9008 O   0  0  0  0  0  0  0  0  0  0  0  0
   18.1256   -7.5281  -11.8051 N   0  0  0  0  0  0  0  0  0  0  0  0
   17.2265   -6.6645  -11.1075 C   0  0  1  0  0  0  0  0  0  0  0  0
   17.3220   -6.9048   -9.6190 C   0  0  0  0  0  0  0  0  0  0  0  0
   16.4542   -6.0538   -8.8023 C   0  0  0  0  0  0  0  0  0  0  0  0
   16.8200   -5.6305   -7.6822 O   0  0  0  0  0  0  0  0  0  0  0  0
   17.4538   -5.2280  -11.4331 C   0  0  0  0  0  0  0  0  0  0  0  0
   16.6514   -4.3305  -11.0865 O   0  0  0  0  0  0  0  0  0  0  0  0
   15.1790   -5.6721   -9.2379 O   0  0  0  0  0  0  0  0  0  0  0  0
   18.5868   -4.8305  -12.1436 O   0  0  0  0  0  0  0  0  0  0  0  0
  1  2  1  0
  2  3  1  0
  3  4  1  6
  5  3  1  0
  5  6  1  1
  7  5  1  0
  7  8  2  0
 10  9  1  0
 11 10  1  6
 11 12  1  0
 12  7  1  0
 13 15  1  0
 13 11  1  0
 14 13  2  0
 16 15  1  0
 16 20  1  0
 16 17  1  1
 18 17  1  0
 18 22  1  0
 19 18  2  0
 20 23  1  0
 21 20  2  0
M  END
$$$$
