ISD.pdb
     RDKit          3D

 23 22  0  0  1  0  0  0  0  0999 V2000
   15.5476  -13.4986  -17.4708 C   0  0  0  0  0  0  0  0  0  0  0  0
   16.5697  -13.1818  -16.4305 C   0  0  0  0  0  0  0  0  0  0  0  0
   16.5082  -11.8063  -15.8593 C   0  0  2  0  0  0  0  0  0  0  0  0
   16.5502  -10.8279  -17.0197 C   0  0  0  0  0  0  0  0  0  0  0  0
   17.5544  -11.5080  -14.8350 C   0  0  2  0  0  0  0  0  0  0  0  0
   17.4354  -12.4828  -13.7594 N   0  0  0  0  0  0  0  0  0  0  0  0
   17.3601  -10.1545  -14.2762 C   0  0  0  0  0  0  0  0  0  0  0  0
   17.6462   -9.1530  -15.0114 O   0  0  0  0  0  0  0  0  0  0  0  0
   16.8898   -9.4069  -10.2427 O   0  0  0  0  0  0  0  0  0  0  0  0
   16.1356   -8.6174  -11.1051 C   0  0  0  0  0  0  0  0  0  0  0  0
   16.7586   -8.5675  -12.4821 C   0  0  2  0  0  0  0  0  0  0  0  0
   16.8750   -9.9229  -12.9647 N   0  0  0  0  0  0  0  0  0  0  0  0
   18.0622   -7.8666  -12.4719 C   0  0  0  0  0  0  0  0  0  0  0  0
   19.0684   -8.4296  -11.9908 O   0  0  0  0  0  0  0  0  0  0  0  0
   18.2094   -6.5450  -13.0038 N   0  0  0  0  0  0  0  0  0  0  0  0
   19.4626   -5.8645  -13.0900 C   0  0  1  0  0  0  0  0  0  0  0  0
   20.4339   -6.6645  -13.9260 C   0  0  0  0  0  0  0  0  0  0  0  0
   21.7215   -6.0100  -14.1668 C   0  0  0  0  0  0  0  0  0  0  0  0
   22.1004   -5.0377  -13.4749 O   0  0  0  0  0  0  0  0  0  0  0  0
   19.3190   -4.4779  -13.6171 C   0  0  0  0  0  0  0  0  0  0  0  0
   20.2733   -3.6662  -13.6275 O   0  0  0  0  0  0  0  0  0  0  0  0
   22.5882   -6.4435  -15.1780 O   0  0  0  0  0  0  0  0  0  0  0  0
   18.0984   -4.0334  -14.1260 O   0  0  0  0  0  0  0  0  0  0  0  0
  1  2  1  0
  2  3  1  0
  3  4  1  6
  5  3  1  0
  5  6  1  1
  7  5  1  0
  7  8  2  0
 10  9  1  0
 11 10  1  1
 11 12  1  0
 12  7  1  0
 13 15  1  0
 13 11  1  0
 14 13  2  0
 16 15  1  0
 16 20  1  0
 16 17  1  6
 18 17  1  0
 18 22  1  0
 19 18  2  0
 20 23  1  0
 21 20  2  0
M  END
$$$$
