ISD.pdb
     RDKit          3D

 23 22  0  0  1  0  0  0  0  0999 V2000
   28.1098  -13.6920  -16.8830 C   0  0  0  0  0  0  0  0  0  0  0  0
   26.7570  -13.1723  -17.2398 C   0  0  0  0  0  0  0  0  0  0  0  0
   26.4040  -11.8403  -16.6713 C   0  0  2  0  0  0  0  0  0  0  0  0
   26.4971  -11.9498  -15.1597 C   0  0  0  0  0  0  0  0  0  0  0  0
   25.0825  -11.3023  -17.1151 C   0  0  2  0  0  0  0  0  0  0  0  0
   25.0446  -11.3203  -18.5710 N   0  0  0  0  0  0  0  0  0  0  0  0
   24.9080   -9.9111  -16.6502 C   0  0  0  0  0  0  0  0  0  0  0  0
   24.7325   -9.7106  -15.4034 O   0  0  0  0  0  0  0  0  0  0  0  0
   24.2506   -6.4867  -19.1183 O   0  0  0  0  0  0  0  0  0  0  0  0
   25.1411   -6.4754  -18.0494 C   0  0  0  0  0  0  0  0  0  0  0  0
   24.7299   -7.4712  -16.9882 C   0  0  2  0  0  0  0  0  0  0  0  0
   24.9242   -8.7966  -17.5258 N   0  0  0  0  0  0  0  0  0  0  0  0
   23.3372   -7.2522  -16.5373 C   0  0  0  0  0  0  0  0  0  0  0  0
   22.3996   -7.8644  -17.0913 O   0  0  0  0  0  0  0  0  0  0  0  0
   23.0255   -6.3483  -15.4710 N   0  0  0  0  0  0  0  0  0  0  0  0
   21.6954   -6.0941  -15.0160 C   0  0  1  0  0  0  0  0  0  0  0  0
   21.0565   -7.3743  -14.5311 C   0  0  0  0  0  0  0  0  0  0  0  0
   19.7091   -7.2180  -13.9793 C   0  0  0  0  0  0  0  0  0  0  0  0
   19.0551   -6.1624  -14.1395 O   0  0  0  0  0  0  0  0  0  0  0  0
   21.6488   -5.0407  -13.9628 C   0  0  0  0  0  0  0  0  0  0  0  0
   22.5985   -4.8492  -13.1684 O   0  0  0  0  0  0  0  0  0  0  0  0
   19.0901   -8.2421  -13.2514 O   0  0  0  0  0  0  0  0  0  0  0  0
   20.5290   -4.2195  -13.8274 O   0  0  0  0  0  0  0  0  0  0  0  0
  1  2  1  0
  2  3  1  0
  3  4  1  1
  5  3  1  0
  5  6  1  6
  7  5  1  0
  7  8  2  0
 10  9  1  0
 11 10  1  6
 11 12  1  0
 12  7  1  0
 13 15  1  0
 13 11  1  0
 14 13  2  0
 16 15  1  0
 16 20  1  0
 16 17  1  1
 18 17  1  0
 18 22  1  0
 19 18  2  0
 20 23  1  0
 21 20  2  0
M  END
$$$$
