ISD.pdb
     RDKit          3D

 23 22  0  0  1  0  0  0  0  0999 V2000
   17.5898  -13.9586  -19.8706 C   0  0  0  0  0  0  0  0  0  0  0  0
   18.7490  -13.0186  -19.8715 C   0  0  0  0  0  0  0  0  0  0  0  0
   19.0010  -12.2993  -18.5904 C   0  0  2  0  0  0  0  0  0  0  0  0
   17.7390  -11.5295  -18.2433 C   0  0  0  0  0  0  0  0  0  0  0  0
   20.2107  -11.4223  -18.5940 C   0  0  2  0  0  0  0  0  0  0  0  0
   21.3714  -12.2420  -18.9139 N   0  0  0  0  0  0  0  0  0  0  0  0
   20.4102  -10.8107  -17.2644 C   0  0  0  0  0  0  0  0  0  0  0  0
   19.4894  -10.0589  -16.8035 O   0  0  0  0  0  0  0  0  0  0  0  0
   24.1070  -10.7381  -15.2111 O   0  0  0  0  0  0  0  0  0  0  0  0
   22.9133  -10.8780  -14.5104 C   0  0  0  0  0  0  0  0  0  0  0  0
   21.7606  -10.2618  -15.2708 C   0  0  2  0  0  0  0  0  0  0  0  0
   21.5754  -11.0200  -16.4850 N   0  0  0  0  0  0  0  0  0  0  0  0
   21.9851   -8.8239  -15.5415 C   0  0  0  0  0  0  0  0  0  0  0  0
   22.2518   -8.4427  -16.7009 O   0  0  0  0  0  0  0  0  0  0  0  0
   21.9050   -7.8418  -14.5022 N   0  0  0  0  0  0  0  0  0  0  0  0
   22.1187   -6.4459  -14.7180 C   0  0  1  0  0  0  0  0  0  0  0  0
   21.0780   -5.8996  -15.6671 C   0  0  0  0  0  0  0  0  0  0  0  0
   21.1671   -4.4589  -15.9138 C   0  0  0  0  0  0  0  0  0  0  0  0
   20.1575   -3.7837  -16.2179 O   0  0  0  0  0  0  0  0  0  0  0  0
   22.1394   -5.6725  -13.4442 C   0  0  0  0  0  0  0  0  0  0  0  0
   21.4149   -5.9756  -12.4681 O   0  0  0  0  0  0  0  0  0  0  0  0
   22.3833   -3.7710  -15.8171 O   0  0  0  0  0  0  0  0  0  0  0  0
   22.9815   -4.5703  -13.2951 O   0  0  0  0  0  0  0  0  0  0  0  0
  1  2  1  0
  2  3  1  0
  3  4  1  6
  5  3  1  0
  5  6  1  1
  7  5  1  0
  7  8  2  0
 10  9  1  0
 11 10  1  6
 11 12  1  0
 12  7  1  0
 13 15  1  0
 13 11  1  0
 14 13  2  0
 16 15  1  0
 16 20  1  0
 16 17  1  6
 18 17  1  0
 18 22  1  0
 19 18  2  0
 20 23  1  0
 21 20  2  0
M  END
$$$$
