ISD.pdb
     RDKit          3D

 23 22  0  0  1  0  0  0  0  0999 V2000
   15.0652  -12.8826  -16.9108 C   0  0  0  0  0  0  0  0  0  0  0  0
   16.1178  -11.9689  -17.4443 C   0  0  0  0  0  0  0  0  0  0  0  0
   16.9885  -11.3180  -16.4244 C   0  0  2  0  0  0  0  0  0  0  0  0
   16.0884  -10.5193  -15.4984 C   0  0  0  0  0  0  0  0  0  0  0  0
   18.0951  -10.4863  -16.9870 C   0  0  2  0  0  0  0  0  0  0  0  0
   18.9699  -11.3519  -17.7660 N   0  0  0  0  0  0  0  0  0  0  0  0
   18.8808   -9.8672  -15.9002 C   0  0  0  0  0  0  0  0  0  0  0  0
   18.2736   -9.1068  -15.0763 O   0  0  0  0  0  0  0  0  0  0  0  0
   23.0761  -10.0110  -15.7191 O   0  0  0  0  0  0  0  0  0  0  0  0
   22.3380   -9.9581  -14.5410 C   0  0  0  0  0  0  0  0  0  0  0  0
   20.9989   -9.2931  -14.7673 C   0  0  2  0  0  0  0  0  0  0  0  0
   20.2728  -10.0785  -15.7366 N   0  0  0  0  0  0  0  0  0  0  0  0
   21.1488   -7.8834  -15.1933 C   0  0  0  0  0  0  0  0  0  0  0  0
   20.9297   -7.5651  -16.3813 O   0  0  0  0  0  0  0  0  0  0  0  0
   21.5423   -6.8581  -14.2740 N   0  0  0  0  0  0  0  0  0  0  0  0
   21.7976   -5.5070  -14.6615 C   0  0  1  0  0  0  0  0  0  0  0  0
   20.5515   -4.8894  -15.2516 C   0  0  0  0  0  0  0  0  0  0  0  0
   20.6957   -3.4930  -15.6681 C   0  0  0  0  0  0  0  0  0  0  0  0
   21.8218   -2.9819  -15.8640 O   0  0  0  0  0  0  0  0  0  0  0  0
   22.3204   -4.6837  -13.5345 C   0  0  0  0  0  0  0  0  0  0  0  0
   22.4019   -5.1278  -12.3659 O   0  0  0  0  0  0  0  0  0  0  0  0
   19.5821   -2.6677  -15.8695 O   0  0  0  0  0  0  0  0  0  0  0  0
   22.7449   -3.3721  -13.7491 O   0  0  0  0  0  0  0  0  0  0  0  0
  1  2  1  0
  2  3  1  0
  3  4  1  1
  5  3  1  0
  5  6  1  1
  7  5  1  0
  7  8  2  0
 10  9  1  0
 11 10  1  6
 11 12  1  0
 12  7  1  0
 13 15  1  0
 13 11  1  0
 14 13  2  0
 16 15  1  0
 16 20  1  0
 16 17  1  1
 18 17  1  0
 18 22  1  0
 19 18  2  0
 20 23  1  0
 21 20  2  0
M  END
$$$$
