ISD.pdb
     RDKit          3D

 23 22  0  0  1  0  0  0  0  0999 V2000
   28.9597  -12.2176  -15.9822 C   0  0  0  0  0  0  0  0  0  0  0  0
   27.5656  -12.7282  -16.1351 C   0  0  0  0  0  0  0  0  0  0  0  0
   26.4975  -11.6897  -16.1888 C   0  0  2  0  0  0  0  0  0  0  0  0
   26.4966  -10.9661  -14.8539 C   0  0  0  0  0  0  0  0  0  0  0  0
   25.1422  -12.2059  -16.5487 C   0  0  2  0  0  0  0  0  0  0  0  0
   25.2438  -12.9209  -17.8135 N   0  0  0  0  0  0  0  0  0  0  0  0
   24.1886  -11.0890  -16.7071 C   0  0  0  0  0  0  0  0  0  0  0  0
   24.2690  -10.3736  -17.7595 O   0  0  0  0  0  0  0  0  0  0  0  0
   20.4097  -11.2442  -15.8502 O   0  0  0  0  0  0  0  0  0  0  0  0
   20.9512  -10.0734  -15.3289 C   0  0  0  0  0  0  0  0  0  0  0  0
   22.2512   -9.7219  -16.0167 C   0  0  2  0  0  0  0  0  0  0  0  0
   23.1961  -10.7785  -15.7441 N   0  0  0  0  0  0  0  0  0  0  0  0
   22.7590   -8.3981  -15.5916 C   0  0  0  0  0  0  0  0  0  0  0  0
   23.4440   -8.2982  -14.5517 O   0  0  0  0  0  0  0  0  0  0  0  0
   22.4864   -7.2111  -16.3452 N   0  0  0  0  0  0  0  0  0  0  0  0
   23.0314   -5.9302  -16.0237 C   0  0  1  0  0  0  0  0  0  0  0  0
   23.9883   -5.4844  -17.1044 C   0  0  0  0  0  0  0  0  0  0  0  0
   24.6325   -4.1923  -16.8599 C   0  0  0  0  0  0  0  0  0  0  0  0
   23.9975   -3.1171  -16.9513 O   0  0  0  0  0  0  0  0  0  0  0  0
   21.9733   -4.9068  -15.7907 C   0  0  0  0  0  0  0  0  0  0  0  0
   20.9455   -4.8359  -16.5035 O   0  0  0  0  0  0  0  0  0  0  0  0
   25.9856   -4.1008  -16.5097 O   0  0  0  0  0  0  0  0  0  0  0  0
   22.0946   -3.9821  -14.7531 O   0  0  0  0  0  0  0  0  0  0  0  0
  1  2  1  0
  2  3  1  0
  3  4  1  1
  5  3  1  0
  5  6  1  6
  7  5  1  0
  7  8  2  0
 10  9  1  0
 11 10  1  1
 11 12  1  0
 12  7  1  0
 13 15  1  0
 13 11  1  0
 14 13  2  0
 16 15  1  0
 16 20  1  0
 16 17  1  6
 18 17  1  0
 18 22  1  0
 19 18  2  0
 20 23  1  0
 21 20  2  0
M  END
$$$$
