ISD.pdb
     RDKit          3D

 23 22  0  0  1  0  0  0  0  0999 V2000
   43.0811  -16.2914   -8.9616 C   0  0  0  0  0  0  0  0  0  0  0  0
   43.8894  -15.0785   -8.6406 C   0  0  0  0  0  0  0  0  0  0  0  0
   43.1352  -13.7941   -8.5818 C   0  0  2  0  0  0  0  0  0  0  0  0
   42.3880  -13.6429   -9.8951 C   0  0  0  0  0  0  0  0  0  0  0  0
   43.9686  -12.5942   -8.2685 C   0  0  2  0  0  0  0  0  0  0  0  0
   44.6397  -12.8206   -6.9958 N   0  0  0  0  0  0  0  0  0  0  0  0
   43.1199  -11.3907   -8.1530 C   0  0  0  0  0  0  0  0  0  0  0  0
   42.2470  -11.3567   -7.2243 O   0  0  0  0  0  0  0  0  0  0  0  0
   43.4430   -7.8950   -7.3110 O   0  0  0  0  0  0  0  0  0  0  0  0
   43.0253   -7.9319   -8.6377 C   0  0  0  0  0  0  0  0  0  0  0  0
   42.2700   -9.2078   -8.9350 C   0  0  2  0  0  0  0  0  0  0  0  0
   43.2316  -10.2803   -9.0268 N   0  0  0  0  0  0  0  0  0  0  0  0
   41.4497   -9.0894  -10.1614 C   0  0  0  0  0  0  0  0  0  0  0  0
   41.6692   -9.8437  -11.1327 O   0  0  0  0  0  0  0  0  0  0  0  0
   40.3974   -8.1242  -10.2717 N   0  0  0  0  0  0  0  0  0  0  0  0
   39.6266   -7.9300  -11.4587 C   0  0  1  0  0  0  0  0  0  0  0  0
   39.0556   -9.2466  -11.9310 C   0  0  0  0  0  0  0  0  0  0  0  0
   38.2421   -9.1631  -13.1458 C   0  0  0  0  0  0  0  0  0  0  0  0
   37.9798   -8.0630  -13.6829 O   0  0  0  0  0  0  0  0  0  0  0  0
   38.5506   -6.9152  -11.2756 C   0  0  0  0  0  0  0  0  0  0  0  0
   37.8130   -6.5475  -12.2191 O   0  0  0  0  0  0  0  0  0  0  0  0
   37.7244  -10.3088  -13.7632 O   0  0  0  0  0  0  0  0  0  0  0  0
   38.3253   -6.3351  -10.0269 O   0  0  0  0  0  0  0  0  0  0  0  0
  1  2  1  0
  2  3  1  0
  3  4  1  6
  5  3  1  0
  5  6  1  1
  7  5  1  0
  7  8  2  0
 10  9  1  0
 11 10  1  6
 11 12  1  0
 12  7  1  0
 13 15  1  0
 13 11  1  0
 14 13  2  0
 16 15  1  0
 16 20  1  0
 16 17  1  1
 18 17  1  0
 18 22  1  0
 19 18  2  0
 20 23  1  0
 21 20  2  0
M  END
$$$$
