ISD.pdb
     RDKit          3D

 23 22  0  0  1  0  0  0  0  0999 V2000
   19.2367  -13.3142  -19.6972 C   0  0  0  0  0  0  0  0  0  0  0  0
   20.3322  -12.6054  -18.9727 C   0  0  0  0  0  0  0  0  0  0  0  0
   19.9840  -11.2642  -18.4233 C   0  0  2  0  0  0  0  0  0  0  0  0
   19.4858  -10.4132  -19.5779 C   0  0  0  0  0  0  0  0  0  0  0  0
   21.0843  -10.5946  -17.6659 C   0  0  2  0  0  0  0  0  0  0  0  0
   21.5938  -11.5301  -16.6726 N   0  0  0  0  0  0  0  0  0  0  0  0
   20.5783   -9.3919  -16.9735 C   0  0  0  0  0  0  0  0  0  0  0  0
   20.2388   -8.3877  -17.6820 O   0  0  0  0  0  0  0  0  0  0  0  0
   20.2954   -8.7881  -12.7085 O   0  0  0  0  0  0  0  0  0  0  0  0
   19.3047   -8.4871  -13.6378 C   0  0  0  0  0  0  0  0  0  0  0  0
   19.9072   -8.1096  -14.9724 C   0  0  2  0  0  0  0  0  0  0  0  0
   20.4574   -9.3058  -15.5639 N   0  0  0  0  0  0  0  0  0  0  0  0
   20.9206   -7.0393  -14.8364 C   0  0  0  0  0  0  0  0  0  0  0  0
   22.1159   -7.2746  -15.1129 O   0  0  0  0  0  0  0  0  0  0  0  0
   20.5697   -5.7239  -14.3920 N   0  0  0  0  0  0  0  0  0  0  0  0
   21.4892   -4.6310  -14.3589 C   0  0  1  0  0  0  0  0  0  0  0  0
   22.0476   -4.3774  -15.7396 C   0  0  0  0  0  0  0  0  0  0  0  0
   22.8982   -3.1905  -15.8499 C   0  0  0  0  0  0  0  0  0  0  0  0
   23.5884   -2.7886  -14.8857 O   0  0  0  0  0  0  0  0  0  0  0  0
   20.8793   -3.3945  -13.7931 C   0  0  0  0  0  0  0  0  0  0  0  0
   21.5505   -2.3596  -13.5744 O   0  0  0  0  0  0  0  0  0  0  0  0
   22.9811   -2.4542  -17.0385 O   0  0  0  0  0  0  0  0  0  0  0  0
   19.5190   -3.3488  -13.4864 O   0  0  0  0  0  0  0  0  0  0  0  0
  1  2  1  0
  2  3  1  0
  3  4  1  6
  5  3  1  0
  5  6  1  1
  7  5  1  0
  7  8  2  0
 10  9  1  0
 11 10  1  1
 11 12  1  0
 12  7  1  0
 13 15  1  0
 13 11  1  0
 14 13  2  0
 16 15  1  0
 16 20  1  0
 16 17  1  6
 18 17  1  0
 18 22  1  0
 19 18  2  0
 20 23  1  0
 21 20  2  0
M  END
$$$$
