ISD.pdb
     RDKit          3D

 23 22  0  0  1  0  0  0  0  0999 V2000
   24.3546  -14.4854  -15.5130 C   0  0  0  0  0  0  0  0  0  0  0  0
   23.2056  -13.5378  -15.6086 C   0  0  0  0  0  0  0  0  0  0  0  0
   23.5629  -12.0941  -15.7105 C   0  0  2  0  0  0  0  0  0  0  0  0
   24.4139  -11.7481  -14.5015 C   0  0  0  0  0  0  0  0  0  0  0  0
   22.3974  -11.1712  -15.8597 C   0  0  2  0  0  0  0  0  0  0  0  0
   21.6220  -11.5938  -17.0180 N   0  0  0  0  0  0  0  0  0  0  0  0
   22.8596   -9.7848  -16.0747 C   0  0  0  0  0  0  0  0  0  0  0  0
   23.3322   -9.1464  -15.0774 O   0  0  0  0  0  0  0  0  0  0  0  0
   22.4570   -7.7098  -19.7197 O   0  0  0  0  0  0  0  0  0  0  0  0
   23.5315   -7.4616  -18.8715 C   0  0  0  0  0  0  0  0  0  0  0  0
   23.1649   -7.7442  -17.4319 C   0  0  2  0  0  0  0  0  0  0  0  0
   22.7978   -9.1367  -17.3338 N   0  0  0  0  0  0  0  0  0  0  0  0
   22.0877   -6.8497  -16.9519 C   0  0  0  0  0  0  0  0  0  0  0  0
   20.9688   -6.8685  -17.5072 O   0  0  0  0  0  0  0  0  0  0  0  0
   22.2899   -5.9507  -15.8555 N   0  0  0  0  0  0  0  0  0  0  0  0
   21.2578   -5.1266  -15.3107 C   0  0  1  0  0  0  0  0  0  0  0  0
   20.0966   -5.9784  -14.8544 C   0  0  0  0  0  0  0  0  0  0  0  0
   18.9960   -5.2365  -14.2357 C   0  0  0  0  0  0  0  0  0  0  0  0
   18.8832   -3.9973  -14.3744 O   0  0  0  0  0  0  0  0  0  0  0  0
   21.7513   -4.2581  -14.2046 C   0  0  0  0  0  0  0  0  0  0  0  0
   22.2919   -4.7291  -13.1773 O   0  0  0  0  0  0  0  0  0  0  0  0
   18.0189   -5.8790  -13.4649 O   0  0  0  0  0  0  0  0  0  0  0  0
   21.6269   -2.8706  -14.2805 O   0  0  0  0  0  0  0  0  0  0  0  0
  1  2  1  0
  2  3  1  0
  3  4  1  1
  5  3  1  0
  5  6  1  6
  7  5  1  0
  7  8  2  0
 10  9  1  0
 11 10  1  6
 11 12  1  0
 12  7  1  0
 13 15  1  0
 13 11  1  0
 14 13  2  0
 16 15  1  0
 16 20  1  0
 16 17  1  1
 18 17  1  0
 18 22  1  0
 19 18  2  0
 20 23  1  0
 21 20  2  0
M  END
$$$$
