ISD.pdb
     RDKit          3D

 23 22  0  0  1  0  0  0  0  0999 V2000
   12.3319  -28.0804    7.2100 C   0  0  0  0  0  0  0  0  0  0  0  0
   13.0220  -26.7628    7.0866 C   0  0  0  0  0  0  0  0  0  0  0  0
   14.5050  -26.8187    6.9470 C   0  0  2  0  0  0  0  0  0  0  0  0
   15.0463  -27.5962    8.1337 C   0  0  0  0  0  0  0  0  0  0  0  0
   15.1688  -25.4884    6.7972 C   0  0  2  0  0  0  0  0  0  0  0  0
   14.7496  -24.9059    5.5298 N   0  0  0  0  0  0  0  0  0  0  0  0
   16.6380  -25.6413    6.7895 C   0  0  0  0  0  0  0  0  0  0  0  0
   17.2059  -25.9427    5.6885 O   0  0  0  0  0  0  0  0  0  0  0  0
   19.8882  -23.6456    8.6445 O   0  0  0  0  0  0  0  0  0  0  0  0
   19.5074  -24.9320    9.0131 C   0  0  0  0  0  0  0  0  0  0  0  0
   18.8659  -25.6625    7.8548 C   0  0  2  0  0  0  0  0  0  0  0  0
   17.4382  -25.4713    7.9470 N   0  0  0  0  0  0  0  0  0  0  0  0
   19.2352  -27.0957    7.8348 C   0  0  0  0  0  0  0  0  0  0  0  0
   18.6343  -27.9042    8.5737 O   0  0  0  0  0  0  0  0  0  0  0  0
   20.2741  -27.5926    6.9833 N   0  0  0  0  0  0  0  0  0  0  0  0
   20.6511  -28.9691    6.9198 C   0  0  1  0  0  0  0  0  0  0  0  0
   20.5560  -29.4708    5.4980 C   0  0  0  0  0  0  0  0  0  0  0  0
   19.2543  -30.0314    5.1299 C   0  0  0  0  0  0  0  0  0  0  0  0
   18.3830  -30.2835    5.9931 O   0  0  0  0  0  0  0  0  0  0  0  0
   22.0098  -29.2107    7.4826 C   0  0  0  0  0  0  0  0  0  0  0  0
   22.8670  -28.3012    7.5699 O   0  0  0  0  0  0  0  0  0  0  0  0
   18.9236  -30.3073    3.7972 O   0  0  0  0  0  0  0  0  0  0  0  0
   22.3752  -30.4772    7.9398 O   0  0  0  0  0  0  0  0  0  0  0  0
  1  2  1  0
  2  3  1  0
  3  4  1  1
  5  3  1  0
  5  6  1  6
  7  5  1  0
  7  8  2  0
 10  9  1  0
 11 10  1  1
 11 12  1  0
 12  7  1  0
 13 15  1  0
 13 11  1  0
 14 13  2  0
 16 15  1  0
 16 20  1  0
 16 17  1  6
 18 17  1  0
 18 22  1  0
 19 18  2  0
 20 23  1  0
 21 20  2  0
M  END
$$$$
