GIC.pdb
     RDKit          3D

 19 18  0  0  1  0  0  0  0  0999 V2000
   15.0340   -5.3774   -6.8915 N   0  0  0  0  0  0  0  0  0  0  0  0
   14.6705   -5.7743   -8.2503 C   0  0  0  0  0  0  0  0  0  0  0  0
   15.7777   -6.5707   -8.8371 C   0  0  0  0  0  0  0  0  0  0  0  0
   16.9078   -6.5116   -8.3168 O   0  0  0  0  0  0  0  0  0  0  0  0
   13.8572  -10.0068  -10.0543 C   0  0  0  0  0  0  0  0  0  0  0  0
   15.2896  -10.3786  -10.3294 C   0  0  0  0  0  0  0  0  0  0  0  0
   16.0217   -9.4455  -11.2307 C   0  0  2  0  0  0  0  0  0  0  0  0
   17.0312  -10.1583  -12.1116 C   0  0  0  0  0  0  0  0  0  0  0  0
   16.5873   -8.2108  -10.5837 C   0  0  2  0  0  0  0  0  0  0  0  0
   15.5789   -7.3921   -9.9696 N   0  0  0  0  0  0  0  0  0  0  0  0
   17.4831   -7.4747  -11.4729 C   0  0  0  0  0  0  0  0  0  0  0  0
   17.0354   -6.6904  -12.3381 O   0  0  0  0  0  0  0  0  0  0  0  0
   18.8803   -7.6285  -11.3791 N   0  0  0  0  0  0  0  0  0  0  0  0
   19.7705   -6.7925  -12.1651 C   0  0  1  0  0  0  0  0  0  0  0  0
   21.1955   -7.0001  -11.6275 C   0  0  0  0  0  0  0  0  0  0  0  0
   22.2757   -5.9325  -12.6146 S   0  0  0  0  0  0  0  0  0  0  0  0
   19.6984   -7.0682  -13.5960 C   0  0  0  0  0  0  0  0  0  0  0  0
   19.5440   -6.0364  -14.4952 O   0  0  0  0  0  0  0  0  0  0  0  0
   19.7754   -8.2376  -14.0231 O   0  0  0  0  0  0  0  0  0  0  0  0
  2  1  1  0
  3  2  1  0
  4  3  2  0
  5  6  1  0
  7  6  1  0
  7  8  1  1
  9 10  1  6
  9  7  1  0
 10  3  1  0
 11  9  1  0
 12 11  2  0
 13 11  1  0
 14 15  1  1
 14 13  1  0
 16 15  1  0
 17 18  1  0
 17 14  1  0
 19 17  2  0
M  END
$$$$
