GIC.pdb
     RDKit          3D

 19 18  0  0  1  0  0  0  0  0999 V2000
   23.4993  -15.6261  -18.1915 N   0  0  0  0  0  0  0  0  0  0  0  0
   23.6179  -14.2929  -18.7785 C   0  0  0  0  0  0  0  0  0  0  0  0
   23.7944  -13.2968  -17.6916 C   0  0  0  0  0  0  0  0  0  0  0  0
   22.8376  -13.0532  -16.9324 O   0  0  0  0  0  0  0  0  0  0  0  0
   27.4914  -13.9229  -16.2987 C   0  0  0  0  0  0  0  0  0  0  0  0
   27.1671  -12.7808  -15.3732 C   0  0  0  0  0  0  0  0  0  0  0  0
   26.6724  -11.5462  -16.0439 C   0  0  2  0  0  0  0  0  0  0  0  0
   26.9859  -10.2887  -15.2543 C   0  0  0  0  0  0  0  0  0  0  0  0
   25.2495  -11.5847  -16.5309 C   0  0  2  0  0  0  0  0  0  0  0  0
   25.0203  -12.6207  -17.4996 N   0  0  0  0  0  0  0  0  0  0  0  0
   24.7662  -10.2704  -16.9481 C   0  0  0  0  0  0  0  0  0  0  0  0
   25.0875   -9.7840  -18.0546 O   0  0  0  0  0  0  0  0  0  0  0  0
   23.9219   -9.5130  -16.1126 N   0  0  0  0  0  0  0  0  0  0  0  0
   23.3718   -8.2485  -16.5684 C   0  0  1  0  0  0  0  0  0  0  0  0
   22.4518   -8.5476  -17.7630 C   0  0  0  0  0  0  0  0  0  0  0  0
   21.6462   -6.9833  -18.1930 S   0  0  0  0  0  0  0  0  0  0  0  0
   22.6612   -7.5235  -15.5206 C   0  0  0  0  0  0  0  0  0  0  0  0
   22.3432   -6.1940  -15.6890 O   0  0  0  0  0  0  0  0  0  0  0  0
   22.3329   -8.0955  -14.4618 O   0  0  0  0  0  0  0  0  0  0  0  0
  2  1  1  0
  3  2  1  0
  4  3  2  0
  5  6  1  0
  7  6  1  0
  7  8  1  1
  9 10  1  6
  9  7  1  0
 10  3  1  0
 11  9  1  0
 12 11  2  0
 13 11  1  0
 14 15  1  6
 14 13  1  0
 16 15  1  0
 17 18  1  0
 17 14  1  0
 19 17  2  0
M  END
$$$$
