GIC.pdb
     RDKit          3D

 19 18  0  0  1  0  0  0  0  0999 V2000
   16.2324  -12.3354  -14.2029 N   0  0  0  0  0  0  0  0  0  0  0  0
   17.1511  -11.3773  -13.5911 C   0  0  0  0  0  0  0  0  0  0  0  0
   16.3681  -10.2666  -12.9927 C   0  0  0  0  0  0  0  0  0  0  0  0
   16.1445   -9.2481  -13.6736 O   0  0  0  0  0  0  0  0  0  0  0  0
   12.0070   -8.4927  -10.5163 C   0  0  0  0  0  0  0  0  0  0  0  0
   13.0224   -9.0146   -9.5353 C   0  0  0  0  0  0  0  0  0  0  0  0
   14.0265   -9.9549  -10.1067 C   0  0  2  0  0  0  0  0  0  0  0  0
   14.6686  -10.8344   -9.0497 C   0  0  0  0  0  0  0  0  0  0  0  0
   15.0330   -9.3529  -11.0489 C   0  0  2  0  0  0  0  0  0  0  0  0
   15.8723  -10.3389  -11.6715 N   0  0  0  0  0  0  0  0  0  0  0  0
   15.7720   -8.2467  -10.4445 C   0  0  0  0  0  0  0  0  0  0  0  0
   16.6753   -8.4540   -9.6049 O   0  0  0  0  0  0  0  0  0  0  0  0
   15.4863   -6.9119  -10.7929 N   0  0  0  0  0  0  0  0  0  0  0  0
   16.2239   -5.8163  -10.1890 C   0  0  1  0  0  0  0  0  0  0  0  0
   16.6143   -4.8450  -11.3148 C   0  0  0  0  0  0  0  0  0  0  0  0
   17.7419   -5.7515  -12.4048 S   0  0  0  0  0  0  0  0  0  0  0  0
   15.4768   -5.1354   -9.1371 C   0  0  0  0  0  0  0  0  0  0  0  0
   16.1245   -4.2988   -8.2553 O   0  0  0  0  0  0  0  0  0  0  0  0
   14.2458   -5.3009   -9.0221 O   0  0  0  0  0  0  0  0  0  0  0  0
  2  1  1  0
  3  2  1  0
  4  3  2  0
  5  6  1  0
  7  6  1  0
  7  8  1  1
  9 10  1  1
  9  7  1  0
 10  3  1  0
 11  9  1  0
 12 11  2  0
 13 11  1  0
 14 15  1  6
 14 13  1  0
 16 15  1  0
 17 18  1  0
 17 14  1  0
 19 17  2  0
M  END
$$$$
