GIC.pdb
     RDKit          3D

 19 18  0  0  1  0  0  0  0  0999 V2000
   22.7821  -13.8377  -19.4128 N   0  0  0  0  0  0  0  0  0  0  0  0
   23.4055  -12.5335  -19.1969 C   0  0  0  0  0  0  0  0  0  0  0  0
   22.6067  -11.7709  -18.2044 C   0  0  0  0  0  0  0  0  0  0  0  0
   21.3733  -11.9383  -18.1628 O   0  0  0  0  0  0  0  0  0  0  0  0
   21.2393  -10.0669  -13.1587 C   0  0  0  0  0  0  0  0  0  0  0  0
   22.3091   -9.3499  -13.9380 C   0  0  0  0  0  0  0  0  0  0  0  0
   23.0022  -10.1763  -14.9655 C   0  0  2  0  0  0  0  0  0  0  0  0
   24.5136  -10.0863  -14.8629 C   0  0  0  0  0  0  0  0  0  0  0  0
   22.5074  -10.0244  -16.3781 C   0  0  2  0  0  0  0  0  0  0  0  0
   23.2127  -10.8618  -17.3083 N   0  0  0  0  0  0  0  0  0  0  0  0
   22.4211   -8.6258  -16.7923 C   0  0  0  0  0  0  0  0  0  0  0  0
   23.4221   -8.0178  -17.2310 O   0  0  0  0  0  0  0  0  0  0  0  0
   21.2036   -7.9220  -16.7089 N   0  0  0  0  0  0  0  0  0  0  0  0
   21.1295   -6.5246  -17.0977 C   0  0  1  0  0  0  0  0  0  0  0  0
   20.1098   -6.4163  -18.2430 C   0  0  0  0  0  0  0  0  0  0  0  0
   20.8456   -7.2630  -19.6652 S   0  0  0  0  0  0  0  0  0  0  0  0
   20.7791   -5.6412  -15.9909 C   0  0  0  0  0  0  0  0  0  0  0  0
   21.0230   -4.2884  -16.0779 O   0  0  0  0  0  0  0  0  0  0  0  0
   20.2557   -6.0969  -14.9544 O   0  0  0  0  0  0  0  0  0  0  0  0
  2  1  1  0
  3  2  1  0
  4  3  2  0
  5  6  1  0
  7  6  1  0
  7  8  1  6
  9 10  1  6
  9  7  1  0
 10  3  1  0
 11  9  1  0
 12 11  2  0
 13 11  1  0
 14 15  1  6
 14 13  1  0
 16 15  1  0
 17 18  1  0
 17 14  1  0
 19 17  2  0
M  END
$$$$
