GIC.pdb
     RDKit          3D

 19 18  0  0  1  0  0  0  0  0999 V2000
   23.5215  -14.6487  -18.6064 N   0  0  0  0  0  0  0  0  0  0  0  0
   22.7444  -13.4453  -18.8963 C   0  0  0  0  0  0  0  0  0  0  0  0
   22.9615  -12.4534  -17.8128 C   0  0  0  0  0  0  0  0  0  0  0  0
   22.0653  -12.2754  -16.9665 O   0  0  0  0  0  0  0  0  0  0  0  0
   27.9098  -12.1574  -15.5560 C   0  0  0  0  0  0  0  0  0  0  0  0
   26.4285  -12.1119  -15.8197 C   0  0  0  0  0  0  0  0  0  0  0  0
   25.9084  -10.7911  -16.2714 C   0  0  2  0  0  0  0  0  0  0  0  0
   26.2681   -9.6664  -15.3181 C   0  0  0  0  0  0  0  0  0  0  0  0
   24.4629  -10.7582  -16.6870 C   0  0  2  0  0  0  0  0  0  0  0  0
   24.1589  -11.7088  -17.7205 N   0  0  0  0  0  0  0  0  0  0  0  0
   23.9955   -9.4042  -16.9755 C   0  0  0  0  0  0  0  0  0  0  0  0
   24.4339   -8.7633  -17.9559 O   0  0  0  0  0  0  0  0  0  0  0  0
   23.0344   -8.7820  -16.1547 N   0  0  0  0  0  0  0  0  0  0  0  0
   22.5961   -7.4246  -16.4281 C   0  0  1  0  0  0  0  0  0  0  0  0
   21.2557   -7.5127  -17.1755 C   0  0  0  0  0  0  0  0  0  0  0  0
   20.6761   -5.8100  -17.3894 S   0  0  0  0  0  0  0  0  0  0  0  0
   22.4792   -6.6084  -15.2245 C   0  0  0  0  0  0  0  0  0  0  0  0
   22.7102   -5.2518  -15.2802 O   0  0  0  0  0  0  0  0  0  0  0  0
   22.1695   -7.1259  -14.1326 O   0  0  0  0  0  0  0  0  0  0  0  0
  2  1  1  0
  3  2  1  0
  4  3  2  0
  5  6  1  0
  7  6  1  0
  7  8  1  1
  9 10  1  6
  9  7  1  0
 10  3  1  0
 11  9  1  0
 12 11  2  0
 13 11  1  0
 14 15  1  1
 14 13  1  0
 16 15  1  0
 17 18  1  0
 17 14  1  0
 19 17  2  0
M  END
$$$$
