GIC.pdb
     RDKit          3D

 19 18  0  0  1  0  0  0  0  0999 V2000
   29.5209  -23.7298  -17.1390 N   0  0  0  0  0  0  0  0  0  0  0  0
   28.2915  -22.9620  -17.3264 C   0  0  0  0  0  0  0  0  0  0  0  0
   28.1196  -22.0320  -16.1817 C   0  0  0  0  0  0  0  0  0  0  0  0
   29.0943  -21.7934  -15.4440 O   0  0  0  0  0  0  0  0  0  0  0  0
   27.0153  -16.9845  -14.5541 C   0  0  0  0  0  0  0  0  0  0  0  0
   25.9332  -18.0274  -14.4677 C   0  0  0  0  0  0  0  0  0  0  0  0
   26.0624  -19.1524  -15.4354 C   0  0  2  0  0  0  0  0  0  0  0  0
   24.7893  -19.3893  -16.2267 C   0  0  0  0  0  0  0  0  0  0  0  0
   26.6524  -20.4253  -14.8926 C   0  0  2  0  0  0  0  0  0  0  0  0
   26.8784  -21.4131  -15.9111 N   0  0  0  0  0  0  0  0  0  0  0  0
   25.9199  -20.9307  -13.7337 C   0  0  0  0  0  0  0  0  0  0  0  0
   24.8882  -21.6239  -13.8721 O   0  0  0  0  0  0  0  0  0  0  0  0
   26.3577  -20.6504  -12.4244 N   0  0  0  0  0  0  0  0  0  0  0  0
   25.5562  -21.0399  -11.2776 C   0  0  1  0  0  0  0  0  0  0  0  0
   26.2878  -20.5553  -10.0155 C   0  0  0  0  0  0  0  0  0  0  0  0
   25.2149  -20.9622   -8.6139 S   0  0  0  0  0  0  0  0  0  0  0  0
   24.1929  -20.5233  -11.3311 C   0  0  0  0  0  0  0  0  0  0  0  0
   23.1308  -21.3288  -10.9842 O   0  0  0  0  0  0  0  0  0  0  0  0
   23.9710  -19.3496  -11.6904 O   0  0  0  0  0  0  0  0  0  0  0  0
  2  1  1  0
  3  2  1  0
  4  3  2  0
  5  6  1  0
  7  6  1  0
  7  8  1  1
  9 10  1  6
  9  7  1  0
 10  3  1  0
 11  9  1  0
 12 11  2  0
 13 11  1  0
 14 15  1  1
 14 13  1  0
 16 15  1  0
 17 18  1  0
 17 14  1  0
 19 17  2  0
M  END
$$$$
