GIC.pdb
     RDKit          3D

 19 18  0  0  1  0  0  0  0  0999 V2000
   18.4291   -9.3228  -18.0142 N   0  0  0  0  0  0  0  0  0  0  0  0
   18.7594   -8.0601  -17.3565 C   0  0  0  0  0  0  0  0  0  0  0  0
   18.7306   -8.2560  -15.8849 C   0  0  0  0  0  0  0  0  0  0  0  0
   17.8143   -8.9335  -15.3823 O   0  0  0  0  0  0  0  0  0  0  0  0
   22.5468   -9.3453  -11.3118 C   0  0  0  0  0  0  0  0  0  0  0  0
   21.2288   -8.7456  -11.7228 C   0  0  0  0  0  0  0  0  0  0  0  0
   21.1315   -8.3593  -13.1582 C   0  0  2  0  0  0  0  0  0  0  0  0
   22.2663   -7.4513  -13.5952 C   0  0  0  0  0  0  0  0  0  0  0  0
   19.7864   -7.8686  -13.6198 C   0  0  2  0  0  0  0  0  0  0  0  0
   19.7166   -7.6927  -15.0440 N   0  0  0  0  0  0  0  0  0  0  0  0
   19.3235   -6.7099  -12.8595 C   0  0  0  0  0  0  0  0  0  0  0  0
   19.7530   -5.5613  -13.1046 O   0  0  0  0  0  0  0  0  0  0  0  0
   18.3769   -6.8557  -11.8263 N   0  0  0  0  0  0  0  0  0  0  0  0
   17.9049   -5.6979  -11.0875 C   0  0  1  0  0  0  0  0  0  0  0  0
   16.6005   -5.2262  -11.7501 C   0  0  0  0  0  0  0  0  0  0  0  0
   16.0367   -3.7881  -10.8041 S   0  0  0  0  0  0  0  0  0  0  0  0
   17.7105   -5.9668   -9.6668 C   0  0  0  0  0  0  0  0  0  0  0  0
   17.4002   -4.9408   -8.8018 O   0  0  0  0  0  0  0  0  0  0  0  0
   17.8221   -7.1250   -9.2175 O   0  0  0  0  0  0  0  0  0  0  0  0
  2  1  1  0
  3  2  1  0
  4  3  2  0
  5  6  1  0
  7  6  1  0
  7  8  1  1
  9 10  1  6
  9  7  1  0
 10  3  1  0
 11  9  1  0
 12 11  2  0
 13 11  1  0
 14 15  1  6
 14 13  1  0
 16 15  1  0
 17 18  1  0
 17 14  1  0
 19 17  2  0
M  END
$$$$
