GIC.pdb
     RDKit          3D

 19 18  0  0  1  0  0  0  0  0999 V2000
   26.8559  -25.4412  -16.9272 N   0  0  0  0  0  0  0  0  0  0  0  0
   26.3698  -24.1007  -17.2480 C   0  0  0  0  0  0  0  0  0  0  0  0
   26.7583  -23.1690  -16.1592 C   0  0  0  0  0  0  0  0  0  0  0  0
   27.6619  -23.5033  -15.3699 O   0  0  0  0  0  0  0  0  0  0  0  0
   28.7092  -19.1852  -16.4490 C   0  0  0  0  0  0  0  0  0  0  0  0
   27.2237  -19.2473  -16.6847 C   0  0  0  0  0  0  0  0  0  0  0  0
   26.4045  -19.5373  -15.4748 C   0  0  2  0  0  0  0  0  0  0  0  0
   26.6212  -18.5224  -14.3675 C   0  0  0  0  0  0  0  0  0  0  0  0
   26.4435  -20.9561  -14.9761 C   0  0  2  0  0  0  0  0  0  0  0  0
   26.1277  -21.9147  -15.9986 N   0  0  0  0  0  0  0  0  0  0  0  0
   25.6798  -21.1359  -13.7434 C   0  0  0  0  0  0  0  0  0  0  0  0
   24.4418  -21.3113  -13.7688 O   0  0  0  0  0  0  0  0  0  0  0  0
   26.3196  -21.1171  -12.4885 N   0  0  0  0  0  0  0  0  0  0  0  0
   25.5477  -21.2295  -11.2634 C   0  0  1  0  0  0  0  0  0  0  0  0
   26.4370  -20.7392  -10.1093 C   0  0  0  0  0  0  0  0  0  0  0  0
   25.4512  -20.9027   -8.5985 S   0  0  0  0  0  0  0  0  0  0  0  0
   24.2887  -20.4941  -11.3116 C   0  0  0  0  0  0  0  0  0  0  0  0
   24.2733  -19.1667  -11.6789 O   0  0  0  0  0  0  0  0  0  0  0  0
   23.2129  -21.0550  -11.0221 O   0  0  0  0  0  0  0  0  0  0  0  0
  2  1  1  0
  3  2  1  0
  4  3  2  0
  5  6  1  0
  7  6  1  0
  7  8  1  1
  9 10  1  6
  9  7  1  0
 10  3  1  0
 11  9  1  0
 12 11  2  0
 13 11  1  0
 14 15  1  1
 14 13  1  0
 16 15  1  0
 17 18  1  0
 17 14  1  0
 19 17  2  0
M  END
$$$$
