GIC.pdb
     RDKit          3D

 19 18  0  0  1  0  0  0  0  0999 V2000
   27.0752  -21.4020  -13.1835 N   0  0  0  0  0  0  0  0  0  0  0  0
   27.2956  -20.3838  -12.1583 C   0  0  0  0  0  0  0  0  0  0  0  0
   26.8560  -20.9147  -10.8432 C   0  0  0  0  0  0  0  0  0  0  0  0
   26.3389  -22.0465  -10.7894 O   0  0  0  0  0  0  0  0  0  0  0  0
   27.9536  -19.9873   -4.7922 C   0  0  0  0  0  0  0  0  0  0  0  0
   27.0919  -20.5539   -5.8887 C   0  0  0  0  0  0  0  0  0  0  0  0
   27.2955  -19.9416   -7.2313 C   0  0  2  0  0  0  0  0  0  0  0  0
   27.1865  -18.4282   -7.2039 C   0  0  0  0  0  0  0  0  0  0  0  0
   26.5184  -20.5580   -8.3624 C   0  0  2  0  0  0  0  0  0  0  0  0
   27.0106  -20.1669   -9.6543 N   0  0  0  0  0  0  0  0  0  0  0  0
   25.0754  -20.3895   -8.2056 C   0  0  0  0  0  0  0  0  0  0  0  0
   24.5047  -19.3346   -8.5600 O   0  0  0  0  0  0  0  0  0  0  0  0
   24.2851  -21.4147   -7.6497 N   0  0  0  0  0  0  0  0  0  0  0  0
   22.8435  -21.2668   -7.5533 C   0  0  1  0  0  0  0  0  0  0  0  0
   22.2480  -21.6327   -8.9224 C   0  0  0  0  0  0  0  0  0  0  0  0
   20.4480  -21.5630   -8.7328 S   0  0  0  0  0  0  0  0  0  0  0  0
   22.2564  -22.0720   -6.4877 C   0  0  0  0  0  0  0  0  0  0  0  0
   22.7350  -23.3373   -6.2292 O   0  0  0  0  0  0  0  0  0  0  0  0
   21.3165  -21.6273   -5.7987 O   0  0  0  0  0  0  0  0  0  0  0  0
  2  1  1  0
  3  2  1  0
  4  3  2  0
  5  6  1  0
  7  6  1  0
  7  8  1  1
  9 10  1  6
  9  7  1  0
 10  3  1  0
 11  9  1  0
 12 11  2  0
 13 11  1  0
 14 15  1  6
 14 13  1  0
 16 15  1  0
 17 18  1  0
 17 14  1  0
 19 17  2  0
M  END
$$$$
