GIC.pdb
     RDKit          3D

 19 18  0  0  1  0  0  0  0  0999 V2000
   21.5609  -11.8534  -20.7377 N   0  0  0  0  0  0  0  0  0  0  0  0
   22.5436  -11.2250  -19.8570 C   0  0  0  0  0  0  0  0  0  0  0  0
   21.8524  -10.7030  -18.6510 C   0  0  0  0  0  0  0  0  0  0  0  0
   20.6206  -10.8538  -18.5463 O   0  0  0  0  0  0  0  0  0  0  0  0
   21.2150  -10.1989  -13.2161 C   0  0  0  0  0  0  0  0  0  0  0  0
   22.1538   -9.2581  -13.9228 C   0  0  0  0  0  0  0  0  0  0  0  0
   22.7332   -9.7802  -15.1920 C   0  0  2  0  0  0  0  0  0  0  0  0
   24.2140   -9.4757  -15.3251 C   0  0  0  0  0  0  0  0  0  0  0  0
   21.9628   -9.4692  -16.4461 C   0  0  2  0  0  0  0  0  0  0  0  0
   22.5588  -10.0406  -17.6219 N   0  0  0  0  0  0  0  0  0  0  0  0
   21.6542   -8.0467  -16.5737 C   0  0  0  0  0  0  0  0  0  0  0  0
   22.5433   -7.2145  -16.8585 O   0  0  0  0  0  0  0  0  0  0  0  0
   20.3420   -7.5724  -16.3792 N   0  0  0  0  0  0  0  0  0  0  0  0
   20.0402   -6.1578  -16.5104 C   0  0  1  0  0  0  0  0  0  0  0  0
   18.8976   -6.0209  -17.5296 C   0  0  0  0  0  0  0  0  0  0  0  0
   19.5915   -6.4733  -19.1404 S   0  0  0  0  0  0  0  0  0  0  0  0
   19.6966   -5.5265  -15.2409 C   0  0  0  0  0  0  0  0  0  0  0  0
   19.5219   -4.1622  -15.1684 O   0  0  0  0  0  0  0  0  0  0  0  0
   19.5567   -6.2109  -14.2075 O   0  0  0  0  0  0  0  0  0  0  0  0
  2  1  1  0
  3  2  1  0
  4  3  2  0
  5  6  1  0
  7  6  1  0
  7  8  1  6
  9 10  1  6
  9  7  1  0
 10  3  1  0
 11  9  1  0
 12 11  2  0
 13 11  1  0
 14 15  1  6
 14 13  1  0
 16 15  1  0
 17 18  1  0
 17 14  1  0
 19 17  2  0
M  END
$$$$
