GIC.pdb
     RDKit          3D

 19 18  0  0  1  0  0  0  0  0999 V2000
   19.2194  -13.3129  -16.4036 N   0  0  0  0  0  0  0  0  0  0  0  0
   18.8165  -12.1306  -17.1625 C   0  0  0  0  0  0  0  0  0  0  0  0
   19.1381  -10.9139  -16.3745 C   0  0  0  0  0  0  0  0  0  0  0  0
   18.2536  -10.4028  -15.6620 O   0  0  0  0  0  0  0  0  0  0  0  0
   23.5535  -11.3843  -14.9005 C   0  0  0  0  0  0  0  0  0  0  0  0
   22.5835  -10.3949  -14.3121 C   0  0  0  0  0  0  0  0  0  0  0  0
   22.2478   -9.2409  -15.1922 C   0  0  2  0  0  0  0  0  0  0  0  0
   22.7505   -7.9204  -14.6384 C   0  0  0  0  0  0  0  0  0  0  0  0
   20.8220   -9.1652  -15.6659 C   0  0  2  0  0  0  0  0  0  0  0  0
   20.4216  -10.3243  -16.4145 N   0  0  0  0  0  0  0  0  0  0  0  0
   20.5214   -7.9002  -16.3327 C   0  0  0  0  0  0  0  0  0  0  0  0
   20.9005   -7.6799  -17.5039 O   0  0  0  0  0  0  0  0  0  0  0  0
   19.7934   -6.8911  -15.6721 N   0  0  0  0  0  0  0  0  0  0  0  0
   19.4933   -5.6376  -16.3413 C   0  0  1  0  0  0  0  0  0  0  0  0
   17.9910   -5.6349  -16.6672 C   0  0  0  0  0  0  0  0  0  0  0  0
   17.6086   -3.9835  -17.3056 S   0  0  0  0  0  0  0  0  0  0  0  0
   19.8673   -4.4664  -15.5558 C   0  0  0  0  0  0  0  0  0  0  0  0
   20.0718   -3.2524  -16.1733 O   0  0  0  0  0  0  0  0  0  0  0  0
   20.0065   -4.5481  -14.3190 O   0  0  0  0  0  0  0  0  0  0  0  0
  2  1  1  0
  3  2  1  0
  4  3  2  0
  5  6  1  0
  7  6  1  0
  7  8  1  1
  9 10  1  6
  9  7  1  0
 10  3  1  0
 11  9  1  0
 12 11  2  0
 13 11  1  0
 14 15  1  1
 14 13  1  0
 16 15  1  0
 17 18  1  0
 17 14  1  0
 19 17  2  0
M  END
$$$$
