GIC.pdb
     RDKit          3D

 19 18  0  0  1  0  0  0  0  0999 V2000
   24.0945  -14.4551  -19.8666 N   0  0  0  0  0  0  0  0  0  0  0  0
   23.8529  -13.0264  -20.0586 C   0  0  0  0  0  0  0  0  0  0  0  0
   23.6786  -12.3802  -18.7332 C   0  0  0  0  0  0  0  0  0  0  0  0
   22.6747  -12.6593  -18.0510 O   0  0  0  0  0  0  0  0  0  0  0  0
   28.0301  -11.8417  -15.5998 C   0  0  0  0  0  0  0  0  0  0  0  0
   26.6414  -11.9821  -16.1636 C   0  0  0  0  0  0  0  0  0  0  0  0
   25.8658  -10.7135  -16.2536 C   0  0  2  0  0  0  0  0  0  0  0  0
   25.7775   -9.9889  -14.9231 C   0  0  0  0  0  0  0  0  0  0  0  0
   24.5379  -10.8003  -16.9552 C   0  0  2  0  0  0  0  0  0  0  0  0
   24.6234  -11.4579  -18.2297 N   0  0  0  0  0  0  0  0  0  0  0  0
   23.8452   -9.5146  -17.0007 C   0  0  0  0  0  0  0  0  0  0  0  0
   24.3050   -8.5545  -17.6571 O   0  0  0  0  0  0  0  0  0  0  0  0
   22.6359   -9.3210  -16.3044 N   0  0  0  0  0  0  0  0  0  0  0  0
   21.9452   -8.0448  -16.3631 C   0  0  1  0  0  0  0  0  0  0  0  0
   20.5354   -8.3065  -16.9172 C   0  0  0  0  0  0  0  0  0  0  0  0
   20.7585   -9.1119  -18.5243 S   0  0  0  0  0  0  0  0  0  0  0  0
   21.8900   -7.3650  -15.0734 C   0  0  0  0  0  0  0  0  0  0  0  0
   21.3852   -6.0867  -14.9832 O   0  0  0  0  0  0  0  0  0  0  0  0
   22.2976   -7.9298  -14.0387 O   0  0  0  0  0  0  0  0  0  0  0  0
  2  1  1  0
  3  2  1  0
  4  3  2  0
  5  6  1  0
  7  6  1  0
  7  8  1  1
  9 10  1  6
  9  7  1  0
 10  3  1  0
 11  9  1  0
 12 11  2  0
 13 11  1  0
 14 15  1  1
 14 13  1  0
 16 15  1  0
 17 18  1  0
 17 14  1  0
 19 17  2  0
M  END
$$$$
