GIC.pdb
     RDKit          3D

 19 18  0  0  1  0  0  0  0  0999 V2000
   26.5052  -11.3028  -15.6633 N   0  0  0  0  0  0  0  0  0  0  0  0
   25.1301  -11.6933  -15.3585 C   0  0  0  0  0  0  0  0  0  0  0  0
   24.2082  -10.6210  -15.8115 C   0  0  0  0  0  0  0  0  0  0  0  0
   24.6801   -9.6136  -16.3714 O   0  0  0  0  0  0  0  0  0  0  0  0
   19.9385  -12.6717  -17.4057 C   0  0  0  0  0  0  0  0  0  0  0  0
   20.6750  -11.3788  -17.6337 C   0  0  0  0  0  0  0  0  0  0  0  0
   20.5604  -10.3843  -16.5306 C   0  0  2  0  0  0  0  0  0  0  0  0
   19.4644   -9.3641  -16.7775 C   0  0  0  0  0  0  0  0  0  0  0  0
   21.8476   -9.7530  -16.0750 C   0  0  2  0  0  0  0  0  0  0  0  0
   22.8113  -10.7175  -15.6221 N   0  0  0  0  0  0  0  0  0  0  0  0
   21.6292   -8.6533  -15.1380 C   0  0  0  0  0  0  0  0  0  0  0  0
   21.1708   -8.8601  -13.9929 O   0  0  0  0  0  0  0  0  0  0  0  0
   21.9308   -7.3256  -15.4999 N   0  0  0  0  0  0  0  0  0  0  0  0
   21.7164   -6.2370  -14.5628 C   0  0  1  0  0  0  0  0  0  0  0  0
   22.8800   -5.2464  -14.7299 C   0  0  0  0  0  0  0  0  0  0  0  0
   22.6226   -3.9423  -13.4995 S   0  0  0  0  0  0  0  0  0  0  0  0
   20.4280   -5.5759  -14.7397 C   0  0  0  0  0  0  0  0  0  0  0  0
   19.7138   -5.1420  -13.6449 O   0  0  0  0  0  0  0  0  0  0  0  0
   19.9571   -5.3952  -15.8806 O   0  0  0  0  0  0  0  0  0  0  0  0
  2  1  1  0
  3  2  1  0
  4  3  2  0
  5  6  1  0
  7  6  1  0
  7  8  1  6
  9 10  1  1
  9  7  1  0
 10  3  1  0
 11  9  1  0
 12 11  2  0
 13 11  1  0
 14 15  1  6
 14 13  1  0
 16 15  1  0
 17 18  1  0
 17 14  1  0
 19 17  2  0
M  END
$$$$
