GIC.pdb
     RDKit          3D

 19 18  0  0  1  0  0  0  0  0999 V2000
   14.4130  -12.0583  -11.5340 N   0  0  0  0  0  0  0  0  0  0  0  0
   15.3917  -11.5659  -10.5666 C   0  0  0  0  0  0  0  0  0  0  0  0
   15.6310  -10.1208  -10.8094 C   0  0  0  0  0  0  0  0  0  0  0  0
   15.2793   -9.6230  -11.8956 O   0  0  0  0  0  0  0  0  0  0  0  0
   13.6870   -6.7700   -9.4844 C   0  0  0  0  0  0  0  0  0  0  0  0
   14.6821   -7.1984   -8.4395 C   0  0  0  0  0  0  0  0  0  0  0  0
   16.1114   -7.0671   -8.8380 C   0  0  2  0  0  0  0  0  0  0  0  0
   16.5522   -5.6199   -8.9581 C   0  0  0  0  0  0  0  0  0  0  0  0
   16.5500   -7.9053  -10.0077 C   0  0  2  0  0  0  0  0  0  0  0  0
   16.2471   -9.2995   -9.8385 N   0  0  0  0  0  0  0  0  0  0  0  0
   17.9355   -7.6456  -10.3925 C   0  0  0  0  0  0  0  0  0  0  0  0
   18.8447   -7.5850   -9.5359 O   0  0  0  0  0  0  0  0  0  0  0  0
   18.2861   -7.4563  -11.7438 N   0  0  0  0  0  0  0  0  0  0  0  0
   19.6695   -7.2302  -12.1238 C   0  0  1  0  0  0  0  0  0  0  0  0
   20.2041   -8.5396  -12.7260 C   0  0  0  0  0  0  0  0  0  0  0  0
   19.1221   -8.9401  -14.1224 S   0  0  0  0  0  0  0  0  0  0  0  0
   19.8326   -6.1152  -13.0505 C   0  0  0  0  0  0  0  0  0  0  0  0
   21.0903   -5.6432  -13.3547 O   0  0  0  0  0  0  0  0  0  0  0  0
   18.8392   -5.5760  -13.5780 O   0  0  0  0  0  0  0  0  0  0  0  0
  2  1  1  0
  3  2  1  0
  4  3  2  0
  5  6  1  0
  7  6  1  0
  7  8  1  6
  9 10  1  1
  9  7  1  0
 10  3  1  0
 11  9  1  0
 12 11  2  0
 13 11  1  0
 14 15  1  6
 14 13  1  0
 16 15  1  0
 17 18  1  0
 17 14  1  0
 19 17  2  0
M  END
$$$$
