GIC.pdb
     RDKit          3D

 19 18  0  0  1  0  0  0  0  0999 V2000
   21.5670  -36.0965  -15.2327 N   0  0  0  0  0  0  0  0  0  0  0  0
   22.3660  -34.8733  -15.2726 C   0  0  0  0  0  0  0  0  0  0  0  0
   23.3206  -34.8787  -14.1353 C   0  0  0  0  0  0  0  0  0  0  0  0
   23.2782  -35.8138  -13.3137 O   0  0  0  0  0  0  0  0  0  0  0  0
   28.2381  -32.4040  -14.9211 C   0  0  0  0  0  0  0  0  0  0  0  0
   27.1075  -33.3137  -14.5212 C   0  0  0  0  0  0  0  0  0  0  0  0
   26.4385  -32.9620  -13.2375 C   0  0  2  0  0  0  0  0  0  0  0  0
   27.4168  -32.8474  -12.0830 C   0  0  0  0  0  0  0  0  0  0  0  0
   25.2193  -33.7700  -12.8857 C   0  0  2  0  0  0  0  0  0  0  0  0
   24.2736  -33.8495  -13.9644 N   0  0  0  0  0  0  0  0  0  0  0  0
   24.6284  -33.3639  -11.6126 C   0  0  0  0  0  0  0  0  0  0  0  0
   23.9905  -32.2934  -11.5073 O   0  0  0  0  0  0  0  0  0  0  0  0
   24.7612  -34.1704  -10.4651 N   0  0  0  0  0  0  0  0  0  0  0  0
   24.1280  -33.7878   -9.2154 C   0  0  1  0  0  0  0  0  0  0  0  0
   23.2183  -34.9491   -8.7829 C   0  0  0  0  0  0  0  0  0  0  0  0
   21.6271  -34.6875   -9.6079 S   0  0  0  0  0  0  0  0  0  0  0  0
   25.0866  -33.4477   -8.1696 C   0  0  0  0  0  0  0  0  0  0  0  0
   24.7167  -32.6238   -7.1296 O   0  0  0  0  0  0  0  0  0  0  0  0
   26.2499  -33.8965   -8.2026 O   0  0  0  0  0  0  0  0  0  0  0  0
  2  1  1  0
  3  2  1  0
  4  3  2  0
  5  6  1  0
  7  6  1  0
  7  8  1  1
  9 10  1  6
  9  7  1  0
 10  3  1  0
 11  9  1  0
 12 11  2  0
 13 11  1  0
 14 15  1  1
 14 13  1  0
 16 15  1  0
 17 18  1  0
 17 14  1  0
 19 17  2  0
M  END
$$$$
