LWE.pdb
     RDKit          3D

 32 33  0  0  1  0  0  0  0  0999 V2000
   29.1465  -21.5311  -18.4235 C   0  0  0  0  0  0  0  0  0  0  0  0
   28.8905  -22.6471  -17.4135 C   0  0  2  0  0  0  0  0  0  0  0  0
   29.1821  -23.9535  -18.0725 C   0  0  0  0  0  0  0  0  0  0  0  0
   27.4867  -22.5189  -16.9241 C   0  0  0  0  0  0  0  0  0  0  0  0
   27.1845  -21.3005  -16.1233 C   0  0  2  0  0  0  0  0  0  0  0  0
   28.4601  -20.5787  -15.9520 N   0  0  0  0  0  0  0  0  0  0  0  0
   26.5787  -21.5697  -14.7896 C   0  0  0  0  0  0  0  0  0  0  0  0
   25.5255  -22.2432  -14.6897 O   0  0  0  0  0  0  0  0  0  0  0  0
   27.1486  -21.0885  -13.5841 N   0  0  0  0  0  0  0  0  0  0  0  0
   26.5036  -21.1725  -12.2803 C   0  0  1  0  0  0  0  0  0  0  0  0
   27.4860  -21.0424  -11.1698 C   0  0  0  0  0  0  0  0  0  0  0  0
   26.9636  -20.7840   -9.8446 C   0  0  0  0  0  0  0  0  0  0  0  0
   25.6105  -20.8191   -9.5177 C   0  0  0  0  0  0  0  0  0  0  0  0
   25.4347  -20.5484   -8.2196 N   0  0  0  0  0  0  0  0  0  0  0  0
   26.6529  -20.3353   -7.6861 C   0  0  0  0  0  0  0  0  0  0  0  0
   27.0123  -20.0217   -6.3928 C   0  0  0  0  0  0  0  0  0  0  0  0
   28.3423  -19.8376   -6.0416 C   0  0  0  0  0  0  0  0  0  0  0  0
   29.2894  -19.9787   -7.0285 C   0  0  0  0  0  0  0  0  0  0  0  0
   28.9189  -20.2917   -8.3153 C   0  0  0  0  0  0  0  0  0  0  0  0
   27.6032  -20.4800   -8.6893 C   0  0  0  0  0  0  0  0  0  0  0  0
   25.2750  -20.3818  -12.1958 C   0  0  0  0  0  0  0  0  0  0  0  0
   25.3712  -19.1387  -12.4783 O   0  0  0  0  0  0  0  0  0  0  0  0
   24.0110  -20.8554  -11.8440 N   0  0  0  0  0  0  0  0  0  0  0  0
   22.7391  -20.2609  -12.3135 C   0  0  1  0  0  0  0  0  0  0  0  0
   22.7248  -20.2714  -13.7924 C   0  0  0  0  0  0  0  0  0  0  0  0
   21.4929  -19.8336  -14.4660 C   0  0  0  0  0  0  0  0  0  0  0  0
   21.4371  -19.8638  -15.9276 C   0  0  0  0  0  0  0  0  0  0  0  0
   21.7782  -20.9029  -16.5437 O   0  0  0  0  0  0  0  0  0  0  0  0
   21.6777  -21.0219  -11.6865 C   0  0  0  0  0  0  0  0  0  0  0  0
   20.7032  -20.4169  -11.1213 O   0  0  0  0  0  0  0  0  0  0  0  0
   21.0113  -18.7747  -16.6704 O   0  0  0  0  0  0  0  0  0  0  0  0
   21.5927  -22.4103  -11.6355 O   0  0  0  0  0  0  0  0  0  0  0  0
  2  3  1  6
  2  1  1  0
  4  2  1  0
  5  6  1  1
  5  4  1  0
  7  8  2  0
  7  5  1  0
  9  7  1  0
 10  9  1  0
 10 21  1  0
 10 11  1  1
 12 11  1  0
 13 12  2  0
 14 13  1  0
 15 14  1  0
 15 20  2  0
 16 15  1  0
 17 16  2  0
 17 18  1  0
 18 19  2  0
 19 20  1  0
 20 12  1  0
 21 23  1  0
 22 21  2  0
 23 24  1  0
 24 25  1  6
 24 29  1  0
 26 25  1  0
 27 31  1  0
 27 26  1  0
 28 27  2  0
 29 30  2  0
 29 32  1  0
M  END
$$$$
