LWE.pdb
     RDKit          3D

 32 33  0  0  1  0  0  0  0  0999 V2000
   27.0825  -34.3271   -8.6635 C   0  0  0  0  0  0  0  0  0  0  0  0
   27.1354  -32.9561   -7.9936 C   0  0  2  0  0  0  0  0  0  0  0  0
   28.5312  -32.7155   -7.5249 C   0  0  0  0  0  0  0  0  0  0  0  0
   26.1199  -32.9327   -6.9005 C   0  0  0  0  0  0  0  0  0  0  0  0
   24.7147  -33.2053   -7.3105 C   0  0  2  0  0  0  0  0  0  0  0  0
   24.2882  -32.0659   -8.1455 N   0  0  0  0  0  0  0  0  0  0  0  0
   23.7619  -33.3811   -6.1794 C   0  0  0  0  0  0  0  0  0  0  0  0
   23.4608  -32.4136   -5.4405 O   0  0  0  0  0  0  0  0  0  0  0  0
   23.1554  -34.6276   -5.8823 N   0  0  0  0  0  0  0  0  0  0  0  0
   22.2496  -34.8539   -4.7637 C   0  0  1  0  0  0  0  0  0  0  0  0
   20.9439  -35.4078   -5.2150 C   0  0  0  0  0  0  0  0  0  0  0  0
   20.0196  -34.4971   -5.8570 C   0  0  0  0  0  0  0  0  0  0  0  0
   19.2834  -33.5269   -5.1822 C   0  0  0  0  0  0  0  0  0  0  0  0
   18.5253  -32.8336   -6.0389 N   0  0  0  0  0  0  0  0  0  0  0  0
   18.7513  -33.3333   -7.2690 C   0  0  0  0  0  0  0  0  0  0  0  0
   18.2174  -32.9688   -8.4864 C   0  0  0  0  0  0  0  0  0  0  0  0
   18.5845  -33.6200   -9.6557 C   0  0  0  0  0  0  0  0  0  0  0  0
   19.4994  -34.6419   -9.5578 C   0  0  0  0  0  0  0  0  0  0  0  0
   20.0253  -34.9969   -8.3378 C   0  0  0  0  0  0  0  0  0  0  0  0
   19.6764  -34.3643   -7.1612 C   0  0  0  0  0  0  0  0  0  0  0  0
   22.8995  -35.4943   -3.6194 C   0  0  0  0  0  0  0  0  0  0  0  0
   23.8083  -36.3543   -3.8820 O   0  0  0  0  0  0  0  0  0  0  0  0
   22.6275  -35.2514   -2.2731 N   0  0  0  0  0  0  0  0  0  0  0  0
   23.3131  -35.9294   -1.1498 C   0  0  1  0  0  0  0  0  0  0  0  0
   23.0545  -35.1719    0.0939 C   0  0  0  0  0  0  0  0  0  0  0  0
   23.6790  -35.6605    1.3327 C   0  0  0  0  0  0  0  0  0  0  0  0
   23.3613  -34.9935    2.5954 C   0  0  0  0  0  0  0  0  0  0  0  0
   22.6000  -33.9955    2.5996 O   0  0  0  0  0  0  0  0  0  0  0  0
   22.8325  -37.2961   -1.1444 C   0  0  0  0  0  0  0  0  0  0  0  0
   23.6439  -38.2598   -0.9257 O   0  0  0  0  0  0  0  0  0  0  0  0
   23.8722  -35.4298    3.8069 O   0  0  0  0  0  0  0  0  0  0  0  0
   21.5159  -37.6964   -1.3535 O   0  0  0  0  0  0  0  0  0  0  0  0
  2  3  1  1
  2  1  1  0
  4  2  1  0
  5  6  1  6
  5  4  1  0
  7  8  2  0
  7  5  1  0
  9  7  1  0
 10  9  1  0
 10 21  1  0
 10 11  1  6
 12 11  1  0
 13 12  2  0
 14 13  1  0
 15 14  1  0
 15 20  2  0
 16 15  1  0
 17 16  2  0
 17 18  1  0
 18 19  2  0
 19 20  1  0
 20 12  1  0
 21 23  1  0
 22 21  2  0
 23 24  1  0
 24 25  1  1
 24 29  1  0
 26 25  1  0
 27 31  1  0
 27 26  1  0
 28 27  2  0
 29 30  2  0
 29 32  1  0
M  END
$$$$
