LWE.pdb
     RDKit          3D

 32 33  0  0  1  0  0  0  0  0999 V2000
   27.6421  -20.7418  -17.4922 C   0  0  0  0  0  0  0  0  0  0  0  0
   27.9693  -22.0213  -16.7262 C   0  0  2  0  0  0  0  0  0  0  0  0
   27.8041  -23.1791  -17.6526 C   0  0  0  0  0  0  0  0  0  0  0  0
   27.0887  -22.0815  -15.5231 C   0  0  0  0  0  0  0  0  0  0  0  0
   27.2281  -20.9575  -14.5566 C   0  0  2  0  0  0  0  0  0  0  0  0
   28.6748  -20.7533  -14.3497 N   0  0  0  0  0  0  0  0  0  0  0  0
   26.5617  -21.1825  -13.2438 C   0  0  0  0  0  0  0  0  0  0  0  0
   25.4196  -21.6974  -13.1862 O   0  0  0  0  0  0  0  0  0  0  0  0
   27.1703  -20.8334  -12.0119 N   0  0  0  0  0  0  0  0  0  0  0  0
   26.5150  -20.9351  -10.7146 C   0  0  1  0  0  0  0  0  0  0  0  0
   27.4994  -20.9372   -9.5983 C   0  0  0  0  0  0  0  0  0  0  0  0
   26.9844  -20.7738   -8.2551 C   0  0  0  0  0  0  0  0  0  0  0  0
   25.7258  -21.2041   -7.8433 C   0  0  0  0  0  0  0  0  0  0  0  0
   25.5349  -20.9242   -6.5493 N   0  0  0  0  0  0  0  0  0  0  0  0
   26.6500  -20.3153   -6.1023 C   0  0  0  0  0  0  0  0  0  0  0  0
   26.9537  -19.8302   -4.8483 C   0  0  0  0  0  0  0  0  0  0  0  0
   28.1755  -19.2253   -4.5888 C   0  0  0  0  0  0  0  0  0  0  0  0
   29.0728  -19.1263   -5.6260 C   0  0  0  0  0  0  0  0  0  0  0  0
   28.7588  -19.6140   -6.8729 C   0  0  0  0  0  0  0  0  0  0  0  0
   27.5508  -20.2198   -7.1558 C   0  0  0  0  0  0  0  0  0  0  0  0
   25.3494  -20.0589  -10.5901 C   0  0  0  0  0  0  0  0  0  0  0  0
   25.5223  -18.8272  -10.8858 O   0  0  0  0  0  0  0  0  0  0  0  0
   24.0695  -20.4399  -10.1872 N   0  0  0  0  0  0  0  0  0  0  0  0
   22.8230  -19.7890  -10.6500 C   0  0  1  0  0  0  0  0  0  0  0  0
   22.7195  -19.9453  -12.1171 C   0  0  0  0  0  0  0  0  0  0  0  0
   22.5164  -21.3025  -12.6461 C   0  0  0  0  0  0  0  0  0  0  0  0
   21.3407  -21.5698  -13.4747 C   0  0  0  0  0  0  0  0  0  0  0  0
   20.4614  -20.6850  -13.6142 O   0  0  0  0  0  0  0  0  0  0  0  0
   21.7439  -20.3909   -9.8935 C   0  0  0  0  0  0  0  0  0  0  0  0
   20.5634  -19.9046   -9.9635 O   0  0  0  0  0  0  0  0  0  0  0  0
   21.1589  -22.7790  -14.1258 O   0  0  0  0  0  0  0  0  0  0  0  0
   21.8539  -21.5020   -9.0625 O   0  0  0  0  0  0  0  0  0  0  0  0
  2  3  1  6
  2  1  1  0
  4  2  1  0
  5  6  1  1
  5  4  1  0
  7  8  2  0
  7  5  1  0
  9  7  1  0
 10  9  1  0
 10 21  1  0
 10 11  1  1
 12 11  1  0
 13 12  2  0
 14 13  1  0
 15 14  1  0
 15 20  2  0
 16 15  1  0
 17 16  2  0
 17 18  1  0
 18 19  2  0
 19 20  1  0
 20 12  1  0
 21 23  1  0
 22 21  2  0
 23 24  1  0
 24 25  1  6
 24 29  1  0
 26 25  1  0
 27 31  1  0
 27 26  1  0
 28 27  2  0
 29 30  2  0
 29 32  1  0
M  END
$$$$
