LWE.pdb
     RDKit          3D

 32 33  0  0  1  0  0  0  0  0999 V2000
   28.5840  -21.1960  -17.6566 C   0  0  0  0  0  0  0  0  0  0  0  0
   29.3908  -21.8915  -16.5628 C   0  0  2  0  0  0  0  0  0  0  0  0
   29.9777  -23.1391  -17.1328 C   0  0  0  0  0  0  0  0  0  0  0  0
   28.4887  -22.1273  -15.3977 C   0  0  0  0  0  0  0  0  0  0  0  0
   27.8648  -20.9144  -14.8006 C   0  0  2  0  0  0  0  0  0  0  0  0
   28.9571  -19.9531  -14.5550 N   0  0  0  0  0  0  0  0  0  0  0  0
   27.1200  -21.1598  -13.5344 C   0  0  0  0  0  0  0  0  0  0  0  0
   26.1754  -21.9838  -13.4975 O   0  0  0  0  0  0  0  0  0  0  0  0
   27.4324  -20.4882  -12.3257 N   0  0  0  0  0  0  0  0  0  0  0  0
   26.6960  -20.6556  -11.0796 C   0  0  1  0  0  0  0  0  0  0  0  0
   27.4514  -20.1163   -9.9161 C   0  0  0  0  0  0  0  0  0  0  0  0
   26.8611  -20.2800   -8.6043 C   0  0  0  0  0  0  0  0  0  0  0  0
   25.5398  -20.6600   -8.3842 C   0  0  0  0  0  0  0  0  0  0  0  0
   25.2863  -20.7364   -7.0730 N   0  0  0  0  0  0  0  0  0  0  0  0
   26.4219  -20.4119   -6.4257 C   0  0  0  0  0  0  0  0  0  0  0  0
   26.6826  -20.3389   -5.0741 C   0  0  0  0  0  0  0  0  0  0  0  0
   27.9371  -19.9776   -4.6031 C   0  0  0  0  0  0  0  0  0  0  0  0
   28.9112  -19.6948   -5.5314 C   0  0  0  0  0  0  0  0  0  0  0  0
   28.6396  -19.7710   -6.8773 C   0  0  0  0  0  0  0  0  0  0  0  0
   27.4003  -20.1281   -7.3704 C   0  0  0  0  0  0  0  0  0  0  0  0
   25.2819  -20.2969  -11.1960 C   0  0  0  0  0  0  0  0  0  0  0  0
   25.0210  -19.1037  -11.5736 O   0  0  0  0  0  0  0  0  0  0  0  0
   24.1946  -21.1327  -10.9416 N   0  0  0  0  0  0  0  0  0  0  0  0
   22.8057  -20.8439  -11.3649 C   0  0  1  0  0  0  0  0  0  0  0  0
   22.3515  -21.9175  -12.2753 C   0  0  0  0  0  0  0  0  0  0  0  0
   20.9480  -21.8915  -12.7141 C   0  0  0  0  0  0  0  0  0  0  0  0
   20.4706  -22.9372  -13.6190 C   0  0  0  0  0  0  0  0  0  0  0  0
   21.2622  -23.8256  -14.0188 O   0  0  0  0  0  0  0  0  0  0  0  0
   22.0300  -20.7041  -10.1494 C   0  0  0  0  0  0  0  0  0  0  0  0
   22.3828  -21.3256   -9.0891 O   0  0  0  0  0  0  0  0  0  0  0  0
   19.1569  -22.9892  -14.0555 O   0  0  0  0  0  0  0  0  0  0  0  0
   20.8889  -19.9216   -9.9979 O   0  0  0  0  0  0  0  0  0  0  0  0
  2  3  1  6
  2  1  1  0
  4  2  1  0
  5  6  1  1
  5  4  1  0
  7  8  2  0
  7  5  1  0
  9  7  1  0
 10  9  1  0
 10 21  1  0
 10 11  1  1
 12 11  1  0
 13 12  2  0
 14 13  1  0
 15 14  1  0
 15 20  2  0
 16 15  1  0
 17 16  2  0
 17 18  1  0
 18 19  2  0
 19 20  1  0
 20 12  1  0
 21 23  1  0
 22 21  2  0
 23 24  1  0
 24 25  1  6
 24 29  1  0
 26 25  1  0
 27 31  1  0
 27 26  1  0
 28 27  2  0
 29 30  2  0
 29 32  1  0
M  END
$$$$
