LWE.pdb
     RDKit          3D

 32 33  0  0  1  0  0  0  0  0999 V2000
   29.3884  -17.7207  -15.4310 C   0  0  0  0  0  0  0  0  0  0  0  0
   28.5311  -18.3377  -16.5336 C   0  0  2  0  0  0  0  0  0  0  0  0
   27.9727  -17.2340  -17.3678 C   0  0  0  0  0  0  0  0  0  0  0  0
   27.4910  -19.1930  -15.8907 C   0  0  0  0  0  0  0  0  0  0  0  0
   27.9814  -20.1577  -14.8681 C   0  0  2  0  0  0  0  0  0  0  0  0
   28.9099  -21.0728  -15.5595 N   0  0  0  0  0  0  0  0  0  0  0  0
   26.9113  -20.9451  -14.1950 C   0  0  0  0  0  0  0  0  0  0  0  0
   26.1136  -21.6434  -14.8649 O   0  0  0  0  0  0  0  0  0  0  0  0
   26.7395  -20.9477  -12.7878 N   0  0  0  0  0  0  0  0  0  0  0  0
   25.6942  -21.6847  -12.0898 C   0  0  1  0  0  0  0  0  0  0  0  0
   26.1206  -22.0824  -10.7204 C   0  0  0  0  0  0  0  0  0  0  0  0
   26.4258  -21.0222   -9.7830 C   0  0  0  0  0  0  0  0  0  0  0  0
   25.5659  -19.9670   -9.4900 C   0  0  0  0  0  0  0  0  0  0  0  0
   26.1160  -19.1519   -8.5832 N   0  0  0  0  0  0  0  0  0  0  0  0
   27.3266  -19.6550   -8.2743 C   0  0  0  0  0  0  0  0  0  0  0  0
   28.2835  -19.1891   -7.3982 C   0  0  0  0  0  0  0  0  0  0  0  0
   29.4845  -19.8620   -7.2222 C   0  0  0  0  0  0  0  0  0  0  0  0
   29.6871  -21.0095   -7.9522 C   0  0  0  0  0  0  0  0  0  0  0  0
   28.7252  -21.4648   -8.8232 C   0  0  0  0  0  0  0  0  0  0  0  0
   27.5229  -20.8137   -9.0154 C   0  0  0  0  0  0  0  0  0  0  0  0
   24.3690  -21.0820  -12.2398 C   0  0  0  0  0  0  0  0  0  0  0  0
   24.3011  -19.8097  -12.1338 O   0  0  0  0  0  0  0  0  0  0  0  0
   23.1773  -21.7608  -12.4938 N   0  0  0  0  0  0  0  0  0  0  0  0
   21.8829  -21.0965  -12.7671 C   0  0  1  0  0  0  0  0  0  0  0  0
   21.0917  -21.9505  -13.6794 C   0  0  0  0  0  0  0  0  0  0  0  0
   19.7512  -21.4815  -14.0620 C   0  0  0  0  0  0  0  0  0  0  0  0
   18.9069  -22.3480  -14.8845 C   0  0  0  0  0  0  0  0  0  0  0  0
   19.4092  -23.3436  -15.4609 O   0  0  0  0  0  0  0  0  0  0  0  0
   21.2715  -20.8491  -11.4772 C   0  0  0  0  0  0  0  0  0  0  0  0
   21.4862  -21.6484  -10.5025 O   0  0  0  0  0  0  0  0  0  0  0  0
   17.5521  -22.1120  -15.0513 O   0  0  0  0  0  0  0  0  0  0  0  0
   20.4399  -19.7781  -11.1629 O   0  0  0  0  0  0  0  0  0  0  0  0
  2  3  1  1
  2  1  1  0
  4  2  1  0
  5  6  1  6
  5  4  1  0
  7  8  2  0
  7  5  1  0
  9  7  1  0
 10  9  1  0
 10 21  1  0
 10 11  1  1
 12 11  1  0
 13 12  2  0
 14 13  1  0
 15 14  1  0
 15 20  2  0
 16 15  1  0
 17 16  2  0
 17 18  1  0
 18 19  2  0
 19 20  1  0
 20 12  1  0
 21 23  1  0
 22 21  2  0
 23 24  1  0
 24 25  1  6
 24 29  1  0
 26 25  1  0
 27 31  1  0
 27 26  1  0
 28 27  2  0
 29 30  2  0
 29 32  1  0
M  END
$$$$
