LWE.pdb
     RDKit          3D

 32 33  0  0  1  0  0  0  0  0999 V2000
   28.4555  -19.5130  -17.6642 C   0  0  0  0  0  0  0  0  0  0  0  0
   29.3763  -20.3854  -16.8144 C   0  0  2  0  0  0  0  0  0  0  0  0
   30.0053  -21.4076  -17.7006 C   0  0  0  0  0  0  0  0  0  0  0  0
   28.5701  -20.9666  -15.7013 C   0  0  0  0  0  0  0  0  0  0  0  0
   27.8948  -19.9875  -14.8056 C   0  0  2  0  0  0  0  0  0  0  0  0
   28.9141  -18.9924  -14.4202 N   0  0  0  0  0  0  0  0  0  0  0  0
   27.2883  -20.5823  -13.5822 C   0  0  0  0  0  0  0  0  0  0  0  0
   26.4757  -21.5335  -13.6688 O   0  0  0  0  0  0  0  0  0  0  0  0
   27.5908  -20.1144  -12.2786 N   0  0  0  0  0  0  0  0  0  0  0  0
   26.9493  -20.5984  -11.0633 C   0  0  1  0  0  0  0  0  0  0  0  0
   27.7598  -20.2931   -9.8528 C   0  0  0  0  0  0  0  0  0  0  0  0
   27.1390  -20.5092   -8.5630 C   0  0  0  0  0  0  0  0  0  0  0  0
   25.8680  -21.0504   -8.3886 C   0  0  0  0  0  0  0  0  0  0  0  0
   25.5699  -21.1372   -7.0875 N   0  0  0  0  0  0  0  0  0  0  0  0
   26.6265  -20.6606   -6.4017 C   0  0  0  0  0  0  0  0  0  0  0  0
   26.8175  -20.5333   -5.0424 C   0  0  0  0  0  0  0  0  0  0  0  0
   27.9949  -20.0081   -4.5287 C   0  0  0  0  0  0  0  0  0  0  0  0
   28.9646  -19.6188   -5.4225 C   0  0  0  0  0  0  0  0  0  0  0  0
   28.7630  -19.7506   -6.7764 C   0  0  0  0  0  0  0  0  0  0  0  0
   27.6011  -20.2702   -7.3117 C   0  0  0  0  0  0  0  0  0  0  0  0
   25.5169  -20.3023  -11.0134 C   0  0  0  0  0  0  0  0  0  0  0  0
   25.1822  -19.0703  -11.0805 O   0  0  0  0  0  0  0  0  0  0  0  0
   24.4845  -21.2342  -10.9069 N   0  0  0  0  0  0  0  0  0  0  0  0
   23.0680  -20.9474  -11.2273 C   0  0  1  0  0  0  0  0  0  0  0  0
   22.5325  -22.0518  -12.0526 C   0  0  0  0  0  0  0  0  0  0  0  0
   21.1041  -22.0128  -12.4007 C   0  0  0  0  0  0  0  0  0  0  0  0
   20.6617  -21.1219  -13.4734 C   0  0  0  0  0  0  0  0  0  0  0  0
   21.2277  -21.1644  -14.5931 O   0  0  0  0  0  0  0  0  0  0  0  0
   22.3954  -20.7500   -9.9594 C   0  0  0  0  0  0  0  0  0  0  0  0
   22.8524  -21.2997   -8.8992 O   0  0  0  0  0  0  0  0  0  0  0  0
   19.6230  -20.2216  -13.3010 O   0  0  0  0  0  0  0  0  0  0  0  0
   21.2524  -19.9822   -9.7556 O   0  0  0  0  0  0  0  0  0  0  0  0
  2  3  1  6
  2  1  1  0
  4  2  1  0
  5  6  1  1
  5  4  1  0
  7  8  2  0
  7  5  1  0
  9  7  1  0
 10  9  1  0
 10 21  1  0
 10 11  1  1
 12 11  1  0
 13 12  2  0
 14 13  1  0
 15 14  1  0
 15 20  2  0
 16 15  1  0
 17 16  2  0
 17 18  1  0
 18 19  2  0
 19 20  1  0
 20 12  1  0
 21 23  1  0
 22 21  2  0
 23 24  1  0
 24 25  1  1
 24 29  1  0
 26 25  1  0
 27 31  1  0
 27 26  1  0
 28 27  2  0
 29 30  2  0
 29 32  1  0
M  END
$$$$
