LWE.pdb
     RDKit          3D

 32 33  0  0  1  0  0  0  0  0999 V2000
   27.4558  -17.8891  -16.9829 C   0  0  0  0  0  0  0  0  0  0  0  0
   28.4242  -18.0541  -15.8141 C   0  0  2  0  0  0  0  0  0  0  0  0
   29.7956  -18.2579  -16.3651 C   0  0  0  0  0  0  0  0  0  0  0  0
   27.9416  -19.1829  -14.9657 C   0  0  0  0  0  0  0  0  0  0  0  0
   26.6020  -19.0023  -14.3414 C   0  0  2  0  0  0  0  0  0  0  0  0
   26.4806  -17.5707  -14.0048 N   0  0  0  0  0  0  0  0  0  0  0  0
   26.3707  -19.8246  -13.1213 C   0  0  0  0  0  0  0  0  0  0  0  0
   26.5361  -21.0674  -13.1468 O   0  0  0  0  0  0  0  0  0  0  0  0
   25.9591  -19.2579  -11.8887 N   0  0  0  0  0  0  0  0  0  0  0  0
   25.7577  -20.0182  -10.6622 C   0  0  1  0  0  0  0  0  0  0  0  0
   26.7368  -19.6348   -9.6088 C   0  0  0  0  0  0  0  0  0  0  0  0
   26.5513  -20.2001   -8.2890 C   0  0  0  0  0  0  0  0  0  0  0  0
   25.6666  -21.2356   -7.9999 C   0  0  0  0  0  0  0  0  0  0  0  0
   25.7212  -21.5499   -6.7009 N   0  0  0  0  0  0  0  0  0  0  0  0
   26.6294  -20.7360   -6.1294 C   0  0  0  0  0  0  0  0  0  0  0  0
   27.0498  -20.6572   -4.8190 C   0  0  0  0  0  0  0  0  0  0  0  0
   28.0089  -19.7340   -4.4266 C   0  0  0  0  0  0  0  0  0  0  0  0
   28.5254  -18.9003   -5.3904 C   0  0  0  0  0  0  0  0  0  0  0  0
   28.0985  -18.9881   -6.6947 C   0  0  0  0  0  0  0  0  0  0  0  0
   27.1463  -19.8978   -7.1096 C   0  0  0  0  0  0  0  0  0  0  0  0
   24.3500  -20.1211  -10.2754 C   0  0  0  0  0  0  0  0  0  0  0  0
   23.6870  -19.0293  -10.2238 O   0  0  0  0  0  0  0  0  0  0  0  0
   23.6628  -21.2946   -9.9652 N   0  0  0  0  0  0  0  0  0  0  0  0
   22.2041  -21.3657   -9.7228 C   0  0  1  0  0  0  0  0  0  0  0  0
   21.9224  -20.8680   -8.3588 C   0  0  0  0  0  0  0  0  0  0  0  0
   20.7775  -21.4508   -7.6428 C   0  0  0  0  0  0  0  0  0  0  0  0
   20.9578  -22.7170   -6.9325 C   0  0  0  0  0  0  0  0  0  0  0  0
   22.0568  -22.9728   -6.3825 O   0  0  0  0  0  0  0  0  0  0  0  0
   21.5766  -20.6131  -10.7899 C   0  0  0  0  0  0  0  0  0  0  0  0
   22.1729  -19.6023  -11.2976 O   0  0  0  0  0  0  0  0  0  0  0  0
   19.9457  -23.6581   -6.8373 O   0  0  0  0  0  0  0  0  0  0  0  0
   20.3361  -20.8875  -11.3586 O   0  0  0  0  0  0  0  0  0  0  0  0
  2  3  1  6
  2  1  1  0
  4  2  1  0
  5  6  1  1
  5  4  1  0
  7  8  2  0
  7  5  1  0
  9  7  1  0
 10  9  1  0
 10 21  1  0
 10 11  1  1
 12 11  1  0
 13 12  2  0
 14 13  1  0
 15 14  1  0
 15 20  2  0
 16 15  1  0
 17 16  2  0
 17 18  1  0
 18 19  2  0
 19 20  1  0
 20 12  1  0
 21 23  1  0
 22 21  2  0
 23 24  1  0
 24 25  1  1
 24 29  1  0
 26 25  1  0
 27 31  1  0
 27 26  1  0
 28 27  2  0
 29 30  2  0
 29 32  1  0
M  END
$$$$
