LWE.pdb
     RDKit          3D

 32 33  0  0  1  0  0  0  0  0999 V2000
   28.9751  -22.9149  -19.6129 C   0  0  0  0  0  0  0  0  0  0  0  0
   29.6484  -23.2047  -18.2735 C   0  0  2  0  0  0  0  0  0  0  0  0
   30.5305  -24.3965  -18.4389 C   0  0  0  0  0  0  0  0  0  0  0  0
   28.5817  -23.3822  -17.2452 C   0  0  0  0  0  0  0  0  0  0  0  0
   27.7791  -22.1703  -16.9228 C   0  0  2  0  0  0  0  0  0  0  0  0
   28.6997  -21.0195  -16.9994 N   0  0  0  0  0  0  0  0  0  0  0  0
   27.1234  -22.1985  -15.5858 C   0  0  0  0  0  0  0  0  0  0  0  0
   26.4217  -23.1780  -15.2382 O   0  0  0  0  0  0  0  0  0  0  0  0
   27.2545  -21.1403  -14.6518 N   0  0  0  0  0  0  0  0  0  0  0  0
   26.6156  -21.1171  -13.3425 C   0  0  1  0  0  0  0  0  0  0  0  0
   27.3987  -20.3181  -12.3609 C   0  0  0  0  0  0  0  0  0  0  0  0
   26.8742  -20.2153  -11.0154 C   0  0  0  0  0  0  0  0  0  0  0  0
   25.5785  -19.8062  -10.7112 C   0  0  0  0  0  0  0  0  0  0  0  0
   25.3812  -19.8195   -9.3882 N   0  0  0  0  0  0  0  0  0  0  0  0
   26.5287  -20.2315   -8.8161 C   0  0  0  0  0  0  0  0  0  0  0  0
   26.8419  -20.4117   -7.4858 C   0  0  0  0  0  0  0  0  0  0  0  0
   28.1008  -20.8474   -7.0969 C   0  0  0  0  0  0  0  0  0  0  0  0
   29.0254  -21.0931   -8.0846 C   0  0  0  0  0  0  0  0  0  0  0  0
   28.7017  -20.9099   -9.4085 C   0  0  0  0  0  0  0  0  0  0  0  0
   27.4567  -20.4778   -9.8204 C   0  0  0  0  0  0  0  0  0  0  0  0
   25.1727  -20.8818  -13.4120 C   0  0  0  0  0  0  0  0  0  0  0  0
   24.7915  -19.8270  -14.0256 O   0  0  0  0  0  0  0  0  0  0  0  0
   24.1763  -21.7002  -12.8802 N   0  0  0  0  0  0  0  0  0  0  0  0
   22.7254  -21.4746  -13.0684 C   0  0  1  0  0  0  0  0  0  0  0  0
   22.0834  -22.7615  -13.4142 C   0  0  0  0  0  0  0  0  0  0  0  0
   20.6280  -22.7628  -13.6258 C   0  0  0  0  0  0  0  0  0  0  0  0
   19.9755  -24.0030  -14.0455 C   0  0  0  0  0  0  0  0  0  0  0  0
   20.6637  -25.0340  -14.2437 O   0  0  0  0  0  0  0  0  0  0  0  0
   22.2464  -20.8614  -11.8464 C   0  0  0  0  0  0  0  0  0  0  0  0
   22.6930  -21.2545  -10.7145 O   0  0  0  0  0  0  0  0  0  0  0  0
   18.6053  -24.0873  -14.2316 O   0  0  0  0  0  0  0  0  0  0  0  0
   21.3119  -19.8332  -11.7641 O   0  0  0  0  0  0  0  0  0  0  0  0
  2  3  1  6
  2  1  1  0
  4  2  1  0
  5  6  1  1
  5  4  1  0
  7  8  2  0
  7  5  1  0
  9  7  1  0
 10  9  1  0
 10 21  1  0
 10 11  1  1
 12 11  1  0
 13 12  2  0
 14 13  1  0
 15 14  1  0
 15 20  2  0
 16 15  1  0
 17 16  2  0
 17 18  1  0
 18 19  2  0
 19 20  1  0
 20 12  1  0
 21 23  1  0
 22 21  2  0
 23 24  1  0
 24 25  1  1
 24 29  1  0
 26 25  1  0
 27 31  1  0
 27 26  1  0
 28 27  2  0
 29 30  2  0
 29 32  1  0
M  END
$$$$
