LWE.pdb
     RDKit          3D

 32 33  0  0  1  0  0  0  0  0999 V2000
   27.0748  -19.2698  -15.8869 C   0  0  0  0  0  0  0  0  0  0  0  0
   27.1375  -18.6448  -14.4953 C   0  0  2  0  0  0  0  0  0  0  0  0
   27.0649  -17.1619  -14.6422 C   0  0  0  0  0  0  0  0  0  0  0  0
   28.3819  -19.1241  -13.8255 C   0  0  0  0  0  0  0  0  0  0  0  0
   28.4750  -20.5925  -13.5974 C   0  0  2  0  0  0  0  0  0  0  0  0
   28.3624  -21.2351  -14.9210 N   0  0  0  0  0  0  0  0  0  0  0  0
   27.4372  -21.1448  -12.6829 C   0  0  0  0  0  0  0  0  0  0  0  0
   26.4234  -21.7234  -13.1413 O   0  0  0  0  0  0  0  0  0  0  0  0
   27.5372  -21.0483  -11.2722 N   0  0  0  0  0  0  0  0  0  0  0  0
   26.4912  -21.4594  -10.3450 C   0  0  1  0  0  0  0  0  0  0  0  0
   27.0439  -21.7985   -9.0053 C   0  0  0  0  0  0  0  0  0  0  0  0
   27.1946  -20.7182   -8.0535 C   0  0  0  0  0  0  0  0  0  0  0  0
   26.6179  -19.4596   -8.2025 C   0  0  0  0  0  0  0  0  0  0  0  0
   26.9253  -18.6770   -7.1622 N   0  0  0  0  0  0  0  0  0  0  0  0
   27.6965  -19.4019   -6.3294 C   0  0  0  0  0  0  0  0  0  0  0  0
   28.2715  -19.0552   -5.1255 C   0  0  0  0  0  0  0  0  0  0  0  0
   29.0450  -19.9600   -4.4120 C   0  0  0  0  0  0  0  0  0  0  0  0
   29.2183  -21.2146   -4.9476 C   0  0  0  0  0  0  0  0  0  0  0  0
   28.6398  -21.5492   -6.1495 C   0  0  0  0  0  0  0  0  0  0  0  0
   27.8662  -20.6673   -6.8776 C   0  0  0  0  0  0  0  0  0  0  0  0
   25.3098  -20.5969  -10.3933 C   0  0  0  0  0  0  0  0  0  0  0  0
   25.5087  -19.3654  -10.6731 O   0  0  0  0  0  0  0  0  0  0  0  0
   23.9904  -20.9907  -10.1707 N   0  0  0  0  0  0  0  0  0  0  0  0
   22.8290  -20.4781  -10.9322 C   0  0  1  0  0  0  0  0  0  0  0  0
   22.9733  -20.8781  -12.3488 C   0  0  0  0  0  0  0  0  0  0  0  0
   21.8754  -20.5420  -13.2680 C   0  0  0  0  0  0  0  0  0  0  0  0
   21.9113  -19.2612  -13.9740 C   0  0  0  0  0  0  0  0  0  0  0  0
   22.9286  -18.9424  -14.6367 O   0  0  0  0  0  0  0  0  0  0  0  0
   21.6480  -20.9922  -10.2691 C   0  0  0  0  0  0  0  0  0  0  0  0
   21.7441  -21.9817   -9.4650 O   0  0  0  0  0  0  0  0  0  0  0  0
   20.8478  -18.3740  -13.9435 O   0  0  0  0  0  0  0  0  0  0  0  0
   20.3547  -20.4975  -10.4114 O   0  0  0  0  0  0  0  0  0  0  0  0
  2  3  1  6
  2  1  1  0
  4  2  1  0
  5  6  1  6
  5  4  1  0
  7  8  2  0
  7  5  1  0
  9  7  1  0
 10  9  1  0
 10 21  1  0
 10 11  1  1
 12 11  1  0
 13 12  2  0
 14 13  1  0
 15 14  1  0
 15 20  2  0
 16 15  1  0
 17 16  2  0
 17 18  1  0
 18 19  2  0
 19 20  1  0
 20 12  1  0
 21 23  1  0
 22 21  2  0
 23 24  1  0
 24 25  1  6
 24 29  1  0
 26 25  1  0
 27 31  1  0
 27 26  1  0
 28 27  2  0
 29 30  2  0
 29 32  1  0
M  END
$$$$
