LWE.pdb
     RDKit          3D

 32 33  0  0  1  0  0  0  0  0999 V2000
   27.4250  -21.0019  -20.1622 C   0  0  0  0  0  0  0  0  0  0  0  0
   27.9834  -21.2287  -18.7595 C   0  0  2  0  0  0  0  0  0  0  0  0
   29.4347  -21.5538  -18.8781 C   0  0  0  0  0  0  0  0  0  0  0  0
   27.1771  -22.3004  -18.1052 C   0  0  0  0  0  0  0  0  0  0  0  0
   27.6931  -22.7996  -16.8008 C   0  0  2  0  0  0  0  0  0  0  0  0
   28.0030  -24.2302  -16.9870 N   0  0  0  0  0  0  0  0  0  0  0  0
   26.7519  -22.6360  -15.6582 C   0  0  0  0  0  0  0  0  0  0  0  0
   25.6261  -23.1883  -15.6728 O   0  0  0  0  0  0  0  0  0  0  0  0
   27.0712  -21.8620  -14.5142 N   0  0  0  0  0  0  0  0  0  0  0  0
   26.1876  -21.6862  -13.3691 C   0  0  1  0  0  0  0  0  0  0  0  0
   26.9385  -21.2766  -12.1510 C   0  0  0  0  0  0  0  0  0  0  0  0
   26.1846  -21.1172  -10.9255 C   0  0  0  0  0  0  0  0  0  0  0  0
   25.2234  -22.0191  -10.4766 C   0  0  0  0  0  0  0  0  0  0  0  0
   24.7045  -21.6109   -9.3133 N   0  0  0  0  0  0  0  0  0  0  0  0
   25.3100  -20.4524   -8.9889 C   0  0  0  0  0  0  0  0  0  0  0  0
   25.1311  -19.6342   -7.8942 C   0  0  0  0  0  0  0  0  0  0  0  0
   25.8633  -18.4648   -7.7442 C   0  0  0  0  0  0  0  0  0  0  0  0
   26.7736  -18.1504   -8.7257 C   0  0  0  0  0  0  0  0  0  0  0  0
   26.9436  -18.9744   -9.8134 C   0  0  0  0  0  0  0  0  0  0  0  0
   26.2278  -20.1425   -9.9850 C   0  0  0  0  0  0  0  0  0  0  0  0
   24.9668  -20.9475  -13.6943 C   0  0  0  0  0  0  0  0  0  0  0  0
   25.1127  -19.8480  -14.3301 O   0  0  0  0  0  0  0  0  0  0  0  0
   23.6622  -21.3312  -13.3837 N   0  0  0  0  0  0  0  0  0  0  0  0
   22.4644  -20.5051  -13.6563 C   0  0  1  0  0  0  0  0  0  0  0  0
   21.5228  -21.2891  -14.4848 C   0  0  0  0  0  0  0  0  0  0  0  0
   20.2300  -20.6718  -14.8177 C   0  0  0  0  0  0  0  0  0  0  0  0
   19.2660  -21.4340  -15.6114 C   0  0  0  0  0  0  0  0  0  0  0  0
   19.6739  -22.2391  -16.4838 O   0  0  0  0  0  0  0  0  0  0  0  0
   21.9488  -20.0965  -12.3656 C   0  0  0  0  0  0  0  0  0  0  0  0
   21.5871  -18.8850  -12.1745 O   0  0  0  0  0  0  0  0  0  0  0  0
   17.8985  -21.3035  -15.4322 O   0  0  0  0  0  0  0  0  0  0  0  0
   21.7876  -20.9208  -11.2557 O   0  0  0  0  0  0  0  0  0  0  0  0
  2  3  1  6
  2  1  1  0
  4  2  1  0
  5  6  1  6
  5  4  1  0
  7  8  2  0
  7  5  1  0
  9  7  1  0
 10  9  1  0
 10 21  1  0
 10 11  1  1
 12 11  1  0
 13 12  2  0
 14 13  1  0
 15 14  1  0
 15 20  2  0
 16 15  1  0
 17 16  2  0
 17 18  1  0
 18 19  2  0
 19 20  1  0
 20 12  1  0
 21 23  1  0
 22 21  2  0
 23 24  1  0
 24 25  1  1
 24 29  1  0
 26 25  1  0
 27 31  1  0
 27 26  1  0
 28 27  2  0
 29 30  2  0
 29 32  1  0
M  END
$$$$
