LWE.pdb
     RDKit          3D

 32 33  0  0  1  0  0  0  0  0999 V2000
   28.8656  -18.8127  -16.5705 C   0  0  0  0  0  0  0  0  0  0  0  0
   28.7659  -20.3283  -16.7258 C   0  0  2  0  0  0  0  0  0  0  0  0
   28.5216  -20.6383  -18.1646 C   0  0  0  0  0  0  0  0  0  0  0  0
   27.6931  -20.8202  -15.8126 C   0  0  0  0  0  0  0  0  0  0  0  0
   27.8314  -20.4389  -14.3799 C   0  0  2  0  0  0  0  0  0  0  0  0
   29.1436  -20.9438  -13.9317 N   0  0  0  0  0  0  0  0  0  0  0  0
   26.7608  -20.9696  -13.4910 C   0  0  0  0  0  0  0  0  0  0  0  0
   26.0874  -21.9721  -13.8291 O   0  0  0  0  0  0  0  0  0  0  0  0
   26.4507  -20.3818  -12.2388 N   0  0  0  0  0  0  0  0  0  0  0  0
   25.3731  -20.8292  -11.3662 C   0  0  1  0  0  0  0  0  0  0  0  0
   25.6042  -20.4244   -9.9527 C   0  0  0  0  0  0  0  0  0  0  0  0
   26.8741  -20.7813   -9.3562 C   0  0  0  0  0  0  0  0  0  0  0  0
   27.8246  -21.5932   -9.9695 C   0  0  0  0  0  0  0  0  0  0  0  0
   28.8965  -21.7369   -9.1823 N   0  0  0  0  0  0  0  0  0  0  0  0
   28.6660  -21.0311   -8.0586 C   0  0  0  0  0  0  0  0  0  0  0  0
   29.4554  -20.8586   -6.9418 C   0  0  0  0  0  0  0  0  0  0  0  0
   29.0284  -20.0826   -5.8734 C   0  0  0  0  0  0  0  0  0  0  0  0
   27.7903  -19.4916   -5.9672 C   0  0  0  0  0  0  0  0  0  0  0  0
   27.0115  -19.6708   -7.0863 C   0  0  0  0  0  0  0  0  0  0  0  0
   27.4140  -20.4374   -8.1618 C   0  0  0  0  0  0  0  0  0  0  0  0
   24.0431  -20.5955  -11.9305 C   0  0  0  0  0  0  0  0  0  0  0  0
   23.7596  -19.3914  -12.2536 O   0  0  0  0  0  0  0  0  0  0  0  0
   23.0606  -21.5596  -12.1553 N   0  0  0  0  0  0  0  0  0  0  0  0
   21.7307  -21.2725  -12.7387 C   0  0  1  0  0  0  0  0  0  0  0  0
   21.1711  -22.5256  -13.2903 C   0  0  0  0  0  0  0  0  0  0  0  0
   19.7755  -22.5037  -13.7537 C   0  0  0  0  0  0  0  0  0  0  0  0
   19.4887  -22.0440  -15.1126 C   0  0  0  0  0  0  0  0  0  0  0  0
   20.1761  -22.4690  -16.0732 O   0  0  0  0  0  0  0  0  0  0  0  0
   20.9455  -20.6647  -11.6838 C   0  0  0  0  0  0  0  0  0  0  0  0
   21.0926  -21.0488  -10.4730 O   0  0  0  0  0  0  0  0  0  0  0  0
   18.4690  -21.1470  -15.3863 O   0  0  0  0  0  0  0  0  0  0  0  0
   20.0062  -19.6510  -11.8496 O   0  0  0  0  0  0  0  0  0  0  0  0
  2  3  1  6
  2  1  1  0
  4  2  1  0
  5  6  1  1
  5  4  1  0
  7  8  2  0
  7  5  1  0
  9  7  1  0
 10  9  1  0
 10 21  1  0
 10 11  1  1
 12 11  1  0
 13 12  2  0
 14 13  1  0
 15 14  1  0
 15 20  2  0
 16 15  1  0
 17 16  2  0
 17 18  1  0
 18 19  2  0
 19 20  1  0
 20 12  1  0
 21 23  1  0
 22 21  2  0
 23 24  1  0
 24 25  1  1
 24 29  1  0
 26 25  1  0
 27 31  1  0
 27 26  1  0
 28 27  2  0
 29 30  2  0
 29 32  1  0
M  END
$$$$
