LWE.pdb
     RDKit          3D

 32 33  0  0  1  0  0  0  0  0999 V2000
   28.9506  -17.6267  -16.4445 C   0  0  0  0  0  0  0  0  0  0  0  0
   28.9973  -19.1138  -16.1021 C   0  0  2  0  0  0  0  0  0  0  0  0
   29.4154  -19.8642  -17.3219 C   0  0  0  0  0  0  0  0  0  0  0  0
   27.6582  -19.5130  -15.5783 C   0  0  0  0  0  0  0  0  0  0  0  0
   27.2576  -18.9026  -14.2806 C   0  0  2  0  0  0  0  0  0  0  0  0
   28.4600  -18.2465  -13.7317 N   0  0  0  0  0  0  0  0  0  0  0  0
   26.7142  -19.8664  -13.2837 C   0  0  0  0  0  0  0  0  0  0  0  0
   25.7952  -20.6603  -13.5966 O   0  0  0  0  0  0  0  0  0  0  0  0
   27.1968  -19.9372  -11.9526 N   0  0  0  0  0  0  0  0  0  0  0  0
   26.5614  -20.7035  -10.8887 C   0  0  1  0  0  0  0  0  0  0  0  0
   27.5055  -20.9863   -9.7734 C   0  0  0  0  0  0  0  0  0  0  0  0
   27.0210  -20.7886   -8.4236 C   0  0  0  0  0  0  0  0  0  0  0  0
   25.7080  -21.0217   -8.0229 C   0  0  0  0  0  0  0  0  0  0  0  0
   25.5623  -20.7603   -6.7192 N   0  0  0  0  0  0  0  0  0  0  0  0
   26.7608  -20.3580   -6.2547 C   0  0  0  0  0  0  0  0  0  0  0  0
   27.1368  -19.9737   -4.9854 C   0  0  0  0  0  0  0  0  0  0  0  0
   28.4404  -19.5862   -4.7089 C   0  0  0  0  0  0  0  0  0  0  0  0
   29.3443  -19.5986   -5.7451 C   0  0  0  0  0  0  0  0  0  0  0  0
   28.9578  -19.9840   -7.0073 C   0  0  0  0  0  0  0  0  0  0  0  0
   27.6676  -20.3738   -7.3073 C   0  0  0  0  0  0  0  0  0  0  0  0
   25.2292  -20.2073  -10.5409 C   0  0  0  0  0  0  0  0  0  0  0  0
   25.1318  -18.9607  -10.2746 O   0  0  0  0  0  0  0  0  0  0  0  0
   24.0574  -20.9615  -10.4793 N   0  0  0  0  0  0  0  0  0  0  0  0
   22.6996  -20.4080  -10.6829 C   0  0  1  0  0  0  0  0  0  0  0  0
   22.5420  -20.0430  -12.1076 C   0  0  0  0  0  0  0  0  0  0  0  0
   21.2418  -19.5035  -12.5338 C   0  0  0  0  0  0  0  0  0  0  0  0
   21.0352  -19.1909  -13.9479 C   0  0  0  0  0  0  0  0  0  0  0  0
   21.9174  -19.4917  -14.7888 O   0  0  0  0  0  0  0  0  0  0  0  0
   21.7735  -21.4135  -10.2033 C   0  0  0  0  0  0  0  0  0  0  0  0
   22.0799  -22.6529  -10.2747 O   0  0  0  0  0  0  0  0  0  0  0  0
   19.8838  -18.5701  -14.4038 O   0  0  0  0  0  0  0  0  0  0  0  0
   20.5263  -21.1668   -9.6368 O   0  0  0  0  0  0  0  0  0  0  0  0
  2  3  1  6
  2  1  1  0
  4  2  1  0
  5  6  1  1
  5  4  1  0
  7  8  2  0
  7  5  1  0
  9  7  1  0
 10  9  1  0
 10 21  1  0
 10 11  1  1
 12 11  1  0
 13 12  2  0
 14 13  1  0
 15 14  1  0
 15 20  2  0
 16 15  1  0
 17 16  2  0
 17 18  1  0
 18 19  2  0
 19 20  1  0
 20 12  1  0
 21 23  1  0
 22 21  2  0
 23 24  1  0
 24 25  1  6
 24 29  1  0
 26 25  1  0
 27 31  1  0
 27 26  1  0
 28 27  2  0
 29 30  2  0
 29 32  1  0
M  END
$$$$
