LWE.pdb
     RDKit          3D

 32 33  0  0  1  0  0  0  0  0999 V2000
   30.3647  -20.0490  -14.4536 C   0  0  0  0  0  0  0  0  0  0  0  0
   30.7987  -20.3295  -13.0169 C   0  0  2  0  0  0  0  0  0  0  0  0
   32.1054  -21.0487  -13.0525 C   0  0  0  0  0  0  0  0  0  0  0  0
   29.7086  -21.0930  -12.3420 C   0  0  0  0  0  0  0  0  0  0  0  0
   28.3793  -20.4241  -12.2918 C   0  0  2  0  0  0  0  0  0  0  0  0
   28.6056  -19.0715  -11.7472 N   0  0  0  0  0  0  0  0  0  0  0  0
   27.3601  -21.1314  -11.4676 C   0  0  0  0  0  0  0  0  0  0  0  0
   27.1242  -22.3497  -11.6491 O   0  0  0  0  0  0  0  0  0  0  0  0
   26.6159  -20.4786  -10.4529 N   0  0  0  0  0  0  0  0  0  0  0  0
   25.3602  -20.9764   -9.9067 C   0  0  1  0  0  0  0  0  0  0  0  0
   25.3322  -20.8894   -8.4211 C   0  0  0  0  0  0  0  0  0  0  0  0
   26.3232  -20.0482   -7.7838 C   0  0  0  0  0  0  0  0  0  0  0  0
   26.6931  -18.7884   -8.2473 C   0  0  0  0  0  0  0  0  0  0  0  0
   27.6213  -18.2492   -7.4492 N   0  0  0  0  0  0  0  0  0  0  0  0
   27.8686  -19.1360   -6.4662 C   0  0  0  0  0  0  0  0  0  0  0  0
   28.7393  -19.0587   -5.4002 C   0  0  0  0  0  0  0  0  0  0  0  0
   28.8490  -20.0969   -4.4858 C   0  0  0  0  0  0  0  0  0  0  0  0
   28.0591  -21.2056   -4.6798 C   0  0  0  0  0  0  0  0  0  0  0  0
   27.1941  -21.2715   -5.7468 C   0  0  0  0  0  0  0  0  0  0  0  0
   27.0668  -20.2523   -6.6695 C   0  0  0  0  0  0  0  0  0  0  0  0
   24.1863  -20.4964  -10.6370 C   0  0  0  0  0  0  0  0  0  0  0  0
   24.1884  -19.2655  -10.9827 O   0  0  0  0  0  0  0  0  0  0  0  0
   23.0714  -21.2534  -10.9970 N   0  0  0  0  0  0  0  0  0  0  0  0
   21.9110  -20.7216  -11.7467 C   0  0  1  0  0  0  0  0  0  0  0  0
   21.3575  -21.7988  -12.5959 C   0  0  0  0  0  0  0  0  0  0  0  0
   20.1480  -21.4985  -13.3769 C   0  0  0  0  0  0  0  0  0  0  0  0
   19.5774  -22.5436  -14.2267 C   0  0  0  0  0  0  0  0  0  0  0  0
   20.1438  -23.6610  -14.3069 O   0  0  0  0  0  0  0  0  0  0  0  0
   20.9951  -20.1913  -10.7576 C   0  0  0  0  0  0  0  0  0  0  0  0
   20.2417  -19.1999  -11.0483 O   0  0  0  0  0  0  0  0  0  0  0  0
   18.4153  -22.3473  -14.9548 O   0  0  0  0  0  0  0  0  0  0  0  0
   20.8299  -20.6713   -9.4615 O   0  0  0  0  0  0  0  0  0  0  0  0
  2  3  1  6
  2  1  1  0
  4  2  1  0
  5  6  1  1
  5  4  1  0
  7  8  2  0
  7  5  1  0
  9  7  1  0
 10  9  1  0
 10 21  1  0
 10 11  1  1
 12 11  1  0
 13 12  2  0
 14 13  1  0
 15 14  1  0
 15 20  2  0
 16 15  1  0
 17 16  2  0
 17 18  1  0
 18 19  2  0
 19 20  1  0
 20 12  1  0
 21 23  1  0
 22 21  2  0
 23 24  1  0
 24 25  1  1
 24 29  1  0
 26 25  1  0
 27 31  1  0
 27 26  1  0
 28 27  2  0
 29 30  2  0
 29 32  1  0
M  END
$$$$
