MCS.pdb
     RDKit          3D

 21 20  0  0  1  0  0  0  0  0999 V2000
   10.2344  -13.8429   29.5676 C   0  0  0  0  0  0  0  0  0  0  0  0
   10.5953  -15.5787   29.8467 S   0  0  0  0  0  0  0  0  0  0  0  0
    9.3003  -16.6684   29.2064 C   0  0  0  0  0  0  0  0  0  0  0  0
    9.3083  -16.7040   27.6814 C   0  0  0  0  0  0  0  0  0  0  0  0
    7.9949  -17.3172   27.2586 C   0  0  2  0  0  0  0  0  0  0  0  0
    8.2275  -18.7343   27.0705 N   0  0  0  0  0  0  0  0  0  0  0  0
    7.4228  -16.6752   26.0584 C   0  0  0  0  0  0  0  0  0  0  0  0
    7.0462  -17.4217   25.1176 O   0  0  0  0  0  0  0  0  0  0  0  0
    7.2604  -15.2949   25.8722 N   0  0  0  0  0  0  0  0  0  0  0  0
    7.2775  -14.6092   24.6028 C   0  0  1  0  0  0  0  0  0  0  0  0
    6.9472  -13.1539   24.7007 C   0  0  0  0  0  0  0  0  0  0  0  0
    5.8755  -12.8781   26.1570 S   0  0  0  0  0  0  0  0  0  0  0  0
    8.5821  -14.7563   23.9107 C   0  0  0  0  0  0  0  0  0  0  0  0
    9.6399  -14.2162   24.3484 O   0  0  0  0  0  0  0  0  0  0  0  0
    9.3952  -18.0157   22.1857 O   0  0  0  0  0  0  0  0  0  0  0  0
   10.4183  -17.0794   22.2036 C   0  0  0  0  0  0  0  0  0  0  0  0
    9.9086  -15.6748   21.9801 C   0  0  2  0  0  0  0  0  0  0  0  0
    8.6623  -15.5241   22.7188 N   0  0  0  0  0  0  0  0  0  0  0  0
    9.6914  -15.4868   20.5218 C   0  0  0  0  0  0  0  0  0  0  0  0
   10.7512  -15.5742   19.6313 O   0  0  0  0  0  0  0  0  0  0  0  0
    8.5606  -15.2444   20.0340 O   0  0  0  0  0  0  0  0  0  0  0  0
  2  1  1  0
  3  4  1  0
  3  2  1  0
  4  5  1  0
  5  7  1  0
  5  6  1  6
  7  8  2  0
  9 10  1  0
  9  7  1  0
 10 13  1  0
 10 11  1  1
 12 11  1  0
 13 14  2  0
 13 18  1  0
 16 15  1  0
 17 16  1  6
 18 17  1  0
 19 20  1  0
 19 17  1  0
 21 19  2  0
M  END
$$$$
