MCS.pdb
     RDKit          3D

 21 20  0  0  1  0  0  0  0  0999 V2000
    6.6754  -11.0249   27.2941 C   0  0  0  0  0  0  0  0  0  0  0  0
    6.8770  -12.4206   26.1839 S   0  0  0  0  0  0  0  0  0  0  0  0
    6.0732  -13.9198   26.8011 C   0  0  0  0  0  0  0  0  0  0  0  0
    6.0239  -15.0047   25.7299 C   0  0  0  0  0  0  0  0  0  0  0  0
    7.4092  -15.6012   25.6578 C   0  0  2  0  0  0  0  0  0  0  0  0
    8.3266  -14.6120   26.1844 N   0  0  0  0  0  0  0  0  0  0  0  0
    7.7736  -16.0403   24.2960 C   0  0  0  0  0  0  0  0  0  0  0  0
    7.0876  -16.9565   23.7724 O   0  0  0  0  0  0  0  0  0  0  0  0
    8.8260  -15.5224   23.5276 N   0  0  0  0  0  0  0  0  0  0  0  0
    9.2244  -15.9905   22.2222 C   0  0  1  0  0  0  0  0  0  0  0  0
    9.1268  -14.9486   21.1539 C   0  0  0  0  0  0  0  0  0  0  0  0
    7.5173  -14.0916   21.2962 S   0  0  0  0  0  0  0  0  0  0  0  0
   10.6031  -16.5401   22.2273 C   0  0  0  0  0  0  0  0  0  0  0  0
   11.6247  -15.7927   22.2287 O   0  0  0  0  0  0  0  0  0  0  0  0
   11.4153  -19.8288   24.1985 O   0  0  0  0  0  0  0  0  0  0  0  0
   11.9999  -19.9005   22.9429 C   0  0  0  0  0  0  0  0  0  0  0  0
   12.1266  -18.5413   22.2953 C   0  0  2  0  0  0  0  0  0  0  0  0
   10.7985  -17.9467   22.2307 N   0  0  0  0  0  0  0  0  0  0  0  0
   12.6956  -18.7269   20.9349 C   0  0  0  0  0  0  0  0  0  0  0  0
   13.9963  -19.1787   20.7673 O   0  0  0  0  0  0  0  0  0  0  0  0
   12.0401  -18.4887   19.8913 O   0  0  0  0  0  0  0  0  0  0  0  0
  2  1  1  0
  3  4  1  0
  3  2  1  0
  4  5  1  0
  5  7  1  0
  5  6  1  6
  7  8  2  0
  9 10  1  0
  9  7  1  0
 10 13  1  0
 10 11  1  6
 12 11  1  0
 13 14  2  0
 13 18  1  0
 16 15  1  0
 17 16  1  6
 18 17  1  0
 19 20  1  0
 19 17  1  0
 21 19  2  0
M  END
$$$$
