MCS.pdb
     RDKit          3D

 21 20  0  0  1  0  0  0  0  0999 V2000
    6.1332  -11.2017   26.9746 C   0  0  0  0  0  0  0  0  0  0  0  0
    6.5672  -12.9333   27.1603 S   0  0  0  0  0  0  0  0  0  0  0  0
    7.8218  -13.4657   25.9699 C   0  0  0  0  0  0  0  0  0  0  0  0
    8.2775  -14.8952   26.2452 C   0  0  0  0  0  0  0  0  0  0  0  0
    7.2950  -15.8024   25.5441 C   0  0  2  0  0  0  0  0  0  0  0  0
    7.0375  -16.9178   26.4313 N   0  0  0  0  0  0  0  0  0  0  0  0
    7.7651  -16.2367   24.2135 C   0  0  0  0  0  0  0  0  0  0  0  0
    8.4225  -17.3079   24.1451 O   0  0  0  0  0  0  0  0  0  0  0  0
    7.5419  -15.5553   23.0085 N   0  0  0  0  0  0  0  0  0  0  0  0
    7.9897  -15.9822   21.7050 C   0  0  1  0  0  0  0  0  0  0  0  0
    7.4035  -15.1916   20.5789 C   0  0  0  0  0  0  0  0  0  0  0  0
    7.9635  -15.9036   18.9900 S   0  0  0  0  0  0  0  0  0  0  0  0
    9.4690  -15.9515   21.5894 C   0  0  0  0  0  0  0  0  0  0  0  0
   10.1334  -14.8854   21.7446 O   0  0  0  0  0  0  0  0  0  0  0  0
   11.5672  -19.1638   22.4235 O   0  0  0  0  0  0  0  0  0  0  0  0
   12.2409  -17.9715   22.2036 C   0  0  0  0  0  0  0  0  0  0  0  0
   11.6175  -17.1622   21.0905 C   0  0  2  0  0  0  0  0  0  0  0  0
   10.1756  -17.1479   21.2960 N   0  0  0  0  0  0  0  0  0  0  0  0
   11.9665  -17.8062   19.7972 C   0  0  0  0  0  0  0  0  0  0  0  0
   13.2921  -17.9718   19.4241 O   0  0  0  0  0  0  0  0  0  0  0  0
   11.0961  -18.2237   18.9950 O   0  0  0  0  0  0  0  0  0  0  0  0
  2  1  1  0
  3  4  1  0
  3  2  1  0
  4  5  1  0
  5  7  1  0
  5  6  1  1
  7  8  2  0
  9 10  1  0
  9  7  1  0
 10 13  1  0
 10 11  1  6
 12 11  1  0
 13 14  2  0
 13 18  1  0
 16 15  1  0
 17 16  1  1
 18 17  1  0
 19 20  1  0
 19 17  1  0
 21 19  2  0
M  END
$$$$
