MCS.pdb
     RDKit          3D

 21 20  0  0  1  0  0  0  0  0999 V2000
    5.3517  -12.0171   26.8211 C   0  0  0  0  0  0  0  0  0  0  0  0
    7.0816  -12.4383   27.0465 S   0  0  0  0  0  0  0  0  0  0  0  0
    7.3324  -14.2055   27.3440 C   0  0  0  0  0  0  0  0  0  0  0  0
    8.0266  -14.8747   26.1620 C   0  0  0  0  0  0  0  0  0  0  0  0
    6.9620  -15.6438   25.4171 C   0  0  2  0  0  0  0  0  0  0  0  0
    6.7478  -16.8815   26.1380 N   0  0  0  0  0  0  0  0  0  0  0  0
    7.3046  -15.8691   23.9987 C   0  0  0  0  0  0  0  0  0  0  0  0
    7.6896  -17.0199   23.6644 O   0  0  0  0  0  0  0  0  0  0  0  0
    7.2386  -14.9058   22.9819 N   0  0  0  0  0  0  0  0  0  0  0  0
    7.8418  -15.0179   21.6759 C   0  0  1  0  0  0  0  0  0  0  0  0
    7.6883  -13.7908   20.8351 C   0  0  0  0  0  0  0  0  0  0  0  0
    8.3599  -14.1188   19.1658 S   0  0  0  0  0  0  0  0  0  0  0  0
    9.2832  -15.3617   21.7587 C   0  0  0  0  0  0  0  0  0  0  0  0
   10.1028  -14.6665   22.4272 O   0  0  0  0  0  0  0  0  0  0  0  0
   10.7168  -18.3603   22.9818 O   0  0  0  0  0  0  0  0  0  0  0  0
   11.2468  -18.2926   21.7019 C   0  0  0  0  0  0  0  0  0  0  0  0
   11.1749  -16.8964   21.1289 C   0  0  2  0  0  0  0  0  0  0  0  0
    9.7735  -16.5038   21.0716 N   0  0  0  0  0  0  0  0  0  0  0  0
   11.7790  -16.9207   19.7711 C   0  0  0  0  0  0  0  0  0  0  0  0
   11.0064  -16.6642   18.6481 O   0  0  0  0  0  0  0  0  0  0  0  0
   12.9939  -17.1695   19.5777 O   0  0  0  0  0  0  0  0  0  0  0  0
  2  1  1  0
  3  4  1  0
  3  2  1  0
  4  5  1  0
  5  7  1  0
  5  6  1  1
  7  8  2  0
  9 10  1  0
  9  7  1  0
 10 13  1  0
 10 11  1  1
 12 11  1  0
 13 14  2  0
 13 18  1  0
 16 15  1  0
 17 16  1  6
 18 17  1  0
 19 20  1  0
 19 17  1  0
 21 19  2  0
M  END
$$$$
