MCS.pdb
     RDKit          3D

 21 20  0  0  1  0  0  0  0  0999 V2000
    5.3505  -14.9544   17.4323 C   0  0  0  0  0  0  0  0  0  0  0  0
    6.7175  -14.2063   18.3226 S   0  0  0  0  0  0  0  0  0  0  0  0
    7.4796  -15.3431   19.5064 C   0  0  0  0  0  0  0  0  0  0  0  0
    8.6878  -14.7081   20.1875 C   0  0  0  0  0  0  0  0  0  0  0  0
    8.1592  -13.5702   21.0275 C   0  0  2  0  0  0  0  0  0  0  0  0
    8.7041  -12.3462   20.4776 N   0  0  0  0  0  0  0  0  0  0  0  0
    8.4641  -13.7284   22.4635 C   0  0  0  0  0  0  0  0  0  0  0  0
    9.6702  -13.6619   22.8174 O   0  0  0  0  0  0  0  0  0  0  0  0
    7.5204  -13.9480   23.4771 N   0  0  0  0  0  0  0  0  0  0  0  0
    7.8209  -14.2574   24.8540 C   0  0  1  0  0  0  0  0  0  0  0  0
    6.7430  -13.8560   25.8098 C   0  0  0  0  0  0  0  0  0  0  0  0
    6.3292  -12.0945   25.5429 S   0  0  0  0  0  0  0  0  0  0  0  0
    8.1160  -15.6991   25.0467 C   0  0  0  0  0  0  0  0  0  0  0  0
    7.3118  -16.6049   24.6792 O   0  0  0  0  0  0  0  0  0  0  0  0
   11.8585  -16.9649   25.0643 O   0  0  0  0  0  0  0  0  0  0  0  0
   10.8057  -17.8642   24.9834 C   0  0  0  0  0  0  0  0  0  0  0  0
    9.6647  -17.4890   25.9001 C   0  0  2  0  0  0  0  0  0  0  0  0
    9.3351  -16.0906   25.6611 N   0  0  0  0  0  0  0  0  0  0  0  0
   10.1077  -17.7013   27.3028 C   0  0  0  0  0  0  0  0  0  0  0  0
   10.4332  -18.9705   27.7579 O   0  0  0  0  0  0  0  0  0  0  0  0
   10.2072  -16.7611   28.1284 O   0  0  0  0  0  0  0  0  0  0  0  0
  2  1  1  0
  3  4  1  0
  3  2  1  0
  4  5  1  0
  5  7  1  0
  5  6  1  6
  7  8  2  0
  9 10  1  0
  9  7  1  0
 10 13  1  0
 10 11  1  1
 12 11  1  0
 13 14  2  0
 13 18  1  0
 16 15  1  0
 17 16  1  6
 18 17  1  0
 19 20  1  0
 19 17  1  0
 21 19  2  0
M  END
$$$$
