MCS.pdb
     RDKit          3D

 21 20  0  0  1  0  0  0  0  0999 V2000
    6.6080  -10.6628   25.7916 C   0  0  0  0  0  0  0  0  0  0  0  0
    5.8449  -12.0414   26.6508 S   0  0  0  0  0  0  0  0  0  0  0  0
    6.4894  -13.6417   26.1047 C   0  0  0  0  0  0  0  0  0  0  0  0
    7.1112  -13.5452   24.7150 C   0  0  0  0  0  0  0  0  0  0  0  0
    7.6575  -14.9153   24.3922 C   0  0  2  0  0  0  0  0  0  0  0  0
    6.6482  -15.8785   24.7806 N   0  0  0  0  0  0  0  0  0  0  0  0
    8.9626  -15.1769   25.0311 C   0  0  0  0  0  0  0  0  0  0  0  0
    9.9656  -14.5572   24.5904 O   0  0  0  0  0  0  0  0  0  0  0  0
    9.1856  -16.0625   26.0951 N   0  0  0  0  0  0  0  0  0  0  0  0
   10.4523  -16.2938   26.7462 C   0  0  1  0  0  0  0  0  0  0  0  0
   10.4155  -16.0820   28.2262 C   0  0  0  0  0  0  0  0  0  0  0  0
   10.1563  -14.3049   28.5723 S   0  0  0  0  0  0  0  0  0  0  0  0
   10.9760  -17.6552   26.4725 C   0  0  0  0  0  0  0  0  0  0  0  0
   10.3861  -18.6974   26.8824 O   0  0  0  0  0  0  0  0  0  0  0  0
   14.2298  -17.9068   23.9511 O   0  0  0  0  0  0  0  0  0  0  0  0
   13.3391  -18.9696   23.9764 C   0  0  0  0  0  0  0  0  0  0  0  0
   12.6688  -19.1188   25.3223 C   0  0  2  0  0  0  0  0  0  0  0  0
   12.1757  -17.8098   25.7283 N   0  0  0  0  0  0  0  0  0  0  0  0
   13.6754  -19.6335   26.2872 C   0  0  0  0  0  0  0  0  0  0  0  0
   14.0876  -18.8583   27.3610 O   0  0  0  0  0  0  0  0  0  0  0  0
   14.1917  -20.7725   26.1800 O   0  0  0  0  0  0  0  0  0  0  0  0
  2  1  1  0
  3  4  1  0
  3  2  1  0
  4  5  1  0
  5  7  1  0
  5  6  1  1
  7  8  2  0
  9 10  1  0
  9  7  1  0
 10 13  1  0
 10 11  1  1
 12 11  1  0
 13 14  2  0
 13 18  1  0
 16 15  1  0
 17 16  1  6
 18 17  1  0
 19 20  1  0
 19 17  1  0
 21 19  2  0
M  END
$$$$
