MCS.pdb
     RDKit          3D

 21 20  0  0  1  0  0  0  0  0999 V2000
    6.7098  -11.7368   27.0973 C   0  0  0  0  0  0  0  0  0  0  0  0
    5.5201  -12.5271   26.0106 S   0  0  0  0  0  0  0  0  0  0  0  0
    5.9631  -14.2385   25.6241 C   0  0  0  0  0  0  0  0  0  0  0  0
    7.0922  -14.3023   24.6004 C   0  0  0  0  0  0  0  0  0  0  0  0
    7.7428  -15.6553   24.7613 C   0  0  2  0  0  0  0  0  0  0  0  0
    6.8562  -16.4598   25.5763 N   0  0  0  0  0  0  0  0  0  0  0  0
    9.1057  -15.5725   25.3232 C   0  0  0  0  0  0  0  0  0  0  0  0
    9.9980  -15.0319   24.6191 O   0  0  0  0  0  0  0  0  0  0  0  0
    9.4975  -16.0470   26.5832 N   0  0  0  0  0  0  0  0  0  0  0  0
   10.8492  -16.0805   27.0868 C   0  0  1  0  0  0  0  0  0  0  0  0
   10.9947  -15.5017   28.4581 C   0  0  0  0  0  0  0  0  0  0  0  0
    9.9555  -14.0025   28.5904 S   0  0  0  0  0  0  0  0  0  0  0  0
   11.4063  -17.4561   27.0886 C   0  0  0  0  0  0  0  0  0  0  0  0
   11.1181  -18.2969   27.9898 O   0  0  0  0  0  0  0  0  0  0  0  0
   11.1220  -19.7855   24.3682 O   0  0  0  0  0  0  0  0  0  0  0  0
   12.4886  -19.7616   24.6039 C   0  0  0  0  0  0  0  0  0  0  0  0
   12.8210  -19.2112   25.9712 C   0  0  2  0  0  0  0  0  0  0  0  0
   12.2919  -17.8567   26.0532 N   0  0  0  0  0  0  0  0  0  0  0  0
   14.2991  -19.2177   26.1269 C   0  0  0  0  0  0  0  0  0  0  0  0
   15.0012  -20.4133   26.1688 O   0  0  0  0  0  0  0  0  0  0  0  0
   14.9716  -18.1626   26.2262 O   0  0  0  0  0  0  0  0  0  0  0  0
  2  1  1  0
  3  4  1  0
  3  2  1  0
  4  5  1  0
  5  7  1  0
  5  6  1  1
  7  8  2  0
  9 10  1  0
  9  7  1  0
 10 13  1  0
 10 11  1  1
 12 11  1  0
 13 14  2  0
 13 18  1  0
 16 15  1  0
 17 16  1  6
 18 17  1  0
 19 20  1  0
 19 17  1  0
 21 19  2  0
M  END
$$$$
