MCS.pdb
     RDKit          3D

 21 20  0  0  1  0  0  0  0  0999 V2000
    6.2630  -11.3986   26.1488 C   0  0  0  0  0  0  0  0  0  0  0  0
    5.7101  -12.9789   26.7954 S   0  0  0  0  0  0  0  0  0  0  0  0
    6.5818  -14.3776   26.0482 C   0  0  0  0  0  0  0  0  0  0  0  0
    7.2207  -13.9879   24.7190 C   0  0  0  0  0  0  0  0  0  0  0  0
    7.8186  -15.2491   24.1431 C   0  0  2  0  0  0  0  0  0  0  0  0
    6.7620  -16.2385   24.0963 N   0  0  0  0  0  0  0  0  0  0  0  0
    8.9988  -15.7192   24.8956 C   0  0  0  0  0  0  0  0  0  0  0  0
    9.5071  -16.8208   24.5603 O   0  0  0  0  0  0  0  0  0  0  0  0
    9.6089  -15.0409   25.9605 N   0  0  0  0  0  0  0  0  0  0  0  0
   10.8262  -15.4392   26.6248 C   0  0  1  0  0  0  0  0  0  0  0  0
   11.2493  -14.5069   27.7150 C   0  0  0  0  0  0  0  0  0  0  0  0
    9.8231  -14.1797   28.8123 S   0  0  0  0  0  0  0  0  0  0  0  0
   10.7304  -16.8115   27.1818 C   0  0  0  0  0  0  0  0  0  0  0  0
    9.8611  -17.1271   28.0460 O   0  0  0  0  0  0  0  0  0  0  0  0
   12.6355  -19.7260   25.1736 O   0  0  0  0  0  0  0  0  0  0  0  0
   11.7006  -20.1308   26.1147 C   0  0  0  0  0  0  0  0  0  0  0  0
   11.6073  -19.1680   27.2753 C   0  0  2  0  0  0  0  0  0  0  0  0
   11.6355  -17.8133   26.7411 N   0  0  0  0  0  0  0  0  0  0  0  0
   12.7653  -19.4119   28.1746 C   0  0  0  0  0  0  0  0  0  0  0  0
   12.9112  -20.6273   28.8268 O   0  0  0  0  0  0  0  0  0  0  0  0
   13.6507  -18.5473   28.3838 O   0  0  0  0  0  0  0  0  0  0  0  0
  2  1  1  0
  3  4  1  0
  3  2  1  0
  4  5  1  0
  5  7  1  0
  5  6  1  1
  7  8  2  0
  9 10  1  0
  9  7  1  0
 10 13  1  0
 10 11  1  1
 12 11  1  0
 13 14  2  0
 13 18  1  0
 16 15  1  0
 17 16  1  6
 18 17  1  0
 19 20  1  0
 19 17  1  0
 21 19  2  0
M  END
$$$$
