MCS.pdb
     RDKit          3D

 21 20  0  0  1  0  0  0  0  0999 V2000
    7.2204  -11.4105   26.8945 C   0  0  0  0  0  0  0  0  0  0  0  0
    6.1797  -12.6173   27.7201 S   0  0  0  0  0  0  0  0  0  0  0  0
    5.8536  -14.0709   26.6927 C   0  0  0  0  0  0  0  0  0  0  0  0
    7.1102  -14.5232   25.9555 C   0  0  0  0  0  0  0  0  0  0  0  0
    6.7160  -15.7253   25.1313 C   0  0  2  0  0  0  0  0  0  0  0  0
    6.4657  -16.8118   26.0556 N   0  0  0  0  0  0  0  0  0  0  0  0
    7.7230  -16.0745   24.1095 C   0  0  0  0  0  0  0  0  0  0  0  0
    8.4603  -17.0707   24.3296 O   0  0  0  0  0  0  0  0  0  0  0  0
    7.9327  -15.3884   22.9047 N   0  0  0  0  0  0  0  0  0  0  0  0
    8.8695  -15.7649   21.8739 C   0  0  1  0  0  0  0  0  0  0  0  0
    8.8609  -14.8509   20.6903 C   0  0  0  0  0  0  0  0  0  0  0  0
    7.1461  -14.6771   20.0782 S   0  0  0  0  0  0  0  0  0  0  0  0
   10.2567  -15.8594   22.3930 C   0  0  0  0  0  0  0  0  0  0  0  0
   10.8495  -14.8683   22.9113 O   0  0  0  0  0  0  0  0  0  0  0  0
   11.7717  -19.5930   22.6214 O   0  0  0  0  0  0  0  0  0  0  0  0
   12.4098  -18.6528   23.4167 C   0  0  0  0  0  0  0  0  0  0  0  0
   12.2986  -17.2570   22.8488 C   0  0  2  0  0  0  0  0  0  0  0  0
   10.9541  -17.0939   22.3128 N   0  0  0  0  0  0  0  0  0  0  0  0
   13.3213  -17.1080   21.7807 C   0  0  0  0  0  0  0  0  0  0  0  0
   14.6739  -17.1577   22.0840 O   0  0  0  0  0  0  0  0  0  0  0  0
   13.0174  -16.9333   20.5755 O   0  0  0  0  0  0  0  0  0  0  0  0
  2  1  1  0
  3  4  1  0
  3  2  1  0
  4  5  1  0
  5  7  1  0
  5  6  1  1
  7  8  2  0
  9 10  1  0
  9  7  1  0
 10 13  1  0
 10 11  1  6
 12 11  1  0
 13 14  2  0
 13 18  1  0
 16 15  1  0
 17 16  1  6
 18 17  1  0
 19 20  1  0
 19 17  1  0
 21 19  2  0
M  END
$$$$
