MCS.pdb
     RDKit          3D

 21 20  0  0  1  0  0  0  0  0999 V2000
    6.7774  -11.1065   26.5758 C   0  0  0  0  0  0  0  0  0  0  0  0
    6.5085  -12.3984   27.7923 S   0  0  0  0  0  0  0  0  0  0  0  0
    6.1773  -14.0076   27.0338 C   0  0  0  0  0  0  0  0  0  0  0  0
    7.3138  -14.4297   26.1080 C   0  0  0  0  0  0  0  0  0  0  0  0
    6.8393  -15.6642   25.3796 C   0  0  2  0  0  0  0  0  0  0  0  0
    6.7127  -16.7179   26.3651 N   0  0  0  0  0  0  0  0  0  0  0  0
    7.7225  -16.0431   24.2587 C   0  0  0  0  0  0  0  0  0  0  0  0
    8.3646  -17.1212   24.3572 O   0  0  0  0  0  0  0  0  0  0  0  0
    7.9110  -15.3016   23.0837 N   0  0  0  0  0  0  0  0  0  0  0  0
    8.7853  -15.6603   21.9934 C   0  0  1  0  0  0  0  0  0  0  0  0
    8.5828  -14.8343   20.7632 C   0  0  0  0  0  0  0  0  0  0  0  0
    6.8259  -14.9233   20.2626 S   0  0  0  0  0  0  0  0  0  0  0  0
   10.2155  -15.5911   22.3837 C   0  0  0  0  0  0  0  0  0  0  0  0
   10.6116  -14.8973   23.3655 O   0  0  0  0  0  0  0  0  0  0  0  0
   11.8981  -18.5102   23.2535 O   0  0  0  0  0  0  0  0  0  0  0  0
   12.5011  -17.2711   23.4099 C   0  0  0  0  0  0  0  0  0  0  0  0
   12.5488  -16.4935   22.1153 C   0  0  2  0  0  0  0  0  0  0  0  0
   11.1822  -16.3209   21.6421 N   0  0  0  0  0  0  0  0  0  0  0  0
   13.3585  -17.2679   21.1388 C   0  0  0  0  0  0  0  0  0  0  0  0
   14.7192  -17.4519   21.3356 O   0  0  0  0  0  0  0  0  0  0  0  0
   12.8608  -17.7834   20.1083 O   0  0  0  0  0  0  0  0  0  0  0  0
  2  1  1  0
  3  4  1  0
  3  2  1  0
  4  5  1  0
  5  7  1  0
  5  6  1  1
  7  8  2  0
  9 10  1  0
  9  7  1  0
 10 13  1  0
 10 11  1  6
 12 11  1  0
 13 14  2  0
 13 18  1  0
 16 15  1  0
 17 16  1  1
 18 17  1  0
 19 20  1  0
 19 17  1  0
 21 19  2  0
M  END
$$$$
