MCS.pdb
     RDKit          3D

 21 20  0  0  1  0  0  0  0  0999 V2000
    7.1468  -11.6455   21.0508 C   0  0  0  0  0  0  0  0  0  0  0  0
    7.7475  -12.3329   19.5056 S   0  0  0  0  0  0  0  0  0  0  0  0
    8.3428  -14.0321   19.6871 C   0  0  0  0  0  0  0  0  0  0  0  0
    8.2432  -14.5040   21.1343 C   0  0  0  0  0  0  0  0  0  0  0  0
    8.6925  -15.9454   21.1485 C   0  0  2  0  0  0  0  0  0  0  0  0
    7.6905  -16.7109   20.4361 N   0  0  0  0  0  0  0  0  0  0  0  0
    8.9298  -16.4581   22.5127 C   0  0  0  0  0  0  0  0  0  0  0  0
    7.9250  -16.6933   23.2334 O   0  0  0  0  0  0  0  0  0  0  0  0
   10.1867  -16.7084   23.0816 N   0  0  0  0  0  0  0  0  0  0  0  0
   10.4261  -17.1358   24.4387 C   0  0  1  0  0  0  0  0  0  0  0  0
   11.5053  -18.1634   24.5643 C   0  0  0  0  0  0  0  0  0  0  0  0
   10.9353  -19.7283   23.8083 S   0  0  0  0  0  0  0  0  0  0  0  0
   10.7490  -15.9943   25.3306 C   0  0  0  0  0  0  0  0  0  0  0  0
   11.2116  -14.9034   24.8856 O   0  0  0  0  0  0  0  0  0  0  0  0
    8.6135  -14.2514   27.4190 O   0  0  0  0  0  0  0  0  0  0  0  0
    9.9488  -13.8787   27.3797 C   0  0  0  0  0  0  0  0  0  0  0  0
   10.8730  -15.0416   27.6561 C   0  0  2  0  0  0  0  0  0  0  0  0
   10.5375  -16.1145   26.7298 N   0  0  0  0  0  0  0  0  0  0  0  0
   10.6713  -15.4696   29.0650 C   0  0  0  0  0  0  0  0  0  0  0  0
   10.9396  -14.6022   30.1136 O   0  0  0  0  0  0  0  0  0  0  0  0
   10.2564  -16.6144   29.3694 O   0  0  0  0  0  0  0  0  0  0  0  0
  2  1  1  0
  3  4  1  0
  3  2  1  0
  4  5  1  0
  5  7  1  0
  5  6  1  1
  7  8  2  0
  9 10  1  0
  9  7  1  0
 10 13  1  0
 10 11  1  6
 12 11  1  0
 13 14  2  0
 13 18  1  0
 16 15  1  0
 17 16  1  6
 18 17  1  0
 19 20  1  0
 19 17  1  0
 21 19  2  0
M  END
$$$$
