MCS.pdb
     RDKit          3D

 21 20  0  0  1  0  0  0  0  0999 V2000
    7.8210  -12.6025   17.8543 C   0  0  0  0  0  0  0  0  0  0  0  0
    7.5525  -12.1293   19.5646 S   0  0  0  0  0  0  0  0  0  0  0  0
    7.4890  -13.5549   20.6772 C   0  0  0  0  0  0  0  0  0  0  0  0
    8.7329  -14.4264   20.5349 C   0  0  0  0  0  0  0  0  0  0  0  0
    8.4899  -15.6621   21.3680 C   0  0  2  0  0  0  0  0  0  0  0  0
    7.1091  -16.0484   21.1639 N   0  0  0  0  0  0  0  0  0  0  0  0
    8.8156  -15.4646   22.7945 C   0  0  0  0  0  0  0  0  0  0  0  0
   10.0195  -15.2572   23.0975 O   0  0  0  0  0  0  0  0  0  0  0  0
    7.8941  -15.4877   23.8511 N   0  0  0  0  0  0  0  0  0  0  0  0
    8.2194  -15.3938   25.2537 C   0  0  1  0  0  0  0  0  0  0  0  0
    7.1122  -14.8390   26.0921 C   0  0  0  0  0  0  0  0  0  0  0  0
    6.4794  -13.3089   25.3153 S   0  0  0  0  0  0  0  0  0  0  0  0
    8.6326  -16.7036   25.8160 C   0  0  0  0  0  0  0  0  0  0  0  0
    7.8161  -17.6594   25.9640 O   0  0  0  0  0  0  0  0  0  0  0  0
   12.2039  -19.7969   26.0876 O   0  0  0  0  0  0  0  0  0  0  0  0
   11.6859  -18.5469   25.7828 C   0  0  0  0  0  0  0  0  0  0  0  0
   10.4780  -18.2102   26.6256 C   0  0  2  0  0  0  0  0  0  0  0  0
    9.9834  -16.9065   26.2048 N   0  0  0  0  0  0  0  0  0  0  0  0
   10.8987  -18.1875   28.0509 C   0  0  0  0  0  0  0  0  0  0  0  0
   10.8796  -17.0050   28.7757 O   0  0  0  0  0  0  0  0  0  0  0  0
   11.2843  -19.2168   28.6569 O   0  0  0  0  0  0  0  0  0  0  0  0
  2  1  1  0
  3  4  1  0
  3  2  1  0
  4  5  1  0
  5  7  1  0
  5  6  1  1
  7  8  2  0
  9 10  1  0
  9  7  1  0
 10 13  1  0
 10 11  1  1
 12 11  1  0
 13 14  2  0
 13 18  1  0
 16 15  1  0
 17 16  1  6
 18 17  1  0
 19 20  1  0
 19 17  1  0
 21 19  2  0
M  END
$$$$
