SVR.pdb
     RDKit          3D

 25 24  0  0  1  0  0  0  0  0999 V2000
    7.2042  -16.5485   22.1116 O   0  0  0  0  0  0  0  0  0  0  0  0
    6.3153  -15.6940   21.4265 C   0  0  0  0  0  0  0  0  0  0  0  0
    6.8752  -14.2812   21.4311 C   0  0  2  0  0  0  0  0  0  0  0  0
    7.7221  -14.1510   20.2647 N   0  0  0  0  0  0  0  0  0  0  0  0
    7.6356  -14.1012   22.6954 C   0  0  0  0  0  0  0  0  0  0  0  0
    8.8579  -14.3172   22.6678 O   0  0  0  0  0  0  0  0  0  0  0  0
    7.6927  -12.4798   27.4438 C   0  0  0  0  0  0  0  0  0  0  0  0
    6.9541  -12.6421   26.1432 C   0  0  1  0  0  0  0  0  0  0  0  0
    6.4653  -11.3370   25.5835 C   0  0  0  0  0  0  0  0  0  0  0  0
    7.7460  -13.4591   25.1417 C   0  0  2  0  0  0  0  0  0  0  0  0
    7.0470  -13.6997   23.9213 N   0  0  0  0  0  0  0  0  0  0  0  0
    8.1494  -14.7505   25.7567 C   0  0  0  0  0  0  0  0  0  0  0  0
    7.2809  -15.6425   26.0470 O   0  0  0  0  0  0  0  0  0  0  0  0
   11.4763  -22.5003   25.6430 N   0  0  0  0  0  0  0  0  0  0  0  0
   11.3445  -21.6045   26.7320 C   0  0  0  0  0  0  0  0  0  0  0  0
   11.7065  -22.0023   27.8975 N   0  0  0  0  0  0  0  0  0  0  0  0
   10.8271  -20.2885   26.5686 N   0  0  0  0  0  0  0  0  0  0  0  0
   11.4450  -19.3578   25.6531 C   0  0  0  0  0  0  0  0  0  0  0  0
   11.7903  -18.0433   26.2657 C   0  0  0  0  0  0  0  0  0  0  0  0
   11.0854  -16.8276   25.8200 C   0  0  0  0  0  0  0  0  0  0  0  0
    9.9448  -16.3180   26.6228 C   0  0  2  0  0  0  0  0  0  0  0  0
    9.5152  -15.0246   26.0369 N   0  0  0  0  0  0  0  0  0  0  0  0
   10.2781  -16.0852   28.0254 C   0  0  0  0  0  0  0  0  0  0  0  0
   10.1724  -17.0616   28.9932 O   0  0  0  0  0  0  0  0  0  0  0  0
   10.6886  -14.9464   28.4396 O   0  0  0  0  0  0  0  0  0  0  0  0
  1  2  1  0
  2  3  1  0
  3  4  1  6
  3  5  1  0
  5 11  1  0
  5  6  2  0
  8  7  1  1
  9  8  1  0
 10  8  1  0
 10 12  1  0
 10 11  1  6
 12 13  2  0
 15 17  1  0
 15 14  1  0
 16 15  2  0
 18 17  1  0
 19 18  1  0
 19 20  1  0
 21 20  1  6
 21 23  1  0
 22 21  1  0
 22 12  1  0
 23 25  2  0
 23 24  1  0
M  END
$$$$
