SVR.pdb
     RDKit          3D

 25 24  0  0  1  0  0  0  0  0999 V2000
    9.2769  -19.3927   16.8155 O   0  0  0  0  0  0  0  0  0  0  0  0
    9.6377  -18.6220   17.9404 C   0  0  0  0  0  0  0  0  0  0  0  0
    9.8564  -17.1808   17.5108 C   0  0  2  0  0  0  0  0  0  0  0  0
   11.1064  -17.1346   16.7828 N   0  0  0  0  0  0  0  0  0  0  0  0
    9.8949  -16.3446   18.7390 C   0  0  0  0  0  0  0  0  0  0  0  0
   10.9754  -16.2610   19.3448 O   0  0  0  0  0  0  0  0  0  0  0  0
    7.4794  -13.2298   21.8577 C   0  0  0  0  0  0  0  0  0  0  0  0
    7.5193  -13.9650   20.5457 C   0  0  1  0  0  0  0  0  0  0  0  0
    7.2709  -13.0682   19.3669 C   0  0  0  0  0  0  0  0  0  0  0  0
    8.7769  -14.7992   20.4034 C   0  0  2  0  0  0  0  0  0  0  0  0
    8.7752  -15.6428   19.2527 N   0  0  0  0  0  0  0  0  0  0  0  0
    8.9773  -15.6155   21.6289 C   0  0  0  0  0  0  0  0  0  0  0  0
    8.3137  -16.6912   21.8207 O   0  0  0  0  0  0  0  0  0  0  0  0
   15.9017  -16.2756   20.8811 N   0  0  0  0  0  0  0  0  0  0  0  0
   15.5458  -16.3899   22.2471 C   0  0  0  0  0  0  0  0  0  0  0  0
   16.0626  -15.5653   23.0841 N   0  0  0  0  0  0  0  0  0  0  0  0
   14.6391  -17.3847   22.7102 N   0  0  0  0  0  0  0  0  0  0  0  0
   13.2394  -17.3333   22.3576 C   0  0  0  0  0  0  0  0  0  0  0  0
   12.3166  -17.3967   23.5268 C   0  0  0  0  0  0  0  0  0  0  0  0
   11.6438  -16.1686   23.9875 C   0  0  0  0  0  0  0  0  0  0  0  0
   10.1730  -16.0451   23.8236 C   0  0  2  0  0  0  0  0  0  0  0  0
    9.9152  -15.2177   22.6196 N   0  0  0  0  0  0  0  0  0  0  0  0
    9.5128  -15.4036   24.9572 C   0  0  0  0  0  0  0  0  0  0  0  0
    9.1998  -16.0745   26.1204 O   0  0  0  0  0  0  0  0  0  0  0  0
    9.1807  -14.1682   24.9318 O   0  0  0  0  0  0  0  0  0  0  0  0
  1  2  1  0
  2  3  1  0
  3  4  1  1
  3  5  1  0
  5 11  1  0
  5  6  2  0
  8  7  1  1
  9  8  1  0
 10  8  1  0
 10 12  1  0
 10 11  1  6
 12 13  2  0
 15 17  1  0
 15 14  1  0
 16 15  2  0
 18 17  1  0
 19 18  1  0
 19 20  1  0
 21 20  1  1
 21 23  1  0
 22 21  1  0
 22 12  1  0
 23 25  2  0
 23 24  1  0
M  END
$$$$
