SVR.pdb
     RDKit          3D

 25 24  0  0  1  0  0  0  0  0999 V2000
    6.4916  -17.0404   20.8007 O   0  0  0  0  0  0  0  0  0  0  0  0
    7.1899  -16.4949   21.8982 C   0  0  0  0  0  0  0  0  0  0  0  0
    7.1685  -14.9784   21.8016 C   0  0  2  0  0  0  0  0  0  0  0  0
    7.8816  -14.6147   20.5959 N   0  0  0  0  0  0  0  0  0  0  0  0
    7.8242  -14.4392   23.0217 C   0  0  0  0  0  0  0  0  0  0  0  0
    9.0624  -14.3477   23.0171 O   0  0  0  0  0  0  0  0  0  0  0  0
    7.4056  -12.5617   27.6559 C   0  0  0  0  0  0  0  0  0  0  0  0
    6.7962  -12.8253   26.3059 C   0  0  1  0  0  0  0  0  0  0  0  0
    6.3080  -11.5748   25.6324 C   0  0  0  0  0  0  0  0  0  0  0  0
    7.7090  -13.6565   25.4264 C   0  0  2  0  0  0  0  0  0  0  0  0
    7.1196  -14.0269   24.1809 N   0  0  0  0  0  0  0  0  0  0  0  0
    8.1419  -14.8726   26.1627 C   0  0  0  0  0  0  0  0  0  0  0  0
    7.2973  -15.7637   26.5190 O   0  0  0  0  0  0  0  0  0  0  0  0
   11.3227  -18.6958   20.9849 N   0  0  0  0  0  0  0  0  0  0  0  0
   11.4764  -18.6030   22.3897 C   0  0  0  0  0  0  0  0  0  0  0  0
   10.8083  -19.4093   23.1320 N   0  0  0  0  0  0  0  0  0  0  0  0
   12.3441  -17.6492   22.9926 N   0  0  0  0  0  0  0  0  0  0  0  0
   12.4473  -17.5456   24.4295 C   0  0  0  0  0  0  0  0  0  0  0  0
   11.2002  -17.0714   25.0946 C   0  0  0  0  0  0  0  0  0  0  0  0
   11.2200  -16.7588   26.5351 C   0  0  0  0  0  0  0  0  0  0  0  0
    9.9708  -16.2964   27.1918 C   0  0  2  0  0  0  0  0  0  0  0  0
    9.5103  -15.0740   26.4886 N   0  0  0  0  0  0  0  0  0  0  0  0
   10.1441  -15.9625   28.6028 C   0  0  0  0  0  0  0  0  0  0  0  0
   10.2526  -16.9174   29.5914 O   0  0  0  0  0  0  0  0  0  0  0  0
   10.2019  -14.7493   29.0052 O   0  0  0  0  0  0  0  0  0  0  0  0
  1  2  1  0
  2  3  1  0
  3  4  1  6
  3  5  1  0
  5 11  1  0
  5  6  2  0
  8  7  1  1
  9  8  1  0
 10  8  1  0
 10 12  1  0
 10 11  1  6
 12 13  2  0
 15 17  1  0
 15 14  1  0
 16 15  2  0
 18 17  1  0
 19 18  1  0
 19 20  1  0
 21 20  1  6
 21 23  1  0
 22 21  1  0
 22 12  1  0
 23 25  2  0
 23 24  1  0
M  END
$$$$
