SVR.pdb
     RDKit          3D

 25 24  0  0  1  0  0  0  0  0999 V2000
    7.9013  -18.0683   14.8143 O   0  0  0  0  0  0  0  0  0  0  0  0
    8.8225  -17.2764   15.5312 C   0  0  0  0  0  0  0  0  0  0  0  0
    8.3343  -15.8374   15.5545 C   0  0  2  0  0  0  0  0  0  0  0  0
    8.7406  -15.2258   14.3073 N   0  0  0  0  0  0  0  0  0  0  0  0
    8.9519  -15.1702   16.7302 C   0  0  0  0  0  0  0  0  0  0  0  0
   10.1377  -14.8150   16.6334 O   0  0  0  0  0  0  0  0  0  0  0  0
    8.4006  -13.1913   21.3089 C   0  0  0  0  0  0  0  0  0  0  0  0
    7.7777  -13.7603   20.0633 C   0  0  1  0  0  0  0  0  0  0  0  0
    6.8015  -12.8193   19.4174 C   0  0  0  0  0  0  0  0  0  0  0  0
    8.8220  -14.2873   19.0993 C   0  0  2  0  0  0  0  0  0  0  0  0
    8.2675  -14.9189   17.9463 N   0  0  0  0  0  0  0  0  0  0  0  0
    9.7260  -15.2307   19.8074 C   0  0  0  0  0  0  0  0  0  0  0  0
    9.3279  -16.3977   20.1450 O   0  0  0  0  0  0  0  0  0  0  0  0
   17.5939  -13.3034   18.1421 N   0  0  0  0  0  0  0  0  0  0  0  0
   17.3628  -14.0362   19.3317 C   0  0  0  0  0  0  0  0  0  0  0  0
   18.3182  -14.1362   20.1830 N   0  0  0  0  0  0  0  0  0  0  0  0
   16.1114  -14.6574   19.6046 N   0  0  0  0  0  0  0  0  0  0  0  0
   14.9857  -14.4772   18.7178 C   0  0  0  0  0  0  0  0  0  0  0  0
   13.7894  -15.2882   19.0835 C   0  0  0  0  0  0  0  0  0  0  0  0
   13.3742  -15.3726   20.4955 C   0  0  0  0  0  0  0  0  0  0  0  0
   11.9848  -15.7869   20.8169 C   0  0  2  0  0  0  0  0  0  0  0  0
   11.0590  -14.8558   20.1265 N   0  0  0  0  0  0  0  0  0  0  0  0
   11.6801  -15.7443   22.2444 C   0  0  0  0  0  0  0  0  0  0  0  0
   12.1586  -16.6758   23.1414 O   0  0  0  0  0  0  0  0  0  0  0  0
   10.9396  -14.8302   22.7477 O   0  0  0  0  0  0  0  0  0  0  0  0
  1  2  1  0
  2  3  1  0
  3  4  1  6
  3  5  1  0
  5 11  1  0
  5  6  2  0
  8  7  1  1
  9  8  1  0
 10  8  1  0
 10 12  1  0
 10 11  1  6
 12 13  2  0
 15 17  1  0
 15 14  1  0
 16 15  2  0
 18 17  1  0
 19 18  1  0
 19 20  1  0
 21 20  1  1
 21 23  1  0
 22 21  1  0
 22 12  1  0
 23 25  2  0
 23 24  1  0
M  END
$$$$
