SVR.pdb
     RDKit          3D

 25 24  0  0  1  0  0  0  0  0999 V2000
    7.6506  -15.8011   20.8287 O   0  0  0  0  0  0  0  0  0  0  0  0
    6.5440  -14.9319   20.7302 C   0  0  0  0  0  0  0  0  0  0  0  0
    6.9955  -13.5110   21.0247 C   0  0  2  0  0  0  0  0  0  0  0  0
    7.9434  -13.1397   19.9960 N   0  0  0  0  0  0  0  0  0  0  0  0
    7.6098  -13.5039   22.3781 C   0  0  0  0  0  0  0  0  0  0  0  0
    8.8482  -13.5576   22.4484 O   0  0  0  0  0  0  0  0  0  0  0  0
    7.0049  -13.0054   27.3391 C   0  0  0  0  0  0  0  0  0  0  0  0
    6.4049  -12.9873   25.9597 C   0  0  1  0  0  0  0  0  0  0  0  0
    5.6935  -11.7013   25.6501 C   0  0  0  0  0  0  0  0  0  0  0  0
    7.4147  -13.3782   24.8989 C   0  0  2  0  0  0  0  0  0  0  0  0
    6.8658  -13.4399   23.5834 N   0  0  0  0  0  0  0  0  0  0  0  0
    8.0311  -14.6836   25.2517 C   0  0  0  0  0  0  0  0  0  0  0  0
    7.3763  -15.7753   25.1344 O   0  0  0  0  0  0  0  0  0  0  0  0
   16.4043  -16.1483   23.9410 N   0  0  0  0  0  0  0  0  0  0  0  0
   15.2410  -16.1265   23.1336 C   0  0  0  0  0  0  0  0  0  0  0  0
   15.3531  -15.7531   21.9106 N   0  0  0  0  0  0  0  0  0  0  0  0
   13.9648  -16.5048   23.6380 N   0  0  0  0  0  0  0  0  0  0  0  0
   13.7877  -16.8357   25.0327 C   0  0  0  0  0  0  0  0  0  0  0  0
   12.3660  -17.0409   25.4317 C   0  0  0  0  0  0  0  0  0  0  0  0
   11.3994  -15.9405   25.2646 C   0  0  0  0  0  0  0  0  0  0  0  0
   10.0667  -16.0445   25.9114 C   0  0  2  0  0  0  0  0  0  0  0  0
    9.3679  -14.7487   25.7292 N   0  0  0  0  0  0  0  0  0  0  0  0
   10.1347  -16.3186   27.3441 C   0  0  0  0  0  0  0  0  0  0  0  0
   10.4722  -17.5536   27.8560 O   0  0  0  0  0  0  0  0  0  0  0  0
    9.8781  -15.4170   28.2149 O   0  0  0  0  0  0  0  0  0  0  0  0
  1  2  1  0
  2  3  1  0
  3  4  1  6
  3  5  1  0
  5 11  1  0
  5  6  2  0
  8  7  1  1
  9  8  1  0
 10  8  1  0
 10 12  1  0
 10 11  1  6
 12 13  2  0
 15 17  1  0
 15 14  1  0
 16 15  2  0
 18 17  1  0
 19 18  1  0
 19 20  1  0
 21 20  1  1
 21 23  1  0
 22 21  1  0
 22 12  1  0
 23 25  2  0
 23 24  1  0
M  END
$$$$
