SVR.pdb
     RDKit          3D

 25 24  0  0  1  0  0  0  0  0999 V2000
    6.0990  -14.5805   19.5519 O   0  0  0  0  0  0  0  0  0  0  0  0
    7.0004  -14.5789   20.6368 C   0  0  0  0  0  0  0  0  0  0  0  0
    7.1181  -13.1677   21.1882 C   0  0  2  0  0  0  0  0  0  0  0  0
    7.8066  -12.3738   20.1932 N   0  0  0  0  0  0  0  0  0  0  0  0
    7.8767  -13.2433   22.4641 C   0  0  0  0  0  0  0  0  0  0  0  0
    9.1121  -13.3459   22.3940 O   0  0  0  0  0  0  0  0  0  0  0  0
    7.3788  -11.1159   26.0132 C   0  0  0  0  0  0  0  0  0  0  0  0
    7.2637  -12.6109   26.1360 C   0  0  1  0  0  0  0  0  0  0  0  0
    5.8502  -13.0713   26.3496 C   0  0  0  0  0  0  0  0  0  0  0  0
    7.9557  -13.3268   24.9930 C   0  0  2  0  0  0  0  0  0  0  0  0
    7.2726  -13.2052   23.7463 N   0  0  0  0  0  0  0  0  0  0  0  0
    8.1323  -14.7621   25.3352 C   0  0  0  0  0  0  0  0  0  0  0  0
    7.1320  -15.5566   25.3837 O   0  0  0  0  0  0  0  0  0  0  0  0
   13.1777  -18.9901   21.1841 N   0  0  0  0  0  0  0  0  0  0  0  0
   13.0619  -20.0860   22.0736 C   0  0  0  0  0  0  0  0  0  0  0  0
   13.1220  -21.2738   21.5907 N   0  0  0  0  0  0  0  0  0  0  0  0
   12.8832  -19.9057   23.4742 N   0  0  0  0  0  0  0  0  0  0  0  0
   12.7554  -18.5833   24.0408 C   0  0  0  0  0  0  0  0  0  0  0  0
   11.4695  -18.3527   24.7590 C   0  0  0  0  0  0  0  0  0  0  0  0
   10.8883  -16.9983   24.7896 C   0  0  0  0  0  0  0  0  0  0  0  0
    9.6847  -16.7467   25.6223 C   0  0  2  0  0  0  0  0  0  0  0  0
    9.4225  -15.2866   25.6174 N   0  0  0  0  0  0  0  0  0  0  0  0
    9.8394  -17.1689   27.0116 C   0  0  0  0  0  0  0  0  0  0  0  0
   10.0235  -16.2799   28.0493 O   0  0  0  0  0  0  0  0  0  0  0  0
    9.8159  -18.4036   27.3466 O   0  0  0  0  0  0  0  0  0  0  0  0
  1  2  1  0
  2  3  1  0
  3  4  1  6
  3  5  1  0
  5 11  1  0
  5  6  2  0
  8  7  1  6
  9  8  1  0
 10  8  1  0
 10 12  1  0
 10 11  1  6
 12 13  2  0
 15 17  1  0
 15 14  1  0
 16 15  2  0
 18 17  1  0
 19 18  1  0
 19 20  1  0
 21 20  1  6
 21 23  1  0
 22 21  1  0
 22 12  1  0
 23 25  2  0
 23 24  1  0
M  END
$$$$
