SVR.pdb
     RDKit          3D

 25 24  0  0  1  0  0  0  0  0999 V2000
    6.1753  -18.6742   16.9448 O   0  0  0  0  0  0  0  0  0  0  0  0
    7.0393  -18.1538   17.9309 C   0  0  0  0  0  0  0  0  0  0  0  0
    7.7347  -16.9174   17.3855 C   0  0  2  0  0  0  0  0  0  0  0  0
    8.5553  -17.3424   16.2717 N   0  0  0  0  0  0  0  0  0  0  0  0
    8.5461  -16.3338   18.4855 C   0  0  0  0  0  0  0  0  0  0  0  0
    9.7137  -16.7358   18.6153 O   0  0  0  0  0  0  0  0  0  0  0  0
    8.2479  -12.3983   19.8504 C   0  0  0  0  0  0  0  0  0  0  0  0
    8.2379  -13.4425   20.9334 C   0  0  1  0  0  0  0  0  0  0  0  0
    6.8957  -13.5872   21.5915 C   0  0  0  0  0  0  0  0  0  0  0  0
    8.8092  -14.7614   20.4520 C   0  0  2  0  0  0  0  0  0  0  0  0
    8.0646  -15.3515   19.3874 N   0  0  0  0  0  0  0  0  0  0  0  0
    8.9032  -15.7115   21.5909 C   0  0  0  0  0  0  0  0  0  0  0  0
    7.8794  -16.3636   21.9921 O   0  0  0  0  0  0  0  0  0  0  0  0
   14.2797  -21.1325   19.6675 N   0  0  0  0  0  0  0  0  0  0  0  0
   14.9123  -19.9411   20.0989 C   0  0  0  0  0  0  0  0  0  0  0  0
   16.1256  -19.7284   19.7379 N   0  0  0  0  0  0  0  0  0  0  0  0
   14.2439  -18.9837   20.9131 N   0  0  0  0  0  0  0  0  0  0  0  0
   12.9021  -19.2246   21.3901 C   0  0  0  0  0  0  0  0  0  0  0  0
   12.3040  -18.0738   22.1254 C   0  0  0  0  0  0  0  0  0  0  0  0
   10.9134  -18.1640   22.6064 C   0  0  0  0  0  0  0  0  0  0  0  0
   10.3028  -16.9880   23.2769 C   0  0  2  0  0  0  0  0  0  0  0  0
   10.1383  -15.9180   22.2626 N   0  0  0  0  0  0  0  0  0  0  0  0
   11.1150  -16.4516   24.3654 C   0  0  0  0  0  0  0  0  0  0  0  0
   11.3090  -17.1198   25.5558 O   0  0  0  0  0  0  0  0  0  0  0  0
   11.6964  -15.3154   24.2748 O   0  0  0  0  0  0  0  0  0  0  0  0
  1  2  1  0
  2  3  1  0
  3  4  1  6
  3  5  1  0
  5 11  1  0
  5  6  2  0
  8  7  1  6
  9  8  1  0
 10  8  1  0
 10 12  1  0
 10 11  1  6
 12 13  2  0
 15 17  1  0
 15 14  1  0
 16 15  2  0
 18 17  1  0
 19 18  1  0
 19 20  1  0
 21 20  1  6
 21 23  1  0
 22 21  1  0
 22 12  1  0
 23 25  2  0
 23 24  1  0
M  END
$$$$
