SVR.pdb
     RDKit          3D

 25 24  0  0  1  0  0  0  0  0999 V2000
    8.9042  -15.8505   15.4108 O   0  0  0  0  0  0  0  0  0  0  0  0
    9.0629  -17.1474   15.9420 C   0  0  0  0  0  0  0  0  0  0  0  0
    8.2021  -17.2877   17.1866 C   0  0  2  0  0  0  0  0  0  0  0  0
    6.9049  -16.7255   16.8771 N   0  0  0  0  0  0  0  0  0  0  0  0
    8.8790  -16.5551   18.2885 C   0  0  0  0  0  0  0  0  0  0  0  0
   10.0212  -16.9225   18.6075 O   0  0  0  0  0  0  0  0  0  0  0  0
    7.9364  -12.5432   19.2892 C   0  0  0  0  0  0  0  0  0  0  0  0
    8.1414  -13.4868   20.4429 C   0  0  1  0  0  0  0  0  0  0  0  0
    6.8651  -13.8099   21.1657 C   0  0  0  0  0  0  0  0  0  0  0  0
    8.9206  -14.7205   20.0323 C   0  0  2  0  0  0  0  0  0  0  0  0
    8.2971  -15.4688   18.9897 N   0  0  0  0  0  0  0  0  0  0  0  0
    9.1412  -15.5902   21.2170 C   0  0  0  0  0  0  0  0  0  0  0  0
    8.1680  -16.2018   21.7766 O   0  0  0  0  0  0  0  0  0  0  0  0
   13.8122  -23.1918   24.0741 N   0  0  0  0  0  0  0  0  0  0  0  0
   13.6585  -22.1151   23.1670 C   0  0  0  0  0  0  0  0  0  0  0  0
   13.5251  -22.3823   21.9187 N   0  0  0  0  0  0  0  0  0  0  0  0
   13.6478  -20.7591   23.5999 N   0  0  0  0  0  0  0  0  0  0  0  0
   13.3199  -19.6915   22.6841 C   0  0  0  0  0  0  0  0  0  0  0  0
   12.2046  -18.8169   23.1464 C   0  0  0  0  0  0  0  0  0  0  0  0
   11.7758  -17.6834   22.3070 C   0  0  0  0  0  0  0  0  0  0  0  0
   10.7218  -16.7675   22.8127 C   0  0  2  0  0  0  0  0  0  0  0  0
   10.4442  -15.7631   21.7569 N   0  0  0  0  0  0  0  0  0  0  0  0
   11.1074  -16.0486   24.0239 C   0  0  0  0  0  0  0  0  0  0  0  0
   10.9755  -16.5840   25.2876 O   0  0  0  0  0  0  0  0  0  0  0  0
   11.5921  -14.8653   23.9789 O   0  0  0  0  0  0  0  0  0  0  0  0
  1  2  1  0
  2  3  1  0
  3  4  1  6
  3  5  1  0
  5 11  1  0
  5  6  2  0
  8  7  1  6
  9  8  1  0
 10  8  1  0
 10 12  1  0
 10 11  1  6
 12 13  2  0
 15 17  1  0
 15 14  1  0
 16 15  2  0
 18 17  1  0
 19 18  1  0
 19 20  1  0
 21 20  1  6
 21 23  1  0
 22 21  1  0
 22 12  1  0
 23 25  2  0
 23 24  1  0
M  END
$$$$
