SVR.pdb
     RDKit          3D

 25 24  0  0  1  0  0  0  0  0999 V2000
    9.2521  -18.7160   27.0935 O   0  0  0  0  0  0  0  0  0  0  0  0
    9.0229  -17.9683   28.2674 C   0  0  0  0  0  0  0  0  0  0  0  0
    7.5327  -17.7079   28.4124 C   0  0  2  0  0  0  0  0  0  0  0  0
    6.8624  -18.9874   28.3219 N   0  0  0  0  0  0  0  0  0  0  0  0
    7.1269  -16.7870   27.3187 C   0  0  0  0  0  0  0  0  0  0  0  0
    6.2391  -17.1726   26.5411 O   0  0  0  0  0  0  0  0  0  0  0  0
    7.5075  -12.2508   25.2096 C   0  0  0  0  0  0  0  0  0  0  0  0
    7.6219  -13.1432   26.4153 C   0  0  1  0  0  0  0  0  0  0  0  0
    6.8196  -12.6489   27.5848 C   0  0  0  0  0  0  0  0  0  0  0  0
    7.3432  -14.5934   26.0736 C   0  0  2  0  0  0  0  0  0  0  0  0
    7.6929  -15.5029   27.1159 N   0  0  0  0  0  0  0  0  0  0  0  0
    8.0573  -14.9589   24.8226 C   0  0  0  0  0  0  0  0  0  0  0  0
    9.2881  -15.3039   24.8424 O   0  0  0  0  0  0  0  0  0  0  0  0
    7.9564  -12.3021   16.4222 N   0  0  0  0  0  0  0  0  0  0  0  0
    8.1502  -13.7027   16.3426 C   0  0  0  0  0  0  0  0  0  0  0  0
    8.6618  -14.1887   15.2704 N   0  0  0  0  0  0  0  0  0  0  0  0
    7.7965  -14.5755   17.4100 N   0  0  0  0  0  0  0  0  0  0  0  0
    7.3970  -14.0507   18.6949 C   0  0  0  0  0  0  0  0  0  0  0  0
    8.0582  -14.7156   19.8539 C   0  0  0  0  0  0  0  0  0  0  0  0
    7.4446  -14.6219   21.1910 C   0  0  0  0  0  0  0  0  0  0  0  0
    8.0541  -15.3694   22.3202 C   0  0  2  0  0  0  0  0  0  0  0  0
    7.3855  -14.9336   23.5707 N   0  0  0  0  0  0  0  0  0  0  0  0
    9.4866  -15.1292   22.4715 C   0  0  0  0  0  0  0  0  0  0  0  0
    9.9973  -14.0695   23.1907 O   0  0  0  0  0  0  0  0  0  0  0  0
   10.3582  -15.8971   21.9350 O   0  0  0  0  0  0  0  0  0  0  0  0
  1  2  1  0
  2  3  1  0
  3  4  1  6
  3  5  1  0
  5 11  1  0
  5  6  2  0
  8  7  1  6
  9  8  1  0
 10  8  1  0
 10 12  1  0
 10 11  1  1
 12 13  2  0
 15 17  1  0
 15 14  1  0
 16 15  2  0
 18 17  1  0
 19 18  1  0
 19 20  1  0
 21 20  1  6
 21 23  1  0
 22 21  1  0
 22 12  1  0
 23 25  2  0
 23 24  1  0
M  END
$$$$
