SVR.pdb
     RDKit          3D

 25 24  0  0  1  0  0  0  0  0999 V2000
    7.3432  -17.1771   22.0810 O   0  0  0  0  0  0  0  0  0  0  0  0
    6.2967  -16.2669   21.8240 C   0  0  0  0  0  0  0  0  0  0  0  0
    6.8777  -14.8749   21.6390 C   0  0  2  0  0  0  0  0  0  0  0  0
    7.7264  -14.9160   20.4674 N   0  0  0  0  0  0  0  0  0  0  0  0
    7.6408  -14.5372   22.8689 C   0  0  0  0  0  0  0  0  0  0  0  0
    8.8743  -14.6747   22.8370 O   0  0  0  0  0  0  0  0  0  0  0  0
    7.7174  -12.6202   27.4956 C   0  0  0  0  0  0  0  0  0  0  0  0
    6.9365  -12.9333   26.2484 C   0  0  1  0  0  0  0  0  0  0  0  0
    6.3625  -11.7079   25.5969 C   0  0  0  0  0  0  0  0  0  0  0  0
    7.7269  -13.8013   25.2896 C   0  0  2  0  0  0  0  0  0  0  0  0
    7.0428  -14.0706   24.0668 N   0  0  0  0  0  0  0  0  0  0  0  0
    8.0931  -15.0781   25.9562 C   0  0  0  0  0  0  0  0  0  0  0  0
    7.1943  -15.8874   26.3701 O   0  0  0  0  0  0  0  0  0  0  0  0
   12.5474  -17.3393   22.3520 N   0  0  0  0  0  0  0  0  0  0  0  0
   11.7754  -18.4820   22.0298 C   0  0  0  0  0  0  0  0  0  0  0  0
   11.6732  -18.8224   20.7964 N   0  0  0  0  0  0  0  0  0  0  0  0
   11.1177  -19.2546   23.0282 N   0  0  0  0  0  0  0  0  0  0  0  0
   10.3698  -18.6161   24.0861 C   0  0  0  0  0  0  0  0  0  0  0  0
   11.0337  -17.4084   24.6546 C   0  0  0  0  0  0  0  0  0  0  0  0
   11.0607  -17.2156   26.1159 C   0  0  0  0  0  0  0  0  0  0  0  0
    9.8457  -16.7049   26.8003 C   0  0  2  0  0  0  0  0  0  0  0  0
    9.4562  -15.4301   26.1493 N   0  0  0  0  0  0  0  0  0  0  0  0
   10.0471  -16.4382   28.2219 C   0  0  0  0  0  0  0  0  0  0  0  0
   10.0460  -17.4311   29.1785 O   0  0  0  0  0  0  0  0  0  0  0  0
   10.2345  -15.2523   28.6643 O   0  0  0  0  0  0  0  0  0  0  0  0
  1  2  1  0
  2  3  1  0
  3  4  1  6
  3  5  1  0
  5 11  1  0
  5  6  2  0
  8  7  1  1
  9  8  1  0
 10  8  1  0
 10 12  1  0
 10 11  1  6
 12 13  2  0
 15 17  1  0
 15 14  1  0
 16 15  2  0
 18 17  1  0
 19 18  1  0
 19 20  1  0
 21 20  1  6
 21 23  1  0
 22 21  1  0
 22 12  1  0
 23 25  2  0
 23 24  1  0
M  END
$$$$
