SVR.pdb
     RDKit          3D

 25 24  0  0  1  0  0  0  0  0999 V2000
    7.8975  -19.2011   16.1616 O   0  0  0  0  0  0  0  0  0  0  0  0
    7.9657  -18.3721   17.3008 C   0  0  0  0  0  0  0  0  0  0  0  0
    8.3666  -16.9691   16.8759 C   0  0  2  0  0  0  0  0  0  0  0  0
    9.3714  -17.1038   15.8430 N   0  0  0  0  0  0  0  0  0  0  0  0
    8.8910  -16.2666   18.0761 C   0  0  0  0  0  0  0  0  0  0  0  0
   10.1029  -16.3758   18.3234 O   0  0  0  0  0  0  0  0  0  0  0  0
    8.0684  -13.1720   21.9399 C   0  0  0  0  0  0  0  0  0  0  0  0
    7.6240  -13.7380   20.6187 C   0  0  1  0  0  0  0  0  0  0  0  0
    7.3967  -12.6795   19.5778 C   0  0  0  0  0  0  0  0  0  0  0  0
    8.5371  -14.8513   20.1450 C   0  0  2  0  0  0  0  0  0  0  0  0
    8.0906  -15.4850   18.9471 N   0  0  0  0  0  0  0  0  0  0  0  0
    8.6952  -15.8617   21.2231 C   0  0  0  0  0  0  0  0  0  0  0  0
    7.7210  -16.6127   21.5714 O   0  0  0  0  0  0  0  0  0  0  0  0
   14.4070  -18.3166   19.9909 N   0  0  0  0  0  0  0  0  0  0  0  0
   13.5044  -18.9504   19.1024 C   0  0  0  0  0  0  0  0  0  0  0  0
   13.7427  -18.8887   17.8426 N   0  0  0  0  0  0  0  0  0  0  0  0
   12.3528  -19.6469   19.5659 N   0  0  0  0  0  0  0  0  0  0  0  0
   12.0665  -19.7481   20.9780 C   0  0  0  0  0  0  0  0  0  0  0  0
   10.9643  -18.8562   21.4388 C   0  0  0  0  0  0  0  0  0  0  0  0
   11.1946  -17.9461   22.5754 C   0  0  0  0  0  0  0  0  0  0  0  0
   10.1158  -17.0101   22.9821 C   0  0  2  0  0  0  0  0  0  0  0  0
    9.9380  -16.0172   21.8943 N   0  0  0  0  0  0  0  0  0  0  0  0
   10.4120  -16.2791   24.2111 C   0  0  0  0  0  0  0  0  0  0  0  0
   10.3659  -16.8619   25.4598 O   0  0  0  0  0  0  0  0  0  0  0  0
   10.7315  -15.0402   24.1970 O   0  0  0  0  0  0  0  0  0  0  0  0
  1  2  1  0
  2  3  1  0
  3  4  1  6
  3  5  1  0
  5 11  1  0
  5  6  2  0
  8  7  1  1
  9  8  1  0
 10  8  1  0
 10 12  1  0
 10 11  1  6
 12 13  2  0
 15 17  1  0
 15 14  1  0
 16 15  2  0
 18 17  1  0
 19 18  1  0
 19 20  1  0
 21 20  1  6
 21 23  1  0
 22 21  1  0
 22 12  1  0
 23 25  2  0
 23 24  1  0
M  END
$$$$
