SVR.pdb
     RDKit          3D

 25 24  0  0  1  0  0  0  0  0999 V2000
    6.7935  -17.5302   23.2262 O   0  0  0  0  0  0  0  0  0  0  0  0
    5.8117  -16.6771   22.6804 C   0  0  0  0  0  0  0  0  0  0  0  0
    6.4883  -15.4605   22.0707 C   0  0  2  0  0  0  0  0  0  0  0  0
    7.2405  -15.9180   20.9221 N   0  0  0  0  0  0  0  0  0  0  0  0
    7.3663  -14.8637   23.1109 C   0  0  0  0  0  0  0  0  0  0  0  0
    8.5724  -15.1572   23.0837 O   0  0  0  0  0  0  0  0  0  0  0  0
    5.7416  -12.8302   26.6086 C   0  0  0  0  0  0  0  0  0  0  0  0
    7.0033  -12.3388   25.9529 C   0  0  1  0  0  0  0  0  0  0  0  0
    7.9154  -11.6225   26.9072 C   0  0  0  0  0  0  0  0  0  0  0  0
    7.7007  -13.4371   25.1752 C   0  0  2  0  0  0  0  0  0  0  0  0
    6.9064  -13.9851   24.1242 N   0  0  0  0  0  0  0  0  0  0  0  0
    8.1247  -14.5165   26.1044 C   0  0  0  0  0  0  0  0  0  0  0  0
    7.3683  -15.5201   26.3386 O   0  0  0  0  0  0  0  0  0  0  0  0
   12.1764  -20.7073   25.2698 N   0  0  0  0  0  0  0  0  0  0  0  0
   12.8199  -20.3429   26.4776 C   0  0  0  0  0  0  0  0  0  0  0  0
   12.7753  -21.1620   27.4649 N   0  0  0  0  0  0  0  0  0  0  0  0
   13.5080  -19.1052   26.6226 N   0  0  0  0  0  0  0  0  0  0  0  0
   12.9249  -17.8730   26.1456 C   0  0  0  0  0  0  0  0  0  0  0  0
   11.7961  -17.3727   26.9810 C   0  0  0  0  0  0  0  0  0  0  0  0
   11.0744  -16.1544   26.5710 C   0  0  0  0  0  0  0  0  0  0  0  0
    9.9717  -15.6452   27.4256 C   0  0  2  0  0  0  0  0  0  0  0  0
    9.3859  -14.4578   26.7565 N   0  0  0  0  0  0  0  0  0  0  0  0
   10.4086  -15.2379   28.7581 C   0  0  0  0  0  0  0  0  0  0  0  0
   10.7306  -16.1399   29.7500 O   0  0  0  0  0  0  0  0  0  0  0  0
   10.5147  -14.0051   29.0842 O   0  0  0  0  0  0  0  0  0  0  0  0
  1  2  1  0
  2  3  1  0
  3  4  1  6
  3  5  1  0
  5 11  1  0
  5  6  2  0
  8  7  1  1
  9  8  1  0
 10  8  1  0
 10 12  1  0
 10 11  1  6
 12 13  2  0
 15 17  1  0
 15 14  1  0
 16 15  2  0
 18 17  1  0
 19 18  1  0
 19 20  1  0
 21 20  1  6
 21 23  1  0
 22 21  1  0
 22 12  1  0
 23 25  2  0
 23 24  1  0
M  END
$$$$
