SVR.pdb
     RDKit          3D

 25 24  0  0  1  0  0  0  0  0999 V2000
    7.2732  -15.4141   20.7785 O   0  0  0  0  0  0  0  0  0  0  0  0
    6.3064  -14.3893   20.8474 C   0  0  0  0  0  0  0  0  0  0  0  0
    6.9909  -13.0776   21.1946 C   0  0  2  0  0  0  0  0  0  0  0  0
    7.9232  -12.7840   20.1273 N   0  0  0  0  0  0  0  0  0  0  0  0
    7.6769  -13.2583   22.5006 C   0  0  0  0  0  0  0  0  0  0  0  0
    8.8628  -13.6258   22.4820 O   0  0  0  0  0  0  0  0  0  0  0  0
    7.4816  -12.9807   27.5143 C   0  0  0  0  0  0  0  0  0  0  0  0
    6.8740  -12.6423   26.1803 C   0  0  1  0  0  0  0  0  0  0  0  0
    6.6132  -11.1725   26.0144 C   0  0  0  0  0  0  0  0  0  0  0  0
    7.6631  -13.2393   25.0321 C   0  0  2  0  0  0  0  0  0  0  0  0
    7.0572  -13.0361   23.7564 N   0  0  0  0  0  0  0  0  0  0  0  0
    7.8693  -14.6919   25.2685 C   0  0  0  0  0  0  0  0  0  0  0  0
    7.0555  -15.5587   24.7987 O   0  0  0  0  0  0  0  0  0  0  0  0
   10.2316  -19.2517   20.0595 N   0  0  0  0  0  0  0  0  0  0  0  0
   11.2270  -18.9419   21.0180 C   0  0  0  0  0  0  0  0  0  0  0  0
   12.4555  -18.9455   20.6460 N   0  0  0  0  0  0  0  0  0  0  0  0
   10.9033  -18.6294   22.3685 N   0  0  0  0  0  0  0  0  0  0  0  0
   11.8818  -18.0296   23.2453 C   0  0  0  0  0  0  0  0  0  0  0  0
   11.3673  -17.7263   24.6112 C   0  0  0  0  0  0  0  0  0  0  0  0
   10.5495  -16.5189   24.8270 C   0  0  0  0  0  0  0  0  0  0  0  0
    9.5017  -16.5339   25.8792 C   0  0  2  0  0  0  0  0  0  0  0  0
    8.9805  -15.1527   26.0249 N   0  0  0  0  0  0  0  0  0  0  0  0
    9.9936  -16.9666   27.1844 C   0  0  0  0  0  0  0  0  0  0  0  0
   10.2556  -18.2860   27.4871 O   0  0  0  0  0  0  0  0  0  0  0  0
   10.2079  -16.1347   28.1325 O   0  0  0  0  0  0  0  0  0  0  0  0
  1  2  1  0
  2  3  1  0
  3  4  1  6
  3  5  1  0
  5 11  1  0
  5  6  2  0
  8  7  1  1
  9  8  1  0
 10  8  1  0
 10 12  1  0
 10 11  1  6
 12 13  2  0
 15 17  1  0
 15 14  1  0
 16 15  2  0
 18 17  1  0
 19 18  1  0
 19 20  1  0
 21 20  1  6
 21 23  1  0
 22 21  1  0
 22 12  1  0
 23 25  2  0
 23 24  1  0
M  END
$$$$
