SVR.pdb
     RDKit          3D

 25 24  0  0  1  0  0  0  0  0999 V2000
    5.8791  -16.7836   20.5550 O   0  0  0  0  0  0  0  0  0  0  0  0
    6.6877  -16.2762   21.5934 C   0  0  0  0  0  0  0  0  0  0  0  0
    6.7083  -14.7586   21.5160 C   0  0  2  0  0  0  0  0  0  0  0  0
    7.3544  -14.4008   20.2714 N   0  0  0  0  0  0  0  0  0  0  0  0
    7.4571  -14.2565   22.6977 C   0  0  0  0  0  0  0  0  0  0  0  0
    8.6962  -14.2277   22.6243 O   0  0  0  0  0  0  0  0  0  0  0  0
    7.4000  -12.1656   27.2543 C   0  0  0  0  0  0  0  0  0  0  0  0
    6.6669  -12.5384   25.9946 C   0  0  1  0  0  0  0  0  0  0  0  0
    6.0581  -11.3531   25.3017 C   0  0  0  0  0  0  0  0  0  0  0  0
    7.5195  -13.3907   25.0757 C   0  0  2  0  0  0  0  0  0  0  0  0
    6.8397  -13.8123   23.8942 N   0  0  0  0  0  0  0  0  0  0  0  0
    8.0256  -14.5746   25.8179 C   0  0  0  0  0  0  0  0  0  0  0  0
    7.2885  -15.6029   26.0009 O   0  0  0  0  0  0  0  0  0  0  0  0
   16.3573  -17.4482   25.3106 N   0  0  0  0  0  0  0  0  0  0  0  0
   15.6199  -18.5152   25.8792 C   0  0  0  0  0  0  0  0  0  0  0  0
   16.2213  -19.6295   26.0897 N   0  0  0  0  0  0  0  0  0  0  0  0
   14.2441  -18.3845   26.2202 N   0  0  0  0  0  0  0  0  0  0  0  0
   13.5222  -17.1668   25.9338 C   0  0  0  0  0  0  0  0  0  0  0  0
   12.0817  -17.2116   26.3153 C   0  0  0  0  0  0  0  0  0  0  0  0
   11.2128  -16.0619   26.0045 C   0  0  0  0  0  0  0  0  0  0  0  0
    9.9826  -15.8475   26.8083 C   0  0  2  0  0  0  0  0  0  0  0  0
    9.3459  -14.5909   26.3430 N   0  0  0  0  0  0  0  0  0  0  0  0
   10.2382  -15.7162   28.2400 C   0  0  0  0  0  0  0  0  0  0  0  0
   10.4946  -16.7961   29.0580 O   0  0  0  0  0  0  0  0  0  0  0  0
   10.2348  -14.5770   28.8227 O   0  0  0  0  0  0  0  0  0  0  0  0
  1  2  1  0
  2  3  1  0
  3  4  1  6
  3  5  1  0
  5 11  1  0
  5  6  2  0
  8  7  1  1
  9  8  1  0
 10  8  1  0
 10 12  1  0
 10 11  1  6
 12 13  2  0
 15 17  1  0
 15 14  1  0
 16 15  2  0
 18 17  1  0
 19 18  1  0
 19 20  1  0
 21 20  1  6
 21 23  1  0
 22 21  1  0
 22 12  1  0
 23 25  2  0
 23 24  1  0
M  END
$$$$
