AVM.pdb
     RDKit          3D

 21 20  0  0  1  0  0  0  0  0999 V2000
   25.7706  -25.3085  -17.2647 C   0  0  0  0  0  0  0  0  0  0  0  0
   26.3268  -24.0697  -17.9153 C   0  0  2  0  0  0  0  0  0  0  0  0
   27.7762  -24.1445  -17.9986 N   0  0  0  0  0  0  0  0  0  0  0  0
   25.9798  -22.9071  -17.0587 C   0  0  0  0  0  0  0  0  0  0  0  0
   26.6491  -22.7723  -16.0183 O   0  0  0  0  0  0  0  0  0  0  0  0
   25.2468  -19.0974  -18.1285 C   0  0  0  0  0  0  0  0  0  0  0  0
   24.1191  -19.6477  -17.2809 C   0  0  1  0  0  0  0  0  0  0  0  0
   22.8796  -19.8308  -18.0896 C   0  0  0  0  0  0  0  0  0  0  0  0
   24.6124  -20.8400  -16.5550 C   0  0  2  0  0  0  0  0  0  0  0  0
   24.9510  -21.9763  -17.3680 N   0  0  0  0  0  0  0  0  0  0  0  0
   23.8028  -21.2147  -15.3663 C   0  0  0  0  0  0  0  0  0  0  0  0
   22.8589  -22.0767  -15.4215 O   0  0  0  0  0  0  0  0  0  0  0  0
   23.5293  -21.2259   -7.4329 C   0  0  0  0  0  0  0  0  0  0  0  0
   24.2873  -20.6966   -8.9927 S   0  0  0  0  0  0  0  0  0  0  0  0
   23.1919  -21.1292  -10.4026 C   0  0  0  0  0  0  0  0  0  0  0  0
   23.9104  -20.7375  -11.6404 C   0  0  0  0  0  0  0  0  0  0  0  0
   23.1757  -21.0070  -12.9235 C   0  0  2  0  0  0  0  0  0  0  0  0
   23.9933  -20.6605  -14.0699 N   0  0  0  0  0  0  0  0  0  0  0  0
   21.8420  -20.3887  -12.9793 C   0  0  0  0  0  0  0  0  0  0  0  0
   20.7821  -20.9191  -12.6089 O   0  0  0  0  0  0  0  0  0  0  0  0
   21.7326  -19.0845  -13.4925 O   0  0  0  0  0  0  0  0  0  0  0  0
  2  1  1  1
  3  2  1  0
  4  5  2  0
  4  2  1  0
  7  6  1  6
  7  9  1  0
  8  7  1  0
  9 11  1  0
  9 10  1  6
 10  4  1  0
 11 18  1  0
 12 11  2  0
 14 13  1  0
 15 14  1  0
 17 16  1  1
 16 15  1  0
 18 17  1  0
 19 21  1  0
 19 17  1  0
 20 19  2  0
M  END
$$$$
