AVM.pdb
     RDKit          3D

 21 20  0  0  1  0  0  0  0  0999 V2000
   16.5626  -22.8787    3.7020 C   0  0  0  0  0  0  0  0  0  0  0  0
   15.9200  -21.6210    3.1799 C   0  0  2  0  0  0  0  0  0  0  0  0
   15.8917  -21.6283    1.7265 N   0  0  0  0  0  0  0  0  0  0  0  0
   16.7505  -20.4684    3.6129 C   0  0  0  0  0  0  0  0  0  0  0  0
   17.7274  -20.1940    2.8927 O   0  0  0  0  0  0  0  0  0  0  0  0
   15.9505  -16.9809    3.7423 C   0  0  0  0  0  0  0  0  0  0  0  0
   16.4409  -17.2489    5.1496 C   0  0  1  0  0  0  0  0  0  0  0  0
   15.3245  -17.1561    6.1340 C   0  0  0  0  0  0  0  0  0  0  0  0
   17.2125  -18.5124    5.1482 C   0  0  2  0  0  0  0  0  0  0  0  0
   16.4842  -19.6943    4.7750 N   0  0  0  0  0  0  0  0  0  0  0  0
   18.0515  -18.7217    6.3570 C   0  0  0  0  0  0  0  0  0  0  0  0
   17.7558  -19.5800    7.2586 O   0  0  0  0  0  0  0  0  0  0  0  0
   24.9593  -16.9717    9.9117 C   0  0  0  0  0  0  0  0  0  0  0  0
   23.7671  -16.7112    8.5706 S   0  0  0  0  0  0  0  0  0  0  0  0
   22.1720  -17.5249    8.9806 C   0  0  0  0  0  0  0  0  0  0  0  0
   21.3277  -17.4530    7.7625 C   0  0  0  0  0  0  0  0  0  0  0  0
   19.9744  -18.0964    7.8786 C   0  0  2  0  0  0  0  0  0  0  0  0
   19.2471  -17.9997    6.6278 N   0  0  0  0  0  0  0  0  0  0  0  0
   19.1879  -17.6109    9.0230 C   0  0  0  0  0  0  0  0  0  0  0  0
   18.4851  -16.5873    9.0363 O   0  0  0  0  0  0  0  0  0  0  0  0
   19.2188  -18.3534   10.2163 O   0  0  0  0  0  0  0  0  0  0  0  0
  2  1  1  6
  3  2  1  0
  4  5  2  0
  4  2  1  0
  7  6  1  6
  7  9  1  0
  8  7  1  0
  9 11  1  0
  9 10  1  1
 10  4  1  0
 11 18  1  0
 12 11  2  0
 14 13  1  0
 15 14  1  0
 17 16  1  6
 16 15  1  0
 18 17  1  0
 19 21  1  0
 19 17  1  0
 20 19  2  0
M  END
$$$$
