AVM.pdb
     RDKit          3D

 21 20  0  0  1  0  0  0  0  0999 V2000
   23.8114  -20.9921  -18.5739 C   0  0  0  0  0  0  0  0  0  0  0  0
   23.8479  -21.9058  -17.3776 C   0  0  2  0  0  0  0  0  0  0  0  0
   22.5909  -22.6243  -17.2463 N   0  0  0  0  0  0  0  0  0  0  0  0
   24.0207  -21.0662  -16.1648 C   0  0  0  0  0  0  0  0  0  0  0  0
   25.0758  -20.4099  -16.0968 O   0  0  0  0  0  0  0  0  0  0  0  0
   22.1724  -18.2721  -15.2880 C   0  0  0  0  0  0  0  0  0  0  0  0
   22.1534  -18.9972  -13.9589 C   0  0  1  0  0  0  0  0  0  0  0  0
   20.7653  -19.3914  -13.5820 C   0  0  0  0  0  0  0  0  0  0  0  0
   23.1572  -20.0846  -13.9997 C   0  0  2  0  0  0  0  0  0  0  0  0
   23.0642  -20.9853  -15.1164 N   0  0  0  0  0  0  0  0  0  0  0  0
   23.3431  -20.7985  -12.7096 C   0  0  0  0  0  0  0  0  0  0  0  0
   22.5871  -21.7634  -12.3429 O   0  0  0  0  0  0  0  0  0  0  0  0
   26.9686  -18.3785   -7.3472 C   0  0  0  0  0  0  0  0  0  0  0  0
   27.2145  -20.1611   -7.5701 S   0  0  0  0  0  0  0  0  0  0  0  0
   25.6904  -20.9253   -8.2541 C   0  0  0  0  0  0  0  0  0  0  0  0
   25.5971  -20.5014   -9.6731 C   0  0  0  0  0  0  0  0  0  0  0  0
   24.4070  -21.0277  -10.4250 C   0  0  2  0  0  0  0  0  0  0  0  0
   24.3633  -20.4847  -11.7689 N   0  0  0  0  0  0  0  0  0  0  0  0
   23.1340  -20.8535   -9.7087 C   0  0  0  0  0  0  0  0  0  0  0  0
   22.3501  -19.9006   -9.8469 O   0  0  0  0  0  0  0  0  0  0  0  0
   22.7501  -21.8386   -8.7821 O   0  0  0  0  0  0  0  0  0  0  0  0
  2  1  1  6
  3  2  1  0
  4  5  2  0
  4  2  1  0
  7  6  1  6
  7  9  1  0
  8  7  1  0
  9 11  1  0
  9 10  1  6
 10  4  1  0
 11 18  1  0
 12 11  2  0
 14 13  1  0
 15 14  1  0
 17 16  1  1
 16 15  1  0
 18 17  1  0
 19 21  1  0
 19 17  1  0
 20 19  2  0
M  END
$$$$
