AVM.pdb
     RDKit          3D

 21 20  0  0  1  0  0  0  0  0999 V2000
   16.5393  -14.5852  -17.8271 C   0  0  0  0  0  0  0  0  0  0  0  0
   17.2234  -14.0369  -16.6030 C   0  0  2  0  0  0  0  0  0  0  0  0
   16.2575  -13.7972  -15.5433 N   0  0  0  0  0  0  0  0  0  0  0  0
   17.8344  -12.7325  -16.9651 C   0  0  0  0  0  0  0  0  0  0  0  0
   18.7036  -12.7613  -17.8550 O   0  0  0  0  0  0  0  0  0  0  0  0
   16.3189   -9.4912  -18.2499 C   0  0  0  0  0  0  0  0  0  0  0  0
   17.0870   -9.1386  -16.9936 C   0  0  1  0  0  0  0  0  0  0  0  0
   16.1615   -8.7669  -15.8848 C   0  0  0  0  0  0  0  0  0  0  0  0
   18.0508  -10.2257  -16.7086 C   0  0  2  0  0  0  0  0  0  0  0  0
   17.4794  -11.4974  -16.3577 N   0  0  0  0  0  0  0  0  0  0  0  0
   19.1666   -9.8375  -15.8069 C   0  0  0  0  0  0  0  0  0  0  0  0
   19.0699   -9.8891  -14.5322 O   0  0  0  0  0  0  0  0  0  0  0  0
   26.8388  -10.3113  -14.6253 C   0  0  0  0  0  0  0  0  0  0  0  0
   25.3543  -10.4959  -15.6500 S   0  0  0  0  0  0  0  0  0  0  0  0
   23.9740   -9.5136  -14.9397 C   0  0  0  0  0  0  0  0  0  0  0  0
   22.7712   -9.8102  -15.7566 C   0  0  0  0  0  0  0  0  0  0  0  0
   21.5323   -9.0482  -15.3779 C   0  0  2  0  0  0  0  0  0  0  0  0
   20.4325   -9.3765  -16.2642 N   0  0  0  0  0  0  0  0  0  0  0  0
   21.7456   -7.5972  -15.2635 C   0  0  0  0  0  0  0  0  0  0  0  0
   21.5512   -6.7637  -16.1631 O   0  0  0  0  0  0  0  0  0  0  0  0
   22.2094   -7.0860  -14.0388 O   0  0  0  0  0  0  0  0  0  0  0  0
  2  1  1  6
  3  2  1  0
  4  5  2  0
  4  2  1  0
  7  6  1  6
  7  9  1  0
  8  7  1  0
  9 11  1  0
  9 10  1  1
 10  4  1  0
 11 18  1  0
 12 11  2  0
 14 13  1  0
 15 14  1  0
 17 16  1  6
 16 15  1  0
 18 17  1  0
 19 21  1  0
 19 17  1  0
 20 19  2  0
M  END
$$$$
