AVM.pdb
     RDKit          3D

 21 20  0  0  1  0  0  0  0  0999 V2000
   30.0332  -34.1449   -4.0456 C   0  0  0  0  0  0  0  0  0  0  0  0
   28.8810  -35.1057   -4.1747 C   0  0  2  0  0  0  0  0  0  0  0  0
   28.1053  -34.8139   -5.3691 N   0  0  0  0  0  0  0  0  0  0  0  0
   27.9935  -34.9176   -2.9988 C   0  0  0  0  0  0  0  0  0  0  0  0
   27.1199  -34.0378   -3.1051 O   0  0  0  0  0  0  0  0  0  0  0  0
   25.6684  -37.4099   -1.4027 C   0  0  0  0  0  0  0  0  0  0  0  0
   26.5681  -36.9047   -0.2946 C   0  0  1  0  0  0  0  0  0  0  0  0
   27.5288  -37.9594    0.1400 C   0  0  0  0  0  0  0  0  0  0  0  0
   27.1564  -35.6131   -0.7158 C   0  0  2  0  0  0  0  0  0  0  0  0
   28.0983  -35.6743   -1.8001 N   0  0  0  0  0  0  0  0  0  0  0  0
   27.6357  -34.7615    0.4040 C   0  0  0  0  0  0  0  0  0  0  0  0
   28.8781  -34.6118    0.6706 O   0  0  0  0  0  0  0  0  0  0  0  0
   25.4173  -29.2025    5.6779 C   0  0  0  0  0  0  0  0  0  0  0  0
   25.1031  -30.2539    4.2345 S   0  0  0  0  0  0  0  0  0  0  0  0
   26.5236  -31.3859    3.9602 C   0  0  0  0  0  0  0  0  0  0  0  0
   26.1717  -32.2435    2.8015 C   0  0  0  0  0  0  0  0  0  0  0  0
   27.2529  -33.1816    2.3433 C   0  0  2  0  0  0  0  0  0  0  0  0
   26.7745  -34.0402    1.2771 N   0  0  0  0  0  0  0  0  0  0  0  0
   27.8754  -33.9419    3.4381 C   0  0  0  0  0  0  0  0  0  0  0  0
   28.8830  -33.5977    4.0769 O   0  0  0  0  0  0  0  0  0  0  0  0
   27.2974  -35.1677    3.8116 O   0  0  0  0  0  0  0  0  0  0  0  0
  2  1  1  1
  3  2  1  0
  4  5  2  0
  4  2  1  0
  7  6  1  6
  7  9  1  0
  8  7  1  0
  9 11  1  0
  9 10  1  6
 10  4  1  0
 11 18  1  0
 12 11  2  0
 14 13  1  0
 15 14  1  0
 17 16  1  1
 16 15  1  0
 18 17  1  0
 19 21  1  0
 19 17  1  0
 20 19  2  0
M  END
$$$$
