AVM.pdb
     RDKit          3D

 21 20  0  0  1  0  0  0  0  0999 V2000
   12.6363  -12.4995  -14.2384 C   0  0  0  0  0  0  0  0  0  0  0  0
   13.9799  -12.7642  -14.8645 C   0  0  2  0  0  0  0  0  0  0  0  0
   14.2939  -14.1828  -14.8170 N   0  0  0  0  0  0  0  0  0  0  0  0
   15.0063  -12.0443  -14.0683 C   0  0  0  0  0  0  0  0  0  0  0  0
   15.1476  -12.4165  -12.8893 O   0  0  0  0  0  0  0  0  0  0  0  0
   18.6761  -11.7864  -14.6595 C   0  0  0  0  0  0  0  0  0  0  0  0
   18.1969  -10.3555  -14.5336 C   0  0  1  0  0  0  0  0  0  0  0  0
   18.2704   -9.6474  -15.8440 C   0  0  0  0  0  0  0  0  0  0  0  0
   16.8785  -10.3566  -13.8602 C   0  0  2  0  0  0  0  0  0  0  0  0
   15.8046  -10.9853  -14.5800 N   0  0  0  0  0  0  0  0  0  0  0  0
   16.4823   -9.0460  -13.2820 C   0  0  0  0  0  0  0  0  0  0  0  0
   15.7567   -8.2055  -13.9177 O   0  0  0  0  0  0  0  0  0  0  0  0
   13.9408   -7.1593   -7.3609 C   0  0  0  0  0  0  0  0  0  0  0  0
   15.6201   -6.4957   -7.5267 S   0  0  0  0  0  0  0  0  0  0  0  0
   15.9716   -6.1075   -9.2875 C   0  0  0  0  0  0  0  0  0  0  0  0
   16.2329   -7.4000   -9.9682 C   0  0  0  0  0  0  0  0  0  0  0  0
   16.5031   -7.3070  -11.4438 C   0  0  2  0  0  0  0  0  0  0  0  0
   16.8651   -8.6025  -11.9855 N   0  0  0  0  0  0  0  0  0  0  0  0
   17.4731   -6.2600  -11.7998 C   0  0  0  0  0  0  0  0  0  0  0  0
   18.6846   -6.4358  -12.0073 O   0  0  0  0  0  0  0  0  0  0  0  0
   17.0121   -4.9375  -11.9216 O   0  0  0  0  0  0  0  0  0  0  0  0
  2  1  1  1
  3  2  1  0
  4  5  2  0
  4  2  1  0
  7  6  1  6
  7  9  1  0
  8  7  1  0
  9 11  1  0
  9 10  1  6
 10  4  1  0
 11 18  1  0
 12 11  2  0
 14 13  1  0
 15 14  1  0
 17 16  1  1
 16 15  1  0
 18 17  1  0
 19 21  1  0
 19 17  1  0
 20 19  2  0
M  END
$$$$
