AVM.pdb
     RDKit          3D

 21 20  0  0  1  0  0  0  0  0999 V2000
   18.8138  -12.7207  -18.0547 C   0  0  0  0  0  0  0  0  0  0  0  0
   17.7789  -11.6274  -18.0833 C   0  0  2  0  0  0  0  0  0  0  0  0
   17.1027  -11.5990  -19.3699 N   0  0  0  0  0  0  0  0  0  0  0  0
   18.4789  -10.3292  -17.9087 C   0  0  0  0  0  0  0  0  0  0  0  0
   19.4739  -10.1400  -18.6315 O   0  0  0  0  0  0  0  0  0  0  0  0
   16.8811   -6.9420  -18.1930 C   0  0  0  0  0  0  0  0  0  0  0  0
   17.6820   -6.8883  -16.9091 C   0  0  1  0  0  0  0  0  0  0  0  0
   16.7863   -6.7792  -15.7217 C   0  0  0  0  0  0  0  0  0  0  0  0
   18.6442   -8.0134  -16.9053 C   0  0  2  0  0  0  0  0  0  0  0  0
   18.0729   -9.3304  -16.9823 N   0  0  0  0  0  0  0  0  0  0  0  0
   19.7020   -7.9143  -15.8661 C   0  0  0  0  0  0  0  0  0  0  0  0
   19.5867   -8.4586  -14.7140 O   0  0  0  0  0  0  0  0  0  0  0  0
   26.7584   -9.9984  -14.3584 C   0  0  0  0  0  0  0  0  0  0  0  0
   25.3643   -9.6315  -15.4582 S   0  0  0  0  0  0  0  0  0  0  0  0
   24.2357   -8.4215  -14.6602 C   0  0  0  0  0  0  0  0  0  0  0  0
   23.0613   -8.2746  -15.5554 C   0  0  0  0  0  0  0  0  0  0  0  0
   22.0302   -7.2779  -15.1059 C   0  0  2  0  0  0  0  0  0  0  0  0
   20.9279   -7.2150  -16.0459 N   0  0  0  0  0  0  0  0  0  0  0  0
   22.5869   -5.9497  -14.8057 C   0  0  0  0  0  0  0  0  0  0  0  0
   23.2282   -5.6470  -13.7865 O   0  0  0  0  0  0  0  0  0  0  0  0
   22.3886   -4.9172  -15.7389 O   0  0  0  0  0  0  0  0  0  0  0  0
  2  1  1  6
  3  2  1  0
  4  5  2  0
  4  2  1  0
  7  6  1  6
  7  9  1  0
  8  7  1  0
  9 11  1  0
  9 10  1  1
 10  4  1  0
 11 18  1  0
 12 11  2  0
 14 13  1  0
 15 14  1  0
 17 16  1  6
 16 15  1  0
 18 17  1  0
 19 21  1  0
 19 17  1  0
 20 19  2  0
M  END
$$$$
