AVM.pdb
     RDKit          3D

 21 20  0  0  1  0  0  0  0  0999 V2000
   20.2599  -14.7874  -16.0339 C   0  0  0  0  0  0  0  0  0  0  0  0
   18.7790  -14.8236  -16.3045 C   0  0  2  0  0  0  0  0  0  0  0  0
   18.4937  -15.6424  -17.4713 N   0  0  0  0  0  0  0  0  0  0  0  0
   18.3335  -13.4382  -16.6010 C   0  0  0  0  0  0  0  0  0  0  0  0
   18.7054  -12.9627  -17.6892 O   0  0  0  0  0  0  0  0  0  0  0  0
   14.9309  -11.9443  -16.9543 C   0  0  0  0  0  0  0  0  0  0  0  0
   15.6214  -11.0964  -15.9068 C   0  0  1  0  0  0  0  0  0  0  0  0
   15.0062  -11.2966  -14.5631 C   0  0  0  0  0  0  0  0  0  0  0  0
   17.0811  -11.3241  -16.0020 C   0  0  2  0  0  0  0  0  0  0  0  0
   17.5288  -12.6616  -15.7236 N   0  0  0  0  0  0  0  0  0  0  0  0
   17.9096  -10.2956  -15.3204 C   0  0  0  0  0  0  0  0  0  0  0  0
   18.2981  -10.4192  -14.1076 O   0  0  0  0  0  0  0  0  0  0  0  0
   24.0428   -5.6085  -15.9003 C   0  0  0  0  0  0  0  0  0  0  0  0
   22.7947   -6.7253  -16.5952 S   0  0  0  0  0  0  0  0  0  0  0  0
   21.3857   -6.8969  -15.4290 C   0  0  0  0  0  0  0  0  0  0  0  0
   20.4760   -7.9195  -16.0022 C   0  0  0  0  0  0  0  0  0  0  0  0
   19.1749   -8.1047  -15.2730 C   0  0  2  0  0  0  0  0  0  0  0  0
   18.3453   -9.0905  -15.9384 N   0  0  0  0  0  0  0  0  0  0  0  0
   18.4566   -6.8458  -15.0217 C   0  0  0  0  0  0  0  0  0  0  0  0
   17.5854   -6.3505  -15.7549 O   0  0  0  0  0  0  0  0  0  0  0  0
   18.7662   -6.1226  -13.8566 O   0  0  0  0  0  0  0  0  0  0  0  0
  2  1  1  6
  3  2  1  0
  4  5  2  0
  4  2  1  0
  7  6  1  6
  7  9  1  0
  8  7  1  0
  9 11  1  0
  9 10  1  1
 10  4  1  0
 11 18  1  0
 12 11  2  0
 14 13  1  0
 15 14  1  0
 17 16  1  6
 16 15  1  0
 18 17  1  0
 19 21  1  0
 19 17  1  0
 20 19  2  0
M  END
$$$$
