AVM.pdb
     RDKit          3D

 21 20  0  0  1  0  0  0  0  0999 V2000
   30.9337  -22.9649  -10.5329 C   0  0  0  0  0  0  0  0  0  0  0  0
   31.2364  -22.1111  -11.7357 C   0  0  2  0  0  0  0  0  0  0  0  0
   32.4396  -21.3259  -11.5138 N   0  0  0  0  0  0  0  0  0  0  0  0
   30.1054  -21.1670  -11.9238 C   0  0  0  0  0  0  0  0  0  0  0  0
   30.0917  -20.1708  -11.1782 O   0  0  0  0  0  0  0  0  0  0  0  0
   28.9719  -19.0624  -14.6834 C   0  0  0  0  0  0  0  0  0  0  0  0
   27.7348  -19.8678  -14.3459 C   0  0  1  0  0  0  0  0  0  0  0  0
   27.3692  -20.7844  -15.4640 C   0  0  0  0  0  0  0  0  0  0  0  0
   27.9269  -20.4944  -13.0184 C   0  0  2  0  0  0  0  0  0  0  0  0
   29.0752  -21.3491  -12.8861 N   0  0  0  0  0  0  0  0  0  0  0  0
   26.6990  -21.1014  -12.4416 C   0  0  0  0  0  0  0  0  0  0  0  0
   26.6757  -22.2919  -11.9734 O   0  0  0  0  0  0  0  0  0  0  0  0
   26.3253  -19.0196   -7.7128 C   0  0  0  0  0  0  0  0  0  0  0  0
   24.9609  -20.1406   -7.3011 S   0  0  0  0  0  0  0  0  0  0  0  0
   24.0844  -20.6529   -8.8321 C   0  0  0  0  0  0  0  0  0  0  0  0
   25.0178  -20.4156   -9.9610 C   0  0  0  0  0  0  0  0  0  0  0  0
   24.4620  -20.7048  -11.3271 C   0  0  2  0  0  0  0  0  0  0  0  0
   25.4476  -20.4302  -12.3548 N   0  0  0  0  0  0  0  0  0  0  0  0
   23.1763  -20.0408  -11.5922 C   0  0  0  0  0  0  0  0  0  0  0  0
   23.0148  -19.0306  -12.2958 O   0  0  0  0  0  0  0  0  0  0  0  0
   22.0156  -20.5785  -11.0093 O   0  0  0  0  0  0  0  0  0  0  0  0
  2  1  1  1
  3  2  1  0
  4  5  2  0
  4  2  1  0
  7  6  1  6
  7  9  1  0
  8  7  1  0
  9 11  1  0
  9 10  1  6
 10  4  1  0
 11 18  1  0
 12 11  2  0
 14 13  1  0
 15 14  1  0
 17 16  1  1
 16 15  1  0
 18 17  1  0
 19 21  1  0
 19 17  1  0
 20 19  2  0
M  END
$$$$
