AVM.pdb
     RDKit          3D

 21 20  0  0  1  0  0  0  0  0999 V2000
   13.7805  -11.4000  -13.4141 C   0  0  0  0  0  0  0  0  0  0  0  0
   13.5991  -11.3834  -14.9088 C   0  0  2  0  0  0  0  0  0  0  0  0
   13.3082  -12.7197  -15.4019 N   0  0  0  0  0  0  0  0  0  0  0  0
   14.8780  -10.9411  -15.5208 C   0  0  0  0  0  0  0  0  0  0  0  0
   15.7179  -11.8321  -15.7424 O   0  0  0  0  0  0  0  0  0  0  0  0
   15.0961   -7.4254  -17.7253 C   0  0  0  0  0  0  0  0  0  0  0  0
   16.1020   -8.5449  -17.8913 C   0  0  1  0  0  0  0  0  0  0  0  0
   17.3090   -8.0768  -18.6318 C   0  0  0  0  0  0  0  0  0  0  0  0
   16.3418   -9.1645  -16.5684 C   0  0  2  0  0  0  0  0  0  0  0  0
   15.1708   -9.5900  -15.8511 N   0  0  0  0  0  0  0  0  0  0  0  0
   17.2963   -8.4211  -15.7051 C   0  0  0  0  0  0  0  0  0  0  0  0
   16.9284   -7.4651  -14.9384 O   0  0  0  0  0  0  0  0  0  0  0  0
   22.5502  -10.8924  -13.5784 C   0  0  0  0  0  0  0  0  0  0  0  0
   23.1606   -9.2117  -13.2773 S   0  0  0  0  0  0  0  0  0  0  0  0
   21.8635   -7.9849  -13.7097 C   0  0  0  0  0  0  0  0  0  0  0  0
   20.8373   -8.7064  -14.5023 C   0  0  0  0  0  0  0  0  0  0  0  0
   19.6316   -7.8947  -14.8849 C   0  0  2  0  0  0  0  0  0  0  0  0
   18.6915   -8.6935  -15.6471 N   0  0  0  0  0  0  0  0  0  0  0  0
   19.9633   -6.6281  -15.5555 C   0  0  0  0  0  0  0  0  0  0  0  0
   20.1686   -6.4850  -16.7717 O   0  0  0  0  0  0  0  0  0  0  0  0
   20.0620   -5.4649  -14.7723 O   0  0  0  0  0  0  0  0  0  0  0  0
  2  1  1  1
  3  2  1  0
  4  5  2  0
  4  2  1  0
  7  6  1  1
  7  9  1  0
  8  7  1  0
  9 11  1  0
  9 10  1  1
 10  4  1  0
 11 18  1  0
 12 11  2  0
 14 13  1  0
 15 14  1  0
 17 16  1  6
 16 15  1  0
 18 17  1  0
 19 21  1  0
 19 17  1  0
 20 19  2  0
M  END
$$$$
