AVM.pdb
     RDKit          3D

 21 20  0  0  1  0  0  0  0  0999 V2000
   24.4810  -11.8614  -20.3604 C   0  0  0  0  0  0  0  0  0  0  0  0
   24.4050  -12.7522  -19.1488 C   0  0  2  0  0  0  0  0  0  0  0  0
   23.9512  -14.0821  -19.5215 N   0  0  0  0  0  0  0  0  0  0  0  0
   23.4030  -12.1742  -18.2173 C   0  0  0  0  0  0  0  0  0  0  0  0
   22.2092  -12.3131  -18.5395 O   0  0  0  0  0  0  0  0  0  0  0  0
   22.4079  -13.1333  -14.9709 C   0  0  0  0  0  0  0  0  0  0  0  0
   22.7569  -11.6760  -14.7534 C   0  0  1  0  0  0  0  0  0  0  0  0
   23.9805  -11.5367  -13.9122 C   0  0  0  0  0  0  0  0  0  0  0  0
   22.7820  -10.9951  -16.0677 C   0  0  2  0  0  0  0  0  0  0  0  0
   23.7407  -11.4930  -17.0163 N   0  0  0  0  0  0  0  0  0  0  0  0
   22.7783   -9.5109  -15.9914 C   0  0  0  0  0  0  0  0  0  0  0  0
   23.8531   -8.8179  -16.0331 O   0  0  0  0  0  0  0  0  0  0  0  0
   18.9048   -3.0294  -18.0773 C   0  0  0  0  0  0  0  0  0  0  0  0
   18.9902   -4.8227  -17.8232 S   0  0  0  0  0  0  0  0  0  0  0  0
   20.4370   -5.2403  -16.7711 C   0  0  0  0  0  0  0  0  0  0  0  0
   20.5084   -6.7212  -16.7075 C   0  0  0  0  0  0  0  0  0  0  0  0
   21.6015   -7.2759  -15.8378 C   0  0  2  0  0  0  0  0  0  0  0  0
   21.5986   -8.7257  -15.8658 N   0  0  0  0  0  0  0  0  0  0  0  0
   21.5914   -6.7420  -14.4671 C   0  0  0  0  0  0  0  0  0  0  0  0
   22.0164   -5.6278  -14.1210 O   0  0  0  0  0  0  0  0  0  0  0  0
   21.0592   -7.5445  -13.4429 O   0  0  0  0  0  0  0  0  0  0  0  0
  2  1  1  6
  3  2  1  0
  4  5  2  0
  4  2  1  0
  7  6  1  6
  7  9  1  0
  8  7  1  0
  9 11  1  0
  9 10  1  1
 10  4  1  0
 11 18  1  0
 12 11  2  0
 14 13  1  0
 15 14  1  0
 17 16  1  6
 16 15  1  0
 18 17  1  0
 19 21  1  0
 19 17  1  0
 20 19  2  0
M  END
$$$$
