AVM.pdb
     RDKit          3D

 21 20  0  0  1  0  0  0  0  0999 V2000
   20.6029  -18.3425  -11.3045 C   0  0  0  0  0  0  0  0  0  0  0  0
   20.7791  -19.5464  -12.1916 C   0  0  2  0  0  0  0  0  0  0  0  0
   19.6215  -20.4209  -12.1002 N   0  0  0  0  0  0  0  0  0  0  0  0
   21.9609  -20.3039  -11.7065 C   0  0  0  0  0  0  0  0  0  0  0  0
   21.7936  -20.9824  -10.6768 O   0  0  0  0  0  0  0  0  0  0  0  0
   25.4286  -21.0253  -14.1259 C   0  0  0  0  0  0  0  0  0  0  0  0
   24.9640  -21.9249  -13.0000 C   0  0  1  0  0  0  0  0  0  0  0  0
   26.0524  -22.8474  -12.5658 C   0  0  0  0  0  0  0  0  0  0  0  0
   24.3548  -21.0843  -11.9446 C   0  0  2  0  0  0  0  0  0  0  0  0
   23.2295  -20.2856  -12.3475 N   0  0  0  0  0  0  0  0  0  0  0  0
   25.3321  -20.3165  -11.1296 C   0  0  0  0  0  0  0  0  0  0  0  0
   25.7163  -19.1381  -11.4472 O   0  0  0  0  0  0  0  0  0  0  0  0
   26.6484  -19.3116   -5.0619 C   0  0  0  0  0  0  0  0  0  0  0  0
   28.2677  -20.0051   -5.4917 S   0  0  0  0  0  0  0  0  0  0  0  0
   28.5146  -19.9448   -7.3111 C   0  0  0  0  0  0  0  0  0  0  0  0
   27.2471  -20.4030   -7.9318 C   0  0  0  0  0  0  0  0  0  0  0  0
   27.2096  -20.3494   -9.4333 C   0  0  2  0  0  0  0  0  0  0  0  0
   25.9286  -20.8077   -9.9351 N   0  0  0  0  0  0  0  0  0  0  0  0
   28.3410  -21.0363  -10.0753 C   0  0  0  0  0  0  0  0  0  0  0  0
   28.3484  -22.2177  -10.4572 O   0  0  0  0  0  0  0  0  0  0  0  0
   29.5279  -20.3128  -10.2855 O   0  0  0  0  0  0  0  0  0  0  0  0
  2  1  1  1
  3  2  1  0
  4  5  2  0
  4  2  1  0
  7  6  1  6
  7  9  1  0
  8  7  1  0
  9 11  1  0
  9 10  1  6
 10  4  1  0
 11 18  1  0
 12 11  2  0
 14 13  1  0
 15 14  1  0
 17 16  1  1
 16 15  1  0
 18 17  1  0
 19 21  1  0
 19 17  1  0
 20 19  2  0
M  END
$$$$
