AVM.pdb
     RDKit          3D

 21 20  0  0  1  0  0  0  0  0999 V2000
   16.5329  -13.7462  -15.0152 C   0  0  0  0  0  0  0  0  0  0  0  0
   15.7174  -12.6542  -15.6553 C   0  0  2  0  0  0  0  0  0  0  0  0
   14.8946  -13.1932  -16.7258 N   0  0  0  0  0  0  0  0  0  0  0  0
   16.6567  -11.6719  -16.2541 C   0  0  0  0  0  0  0  0  0  0  0  0
   17.3384  -12.0777  -17.2128 O   0  0  0  0  0  0  0  0  0  0  0  0
   16.1119   -8.8632  -18.2292 C   0  0  0  0  0  0  0  0  0  0  0  0
   16.9565   -8.2581  -17.1277 C   0  0  1  0  0  0  0  0  0  0  0  0
   16.1547   -7.3202  -16.2901 C   0  0  0  0  0  0  0  0  0  0  0  0
   17.6501   -9.3513  -16.4098 C   0  0  2  0  0  0  0  0  0  0  0  0
   16.8034  -10.3355  -15.7925 N   0  0  0  0  0  0  0  0  0  0  0  0
   18.7431   -8.8993  -15.5098 C   0  0  0  0  0  0  0  0  0  0  0  0
   18.5360   -8.5600  -14.2937 O   0  0  0  0  0  0  0  0  0  0  0  0
   24.4916  -12.6408  -15.1041 C   0  0  0  0  0  0  0  0  0  0  0  0
   24.2310  -10.9103  -15.5786 S   0  0  0  0  0  0  0  0  0  0  0  0
   22.6160  -10.3180  -14.9338 C   0  0  0  0  0  0  0  0  0  0  0  0
   22.4748   -8.9044  -15.3626 C   0  0  0  0  0  0  0  0  0  0  0  0
   21.1500   -8.2668  -15.0511 C   0  0  2  0  0  0  0  0  0  0  0  0
   20.1063   -8.8000  -15.9050 N   0  0  0  0  0  0  0  0  0  0  0  0
   21.1871   -6.7962  -15.0633 C   0  0  0  0  0  0  0  0  0  0  0  0
   20.7668   -6.0690  -15.9778 O   0  0  0  0  0  0  0  0  0  0  0  0
   21.7420   -6.1340  -13.9543 O   0  0  0  0  0  0  0  0  0  0  0  0
  2  1  1  6
  3  2  1  0
  4  5  2  0
  4  2  1  0
  7  6  1  6
  7  9  1  0
  8  7  1  0
  9 11  1  0
  9 10  1  1
 10  4  1  0
 11 18  1  0
 12 11  2  0
 14 13  1  0
 15 14  1  0
 17 16  1  6
 16 15  1  0
 18 17  1  0
 19 21  1  0
 19 17  1  0
 20 19  2  0
M  END
$$$$
