AVM.pdb
     RDKit          3D

 21 20  0  0  1  0  0  0  0  0999 V2000
   21.9608  -17.3598  -16.1471 C   0  0  0  0  0  0  0  0  0  0  0  0
   22.9957  -17.9664  -17.0572 C   0  0  2  0  0  0  0  0  0  0  0  0
   22.3599  -18.7725  -18.0864 N   0  0  0  0  0  0  0  0  0  0  0  0
   23.8535  -18.8637  -16.2419 C   0  0  0  0  0  0  0  0  0  0  0  0
   23.3096  -19.8926  -15.8015 O   0  0  0  0  0  0  0  0  0  0  0  0
   27.4690  -20.0299  -17.1236 C   0  0  0  0  0  0  0  0  0  0  0  0
   27.4759  -19.5837  -15.6766 C   0  0  1  0  0  0  0  0  0  0  0  0
   28.3233  -18.3704  -15.4929 C   0  0  0  0  0  0  0  0  0  0  0  0
   26.0757  -19.4849  -15.2062 C   0  0  2  0  0  0  0  0  0  0  0  0
   25.2211  -18.6036  -15.9544 N   0  0  0  0  0  0  0  0  0  0  0  0
   25.9317  -19.3028  -13.7382 C   0  0  0  0  0  0  0  0  0  0  0  0
   26.1083  -18.1724  -13.1653 O   0  0  0  0  0  0  0  0  0  0  0  0
   21.6255  -21.9059  -10.3115 C   0  0  0  0  0  0  0  0  0  0  0  0
   22.2306  -20.7625   -9.0408 S   0  0  0  0  0  0  0  0  0  0  0  0
   23.9472  -20.2386   -9.4325 C   0  0  0  0  0  0  0  0  0  0  0  0
   24.1436  -20.4636  -10.8861 C   0  0  0  0  0  0  0  0  0  0  0  0
   25.5275  -20.1811  -11.3997 C   0  0  2  0  0  0  0  0  0  0  0  0
   25.5893  -20.3504  -12.8386 N   0  0  0  0  0  0  0  0  0  0  0  0
   26.5800  -20.9350  -10.7012 C   0  0  0  0  0  0  0  0  0  0  0  0
   27.1945  -21.9127  -11.1576 O   0  0  0  0  0  0  0  0  0  0  0  0
   26.9386  -20.5325   -9.4029 O   0  0  0  0  0  0  0  0  0  0  0  0
  2  1  1  1
  3  2  1  0
  4  5  2  0
  4  2  1  0
  7  6  1  6
  7  9  1  0
  8  7  1  0
  9 11  1  0
  9 10  1  6
 10  4  1  0
 11 18  1  0
 12 11  2  0
 14 13  1  0
 15 14  1  0
 17 16  1  1
 16 15  1  0
 18 17  1  0
 19 21  1  0
 19 17  1  0
 20 19  2  0
M  END
$$$$
