AVM.pdb
     RDKit          3D

 21 20  0  0  1  0  0  0  0  0999 V2000
   17.8810   -9.6451  -17.9850 C   0  0  0  0  0  0  0  0  0  0  0  0
   18.8742  -10.6903  -17.5511 C   0  0  2  0  0  0  0  0  0  0  0  0
   18.2120  -11.9675  -17.3427 N   0  0  0  0  0  0  0  0  0  0  0  0
   19.4534  -10.2610  -16.2526 C   0  0  0  0  0  0  0  0  0  0  0  0
   18.6617  -10.1888  -15.2952 O   0  0  0  0  0  0  0  0  0  0  0  0
   22.5895  -11.5721  -14.4660 C   0  0  0  0  0  0  0  0  0  0  0  0
   22.7071  -10.0625  -14.4642 C   0  0  1  0  0  0  0  0  0  0  0  0
   23.8733   -9.6138  -15.2783 C   0  0  0  0  0  0  0  0  0  0  0  0
   21.3924   -9.4859  -14.8258 C   0  0  2  0  0  0  0  0  0  0  0  0
   20.8256   -9.9405  -16.0663 N   0  0  0  0  0  0  0  0  0  0  0  0
   21.3040   -8.0106  -14.6691 C   0  0  0  0  0  0  0  0  0  0  0  0
   21.5806   -7.4185  -13.5691 O   0  0  0  0  0  0  0  0  0  0  0  0
   23.4175   -2.9405  -18.7252 C   0  0  0  0  0  0  0  0  0  0  0  0
   21.6241   -2.9078  -18.4595 S   0  0  0  0  0  0  0  0  0  0  0  0
   21.2280   -3.5083  -16.7692 C   0  0  0  0  0  0  0  0  0  0  0  0
   21.1516   -4.9882  -16.8462 C   0  0  0  0  0  0  0  0  0  0  0  0
   20.8401   -5.6847  -15.5514 C   0  0  2  0  0  0  0  0  0  0  0  0
   20.9085   -7.1245  -15.7095 N   0  0  0  0  0  0  0  0  0  0  0  0
   19.5768   -5.2480  -14.9371 C   0  0  0  0  0  0  0  0  0  0  0  0
   18.5062   -5.8766  -14.9582 O   0  0  0  0  0  0  0  0  0  0  0  0
   19.5549   -4.0151  -14.2619 O   0  0  0  0  0  0  0  0  0  0  0  0
  2  1  1  1
  3  2  1  0
  4  5  2  0
  4  2  1  0
  7  6  1  6
  7  9  1  0
  8  7  1  0
  9 11  1  0
  9 10  1  6
 10  4  1  0
 11 18  1  0
 12 11  2  0
 14 13  1  0
 15 14  1  0
 17 16  1  6
 16 15  1  0
 18 17  1  0
 19 21  1  0
 19 17  1  0
 20 19  2  0
M  END
$$$$
