TWW.pdb
     RDKit          3D

 36 39  0  0  1  0  0  0  0  0999 V2000
   10.0936  -20.3505   21.8179 C   0  0  0  0  0  0  0  0  0  0  0  0
    8.9978  -20.5954   20.8334 C   0  0  1  0  0  0  0  0  0  0  0  0
    8.5015  -21.9066   20.8944 O   0  0  0  0  0  0  0  0  0  0  0  0
    7.8652  -19.6072   20.9188 C   0  0  2  0  0  0  0  0  0  0  0  0
    6.8057  -19.9095   19.9926 N   0  0  0  0  0  0  0  0  0  0  0  0
    8.3983  -18.2415   20.7352 C   0  0  0  0  0  0  0  0  0  0  0  0
    8.9551  -17.9454   19.6515 O   0  0  0  0  0  0  0  0  0  0  0  0
    8.2934  -17.2784   21.7430 N   0  0  0  0  0  0  0  0  0  0  0  0
    8.7455  -15.9087   21.6273 C   0  0  1  0  0  0  0  0  0  0  0  0
    7.5857  -14.9753   21.9822 C   0  0  0  0  0  0  0  0  0  0  0  0
    7.1634  -15.1389   23.3815 C   0  0  0  0  0  0  0  0  0  0  0  0
    6.6692  -16.2980   23.9455 C   0  0  0  0  0  0  0  0  0  0  0  0
    6.3847  -16.0869   25.2443 N   0  0  0  0  0  0  0  0  0  0  0  0
    6.6859  -14.8065   25.5382 C   0  0  0  0  0  0  0  0  0  0  0  0
    6.6118  -14.0310   26.6747 C   0  0  0  0  0  0  0  0  0  0  0  0
    7.0010  -12.7076   26.6856 C   0  0  0  0  0  0  0  0  0  0  0  0
    7.4794  -12.1404   25.5245 C   0  0  0  0  0  0  0  0  0  0  0  0
    7.5715  -12.8764   24.3639 C   0  0  0  0  0  0  0  0  0  0  0  0
    7.1740  -14.1957   24.3888 C   0  0  0  0  0  0  0  0  0  0  0  0
    9.8184  -15.6921   22.6275 C   0  0  0  0  0  0  0  0  0  0  0  0
   10.4194  -14.5812   22.7445 O   0  0  0  0  0  0  0  0  0  0  0  0
   10.2207  -16.7286   23.5033 N   0  0  0  0  0  0  0  0  0  0  0  0
   11.5623  -16.8200   24.0401 C   0  0  1  0  0  0  0  0  0  0  0  0
   11.7010  -15.6929   25.0446 C   0  0  0  0  0  0  0  0  0  0  0  0
   11.1512  -16.0170   26.3683 C   0  0  0  0  0  0  0  0  0  0  0  0
   11.1967  -17.2463   26.9888 C   0  0  0  0  0  0  0  0  0  0  0  0
   10.5824  -17.1119   28.1773 N   0  0  0  0  0  0  0  0  0  0  0  0
   10.1498  -15.8463   28.3338 C   0  0  0  0  0  0  0  0  0  0  0  0
    9.4754  -15.2266   29.3645 C   0  0  0  0  0  0  0  0  0  0  0  0
    9.1695  -13.8891   29.2183 C   0  0  0  0  0  0  0  0  0  0  0  0
    9.5053  -13.1576   28.1008 C   0  0  0  0  0  0  0  0  0  0  0  0
   10.1768  -13.7766   27.0757 C   0  0  0  0  0  0  0  0  0  0  0  0
   10.4879  -15.1129   27.2103 C   0  0  0  0  0  0  0  0  0  0  0  0
   11.7284  -18.1471   24.6544 C   0  0  0  0  0  0  0  0  0  0  0  0
   12.9329  -18.6238   25.1485 O   0  0  0  0  0  0  0  0  0  0  0  0
   10.7246  -18.8984   24.7400 O   0  0  0  0  0  0  0  0  0  0  0  0
  2  1  1  1
  2  3  1  0
  4  2  1  0
  4  5  1  6
  6  7  2  0
  6  4  1  0
  8  6  1  0
  9  8  1  0
  9 10  1  1
 11 10  1  0
 11 19  1  0
 12 13  1  0
 12 11  2  0
 13 14  1  0
 14 15  2  0
 14 19  1  0
 15 16  1  0
 16 17  2  0
 18 17  1  0
 19 18  2  0
 20 21  2  0
 20  9  1  0
 22 20  1  0
 23 22  1  0
 23 24  1  1
 25 24  1  0
 25 26  2  0
 27 26  1  0
 28 27  1  0
 29 28  2  0
 30 29  1  0
 31 30  2  0
 31 32  1  0
 32 33  2  0
 33 28  1  0
 33 25  1  0
 34 23  1  0
 35 34  1  0
 36 34  2  0
M  END
$$$$
