TWW.pdb
     RDKit          3D

 36 39  0  0  1  0  0  0  0  0999 V2000
   10.9544  -17.5909   19.8891 C   0  0  0  0  0  0  0  0  0  0  0  0
    9.8748  -17.2913   18.9018 C   0  0  1  0  0  0  0  0  0  0  0  0
    9.7652  -18.2755   17.9076 O   0  0  0  0  0  0  0  0  0  0  0  0
    8.5293  -17.0313   19.5253 C   0  0  2  0  0  0  0  0  0  0  0  0
    7.4798  -16.9470   18.5439 N   0  0  0  0  0  0  0  0  0  0  0  0
    8.6104  -15.8188   20.3658 C   0  0  0  0  0  0  0  0  0  0  0  0
    7.9543  -14.8029   20.0346 O   0  0  0  0  0  0  0  0  0  0  0  0
    9.4014  -15.7842   21.5178 N   0  0  0  0  0  0  0  0  0  0  0  0
    8.9751  -15.2599   22.7975 C   0  0  1  0  0  0  0  0  0  0  0  0
    7.5725  -15.7899   23.1045 C   0  0  0  0  0  0  0  0  0  0  0  0
    7.0421  -15.2329   24.3581 C   0  0  0  0  0  0  0  0  0  0  0  0
    6.5207  -15.9614   25.4085 C   0  0  0  0  0  0  0  0  0  0  0  0
    6.1304  -15.1282   26.3911 N   0  0  0  0  0  0  0  0  0  0  0  0
    6.3890  -13.8649   25.9989 C   0  0  0  0  0  0  0  0  0  0  0  0
    6.2135  -12.6206   26.5641 C   0  0  0  0  0  0  0  0  0  0  0  0
    6.5818  -11.4614   25.9133 C   0  0  0  0  0  0  0  0  0  0  0  0
    7.1435  -11.5474   24.6580 C   0  0  0  0  0  0  0  0  0  0  0  0
    7.3384  -12.7693   24.0528 C   0  0  0  0  0  0  0  0  0  0  0  0
    6.9588  -13.9070   24.7315 C   0  0  0  0  0  0  0  0  0  0  0  0
    9.8913  -15.7850   23.8382 C   0  0  0  0  0  0  0  0  0  0  0  0
    9.6018  -15.7521   25.0728 O   0  0  0  0  0  0  0  0  0  0  0  0
   11.1414  -16.3514   23.4927 N   0  0  0  0  0  0  0  0  0  0  0  0
   12.0439  -16.9104   24.4774 C   0  0  1  0  0  0  0  0  0  0  0  0
   11.4891  -18.2727   24.8444 C   0  0  0  0  0  0  0  0  0  0  0  0
   10.5906  -18.2455   26.0070 C   0  0  0  0  0  0  0  0  0  0  0  0
   10.8405  -17.6288   27.2135 C   0  0  0  0  0  0  0  0  0  0  0  0
    9.7688  -17.8437   27.9964 N   0  0  0  0  0  0  0  0  0  0  0  0
    8.8503  -18.5719   27.3336 C   0  0  0  0  0  0  0  0  0  0  0  0
    7.6074  -19.0403   27.7037 C   0  0  0  0  0  0  0  0  0  0  0  0
    6.8958  -19.7731   26.7762 C   0  0  0  0  0  0  0  0  0  0  0  0
    7.3691  -20.0523   25.5134 C   0  0  0  0  0  0  0  0  0  0  0  0
    8.6069  -19.5851   25.1469 C   0  0  0  0  0  0  0  0  0  0  0  0
    9.3274  -18.8515   26.0653 C   0  0  0  0  0  0  0  0  0  0  0  0
   13.3886  -16.9897   23.8844 C   0  0  0  0  0  0  0  0  0  0  0  0
   14.5266  -17.3380   24.5955 O   0  0  0  0  0  0  0  0  0  0  0  0
   13.5217  -16.7280   22.6624 O   0  0  0  0  0  0  0  0  0  0  0  0
  2  1  1  1
  2  3  1  0
  4  2  1  0
  4  5  1  6
  6  7  2  0
  6  4  1  0
  8  6  1  0
  9  8  1  0
  9 10  1  1
 11 10  1  0
 11 19  1  0
 12 13  1  0
 12 11  2  0
 13 14  1  0
 14 15  2  0
 14 19  1  0
 15 16  1  0
 16 17  2  0
 18 17  1  0
 19 18  2  0
 20 21  2  0
 20  9  1  0
 22 20  1  0
 23 22  1  0
 23 24  1  6
 25 24  1  0
 25 26  2  0
 27 26  1  0
 28 27  1  0
 29 28  2  0
 30 29  1  0
 31 30  2  0
 31 32  1  0
 32 33  2  0
 33 28  1  0
 33 25  1  0
 34 23  1  0
 35 34  1  0
 36 34  2  0
M  END
$$$$
