TWW.pdb
     RDKit          3D

 36 39  0  0  1  0  0  0  0  0999 V2000
   11.1067  -19.4131   19.1496 C   0  0  0  0  0  0  0  0  0  0  0  0
   11.4065  -18.2210   18.3015 C   0  0  1  0  0  0  0  0  0  0  0  0
   11.6835  -18.5633   16.9691 O   0  0  0  0  0  0  0  0  0  0  0  0
   10.3491  -17.1506   18.3535 C   0  0  2  0  0  0  0  0  0  0  0  0
   10.5652  -16.1215   17.3706 N   0  0  0  0  0  0  0  0  0  0  0  0
   10.2744  -16.6089   19.7261 C   0  0  0  0  0  0  0  0  0  0  0  0
   10.9933  -15.6290   20.0343 O   0  0  0  0  0  0  0  0  0  0  0  0
    9.4207  -17.1666   20.6824 N   0  0  0  0  0  0  0  0  0  0  0  0
    9.2150  -16.6392   22.0142 C   0  0  1  0  0  0  0  0  0  0  0  0
    7.7142  -16.4421   22.2397 C   0  0  0  0  0  0  0  0  0  0  0  0
    7.4116  -15.0945   22.7450 C   0  0  0  0  0  0  0  0  0  0  0  0
    7.2457  -13.9614   21.9738 C   0  0  0  0  0  0  0  0  0  0  0  0
    6.9795  -12.9063   22.7663 N   0  0  0  0  0  0  0  0  0  0  0  0
    6.9686  -13.3326   24.0449 C   0  0  0  0  0  0  0  0  0  0  0  0
    6.7596  -12.7280   25.2653 C   0  0  0  0  0  0  0  0  0  0  0  0
    6.8107  -13.4321   26.4504 C   0  0  0  0  0  0  0  0  0  0  0  0
    7.0790  -14.7832   26.4159 C   0  0  0  0  0  0  0  0  0  0  0  0
    7.2948  -15.4308   25.2195 C   0  0  0  0  0  0  0  0  0  0  0  0
    7.2363  -14.6967   24.0548 C   0  0  0  0  0  0  0  0  0  0  0  0
    9.6862  -17.6529   22.9883 C   0  0  0  0  0  0  0  0  0  0  0  0
    8.8857  -18.4119   23.6146 O   0  0  0  0  0  0  0  0  0  0  0  0
   11.0649  -17.8171   23.2626 N   0  0  0  0  0  0  0  0  0  0  0  0
   11.6070  -17.7522   24.6036 C   0  0  1  0  0  0  0  0  0  0  0  0
   11.3720  -16.3370   25.0941 C   0  0  0  0  0  0  0  0  0  0  0  0
   10.8739  -16.2709   26.4751 C   0  0  0  0  0  0  0  0  0  0  0  0
   10.7329  -17.3338   27.3404 C   0  0  0  0  0  0  0  0  0  0  0  0
   10.2482  -16.8422   28.4942 N   0  0  0  0  0  0  0  0  0  0  0  0
   10.0768  -15.5103   28.3937 C   0  0  0  0  0  0  0  0  0  0  0  0
    9.6133  -14.5731   29.2927 C   0  0  0  0  0  0  0  0  0  0  0  0
    9.5564  -13.2587   28.8769 C   0  0  0  0  0  0  0  0  0  0  0  0
    9.9382  -12.8498   27.6184 C   0  0  0  0  0  0  0  0  0  0  0  0
   10.3993  -13.7846   26.7249 C   0  0  0  0  0  0  0  0  0  0  0  0
   10.4607  -15.1012   27.1290 C   0  0  0  0  0  0  0  0  0  0  0  0
   10.9219  -18.7577   25.4318 C   0  0  0  0  0  0  0  0  0  0  0  0
   11.5662  -19.5652   26.3564 O   0  0  0  0  0  0  0  0  0  0  0  0
    9.6802  -18.8988   25.2992 O   0  0  0  0  0  0  0  0  0  0  0  0
  2  1  1  1
  2  3  1  0
  4  2  1  0
  4  5  1  6
  6  7  2  0
  6  4  1  0
  8  6  1  0
  9  8  1  0
  9 10  1  1
 11 10  1  0
 11 19  1  0
 12 13  1  0
 12 11  2  0
 13 14  1  0
 14 15  2  0
 14 19  1  0
 15 16  1  0
 16 17  2  0
 18 17  1  0
 19 18  2  0
 20 21  2  0
 20  9  1  0
 22 20  1  0
 23 22  1  0
 23 24  1  1
 25 24  1  0
 25 26  2  0
 27 26  1  0
 28 27  1  0
 29 28  2  0
 30 29  1  0
 31 30  2  0
 31 32  1  0
 32 33  2  0
 33 28  1  0
 33 25  1  0
 34 23  1  0
 35 34  1  0
 36 34  2  0
M  END
$$$$
