TWW.pdb
     RDKit          3D

 36 39  0  0  1  0  0  0  0  0999 V2000
   10.7008  -19.4668   19.4393 C   0  0  0  0  0  0  0  0  0  0  0  0
   11.1902  -18.3378   18.5931 C   0  0  1  0  0  0  0  0  0  0  0  0
   11.5186  -18.7434   17.2905 O   0  0  0  0  0  0  0  0  0  0  0  0
   10.2582  -17.1561   18.5494 C   0  0  2  0  0  0  0  0  0  0  0  0
   10.6790  -16.1638   17.5956 N   0  0  0  0  0  0  0  0  0  0  0  0
   10.1152  -16.6006   19.9111 C   0  0  0  0  0  0  0  0  0  0  0  0
   11.0338  -15.8856   20.3769 O   0  0  0  0  0  0  0  0  0  0  0  0
    8.9797  -16.8566   20.6853 N   0  0  0  0  0  0  0  0  0  0  0  0
    8.7756  -16.3788   22.0359 C   0  0  1  0  0  0  0  0  0  0  0  0
    7.2855  -16.4729   22.3719 C   0  0  0  0  0  0  0  0  0  0  0  0
    7.0055  -16.0128   23.7405 C   0  0  0  0  0  0  0  0  0  0  0  0
    6.6294  -16.8134   24.8004 C   0  0  0  0  0  0  0  0  0  0  0  0
    6.4569  -16.0590   25.9020 N   0  0  0  0  0  0  0  0  0  0  0  0
    6.7149  -14.7764   25.5781 C   0  0  0  0  0  0  0  0  0  0  0  0
    6.7060  -13.5833   26.2673 C   0  0  0  0  0  0  0  0  0  0  0  0
    7.0226  -12.3849   25.6621 C   0  0  0  0  0  0  0  0  0  0  0  0
    7.3590  -12.3774   24.3258 C   0  0  0  0  0  0  0  0  0  0  0  0
    7.3814  -13.5454   23.5959 C   0  0  0  0  0  0  0  0  0  0  0  0
    7.0596  -14.7246   24.2324 C   0  0  0  0  0  0  0  0  0  0  0  0
    9.5021  -17.2836   22.9588 C   0  0  0  0  0  0  0  0  0  0  0  0
    9.4903  -18.5442   22.8182 O   0  0  0  0  0  0  0  0  0  0  0  0
   10.2475  -16.7717   24.0476 N   0  0  0  0  0  0  0  0  0  0  0  0
   11.2040  -17.5718   24.7834 C   0  0  1  0  0  0  0  0  0  0  0  0
   11.9343  -16.6221   25.7125 C   0  0  0  0  0  0  0  0  0  0  0  0
   11.2179  -16.3659   26.9697 C   0  0  0  0  0  0  0  0  0  0  0  0
   10.9782  -17.2823   27.9702 C   0  0  0  0  0  0  0  0  0  0  0  0
   10.2961  -16.6429   28.9365 N   0  0  0  0  0  0  0  0  0  0  0  0
   10.0945  -15.3580   28.5874 C   0  0  0  0  0  0  0  0  0  0  0  0
    9.4581  -14.3193   29.2335 C   0  0  0  0  0  0  0  0  0  0  0  0
    9.4209  -13.0952   28.5979 C   0  0  0  0  0  0  0  0  0  0  0  0
    9.9854  -12.8711   27.3619 C   0  0  0  0  0  0  0  0  0  0  0  0
   10.6185  -13.9066   26.7203 C   0  0  0  0  0  0  0  0  0  0  0  0
   10.6621  -15.1346   27.3456 C   0  0  0  0  0  0  0  0  0  0  0  0
   10.4714  -18.6209   25.5108 C   0  0  0  0  0  0  0  0  0  0  0  0
    9.0886  -18.7131   25.5471 O   0  0  0  0  0  0  0  0  0  0  0  0
   11.1305  -19.4876   26.1382 O   0  0  0  0  0  0  0  0  0  0  0  0
  2  1  1  6
  2  3  1  0
  4  2  1  0
  4  5  1  6
  6  7  2  0
  6  4  1  0
  8  6  1  0
  9  8  1  0
  9 10  1  1
 11 10  1  0
 11 19  1  0
 12 13  1  0
 12 11  2  0
 13 14  1  0
 14 15  2  0
 14 19  1  0
 15 16  1  0
 16 17  2  0
 18 17  1  0
 19 18  2  0
 20 21  2  0
 20  9  1  0
 22 20  1  0
 23 22  1  0
 23 24  1  1
 25 24  1  0
 25 26  2  0
 27 26  1  0
 28 27  1  0
 29 28  2  0
 30 29  1  0
 31 30  2  0
 31 32  1  0
 32 33  2  0
 33 28  1  0
 33 25  1  0
 34 23  1  0
 35 34  1  0
 36 34  2  0
M  END
$$$$
