TWW.pdb
     RDKit          3D

 36 39  0  0  1  0  0  0  0  0999 V2000
   10.2288  -22.1611   22.1215 C   0  0  0  0  0  0  0  0  0  0  0  0
   10.1313  -20.6713   22.1558 C   0  0  1  0  0  0  0  0  0  0  0  0
   11.3878  -20.0478   22.1134 O   0  0  0  0  0  0  0  0  0  0  0  0
    9.2285  -20.0919   21.0994 C   0  0  2  0  0  0  0  0  0  0  0  0
    9.5582  -20.5643   19.7803 N   0  0  0  0  0  0  0  0  0  0  0  0
    9.2585  -18.6175   21.1913 C   0  0  0  0  0  0  0  0  0  0  0  0
    9.9215  -17.9679   20.3484 O   0  0  0  0  0  0  0  0  0  0  0  0
    8.5641  -17.9374   22.1961 N   0  0  0  0  0  0  0  0  0  0  0  0
    8.5408  -16.4993   22.3561 C   0  0  1  0  0  0  0  0  0  0  0  0
    7.2171  -16.0979   23.0110 C   0  0  0  0  0  0  0  0  0  0  0  0
    7.1421  -14.6475   23.2434 C   0  0  0  0  0  0  0  0  0  0  0  0
    7.3874  -13.6656   22.3044 C   0  0  0  0  0  0  0  0  0  0  0  0
    7.2263  -12.4513   22.8628 N   0  0  0  0  0  0  0  0  0  0  0  0
    6.8791  -12.6245   24.1535 C   0  0  0  0  0  0  0  0  0  0  0  0
    6.5895  -11.7766   25.2003 C   0  0  0  0  0  0  0  0  0  0  0  0
    6.2553  -12.2466   26.4534 C   0  0  0  0  0  0  0  0  0  0  0  0
    6.2087  -13.6070   26.6682 C   0  0  0  0  0  0  0  0  0  0  0  0
    6.4904  -14.4932   25.6521 C   0  0  0  0  0  0  0  0  0  0  0  0
    6.8206  -13.9891   24.4128 C   0  0  0  0  0  0  0  0  0  0  0  0
    9.6337  -16.1218   23.2843 C   0  0  0  0  0  0  0  0  0  0  0  0
    9.8936  -14.9127   23.5664 O   0  0  0  0  0  0  0  0  0  0  0  0
   10.4414  -17.1069   23.9009 N   0  0  0  0  0  0  0  0  0  0  0  0
   11.6336  -16.7791   24.6544 C   0  0  1  0  0  0  0  0  0  0  0  0
   11.4817  -17.4421   26.0093 C   0  0  0  0  0  0  0  0  0  0  0  0
   10.4384  -16.8327   26.8459 C   0  0  0  0  0  0  0  0  0  0  0  0
    9.2027  -17.3734   27.1269 C   0  0  0  0  0  0  0  0  0  0  0  0
    8.5606  -16.4993   27.9216 N   0  0  0  0  0  0  0  0  0  0  0  0
    9.3408  -15.4267   28.1549 C   0  0  0  0  0  0  0  0  0  0  0  0
    9.1326  -14.2828   28.8961 C   0  0  0  0  0  0  0  0  0  0  0  0
   10.1500  -13.3517   28.9380 C   0  0  0  0  0  0  0  0  0  0  0  0
   11.3482  -13.5154   28.2791 C   0  0  0  0  0  0  0  0  0  0  0  0
   11.5534  -14.6551   27.5417 C   0  0  0  0  0  0  0  0  0  0  0  0
   10.5440  -15.5928   27.4923 C   0  0  0  0  0  0  0  0  0  0  0  0
   12.8041  -17.2740   23.9119 C   0  0  0  0  0  0  0  0  0  0  0  0
   12.7224  -17.9586   22.7092 O   0  0  0  0  0  0  0  0  0  0  0  0
   13.9482  -17.0680   24.3893 O   0  0  0  0  0  0  0  0  0  0  0  0
  2  1  1  6
  2  3  1  0
  4  2  1  0
  4  5  1  6
  6  7  2  0
  6  4  1  0
  8  6  1  0
  9  8  1  0
  9 10  1  1
 11 10  1  0
 11 19  1  0
 12 13  1  0
 12 11  2  0
 13 14  1  0
 14 15  2  0
 14 19  1  0
 15 16  1  0
 16 17  2  0
 18 17  1  0
 19 18  2  0
 20 21  2  0
 20  9  1  0
 22 20  1  0
 23 22  1  0
 23 24  1  1
 25 24  1  0
 25 26  2  0
 27 26  1  0
 28 27  1  0
 29 28  2  0
 30 29  1  0
 31 30  2  0
 31 32  1  0
 32 33  2  0
 33 28  1  0
 33 25  1  0
 34 23  1  0
 35 34  1  0
 36 34  2  0
M  END
$$$$
