TWW.pdb
     RDKit          3D

 36 39  0  0  1  0  0  0  0  0999 V2000
    8.1178  -15.4479   16.3695 C   0  0  0  0  0  0  0  0  0  0  0  0
    8.4978  -15.3670   17.8114 C   0  0  1  0  0  0  0  0  0  0  0  0
    9.8710  -15.1441   17.9953 O   0  0  0  0  0  0  0  0  0  0  0  0
    7.6990  -14.3637   18.6002 C   0  0  2  0  0  0  0  0  0  0  0  0
    7.7115  -13.0581   17.9945 N   0  0  0  0  0  0  0  0  0  0  0  0
    8.1899  -14.3407   19.9936 C   0  0  0  0  0  0  0  0  0  0  0  0
    9.0061  -13.4531   20.3374 O   0  0  0  0  0  0  0  0  0  0  0  0
    7.7626  -15.2859   20.9308 N   0  0  0  0  0  0  0  0  0  0  0  0
    8.1135  -15.2746   22.3347 C   0  0  1  0  0  0  0  0  0  0  0  0
    7.1609  -16.2058   23.0881 C   0  0  0  0  0  0  0  0  0  0  0  0
    6.4598  -15.5049   24.1745 C   0  0  0  0  0  0  0  0  0  0  0  0
    5.3908  -15.9977   24.8957 C   0  0  0  0  0  0  0  0  0  0  0  0
    5.0010  -15.0898   25.8100 N   0  0  0  0  0  0  0  0  0  0  0  0
    5.7998  -14.0100   25.6977 C   0  0  0  0  0  0  0  0  0  0  0  0
    5.8837  -12.7963   26.3445 C   0  0  0  0  0  0  0  0  0  0  0  0
    6.8310  -11.8511   26.0096 C   0  0  0  0  0  0  0  0  0  0  0  0
    7.7233  -12.1268   24.9963 C   0  0  0  0  0  0  0  0  0  0  0  0
    7.6778  -13.3265   24.3212 C   0  0  0  0  0  0  0  0  0  0  0  0
    6.7185  -14.2478   24.6817 C   0  0  0  0  0  0  0  0  0  0  0  0
    9.4827  -15.8269   22.4712 C   0  0  0  0  0  0  0  0  0  0  0  0
   10.0175  -16.5393   21.5681 O   0  0  0  0  0  0  0  0  0  0  0  0
   10.2585  -15.5787   23.6286 N   0  0  0  0  0  0  0  0  0  0  0  0
   11.5624  -16.1731   23.8365 C   0  0  1  0  0  0  0  0  0  0  0  0
   12.0948  -15.5982   25.1344 C   0  0  0  0  0  0  0  0  0  0  0  0
   11.2088  -15.8282   26.2840 C   0  0  0  0  0  0  0  0  0  0  0  0
   10.2756  -16.8349   26.4026 C   0  0  0  0  0  0  0  0  0  0  0  0
    9.6839  -16.6858   27.6008 N   0  0  0  0  0  0  0  0  0  0  0  0
   10.2056  -15.6247   28.2454 C   0  0  0  0  0  0  0  0  0  0  0  0
    9.9343  -15.0758   29.4808 C   0  0  0  0  0  0  0  0  0  0  0  0
   10.6578  -13.9643   29.8616 C   0  0  0  0  0  0  0  0  0  0  0  0
   11.6262  -13.3885   29.0696 C   0  0  0  0  0  0  0  0  0  0  0  0
   11.8947  -13.9367   27.8399 C   0  0  0  0  0  0  0  0  0  0  0  0
   11.1782  -15.0475   27.4484 C   0  0  0  0  0  0  0  0  0  0  0  0
   11.4041  -17.6354   23.8898 C   0  0  0  0  0  0  0  0  0  0  0  0
   10.1817  -18.2751   24.0263 O   0  0  0  0  0  0  0  0  0  0  0  0
   12.4322  -18.3534   23.8076 O   0  0  0  0  0  0  0  0  0  0  0  0
  2  1  1  6
  2  3  1  0
  4  2  1  0
  4  5  1  6
  6  7  2  0
  6  4  1  0
  8  6  1  0
  9  8  1  0
  9 10  1  1
 11 10  1  0
 11 19  1  0
 12 13  1  0
 12 11  2  0
 13 14  1  0
 14 15  2  0
 14 19  1  0
 15 16  1  0
 16 17  2  0
 18 17  1  0
 19 18  2  0
 20 21  2  0
 20  9  1  0
 22 20  1  0
 23 22  1  0
 23 24  1  1
 25 24  1  0
 25 26  2  0
 27 26  1  0
 28 27  1  0
 29 28  2  0
 30 29  1  0
 31 30  2  0
 31 32  1  0
 32 33  2  0
 33 28  1  0
 33 25  1  0
 34 23  1  0
 35 34  1  0
 36 34  2  0
M  END
$$$$
