TWW.pdb
     RDKit          3D

 36 39  0  0  1  0  0  0  0  0999 V2000
    5.9793  -20.2625   21.0988 C   0  0  0  0  0  0  0  0  0  0  0  0
    7.0491  -19.2207   21.1154 C   0  0  1  0  0  0  0  0  0  0  0  0
    8.0785  -19.4905   20.2006 O   0  0  0  0  0  0  0  0  0  0  0  0
    6.5401  -17.8167   20.9247 C   0  0  2  0  0  0  0  0  0  0  0  0
    5.8111  -17.6627   19.6932 N   0  0  0  0  0  0  0  0  0  0  0  0
    7.6717  -16.8723   21.0288 C   0  0  0  0  0  0  0  0  0  0  0  0
    8.0121  -16.2154   20.0165 O   0  0  0  0  0  0  0  0  0  0  0  0
    8.3659  -16.6988   22.2297 N   0  0  0  0  0  0  0  0  0  0  0  0
    9.5390  -15.8676   22.3934 C   0  0  1  0  0  0  0  0  0  0  0  0
    9.0960  -14.4730   22.8419 C   0  0  0  0  0  0  0  0  0  0  0  0
    8.1728  -14.5361   23.9851 C   0  0  0  0  0  0  0  0  0  0  0  0
    7.7934  -15.6824   24.6543 C   0  0  0  0  0  0  0  0  0  0  0  0
    6.9389  -15.3689   25.6461 N   0  0  0  0  0  0  0  0  0  0  0  0
    6.7538  -14.0339   25.6357 C   0  0  0  0  0  0  0  0  0  0  0  0
    6.0098  -13.1538   26.3909 C   0  0  0  0  0  0  0  0  0  0  0  0
    6.0112  -11.7960   26.1472 C   0  0  0  0  0  0  0  0  0  0  0  0
    6.7803  -11.3012   25.1164 C   0  0  0  0  0  0  0  0  0  0  0  0
    7.5404  -12.1427   24.3345 C   0  0  0  0  0  0  0  0  0  0  0  0
    7.5153  -13.4935   24.6058 C   0  0  0  0  0  0  0  0  0  0  0  0
   10.3657  -16.4470   23.4793 C   0  0  0  0  0  0  0  0  0  0  0  0
   10.0111  -17.4830   24.1195 O   0  0  0  0  0  0  0  0  0  0  0  0
   11.5992  -15.8607   23.8505 N   0  0  0  0  0  0  0  0  0  0  0  0
   12.4377  -16.4044   24.8984 C   0  0  1  0  0  0  0  0  0  0  0  0
   11.7149  -17.6226   25.4386 C   0  0  0  0  0  0  0  0  0  0  0  0
   10.6651  -17.2963   26.4139 C   0  0  0  0  0  0  0  0  0  0  0  0
    9.5943  -18.0941   26.7534 C   0  0  0  0  0  0  0  0  0  0  0  0
    8.8798  -17.4250   27.6751 N   0  0  0  0  0  0  0  0  0  0  0  0
    9.4557  -16.2353   27.9326 C   0  0  0  0  0  0  0  0  0  0  0  0
    9.1062  -15.2110   28.7870 C   0  0  0  0  0  0  0  0  0  0  0  0
    9.9212  -14.0982   28.8214 C   0  0  0  0  0  0  0  0  0  0  0  0
   11.0537  -13.9700   28.0482 C   0  0  0  0  0  0  0  0  0  0  0  0
   11.3998  -14.9910   27.1982 C   0  0  0  0  0  0  0  0  0  0  0  0
   10.5931  -16.1081   27.1551 C   0  0  0  0  0  0  0  0  0  0  0  0
   13.7493  -16.7370   24.3194 C   0  0  0  0  0  0  0  0  0  0  0  0
   13.9169  -17.5103   23.1810 O   0  0  0  0  0  0  0  0  0  0  0  0
   14.7829  -16.2982   24.8839 O   0  0  0  0  0  0  0  0  0  0  0  0
  2  1  1  6
  2  3  1  0
  4  2  1  0
  4  5  1  6
  6  7  2  0
  6  4  1  0
  8  6  1  0
  9  8  1  0
  9 10  1  1
 11 10  1  0
 11 19  1  0
 12 13  1  0
 12 11  2  0
 13 14  1  0
 14 15  2  0
 14 19  1  0
 15 16  1  0
 16 17  2  0
 18 17  1  0
 19 18  2  0
 20 21  2  0
 20  9  1  0
 22 20  1  0
 23 22  1  0
 23 24  1  6
 25 24  1  0
 25 26  2  0
 27 26  1  0
 28 27  1  0
 29 28  2  0
 30 29  1  0
 31 30  2  0
 31 32  1  0
 32 33  2  0
 33 28  1  0
 33 25  1  0
 34 23  1  0
 35 34  1  0
 36 34  2  0
M  END
$$$$
