TWW.pdb
     RDKit          3D

 36 39  0  0  1  0  0  0  0  0999 V2000
   10.8488  -19.3906   19.2217 C   0  0  0  0  0  0  0  0  0  0  0  0
   10.7520  -18.3257   18.1791 C   0  0  1  0  0  0  0  0  0  0  0  0
   10.9348  -18.8248   16.8803 O   0  0  0  0  0  0  0  0  0  0  0  0
    9.4869  -17.5125   18.2494 C   0  0  2  0  0  0  0  0  0  0  0  0
    9.3426  -16.6286   17.1226 N   0  0  0  0  0  0  0  0  0  0  0  0
    9.4455  -16.7906   19.5379 C   0  0  0  0  0  0  0  0  0  0  0  0
   10.2910  -15.8917   19.7601 O   0  0  0  0  0  0  0  0  0  0  0  0
    8.4853  -17.0902   20.5087 N   0  0  0  0  0  0  0  0  0  0  0  0
    8.4487  -16.5201   21.8383 C   0  0  1  0  0  0  0  0  0  0  0  0
    7.2592  -17.1139   22.5964 C   0  0  0  0  0  0  0  0  0  0  0  0
    6.9374  -16.3346   23.8015 C   0  0  0  0  0  0  0  0  0  0  0  0
    6.3046  -16.8169   24.9298 C   0  0  0  0  0  0  0  0  0  0  0  0
    6.1728  -15.8293   25.8351 N   0  0  0  0  0  0  0  0  0  0  0  0
    6.7105  -14.7079   25.3156 C   0  0  0  0  0  0  0  0  0  0  0  0
    6.8669  -13.4132   25.7605 C   0  0  0  0  0  0  0  0  0  0  0  0
    7.4738  -12.4421   24.9913 C   0  0  0  0  0  0  0  0  0  0  0  0
    7.9396  -12.7744   23.7377 C   0  0  0  0  0  0  0  0  0  0  0  0
    7.8055  -14.0558   23.2505 C   0  0  0  0  0  0  0  0  0  0  0  0
    7.1941  -15.0009   24.0455 C   0  0  0  0  0  0  0  0  0  0  0  0
    9.6838  -16.9300   22.5488 C   0  0  0  0  0  0  0  0  0  0  0  0
   10.3287  -17.9763   22.2351 O   0  0  0  0  0  0  0  0  0  0  0  0
   10.2002  -16.1612   23.6191 N   0  0  0  0  0  0  0  0  0  0  0  0
   11.4720  -16.4526   24.2469 C   0  0  1  0  0  0  0  0  0  0  0  0
   11.6080  -15.4895   25.4098 C   0  0  0  0  0  0  0  0  0  0  0  0
   10.9959  -15.9811   26.6521 C   0  0  0  0  0  0  0  0  0  0  0  0
   10.9435  -17.2933   27.0688 C   0  0  0  0  0  0  0  0  0  0  0  0
   10.3005  -17.3074   28.2496 N   0  0  0  0  0  0  0  0  0  0  0  0
    9.9438  -16.0562   28.5969 C   0  0  0  0  0  0  0  0  0  0  0  0
    9.2766  -15.5633   29.6984 C   0  0  0  0  0  0  0  0  0  0  0  0
    9.0607  -14.2020   29.7613 C   0  0  0  0  0  0  0  0  0  0  0  0
    9.4782  -13.3272   28.7829 C   0  0  0  0  0  0  0  0  0  0  0  0
   10.1423  -13.8202   27.6871 C   0  0  0  0  0  0  0  0  0  0  0  0
   10.3639  -15.1789   27.6130 C   0  0  0  0  0  0  0  0  0  0  0  0
   11.4669  -17.8601   24.6773 C   0  0  0  0  0  0  0  0  0  0  0  0
   12.6015  -18.5492   25.0772 O   0  0  0  0  0  0  0  0  0  0  0  0
   10.3742  -18.4808   24.6858 O   0  0  0  0  0  0  0  0  0  0  0  0
  2  1  1  1
  2  3  1  0
  4  2  1  0
  4  5  1  6
  6  7  2  0
  6  4  1  0
  8  6  1  0
  9  8  1  0
  9 10  1  1
 11 10  1  0
 11 19  1  0
 12 13  1  0
 12 11  2  0
 13 14  1  0
 14 15  2  0
 14 19  1  0
 15 16  1  0
 16 17  2  0
 18 17  1  0
 19 18  2  0
 20 21  2  0
 20  9  1  0
 22 20  1  0
 23 22  1  0
 23 24  1  1
 25 24  1  0
 25 26  2  0
 27 26  1  0
 28 27  1  0
 29 28  2  0
 30 29  1  0
 31 30  2  0
 31 32  1  0
 32 33  2  0
 33 28  1  0
 33 25  1  0
 34 23  1  0
 35 34  1  0
 36 34  2  0
M  END
$$$$
