TWW.pdb
     RDKit          3D

 36 39  0  0  1  0  0  0  0  0999 V2000
    8.2764  -23.7670   24.3057 C   0  0  0  0  0  0  0  0  0  0  0  0
    8.0914  -22.2992   24.1015 C   0  0  1  0  0  0  0  0  0  0  0  0
    8.1210  -21.9356   22.7465 O   0  0  0  0  0  0  0  0  0  0  0  0
    6.8601  -21.7391   24.7625 C   0  0  2  0  0  0  0  0  0  0  0  0
    5.6585  -22.4042   24.3316 N   0  0  0  0  0  0  0  0  0  0  0  0
    6.8073  -20.2805   24.5326 C   0  0  0  0  0  0  0  0  0  0  0  0
    6.1491  -19.8403   23.5605 O   0  0  0  0  0  0  0  0  0  0  0  0
    7.4746  -19.3870   25.3756 N   0  0  0  0  0  0  0  0  0  0  0  0
    7.5658  -17.9589   25.1600 C   0  0  1  0  0  0  0  0  0  0  0  0
    7.6343  -17.2588   26.5192 C   0  0  0  0  0  0  0  0  0  0  0  0
    7.1715  -15.8652   26.4381 C   0  0  0  0  0  0  0  0  0  0  0  0
    5.9114  -15.4540   26.0519 C   0  0  0  0  0  0  0  0  0  0  0  0
    5.8381  -14.1105   26.0939 N   0  0  0  0  0  0  0  0  0  0  0  0
    7.0320  -13.6366   26.5022 C   0  0  0  0  0  0  0  0  0  0  0  0
    7.5481  -12.3794   26.7297 C   0  0  0  0  0  0  0  0  0  0  0  0
    8.8453  -12.1860   27.1572 C   0  0  0  0  0  0  0  0  0  0  0  0
    9.6530  -13.2830   27.3642 C   0  0  0  0  0  0  0  0  0  0  0  0
    9.1810  -14.5592   27.1498 C   0  0  0  0  0  0  0  0  0  0  0  0
    7.8801  -14.7157   26.7229 C   0  0  0  0  0  0  0  0  0  0  0  0
    8.8360  -17.6813   24.4474 C   0  0  0  0  0  0  0  0  0  0  0  0
    9.8366  -18.4574   24.5221 O   0  0  0  0  0  0  0  0  0  0  0  0
    8.9859  -16.5251   23.6450 N   0  0  0  0  0  0  0  0  0  0  0  0
   10.1686  -16.2766   22.8475 C   0  0  1  0  0  0  0  0  0  0  0  0
   10.0707  -14.8413   22.3692 C   0  0  0  0  0  0  0  0  0  0  0  0
    8.7738  -14.5139   21.7605 C   0  0  0  0  0  0  0  0  0  0  0  0
    7.5390  -14.9388   22.1998 C   0  0  0  0  0  0  0  0  0  0  0  0
    6.6221  -14.4169   21.3663 N   0  0  0  0  0  0  0  0  0  0  0  0
    7.2274  -13.6784   20.4167 C   0  0  0  0  0  0  0  0  0  0  0  0
    6.7249  -12.9556   19.3554 C   0  0  0  0  0  0  0  0  0  0  0  0
    7.6255  -12.2929   18.5470 C   0  0  0  0  0  0  0  0  0  0  0  0
    8.9869  -12.3233   18.7534 C   0  0  0  0  0  0  0  0  0  0  0  0
    9.4851  -13.0436   19.8107 C   0  0  0  0  0  0  0  0  0  0  0  0
    8.5948  -13.7100   20.6255 C   0  0  0  0  0  0  0  0  0  0  0  0
   11.3541  -16.5120   23.6873 C   0  0  0  0  0  0  0  0  0  0  0  0
   11.9369  -15.5427   24.4892 O   0  0  0  0  0  0  0  0  0  0  0  0
   11.8748  -17.6558   23.6830 O   0  0  0  0  0  0  0  0  0  0  0  0
  2  1  1  6
  2  3  1  0
  4  2  1  0
  4  5  1  6
  6  7  2  0
  6  4  1  0
  8  6  1  0
  9  8  1  0
  9 10  1  1
 11 10  1  0
 11 19  1  0
 12 13  1  0
 12 11  2  0
 13 14  1  0
 14 15  2  0
 14 19  1  0
 15 16  1  0
 16 17  2  0
 18 17  1  0
 19 18  2  0
 20 21  2  0
 20  9  1  0
 22 20  1  0
 23 22  1  0
 23 24  1  1
 25 24  1  0
 25 26  2  0
 27 26  1  0
 28 27  1  0
 29 28  2  0
 30 29  1  0
 31 30  2  0
 31 32  1  0
 32 33  2  0
 33 28  1  0
 33 25  1  0
 34 23  1  0
 35 34  1  0
 36 34  2  0
M  END
$$$$
