TWW.pdb
     RDKit          3D

 36 39  0  0  1  0  0  0  0  0999 V2000
   11.9752  -19.1155   19.4366 C   0  0  0  0  0  0  0  0  0  0  0  0
   12.0022  -17.9386   18.5177 C   0  0  1  0  0  0  0  0  0  0  0  0
   12.3319  -18.2910   17.2000 O   0  0  0  0  0  0  0  0  0  0  0  0
   10.7398  -17.1185   18.5353 C   0  0  2  0  0  0  0  0  0  0  0  0
   10.7161  -16.1301   17.4892 N   0  0  0  0  0  0  0  0  0  0  0  0
   10.5682  -16.5211   19.8757 C   0  0  0  0  0  0  0  0  0  0  0  0
   11.1753  -15.4593   20.1518 O   0  0  0  0  0  0  0  0  0  0  0  0
    9.7451  -17.1154   20.8367 N   0  0  0  0  0  0  0  0  0  0  0  0
    9.5507  -16.6161   22.1810 C   0  0  1  0  0  0  0  0  0  0  0  0
    8.0707  -16.7500   22.5471 C   0  0  0  0  0  0  0  0  0  0  0  0
    7.4749  -15.4501   22.8911 C   0  0  0  0  0  0  0  0  0  0  0  0
    6.9891  -14.5214   21.9925 C   0  0  0  0  0  0  0  0  0  0  0  0
    6.5177  -13.4492   22.6561 N   0  0  0  0  0  0  0  0  0  0  0  0
    6.6877  -13.6630   23.9759 C   0  0  0  0  0  0  0  0  0  0  0  0
    6.4081  -12.9434   25.1172 C   0  0  0  0  0  0  0  0  0  0  0  0
    6.7013  -13.4235   26.3767 C   0  0  0  0  0  0  0  0  0  0  0  0
    7.2926  -14.6620   26.5007 C   0  0  0  0  0  0  0  0  0  0  0  0
    7.5908  -15.4176   25.3883 C   0  0  0  0  0  0  0  0  0  0  0  0
    7.2843  -14.9072   24.1454 C   0  0  0  0  0  0  0  0  0  0  0  0
   10.3224  -17.4782   23.1082 C   0  0  0  0  0  0  0  0  0  0  0  0
   10.4152  -18.7328   22.9455 O   0  0  0  0  0  0  0  0  0  0  0  0
   10.9952  -16.9300   24.2261 N   0  0  0  0  0  0  0  0  0  0  0  0
   11.8077  -17.7308   25.1178 C   0  0  1  0  0  0  0  0  0  0  0  0
   12.3875  -16.7772   26.1439 C   0  0  0  0  0  0  0  0  0  0  0  0
   11.4496  -16.4366   27.2228 C   0  0  0  0  0  0  0  0  0  0  0  0
   10.9138  -17.3130   28.1411 C   0  0  0  0  0  0  0  0  0  0  0  0
   10.1089  -16.5979   28.9465 N   0  0  0  0  0  0  0  0  0  0  0  0
   10.1139  -15.3036   28.5746 C   0  0  0  0  0  0  0  0  0  0  0  0
    9.4607  -14.1997   29.0805 C   0  0  0  0  0  0  0  0  0  0  0  0
    9.6804  -12.9856   28.4628 C   0  0  0  0  0  0  0  0  0  0  0  0
   10.5135  -12.8330   27.3768 C   0  0  0  0  0  0  0  0  0  0  0  0
   11.1628  -13.9335   26.8747 C   0  0  0  0  0  0  0  0  0  0  0  0
   10.9512  -15.1522   27.4836 C   0  0  0  0  0  0  0  0  0  0  0  0
   10.9524  -18.7626   25.7262 C   0  0  0  0  0  0  0  0  0  0  0  0
   11.4379  -19.9262   26.3028 O   0  0  0  0  0  0  0  0  0  0  0  0
    9.7081  -18.5863   25.7271 O   0  0  0  0  0  0  0  0  0  0  0  0
  2  1  1  1
  2  3  1  0
  4  2  1  0
  4  5  1  6
  6  7  2  0
  6  4  1  0
  8  6  1  0
  9  8  1  0
  9 10  1  1
 11 10  1  0
 11 19  1  0
 12 13  1  0
 12 11  2  0
 13 14  1  0
 14 15  2  0
 14 19  1  0
 15 16  1  0
 16 17  2  0
 18 17  1  0
 19 18  2  0
 20 21  2  0
 20  9  1  0
 22 20  1  0
 23 22  1  0
 23 24  1  1
 25 24  1  0
 25 26  2  0
 27 26  1  0
 28 27  1  0
 29 28  2  0
 30 29  1  0
 31 30  2  0
 31 32  1  0
 32 33  2  0
 33 28  1  0
 33 25  1  0
 34 23  1  0
 35 34  1  0
 36 34  2  0
M  END
$$$$
