TWW.pdb
     RDKit          3D

 36 39  0  0  1  0  0  0  0  0999 V2000
   12.6589  -20.1013   19.7151 C   0  0  0  0  0  0  0  0  0  0  0  0
   12.2902  -18.9567   20.6006 C   0  0  1  0  0  0  0  0  0  0  0  0
   13.4009  -18.4018   21.2548 O   0  0  0  0  0  0  0  0  0  0  0  0
   11.5018  -17.8763   19.9093 C   0  0  2  0  0  0  0  0  0  0  0  0
   12.2267  -17.2872   18.8142 N   0  0  0  0  0  0  0  0  0  0  0  0
   11.0777  -16.8719   20.9065 C   0  0  0  0  0  0  0  0  0  0  0  0
   11.6858  -15.7770   20.9650 O   0  0  0  0  0  0  0  0  0  0  0  0
   10.0158  -17.1193   21.7814 N   0  0  0  0  0  0  0  0  0  0  0  0
    9.5128  -16.1770   22.7576 C   0  0  1  0  0  0  0  0  0  0  0  0
    8.0041  -16.3838   22.9101 C   0  0  0  0  0  0  0  0  0  0  0  0
    7.2467  -15.6430   21.8899 C   0  0  0  0  0  0  0  0  0  0  0  0
    5.9842  -15.9619   21.4316 C   0  0  0  0  0  0  0  0  0  0  0  0
    5.5990  -15.0695   20.5002 N   0  0  0  0  0  0  0  0  0  0  0  0
    6.5913  -14.1710   20.3427 C   0  0  0  0  0  0  0  0  0  0  0  0
    6.7718  -13.0564   19.5530 C   0  0  0  0  0  0  0  0  0  0  0  0
    7.9259  -12.3025   19.6020 C   0  0  0  0  0  0  0  0  0  0  0  0
    8.9322  -12.6734   20.4672 C   0  0  0  0  0  0  0  0  0  0  0  0
    8.7969  -13.7801   21.2761 C   0  0  0  0  0  0  0  0  0  0  0  0
    7.6307  -14.5104   21.2013 C   0  0  0  0  0  0  0  0  0  0  0  0
   10.1428  -16.4868   24.0635 C   0  0  0  0  0  0  0  0  0  0  0  0
   10.9989  -17.4130   24.1982 O   0  0  0  0  0  0  0  0  0  0  0  0
    9.8107  -15.7530   25.2272 N   0  0  0  0  0  0  0  0  0  0  0  0
   10.3940  -16.0367   26.5218 C   0  0  1  0  0  0  0  0  0  0  0  0
    9.6993  -15.1262   27.5151 C   0  0  0  0  0  0  0  0  0  0  0  0
    8.3081  -14.8192   27.1548 C   0  0  0  0  0  0  0  0  0  0  0  0
    7.2846  -15.7308   27.0140 C   0  0  0  0  0  0  0  0  0  0  0  0
    6.1821  -15.0382   26.6785 N   0  0  0  0  0  0  0  0  0  0  0  0
    6.4669  -13.7243   26.6013 C   0  0  0  0  0  0  0  0  0  0  0  0
    5.6841  -12.6307   26.2973 C   0  0  0  0  0  0  0  0  0  0  0  0
    6.2864  -11.3893   26.3029 C   0  0  0  0  0  0  0  0  0  0  0  0
    7.6188  -11.2000   26.5957 C   0  0  0  0  0  0  0  0  0  0  0  0
    8.3964  -12.2903   26.8981 C   0  0  0  0  0  0  0  0  0  0  0  0
    7.8057  -13.5360   26.8956 C   0  0  0  0  0  0  0  0  0  0  0  0
   10.1875  -17.4625   26.8229 C   0  0  0  0  0  0  0  0  0  0  0  0
   10.9167  -18.1651   27.7698 O   0  0  0  0  0  0  0  0  0  0  0  0
    9.3001  -18.0871   26.1890 O   0  0  0  0  0  0  0  0  0  0  0  0
  2  1  1  6
  2  3  1  0
  4  2  1  0
  4  5  1  6
  6  7  2  0
  6  4  1  0
  8  6  1  0
  9  8  1  0
  9 10  1  1
 11 10  1  0
 11 19  1  0
 12 13  1  0
 12 11  2  0
 13 14  1  0
 14 15  2  0
 14 19  1  0
 15 16  1  0
 16 17  2  0
 18 17  1  0
 19 18  2  0
 20 21  2  0
 20  9  1  0
 22 20  1  0
 23 22  1  0
 23 24  1  1
 25 24  1  0
 25 26  2  0
 27 26  1  0
 28 27  1  0
 29 28  2  0
 30 29  1  0
 31 30  2  0
 31 32  1  0
 32 33  2  0
 33 28  1  0
 33 25  1  0
 34 23  1  0
 35 34  1  0
 36 34  2  0
M  END
$$$$
