TWW.pdb
     RDKit          3D

 36 39  0  0  1  0  0  0  0  0999 V2000
    9.5148  -16.5346   18.3701 C   0  0  0  0  0  0  0  0  0  0  0  0
    9.6314  -16.9481   19.8003 C   0  0  1  0  0  0  0  0  0  0  0  0
    8.7266  -17.9646   20.1430 O   0  0  0  0  0  0  0  0  0  0  0  0
   11.0265  -17.3335   20.2149 C   0  0  2  0  0  0  0  0  0  0  0  0
   11.5480  -18.4222   19.4308 N   0  0  0  0  0  0  0  0  0  0  0  0
   11.0381  -17.6286   21.6626 C   0  0  0  0  0  0  0  0  0  0  0  0
   10.9441  -18.8199   22.0423 O   0  0  0  0  0  0  0  0  0  0  0  0
   11.1516  -16.6086   22.6117 N   0  0  0  0  0  0  0  0  0  0  0  0
   10.9870  -16.7854   24.0385 C   0  0  1  0  0  0  0  0  0  0  0  0
   11.6925  -15.6362   24.7621 C   0  0  0  0  0  0  0  0  0  0  0  0
   11.5887  -15.7670   26.2233 C   0  0  0  0  0  0  0  0  0  0  0  0
   12.0727  -16.8179   26.9764 C   0  0  0  0  0  0  0  0  0  0  0  0
   11.8017  -16.6081   28.2782 N   0  0  0  0  0  0  0  0  0  0  0  0
   11.1474  -15.4348   28.3878 C   0  0  0  0  0  0  0  0  0  0  0  0
   10.6257  -14.7118   29.4384 C   0  0  0  0  0  0  0  0  0  0  0  0
    9.9874  -13.5033   29.2510 C   0  0  0  0  0  0  0  0  0  0  0  0
    9.8661  -13.0007   27.9737 C   0  0  0  0  0  0  0  0  0  0  0  0
   10.3719  -13.6880   26.8925 C   0  0  0  0  0  0  0  0  0  0  0  0
   11.0035  -14.8923   27.1160 C   0  0  0  0  0  0  0  0  0  0  0  0
    9.5404  -16.6914   24.3499 C   0  0  0  0  0  0  0  0  0  0  0  0
    8.9307  -15.5802   24.4010 O   0  0  0  0  0  0  0  0  0  0  0  0
    8.7713  -17.8516   24.6061 N   0  0  0  0  0  0  0  0  0  0  0  0
    7.7060  -17.8810   25.5862 C   0  0  1  0  0  0  0  0  0  0  0  0
    6.4397  -17.4768   24.8570 C   0  0  0  0  0  0  0  0  0  0  0  0
    6.4901  -16.1151   24.3065 C   0  0  0  0  0  0  0  0  0  0  0  0
    6.6180  -15.7802   22.9761 C   0  0  0  0  0  0  0  0  0  0  0  0
    6.6228  -14.4375   22.9055 N   0  0  0  0  0  0  0  0  0  0  0  0
    6.5030  -13.9091   24.1384 C   0  0  0  0  0  0  0  0  0  0  0  0
    6.4584  -12.6029   24.5779 C   0  0  0  0  0  0  0  0  0  0  0  0
    6.3270  -12.3867   25.9342 C   0  0  0  0  0  0  0  0  0  0  0  0
    6.2397  -13.4076   26.8546 C   0  0  0  0  0  0  0  0  0  0  0  0
    6.2844  -14.7074   26.4148 C   0  0  0  0  0  0  0  0  0  0  0  0
    6.4156  -14.9359   25.0616 C   0  0  0  0  0  0  0  0  0  0  0  0
    7.6257  -19.2400   26.1456 C   0  0  0  0  0  0  0  0  0  0  0  0
    8.4503  -20.2846   25.7573 O   0  0  0  0  0  0  0  0  0  0  0  0
    6.7618  -19.4756   27.0274 O   0  0  0  0  0  0  0  0  0  0  0  0
  2  1  1  6
  2  3  1  0
  4  2  1  0
  4  5  1  6
  6  7  2  0
  6  4  1  0
  8  6  1  0
  9  8  1  0
  9 10  1  1
 11 10  1  0
 11 19  1  0
 12 13  1  0
 12 11  2  0
 13 14  1  0
 14 15  2  0
 14 19  1  0
 15 16  1  0
 16 17  2  0
 18 17  1  0
 19 18  2  0
 20 21  2  0
 20  9  1  0
 22 20  1  0
 23 22  1  0
 23 24  1  6
 25 24  1  0
 25 26  2  0
 27 26  1  0
 28 27  1  0
 29 28  2  0
 30 29  1  0
 31 30  2  0
 31 32  1  0
 32 33  2  0
 33 28  1  0
 33 25  1  0
 34 23  1  0
 35 34  1  0
 36 34  2  0
M  END
$$$$
