TWW.pdb
     RDKit          3D

 36 39  0  0  1  0  0  0  0  0999 V2000
   13.1703  -17.8844   12.9366 C   0  0  0  0  0  0  0  0  0  0  0  0
   12.8250  -17.5515   14.3508 C   0  0  1  0  0  0  0  0  0  0  0  0
   13.3660  -16.3240   14.7631 O   0  0  0  0  0  0  0  0  0  0  0  0
   11.3497  -17.5945   14.6478 C   0  0  2  0  0  0  0  0  0  0  0  0
   10.6022  -16.6696   13.8368 N   0  0  0  0  0  0  0  0  0  0  0  0
   11.1392  -17.3706   16.0931 C   0  0  0  0  0  0  0  0  0  0  0  0
   10.7262  -16.2527   16.4826 O   0  0  0  0  0  0  0  0  0  0  0  0
   11.3909  -18.3779   17.0291 N   0  0  0  0  0  0  0  0  0  0  0  0
   10.9933  -18.3318   18.4197 C   0  0  1  0  0  0  0  0  0  0  0  0
   11.1229  -19.7352   19.0162 C   0  0  0  0  0  0  0  0  0  0  0  0
   10.6158  -19.7899   20.3956 C   0  0  0  0  0  0  0  0  0  0  0  0
    9.3666  -19.3769   20.8136 C   0  0  0  0  0  0  0  0  0  0  0  0
    9.2426  -19.5720   22.1398 N   0  0  0  0  0  0  0  0  0  0  0  0
   10.3927  -20.1069   22.5956 C   0  0  0  0  0  0  0  0  0  0  0  0
   10.8491  -20.5125   23.8308 C   0  0  0  0  0  0  0  0  0  0  0  0
   12.1113  -21.0399   24.0089 C   0  0  0  0  0  0  0  0  0  0  0  0
   12.9445  -21.1663   22.9187 C   0  0  0  0  0  0  0  0  0  0  0  0
   12.5319  -20.7743   21.6644 C   0  0  0  0  0  0  0  0  0  0  0  0
   11.2648  -20.2516   21.5226 C   0  0  0  0  0  0  0  0  0  0  0  0
   11.9413  -17.4483   19.1403 C   0  0  0  0  0  0  0  0  0  0  0  0
   13.1862  -17.4512   18.8971 O   0  0  0  0  0  0  0  0  0  0  0  0
   11.4905  -16.5548   20.1410 N   0  0  0  0  0  0  0  0  0  0  0  0
   12.3896  -15.6957   20.8827 C   0  0  1  0  0  0  0  0  0  0  0  0
   11.6125  -14.4336   21.2019 C   0  0  0  0  0  0  0  0  0  0  0  0
   10.1767  -14.6668   21.4109 C   0  0  0  0  0  0  0  0  0  0  0  0
    9.6104  -15.3713   22.4508 C   0  0  0  0  0  0  0  0  0  0  0  0
    8.2788  -15.3463   22.2658 N   0  0  0  0  0  0  0  0  0  0  0  0
    7.9797  -14.6539   21.1502 C   0  0  0  0  0  0  0  0  0  0  0  0
    6.7751  -14.3542   20.5500 C   0  0  0  0  0  0  0  0  0  0  0  0
    6.8047  -13.6095   19.3888 C   0  0  0  0  0  0  0  0  0  0  0  0
    7.9717  -13.1594   18.8125 C   0  0  0  0  0  0  0  0  0  0  0  0
    9.1700  -13.4590   19.4117 C   0  0  0  0  0  0  0  0  0  0  0  0
    9.1531  -14.2025   20.5725 C   0  0  0  0  0  0  0  0  0  0  0  0
   12.8250  -16.4116   22.0927 C   0  0  0  0  0  0  0  0  0  0  0  0
   13.9205  -16.0405   22.8571 O   0  0  0  0  0  0  0  0  0  0  0  0
   12.1710  -17.4194   22.4615 O   0  0  0  0  0  0  0  0  0  0  0  0
  2  1  1  6
  2  3  1  0
  4  2  1  0
  4  5  1  6
  6  7  2  0
  6  4  1  0
  8  6  1  0
  9  8  1  0
  9 10  1  1
 11 10  1  0
 11 19  1  0
 12 13  1  0
 12 11  2  0
 13 14  1  0
 14 15  2  0
 14 19  1  0
 15 16  1  0
 16 17  2  0
 18 17  1  0
 19 18  2  0
 20 21  2  0
 20  9  1  0
 22 20  1  0
 23 22  1  0
 23 24  1  1
 25 24  1  0
 25 26  2  0
 27 26  1  0
 28 27  1  0
 29 28  2  0
 30 29  1  0
 31 30  2  0
 31 32  1  0
 32 33  2  0
 33 28  1  0
 33 25  1  0
 34 23  1  0
 35 34  1  0
 36 34  2  0
M  END
$$$$
