TWW.pdb
     RDKit          3D

 36 39  0  0  1  0  0  0  0  0999 V2000
   10.0954  -19.3083   16.9935 C   0  0  0  0  0  0  0  0  0  0  0  0
   10.1059  -18.6023   18.3094 C   0  0  1  0  0  0  0  0  0  0  0  0
   11.3750  -18.5975   18.9084 O   0  0  0  0  0  0  0  0  0  0  0  0
    9.5505  -17.2039   18.2589 C   0  0  2  0  0  0  0  0  0  0  0  0
   10.2592  -16.3682   17.3256 N   0  0  0  0  0  0  0  0  0  0  0  0
    9.5391  -16.6370   19.6233 C   0  0  0  0  0  0  0  0  0  0  0  0
   10.4859  -15.8984   19.9841 O   0  0  0  0  0  0  0  0  0  0  0  0
    8.4969  -16.9081   20.5147 N   0  0  0  0  0  0  0  0  0  0  0  0
    8.3884  -16.3612   21.8501 C   0  0  1  0  0  0  0  0  0  0  0  0
    6.9375  -16.4912   22.3194 C   0  0  0  0  0  0  0  0  0  0  0  0
    6.7643  -16.0023   23.6957 C   0  0  0  0  0  0  0  0  0  0  0  0
    6.4644  -16.7792   24.7968 C   0  0  0  0  0  0  0  0  0  0  0  0
    6.3799  -16.0022   25.8928 N   0  0  0  0  0  0  0  0  0  0  0  0
    6.6204  -14.7281   25.5248 C   0  0  0  0  0  0  0  0  0  0  0  0
    6.6706  -13.5217   26.1886 C   0  0  0  0  0  0  0  0  0  0  0  0
    6.9478  -12.3377   25.5373 C   0  0  0  0  0  0  0  0  0  0  0  0
    7.1825  -12.3589   24.1797 C   0  0  0  0  0  0  0  0  0  0  0  0
    7.1429  -13.5411   23.4738 C   0  0  0  0  0  0  0  0  0  0  0  0
    6.8630  -14.7051   24.1561 C   0  0  0  0  0  0  0  0  0  0  0  0
    9.2281  -17.1838   22.7538 C   0  0  0  0  0  0  0  0  0  0  0  0
    9.3155  -18.4436   22.6349 O   0  0  0  0  0  0  0  0  0  0  0  0
    9.9755  -16.5898   23.7986 N   0  0  0  0  0  0  0  0  0  0  0  0
   11.1209  -17.2364   24.4040 C   0  0  1  0  0  0  0  0  0  0  0  0
   11.7763  -16.2014   25.2972 C   0  0  0  0  0  0  0  0  0  0  0  0
   11.1828  -16.1260   26.6395 C   0  0  0  0  0  0  0  0  0  0  0  0
   10.7947  -17.1944   27.4181 C   0  0  0  0  0  0  0  0  0  0  0  0
   10.3043  -16.6905   28.5642 N   0  0  0  0  0  0  0  0  0  0  0  0
   10.3666  -15.3454   28.5420 C   0  0  0  0  0  0  0  0  0  0  0  0
    9.9926  -14.3929   29.4662 C   0  0  0  0  0  0  0  0  0  0  0  0
   10.1907  -13.0676   29.1374 C   0  0  0  0  0  0  0  0  0  0  0  0
   10.7390  -12.6624   27.9408 C   0  0  0  0  0  0  0  0  0  0  0  0
   11.1106  -13.6125   27.0220 C   0  0  0  0  0  0  0  0  0  0  0  0
   10.9174  -14.9401   27.3392 C   0  0  0  0  0  0  0  0  0  0  0  0
   10.6494  -18.4118   25.1539 C   0  0  0  0  0  0  0  0  0  0  0  0
   11.4763  -19.4424   25.5735 O   0  0  0  0  0  0  0  0  0  0  0  0
    9.4271  -18.4937   25.4343 O   0  0  0  0  0  0  0  0  0  0  0  0
  2  1  1  6
  2  3  1  0
  4  2  1  0
  4  5  1  6
  6  7  2  0
  6  4  1  0
  8  6  1  0
  9  8  1  0
  9 10  1  1
 11 10  1  0
 11 19  1  0
 12 13  1  0
 12 11  2  0
 13 14  1  0
 14 15  2  0
 14 19  1  0
 15 16  1  0
 16 17  2  0
 18 17  1  0
 19 18  2  0
 20 21  2  0
 20  9  1  0
 22 20  1  0
 23 22  1  0
 23 24  1  1
 25 24  1  0
 25 26  2  0
 27 26  1  0
 28 27  1  0
 29 28  2  0
 30 29  1  0
 31 30  2  0
 31 32  1  0
 32 33  2  0
 33 28  1  0
 33 25  1  0
 34 23  1  0
 35 34  1  0
 36 34  2  0
M  END
$$$$
