TWW.pdb
     RDKit          3D

 36 39  0  0  1  0  0  0  0  0999 V2000
   10.6525  -19.5525   20.6868 C   0  0  0  0  0  0  0  0  0  0  0  0
   10.9318  -18.6289   19.5470 C   0  0  1  0  0  0  0  0  0  0  0  0
   11.2261  -19.3137   18.3580 O   0  0  0  0  0  0  0  0  0  0  0  0
    9.8502  -17.6099   19.3050 C   0  0  2  0  0  0  0  0  0  0  0  0
   10.0648  -16.8632   18.0933 N   0  0  0  0  0  0  0  0  0  0  0  0
    9.7342  -16.7352   20.4901 C   0  0  0  0  0  0  0  0  0  0  0  0
   10.6359  -15.8941   20.7172 O   0  0  0  0  0  0  0  0  0  0  0  0
    8.6424  -16.8280   21.3582 N   0  0  0  0  0  0  0  0  0  0  0  0
    8.4926  -16.0696   22.5816 C   0  0  1  0  0  0  0  0  0  0  0  0
    7.0097  -16.0293   22.9579 C   0  0  0  0  0  0  0  0  0  0  0  0
    6.7976  -15.3998   24.2701 C   0  0  0  0  0  0  0  0  0  0  0  0
    6.2969  -16.0254   25.3943 C   0  0  0  0  0  0  0  0  0  0  0  0
    6.2378  -15.1493   26.4146 N   0  0  0  0  0  0  0  0  0  0  0  0
    6.6928  -13.9594   25.9743 C   0  0  0  0  0  0  0  0  0  0  0  0
    6.8653  -12.7174   26.5454 C   0  0  0  0  0  0  0  0  0  0  0  0
    7.3665  -11.6469   25.8343 C   0  0  0  0  0  0  0  0  0  0  0  0
    7.7066  -11.8222   24.5105 C   0  0  0  0  0  0  0  0  0  0  0  0
    7.5516  -13.0456   23.8968 C   0  0  0  0  0  0  0  0  0  0  0  0
    7.0480  -14.0932   24.6369 C   0  0  0  0  0  0  0  0  0  0  0  0
    9.2103  -16.7903   23.6605 C   0  0  0  0  0  0  0  0  0  0  0  0
    8.6002  -17.3499   24.6215 O   0  0  0  0  0  0  0  0  0  0  0  0
   10.6224  -16.8844   23.6623 N   0  0  0  0  0  0  0  0  0  0  0  0
   11.4223  -16.5960   24.8343 C   0  0  1  0  0  0  0  0  0  0  0  0
   10.9948  -17.5853   25.9005 C   0  0  0  0  0  0  0  0  0  0  0  0
   10.5917  -16.9489   27.1623 C   0  0  0  0  0  0  0  0  0  0  0  0
   10.2044  -17.5993   28.3135 C   0  0  0  0  0  0  0  0  0  0  0  0
    9.9199  -16.6529   29.2253 N   0  0  0  0  0  0  0  0  0  0  0  0
   10.1117  -15.4292   28.6969 C   0  0  0  0  0  0  0  0  0  0  0  0
    9.9576  -14.1654   29.2263 C   0  0  0  0  0  0  0  0  0  0  0  0
   10.2416  -13.0893   28.4106 C   0  0  0  0  0  0  0  0  0  0  0  0
   10.6667  -13.2236   27.1075 C   0  0  0  0  0  0  0  0  0  0  0  0
   10.8194  -14.4829   26.5825 C   0  0  0  0  0  0  0  0  0  0  0  0
   10.5386  -15.5660   27.3879 C   0  0  0  0  0  0  0  0  0  0  0  0
   12.8426  -16.7334   24.4737 C   0  0  0  0  0  0  0  0  0  0  0  0
   13.2875  -17.0822   23.2078 O   0  0  0  0  0  0  0  0  0  0  0  0
   13.7094  -16.5241   25.3593 O   0  0  0  0  0  0  0  0  0  0  0  0
  2  1  1  1
  2  3  1  0
  4  2  1  0
  4  5  1  6
  6  7  2  0
  6  4  1  0
  8  6  1  0
  9  8  1  0
  9 10  1  1
 11 10  1  0
 11 19  1  0
 12 13  1  0
 12 11  2  0
 13 14  1  0
 14 15  2  0
 14 19  1  0
 15 16  1  0
 16 17  2  0
 18 17  1  0
 19 18  2  0
 20 21  2  0
 20  9  1  0
 22 20  1  0
 23 22  1  0
 23 24  1  1
 25 24  1  0
 25 26  2  0
 27 26  1  0
 28 27  1  0
 29 28  2  0
 30 29  1  0
 31 30  2  0
 31 32  1  0
 32 33  2  0
 33 28  1  0
 33 25  1  0
 34 23  1  0
 35 34  1  0
 36 34  2  0
M  END
$$$$
