FMI.pdb
     RDKit          3D

 28 28  0  0  1  0  0  0  0  0999 V2000
    8.3073  -15.3364   21.3308 N   0  0  0  0  0  0  0  0  0  0  0  0
    8.2036  -14.5314   22.5601 C   0  0  1  0  0  0  0  0  0  0  0  0
    6.8831  -13.7993   22.4405 C   0  0  0  0  0  0  0  0  0  0  0  0
    6.5488  -12.9923   23.6207 C   0  0  0  0  0  0  0  0  0  0  0  0
    7.1325  -11.7869   23.9633 C   0  0  0  0  0  0  0  0  0  0  0  0
    6.8007  -11.0570   25.0725 C   0  0  0  0  0  0  0  0  0  0  0  0
    5.8076  -11.5629   25.9132 C   0  0  0  0  0  0  0  0  0  0  0  0
    5.1860  -12.7710   25.6181 C   0  0  0  0  0  0  0  0  0  0  0  0
    5.5574  -13.4651   24.4893 C   0  0  0  0  0  0  0  0  0  0  0  0
    8.1102  -15.4467   23.7329 C   0  0  0  0  0  0  0  0  0  0  0  0
    8.0290  -14.9814   24.8782 O   0  0  0  0  0  0  0  0  0  0  0  0
    7.9567  -20.9750   21.3095 C   0  0  0  0  0  0  0  0  0  0  0  0
    6.5389  -20.9803   22.4606 S   0  0  0  0  0  0  0  0  0  0  0  0
    6.5682  -19.3881   23.3526 C   0  0  0  0  0  0  0  0  0  0  0  0
    7.9488  -19.1685   23.8754 C   0  0  0  0  0  0  0  0  0  0  0  0
    8.1796  -17.8537   24.5573 C   0  0  2  0  0  0  0  0  0  0  0  0
    8.1149  -16.8271   23.5165 N   0  0  0  0  0  0  0  0  0  0  0  0
    9.4456  -17.7682   25.3005 C   0  0  0  0  0  0  0  0  0  0  0  0
   10.5181  -17.4936   24.7014 O   0  0  0  0  0  0  0  0  0  0  0  0
   11.2368  -14.2270   29.3686 C   0  0  0  0  0  0  0  0  0  0  0  0
   11.6734  -15.4734   28.6352 C   0  0  0  0  0  0  0  0  0  0  0  0
   10.5449  -15.9636   27.7405 C   0  0  2  0  0  0  0  0  0  0  0  0
    9.2196  -15.5446   28.3774 C   0  0  0  0  0  0  0  0  0  0  0  0
   10.6015  -17.4239   27.4923 C   0  0  2  0  0  0  0  0  0  0  0  0
    9.5506  -17.9839   26.6987 N   0  0  0  0  0  0  0  0  0  0  0  0
   10.8043  -18.1637   28.7831 C   0  0  0  0  0  0  0  0  0  0  0  0
   12.0255  -18.0529   29.4177 O   0  0  0  0  0  0  0  0  0  0  0  0
    9.8950  -18.8681   29.2832 O   0  0  0  0  0  0  0  0  0  0  0  0
  2  1  1  6
  3  4  1  0
  3  2  1  0
  4  5  2  0
  5  6  1  0
  7  6  2  0
  8  7  1  0
  9  8  2  0
  9  4  1  0
 10  2  1  0
 10 17  1  0
 11 10  2  0
 13 12  1  0
 14 13  1  0
 16 15  1  6
 15 14  1  0
 16 17  1  0
 18 16  1  0
 19 18  2  0
 20 21  1  0
 21 22  1  0
 22 24  1  0
 22 23  1  1
 24 26  1  0
 24 25  1  1
 25 18  1  0
 26 27  1  0
 28 26  2  0
M  END
$$$$
