FMI.pdb
     RDKit          3D

 28 28  0  0  1  0  0  0  0  0999 V2000
   10.6195  -17.7738   20.5047 N   0  0  0  0  0  0  0  0  0  0  0  0
   10.0549  -16.4299   20.7176 C   0  0  1  0  0  0  0  0  0  0  0  0
    8.6487  -16.5013   20.1596 C   0  0  0  0  0  0  0  0  0  0  0  0
    7.9906  -15.1930   20.0538 C   0  0  0  0  0  0  0  0  0  0  0  0
    8.5840  -14.0272   19.6066 C   0  0  0  0  0  0  0  0  0  0  0  0
    7.9446  -12.8202   19.5204 C   0  0  0  0  0  0  0  0  0  0  0  0
    6.6052  -12.7624   19.9096 C   0  0  0  0  0  0  0  0  0  0  0  0
    5.9570  -13.9040   20.3677 C   0  0  0  0  0  0  0  0  0  0  0  0
    6.6467  -15.0930   20.4344 C   0  0  0  0  0  0  0  0  0  0  0  0
    9.9494  -16.1746   22.1824 C   0  0  0  0  0  0  0  0  0  0  0  0
   10.7130  -16.7512   22.9693 O   0  0  0  0  0  0  0  0  0  0  0  0
    5.3188  -11.8602   26.9593 C   0  0  0  0  0  0  0  0  0  0  0  0
    5.6416  -12.6164   25.3287 S   0  0  0  0  0  0  0  0  0  0  0  0
    7.2538  -13.4648   25.4422 C   0  0  0  0  0  0  0  0  0  0  0  0
    7.5893  -14.0167   24.0966 C   0  0  0  0  0  0  0  0  0  0  0  0
    8.8990  -14.7397   24.0033 C   0  0  2  0  0  0  0  0  0  0  0  0
    8.9818  -15.2793   22.6456 N   0  0  0  0  0  0  0  0  0  0  0  0
    9.0789  -15.8034   25.0026 C   0  0  0  0  0  0  0  0  0  0  0  0
    8.6492  -16.9654   24.7796 O   0  0  0  0  0  0  0  0  0  0  0  0
   11.5705  -15.0695   30.2321 C   0  0  0  0  0  0  0  0  0  0  0  0
   10.4745  -15.4625   29.2695 C   0  0  0  0  0  0  0  0  0  0  0  0
   11.0368  -16.3917   28.2043 C   0  0  2  0  0  0  0  0  0  0  0  0
   12.3192  -15.7641   27.6574 C   0  0  0  0  0  0  0  0  0  0  0  0
   10.0625  -16.6863   27.1266 C   0  0  2  0  0  0  0  0  0  0  0  0
    9.7247  -15.6067   26.2503 N   0  0  0  0  0  0  0  0  0  0  0  0
    8.8507  -17.3684   27.6929 C   0  0  0  0  0  0  0  0  0  0  0  0
    9.0099  -18.6080   28.2799 O   0  0  0  0  0  0  0  0  0  0  0  0
    7.7161  -16.8362   27.6404 O   0  0  0  0  0  0  0  0  0  0  0  0
  2  1  1  1
  3  4  1  0
  3  2  1  0
  4  5  2  0
  5  6  1  0
  7  6  2  0
  8  7  1  0
  9  8  2  0
  9  4  1  0
 10  2  1  0
 10 17  1  0
 11 10  2  0
 13 12  1  0
 14 13  1  0
 16 15  1  1
 15 14  1  0
 16 17  1  0
 18 16  1  0
 19 18  2  0
 20 21  1  0
 21 22  1  0
 22 24  1  0
 22 23  1  6
 24 26  1  0
 24 25  1  1
 25 18  1  0
 26 27  1  0
 28 26  2  0
M  END
$$$$
