FMI.pdb
     RDKit          3D

 28 28  0  0  1  0  0  0  0  0999 V2000
    5.5349  -18.2837   25.2748 N   0  0  0  0  0  0  0  0  0  0  0  0
    5.9964  -16.9069   25.0263 C   0  0  1  0  0  0  0  0  0  0  0  0
    6.3541  -16.3596   26.3924 C   0  0  0  0  0  0  0  0  0  0  0  0
    6.5094  -14.8998   26.4191 C   0  0  0  0  0  0  0  0  0  0  0  0
    5.5163  -13.9794   26.1405 C   0  0  0  0  0  0  0  0  0  0  0  0
    5.6915  -12.6224   26.1719 C   0  0  0  0  0  0  0  0  0  0  0  0
    6.9562  -12.1357   26.5073 C   0  0  0  0  0  0  0  0  0  0  0  0
    7.9932  -13.0153   26.7972 C   0  0  0  0  0  0  0  0  0  0  0  0
    7.7629  -14.3713   26.7512 C   0  0  0  0  0  0  0  0  0  0  0  0
    7.2458  -16.9532   24.2147 C   0  0  0  0  0  0  0  0  0  0  0  0
    8.0035  -17.9298   24.2974 O   0  0  0  0  0  0  0  0  0  0  0  0
    8.3098  -11.8521   20.3011 C   0  0  0  0  0  0  0  0  0  0  0  0
    8.8416  -13.2556   19.2608 S   0  0  0  0  0  0  0  0  0  0  0  0
    9.4155  -14.5706   20.3892 C   0  0  0  0  0  0  0  0  0  0  0  0
    8.3905  -14.7509   21.4592 C   0  0  0  0  0  0  0  0  0  0  0  0
    8.7145  -15.7836   22.4963 C   0  0  2  0  0  0  0  0  0  0  0  0
    7.5417  -15.8836   23.3658 N   0  0  0  0  0  0  0  0  0  0  0  0
    9.9259  -15.4991   23.2799 C   0  0  0  0  0  0  0  0  0  0  0  0
   10.4770  -14.3695   23.2124 O   0  0  0  0  0  0  0  0  0  0  0  0
   10.3109  -13.9148   28.3734 C   0  0  0  0  0  0  0  0  0  0  0  0
   11.2168  -14.6076   27.3827 C   0  0  0  0  0  0  0  0  0  0  0  0
   10.3786  -15.3750   26.3714 C   0  0  2  0  0  0  0  0  0  0  0  0
    9.4797  -16.3443   27.1395 C   0  0  0  0  0  0  0  0  0  0  0  0
   11.2013  -16.0723   25.3544 C   0  0  2  0  0  0  0  0  0  0  0  0
   10.5446  -16.4439   24.1385 N   0  0  0  0  0  0  0  0  0  0  0  0
   11.9428  -17.2177   25.9810 C   0  0  0  0  0  0  0  0  0  0  0  0
   13.3176  -17.2544   25.8588 O   0  0  0  0  0  0  0  0  0  0  0  0
   11.3402  -18.1251   26.6029 O   0  0  0  0  0  0  0  0  0  0  0  0
  2  1  1  1
  3  4  1  0
  3  2  1  0
  4  5  2  0
  5  6  1  0
  7  6  2  0
  8  7  1  0
  9  8  2  0
  9  4  1  0
 10  2  1  0
 10 17  1  0
 11 10  2  0
 13 12  1  0
 14 13  1  0
 16 15  1  6
 15 14  1  0
 16 17  1  0
 18 16  1  0
 19 18  2  0
 20 21  1  0
 21 22  1  0
 22 24  1  0
 22 23  1  1
 24 26  1  0
 24 25  1  6
 25 18  1  0
 26 27  1  0
 28 26  2  0
M  END
$$$$
