FMI.pdb
     RDKit          3D

 28 28  0  0  1  0  0  0  0  0999 V2000
    5.7060  -18.5729   25.0962 N   0  0  0  0  0  0  0  0  0  0  0  0
    5.9429  -17.1435   24.8300 C   0  0  1  0  0  0  0  0  0  0  0  0
    5.8716  -16.4739   26.1866 C   0  0  0  0  0  0  0  0  0  0  0  0
    5.7593  -15.0116   26.1158 C   0  0  0  0  0  0  0  0  0  0  0  0
    4.5846  -14.3014   25.9529 C   0  0  0  0  0  0  0  0  0  0  0  0
    4.5112  -12.9362   25.8886 C   0  0  0  0  0  0  0  0  0  0  0  0
    5.7008  -12.2134   25.9947 C   0  0  0  0  0  0  0  0  0  0  0  0
    6.9124  -12.8752   26.1599 C   0  0  0  0  0  0  0  0  0  0  0  0
    6.9300  -14.2500   26.2183 C   0  0  0  0  0  0  0  0  0  0  0  0
    7.3294  -16.9701   24.3110 C   0  0  0  0  0  0  0  0  0  0  0  0
    8.2235  -17.7557   24.6548 O   0  0  0  0  0  0  0  0  0  0  0  0
    8.1700  -11.8344   20.6796 C   0  0  0  0  0  0  0  0  0  0  0  0
    9.1686  -12.9684   19.6539 S   0  0  0  0  0  0  0  0  0  0  0  0
    9.6780  -14.3532   20.7284 C   0  0  0  0  0  0  0  0  0  0  0  0
    8.5715  -14.6320   21.6906 C   0  0  0  0  0  0  0  0  0  0  0  0
    8.8366  -15.7263   22.6801 C   0  0  2  0  0  0  0  0  0  0  0  0
    7.5977  -15.9143   23.4359 N   0  0  0  0  0  0  0  0  0  0  0  0
    9.9681  -15.4685   23.5833 C   0  0  0  0  0  0  0  0  0  0  0  0
   10.8379  -14.6090   23.2846 O   0  0  0  0  0  0  0  0  0  0  0  0
   10.0956  -12.8897   27.8479 C   0  0  0  0  0  0  0  0  0  0  0  0
   10.5409  -13.6004   26.5913 C   0  0  0  0  0  0  0  0  0  0  0  0
   10.8871  -15.0458   26.9154 C   0  0  2  0  0  0  0  0  0  0  0  0
   12.0225  -15.0428   27.9393 C   0  0  0  0  0  0  0  0  0  0  0  0
   11.2314  -15.8380   25.7107 C   0  0  2  0  0  0  0  0  0  0  0  0
   10.1596  -16.1469   24.8143 N   0  0  0  0  0  0  0  0  0  0  0  0
   12.0271  -17.0517   26.0960 C   0  0  0  0  0  0  0  0  0  0  0  0
   11.4345  -18.2922   25.9683 O   0  0  0  0  0  0  0  0  0  0  0  0
   13.2020  -16.9547   26.5244 O   0  0  0  0  0  0  0  0  0  0  0  0
  2  1  1  1
  3  4  1  0
  3  2  1  0
  4  5  2  0
  5  6  1  0
  7  6  2  0
  8  7  1  0
  9  8  2  0
  9  4  1  0
 10  2  1  0
 10 17  1  0
 11 10  2  0
 13 12  1  0
 14 13  1  0
 16 15  1  6
 15 14  1  0
 16 17  1  0
 18 16  1  0
 19 18  2  0
 20 21  1  0
 21 22  1  0
 22 24  1  0
 22 23  1  1
 24 26  1  0
 24 25  1  1
 25 18  1  0
 26 27  1  0
 28 26  2  0
M  END
$$$$
