FMI.pdb
     RDKit          3D

 28 28  0  0  1  0  0  0  0  0999 V2000
    5.9660  -18.1536   25.9802 N   0  0  0  0  0  0  0  0  0  0  0  0
    6.0199  -17.5887   24.6207 C   0  0  1  0  0  0  0  0  0  0  0  0
    5.2648  -16.2788   24.7090 C   0  0  0  0  0  0  0  0  0  0  0  0
    5.8197  -15.3453   25.6971 C   0  0  0  0  0  0  0  0  0  0  0  0
    6.7629  -15.6573   26.6584 C   0  0  0  0  0  0  0  0  0  0  0  0
    7.2609  -14.7649   27.5687 C   0  0  0  0  0  0  0  0  0  0  0  0
    6.7852  -13.4531   27.5234 C   0  0  0  0  0  0  0  0  0  0  0  0
    5.8360  -13.0825   26.5776 C   0  0  0  0  0  0  0  0  0  0  0  0
    5.3685  -14.0197   25.6849 C   0  0  0  0  0  0  0  0  0  0  0  0
    7.4370  -17.2735   24.2823 C   0  0  0  0  0  0  0  0  0  0  0  0
    8.3491  -18.0095   24.6837 O   0  0  0  0  0  0  0  0  0  0  0  0
    7.6785  -13.1566   19.4992 C   0  0  0  0  0  0  0  0  0  0  0  0
    9.3913  -12.8643   20.0613 S   0  0  0  0  0  0  0  0  0  0  0  0
    9.8843  -14.3160   21.0520 C   0  0  0  0  0  0  0  0  0  0  0  0
    8.7364  -14.6995   21.9255 C   0  0  0  0  0  0  0  0  0  0  0  0
    8.9896  -15.8449   22.8587 C   0  0  2  0  0  0  0  0  0  0  0  0
    7.7131  -16.1428   23.5094 N   0  0  0  0  0  0  0  0  0  0  0  0
   10.0412  -15.5958   23.8559 C   0  0  0  0  0  0  0  0  0  0  0  0
   10.8779  -14.6717   23.6813 O   0  0  0  0  0  0  0  0  0  0  0  0
    9.4078  -12.6544   27.3401 C   0  0  0  0  0  0  0  0  0  0  0  0
   10.0369  -13.6121   26.3556 C   0  0  0  0  0  0  0  0  0  0  0  0
   10.3842  -14.9154   27.0590 C   0  0  2  0  0  0  0  0  0  0  0  0
   11.3018  -14.5878   28.2373 C   0  0  0  0  0  0  0  0  0  0  0  0
   10.9901  -15.9160   26.1484 C   0  0  2  0  0  0  0  0  0  0  0  0
   10.1888  -16.3531   25.0464 N   0  0  0  0  0  0  0  0  0  0  0  0
   11.5576  -17.0609   26.9369 C   0  0  0  0  0  0  0  0  0  0  0  0
   10.9937  -18.3110   26.7767 O   0  0  0  0  0  0  0  0  0  0  0  0
   12.5199  -16.8991   27.7249 O   0  0  0  0  0  0  0  0  0  0  0  0
  2  1  1  1
  3  4  1  0
  3  2  1  0
  4  5  2  0
  5  6  1  0
  7  6  2  0
  8  7  1  0
  9  8  2  0
  9  4  1  0
 10  2  1  0
 10 17  1  0
 11 10  2  0
 13 12  1  0
 14 13  1  0
 16 15  1  6
 15 14  1  0
 16 17  1  0
 18 16  1  0
 19 18  2  0
 20 21  1  0
 21 22  1  0
 22 24  1  0
 22 23  1  1
 24 26  1  0
 24 25  1  6
 25 18  1  0
 26 27  1  0
 28 26  2  0
M  END
$$$$
