FMI.pdb
     RDKit          3D

 28 28  0  0  1  0  0  0  0  0999 V2000
    4.9811  -17.9402   24.8239 N   0  0  0  0  0  0  0  0  0  0  0  0
    5.8735  -16.7683   24.8437 C   0  0  1  0  0  0  0  0  0  0  0  0
    6.2138  -16.5579   26.3044 C   0  0  0  0  0  0  0  0  0  0  0  0
    6.7495  -15.2225   26.5973 C   0  0  0  0  0  0  0  0  0  0  0  0
    8.0661  -14.9327   26.9032 C   0  0  0  0  0  0  0  0  0  0  0  0
    8.5365  -13.6762   27.1737 C   0  0  0  0  0  0  0  0  0  0  0  0
    7.6269  -12.6177   27.1385 C   0  0  0  0  0  0  0  0  0  0  0  0
    6.2898  -12.8504   26.8366 C   0  0  0  0  0  0  0  0  0  0  0  0
    5.8693  -14.1337   26.5721 C   0  0  0  0  0  0  0  0  0  0  0  0
    7.1362  -17.1080   24.1281 C   0  0  0  0  0  0  0  0  0  0  0  0
    7.6213  -18.2434   24.2308 O   0  0  0  0  0  0  0  0  0  0  0  0
    8.9903  -12.2926   20.1499 C   0  0  0  0  0  0  0  0  0  0  0  0
    7.9002  -13.6876   19.7020 S   0  0  0  0  0  0  0  0  0  0  0  0
    7.7128  -14.7208   21.1951 C   0  0  0  0  0  0  0  0  0  0  0  0
    9.0404  -15.3206   21.5202 C   0  0  0  0  0  0  0  0  0  0  0  0
    9.0559  -16.2605   22.6878 C   0  0  2  0  0  0  0  0  0  0  0  0
    7.7552  -16.1299   23.3455 N   0  0  0  0  0  0  0  0  0  0  0  0
   10.1514  -16.0281   23.6408 C   0  0  0  0  0  0  0  0  0  0  0  0
   11.2773  -15.6393   23.2339 O   0  0  0  0  0  0  0  0  0  0  0  0
    9.4691  -13.7566   28.7487 C   0  0  0  0  0  0  0  0  0  0  0  0
    9.6586  -14.9594   27.8546 C   0  0  0  0  0  0  0  0  0  0  0  0
   10.7566  -14.6761   26.8404 C   0  0  2  0  0  0  0  0  0  0  0  0
   10.3474  -13.4455   26.0307 C   0  0  0  0  0  0  0  0  0  0  0  0
   11.0477  -15.8393   25.9689 C   0  0  2  0  0  0  0  0  0  0  0  0
   10.0273  -16.2207   25.0409 N   0  0  0  0  0  0  0  0  0  0  0  0
   11.5389  -16.9957   26.7911 C   0  0  0  0  0  0  0  0  0  0  0  0
   12.7218  -16.8493   27.4880 O   0  0  0  0  0  0  0  0  0  0  0  0
   10.8998  -18.0732   26.8520 O   0  0  0  0  0  0  0  0  0  0  0  0
  2  1  1  1
  3  4  1  0
  3  2  1  0
  4  5  2  0
  5  6  1  0
  7  6  2  0
  8  7  1  0
  9  8  2  0
  9  4  1  0
 10  2  1  0
 10 17  1  0
 11 10  2  0
 13 12  1  0
 14 13  1  0
 16 15  1  6
 15 14  1  0
 16 17  1  0
 18 16  1  0
 19 18  2  0
 20 21  1  0
 21 22  1  0
 22 24  1  0
 22 23  1  6
 24 26  1  0
 24 25  1  1
 25 18  1  0
 26 27  1  0
 28 26  2  0
M  END
$$$$
