FMI.pdb
     RDKit          3D

 28 28  0  0  1  0  0  0  0  0999 V2000
    6.0271  -19.3422   23.5001 N   0  0  0  0  0  0  0  0  0  0  0  0
    6.2343  -17.9382   23.8950 C   0  0  1  0  0  0  0  0  0  0  0  0
    6.0579  -17.9227   25.3992 C   0  0  0  0  0  0  0  0  0  0  0  0
    6.2513  -16.5972   26.0006 C   0  0  0  0  0  0  0  0  0  0  0  0
    7.0521  -16.3177   27.0922 C   0  0  0  0  0  0  0  0  0  0  0  0
    7.2116  -15.0704   27.6325 C   0  0  0  0  0  0  0  0  0  0  0  0
    6.5202  -14.0107   27.0425 C   0  0  0  0  0  0  0  0  0  0  0  0
    5.7001  -14.2333   25.9420 C   0  0  0  0  0  0  0  0  0  0  0  0
    5.5752  -15.5077   25.4379 C   0  0  0  0  0  0  0  0  0  0  0  0
    7.6440  -17.5542   23.5996 C   0  0  0  0  0  0  0  0  0  0  0  0
    8.5637  -18.3556   23.8160 O   0  0  0  0  0  0  0  0  0  0  0  0
    8.3072  -11.6794   21.0205 C   0  0  0  0  0  0  0  0  0  0  0  0
    7.8618  -13.0537   19.9033 S   0  0  0  0  0  0  0  0  0  0  0  0
    7.8185  -14.5726   20.9147 C   0  0  0  0  0  0  0  0  0  0  0  0
    8.9592  -14.5286   21.8763 C   0  0  0  0  0  0  0  0  0  0  0  0
    9.2116  -15.7951   22.6372 C   0  0  2  0  0  0  0  0  0  0  0  0
    7.9047  -16.2847   23.0774 N   0  0  0  0  0  0  0  0  0  0  0  0
   10.1277  -15.6468   23.7780 C   0  0  0  0  0  0  0  0  0  0  0  0
   11.3346  -15.3428   23.5897 O   0  0  0  0  0  0  0  0  0  0  0  0
    9.8353  -12.2016   27.6332 C   0  0  0  0  0  0  0  0  0  0  0  0
   10.2817  -13.2080   26.5988 C   0  0  0  0  0  0  0  0  0  0  0  0
   10.2915  -14.6011   27.2100 C   0  0  2  0  0  0  0  0  0  0  0  0
   11.2560  -14.5911   28.3963 C   0  0  0  0  0  0  0  0  0  0  0  0
   10.6346  -15.6570   26.2278 C   0  0  2  0  0  0  0  0  0  0  0  0
    9.7351  -15.8316   25.1286 N   0  0  0  0  0  0  0  0  0  0  0  0
   10.9364  -16.9469   26.9346 C   0  0  0  0  0  0  0  0  0  0  0  0
   12.1362  -17.0604   27.6083 O   0  0  0  0  0  0  0  0  0  0  0  0
   10.1273  -17.9051   26.9210 O   0  0  0  0  0  0  0  0  0  0  0  0
  2  1  1  1
  3  4  1  0
  3  2  1  0
  4  5  2  0
  5  6  1  0
  7  6  2  0
  8  7  1  0
  9  8  2  0
  9  4  1  0
 10  2  1  0
 10 17  1  0
 11 10  2  0
 13 12  1  0
 14 13  1  0
 16 15  1  1
 15 14  1  0
 16 17  1  0
 18 16  1  0
 19 18  2  0
 20 21  1  0
 21 22  1  0
 22 24  1  0
 22 23  1  1
 24 26  1  0
 24 25  1  6
 25 18  1  0
 26 27  1  0
 28 26  2  0
M  END
$$$$
