FMI.pdb
     RDKit          3D

 28 28  0  0  1  0  0  0  0  0999 V2000
    5.8880  -17.6578   25.4307 N   0  0  0  0  0  0  0  0  0  0  0  0
    6.2089  -17.6357   23.9931 C   0  0  1  0  0  0  0  0  0  0  0  0
    5.6255  -16.3355   23.4800 C   0  0  0  0  0  0  0  0  0  0  0  0
    6.0875  -15.1523   24.2164 C   0  0  0  0  0  0  0  0  0  0  0  0
    6.7931  -14.0930   23.6767 C   0  0  0  0  0  0  0  0  0  0  0  0
    7.2125  -13.0026   24.3896 C   0  0  0  0  0  0  0  0  0  0  0  0
    6.9077  -12.9569   25.7512 C   0  0  0  0  0  0  0  0  0  0  0  0
    6.2002  -13.9945   26.3477 C   0  0  0  0  0  0  0  0  0  0  0  0
    5.8018  -15.0682   25.5847 C   0  0  0  0  0  0  0  0  0  0  0  0
    7.6886  -17.5656   23.8275 C   0  0  0  0  0  0  0  0  0  0  0  0
    8.4210  -18.3384   24.4608 O   0  0  0  0  0  0  0  0  0  0  0  0
    8.1550  -11.6983   20.4930 C   0  0  0  0  0  0  0  0  0  0  0  0
    9.0753  -13.2399   20.1592 S   0  0  0  0  0  0  0  0  0  0  0  0
    8.9471  -14.2746   21.6574 C   0  0  0  0  0  0  0  0  0  0  0  0
    9.6846  -15.5488   21.4122 C   0  0  0  0  0  0  0  0  0  0  0  0
    9.6256  -16.5533   22.5232 C   0  0  2  0  0  0  0  0  0  0  0  0
    8.2277  -16.6206   22.9508 N   0  0  0  0  0  0  0  0  0  0  0  0
   10.5083  -16.2544   23.6607 C   0  0  0  0  0  0  0  0  0  0  0  0
   11.6251  -15.7050   23.4725 O   0  0  0  0  0  0  0  0  0  0  0  0
   10.3914  -13.5828   28.9730 C   0  0  0  0  0  0  0  0  0  0  0  0
   11.1726  -14.5114   28.0732 C   0  0  0  0  0  0  0  0  0  0  0  0
   10.2641  -15.0474   26.9771 C   0  0  2  0  0  0  0  0  0  0  0  0
    9.0045  -15.6080   27.6379 C   0  0  0  0  0  0  0  0  0  0  0  0
   10.9322  -16.0539   26.1181 C   0  0  2  0  0  0  0  0  0  0  0  0
   10.1807  -16.5545   25.0080 N   0  0  0  0  0  0  0  0  0  0  0  0
   11.5153  -17.1519   26.9601 C   0  0  0  0  0  0  0  0  0  0  0  0
   12.6011  -16.8582   27.7608 O   0  0  0  0  0  0  0  0  0  0  0  0
   11.0372  -18.3113   26.9457 O   0  0  0  0  0  0  0  0  0  0  0  0
  2  1  1  1
  3  4  1  0
  3  2  1  0
  4  5  2  0
  5  6  1  0
  7  6  2  0
  8  7  1  0
  9  8  2  0
  9  4  1  0
 10  2  1  0
 10 17  1  0
 11 10  2  0
 13 12  1  0
 14 13  1  0
 16 15  1  6
 15 14  1  0
 16 17  1  0
 18 16  1  0
 19 18  2  0
 20 21  1  0
 21 22  1  0
 22 24  1  0
 22 23  1  1
 24 26  1  0
 24 25  1  6
 25 18  1  0
 26 27  1  0
 28 26  2  0
M  END
$$$$
