FMI.pdb
     RDKit          3D

 28 28  0  0  1  0  0  0  0  0999 V2000
    5.4049  -18.5298   24.7262 N   0  0  0  0  0  0  0  0  0  0  0  0
    5.8981  -17.1417   24.7429 C   0  0  1  0  0  0  0  0  0  0  0  0
    6.1327  -16.8254   26.2054 C   0  0  0  0  0  0  0  0  0  0  0  0
    6.2435  -15.3884   26.4861 C   0  0  0  0  0  0  0  0  0  0  0  0
    7.1811  -14.8000   27.3141 C   0  0  0  0  0  0  0  0  0  0  0  0
    7.2589  -13.4556   27.5583 C   0  0  0  0  0  0  0  0  0  0  0  0
    6.3304  -12.6238   26.9299 C   0  0  0  0  0  0  0  0  0  0  0  0
    5.3644  -13.1607   26.0862 C   0  0  0  0  0  0  0  0  0  0  0  0
    5.3307  -14.5201   25.8749 C   0  0  0  0  0  0  0  0  0  0  0  0
    7.2166  -17.0871   24.0498 C   0  0  0  0  0  0  0  0  0  0  0  0
    8.0415  -17.9968   24.2130 O   0  0  0  0  0  0  0  0  0  0  0  0
    7.4616  -12.8777   19.4766 C   0  0  0  0  0  0  0  0  0  0  0  0
    9.2534  -12.7331   19.7985 S   0  0  0  0  0  0  0  0  0  0  0  0
    9.7323  -14.1722   20.8142 C   0  0  0  0  0  0  0  0  0  0  0  0
    8.5606  -14.5671   21.6503 C   0  0  0  0  0  0  0  0  0  0  0  0
    8.7735  -15.7537   22.5409 C   0  0  2  0  0  0  0  0  0  0  0  0
    7.5002  -16.0000   23.2190 N   0  0  0  0  0  0  0  0  0  0  0  0
    9.8642  -15.5955   23.5144 C   0  0  0  0  0  0  0  0  0  0  0  0
   10.8482  -14.8553   23.2530 O   0  0  0  0  0  0  0  0  0  0  0  0
   10.2512  -12.6284   27.4352 C   0  0  0  0  0  0  0  0  0  0  0  0
   10.6261  -13.5695   26.3144 C   0  0  0  0  0  0  0  0  0  0  0  0
   10.5767  -15.0058   26.8130 C   0  0  2  0  0  0  0  0  0  0  0  0
   11.5183  -15.1236   28.0119 C   0  0  0  0  0  0  0  0  0  0  0  0
   10.9022  -15.9926   25.7558 C   0  0  2  0  0  0  0  0  0  0  0  0
    9.8903  -16.2444   24.7757 N   0  0  0  0  0  0  0  0  0  0  0  0
   11.4362  -17.2550   26.3687 C   0  0  0  0  0  0  0  0  0  0  0  0
   12.6928  -17.2260   26.9401 O   0  0  0  0  0  0  0  0  0  0  0  0
   10.7676  -18.3161   26.3683 O   0  0  0  0  0  0  0  0  0  0  0  0
  2  1  1  1
  3  4  1  0
  3  2  1  0
  4  5  2  0
  5  6  1  0
  7  6  2  0
  8  7  1  0
  9  8  2  0
  9  4  1  0
 10  2  1  0
 10 17  1  0
 11 10  2  0
 13 12  1  0
 14 13  1  0
 16 15  1  1
 15 14  1  0
 16 17  1  0
 18 16  1  0
 19 18  2  0
 20 21  1  0
 21 22  1  0
 22 24  1  0
 22 23  1  1
 24 26  1  0
 24 25  1  1
 25 18  1  0
 26 27  1  0
 28 26  2  0
M  END
$$$$
