FMI.pdb
     RDKit          3D

 28 28  0  0  1  0  0  0  0  0999 V2000
    5.4063  -18.6143   24.9581 N   0  0  0  0  0  0  0  0  0  0  0  0
    5.8275  -17.2027   24.9496 C   0  0  1  0  0  0  0  0  0  0  0  0
    6.2368  -16.9060   26.3773 C   0  0  0  0  0  0  0  0  0  0  0  0
    6.7836  -15.5562   26.5642 C   0  0  0  0  0  0  0  0  0  0  0  0
    8.1218  -15.2144   26.5040 C   0  0  0  0  0  0  0  0  0  0  0  0
    8.6026  -13.9458   26.6843 C   0  0  0  0  0  0  0  0  0  0  0  0
    7.6813  -12.9301   26.9462 C   0  0  0  0  0  0  0  0  0  0  0  0
    6.3225  -13.2159   27.0181 C   0  0  0  0  0  0  0  0  0  0  0  0
    5.8921  -14.5093   26.8287 C   0  0  0  0  0  0  0  0  0  0  0  0
    7.0387  -17.0631   24.0921 C   0  0  0  0  0  0  0  0  0  0  0  0
    7.8652  -17.9839   24.0312 O   0  0  0  0  0  0  0  0  0  0  0  0
    9.6835  -12.0390   18.5811 C   0  0  0  0  0  0  0  0  0  0  0  0
    8.3386  -12.6624   19.6477 S   0  0  0  0  0  0  0  0  0  0  0  0
    9.0662  -13.9317   20.7392 C   0  0  0  0  0  0  0  0  0  0  0  0
    7.9981  -14.4321   21.6539 C   0  0  0  0  0  0  0  0  0  0  0  0
    8.4041  -15.5440   22.5735 C   0  0  2  0  0  0  0  0  0  0  0  0
    7.2207  -15.8843   23.3643 N   0  0  0  0  0  0  0  0  0  0  0  0
    9.5443  -15.2258   23.4459 C   0  0  0  0  0  0  0  0  0  0  0  0
   10.1581  -14.1342   23.3185 O   0  0  0  0  0  0  0  0  0  0  0  0
   10.0148  -13.4961   28.6830 C   0  0  0  0  0  0  0  0  0  0  0  0
   10.8695  -14.2187   27.6683 C   0  0  0  0  0  0  0  0  0  0  0  0
    9.9856  -14.8024   26.5764 C   0  0  2  0  0  0  0  0  0  0  0  0
    8.8647  -15.5961   27.2483 C   0  0  0  0  0  0  0  0  0  0  0  0
   10.7420  -15.6282   25.6052 C   0  0  2  0  0  0  0  0  0  0  0  0
   10.0235  -16.0954   24.4592 N   0  0  0  0  0  0  0  0  0  0  0  0
   11.4706  -16.7317   26.3166 C   0  0  0  0  0  0  0  0  0  0  0  0
   12.5633  -16.4018   27.0934 O   0  0  0  0  0  0  0  0  0  0  0  0
   11.1059  -17.9275   26.2159 O   0  0  0  0  0  0  0  0  0  0  0  0
  2  1  1  1
  3  4  1  0
  3  2  1  0
  4  5  2  0
  5  6  1  0
  7  6  2  0
  8  7  1  0
  9  8  2  0
  9  4  1  0
 10  2  1  0
 10 17  1  0
 11 10  2  0
 13 12  1  0
 14 13  1  0
 16 15  1  1
 15 14  1  0
 16 17  1  0
 18 16  1  0
 19 18  2  0
 20 21  1  0
 21 22  1  0
 22 24  1  0
 22 23  1  1
 24 26  1  0
 24 25  1  6
 25 18  1  0
 26 27  1  0
 28 26  2  0
M  END
$$$$
