HCS.pdb
     RDKit          3D

 23 23  0  0  1  0  0  0  0  0999 V2000
   18.2939  -12.7344  -17.6007 N   0  0  0  0  0  0  0  0  0  0  0  0
   19.4778  -12.0374  -17.1348 C   0  0  1  0  0  0  0  0  0  0  0  0
   20.5525  -12.2356  -18.1564 C   0  0  0  0  0  0  0  0  0  0  0  0
   20.9694  -13.6281  -18.3469 C   0  0  0  0  0  0  0  0  0  0  0  0
   21.6133  -14.4230  -17.4344 C   0  0  0  0  0  0  0  0  0  0  0  0
   21.8128  -15.6164  -17.9967 N   0  0  0  0  0  0  0  0  0  0  0  0
   21.3052  -15.5767  -19.2394 C   0  0  0  0  0  0  0  0  0  0  0  0
   20.7797  -14.3569  -19.4747 N   0  0  0  0  0  0  0  0  0  0  0  0
   19.2114  -10.6319  -16.8017 C   0  0  0  0  0  0  0  0  0  0  0  0
   18.7426   -9.8827  -17.6925 O   0  0  0  0  0  0  0  0  0  0  0  0
   19.4449  -10.0487  -15.5385 N   0  0  0  0  0  0  0  0  0  0  0  0
   19.1321   -8.6964  -15.1767 C   0  0  1  0  0  0  0  0  0  0  0  0
   18.1584   -8.5820  -14.0348 C   0  0  0  0  0  0  0  0  0  0  0  0
   16.6754   -9.5918  -14.2991 S   0  0  0  0  0  0  0  0  0  0  0  0
   20.3589   -7.9388  -14.7659 C   0  0  0  0  0  0  0  0  0  0  0  0
   21.1898   -8.4678  -13.9728 O   0  0  0  0  0  0  0  0  0  0  0  0
   20.6522   -4.0950  -15.8391 O   0  0  0  0  0  0  0  0  0  0  0  0
   21.8960   -4.7470  -15.9456 C   0  0  0  0  0  0  0  0  0  0  0  0
   21.8841   -5.9455  -14.9871 C   0  0  2  0  0  0  0  0  0  0  0  0
   20.6276   -6.6336  -15.2389 N   0  0  0  0  0  0  0  0  0  0  0  0
   21.9382   -5.3874  -13.6179 C   0  0  0  0  0  0  0  0  0  0  0  0
   23.0907   -4.7915  -13.1436 O   0  0  0  0  0  0  0  0  0  0  0  0
   20.9402   -5.4538  -12.8862 O   0  0  0  0  0  0  0  0  0  0  0  0
  2  1  1  6
  2  9  1  0
  2  3  1  0
  3  4  1  0
  4  8  1  0
  4  5  2  0
  5  6  1  0
  7  6  1  0
  8  7  2  0
  9 11  1  0
 10  9  2  0
 11 12  1  0
 12 15  1  0
 13 14  1  0
 12 13  1  1
 15 16  2  0
 15 20  1  0
 18 17  1  0
 19 18  1  6
 19 21  1  0
 20 19  1  0
 21 22  1  0
 23 21  2  0
M  END
$$$$
