HCS.pdb
     RDKit          3D

 23 23  0  0  1  0  0  0  0  0999 V2000
   18.6139   -9.9709  -14.4237 N   0  0  0  0  0  0  0  0  0  0  0  0
   19.0598   -9.0148  -13.4280 C   0  0  1  0  0  0  0  0  0  0  0  0
   20.1504   -8.1955  -14.0421 C   0  0  0  0  0  0  0  0  0  0  0  0
   21.3236   -8.9604  -14.4752 C   0  0  0  0  0  0  0  0  0  0  0  0
   21.7966   -9.0803  -15.7562 C   0  0  0  0  0  0  0  0  0  0  0  0
   22.8787   -9.8602  -15.7240 N   0  0  0  0  0  0  0  0  0  0  0  0
   23.0855  -10.2259  -14.4484 C   0  0  0  0  0  0  0  0  0  0  0  0
   22.1354   -9.6802  -13.6617 N   0  0  0  0  0  0  0  0  0  0  0  0
   17.9546   -8.2274  -12.8662 C   0  0  0  0  0  0  0  0  0  0  0  0
   16.9604   -7.9856  -13.5926 O   0  0  0  0  0  0  0  0  0  0  0  0
   17.9224   -7.7132  -11.5528 N   0  0  0  0  0  0  0  0  0  0  0  0
   16.8446   -6.9584  -10.9818 C   0  0  1  0  0  0  0  0  0  0  0  0
   16.8451   -6.9403   -9.4768 C   0  0  0  0  0  0  0  0  0  0  0  0
   16.5192   -8.5804   -8.7748 S   0  0  0  0  0  0  0  0  0  0  0  0
   16.8811   -5.5262  -11.4235 C   0  0  0  0  0  0  0  0  0  0  0  0
   17.9922   -4.9584  -11.6286 O   0  0  0  0  0  0  0  0  0  0  0  0
   16.1072   -2.4847  -14.3928 O   0  0  0  0  0  0  0  0  0  0  0  0
   16.1309   -3.7183  -13.7137 C   0  0  0  0  0  0  0  0  0  0  0  0
   15.6971   -3.4668  -12.2632 C   0  0  2  0  0  0  0  0  0  0  0  0
   15.7011   -4.7729  -11.6231 N   0  0  0  0  0  0  0  0  0  0  0  0
   14.3351   -2.8922  -12.3269 C   0  0  0  0  0  0  0  0  0  0  0  0
   14.1485   -1.5255  -12.4027 O   0  0  0  0  0  0  0  0  0  0  0  0
   13.3491   -3.6426  -12.3123 O   0  0  0  0  0  0  0  0  0  0  0  0
  2  1  1  6
  2  9  1  0
  2  3  1  0
  3  4  1  0
  4  8  1  0
  4  5  2  0
  5  6  1  0
  7  6  1  0
  8  7  2  0
  9 11  1  0
 10  9  2  0
 11 12  1  0
 12 15  1  0
 13 14  1  0
 12 13  1  1
 15 16  2  0
 15 20  1  0
 18 17  1  0
 19 18  1  6
 19 21  1  0
 20 19  1  0
 21 22  1  0
 23 21  2  0
M  END
$$$$
