HCS.pdb
     RDKit          3D

 23 23  0  0  1  0  0  0  0  0999 V2000
   23.7971  -11.8277  -19.2733 N   0  0  0  0  0  0  0  0  0  0  0  0
   22.6647  -11.8330  -18.3666 C   0  0  1  0  0  0  0  0  0  0  0  0
   22.4006  -13.2534  -17.9786 C   0  0  0  0  0  0  0  0  0  0  0  0
   22.0427  -14.1377  -19.0917 C   0  0  0  0  0  0  0  0  0  0  0  0
   22.8303  -15.1094  -19.6524 C   0  0  0  0  0  0  0  0  0  0  0  0
   22.1364  -15.6847  -20.6361 N   0  0  0  0  0  0  0  0  0  0  0  0
   20.9344  -15.0887  -20.6960 C   0  0  0  0  0  0  0  0  0  0  0  0
   20.8571  -14.1303  -19.7500 N   0  0  0  0  0  0  0  0  0  0  0  0
   22.8461  -10.9193  -17.2311 C   0  0  0  0  0  0  0  0  0  0  0  0
   21.9407  -10.8517  -16.3649 O   0  0  0  0  0  0  0  0  0  0  0  0
   23.9766  -10.0984  -17.0345 N   0  0  0  0  0  0  0  0  0  0  0  0
   24.1689   -9.1979  -15.9348 C   0  0  1  0  0  0  0  0  0  0  0  0
   25.6144   -8.9567  -15.5917 C   0  0  0  0  0  0  0  0  0  0  0  0
   26.4796  -10.4923  -15.1651 S   0  0  0  0  0  0  0  0  0  0  0  0
   23.5686   -7.8526  -16.2133 C   0  0  0  0  0  0  0  0  0  0  0  0
   23.8700   -7.2361  -17.2755 O   0  0  0  0  0  0  0  0  0  0  0  0
   19.9855   -6.8228  -15.8891 O   0  0  0  0  0  0  0  0  0  0  0  0
   20.6865   -5.9370  -15.0480 C   0  0  0  0  0  0  0  0  0  0  0  0
   22.1456   -5.8918  -15.5217 C   0  0  2  0  0  0  0  0  0  0  0  0
   22.6630   -7.2360  -15.3193 N   0  0  0  0  0  0  0  0  0  0  0  0
   22.8347   -4.9044  -14.6620 C   0  0  0  0  0  0  0  0  0  0  0  0
   22.5837   -3.5528  -14.7983 O   0  0  0  0  0  0  0  0  0  0  0  0
   23.6467   -5.2911  -13.8093 O   0  0  0  0  0  0  0  0  0  0  0  0
  2  1  1  6
  2  9  1  0
  2  3  1  0
  3  4  1  0
  4  8  1  0
  4  5  2  0
  5  6  1  0
  7  6  1  0
  8  7  2  0
  9 11  1  0
 10  9  2  0
 11 12  1  0
 12 15  1  0
 13 14  1  0
 12 13  1  6
 15 16  2  0
 15 20  1  0
 18 17  1  0
 19 18  1  1
 19 21  1  0
 20 19  1  0
 21 22  1  0
 23 21  2  0
M  END
$$$$
