HCS.pdb
     RDKit          3D

 23 23  0  0  1  0  0  0  0  0999 V2000
   21.3677  -12.6277  -18.6010 N   0  0  0  0  0  0  0  0  0  0  0  0
   20.8670  -11.6783  -17.6251 C   0  0  1  0  0  0  0  0  0  0  0  0
   20.5920  -12.4294  -16.3609 C   0  0  0  0  0  0  0  0  0  0  0  0
   19.4828  -13.3845  -16.4430 C   0  0  0  0  0  0  0  0  0  0  0  0
   19.5809  -14.7490  -16.5298 C   0  0  0  0  0  0  0  0  0  0  0  0
   18.3447  -15.2477  -16.5851 N   0  0  0  0  0  0  0  0  0  0  0  0
   17.4825  -14.2193  -16.5343 C   0  0  0  0  0  0  0  0  0  0  0  0
   18.1662  -13.0599  -16.4463 N   0  0  0  0  0  0  0  0  0  0  0  0
   21.7528  -10.5185  -17.4593 C   0  0  0  0  0  0  0  0  0  0  0  0
   22.9841  -10.7186  -17.3237 O   0  0  0  0  0  0  0  0  0  0  0  0
   21.3210   -9.1755  -17.4402 N   0  0  0  0  0  0  0  0  0  0  0  0
   22.1690   -8.0322  -17.2642 C   0  0  1  0  0  0  0  0  0  0  0  0
   22.5951   -7.3864  -18.5552 C   0  0  0  0  0  0  0  0  0  0  0  0
   23.5812   -5.8901  -18.2765 S   0  0  0  0  0  0  0  0  0  0  0  0
   21.4927   -6.9641  -16.4583 C   0  0  0  0  0  0  0  0  0  0  0  0
   20.3757   -6.5047  -16.8329 O   0  0  0  0  0  0  0  0  0  0  0  0
   21.0636   -7.0834  -12.7487 O   0  0  0  0  0  0  0  0  0  0  0  0
   21.7011   -5.8525  -12.9978 C   0  0  0  0  0  0  0  0  0  0  0  0
   21.3983   -5.4491  -14.4473 C   0  0  2  0  0  0  0  0  0  0  0  0
   22.0650   -6.4417  -15.2755 N   0  0  0  0  0  0  0  0  0  0  0  0
   21.9764   -4.1004  -14.6363 C   0  0  0  0  0  0  0  0  0  0  0  0
   21.3991   -2.9953  -14.0413 O   0  0  0  0  0  0  0  0  0  0  0  0
   22.9896   -3.9573  -15.3353 O   0  0  0  0  0  0  0  0  0  0  0  0
  2  1  1  6
  2  9  1  0
  2  3  1  0
  3  4  1  0
  4  8  1  0
  4  5  2  0
  5  6  1  0
  7  6  1  0
  8  7  2  0
  9 11  1  0
 10  9  2  0
 11 12  1  0
 12 15  1  0
 13 14  1  0
 12 13  1  6
 15 16  2  0
 15 20  1  0
 18 17  1  0
 19 18  1  1
 19 21  1  0
 20 19  1  0
 21 22  1  0
 23 21  2  0
M  END
$$$$
