HCS.pdb
     RDKit          3D

 23 23  0  0  1  0  0  0  0  0999 V2000
   21.9631  -11.5888  -17.8984 N   0  0  0  0  0  0  0  0  0  0  0  0
   22.5593  -10.6495  -16.9674 C   0  0  1  0  0  0  0  0  0  0  0  0
   23.9188  -10.2993  -17.4843 C   0  0  0  0  0  0  0  0  0  0  0  0
   24.8232  -11.4402  -17.6560 C   0  0  0  0  0  0  0  0  0  0  0  0
   24.7559  -12.6447  -17.0049 C   0  0  0  0  0  0  0  0  0  0  0  0
   25.7593  -13.4064  -17.4441 N   0  0  0  0  0  0  0  0  0  0  0  0
   26.4470  -12.6979  -18.3544 C   0  0  0  0  0  0  0  0  0  0  0  0
   25.8843  -11.4806  -18.4993 N   0  0  0  0  0  0  0  0  0  0  0  0
   21.6958   -9.4913  -16.7027 C   0  0  0  0  0  0  0  0  0  0  0  0
   20.8980   -9.1208  -17.5976 O   0  0  0  0  0  0  0  0  0  0  0  0
   21.6927   -8.7507  -15.5019 N   0  0  0  0  0  0  0  0  0  0  0  0
   20.8314   -7.6409  -15.2120 C   0  0  1  0  0  0  0  0  0  0  0  0
   19.6907   -7.9807  -14.2909 C   0  0  0  0  0  0  0  0  0  0  0  0
   20.2199   -9.0250  -12.9060 S   0  0  0  0  0  0  0  0  0  0  0  0
   21.5815   -6.5172  -14.5621 C   0  0  0  0  0  0  0  0  0  0  0  0
   22.7723   -6.6952  -14.1756 O   0  0  0  0  0  0  0  0  0  0  0  0
   23.4206   -2.6816  -15.1595 O   0  0  0  0  0  0  0  0  0  0  0  0
   22.5891   -3.7963  -15.3821 C   0  0  0  0  0  0  0  0  0  0  0  0
   21.7852   -4.0489  -14.0994 C   0  0  2  0  0  0  0  0  0  0  0  0
   20.9991   -5.2444  -14.3611 N   0  0  0  0  0  0  0  0  0  0  0  0
   20.9260   -2.8605  -13.9027 C   0  0  0  0  0  0  0  0  0  0  0  0
   21.3334   -1.8221  -13.0876 O   0  0  0  0  0  0  0  0  0  0  0  0
   19.8284   -2.7931  -14.4740 O   0  0  0  0  0  0  0  0  0  0  0  0
  2  1  1  6
  2  9  1  0
  2  3  1  0
  3  4  1  0
  4  8  1  0
  4  5  2  0
  5  6  1  0
  7  6  1  0
  8  7  2  0
  9 11  1  0
 10  9  2  0
 11 12  1  0
 12 15  1  0
 13 14  1  0
 12 13  1  1
 15 16  2  0
 15 20  1  0
 18 17  1  0
 19 18  1  6
 19 21  1  0
 20 19  1  0
 21 22  1  0
 23 21  2  0
M  END
$$$$
