HCS.pdb
     RDKit          3D

 23 23  0  0  1  0  0  0  0  0999 V2000
   20.5363  -12.6894  -18.7136 N   0  0  0  0  0  0  0  0  0  0  0  0
   20.7729  -11.2595  -18.7748 C   0  0  1  0  0  0  0  0  0  0  0  0
   19.7846  -10.6766  -19.7346 C   0  0  0  0  0  0  0  0  0  0  0  0
   19.9323  -11.1319  -21.1202 C   0  0  0  0  0  0  0  0  0  0  0  0
   20.5676  -10.4684  -22.1377 C   0  0  0  0  0  0  0  0  0  0  0  0
   20.4784  -11.2190  -23.2372 N   0  0  0  0  0  0  0  0  0  0  0  0
   19.8005  -12.3343  -22.9211 C   0  0  0  0  0  0  0  0  0  0  0  0
   19.4544  -12.2994  -21.6179 N   0  0  0  0  0  0  0  0  0  0  0  0
   20.7717  -10.6295  -17.4480 C   0  0  0  0  0  0  0  0  0  0  0  0
   19.9317  -11.0176  -16.6004 O   0  0  0  0  0  0  0  0  0  0  0  0
   21.6551   -9.6059  -17.0451 N   0  0  0  0  0  0  0  0  0  0  0  0
   21.6647   -8.9756  -15.7567 C   0  0  1  0  0  0  0  0  0  0  0  0
   22.8429   -9.3573  -14.9015 C   0  0  0  0  0  0  0  0  0  0  0  0
   22.8012   -8.5448  -13.2808 S   0  0  0  0  0  0  0  0  0  0  0  0
   21.6927   -7.4813  -15.8752 C   0  0  0  0  0  0  0  0  0  0  0  0
   22.5581   -6.9238  -16.6095 O   0  0  0  0  0  0  0  0  0  0  0  0
   18.6231   -5.0935  -16.1068 O   0  0  0  0  0  0  0  0  0  0  0  0
   19.3927   -4.7281  -14.9853 C   0  0  0  0  0  0  0  0  0  0  0  0
   20.8318   -5.2043  -15.2251 C   0  0  2  0  0  0  0  0  0  0  0  0
   20.7732   -6.6572  -15.1860 N   0  0  0  0  0  0  0  0  0  0  0  0
   21.6440   -4.6588  -14.1152 C   0  0  0  0  0  0  0  0  0  0  0  0
   21.9858   -3.3208  -14.0820 O   0  0  0  0  0  0  0  0  0  0  0  0
   22.0232   -5.4081  -13.2038 O   0  0  0  0  0  0  0  0  0  0  0  0
  2  1  1  1
  2  9  1  0
  2  3  1  0
  3  4  1  0
  4  8  1  0
  4  5  2  0
  5  6  1  0
  7  6  1  0
  8  7  2  0
  9 11  1  0
 10  9  2  0
 11 12  1  0
 12 15  1  0
 13 14  1  0
 12 13  1  1
 15 16  2  0
 15 20  1  0
 18 17  1  0
 19 18  1  1
 19 21  1  0
 20 19  1  0
 21 22  1  0
 23 21  2  0
M  END
$$$$
