HCS.pdb
     RDKit          3D

 23 23  0  0  1  0  0  0  0  0999 V2000
   26.2416  -33.0533  -11.2344 N   0  0  0  0  0  0  0  0  0  0  0  0
   26.0438  -34.1310  -10.2836 C   0  0  1  0  0  0  0  0  0  0  0  0
   26.9177  -35.2709  -10.7015 C   0  0  0  0  0  0  0  0  0  0  0  0
   26.6779  -35.7619  -12.0619 C   0  0  0  0  0  0  0  0  0  0  0  0
   25.5053  -36.2742  -12.5535 C   0  0  0  0  0  0  0  0  0  0  0  0
   25.7043  -36.6051  -13.8306 N   0  0  0  0  0  0  0  0  0  0  0  0
   26.9769  -36.3079  -14.1401 C   0  0  0  0  0  0  0  0  0  0  0  0
   27.5949  -35.7860  -13.0606 N   0  0  0  0  0  0  0  0  0  0  0  0
   26.2359  -33.6995   -8.8929 C   0  0  0  0  0  0  0  0  0  0  0  0
   26.2037  -32.4718   -8.6357 O   0  0  0  0  0  0  0  0  0  0  0  0
   26.4573  -34.5712   -7.8058 N   0  0  0  0  0  0  0  0  0  0  0  0
   26.4627  -34.1906   -6.4229 C   0  0  1  0  0  0  0  0  0  0  0  0
   25.1734  -33.5687   -5.9581 C   0  0  0  0  0  0  0  0  0  0  0  0
   25.2600  -33.0312   -4.2282 S   0  0  0  0  0  0  0  0  0  0  0  0
   26.7126  -35.3679   -5.5289 C   0  0  0  0  0  0  0  0  0  0  0  0
   25.8278  -36.2626   -5.4036 O   0  0  0  0  0  0  0  0  0  0  0  0
   29.8132  -35.1688   -3.1533 O   0  0  0  0  0  0  0  0  0  0  0  0
   29.6769  -36.5141   -3.5472 C   0  0  0  0  0  0  0  0  0  0  0  0
   28.2398  -36.7163   -4.0465 C   0  0  2  0  0  0  0  0  0  0  0  0
   27.9198  -35.5193   -4.8083 N   0  0  0  0  0  0  0  0  0  0  0  0
   27.3912  -36.8416   -2.8410 C   0  0  0  0  0  0  0  0  0  0  0  0
   27.5013  -37.9408   -2.0115 O   0  0  0  0  0  0  0  0  0  0  0  0
   26.5718  -35.9524   -2.5698 O   0  0  0  0  0  0  0  0  0  0  0  0
  2  1  1  6
  2  9  1  0
  2  3  1  0
  3  4  1  0
  4  8  1  0
  4  5  2  0
  5  6  1  0
  7  6  1  0
  8  7  2  0
  9 11  1  0
 10  9  2  0
 11 12  1  0
 12 15  1  0
 13 14  1  0
 12 13  1  1
 15 16  2  0
 15 20  1  0
 18 17  1  0
 19 18  1  1
 19 21  1  0
 20 19  1  0
 21 22  1  0
 23 21  2  0
M  END
$$$$
