HCS.pdb
     RDKit          3D

 23 23  0  0  1  0  0  0  0  0999 V2000
   21.3026  -11.2608  -18.2664 N   0  0  0  0  0  0  0  0  0  0  0  0
   20.0085  -10.6122  -18.1708 C   0  0  1  0  0  0  0  0  0  0  0  0
   18.9896  -11.6714  -17.8922 C   0  0  0  0  0  0  0  0  0  0  0  0
   18.9142  -12.7318  -18.9017 C   0  0  0  0  0  0  0  0  0  0  0  0
   18.1183  -12.7460  -20.0176 C   0  0  0  0  0  0  0  0  0  0  0  0
   18.3472  -13.8860  -20.6719 N   0  0  0  0  0  0  0  0  0  0  0  0
   19.2692  -14.5784  -19.9834 C   0  0  0  0  0  0  0  0  0  0  0  0
   19.6321  -13.8822  -18.8867 N   0  0  0  0  0  0  0  0  0  0  0  0
   20.0035   -9.5004  -17.2111 C   0  0  0  0  0  0  0  0  0  0  0  0
   18.9264   -8.8905  -17.0051 O   0  0  0  0  0  0  0  0  0  0  0  0
   21.1329   -9.0571  -16.4909 N   0  0  0  0  0  0  0  0  0  0  0  0
   21.1392   -7.9966  -15.5252 C   0  0  1  0  0  0  0  0  0  0  0  0
   21.9327   -8.3081  -14.2848 C   0  0  0  0  0  0  0  0  0  0  0  0
   22.0228   -6.8896  -13.1586 S   0  0  0  0  0  0  0  0  0  0  0  0
   21.7193   -6.7369  -16.0949 C   0  0  0  0  0  0  0  0  0  0  0  0
   22.9135   -6.7252  -16.5107 O   0  0  0  0  0  0  0  0  0  0  0  0
   20.7371   -2.3014  -17.7753 O   0  0  0  0  0  0  0  0  0  0  0  0
   20.2774   -3.5119  -17.2212 C   0  0  0  0  0  0  0  0  0  0  0  0
   21.5020   -4.3189  -16.7690 C   0  0  2  0  0  0  0  0  0  0  0  0
   20.9701   -5.5411  -16.1869 N   0  0  0  0  0  0  0  0  0  0  0  0
   22.2006   -3.4910  -15.7613 C   0  0  0  0  0  0  0  0  0  0  0  0
   23.2764   -2.7017  -16.1191 O   0  0  0  0  0  0  0  0  0  0  0  0
   21.8187   -3.5036  -14.5824 O   0  0  0  0  0  0  0  0  0  0  0  0
  2  1  1  1
  2  9  1  0
  2  3  1  0
  3  4  1  0
  4  8  1  0
  4  5  2  0
  5  6  1  0
  7  6  1  0
  8  7  2  0
  9 11  1  0
 10  9  2  0
 11 12  1  0
 12 15  1  0
 13 14  1  0
 12 13  1  1
 15 16  2  0
 15 20  1  0
 18 17  1  0
 19 18  1  1
 19 21  1  0
 20 19  1  0
 21 22  1  0
 23 21  2  0
M  END
$$$$
