HCS.pdb
     RDKit          3D

 23 23  0  0  1  0  0  0  0  0999 V2000
   20.8254  -11.6335  -19.0639 N   0  0  0  0  0  0  0  0  0  0  0  0
   21.7708  -10.6394  -18.5923 C   0  0  1  0  0  0  0  0  0  0  0  0
   22.2624   -9.8796  -19.7834 C   0  0  0  0  0  0  0  0  0  0  0  0
   23.0364  -10.6741  -20.7420 C   0  0  0  0  0  0  0  0  0  0  0  0
   22.5548  -11.3123  -21.8555 C   0  0  0  0  0  0  0  0  0  0  0  0
   23.5787  -11.9217  -22.4557 N   0  0  0  0  0  0  0  0  0  0  0  0
   24.6852  -11.6738  -21.7362 C   0  0  0  0  0  0  0  0  0  0  0  0
   24.3710  -10.9047  -20.6736 N   0  0  0  0  0  0  0  0  0  0  0  0
   21.2186   -9.7973  -17.5231 C   0  0  0  0  0  0  0  0  0  0  0  0
   20.0146   -9.4511  -17.5936 O   0  0  0  0  0  0  0  0  0  0  0  0
   21.9473   -9.3397  -16.4050 N   0  0  0  0  0  0  0  0  0  0  0  0
   21.4009   -8.6065  -15.3001 C   0  0  1  0  0  0  0  0  0  0  0  0
   21.7478   -9.1853  -13.9548 C   0  0  0  0  0  0  0  0  0  0  0  0
   21.0376   -8.2205  -12.5933 S   0  0  0  0  0  0  0  0  0  0  0  0
   21.8836   -7.1871  -15.2887 C   0  0  0  0  0  0  0  0  0  0  0  0
   23.1244   -6.9437  -15.3032 O   0  0  0  0  0  0  0  0  0  0  0  0
   20.5504   -2.5312  -15.7092 O   0  0  0  0  0  0  0  0  0  0  0  0
   20.1665   -3.8791  -15.5695 C   0  0  0  0  0  0  0  0  0  0  0  0
   21.4350   -4.7081  -15.3263 C   0  0  2  0  0  0  0  0  0  0  0  0
   20.9901   -6.0914  -15.2620 N   0  0  0  0  0  0  0  0  0  0  0  0
   21.9925   -4.2514  -14.0341 C   0  0  0  0  0  0  0  0  0  0  0  0
   22.9813   -3.2876  -13.9933 O   0  0  0  0  0  0  0  0  0  0  0  0
   21.5698   -4.7370  -12.9752 O   0  0  0  0  0  0  0  0  0  0  0  0
  2  1  1  6
  2  9  1  0
  2  3  1  0
  3  4  1  0
  4  8  1  0
  4  5  2  0
  5  6  1  0
  7  6  1  0
  8  7  2  0
  9 11  1  0
 10  9  2  0
 11 12  1  0
 12 15  1  0
 13 14  1  0
 12 13  1  1
 15 16  2  0
 15 20  1  0
 18 17  1  0
 19 18  1  1
 19 21  1  0
 20 19  1  0
 21 22  1  0
 23 21  2  0
M  END
$$$$
