HCS.pdb
     RDKit          3D

 23 23  0  0  1  0  0  0  0  0999 V2000
   20.6243  -20.5533  -12.3191 N   0  0  0  0  0  0  0  0  0  0  0  0
   21.6780  -21.3756  -12.8830 C   0  0  1  0  0  0  0  0  0  0  0  0
   21.2245  -21.8308  -14.2339 C   0  0  0  0  0  0  0  0  0  0  0  0
   20.0451  -22.7014  -14.2247 C   0  0  0  0  0  0  0  0  0  0  0  0
   20.0282  -24.0565  -14.0183 C   0  0  0  0  0  0  0  0  0  0  0  0
   18.7610  -24.4678  -14.0896 N   0  0  0  0  0  0  0  0  0  0  0  0
   17.9923  -23.3944  -14.3360 C   0  0  0  0  0  0  0  0  0  0  0  0
   18.7670  -22.2937  -14.4229 N   0  0  0  0  0  0  0  0  0  0  0  0
   22.9835  -20.7026  -12.8780 C   0  0  0  0  0  0  0  0  0  0  0  0
   23.0391  -19.4986  -13.2270 O   0  0  0  0  0  0  0  0  0  0  0  0
   24.1995  -21.3133  -12.5055 N   0  0  0  0  0  0  0  0  0  0  0  0
   25.4909  -20.6910  -12.5526 C   0  0  1  0  0  0  0  0  0  0  0  0
   26.4896  -21.2893  -11.5987 C   0  0  0  0  0  0  0  0  0  0  0  0
   25.9795  -21.0988   -9.8689 S   0  0  0  0  0  0  0  0  0  0  0  0
   26.0990  -20.7875  -13.9196 C   0  0  0  0  0  0  0  0  0  0  0  0
   25.8677  -21.7995  -14.6417 O   0  0  0  0  0  0  0  0  0  0  0  0
   27.3402  -17.4859  -15.7695 O   0  0  0  0  0  0  0  0  0  0  0  0
   28.2775  -18.5203  -15.9564 C   0  0  0  0  0  0  0  0  0  0  0  0
   27.5508  -19.8573  -15.7567 C   0  0  2  0  0  0  0  0  0  0  0  0
   26.9352  -19.7737  -14.4415 N   0  0  0  0  0  0  0  0  0  0  0  0
   28.5888  -20.9103  -15.8098 C   0  0  0  0  0  0  0  0  0  0  0  0
   29.1376  -21.3003  -17.0161 O   0  0  0  0  0  0  0  0  0  0  0  0
   28.9721  -21.4502  -14.7623 O   0  0  0  0  0  0  0  0  0  0  0  0
  2  1  1  6
  2  9  1  0
  2  3  1  0
  3  4  1  0
  4  8  1  0
  4  5  2  0
  5  6  1  0
  7  6  1  0
  8  7  2  0
  9 11  1  0
 10  9  2  0
 11 12  1  0
 12 15  1  0
 13 14  1  0
 12 13  1  1
 15 16  2  0
 15 20  1  0
 18 17  1  0
 19 18  1  1
 19 21  1  0
 20 19  1  0
 21 22  1  0
 23 21  2  0
M  END
$$$$
