HCS.pdb
     RDKit          3D

 23 23  0  0  1  0  0  0  0  0999 V2000
   20.5862  -10.9794  -18.0973 N   0  0  0  0  0  0  0  0  0  0  0  0
   19.4799  -10.8868  -17.1634 C   0  0  1  0  0  0  0  0  0  0  0  0
   19.1414  -12.2754  -16.7218 C   0  0  0  0  0  0  0  0  0  0  0  0
   18.7552  -13.1868  -17.8031 C   0  0  0  0  0  0  0  0  0  0  0  0
   19.4344  -14.3039  -18.2154 C   0  0  0  0  0  0  0  0  0  0  0  0
   18.7524  -14.8517  -19.2228 N   0  0  0  0  0  0  0  0  0  0  0  0
   17.6640  -14.0962  -19.4428 C   0  0  0  0  0  0  0  0  0  0  0  0
   17.6478  -13.0629  -18.5760 N   0  0  0  0  0  0  0  0  0  0  0  0
   19.7459   -9.9501  -16.0638 C   0  0  0  0  0  0  0  0  0  0  0  0
   18.8744   -9.8086  -15.1722 O   0  0  0  0  0  0  0  0  0  0  0  0
   20.9233   -9.1846  -15.9292 N   0  0  0  0  0  0  0  0  0  0  0  0
   21.2850   -8.4117  -14.7763 C   0  0  1  0  0  0  0  0  0  0  0  0
   22.6105   -8.7975  -14.1767 C   0  0  0  0  0  0  0  0  0  0  0  0
   22.4343  -10.0625  -12.8892 S   0  0  0  0  0  0  0  0  0  0  0  0
   21.3745   -6.9504  -15.0992 C   0  0  0  0  0  0  0  0  0  0  0  0
   22.0949   -6.5612  -16.0628 O   0  0  0  0  0  0  0  0  0  0  0  0
   19.6829   -2.5088  -14.0624 O   0  0  0  0  0  0  0  0  0  0  0  0
   19.6648   -3.8913  -13.7942 C   0  0  0  0  0  0  0  0  0  0  0  0
   20.7669   -4.5496  -14.6353 C   0  0  2  0  0  0  0  0  0  0  0  0
   20.6726   -5.9738  -14.3553 N   0  0  0  0  0  0  0  0  0  0  0  0
   22.0493   -3.9822  -14.1633 C   0  0  0  0  0  0  0  0  0  0  0  0
   22.6452   -4.4496  -13.0080 O   0  0  0  0  0  0  0  0  0  0  0  0
   22.5971   -3.0777  -14.8095 O   0  0  0  0  0  0  0  0  0  0  0  0
  2  1  1  6
  2  9  1  0
  2  3  1  0
  3  4  1  0
  4  8  1  0
  4  5  2  0
  5  6  1  0
  7  6  1  0
  8  7  2  0
  9 11  1  0
 10  9  2  0
 11 12  1  0
 12 15  1  0
 13 14  1  0
 12 13  1  6
 15 16  2  0
 15 20  1  0
 18 17  1  0
 19 18  1  1
 19 21  1  0
 20 19  1  0
 21 22  1  0
 23 21  2  0
M  END
$$$$
