HCS.pdb
     RDKit          3D

 23 23  0  0  1  0  0  0  0  0999 V2000
   11.6823  -23.4849   -0.9599 N   0  0  0  0  0  0  0  0  0  0  0  0
   12.9870  -23.0912   -0.4626 C   0  0  1  0  0  0  0  0  0  0  0  0
   13.4096  -21.8693   -1.2150 C   0  0  0  0  0  0  0  0  0  0  0  0
   13.4774  -22.0367   -2.6698 C   0  0  0  0  0  0  0  0  0  0  0  0
   14.4753  -22.6544   -3.3781 C   0  0  0  0  0  0  0  0  0  0  0  0
   14.1592  -22.5935   -4.6729 N   0  0  0  0  0  0  0  0  0  0  0  0
   12.9853  -21.9503   -4.7809 C   0  0  0  0  0  0  0  0  0  0  0  0
   12.5478  -21.5982   -3.5545 N   0  0  0  0  0  0  0  0  0  0  0  0
   13.0129  -22.9414    0.9983 C   0  0  0  0  0  0  0  0  0  0  0  0
   12.0355  -23.3639    1.6621 O   0  0  0  0  0  0  0  0  0  0  0  0
   14.0675  -22.3502    1.7255 N   0  0  0  0  0  0  0  0  0  0  0  0
   14.2210  -22.3938    3.1509 C   0  0  1  0  0  0  0  0  0  0  0  0
   14.4118  -23.7821    3.7000 C   0  0  0  0  0  0  0  0  0  0  0  0
   15.6686  -24.7122    2.7813 S   0  0  0  0  0  0  0  0  0  0  0  0
   15.4053  -21.5926    3.6018 C   0  0  0  0  0  0  0  0  0  0  0  0
   16.5160  -21.7238    3.0118 O   0  0  0  0  0  0  0  0  0  0  0  0
   16.9986  -17.6778    5.8009 O   0  0  0  0  0  0  0  0  0  0  0  0
   15.9168  -18.4980    5.4260 C   0  0  0  0  0  0  0  0  0  0  0  0
   16.4665  -19.9021    5.1394 C   0  0  2  0  0  0  0  0  0  0  0  0
   15.3270  -20.6803    4.6794 N   0  0  0  0  0  0  0  0  0  0  0  0
   16.9975  -20.4138    6.4220 C   0  0  0  0  0  0  0  0  0  0  0  0
   18.3021  -20.1585    6.7980 O   0  0  0  0  0  0  0  0  0  0  0  0
   16.2664  -21.0793    7.1693 O   0  0  0  0  0  0  0  0  0  0  0  0
  2  1  1  6
  2  9  1  0
  2  3  1  0
  3  4  1  0
  4  8  1  0
  4  5  2  0
  5  6  1  0
  7  6  1  0
  8  7  2  0
  9 11  1  0
 10  9  2  0
 11 12  1  0
 12 15  1  0
 13 14  1  0
 12 13  1  6
 15 16  2  0
 15 20  1  0
 18 17  1  0
 19 18  1  1
 19 21  1  0
 20 19  1  0
 21 22  1  0
 23 21  2  0
M  END
$$$$
