HCS.pdb
     RDKit          3D

 23 23  0  0  1  0  0  0  0  0999 V2000
   20.1337  -13.2425  -16.9825 N   0  0  0  0  0  0  0  0  0  0  0  0
   19.7068  -11.9763  -17.5473 C   0  0  1  0  0  0  0  0  0  0  0  0
   18.4039  -12.2070  -18.2453 C   0  0  0  0  0  0  0  0  0  0  0  0
   18.4711  -13.1311  -19.3814 C   0  0  0  0  0  0  0  0  0  0  0  0
   17.7719  -14.3010  -19.5288 C   0  0  0  0  0  0  0  0  0  0  0  0
   18.1179  -14.8426  -20.6980 N   0  0  0  0  0  0  0  0  0  0  0  0
   19.0175  -14.0315  -21.2779 C   0  0  0  0  0  0  0  0  0  0  0  0
   19.2489  -12.9687  -20.4802 N   0  0  0  0  0  0  0  0  0  0  0  0
   19.6776  -10.8956  -16.5532 C   0  0  0  0  0  0  0  0  0  0  0  0
   18.9446  -11.0289  -15.5434 O   0  0  0  0  0  0  0  0  0  0  0  0
   20.4209   -9.7000  -16.6458 N   0  0  0  0  0  0  0  0  0  0  0  0
   20.4000   -8.6319  -15.6887 C   0  0  1  0  0  0  0  0  0  0  0  0
   21.7215   -8.4002  -15.0067 C   0  0  0  0  0  0  0  0  0  0  0  0
   22.1212   -9.7190  -13.8278 S   0  0  0  0  0  0  0  0  0  0  0  0
   20.0168   -7.3297  -16.3253 C   0  0  0  0  0  0  0  0  0  0  0  0
   20.5378   -6.9895  -17.4261 O   0  0  0  0  0  0  0  0  0  0  0  0
   16.9298   -3.5815  -16.1842 O   0  0  0  0  0  0  0  0  0  0  0  0
   17.4202   -4.7527  -15.5748 C   0  0  0  0  0  0  0  0  0  0  0  0
   18.6626   -5.2053  -16.3540 C   0  0  2  0  0  0  0  0  0  0  0  0
   19.0795   -6.4525  -15.7324 N   0  0  0  0  0  0  0  0  0  0  0  0
   19.6761   -4.1414  -16.1810 C   0  0  0  0  0  0  0  0  0  0  0  0
   19.8563   -3.1739  -17.1504 O   0  0  0  0  0  0  0  0  0  0  0  0
   20.3725   -4.1154  -15.1563 O   0  0  0  0  0  0  0  0  0  0  0  0
  2  1  1  1
  2  9  1  0
  2  3  1  0
  3  4  1  0
  4  8  1  0
  4  5  2  0
  5  6  1  0
  7  6  1  0
  8  7  2  0
  9 11  1  0
 10  9  2  0
 11 12  1  0
 12 15  1  0
 13 14  1  0
 12 13  1  6
 15 16  2  0
 15 20  1  0
 18 17  1  0
 19 18  1  1
 19 21  1  0
 20 19  1  0
 21 22  1  0
 23 21  2  0
M  END
$$$$
