MSK.pdb
     RDKit          3D

 24 23  0  0  1  0  0  0  0  0999 V2000
    5.9342  -11.1092   18.5849 C   0  0  0  0  0  0  0  0  0  0  0  0
    7.3816  -11.8758   19.3357 S   0  0  0  0  0  0  0  0  0  0  0  0
    7.9557  -13.2997   18.3651 C   0  0  0  0  0  0  0  0  0  0  0  0
    9.0815  -14.0241   19.0664 C   0  0  0  0  0  0  0  0  0  0  0  0
    9.5312  -15.2484   18.3573 C   0  0  2  0  0  0  0  0  0  0  0  0
    8.4117  -16.0864   18.0041 N   0  0  0  0  0  0  0  0  0  0  0  0
   10.5668  -16.0155   19.0752 C   0  0  0  0  0  0  0  0  0  0  0  0
   10.1970  -16.9558   19.8137 O   0  0  0  0  0  0  0  0  0  0  0  0
   14.5468  -14.7945   19.1019 O   0  0  0  0  0  0  0  0  0  0  0  0
   14.3319  -16.1916   19.0566 C   0  0  0  0  0  0  0  0  0  0  0  0
   12.9820  -16.4804   19.6777 C   0  0  2  0  0  0  0  0  0  0  0  0
   11.9566  -15.7456   18.9738 N   0  0  0  0  0  0  0  0  0  0  0  0
   13.0508  -16.1057   21.1116 C   0  0  0  0  0  0  0  0  0  0  0  0
   12.8009  -14.9755   21.5546 O   0  0  0  0  0  0  0  0  0  0  0  0
   13.4298  -17.1153   22.0392 N   0  0  0  0  0  0  0  0  0  0  0  0
   13.6140  -16.8920   23.4353 C   0  0  1  0  0  0  0  0  0  0  0  0
   13.2022  -18.1096   24.2819 C   0  0  0  0  0  0  0  0  0  0  0  0
   13.3100  -17.7909   25.7364 C   0  0  0  0  0  0  0  0  0  0  0  0
   12.8475  -18.8171   26.6981 C   0  0  0  0  0  0  0  0  0  0  0  0
   12.7675  -18.3652   28.1219 C   0  0  0  0  0  0  0  0  0  0  0  0
   12.2079  -19.3740   28.9573 N   0  0  0  0  0  0  0  0  0  0  0  0
   14.9451  -16.3870   23.8238 C   0  0  0  0  0  0  0  0  0  0  0  0
   15.1734  -15.4040   24.7756 O   0  0  0  0  0  0  0  0  0  0  0  0
   15.9514  -16.8776   23.2569 O   0  0  0  0  0  0  0  0  0  0  0  0
  1  2  1  0
  3  2  1  0
  4  3  1  0
  5  4  1  0
  5  6  1  1
  7  8  2  0
  7  5  1  0
  9 10  1  0
 11 10  1  6
 11 12  1  0
 12  7  1  0
 13 11  1  0
 14 13  2  0
 15 13  1  0
 16 15  1  0
 16 17  1  1
 17 18  1  0
 18 19  1  0
 19 20  1  0
 20 21  1  0
 22 16  1  0
 22 23  1  0
 24 22  2  0
M  END
$$$$
