MSK.pdb
     RDKit          3D

 24 23  0  0  1  0  0  0  0  0999 V2000
    1.2604  -20.6805   21.1131 C   0  0  0  0  0  0  0  0  0  0  0  0
    2.5623  -20.2339   22.2759 S   0  0  0  0  0  0  0  0  0  0  0  0
    3.8012  -19.1550   21.5011 C   0  0  0  0  0  0  0  0  0  0  0  0
    4.8741  -18.7546   22.4872 C   0  0  0  0  0  0  0  0  0  0  0  0
    5.8393  -17.7659   21.9442 C   0  0  2  0  0  0  0  0  0  0  0  0
    6.2759  -18.1374   20.6207 N   0  0  0  0  0  0  0  0  0  0  0  0
    6.9882  -17.4954   22.8291 C   0  0  0  0  0  0  0  0  0  0  0  0
    8.0795  -18.0470   22.5625 O   0  0  0  0  0  0  0  0  0  0  0  0
    6.4150  -15.2401   26.1824 O   0  0  0  0  0  0  0  0  0  0  0  0
    7.7574  -15.2292   25.7377 C   0  0  0  0  0  0  0  0  0  0  0  0
    7.9927  -16.4817   24.9209 C   0  0  2  0  0  0  0  0  0  0  0  0
    6.9230  -16.6452   23.9639 N   0  0  0  0  0  0  0  0  0  0  0  0
    8.0804  -17.6276   25.8594 C   0  0  0  0  0  0  0  0  0  0  0  0
    7.1073  -18.2798   26.2637 O   0  0  0  0  0  0  0  0  0  0  0  0
    9.3717  -18.0008   26.3249 N   0  0  0  0  0  0  0  0  0  0  0  0
    9.6312  -19.1448   27.1353 C   0  0  1  0  0  0  0  0  0  0  0  0
   10.4885  -20.1954   26.4072 C   0  0  0  0  0  0  0  0  0  0  0  0
   10.6346  -21.4199   27.2485 C   0  0  0  0  0  0  0  0  0  0  0  0
   11.4784  -22.5161   26.7212 C   0  0  0  0  0  0  0  0  0  0  0  0
   11.6179  -23.7020   27.6223 C   0  0  0  0  0  0  0  0  0  0  0  0
   12.5477  -24.6460   27.0997 N   0  0  0  0  0  0  0  0  0  0  0  0
   10.1564  -18.8573   28.4841 C   0  0  0  0  0  0  0  0  0  0  0  0
    9.9472  -19.6511   29.6023 O   0  0  0  0  0  0  0  0  0  0  0  0
   10.8449  -17.8200   28.6410 O   0  0  0  0  0  0  0  0  0  0  0  0
  1  2  1  0
  3  2  1  0
  4  3  1  0
  5  4  1  0
  5  6  1  6
  7  8  2  0
  7  5  1  0
  9 10  1  0
 11 10  1  1
 11 12  1  0
 12  7  1  0
 13 11  1  0
 14 13  2  0
 15 13  1  0
 16 15  1  0
 16 17  1  6
 17 18  1  0
 18 19  1  0
 19 20  1  0
 20 21  1  0
 22 16  1  0
 22 23  1  0
 24 22  2  0
M  END
$$$$
