MSK.pdb
     RDKit          3D

 24 23  0  0  1  0  0  0  0  0999 V2000
    7.9089  -11.9958   21.3277 C   0  0  0  0  0  0  0  0  0  0  0  0
    7.4501  -11.6997   19.6106 S   0  0  0  0  0  0  0  0  0  0  0  0
    7.9696  -13.0719   18.5399 C   0  0  0  0  0  0  0  0  0  0  0  0
    8.3962  -14.2719   19.3535 C   0  0  0  0  0  0  0  0  0  0  0  0
    8.7201  -15.4628   18.5283 C   0  0  2  0  0  0  0  0  0  0  0  0
    7.6038  -15.8386   17.6959 N   0  0  0  0  0  0  0  0  0  0  0  0
    9.2210  -16.6147   19.3018 C   0  0  0  0  0  0  0  0  0  0  0  0
    8.4092  -17.5173   19.6063 O   0  0  0  0  0  0  0  0  0  0  0  0
   13.1891  -17.4598   19.4463 O   0  0  0  0  0  0  0  0  0  0  0  0
   12.2542  -18.4904   19.6987 C   0  0  0  0  0  0  0  0  0  0  0  0
   11.0838  -17.8907   20.4482 C   0  0  2  0  0  0  0  0  0  0  0  0
   10.5707  -16.7545   19.7184 N   0  0  0  0  0  0  0  0  0  0  0  0
   11.5554  -17.5152   21.8039 C   0  0  0  0  0  0  0  0  0  0  0  0
   12.0382  -16.4125   22.0987 O   0  0  0  0  0  0  0  0  0  0  0  0
   11.4441  -18.4898   22.8340 N   0  0  0  0  0  0  0  0  0  0  0  0
   11.9839  -18.3355   24.1445 C   0  0  1  0  0  0  0  0  0  0  0  0
   11.4745  -19.4133   25.1179 C   0  0  0  0  0  0  0  0  0  0  0  0
   11.9923  -19.1564   26.4943 C   0  0  0  0  0  0  0  0  0  0  0  0
   11.7973  -20.2175   27.5082 C   0  0  0  0  0  0  0  0  0  0  0  0
   12.3676  -19.9200   28.8588 C   0  0  0  0  0  0  0  0  0  0  0  0
   12.2822  -21.0511   29.7202 N   0  0  0  0  0  0  0  0  0  0  0  0
   13.4515  -18.1956   24.2106 C   0  0  0  0  0  0  0  0  0  0  0  0
   14.1293  -17.3519   25.0784 O   0  0  0  0  0  0  0  0  0  0  0  0
   14.1465  -18.8876   23.4279 O   0  0  0  0  0  0  0  0  0  0  0  0
  1  2  1  0
  3  2  1  0
  4  3  1  0
  5  4  1  0
  5  6  1  1
  7  8  2  0
  7  5  1  0
  9 10  1  0
 11 10  1  6
 11 12  1  0
 12  7  1  0
 13 11  1  0
 14 13  2  0
 15 13  1  0
 16 15  1  0
 16 17  1  1
 17 18  1  0
 18 19  1  0
 19 20  1  0
 20 21  1  0
 22 16  1  0
 22 23  1  0
 24 22  2  0
M  END
$$$$
