MSK.pdb
     RDKit          3D

 24 23  0  0  1  0  0  0  0  0999 V2000
    8.2734  -11.6400   20.3970 C   0  0  0  0  0  0  0  0  0  0  0  0
    7.3155  -12.3181   19.0298 S   0  0  0  0  0  0  0  0  0  0  0  0
    7.4749  -14.1252   18.9412 C   0  0  0  0  0  0  0  0  0  0  0  0
    7.3530  -14.7549   20.3096 C   0  0  0  0  0  0  0  0  0  0  0  0
    7.3970  -16.2386   20.2856 C   0  0  2  0  0  0  0  0  0  0  0  0
    6.4174  -16.7738   19.3723 N   0  0  0  0  0  0  0  0  0  0  0  0
    7.2867  -16.8672   21.6156 C   0  0  0  0  0  0  0  0  0  0  0  0
    6.5319  -16.3325   22.4587 O   0  0  0  0  0  0  0  0  0  0  0  0
    7.2729  -20.6539   22.5268 O   0  0  0  0  0  0  0  0  0  0  0  0
    7.0160  -19.6613   23.5008 C   0  0  0  0  0  0  0  0  0  0  0  0
    8.0449  -18.5632   23.3363 C   0  0  2  0  0  0  0  0  0  0  0  0
    7.9885  -18.0429   21.9898 N   0  0  0  0  0  0  0  0  0  0  0  0
    9.3761  -19.1346   23.6572 C   0  0  0  0  0  0  0  0  0  0  0  0
    9.9503  -19.9995   22.9805 O   0  0  0  0  0  0  0  0  0  0  0  0
   10.0359  -18.6544   24.8222 N   0  0  0  0  0  0  0  0  0  0  0  0
   11.3192  -19.0987   25.2566 C   0  0  1  0  0  0  0  0  0  0  0  0
   12.4497  -18.6177   24.3295 C   0  0  0  0  0  0  0  0  0  0  0  0
   12.6019  -17.1356   24.4222 C   0  0  0  0  0  0  0  0  0  0  0  0
   13.1872  -16.4333   23.2577 C   0  0  0  0  0  0  0  0  0  0  0  0
   14.5539  -16.8922   22.8585 C   0  0  0  0  0  0  0  0  0  0  0  0
   15.0479  -16.1503   21.7475 N   0  0  0  0  0  0  0  0  0  0  0  0
   11.6321  -18.8354   26.6745 C   0  0  0  0  0  0  0  0  0  0  0  0
   12.7726  -19.2759   27.3298 O   0  0  0  0  0  0  0  0  0  0  0  0
   10.8117  -18.1635   27.3454 O   0  0  0  0  0  0  0  0  0  0  0  0
  1  2  1  0
  3  2  1  0
  4  3  1  0
  5  4  1  0
  5  6  1  6
  7  8  2  0
  7  5  1  0
  9 10  1  0
 11 10  1  6
 11 12  1  0
 12  7  1  0
 13 11  1  0
 14 13  2  0
 15 13  1  0
 16 15  1  0
 16 17  1  6
 17 18  1  0
 18 19  1  0
 19 20  1  0
 20 21  1  0
 22 16  1  0
 22 23  1  0
 24 22  2  0
M  END
$$$$
