MSK.pdb
     RDKit          3D

 24 23  0  0  1  0  0  0  0  0999 V2000
    7.3434  -12.1783   19.2454 C   0  0  0  0  0  0  0  0  0  0  0  0
    6.6739  -13.6531   20.0350 S   0  0  0  0  0  0  0  0  0  0  0  0
    7.8935  -14.9987   20.0679 C   0  0  0  0  0  0  0  0  0  0  0  0
    9.3054  -14.4608   20.0332 C   0  0  0  0  0  0  0  0  0  0  0  0
   10.3442  -15.5142   20.1564 C   0  0  2  0  0  0  0  0  0  0  0  0
   10.0969  -16.5992   19.2389 N   0  0  0  0  0  0  0  0  0  0  0  0
   10.5390  -16.0117   21.5315 C   0  0  0  0  0  0  0  0  0  0  0  0
   11.4008  -16.8995   21.7199 O   0  0  0  0  0  0  0  0  0  0  0  0
    7.9520  -15.5823   24.7217 O   0  0  0  0  0  0  0  0  0  0  0  0
    9.2283  -15.0132   24.9390 C   0  0  0  0  0  0  0  0  0  0  0  0
   10.2149  -15.7072   24.0244 C   0  0  2  0  0  0  0  0  0  0  0  0
    9.8036  -15.5391   22.6498 N   0  0  0  0  0  0  0  0  0  0  0  0
   10.2726  -17.1367   24.4177 C   0  0  0  0  0  0  0  0  0  0  0  0
    9.5649  -18.0285   23.9282 O   0  0  0  0  0  0  0  0  0  0  0  0
   11.2057  -17.5056   25.4259 N   0  0  0  0  0  0  0  0  0  0  0  0
   11.4141  -18.8432   25.8737 C   0  0  1  0  0  0  0  0  0  0  0  0
   12.6435  -19.4953   25.2166 C   0  0  0  0  0  0  0  0  0  0  0  0
   12.7414  -20.9321   25.6098 C   0  0  0  0  0  0  0  0  0  0  0  0
   13.9366  -21.6839   25.1645 C   0  0  0  0  0  0  0  0  0  0  0  0
   13.9494  -23.1343   25.5304 C   0  0  0  0  0  0  0  0  0  0  0  0
   15.1789  -23.7526   25.1635 N   0  0  0  0  0  0  0  0  0  0  0  0
   11.4220  -19.0248   27.3382 C   0  0  0  0  0  0  0  0  0  0  0  0
   11.0036  -20.1716   27.9972 O   0  0  0  0  0  0  0  0  0  0  0  0
   11.8368  -18.0773   28.0486 O   0  0  0  0  0  0  0  0  0  0  0  0
  1  2  1  0
  3  2  1  0
  4  3  1  0
  5  4  1  0
  5  6  1  6
  7  8  2  0
  7  5  1  0
  9 10  1  0
 11 10  1  1
 11 12  1  0
 12  7  1  0
 13 11  1  0
 14 13  2  0
 15 13  1  0
 16 15  1  0
 16 17  1  1
 17 18  1  0
 18 19  1  0
 19 20  1  0
 20 21  1  0
 22 16  1  0
 22 23  1  0
 24 22  2  0
M  END
$$$$
