MSK.pdb
     RDKit          3D

 24 23  0  0  1  0  0  0  0  0999 V2000
    8.0388  -11.5621   20.4420 C   0  0  0  0  0  0  0  0  0  0  0  0
    7.7292  -12.9309   21.5721 S   0  0  0  0  0  0  0  0  0  0  0  0
    8.1332  -14.5273   20.8056 C   0  0  0  0  0  0  0  0  0  0  0  0
    6.8891  -15.2309   20.3144 C   0  0  0  0  0  0  0  0  0  0  0  0
    7.1691  -16.5066   19.6087 C   0  0  2  0  0  0  0  0  0  0  0  0
    5.9577  -17.0888   19.0855 N   0  0  0  0  0  0  0  0  0  0  0  0
    7.9292  -17.4850   20.4095 C   0  0  0  0  0  0  0  0  0  0  0  0
    7.3450  -18.0453   21.3641 O   0  0  0  0  0  0  0  0  0  0  0  0
   11.8626  -18.3818   19.4628 O   0  0  0  0  0  0  0  0  0  0  0  0
   11.0868  -19.4297   20.0105 C   0  0  0  0  0  0  0  0  0  0  0  0
   10.0273  -18.8152   20.9001 C   0  0  2  0  0  0  0  0  0  0  0  0
    9.2839  -17.8245   20.1565 N   0  0  0  0  0  0  0  0  0  0  0  0
   10.7079  -18.2300   22.0815 C   0  0  0  0  0  0  0  0  0  0  0  0
   11.0862  -17.0526   22.1618 O   0  0  0  0  0  0  0  0  0  0  0  0
   10.9406  -19.0814   23.1969 N   0  0  0  0  0  0  0  0  0  0  0  0
   11.6437  -18.6869   24.3729 C   0  0  1  0  0  0  0  0  0  0  0  0
   11.4956  -19.7092   25.5138 C   0  0  0  0  0  0  0  0  0  0  0  0
   12.1725  -19.2117   26.7478 C   0  0  0  0  0  0  0  0  0  0  0  0
   12.1154  -20.0694   27.9532 C   0  0  0  0  0  0  0  0  0  0  0  0
   12.8200  -19.5256   29.1556 C   0  0  0  0  0  0  0  0  0  0  0  0
   12.6253  -20.3592   30.2939 N   0  0  0  0  0  0  0  0  0  0  0  0
   13.0541  -18.3049   24.1672 C   0  0  0  0  0  0  0  0  0  0  0  0
   13.6685  -17.2013   24.7409 O   0  0  0  0  0  0  0  0  0  0  0  0
   13.7583  -19.0259   23.4196 O   0  0  0  0  0  0  0  0  0  0  0  0
  1  2  1  0
  3  2  1  0
  4  3  1  0
  5  4  1  0
  5  6  1  1
  7  8  2  0
  7  5  1  0
  9 10  1  0
 11 10  1  6
 11 12  1  0
 12  7  1  0
 13 11  1  0
 14 13  2  0
 15 13  1  0
 16 15  1  0
 16 17  1  1
 17 18  1  0
 18 19  1  0
 19 20  1  0
 20 21  1  0
 22 16  1  0
 22 23  1  0
 24 22  2  0
M  END
$$$$
