MSK.pdb
     RDKit          3D

 24 23  0  0  1  0  0  0  0  0999 V2000
   -1.6508  -24.0293   15.1433 C   0  0  0  0  0  0  0  0  0  0  0  0
    0.0173  -23.3543   15.2365 S   0  0  0  0  0  0  0  0  0  0  0  0
    0.0005  -21.5385   15.1952 C   0  0  0  0  0  0  0  0  0  0  0  0
    1.4014  -20.9750   15.2571 C   0  0  0  0  0  0  0  0  0  0  0  0
    2.1383  -21.3524   16.4894 C   0  0  2  0  0  0  0  0  0  0  0  0
    1.5406  -20.7535   17.6574 N   0  0  0  0  0  0  0  0  0  0  0  0
    3.5874  -21.0817   16.4328 C   0  0  0  0  0  0  0  0  0  0  0  0
    4.2443  -21.5857   15.4943 O   0  0  0  0  0  0  0  0  0  0  0  0
    5.5036  -18.8791   19.4316 O   0  0  0  0  0  0  0  0  0  0  0  0
    6.0486  -18.8170   18.1282 C   0  0  0  0  0  0  0  0  0  0  0  0
    5.7089  -20.1077   17.4141 C   0  0  2  0  0  0  0  0  0  0  0  0
    4.2752  -20.2824   17.3829 N   0  0  0  0  0  0  0  0  0  0  0  0
    6.3896  -21.2160   18.1280 C   0  0  0  0  0  0  0  0  0  0  0  0
    5.8631  -21.9126   19.0075 O   0  0  0  0  0  0  0  0  0  0  0  0
    7.7392  -21.4959   17.7764 N   0  0  0  0  0  0  0  0  0  0  0  0
    8.5416  -22.4910   18.4078 C   0  0  1  0  0  0  0  0  0  0  0  0
    9.8348  -22.7828   17.6259 C   0  0  0  0  0  0  0  0  0  0  0  0
   10.5039  -24.0031   18.1659 C   0  0  0  0  0  0  0  0  0  0  0  0
   11.7390  -24.4621   17.4908 C   0  0  0  0  0  0  0  0  0  0  0  0
   12.3173  -25.7366   18.0190 C   0  0  0  0  0  0  0  0  0  0  0  0
   13.4638  -26.1358   17.2741 N   0  0  0  0  0  0  0  0  0  0  0  0
    8.8136  -22.2673   19.8408 C   0  0  0  0  0  0  0  0  0  0  0  0
    9.2136  -21.0591   20.3928 O   0  0  0  0  0  0  0  0  0  0  0  0
    8.6751  -23.2359   20.6265 O   0  0  0  0  0  0  0  0  0  0  0  0
  1  2  1  0
  3  2  1  0
  4  3  1  0
  5  4  1  0
  5  6  1  1
  7  8  2  0
  7  5  1  0
  9 10  1  0
 11 10  1  1
 11 12  1  0
 12  7  1  0
 13 11  1  0
 14 13  2  0
 15 13  1  0
 16 15  1  0
 16 17  1  6
 17 18  1  0
 18 19  1  0
 19 20  1  0
 20 21  1  0
 22 16  1  0
 22 23  1  0
 24 22  2  0
M  END
$$$$
