MSK.pdb
     RDKit          3D

 24 23  0  0  1  0  0  0  0  0999 V2000
    6.7000  -11.6318   26.7024 C   0  0  0  0  0  0  0  0  0  0  0  0
    7.4255  -12.9384   27.7089 S   0  0  0  0  0  0  0  0  0  0  0  0
    7.1953  -14.5695   26.9435 C   0  0  0  0  0  0  0  0  0  0  0  0
    6.4844  -14.4569   25.6146 C   0  0  0  0  0  0  0  0  0  0  0  0
    6.2538  -15.7657   24.9529 C   0  0  2  0  0  0  0  0  0  0  0  0
    6.0718  -16.8156   25.9249 N   0  0  0  0  0  0  0  0  0  0  0  0
    7.2827  -16.1297   23.9603 C   0  0  0  0  0  0  0  0  0  0  0  0
    8.0890  -17.0403   24.2548 O   0  0  0  0  0  0  0  0  0  0  0  0
    8.2725  -13.6377   20.7543 O   0  0  0  0  0  0  0  0  0  0  0  0
    8.2132  -15.0205   20.4641 C   0  0  0  0  0  0  0  0  0  0  0  0
    8.4647  -15.7819   21.7480 C   0  0  2  0  0  0  0  0  0  0  0  0
    7.4071  -15.5043   22.6921 N   0  0  0  0  0  0  0  0  0  0  0  0
    9.7944  -15.3754   22.2656 C   0  0  0  0  0  0  0  0  0  0  0  0
    9.9795  -14.4681   23.0893 O   0  0  0  0  0  0  0  0  0  0  0  0
   10.9329  -16.0772   21.7813 N   0  0  0  0  0  0  0  0  0  0  0  0
   11.9869  -16.5626   22.6098 C   0  0  1  0  0  0  0  0  0  0  0  0
   11.4673  -17.4333   23.7677 C   0  0  0  0  0  0  0  0  0  0  0  0
   12.5930  -17.8310   24.6639 C   0  0  0  0  0  0  0  0  0  0  0  0
   12.2830  -18.7406   25.7901 C   0  0  0  0  0  0  0  0  0  0  0  0
   13.4543  -19.1299   26.6352 C   0  0  0  0  0  0  0  0  0  0  0  0
   13.0769  -20.0486   27.6561 N   0  0  0  0  0  0  0  0  0  0  0  0
   13.1002  -17.2178   21.8964 C   0  0  0  0  0  0  0  0  0  0  0  0
   14.4223  -16.7993   21.9352 O   0  0  0  0  0  0  0  0  0  0  0  0
   12.8418  -18.2296   21.2007 O   0  0  0  0  0  0  0  0  0  0  0  0
  1  2  1  0
  3  2  1  0
  4  3  1  0
  5  4  1  0
  5  6  1  1
  7  8  2  0
  7  5  1  0
  9 10  1  0
 11 10  1  6
 11 12  1  0
 12  7  1  0
 13 11  1  0
 14 13  2  0
 15 13  1  0
 16 15  1  0
 16 17  1  1
 17 18  1  0
 18 19  1  0
 19 20  1  0
 20 21  1  0
 22 16  1  0
 22 23  1  0
 24 22  2  0
M  END
$$$$
