MSK.pdb
     RDKit          3D

 24 23  0  0  1  0  0  0  0  0999 V2000
    7.4415  -11.6187   19.8766 C   0  0  0  0  0  0  0  0  0  0  0  0
    8.6365  -12.9604   20.0120 S   0  0  0  0  0  0  0  0  0  0  0  0
    8.0578  -14.4523   19.1525 C   0  0  0  0  0  0  0  0  0  0  0  0
    9.0634  -15.5750   19.2641 C   0  0  0  0  0  0  0  0  0  0  0  0
    8.8214  -16.4749   20.4197 C   0  0  2  0  0  0  0  0  0  0  0  0
    7.4330  -16.8572   20.5000 N   0  0  0  0  0  0  0  0  0  0  0  0
    9.3046  -15.9449   21.7088 C   0  0  0  0  0  0  0  0  0  0  0  0
   10.5205  -15.6666   21.8124 O   0  0  0  0  0  0  0  0  0  0  0  0
    6.6868  -15.8904   24.8931 O   0  0  0  0  0  0  0  0  0  0  0  0
    7.8447  -15.1014   25.0848 C   0  0  0  0  0  0  0  0  0  0  0  0
    8.9410  -15.6513   24.1975 C   0  0  2  0  0  0  0  0  0  0  0  0
    8.4673  -15.7339   22.8353 N   0  0  0  0  0  0  0  0  0  0  0  0
    9.3363  -16.9781   24.7312 C   0  0  0  0  0  0  0  0  0  0  0  0
    8.7577  -18.0417   24.4669 O   0  0  0  0  0  0  0  0  0  0  0  0
   10.4568  -17.0294   25.6058 N   0  0  0  0  0  0  0  0  0  0  0  0
   10.9355  -18.2210   26.2253 C   0  0  1  0  0  0  0  0  0  0  0  0
   12.1019  -18.8567   25.4481 C   0  0  0  0  0  0  0  0  0  0  0  0
   12.5055  -20.1471   26.0810 C   0  0  0  0  0  0  0  0  0  0  0  0
   13.5982  -20.9123   25.4389 C   0  0  0  0  0  0  0  0  0  0  0  0
   13.9585  -22.1971   26.1151 C   0  0  0  0  0  0  0  0  0  0  0  0
   14.9196  -22.9300   25.3615 N   0  0  0  0  0  0  0  0  0  0  0  0
   11.2423  -18.1054   27.6642 C   0  0  0  0  0  0  0  0  0  0  0  0
   11.0245  -19.1023   28.6039 O   0  0  0  0  0  0  0  0  0  0  0  0
   11.7377  -17.0292   28.0778 O   0  0  0  0  0  0  0  0  0  0  0  0
  1  2  1  0
  3  2  1  0
  4  3  1  0
  5  4  1  0
  5  6  1  1
  7  8  2  0
  7  5  1  0
  9 10  1  0
 11 10  1  1
 11 12  1  0
 12  7  1  0
 13 11  1  0
 14 13  2  0
 15 13  1  0
 16 15  1  0
 16 17  1  6
 17 18  1  0
 18 19  1  0
 19 20  1  0
 20 21  1  0
 22 16  1  0
 22 23  1  0
 24 22  2  0
M  END
$$$$
