MSK.pdb
     RDKit          3D

 24 23  0  0  1  0  0  0  0  0999 V2000
    6.3652  -12.3597   27.3023 C   0  0  0  0  0  0  0  0  0  0  0  0
    7.1871  -11.5269   25.9320 S   0  0  0  0  0  0  0  0  0  0  0  0
    6.7908  -12.3149   24.3442 C   0  0  0  0  0  0  0  0  0  0  0  0
    7.1247  -13.7887   24.3642 C   0  0  0  0  0  0  0  0  0  0  0  0
    8.4448  -14.1056   23.7635 C   0  0  2  0  0  0  0  0  0  0  0  0
    8.4667  -13.7869   22.3570 N   0  0  0  0  0  0  0  0  0  0  0  0
    8.9015  -15.4874   24.0051 C   0  0  0  0  0  0  0  0  0  0  0  0
    8.8072  -15.9442   25.1665 O   0  0  0  0  0  0  0  0  0  0  0  0
   11.4964  -17.3243   21.4558 O   0  0  0  0  0  0  0  0  0  0  0  0
   10.5118  -18.2181   21.9370 C   0  0  0  0  0  0  0  0  0  0  0  0
    9.9550  -17.6546   23.2270 C   0  0  2  0  0  0  0  0  0  0  0  0
    9.4409  -16.3249   22.9939 N   0  0  0  0  0  0  0  0  0  0  0  0
   11.0441  -17.6621   24.2347 C   0  0  0  0  0  0  0  0  0  0  0  0
   11.8803  -16.7576   24.3711 O   0  0  0  0  0  0  0  0  0  0  0  0
   11.1314  -18.7858   25.1024 N   0  0  0  0  0  0  0  0  0  0  0  0
   12.0926  -18.9183   26.1471 C   0  0  1  0  0  0  0  0  0  0  0  0
   11.5715  -19.7720   27.3168 C   0  0  0  0  0  0  0  0  0  0  0  0
   12.5738  -19.8046   28.4226 C   0  0  0  0  0  0  0  0  0  0  0  0
   12.2678  -20.6492   29.5994 C   0  0  0  0  0  0  0  0  0  0  0  0
   13.3120  -20.6513   30.6706 C   0  0  0  0  0  0  0  0  0  0  0  0
   12.9061  -21.4310   31.7913 N   0  0  0  0  0  0  0  0  0  0  0  0
   13.4367  -19.3504   25.7175 C   0  0  0  0  0  0  0  0  0  0  0  0
   13.6903  -20.3772   24.8198 O   0  0  0  0  0  0  0  0  0  0  0  0
   14.4303  -18.7501   26.1938 O   0  0  0  0  0  0  0  0  0  0  0  0
  1  2  1  0
  3  2  1  0
  4  3  1  0
  5  4  1  0
  5  6  1  6
  7  8  2  0
  7  5  1  0
  9 10  1  0
 11 10  1  6
 11 12  1  0
 12  7  1  0
 13 11  1  0
 14 13  2  0
 15 13  1  0
 16 15  1  0
 16 17  1  1
 17 18  1  0
 18 19  1  0
 19 20  1  0
 20 21  1  0
 22 16  1  0
 22 23  1  0
 24 22  2  0
M  END
$$$$
