QQP.pdb
     RDKit          3D

 26 26  0  0  1  0  0  0  0  0999 V2000
    9.0976  -12.3485   19.2907 N   0  0  0  0  0  0  0  0  0  0  0  0
    8.7371  -13.2814   18.2342 C   0  0  0  0  0  0  0  0  0  0  0  0
    9.2697  -13.0473   17.1230 O   0  0  0  0  0  0  0  0  0  0  0  0
    7.8116  -14.3777   18.5384 C   0  0  0  0  0  0  0  0  0  0  0  0
    7.3779  -14.4212   19.9612 C   0  0  0  0  0  0  0  0  0  0  0  0
    7.2870  -15.8118   20.4703 C   0  0  2  0  0  0  0  0  0  0  0  0
    6.6061  -16.7720   19.6885 N   0  0  0  0  0  0  0  0  0  0  0  0
    6.7959  -15.7533   21.8749 C   0  0  0  0  0  0  0  0  0  0  0  0
    5.6333  -15.3667   22.1640 O   0  0  0  0  0  0  0  0  0  0  0  0
    7.6734  -19.9075   25.9930 N   0  0  0  0  0  0  0  0  0  0  0  0
    7.3079  -18.8803   26.9055 C   0  0  0  0  0  0  0  0  0  0  0  0
    7.1515  -19.1347   28.1207 O   0  0  0  0  0  0  0  0  0  0  0  0
    7.1123  -17.4857   26.3909 C   0  0  0  0  0  0  0  0  0  0  0  0
    7.3557  -17.4383   24.9240 C   0  0  0  0  0  0  0  0  0  0  0  0
    7.2037  -16.0302   24.3378 C   0  0  2  0  0  0  0  0  0  0  0  0
    7.6448  -16.1376   22.9231 N   0  0  0  0  0  0  0  0  0  0  0  0
    8.1677  -15.1536   25.0098 C   0  0  0  0  0  0  0  0  0  0  0  0
    9.3837  -15.2699   24.5649 O   0  0  0  0  0  0  0  0  0  0  0  0
    7.9386  -14.2260   26.0422 N   0  0  0  0  0  0  0  0  0  0  0  0
    6.6483  -13.9222   26.6202 C   0  0  0  0  0  0  0  0  0  0  0  0
    6.7450  -12.4795   26.9793 C   0  0  0  0  0  0  0  0  0  0  0  0
    8.1946  -12.0768   26.8395 C   0  0  0  0  0  0  0  0  0  0  0  0
    8.8935  -13.4156   26.7262 C   0  0  1  0  0  0  0  0  0  0  0  0
    9.1573  -13.9516   28.1201 C   0  0  0  0  0  0  0  0  0  0  0  0
   10.0228  -13.4554   28.8648 O   0  0  0  0  0  0  0  0  0  0  0  0
    8.4266  -15.0181   28.5914 O   0  0  0  0  0  0  0  0  0  0  0  0
  1  2  1  0
  2  3  2  0
  4  2  1  0
  5  4  1  0
  6  7  1  6
  6  5  1  0
  8  6  1  0
  9  8  2  0
 10 11  1  0
 11 13  1  0
 11 12  2  0
 13 14  1  0
 15 14  1  1
 15 16  1  0
 16  8  1  0
 17 19  1  0
 17 15  1  0
 18 17  2  0
 19 23  1  0
 20 21  1  0
 20 19  1  0
 21 22  1  0
 22 23  1  0
 23 24  1  1
 24 26  1  0
 25 24  2  0
M  END
$$$$
