QQP.pdb
     RDKit          3D

 26 26  0  0  1  0  0  0  0  0999 V2000
    8.2006  -12.5776   17.6771 N   0  0  0  0  0  0  0  0  0  0  0  0
    8.0733  -13.9406   17.1847 C   0  0  0  0  0  0  0  0  0  0  0  0
    7.8738  -14.0361   15.9501 O   0  0  0  0  0  0  0  0  0  0  0  0
    8.1798  -15.0530   18.1345 C   0  0  0  0  0  0  0  0  0  0  0  0
    8.4699  -14.6263   19.5303 C   0  0  0  0  0  0  0  0  0  0  0  0
    8.5952  -15.7846   20.4488 C   0  0  2  0  0  0  0  0  0  0  0  0
    8.3696  -17.0808   19.9330 N   0  0  0  0  0  0  0  0  0  0  0  0
    7.7843  -15.4945   21.6637 C   0  0  0  0  0  0  0  0  0  0  0  0
    6.7374  -14.7966   21.6211 O   0  0  0  0  0  0  0  0  0  0  0  0
    6.5876  -19.5672   25.6135 N   0  0  0  0  0  0  0  0  0  0  0  0
    5.9502  -19.2130   24.3931 C   0  0  0  0  0  0  0  0  0  0  0  0
    5.2452  -20.0446   23.7786 O   0  0  0  0  0  0  0  0  0  0  0  0
    6.1345  -17.8271   23.8515 C   0  0  0  0  0  0  0  0  0  0  0  0
    7.0294  -17.0401   24.7420 C   0  0  0  0  0  0  0  0  0  0  0  0
    7.4298  -15.6872   24.1429 C   0  0  2  0  0  0  0  0  0  0  0  0
    8.1870  -16.0077   22.9053 N   0  0  0  0  0  0  0  0  0  0  0  0
    8.3796  -15.0494   25.0595 C   0  0  0  0  0  0  0  0  0  0  0  0
    9.6228  -15.3418   24.8162 O   0  0  0  0  0  0  0  0  0  0  0  0
    8.1138  -14.1807   26.1334 N   0  0  0  0  0  0  0  0  0  0  0  0
    6.8114  -13.6562   26.4802 C   0  0  0  0  0  0  0  0  0  0  0  0
    7.1025  -12.3013   27.0268 C   0  0  0  0  0  0  0  0  0  0  0  0
    8.5975  -12.2071   27.2249 C   0  0  0  0  0  0  0  0  0  0  0  0
    9.0344  -13.6506   27.0863 C   0  0  1  0  0  0  0  0  0  0  0  0
    8.8811  -14.3411   28.4277 C   0  0  0  0  0  0  0  0  0  0  0  0
    7.9215  -15.0944   28.6761 O   0  0  0  0  0  0  0  0  0  0  0  0
    9.8224  -14.1398   29.4110 O   0  0  0  0  0  0  0  0  0  0  0  0
  1  2  1  0
  2  3  2  0
  4  2  1  0
  5  4  1  0
  6  7  1  6
  6  5  1  0
  8  6  1  0
  9  8  2  0
 10 11  1  0
 11 13  1  0
 11 12  2  0
 13 14  1  0
 15 14  1  1
 15 16  1  0
 16  8  1  0
 17 19  1  0
 17 15  1  0
 18 17  2  0
 19 23  1  0
 20 21  1  0
 20 19  1  0
 21 22  1  0
 22 23  1  0
 23 24  1  1
 24 26  1  0
 25 24  2  0
M  END
$$$$
