QQP.pdb
     RDKit          3D

 26 26  0  0  1  0  0  0  0  0999 V2000
    9.3873  -14.3022   17.2654 N   0  0  0  0  0  0  0  0  0  0  0  0
    7.9354  -14.2276   17.3170 C   0  0  0  0  0  0  0  0  0  0  0  0
    7.3445  -14.8684   16.4151 O   0  0  0  0  0  0  0  0  0  0  0  0
    7.3008  -13.4360   18.3761 C   0  0  0  0  0  0  0  0  0  0  0  0
    8.2459  -12.9704   19.4270 C   0  0  0  0  0  0  0  0  0  0  0  0
    8.8066  -14.1006   20.2078 C   0  0  2  0  0  0  0  0  0  0  0  0
    8.9432  -15.3556   19.5727 N   0  0  0  0  0  0  0  0  0  0  0  0
    8.0632  -14.1800   21.4956 C   0  0  0  0  0  0  0  0  0  0  0  0
    7.4621  -13.1884   21.9860 O   0  0  0  0  0  0  0  0  0  0  0  0
    7.1077  -19.6170   24.4301 N   0  0  0  0  0  0  0  0  0  0  0  0
    6.7173  -18.7268   25.4676 C   0  0  0  0  0  0  0  0  0  0  0  0
    6.3530  -19.1677   26.5808 O   0  0  0  0  0  0  0  0  0  0  0  0
    6.7481  -17.2502   25.2095 C   0  0  0  0  0  0  0  0  0  0  0  0
    7.2655  -16.9764   23.8419 C   0  0  0  0  0  0  0  0  0  0  0  0
    7.3627  -15.4792   23.5280 C   0  0  2  0  0  0  0  0  0  0  0  0
    8.0221  -15.3925   22.1993 N   0  0  0  0  0  0  0  0  0  0  0  0
    8.2862  -14.8735   24.4922 C   0  0  0  0  0  0  0  0  0  0  0  0
    9.5384  -14.9790   24.1590 O   0  0  0  0  0  0  0  0  0  0  0  0
    7.9867  -14.2069   25.6940 N   0  0  0  0  0  0  0  0  0  0  0  0
    6.6595  -14.0233   26.2384 C   0  0  0  0  0  0  0  0  0  0  0  0
    6.7324  -12.7052   26.9289 C   0  0  0  0  0  0  0  0  0  0  0  0
    8.1887  -12.3060   26.9849 C   0  0  0  0  0  0  0  0  0  0  0  0
    8.8924  -13.5939   26.6107 C   0  0  1  0  0  0  0  0  0  0  0  0
    9.0578  -14.4431   27.8562 C   0  0  0  0  0  0  0  0  0  0  0  0
    8.2954  -15.3932   28.1130 O   0  0  0  0  0  0  0  0  0  0  0  0
   10.0763  -14.1685   28.7398 O   0  0  0  0  0  0  0  0  0  0  0  0
  1  2  1  0
  2  3  2  0
  4  2  1  0
  5  4  1  0
  6  7  1  6
  6  5  1  0
  8  6  1  0
  9  8  2  0
 10 11  1  0
 11 13  1  0
 11 12  2  0
 13 14  1  0
 15 14  1  1
 15 16  1  0
 16  8  1  0
 17 19  1  0
 17 15  1  0
 18 17  2  0
 19 23  1  0
 20 21  1  0
 20 19  1  0
 21 22  1  0
 22 23  1  0
 23 24  1  1
 24 26  1  0
 25 24  2  0
M  END
$$$$
