QQP.pdb
     RDKit          3D

 26 26  0  0  1  0  0  0  0  0999 V2000
    9.4713  -13.3900   17.2826 N   0  0  0  0  0  0  0  0  0  0  0  0
    8.1694  -14.0257   17.1504 C   0  0  0  0  0  0  0  0  0  0  0  0
    7.9814  -14.6150   16.0593 O   0  0  0  0  0  0  0  0  0  0  0  0
    7.2142  -13.9278   18.2589 C   0  0  0  0  0  0  0  0  0  0  0  0
    7.7288  -13.1691   19.4310 C   0  0  0  0  0  0  0  0  0  0  0  0
    8.5504  -14.0216   20.3253 C   0  0  2  0  0  0  0  0  0  0  0  0
    9.0112  -15.2642   19.8347 N   0  0  0  0  0  0  0  0  0  0  0  0
    7.8364  -14.1403   21.6266 C   0  0  0  0  0  0  0  0  0  0  0  0
    7.2858  -13.1541   22.1827 O   0  0  0  0  0  0  0  0  0  0  0  0
    7.9517  -19.4669   25.6722 N   0  0  0  0  0  0  0  0  0  0  0  0
    6.7017  -18.8024   25.5416 C   0  0  0  0  0  0  0  0  0  0  0  0
    5.6292  -19.4422   25.6228 O   0  0  0  0  0  0  0  0  0  0  0  0
    6.6859  -17.3219   25.3050 C   0  0  0  0  0  0  0  0  0  0  0  0
    7.1570  -17.0147   23.9277 C   0  0  0  0  0  0  0  0  0  0  0  0
    7.1489  -15.5144   23.6137 C   0  0  2  0  0  0  0  0  0  0  0  0
    7.7663  -15.3854   22.2684 N   0  0  0  0  0  0  0  0  0  0  0  0
    8.0561  -14.8501   24.5543 C   0  0  0  0  0  0  0  0  0  0  0  0
    9.3131  -14.9645   24.2428 O   0  0  0  0  0  0  0  0  0  0  0  0
    7.7371  -14.1209   25.7141 N   0  0  0  0  0  0  0  0  0  0  0  0
    6.4125  -13.9894   26.2796 C   0  0  0  0  0  0  0  0  0  0  0  0
    6.4084  -12.6233   26.8738 C   0  0  0  0  0  0  0  0  0  0  0  0
    7.8341  -12.1229   26.8627 C   0  0  0  0  0  0  0  0  0  0  0  0
    8.6176  -13.3834   26.5611 C   0  0  1  0  0  0  0  0  0  0  0  0
    8.8690  -14.1278   27.8582 C   0  0  0  0  0  0  0  0  0  0  0  0
    8.2042  -15.1287   28.1839 O   0  0  0  0  0  0  0  0  0  0  0  0
    9.8582  -13.6969   28.7122 O   0  0  0  0  0  0  0  0  0  0  0  0
  1  2  1  0
  2  3  2  0
  4  2  1  0
  5  4  1  0
  6  7  1  6
  6  5  1  0
  8  6  1  0
  9  8  2  0
 10 11  1  0
 11 13  1  0
 11 12  2  0
 13 14  1  0
 15 14  1  1
 15 16  1  0
 16  8  1  0
 17 19  1  0
 17 15  1  0
 18 17  2  0
 19 23  1  0
 20 21  1  0
 20 19  1  0
 21 22  1  0
 22 23  1  0
 23 24  1  1
 24 26  1  0
 25 24  2  0
M  END
$$$$
