QQP.pdb
     RDKit          3D

 26 26  0  0  1  0  0  0  0  0999 V2000
    7.1505  -12.7653   17.2069 N   0  0  0  0  0  0  0  0  0  0  0  0
    8.1285  -13.8393   17.1261 C   0  0  0  0  0  0  0  0  0  0  0  0
    8.0936  -14.5021   16.0618 O   0  0  0  0  0  0  0  0  0  0  0  0
    9.0405  -14.0572   18.2538 C   0  0  0  0  0  0  0  0  0  0  0  0
    8.3751  -14.0067   19.5838 C   0  0  0  0  0  0  0  0  0  0  0  0
    8.9749  -14.9694   20.5402 C   0  0  2  0  0  0  0  0  0  0  0  0
    9.0760  -16.3257   20.1563 N   0  0  0  0  0  0  0  0  0  0  0  0
    8.3008  -14.7874   21.8554 C   0  0  0  0  0  0  0  0  0  0  0  0
    7.9422  -13.6560   22.2751 O   0  0  0  0  0  0  0  0  0  0  0  0
    6.7765  -19.7732   25.2049 N   0  0  0  0  0  0  0  0  0  0  0  0
    5.9266  -19.3194   24.1594 C   0  0  0  0  0  0  0  0  0  0  0  0
    5.0717  -20.0831   23.6575 O   0  0  0  0  0  0  0  0  0  0  0  0
    6.0690  -17.9109   23.6655 C   0  0  0  0  0  0  0  0  0  0  0  0
    7.0957  -17.1864   24.4619 C   0  0  0  0  0  0  0  0  0  0  0  0
    7.3402  -15.7576   23.9638 C   0  0  2  0  0  0  0  0  0  0  0  0
    8.0504  -15.9036   22.6669 N   0  0  0  0  0  0  0  0  0  0  0  0
    8.2812  -15.1120   24.8842 C   0  0  0  0  0  0  0  0  0  0  0  0
    9.5297  -15.3591   24.6190 O   0  0  0  0  0  0  0  0  0  0  0  0
    8.0020  -14.2780   25.9819 N   0  0  0  0  0  0  0  0  0  0  0  0
    6.6788  -13.9247   26.4466 C   0  0  0  0  0  0  0  0  0  0  0  0
    6.8391  -12.5398   26.9716 C   0  0  0  0  0  0  0  0  0  0  0  0
    8.3209  -12.2509   27.0353 C   0  0  0  0  0  0  0  0  0  0  0  0
    8.9274  -13.6263   26.8510 C   0  0  1  0  0  0  0  0  0  0  0  0
    8.9860  -14.3219   28.1973 C   0  0  0  0  0  0  0  0  0  0  0  0
    9.7869  -13.9747   29.0849 O   0  0  0  0  0  0  0  0  0  0  0  0
    8.1349  -15.3703   28.4620 O   0  0  0  0  0  0  0  0  0  0  0  0
  1  2  1  0
  2  3  2  0
  4  2  1  0
  5  4  1  0
  6  7  1  6
  6  5  1  0
  8  6  1  0
  9  8  2  0
 10 11  1  0
 11 13  1  0
 11 12  2  0
 13 14  1  0
 15 14  1  1
 15 16  1  0
 16  8  1  0
 17 19  1  0
 17 15  1  0
 18 17  2  0
 19 23  1  0
 20 21  1  0
 20 19  1  0
 21 22  1  0
 22 23  1  0
 23 24  1  1
 24 26  1  0
 25 24  2  0
M  END
$$$$
