QQP.pdb
     RDKit          3D

 26 26  0  0  1  0  0  0  0  0999 V2000
   10.1827  -13.4947   19.3759 N   0  0  0  0  0  0  0  0  0  0  0  0
    9.1697  -13.4278   18.3339 C   0  0  0  0  0  0  0  0  0  0  0  0
    9.6214  -13.3900   17.1644 O   0  0  0  0  0  0  0  0  0  0  0  0
    7.7544  -13.4065   18.7179 C   0  0  0  0  0  0  0  0  0  0  0  0
    7.5208  -13.6512   20.1670 C   0  0  0  0  0  0  0  0  0  0  0  0
    7.2667  -15.0847   20.4528 C   0  0  2  0  0  0  0  0  0  0  0  0
    6.4753  -15.8226   19.5439 N   0  0  0  0  0  0  0  0  0  0  0  0
    6.7887  -15.1929   21.8589 C   0  0  0  0  0  0  0  0  0  0  0  0
    5.6189  -14.8730   22.1968 O   0  0  0  0  0  0  0  0  0  0  0  0
    7.6859  -19.8292   25.3542 N   0  0  0  0  0  0  0  0  0  0  0  0
    7.2448  -18.9564   26.3862 C   0  0  0  0  0  0  0  0  0  0  0  0
    7.0181  -19.3944   27.5364 O   0  0  0  0  0  0  0  0  0  0  0  0
    7.0546  -17.5016   26.0771 C   0  0  0  0  0  0  0  0  0  0  0  0
    7.3288  -17.2399   24.6385 C   0  0  0  0  0  0  0  0  0  0  0  0
    7.2176  -15.7565   24.2688 C   0  0  2  0  0  0  0  0  0  0  0  0
    7.6586  -15.6644   22.8530 N   0  0  0  0  0  0  0  0  0  0  0  0
    8.2042  -15.0171   25.0619 C   0  0  0  0  0  0  0  0  0  0  0  0
    9.4223  -15.1262   24.6208 O   0  0  0  0  0  0  0  0  0  0  0  0
    7.9946  -14.2232   26.2040 N   0  0  0  0  0  0  0  0  0  0  0  0
    6.7131  -13.9821   26.8294 C   0  0  0  0  0  0  0  0  0  0  0  0
    6.8280  -12.5963   27.3639 C   0  0  0  0  0  0  0  0  0  0  0  0
    8.2802  -12.1922   27.2595 C   0  0  0  0  0  0  0  0  0  0  0  0
    8.9643  -13.5127   26.9731 C   0  0  1  0  0  0  0  0  0  0  0  0
    9.2361  -14.2203   28.2865 C   0  0  0  0  0  0  0  0  0  0  0  0
    8.5359  -15.1712   28.6808 O   0  0  0  0  0  0  0  0  0  0  0  0
   10.2844  -13.8113   29.0785 O   0  0  0  0  0  0  0  0  0  0  0  0
  1  2  1  0
  2  3  2  0
  4  2  1  0
  5  4  1  0
  6  7  1  6
  6  5  1  0
  8  6  1  0
  9  8  2  0
 10 11  1  0
 11 13  1  0
 11 12  2  0
 13 14  1  0
 15 14  1  1
 15 16  1  0
 16  8  1  0
 17 19  1  0
 17 15  1  0
 18 17  2  0
 19 23  1  0
 20 21  1  0
 20 19  1  0
 21 22  1  0
 22 23  1  0
 23 24  1  1
 24 26  1  0
 25 24  2  0
M  END
$$$$
