QQP.pdb
     RDKit          3D

 26 26  0  0  1  0  0  0  0  0999 V2000
    9.6883  -13.4929   17.7939 N   0  0  0  0  0  0  0  0  0  0  0  0
    8.3111  -13.7978   17.4378 C   0  0  0  0  0  0  0  0  0  0  0  0
    8.1621  -14.2964   16.2966 O   0  0  0  0  0  0  0  0  0  0  0  0
    7.2456  -13.5054   18.4022 C   0  0  0  0  0  0  0  0  0  0  0  0
    7.7436  -13.1348   19.7546 C   0  0  0  0  0  0  0  0  0  0  0  0
    8.3470  -14.2927   20.4591 C   0  0  2  0  0  0  0  0  0  0  0  0
    8.3315  -15.5528   19.8197 N   0  0  0  0  0  0  0  0  0  0  0  0
    7.7831  -14.3342   21.8367 C   0  0  0  0  0  0  0  0  0  0  0  0
    7.4142  -13.2942   22.4427 O   0  0  0  0  0  0  0  0  0  0  0  0
    7.1020  -19.7529   24.8823 N   0  0  0  0  0  0  0  0  0  0  0  0
    6.7608  -18.8546   25.9302 C   0  0  0  0  0  0  0  0  0  0  0  0
    6.5316  -19.2808   27.0843 O   0  0  0  0  0  0  0  0  0  0  0  0
    6.6793  -17.3873   25.6330 C   0  0  0  0  0  0  0  0  0  0  0  0
    7.0200  -17.1299   24.2080 C   0  0  0  0  0  0  0  0  0  0  0  0
    7.0949  -15.6364   23.8714 C   0  0  2  0  0  0  0  0  0  0  0  0
    7.6524  -15.5652   22.4960 N   0  0  0  0  0  0  0  0  0  0  0  0
    8.0890  -15.0221   24.7566 C   0  0  0  0  0  0  0  0  0  0  0  0
    9.3170  -15.3346   24.4657 O   0  0  0  0  0  0  0  0  0  0  0  0
    7.8784  -14.1568   25.8454 N   0  0  0  0  0  0  0  0  0  0  0  0
    6.5889  -13.6850   26.2995 C   0  0  0  0  0  0  0  0  0  0  0  0
    6.8670  -12.3146   26.8131 C   0  0  0  0  0  0  0  0  0  0  0  0
    8.3681  -12.1556   26.8827 C   0  0  0  0  0  0  0  0  0  0  0  0
    8.8530  -13.5804   26.7139 C   0  0  1  0  0  0  0  0  0  0  0  0
    8.8440  -14.2659   28.0666 C   0  0  0  0  0  0  0  0  0  0  0  0
    9.6540  -13.9665   28.9633 O   0  0  0  0  0  0  0  0  0  0  0  0
    7.9189  -15.2508   28.3271 O   0  0  0  0  0  0  0  0  0  0  0  0
  1  2  1  0
  2  3  2  0
  4  2  1  0
  5  4  1  0
  6  7  1  6
  6  5  1  0
  8  6  1  0
  9  8  2  0
 10 11  1  0
 11 13  1  0
 11 12  2  0
 13 14  1  0
 15 14  1  1
 15 16  1  0
 16  8  1  0
 17 19  1  0
 17 15  1  0
 18 17  2  0
 19 23  1  0
 20 21  1  0
 20 19  1  0
 21 22  1  0
 22 23  1  0
 23 24  1  1
 24 26  1  0
 25 24  2  0
M  END
$$$$
