QQP.pdb
     RDKit          3D

 26 26  0  0  1  0  0  0  0  0999 V2000
   10.6865  -14.2491   18.4868 N   0  0  0  0  0  0  0  0  0  0  0  0
    9.4192  -13.5395   18.5694 C   0  0  0  0  0  0  0  0  0  0  0  0
    9.5106  -12.3425   18.9328 O   0  0  0  0  0  0  0  0  0  0  0  0
    8.1814  -14.2531   18.2383 C   0  0  0  0  0  0  0  0  0  0  0  0
    7.2381  -14.3833   19.3818 C   0  0  0  0  0  0  0  0  0  0  0  0
    7.5500  -15.5632   20.2255 C   0  0  2  0  0  0  0  0  0  0  0  0
    7.4259  -16.8504   19.6557 N   0  0  0  0  0  0  0  0  0  0  0  0
    6.8021  -15.4207   21.5053 C   0  0  0  0  0  0  0  0  0  0  0  0
    5.5453  -15.4713   21.5576 O   0  0  0  0  0  0  0  0  0  0  0  0
    8.3598  -19.1440   25.9840 N   0  0  0  0  0  0  0  0  0  0  0  0
    7.2496  -18.6298   25.2599 C   0  0  0  0  0  0  0  0  0  0  0  0
    6.1029  -19.0991   25.4354 O   0  0  0  0  0  0  0  0  0  0  0  0
    7.4719  -17.5156   24.2815 C   0  0  0  0  0  0  0  0  0  0  0  0
    6.3553  -16.5352   24.3539 C   0  0  0  0  0  0  0  0  0  0  0  0
    6.7882  -15.1086   23.9976 C   0  0  2  0  0  0  0  0  0  0  0  0
    7.5063  -15.2218   22.7018 N   0  0  0  0  0  0  0  0  0  0  0  0
    7.7793  -14.6757   24.9873 C   0  0  0  0  0  0  0  0  0  0  0  0
    9.0031  -14.9857   24.6766 O   0  0  0  0  0  0  0  0  0  0  0  0
    7.5702  -13.9808   26.1923 N   0  0  0  0  0  0  0  0  0  0  0  0
    6.2857  -13.7713   26.8229 C   0  0  0  0  0  0  0  0  0  0  0  0
    6.4187  -12.4399   27.4779 C   0  0  0  0  0  0  0  0  0  0  0  0
    7.8791  -12.0555   27.4245 C   0  0  0  0  0  0  0  0  0  0  0  0
    8.5429  -13.3586   27.0307 C   0  0  1  0  0  0  0  0  0  0  0  0
    8.7862  -14.1831   28.2799 C   0  0  0  0  0  0  0  0  0  0  0  0
    9.6366  -13.8586   29.1293 O   0  0  0  0  0  0  0  0  0  0  0  0
    8.0535  -15.3275   28.4964 O   0  0  0  0  0  0  0  0  0  0  0  0
  1  2  1  0
  2  3  2  0
  4  2  1  0
  5  4  1  0
  6  7  1  6
  6  5  1  0
  8  6  1  0
  9  8  2  0
 10 11  1  0
 11 13  1  0
 11 12  2  0
 13 14  1  0
 15 14  1  1
 15 16  1  0
 16  8  1  0
 17 19  1  0
 17 15  1  0
 18 17  2  0
 19 23  1  0
 20 21  1  0
 20 19  1  0
 21 22  1  0
 22 23  1  0
 23 24  1  1
 24 26  1  0
 25 24  2  0
M  END
$$$$
