QQP.pdb
     RDKit          3D

 26 26  0  0  1  0  0  0  0  0999 V2000
    9.2832  -12.6658   18.4068 N   0  0  0  0  0  0  0  0  0  0  0  0
    8.6001  -13.8810   17.9906 C   0  0  0  0  0  0  0  0  0  0  0  0
    9.2243  -14.5726   17.1507 O   0  0  0  0  0  0  0  0  0  0  0  0
    7.2841  -14.1881   18.5605 C   0  0  0  0  0  0  0  0  0  0  0  0
    7.1663  -13.8673   20.0088 C   0  0  0  0  0  0  0  0  0  0  0  0
    8.0406  -14.7308   20.8403 C   0  0  2  0  0  0  0  0  0  0  0  0
    8.2430  -16.0702   20.4381 N   0  0  0  0  0  0  0  0  0  0  0  0
    7.5895  -14.6114   22.2544 C   0  0  0  0  0  0  0  0  0  0  0  0
    6.7797  -13.7228   22.6280 O   0  0  0  0  0  0  0  0  0  0  0  0
    7.8240  -20.1708   25.6886 N   0  0  0  0  0  0  0  0  0  0  0  0
    7.1589  -18.9143   25.7002 C   0  0  0  0  0  0  0  0  0  0  0  0
    6.3261  -18.6434   26.5941 O   0  0  0  0  0  0  0  0  0  0  0  0
    7.4697  -17.9165   24.6250 C   0  0  0  0  0  0  0  0  0  0  0  0
    6.7718  -16.6312   24.8970 C   0  0  0  0  0  0  0  0  0  0  0  0
    7.6541  -15.4051   24.6367 C   0  0  2  0  0  0  0  0  0  0  0  0
    8.0740  -15.5108   23.2153 N   0  0  0  0  0  0  0  0  0  0  0  0
    8.8710  -15.5436   25.4425 C   0  0  0  0  0  0  0  0  0  0  0  0
    9.8365  -16.1667   24.8345 O   0  0  0  0  0  0  0  0  0  0  0  0
    9.1121  -15.0905   26.7521 N   0  0  0  0  0  0  0  0  0  0  0  0
    8.1254  -14.4906   27.6228 C   0  0  0  0  0  0  0  0  0  0  0  0
    8.9046  -13.5083   28.4274 C   0  0  0  0  0  0  0  0  0  0  0  0
   10.3693  -13.7782   28.1727 C   0  0  0  0  0  0  0  0  0  0  0  0
   10.3354  -15.1277   27.4859 C   0  0  1  0  0  0  0  0  0  0  0  0
   10.2992  -16.2155   28.5419 C   0  0  0  0  0  0  0  0  0  0  0  0
    9.2707  -16.8786   28.7709 O   0  0  0  0  0  0  0  0  0  0  0  0
   11.4288  -16.4907   29.2781 O   0  0  0  0  0  0  0  0  0  0  0  0
  1  2  1  0
  2  3  2  0
  4  2  1  0
  5  4  1  0
  6  7  1  6
  6  5  1  0
  8  6  1  0
  9  8  2  0
 10 11  1  0
 11 13  1  0
 11 12  2  0
 13 14  1  0
 15 14  1  1
 15 16  1  0
 16  8  1  0
 17 19  1  0
 17 15  1  0
 18 17  2  0
 19 23  1  0
 20 21  1  0
 20 19  1  0
 21 22  1  0
 22 23  1  0
 23 24  1  1
 24 26  1  0
 25 24  2  0
M  END
$$$$
