QQP.pdb
     RDKit          3D

 26 26  0  0  1  0  0  0  0  0999 V2000
    8.5295  -12.3807   17.5644 N   0  0  0  0  0  0  0  0  0  0  0  0
    8.1087  -13.7417   17.2694 C   0  0  0  0  0  0  0  0  0  0  0  0
    8.5106  -14.1883   16.1685 O   0  0  0  0  0  0  0  0  0  0  0  0
    7.2760  -14.4557   18.2430 C   0  0  0  0  0  0  0  0  0  0  0  0
    7.5438  -14.0757   19.6566 C   0  0  0  0  0  0  0  0  0  0  0  0
    8.0504  -15.2213   20.4516 C   0  0  2  0  0  0  0  0  0  0  0  0
    7.9803  -16.5154   19.8883 N   0  0  0  0  0  0  0  0  0  0  0  0
    7.4373  -15.1443   21.8064 C   0  0  0  0  0  0  0  0  0  0  0  0
    6.5042  -14.3435   22.0766 O   0  0  0  0  0  0  0  0  0  0  0  0
    7.5508  -19.9093   25.6743 N   0  0  0  0  0  0  0  0  0  0  0  0
    7.0073  -18.9424   26.5637 C   0  0  0  0  0  0  0  0  0  0  0  0
    6.6333  -19.2727   27.7114 O   0  0  0  0  0  0  0  0  0  0  0  0
    6.8883  -17.5193   26.1070 C   0  0  0  0  0  0  0  0  0  0  0  0
    7.3536  -17.3885   24.7001 C   0  0  0  0  0  0  0  0  0  0  0  0
    7.2943  -15.9471   24.1822 C   0  0  2  0  0  0  0  0  0  0  0  0
    7.9040  -15.9847   22.8278 N   0  0  0  0  0  0  0  0  0  0  0  0
    8.1808  -15.1296   25.0160 C   0  0  0  0  0  0  0  0  0  0  0  0
    9.4336  -15.1974   24.6756 O   0  0  0  0  0  0  0  0  0  0  0  0
    7.8458  -14.3016   26.1027 N   0  0  0  0  0  0  0  0  0  0  0  0
    6.5118  -14.1127   26.6282 C   0  0  0  0  0  0  0  0  0  0  0  0
    6.5082  -12.7007   27.1032 C   0  0  0  0  0  0  0  0  0  0  0  0
    7.9382  -12.2133   27.0780 C   0  0  0  0  0  0  0  0  0  0  0  0
    8.7162  -13.5006   26.9010 C   0  0  1  0  0  0  0  0  0  0  0  0
    8.9359  -14.1330   28.2617 C   0  0  0  0  0  0  0  0  0  0  0  0
    8.2698  -15.1104   28.6502 O   0  0  0  0  0  0  0  0  0  0  0  0
    9.8966  -13.6232   29.1047 O   0  0  0  0  0  0  0  0  0  0  0  0
  1  2  1  0
  2  3  2  0
  4  2  1  0
  5  4  1  0
  6  7  1  6
  6  5  1  0
  8  6  1  0
  9  8  2  0
 10 11  1  0
 11 13  1  0
 11 12  2  0
 13 14  1  0
 15 14  1  1
 15 16  1  0
 16  8  1  0
 17 19  1  0
 17 15  1  0
 18 17  2  0
 19 23  1  0
 20 21  1  0
 20 19  1  0
 21 22  1  0
 22 23  1  0
 23 24  1  1
 24 26  1  0
 25 24  2  0
M  END
$$$$
