QME.pdb
     RDKit          3D

 27 26  0  0  1  0  0  0  0  0999 V2000
   13.0346  -18.0920   18.7198 N   0  0  0  0  0  0  0  0  0  0  0  0
   11.7921  -18.5402   18.1906 C   0  0  0  0  0  0  0  0  0  0  0  0
   11.8549  -19.4928   17.3799 O   0  0  0  0  0  0  0  0  0  0  0  0
   10.5114  -17.9290   18.5685 C   0  0  0  0  0  0  0  0  0  0  0  0
   10.6080  -16.8146   19.5686 C   0  0  0  0  0  0  0  0  0  0  0  0
    9.4141  -16.8225   20.4624 C   0  0  2  0  0  0  0  0  0  0  0  0
    8.2707  -16.3098   19.7103 N   0  0  0  0  0  0  0  0  0  0  0  0
    9.6283  -15.9515   21.6739 C   0  0  0  0  0  0  0  0  0  0  0  0
   10.7400  -15.4356   21.8144 O   0  0  0  0  0  0  0  0  0  0  0  0
    7.3309  -11.5976   27.3789 C   0  0  0  0  0  0  0  0  0  0  0  0
    7.2499  -12.2439   25.6769 S   0  0  0  0  0  0  0  0  0  0  0  0
    7.3804  -14.0633   25.7889 C   0  0  0  0  0  0  0  0  0  0  0  0
    7.2967  -14.6654   24.4284 C   0  0  0  0  0  0  0  0  0  0  0  0
    8.6355  -15.1072   23.8658 C   0  0  2  0  0  0  0  0  0  0  0  0
    8.5999  -15.7413   22.5994 N   0  0  0  0  0  0  0  0  0  0  0  0
    9.4677  -15.7001   24.8901 C   0  0  0  0  0  0  0  0  0  0  0  0
    8.9489  -16.6479   25.5777 O   0  0  0  0  0  0  0  0  0  0  0  0
   10.7989  -15.3267   25.1965 N   0  0  0  0  0  0  0  0  0  0  0  0
   11.5321  -15.9982   26.2209 C   0  0  1  0  0  0  0  0  0  0  0  0
   10.7568  -16.0128   27.5205 C   0  0  0  0  0  0  0  0  0  0  0  0
   11.5913  -16.6843   28.5898 C   0  0  0  0  0  0  0  0  0  0  0  0
   10.8903  -16.6127   29.8934 C   0  0  0  0  0  0  0  0  0  0  0  0
   10.1944  -15.6235   30.2256 O   0  0  0  0  0  0  0  0  0  0  0  0
   11.8475  -17.4024   25.8707 C   0  0  0  0  0  0  0  0  0  0  0  0
   11.1490  -18.1550   24.9573 O   0  0  0  0  0  0  0  0  0  0  0  0
   10.9992  -17.6670   30.7842 O   0  0  0  0  0  0  0  0  0  0  0  0
   12.8278  -17.9376   26.4570 O   0  0  0  0  0  0  0  0  0  0  0  0
  2  1  1  0
  3  2  2  0
  4  2  1  0
  5  4  1  0
  5  6  1  0
  6  8  1  0
  6  7  1  6
  8  9  2  0
 11 12  1  0
 11 10  1  0
 13 12  1  0
 14 13  1  1
 15 14  1  0
 15  8  1  0
 16 17  2  0
 16 14  1  0
 18 16  1  0
 19 18  1  0
 19 24  1  0
 19 20  1  1
 21 20  1  0
 22 21  1  0
 23 22  2  0
 24 25  1  0
 26 22  1  0
 27 24  2  0
M  END
$$$$
