QME.pdb
     RDKit          3D

 27 26  0  0  1  0  0  0  0  0999 V2000
    6.9631  -19.1931   20.1947 N   0  0  0  0  0  0  0  0  0  0  0  0
    7.0886  -18.6275   18.8951 C   0  0  0  0  0  0  0  0  0  0  0  0
    6.3447  -19.1143   18.0129 O   0  0  0  0  0  0  0  0  0  0  0  0
    8.0289  -17.5388   18.6000 C   0  0  0  0  0  0  0  0  0  0  0  0
    8.7923  -17.0185   19.7824 C   0  0  0  0  0  0  0  0  0  0  0  0
    8.2670  -15.6818   20.1843 C   0  0  2  0  0  0  0  0  0  0  0  0
    8.5425  -14.7341   19.1065 N   0  0  0  0  0  0  0  0  0  0  0  0
    8.9278  -15.1878   21.4459 C   0  0  0  0  0  0  0  0  0  0  0  0
   10.0654  -15.5978   21.6904 O   0  0  0  0  0  0  0  0  0  0  0  0
    6.7875  -11.4958   28.1943 C   0  0  0  0  0  0  0  0  0  0  0  0
    6.3612  -11.7818   26.4457 S   0  0  0  0  0  0  0  0  0  0  0  0
    7.5175  -13.0477   25.8134 C   0  0  0  0  0  0  0  0  0  0  0  0
    7.3562  -13.1952   24.3394 C   0  0  0  0  0  0  0  0  0  0  0  0
    8.2866  -14.2200   23.7163 C   0  0  2  0  0  0  0  0  0  0  0  0
    8.2690  -14.2981   22.3019 N   0  0  0  0  0  0  0  0  0  0  0  0
    8.2736  -15.4627   24.4573 C   0  0  0  0  0  0  0  0  0  0  0  0
    7.6229  -16.4365   23.9390 O   0  0  0  0  0  0  0  0  0  0  0  0
    8.9148  -15.6953   25.6983 N   0  0  0  0  0  0  0  0  0  0  0  0
    9.7027  -16.8670   25.9090 C   0  0  1  0  0  0  0  0  0  0  0  0
   10.8926  -16.8943   24.9744 C   0  0  0  0  0  0  0  0  0  0  0  0
   11.6954  -18.1520   25.2281 C   0  0  0  0  0  0  0  0  0  0  0  0
   12.2728  -18.6453   23.9556 C   0  0  0  0  0  0  0  0  0  0  0  0
   12.8992  -19.7293   23.8807 O   0  0  0  0  0  0  0  0  0  0  0  0
   10.2177  -16.9675   27.2941 C   0  0  0  0  0  0  0  0  0  0  0  0
   10.5081  -18.1477   27.9354 O   0  0  0  0  0  0  0  0  0  0  0  0
   12.1226  -17.8933   22.8027 O   0  0  0  0  0  0  0  0  0  0  0  0
   10.3997  -15.8888   27.9222 O   0  0  0  0  0  0  0  0  0  0  0  0
  2  1  1  0
  3  2  2  0
  4  2  1  0
  5  4  1  0
  5  6  1  0
  6  8  1  0
  6  7  1  6
  8  9  2  0
 11 12  1  0
 11 10  1  0
 13 12  1  0
 14 13  1  1
 15 14  1  0
 15  8  1  0
 16 17  2  0
 16 14  1  0
 18 16  1  0
 19 18  1  0
 19 24  1  0
 19 20  1  6
 21 20  1  0
 22 21  1  0
 23 22  2  0
 24 25  1  0
 26 22  1  0
 27 24  2  0
M  END
$$$$
