QME.pdb
     RDKit          3D

 27 26  0  0  1  0  0  0  0  0999 V2000
    7.9704  -12.2263   17.8562 N   0  0  0  0  0  0  0  0  0  0  0  0
    7.9557  -13.5894   17.4483 C   0  0  0  0  0  0  0  0  0  0  0  0
    7.7356  -13.7939   16.2324 O   0  0  0  0  0  0  0  0  0  0  0  0
    8.1853  -14.6932   18.3894 C   0  0  0  0  0  0  0  0  0  0  0  0
    8.4076  -14.2793   19.8144 C   0  0  0  0  0  0  0  0  0  0  0  0
    8.6377  -15.4808   20.6675 C   0  0  2  0  0  0  0  0  0  0  0  0
    7.4007  -16.2576   20.7146 N   0  0  0  0  0  0  0  0  0  0  0  0
    9.0208  -15.0923   22.0728 C   0  0  0  0  0  0  0  0  0  0  0  0
   10.0475  -14.4241   22.2185 O   0  0  0  0  0  0  0  0  0  0  0  0
    6.3646  -12.6234   27.4122 C   0  0  0  0  0  0  0  0  0  0  0  0
    6.0443  -12.1203   25.6902 S   0  0  0  0  0  0  0  0  0  0  0  0
    7.1396  -13.1250   24.6270 C   0  0  0  0  0  0  0  0  0  0  0  0
    7.4109  -14.4403   25.2726 C   0  0  0  0  0  0  0  0  0  0  0  0
    8.4503  -15.2790   24.5512 C   0  0  2  0  0  0  0  0  0  0  0  0
    8.2361  -15.4789   23.1651 N   0  0  0  0  0  0  0  0  0  0  0  0
    8.8435  -16.4252   25.3417 C   0  0  0  0  0  0  0  0  0  0  0  0
    7.9110  -17.2278   25.6975 O   0  0  0  0  0  0  0  0  0  0  0  0
   10.1623  -16.7360   25.7534 N   0  0  0  0  0  0  0  0  0  0  0  0
   10.4215  -17.8524   26.6046 C   0  0  1  0  0  0  0  0  0  0  0  0
   11.7665  -18.4712   26.2909 C   0  0  0  0  0  0  0  0  0  0  0  0
   11.8471  -18.7600   24.8074 C   0  0  0  0  0  0  0  0  0  0  0  0
   13.1970  -19.2675   24.4666 C   0  0  0  0  0  0  0  0  0  0  0  0
   14.0841  -19.4452   25.3353 O   0  0  0  0  0  0  0  0  0  0  0  0
   10.4188  -17.4888   28.0404 C   0  0  0  0  0  0  0  0  0  0  0  0
   10.2561  -16.2121   28.5222 O   0  0  0  0  0  0  0  0  0  0  0  0
   13.5023  -19.5591   23.1480 O   0  0  0  0  0  0  0  0  0  0  0  0
   10.5777  -18.4230   28.8730 O   0  0  0  0  0  0  0  0  0  0  0  0
  2  1  1  0
  3  2  2  0
  4  2  1  0
  5  4  1  0
  5  6  1  0
  6  8  1  0
  6  7  1  1
  8  9  2  0
 11 12  1  0
 11 10  1  0
 13 12  1  0
 14 13  1  1
 15 14  1  0
 15  8  1  0
 16 17  2  0
 16 14  1  0
 18 16  1  0
 19 18  1  0
 19 24  1  0
 19 20  1  6
 21 20  1  0
 22 21  1  0
 23 22  2  0
 24 25  1  0
 26 22  1  0
 27 24  2  0
M  END
$$$$
