QME.pdb
     RDKit          3D

 27 26  0  0  1  0  0  0  0  0999 V2000
   10.6324  -17.3129   17.7674 N   0  0  0  0  0  0  0  0  0  0  0  0
    9.2470  -17.5738   17.5739 C   0  0  0  0  0  0  0  0  0  0  0  0
    8.9625  -18.3423   16.6268 O   0  0  0  0  0  0  0  0  0  0  0  0
    8.2098  -16.9830   18.4293 C   0  0  0  0  0  0  0  0  0  0  0  0
    8.7215  -16.1513   19.5686 C   0  0  0  0  0  0  0  0  0  0  0  0
    8.5421  -16.8805   20.8571 C   0  0  2  0  0  0  0  0  0  0  0  0
    7.1204  -17.1729   21.0284 N   0  0  0  0  0  0  0  0  0  0  0  0
    9.0121  -16.0541   22.0269 C   0  0  0  0  0  0  0  0  0  0  0  0
   10.2129  -15.7768   22.0817 O   0  0  0  0  0  0  0  0  0  0  0  0
    6.9498  -11.0750   27.7085 C   0  0  0  0  0  0  0  0  0  0  0  0
    6.2990  -12.1024   26.3513 S   0  0  0  0  0  0  0  0  0  0  0  0
    7.5065  -13.4451   26.0706 C   0  0  0  0  0  0  0  0  0  0  0  0
    7.1930  -14.1554   24.7988 C   0  0  0  0  0  0  0  0  0  0  0  0
    8.3604  -14.9377   24.2251 C   0  0  2  0  0  0  0  0  0  0  0  0
    8.1140  -15.6217   23.0092 N   0  0  0  0  0  0  0  0  0  0  0  0
    9.0786  -15.6480   25.2610 C   0  0  0  0  0  0  0  0  0  0  0  0
    8.4724  -16.6326   25.8118 O   0  0  0  0  0  0  0  0  0  0  0  0
   10.3864  -15.3517   25.7161 N   0  0  0  0  0  0  0  0  0  0  0  0
   11.0639  -16.2240   26.6206 C   0  0  1  0  0  0  0  0  0  0  0  0
   12.5635  -16.1340   26.4383 C   0  0  0  0  0  0  0  0  0  0  0  0
   12.8950  -16.2752   24.9683 C   0  0  0  0  0  0  0  0  0  0  0  0
   14.3575  -16.1448   24.7679 C   0  0  0  0  0  0  0  0  0  0  0  0
   15.1462  -15.9257   25.7181 O   0  0  0  0  0  0  0  0  0  0  0  0
   10.7653  -15.9198   28.0392 C   0  0  0  0  0  0  0  0  0  0  0  0
    9.9403  -14.9059   28.4633 O   0  0  0  0  0  0  0  0  0  0  0  0
   14.8839  -16.2670   23.4931 O   0  0  0  0  0  0  0  0  0  0  0  0
   11.3110  -16.6477   28.9130 O   0  0  0  0  0  0  0  0  0  0  0  0
  2  1  1  0
  3  2  2  0
  4  2  1  0
  5  4  1  0
  5  6  1  0
  6  8  1  0
  6  7  1  1
  8  9  2  0
 11 12  1  0
 11 10  1  0
 13 12  1  0
 14 13  1  1
 15 14  1  0
 15  8  1  0
 16 17  2  0
 16 14  1  0
 18 16  1  0
 19 18  1  0
 19 24  1  0
 19 20  1  1
 21 20  1  0
 22 21  1  0
 23 22  2  0
 24 25  1  0
 26 22  1  0
 27 24  2  0
M  END
$$$$
