QME.pdb
     RDKit          3D

 27 26  0  0  1  0  0  0  0  0999 V2000
    9.9057  -20.3500   20.1240 N   0  0  0  0  0  0  0  0  0  0  0  0
    8.8560  -19.8365   19.3120 C   0  0  0  0  0  0  0  0  0  0  0  0
    8.3424  -20.6460   18.5062 O   0  0  0  0  0  0  0  0  0  0  0  0
    8.3974  -18.4448   19.4090 C   0  0  0  0  0  0  0  0  0  0  0  0
    9.0843  -17.6194   20.4569 C   0  0  0  0  0  0  0  0  0  0  0  0
    8.4287  -16.2846   20.5697 C   0  0  2  0  0  0  0  0  0  0  0  0
    8.7717  -15.4998   19.3855 N   0  0  0  0  0  0  0  0  0  0  0  0
    8.8975  -15.5434   21.7958 C   0  0  0  0  0  0  0  0  0  0  0  0
   10.1004  -15.2820   21.8773 O   0  0  0  0  0  0  0  0  0  0  0  0
    6.8389  -10.8043   26.6877 C   0  0  0  0  0  0  0  0  0  0  0  0
    6.1691  -12.4887   26.8757 S   0  0  0  0  0  0  0  0  0  0  0  0
    7.4351  -13.6419   26.2381 C   0  0  0  0  0  0  0  0  0  0  0  0
    7.1528  -13.9722   24.8128 C   0  0  0  0  0  0  0  0  0  0  0  0
    8.2401  -14.7921   24.1423 C   0  0  2  0  0  0  0  0  0  0  0  0
    7.9961  -15.1697   22.7988 N   0  0  0  0  0  0  0  0  0  0  0  0
    8.7680  -15.7991   25.0371 C   0  0  0  0  0  0  0  0  0  0  0  0
    8.0113  -16.8014   25.2882 O   0  0  0  0  0  0  0  0  0  0  0  0
   10.0417  -15.7739   25.6554 N   0  0  0  0  0  0  0  0  0  0  0  0
   10.5257  -16.9013   26.3853 C   0  0  1  0  0  0  0  0  0  0  0  0
   12.0212  -17.0559   26.2134 C   0  0  0  0  0  0  0  0  0  0  0  0
   12.3301  -17.3125   24.7542 C   0  0  0  0  0  0  0  0  0  0  0  0
   13.7388  -16.9528   24.4676 C   0  0  0  0  0  0  0  0  0  0  0  0
   14.5015  -16.4834   25.3457 O   0  0  0  0  0  0  0  0  0  0  0  0
   10.2486  -16.8035   27.8371 C   0  0  0  0  0  0  0  0  0  0  0  0
   10.5815  -17.7640   28.7619 O   0  0  0  0  0  0  0  0  0  0  0  0
   14.2427  -17.1363   23.1911 O   0  0  0  0  0  0  0  0  0  0  0  0
    9.6657  -15.7619   28.2449 O   0  0  0  0  0  0  0  0  0  0  0  0
  2  1  1  0
  3  2  2  0
  4  2  1  0
  5  4  1  0
  5  6  1  0
  6  8  1  0
  6  7  1  6
  8  9  2  0
 11 12  1  0
 11 10  1  0
 13 12  1  0
 14 13  1  1
 15 14  1  0
 15  8  1  0
 16 17  2  0
 16 14  1  0
 18 16  1  0
 19 18  1  0
 19 24  1  0
 19 20  1  1
 21 20  1  0
 22 21  1  0
 23 22  2  0
 24 25  1  0
 26 22  1  0
 27 24  2  0
M  END
$$$$
