QME.pdb
     RDKit          3D

 27 26  0  0  1  0  0  0  0  0999 V2000
    9.9919  -14.1553   16.7307 N   0  0  0  0  0  0  0  0  0  0  0  0
    8.5935  -14.4008   16.6362 C   0  0  0  0  0  0  0  0  0  0  0  0
    8.1744  -14.7476   15.5081 O   0  0  0  0  0  0  0  0  0  0  0  0
    7.6920  -14.2597   17.7868 C   0  0  0  0  0  0  0  0  0  0  0  0
    8.3697  -13.9844   19.0969 C   0  0  0  0  0  0  0  0  0  0  0  0
    8.2825  -15.1822   19.9812 C   0  0  2  0  0  0  0  0  0  0  0  0
    6.8886  -15.6183   20.0321 N   0  0  0  0  0  0  0  0  0  0  0  0
    8.7441  -14.8670   21.3812 C   0  0  0  0  0  0  0  0  0  0  0  0
    9.9508  -14.6770   21.5532 O   0  0  0  0  0  0  0  0  0  0  0  0
    7.8323  -11.4321   27.8407 C   0  0  0  0  0  0  0  0  0  0  0  0
    6.6277  -12.0858   26.6395 S   0  0  0  0  0  0  0  0  0  0  0  0
    7.2849  -13.6811   26.0373 C   0  0  0  0  0  0  0  0  0  0  0  0
    7.0030  -13.8321   24.5819 C   0  0  0  0  0  0  0  0  0  0  0  0
    8.0639  -14.6109   23.8255 C   0  0  2  0  0  0  0  0  0  0  0  0
    7.8319  -14.7947   22.4400 N   0  0  0  0  0  0  0  0  0  0  0  0
    8.5219  -15.7531   24.5865 C   0  0  0  0  0  0  0  0  0  0  0  0
    7.6846  -16.7076   24.7545 O   0  0  0  0  0  0  0  0  0  0  0  0
    9.8084  -15.9073   25.1579 N   0  0  0  0  0  0  0  0  0  0  0  0
   10.2594  -17.1815   25.6173 C   0  0  1  0  0  0  0  0  0  0  0  0
   11.6492  -17.4824   25.0995 C   0  0  0  0  0  0  0  0  0  0  0  0
   12.0939  -18.8308   25.6238 C   0  0  0  0  0  0  0  0  0  0  0  0
   13.4616  -19.1323   25.1396 C   0  0  0  0  0  0  0  0  0  0  0  0
   14.3545  -18.2545   25.0670 O   0  0  0  0  0  0  0  0  0  0  0  0
   10.3013  -17.2739   27.0950 C   0  0  0  0  0  0  0  0  0  0  0  0
   10.4300  -18.4461   27.8006 O   0  0  0  0  0  0  0  0  0  0  0  0
   13.7776  -20.4231   24.7509 O   0  0  0  0  0  0  0  0  0  0  0  0
   10.2120  -16.1958   27.7437 O   0  0  0  0  0  0  0  0  0  0  0  0
  2  1  1  0
  3  2  2  0
  4  2  1  0
  5  4  1  0
  5  6  1  0
  6  8  1  0
  6  7  1  1
  8  9  2  0
 11 12  1  0
 11 10  1  0
 13 12  1  0
 14 13  1  1
 15 14  1  0
 15  8  1  0
 16 17  2  0
 16 14  1  0
 18 16  1  0
 19 18  1  0
 19 24  1  0
 19 20  1  6
 21 20  1  0
 22 21  1  0
 23 22  2  0
 24 25  1  0
 26 22  1  0
 27 24  2  0
M  END
$$$$
