QME.pdb
     RDKit          3D

 27 26  0  0  1  0  0  0  0  0999 V2000
    8.5518  -20.4316   22.2312 N   0  0  0  0  0  0  0  0  0  0  0  0
    7.1568  -20.6940   22.1327 C   0  0  0  0  0  0  0  0  0  0  0  0
    6.7977  -21.8583   22.4226 O   0  0  0  0  0  0  0  0  0  0  0  0
    6.1919  -19.6672   21.7188 C   0  0  0  0  0  0  0  0  0  0  0  0
    6.7837  -18.3217   21.4173 C   0  0  0  0  0  0  0  0  0  0  0  0
    6.3278  -17.3230   22.4266 C   0  0  2  0  0  0  0  0  0  0  0  0
    5.1647  -16.6204   21.8887 N   0  0  0  0  0  0  0  0  0  0  0  0
    7.4069  -16.3147   22.7290 C   0  0  0  0  0  0  0  0  0  0  0  0
    8.1867  -16.0254   21.8179 O   0  0  0  0  0  0  0  0  0  0  0  0
    5.8132  -10.7300   26.5078 C   0  0  0  0  0  0  0  0  0  0  0  0
    6.0550  -12.4975   26.8802 S   0  0  0  0  0  0  0  0  0  0  0  0
    6.6795  -13.2850   25.3539 C   0  0  0  0  0  0  0  0  0  0  0  0
    8.0134  -13.8995   25.6061 C   0  0  0  0  0  0  0  0  0  0  0  0
    8.4816  -14.8317   24.5034 C   0  0  2  0  0  0  0  0  0  0  0  0
    7.5132  -15.7336   23.9976 N   0  0  0  0  0  0  0  0  0  0  0  0
    9.8036  -15.3513   24.7787 C   0  0  0  0  0  0  0  0  0  0  0  0
   10.6858  -14.5076   25.1663 O   0  0  0  0  0  0  0  0  0  0  0  0
   10.2048  -16.7041   24.6586 N   0  0  0  0  0  0  0  0  0  0  0  0
   11.5637  -17.0879   24.8685 C   0  0  1  0  0  0  0  0  0  0  0  0
   11.6595  -18.5458   25.2631 C   0  0  0  0  0  0  0  0  0  0  0  0
   10.6921  -18.8192   26.3945 C   0  0  0  0  0  0  0  0  0  0  0  0
   11.4386  -19.2390   27.6039 C   0  0  0  0  0  0  0  0  0  0  0  0
   10.9570  -20.0352   28.4448 O   0  0  0  0  0  0  0  0  0  0  0  0
   12.4048  -16.8926   23.6650 C   0  0  0  0  0  0  0  0  0  0  0  0
   11.9282  -16.5176   22.4319 O   0  0  0  0  0  0  0  0  0  0  0  0
   12.7122  -18.7427   27.8248 O   0  0  0  0  0  0  0  0  0  0  0  0
   13.6450  -17.0864   23.7896 O   0  0  0  0  0  0  0  0  0  0  0  0
  2  1  1  0
  3  2  2  0
  4  2  1  0
  5  4  1  0
  5  6  1  0
  6  8  1  0
  6  7  1  6
  8  9  2  0
 11 12  1  0
 11 10  1  0
 13 12  1  0
 14 13  1  1
 15 14  1  0
 15  8  1  0
 16 17  2  0
 16 14  1  0
 18 16  1  0
 19 18  1  0
 19 24  1  0
 19 20  1  6
 21 20  1  0
 22 21  1  0
 23 22  2  0
 24 25  1  0
 26 22  1  0
 27 24  2  0
M  END
$$$$
