QME.pdb
     RDKit          3D

 27 26  0  0  1  0  0  0  0  0999 V2000
    7.0153  -20.2551   20.1125 N   0  0  0  0  0  0  0  0  0  0  0  0
    8.2476  -19.6770   20.5272 C   0  0  0  0  0  0  0  0  0  0  0  0
    9.1587  -20.4845   20.8212 O   0  0  0  0  0  0  0  0  0  0  0  0
    8.4462  -18.2241   20.6062 C   0  0  0  0  0  0  0  0  0  0  0  0
    7.2316  -17.3978   20.3004 C   0  0  0  0  0  0  0  0  0  0  0  0
    7.5834  -15.9485   20.3027 C   0  0  2  0  0  0  0  0  0  0  0  0
    8.5225  -15.6993   19.2109 N   0  0  0  0  0  0  0  0  0  0  0  0
    8.2306  -15.5416   21.6019 C   0  0  0  0  0  0  0  0  0  0  0  0
    9.4179  -15.8354   21.7627 O   0  0  0  0  0  0  0  0  0  0  0  0
    6.8392  -11.5406   28.3619 C   0  0  0  0  0  0  0  0  0  0  0  0
    6.1048  -12.1607   26.8136 S   0  0  0  0  0  0  0  0  0  0  0  0
    7.3597  -13.2214   26.0137 C   0  0  0  0  0  0  0  0  0  0  0  0
    6.8717  -13.6715   24.6797 C   0  0  0  0  0  0  0  0  0  0  0  0
    7.8751  -14.5066   23.9052 C   0  0  2  0  0  0  0  0  0  0  0  0
    7.5050  -14.8570   22.5833 N   0  0  0  0  0  0  0  0  0  0  0  0
    8.4536  -15.5400   24.7364 C   0  0  0  0  0  0  0  0  0  0  0  0
    8.1068  -16.7464   24.4820 O   0  0  0  0  0  0  0  0  0  0  0  0
    9.3655  -15.3353   25.8003 N   0  0  0  0  0  0  0  0  0  0  0  0
   10.4324  -16.2532   26.0392 C   0  0  1  0  0  0  0  0  0  0  0  0
   11.5413  -16.0698   25.0259 C   0  0  0  0  0  0  0  0  0  0  0  0
   12.6845  -17.0017   25.3657 C   0  0  0  0  0  0  0  0  0  0  0  0
   13.7889  -16.8174   24.3950 C   0  0  0  0  0  0  0  0  0  0  0  0
   13.6624  -17.0909   23.1775 O   0  0  0  0  0  0  0  0  0  0  0  0
   11.0267  -16.0999   27.3873 C   0  0  0  0  0  0  0  0  0  0  0  0
   10.6518  -15.1451   28.3018 O   0  0  0  0  0  0  0  0  0  0  0  0
   15.0071  -16.3273   24.8341 O   0  0  0  0  0  0  0  0  0  0  0  0
   11.9407  -16.9069   27.7106 O   0  0  0  0  0  0  0  0  0  0  0  0
  2  1  1  0
  3  2  2  0
  4  2  1  0
  5  4  1  0
  5  6  1  0
  6  8  1  0
  6  7  1  6
  8  9  2  0
 11 12  1  0
 11 10  1  0
 13 12  1  0
 14 13  1  1
 15 14  1  0
 15  8  1  0
 16 17  2  0
 16 14  1  0
 18 16  1  0
 19 18  1  0
 19 24  1  0
 19 20  1  6
 21 20  1  0
 22 21  1  0
 23 22  2  0
 24 25  1  0
 26 22  1  0
 27 24  2  0
M  END
$$$$
