QME.pdb
     RDKit          3D

 27 26  0  0  1  0  0  0  0  0999 V2000
    9.8237  -14.8769   16.6854 N   0  0  0  0  0  0  0  0  0  0  0  0
    8.5402  -14.2723   16.7944 C   0  0  0  0  0  0  0  0  0  0  0  0
    7.8170  -14.3371   15.7739 O   0  0  0  0  0  0  0  0  0  0  0  0
    8.0848  -13.6128   18.0249 C   0  0  0  0  0  0  0  0  0  0  0  0
    9.0418  -13.6858   19.1783 C   0  0  0  0  0  0  0  0  0  0  0  0
    8.6908  -14.8331   20.0642 C   0  0  2  0  0  0  0  0  0  0  0  0
    7.2674  -15.1224   19.9032 N   0  0  0  0  0  0  0  0  0  0  0  0
    8.9602  -14.5123   21.5123 C   0  0  0  0  0  0  0  0  0  0  0  0
   10.0943  -14.1274   21.8083 O   0  0  0  0  0  0  0  0  0  0  0  0
    6.8667  -10.4659   26.2888 C   0  0  0  0  0  0  0  0  0  0  0  0
    6.0396  -12.0662   26.5646 S   0  0  0  0  0  0  0  0  0  0  0  0
    7.1796  -13.3663   25.9733 C   0  0  0  0  0  0  0  0  0  0  0  0
    6.9905  -13.5843   24.5114 C   0  0  0  0  0  0  0  0  0  0  0  0
    8.0262  -14.5003   23.8851 C   0  0  2  0  0  0  0  0  0  0  0  0
    7.9565  -14.6485   22.4779 N   0  0  0  0  0  0  0  0  0  0  0  0
    8.2203  -15.6955   24.6770 C   0  0  0  0  0  0  0  0  0  0  0  0
    7.4268  -16.6744   24.4479 O   0  0  0  0  0  0  0  0  0  0  0  0
    9.2061  -15.8769   25.6773 N   0  0  0  0  0  0  0  0  0  0  0  0
    9.9537  -17.0903   25.7594 C   0  0  1  0  0  0  0  0  0  0  0  0
   11.1595  -17.0460   24.8461 C   0  0  0  0  0  0  0  0  0  0  0  0
   11.9929  -18.2907   25.0621 C   0  0  0  0  0  0  0  0  0  0  0  0
   13.1462  -18.2914   24.1314 C   0  0  0  0  0  0  0  0  0  0  0  0
   13.6307  -17.2325   23.6655 O   0  0  0  0  0  0  0  0  0  0  0  0
   10.4394  -17.3703   27.1304 C   0  0  0  0  0  0  0  0  0  0  0  0
   10.7393  -18.6219   27.6121 O   0  0  0  0  0  0  0  0  0  0  0  0
   13.7174  -19.4952   23.7554 O   0  0  0  0  0  0  0  0  0  0  0  0
   10.5852  -16.3846   27.9039 O   0  0  0  0  0  0  0  0  0  0  0  0
  2  1  1  0
  3  2  2  0
  4  2  1  0
  5  4  1  0
  5  6  1  0
  6  8  1  0
  6  7  1  1
  8  9  2  0
 11 12  1  0
 11 10  1  0
 13 12  1  0
 14 13  1  1
 15 14  1  0
 15  8  1  0
 16 17  2  0
 16 14  1  0
 18 16  1  0
 19 18  1  0
 19 24  1  0
 19 20  1  6
 21 20  1  0
 22 21  1  0
 23 22  2  0
 24 25  1  0
 26 22  1  0
 27 24  2  0
M  END
$$$$
