QME.pdb
     RDKit          3D

 27 26  0  0  1  0  0  0  0  0999 V2000
    8.2050  -12.2149   17.1385 N   0  0  0  0  0  0  0  0  0  0  0  0
    7.9960  -13.5726   16.7676 C   0  0  0  0  0  0  0  0  0  0  0  0
    7.7293  -13.7747   15.5606 O   0  0  0  0  0  0  0  0  0  0  0  0
    8.0873  -14.6739   17.7347 C   0  0  0  0  0  0  0  0  0  0  0  0
    8.3885  -14.2595   19.1451 C   0  0  0  0  0  0  0  0  0  0  0  0
    8.4952  -15.4617   20.0212 C   0  0  2  0  0  0  0  0  0  0  0  0
    7.1815  -16.0978   20.0947 N   0  0  0  0  0  0  0  0  0  0  0  0
    8.9330  -15.0895   21.4148 C   0  0  0  0  0  0  0  0  0  0  0  0
   10.1079  -14.7463   21.5694 O   0  0  0  0  0  0  0  0  0  0  0  0
    5.4577  -12.3690   26.8987 C   0  0  0  0  0  0  0  0  0  0  0  0
    6.9389  -11.9450   25.9254 S   0  0  0  0  0  0  0  0  0  0  0  0
    6.8587  -12.9156   24.3790 C   0  0  0  0  0  0  0  0  0  0  0  0
    7.1159  -14.3549   24.6663 C   0  0  0  0  0  0  0  0  0  0  0  0
    8.2662  -14.9466   23.8720 C   0  0  2  0  0  0  0  0  0  0  0  0
    8.0348  -15.1344   22.4870 N   0  0  0  0  0  0  0  0  0  0  0  0
    8.9092  -16.0212   24.5967 C   0  0  0  0  0  0  0  0  0  0  0  0
    8.2275  -17.0925   24.7645 O   0  0  0  0  0  0  0  0  0  0  0  0
   10.2194  -15.9925   25.1330 N   0  0  0  0  0  0  0  0  0  0  0  0
   10.9296  -17.2017   25.4006 C   0  0  1  0  0  0  0  0  0  0  0  0
   12.3748  -17.0880   24.9661 C   0  0  0  0  0  0  0  0  0  0  0  0
   13.0754  -18.4053   25.2201 C   0  0  0  0  0  0  0  0  0  0  0  0
   14.4777  -18.3284   24.7472 C   0  0  0  0  0  0  0  0  0  0  0  0
   14.7876  -18.4914   23.5428 O   0  0  0  0  0  0  0  0  0  0  0  0
   10.9200  -17.5639   26.8368 C   0  0  0  0  0  0  0  0  0  0  0  0
   11.3412  -18.7712   27.3403 O   0  0  0  0  0  0  0  0  0  0  0  0
   15.4897  -18.0683   25.6556 O   0  0  0  0  0  0  0  0  0  0  0  0
   10.4935  -16.6972   27.6480 O   0  0  0  0  0  0  0  0  0  0  0  0
  2  1  1  0
  3  2  2  0
  4  2  1  0
  5  4  1  0
  5  6  1  0
  6  8  1  0
  6  7  1  1
  8  9  2  0
 11 12  1  0
 11 10  1  0
 13 12  1  0
 14 13  1  1
 15 14  1  0
 15  8  1  0
 16 17  2  0
 16 14  1  0
 18 16  1  0
 19 18  1  0
 19 24  1  0
 19 20  1  1
 21 20  1  0
 22 21  1  0
 23 22  2  0
 24 25  1  0
 26 22  1  0
 27 24  2  0
M  END
$$$$
