PTL.pdb
     RDKit          3D

 23 23  0  0  1  0  0  0  0  0999 V2000
   28.1448  -18.5567  -19.8133 N   0  0  0  0  0  0  0  0  0  0  0  0
   29.4944  -19.0324  -19.9598 C   0  0  0  0  0  0  0  0  0  0  0  0
   29.6600  -19.8652  -18.6832 C   0  0  0  0  0  0  0  0  0  0  0  0
   28.3391  -20.6450  -18.7103 C   0  0  0  0  0  0  0  0  0  0  0  0
   27.3815  -19.5574  -19.1357 C   0  0  1  0  0  0  0  0  0  0  0  0
   26.7193  -19.0430  -17.9104 C   0  0  0  0  0  0  0  0  0  0  0  0
   27.2239  -18.0368  -17.3636 O   0  0  0  0  0  0  0  0  0  0  0  0
   23.6290  -17.3073  -17.5605 C   0  0  0  0  0  0  0  0  0  0  0  0
   23.5343  -18.4417  -16.5929 C   0  0  1  0  0  0  0  0  0  0  0  0
   22.7917  -19.4600  -17.1959 O   0  0  0  0  0  0  0  0  0  0  0  0
   24.8690  -19.0437  -16.2354 C   0  0  2  0  0  0  0  0  0  0  0  0
   25.5726  -19.6113  -17.3341 N   0  0  0  0  0  0  0  0  0  0  0  0
   24.6213  -20.0347  -15.1561 C   0  0  0  0  0  0  0  0  0  0  0  0
   24.7376  -21.2432  -15.4800 O   0  0  0  0  0  0  0  0  0  0  0  0
   25.5659  -20.7159   -9.2190 C   0  0  0  0  0  0  0  0  0  0  0  0
   25.0580  -21.2737  -10.4911 C   0  0  2  0  0  0  0  0  0  0  0  0
   25.9166  -22.4900  -10.8842 C   0  0  0  0  0  0  0  0  0  0  0  0
   24.9560  -20.4142  -11.6778 C   0  0  0  0  0  0  0  0  0  0  0  0
   24.0313  -20.7135  -12.7812 C   0  0  2  0  0  0  0  0  0  0  0  0
   24.2762  -19.6844  -13.8419 N   0  0  0  0  0  0  0  0  0  0  0  0
   22.5957  -20.7942  -12.5250 C   0  0  0  0  0  0  0  0  0  0  0  0
   21.9105  -22.0184  -12.4117 O   0  0  0  0  0  0  0  0  0  0  0  0
   21.8956  -19.7803  -12.3911 O   0  0  0  0  0  0  0  0  0  0  0  0
  1  2  1  0
  2  3  1  0
  4  3  1  0
  5  1  1  0
  5  4  1  0
  5  6  1  1
  7  6  2  0
  9  8  1  6
  9 11  1  0
 10  9  1  0
 11 13  1  0
 11 12  1  6
 12  6  1  0
 13 20  1  0
 14 13  2  0
 16 15  1  1
 16 17  1  0
 18 16  1  0
 19 18  1  1
 19 21  1  0
 20 19  1  0
 21 23  2  0
 21 22  1  0
M  END
$$$$
