PTL.pdb
     RDKit          3D

 23 23  0  0  1  0  0  0  0  0999 V2000
   22.7294  -14.0890  -16.0882 N   0  0  0  0  0  0  0  0  0  0  0  0
   22.8646  -15.2736  -16.8928 C   0  0  0  0  0  0  0  0  0  0  0  0
   23.5489  -14.7109  -18.1441 C   0  0  0  0  0  0  0  0  0  0  0  0
   24.6313  -13.8492  -17.4812 C   0  0  0  0  0  0  0  0  0  0  0  0
   23.8433  -13.2324  -16.3501 C   0  0  1  0  0  0  0  0  0  0  0  0
   23.4330  -11.8728  -16.7830 C   0  0  0  0  0  0  0  0  0  0  0  0
   24.3379  -11.0859  -17.1407 O   0  0  0  0  0  0  0  0  0  0  0  0
   20.9553  -10.7884  -19.5990 C   0  0  0  0  0  0  0  0  0  0  0  0
   20.5829  -10.1664  -18.2927 C   0  0  1  0  0  0  0  0  0  0  0  0
   19.5685  -10.9396  -17.7223 O   0  0  0  0  0  0  0  0  0  0  0  0
   21.7104  -10.1402  -17.2929 C   0  0  2  0  0  0  0  0  0  0  0  0
   22.1044  -11.4212  -16.8155 N   0  0  0  0  0  0  0  0  0  0  0  0
   21.2903   -9.2360  -16.1910 C   0  0  0  0  0  0  0  0  0  0  0  0
   20.8710   -9.7966  -15.1475 O   0  0  0  0  0  0  0  0  0  0  0  0
   20.4590   -4.0619  -13.8422 C   0  0  0  0  0  0  0  0  0  0  0  0
   21.7429   -4.7429  -14.1162 C   0  0  2  0  0  0  0  0  0  0  0  0
   22.8061   -3.6866  -14.4698 C   0  0  0  0  0  0  0  0  0  0  0  0
   21.8117   -5.7878  -15.1462 C   0  0  0  0  0  0  0  0  0  0  0  0
   20.9207   -6.9575  -15.1322 C   0  0  2  0  0  0  0  0  0  0  0  0
   21.3427   -7.8361  -16.2699 N   0  0  0  0  0  0  0  0  0  0  0  0
   19.4736   -6.7698  -15.1928 C   0  0  0  0  0  0  0  0  0  0  0  0
   18.6691   -6.6796  -14.0416 O   0  0  0  0  0  0  0  0  0  0  0  0
   18.8691   -6.6779  -16.2708 O   0  0  0  0  0  0  0  0  0  0  0  0
  1  2  1  0
  2  3  1  0
  4  3  1  0
  5  1  1  0
  5  4  1  0
  5  6  1  6
  7  6  2  0
  9  8  1  6
  9 11  1  0
 10  9  1  0
 11 13  1  0
 11 12  1  1
 12  6  1  0
 13 20  1  0
 14 13  2  0
 16 15  1  6
 16 17  1  0
 18 16  1  0
 19 18  1  6
 19 21  1  0
 20 19  1  0
 21 23  2  0
 21 22  1  0
M  END
$$$$
