PTL.pdb
     RDKit          3D

 23 23  0  0  1  0  0  0  0  0999 V2000
   27.5734  -21.2021   -9.8988 N   0  0  0  0  0  0  0  0  0  0  0  0
   27.8021  -20.6158   -8.6053 C   0  0  0  0  0  0  0  0  0  0  0  0
   26.5480  -19.7493   -8.4418 C   0  0  0  0  0  0  0  0  0  0  0  0
   25.4786  -20.7562   -8.8847 C   0  0  0  0  0  0  0  0  0  0  0  0
   26.1669  -21.3914  -10.0694 C   0  0  1  0  0  0  0  0  0  0  0  0
   25.6432  -20.7343  -11.2935 C   0  0  0  0  0  0  0  0  0  0  0  0
   26.1260  -19.6212  -11.5997 O   0  0  0  0  0  0  0  0  0  0  0  0
   24.0891  -20.8479  -15.8405 C   0  0  0  0  0  0  0  0  0  0  0  0
   24.4341  -21.5383  -14.5613 C   0  0  1  0  0  0  0  0  0  0  0  0
   25.7983  -21.8384  -14.5893 O   0  0  0  0  0  0  0  0  0  0  0  0
   24.2110  -20.6882  -13.3369 C   0  0  2  0  0  0  0  0  0  0  0  0
   24.6494  -21.2811  -12.1202 N   0  0  0  0  0  0  0  0  0  0  0  0
   22.7650  -20.3468  -13.3051 C   0  0  0  0  0  0  0  0  0  0  0  0
   22.0239  -21.1445  -12.6780 O   0  0  0  0  0  0  0  0  0  0  0  0
   19.0905  -15.6847  -15.1843 C   0  0  0  0  0  0  0  0  0  0  0  0
   19.3372  -16.7651  -14.2051 C   0  0  2  0  0  0  0  0  0  0  0  0
   19.0854  -16.2235  -12.7858 C   0  0  0  0  0  0  0  0  0  0  0  0
   20.6364  -17.4498  -14.1829 C   0  0  0  0  0  0  0  0  0  0  0  0
   20.7649  -18.8687  -13.8191 C   0  0  2  0  0  0  0  0  0  0  0  0
   22.2193  -19.2122  -13.9245 N   0  0  0  0  0  0  0  0  0  0  0  0
   19.9890  -19.8764  -14.5371 C   0  0  0  0  0  0  0  0  0  0  0  0
   20.3879  -20.4002  -15.7811 O   0  0  0  0  0  0  0  0  0  0  0  0
   18.9277  -20.3307  -14.0861 O   0  0  0  0  0  0  0  0  0  0  0  0
  1  2  1  0
  2  3  1  0
  4  3  1  0
  5  1  1  0
  5  4  1  0
  5  6  1  6
  7  6  2  0
  9  8  1  6
  9 11  1  0
 10  9  1  0
 11 13  1  0
 11 12  1  1
 12  6  1  0
 13 20  1  0
 14 13  2  0
 16 15  1  6
 16 17  1  0
 18 16  1  0
 19 18  1  6
 19 21  1  0
 20 19  1  0
 21 23  2  0
 21 22  1  0
M  END
$$$$
