PTL.pdb
     RDKit          3D

 23 23  0  0  1  0  0  0  0  0999 V2000
   14.9791  -11.6280  -16.7902 N   0  0  0  0  0  0  0  0  0  0  0  0
   15.2271  -13.0336  -16.9684 C   0  0  0  0  0  0  0  0  0  0  0  0
   16.6765  -13.1474  -16.4815 C   0  0  0  0  0  0  0  0  0  0  0  0
   16.5800  -12.3268  -15.1889 C   0  0  0  0  0  0  0  0  0  0  0  0
   15.7167  -11.1774  -15.6518 C   0  0  1  0  0  0  0  0  0  0  0  0
   16.6192  -10.0408  -15.9652 C   0  0  0  0  0  0  0  0  0  0  0  0
   17.1962  -10.0543  -17.0755 O   0  0  0  0  0  0  0  0  0  0  0  0
   15.8034   -6.4386  -16.4565 C   0  0  0  0  0  0  0  0  0  0  0  0
   16.8823   -6.5202  -15.4262 C   0  0  1  0  0  0  0  0  0  0  0  0
   16.2820   -6.4332  -14.1676 O   0  0  0  0  0  0  0  0  0  0  0  0
   17.6398   -7.8230  -15.4467 C   0  0  2  0  0  0  0  0  0  0  0  0
   16.8616   -8.9625  -15.1000 N   0  0  0  0  0  0  0  0  0  0  0  0
   18.8152   -7.6539  -14.5533 C   0  0  0  0  0  0  0  0  0  0  0  0
   18.8393   -8.3829  -13.5301 O   0  0  0  0  0  0  0  0  0  0  0  0
   24.0517   -9.0932  -14.8048 C   0  0  0  0  0  0  0  0  0  0  0  0
   23.0512   -8.5559  -13.8575 C   0  0  2  0  0  0  0  0  0  0  0  0
   22.8294   -9.5785  -12.7278 C   0  0  0  0  0  0  0  0  0  0  0  0
   21.7248   -8.1541  -14.3440 C   0  0  0  0  0  0  0  0  0  0  0  0
   21.1662   -6.8205  -14.0765 C   0  0  2  0  0  0  0  0  0  0  0  0
   19.8568   -6.7468  -14.8005 N   0  0  0  0  0  0  0  0  0  0  0  0
   21.9478   -5.6280  -14.3930 C   0  0  0  0  0  0  0  0  0  0  0  0
   22.8544   -5.0493  -13.4853 O   0  0  0  0  0  0  0  0  0  0  0  0
   21.8558   -5.0555  -15.4884 O   0  0  0  0  0  0  0  0  0  0  0  0
  1  2  1  0
  2  3  1  0
  4  3  1  0
  5  1  1  0
  5  4  1  0
  5  6  1  6
  7  6  2  0
  9  8  1  6
  9 11  1  0
 10  9  1  0
 11 13  1  0
 11 12  1  1
 12  6  1  0
 13 20  1  0
 14 13  2  0
 16 15  1  6
 16 17  1  0
 18 16  1  0
 19 18  1  6
 19 21  1  0
 20 19  1  0
 21 23  2  0
 21 22  1  0
M  END
$$$$
