PTL.pdb
     RDKit          3D

 23 23  0  0  1  0  0  0  0  0999 V2000
   27.3253  -22.7951  -17.4889 N   0  0  0  0  0  0  0  0  0  0  0  0
   27.2826  -22.5701  -18.9090 C   0  0  0  0  0  0  0  0  0  0  0  0
   27.9428  -21.1904  -19.0149 C   0  0  0  0  0  0  0  0  0  0  0  0
   29.1504  -21.4105  -18.0947 C   0  0  0  0  0  0  0  0  0  0  0  0
   28.5053  -22.1803  -16.9669 C   0  0  1  0  0  0  0  0  0  0  0  0
   28.2157  -21.2144  -15.8771 C   0  0  0  0  0  0  0  0  0  0  0  0
   29.1703  -20.5278  -15.4489 O   0  0  0  0  0  0  0  0  0  0  0  0
   26.1860  -18.1195  -15.8226 C   0  0  0  0  0  0  0  0  0  0  0  0
   25.6842  -18.9935  -14.7197 C   0  0  1  0  0  0  0  0  0  0  0  0
   24.5493  -19.6629  -15.1844 O   0  0  0  0  0  0  0  0  0  0  0  0
   26.6641  -20.0591  -14.3001 C   0  0  2  0  0  0  0  0  0  0  0  0
   26.9483  -21.0263  -15.3041 N   0  0  0  0  0  0  0  0  0  0  0  0
   26.1253  -20.6784  -13.0614 C   0  0  0  0  0  0  0  0  0  0  0  0
   25.6085  -21.8161  -13.1938 O   0  0  0  0  0  0  0  0  0  0  0  0
   24.9072  -20.7258   -7.4708 C   0  0  0  0  0  0  0  0  0  0  0  0
   26.2519  -20.7970   -8.0823 C   0  0  2  0  0  0  0  0  0  0  0  0
   27.2568  -20.0677   -7.1717 C   0  0  0  0  0  0  0  0  0  0  0  0
   26.4624  -20.2966   -9.4471 C   0  0  0  0  0  0  0  0  0  0  0  0
   25.6182  -20.7220  -10.5734 C   0  0  2  0  0  0  0  0  0  0  0  0
   26.1709  -20.0643  -11.8007 N   0  0  0  0  0  0  0  0  0  0  0  0
   24.1759  -20.4970  -10.5266 C   0  0  0  0  0  0  0  0  0  0  0  0
   23.2780  -21.4284   -9.9725 O   0  0  0  0  0  0  0  0  0  0  0  0
   23.6588  -19.4639  -10.9752 O   0  0  0  0  0  0  0  0  0  0  0  0
  1  2  1  0
  2  3  1  0
  4  3  1  0
  5  1  1  0
  5  4  1  0
  5  6  1  1
  7  6  2  0
  9  8  1  6
  9 11  1  0
 10  9  1  0
 11 13  1  0
 11 12  1  6
 12  6  1  0
 13 20  1  0
 14 13  2  0
 16 15  1  1
 16 17  1  0
 18 16  1  0
 19 18  1  1
 19 21  1  0
 20 19  1  0
 21 23  2  0
 21 22  1  0
M  END
$$$$
