PTL.pdb
     RDKit          3D

 23 23  0  0  1  0  0  0  0  0999 V2000
   27.6412  -22.5325  -16.1631 N   0  0  0  0  0  0  0  0  0  0  0  0
   27.2918  -22.6777  -17.5509 C   0  0  0  0  0  0  0  0  0  0  0  0
   26.9444  -21.2325  -17.9264 C   0  0  0  0  0  0  0  0  0  0  0  0
   28.1353  -20.5061  -17.2879 C   0  0  0  0  0  0  0  0  0  0  0  0
   28.2476  -21.2512  -15.9791 C   0  0  1  0  0  0  0  0  0  0  0  0
   27.5647  -20.4361  -14.9428 C   0  0  0  0  0  0  0  0  0  0  0  0
   27.7968  -19.2065  -14.9335 O   0  0  0  0  0  0  0  0  0  0  0  0
   24.4914  -19.0812  -14.8282 C   0  0  0  0  0  0  0  0  0  0  0  0
   24.5354  -19.8328  -13.5377 C   0  0  1  0  0  0  0  0  0  0  0  0
   23.8899  -21.0568  -13.7311 O   0  0  0  0  0  0  0  0  0  0  0  0
   25.9327  -20.1576  -13.0752 C   0  0  2  0  0  0  0  0  0  0  0  0
   26.6829  -20.9563  -13.9827 N   0  0  0  0  0  0  0  0  0  0  0  0
   25.8086  -20.7944  -11.7383 C   0  0  0  0  0  0  0  0  0  0  0  0
   25.8201  -22.0508  -11.7230 O   0  0  0  0  0  0  0  0  0  0  0  0
   28.4317  -21.0111   -7.8659 C   0  0  0  0  0  0  0  0  0  0  0  0
   27.6118  -19.8121   -8.1440 C   0  0  2  0  0  0  0  0  0  0  0  0
   27.9374  -18.7281   -7.1001 C   0  0  0  0  0  0  0  0  0  0  0  0
   26.1487  -19.9251   -8.2087 C   0  0  0  0  0  0  0  0  0  0  0  0
   25.4735  -20.7501   -9.2214 C   0  0  2  0  0  0  0  0  0  0  0  0
   25.6840  -20.0733  -10.5411 N   0  0  0  0  0  0  0  0  0  0  0  0
   24.0551  -21.0657   -9.0741 C   0  0  0  0  0  0  0  0  0  0  0  0
   23.5716  -21.9612   -8.1020 O   0  0  0  0  0  0  0  0  0  0  0  0
   23.1913  -20.5570   -9.8029 O   0  0  0  0  0  0  0  0  0  0  0  0
  1  2  1  0
  2  3  1  0
  4  3  1  0
  5  1  1  0
  5  4  1  0
  5  6  1  1
  7  6  2  0
  9  8  1  6
  9 11  1  0
 10  9  1  0
 11 13  1  0
 11 12  1  6
 12  6  1  0
 13 20  1  0
 14 13  2  0
 16 15  1  1
 16 17  1  0
 18 16  1  0
 19 18  1  1
 19 21  1  0
 20 19  1  0
 21 23  2  0
 21 22  1  0
M  END
$$$$
