PTL.pdb
     RDKit          3D

 23 23  0  0  1  0  0  0  0  0999 V2000
   26.9901  -16.5110  -17.3238 N   0  0  0  0  0  0  0  0  0  0  0  0
   26.1087  -15.4279  -17.6688 C   0  0  0  0  0  0  0  0  0  0  0  0
   25.1818  -15.3937  -16.4481 C   0  0  0  0  0  0  0  0  0  0  0  0
   26.2261  -15.4869  -15.3281 C   0  0  0  0  0  0  0  0  0  0  0  0
   27.1625  -16.5219  -15.9049 C   0  0  1  0  0  0  0  0  0  0  0  0
   26.8123  -17.8289  -15.2938 C   0  0  0  0  0  0  0  0  0  0  0  0
   25.8955  -18.4883  -15.8329 O   0  0  0  0  0  0  0  0  0  0  0  0
   29.3129  -19.8870  -12.3239 C   0  0  0  0  0  0  0  0  0  0  0  0
   28.4340  -20.4798  -13.3766 C   0  0  1  0  0  0  0  0  0  0  0  0
   27.9983  -21.7265  -12.9207 O   0  0  0  0  0  0  0  0  0  0  0  0
   27.1927  -19.6707  -13.6531 C   0  0  2  0  0  0  0  0  0  0  0  0
   27.4414  -18.3645  -14.1591 N   0  0  0  0  0  0  0  0  0  0  0  0
   26.4049  -19.6434  -12.3933 C   0  0  0  0  0  0  0  0  0  0  0  0
   26.6090  -18.6611  -11.6368 O   0  0  0  0  0  0  0  0  0  0  0  0
   22.0126  -19.0677  -11.6068 C   0  0  0  0  0  0  0  0  0  0  0  0
   22.4487  -20.4505  -11.8980 C   0  0  2  0  0  0  0  0  0  0  0  0
   21.2074  -21.3539  -12.0170 C   0  0  0  0  0  0  0  0  0  0  0  0
   23.3907  -21.1260  -10.9959 C   0  0  0  0  0  0  0  0  0  0  0  0
   24.7362  -20.5948  -10.7322 C   0  0  2  0  0  0  0  0  0  0  0  0
   25.4791  -20.6341  -12.0325 N   0  0  0  0  0  0  0  0  0  0  0  0
   25.5671  -21.2018   -9.6957 C   0  0  0  0  0  0  0  0  0  0  0  0
   25.4476  -20.8699   -8.3332 O   0  0  0  0  0  0  0  0  0  0  0  0
   26.4303  -22.0507   -9.9611 O   0  0  0  0  0  0  0  0  0  0  0  0
  1  2  1  0
  2  3  1  0
  4  3  1  0
  5  1  1  0
  5  4  1  0
  5  6  1  1
  7  6  2  0
  9  8  1  1
  9 11  1  0
 10  9  1  0
 11 13  1  0
 11 12  1  1
 12  6  1  0
 13 20  1  0
 14 13  2  0
 16 15  1  1
 16 17  1  0
 18 16  1  0
 19 18  1  6
 19 21  1  0
 20 19  1  0
 21 23  2  0
 21 22  1  0
M  END
$$$$
