TLK.pdb
     RDKit          3D

 25 24  0  0  1  0  0  0  0  0999 V2000
    7.1889  -19.8477   16.5983 C   0  0  0  0  0  0  0  0  0  0  0  0
    7.8551  -19.1163   17.7071 C   0  0  1  0  0  0  0  0  0  0  0  0
    8.7912  -19.9703   18.3274 O   0  0  0  0  0  0  0  0  0  0  0  0
    8.5767  -17.8762   17.3035 C   0  0  2  0  0  0  0  0  0  0  0  0
    9.5246  -18.2205   16.2677 N   0  0  0  0  0  0  0  0  0  0  0  0
    9.2643  -17.1714   18.3732 C   0  0  0  0  0  0  0  0  0  0  0  0
   10.5260  -17.2688   18.5771 O   0  0  0  0  0  0  0  0  0  0  0  0
    6.4899  -12.7341   20.3607 C   0  0  0  0  0  0  0  0  0  0  0  0
    7.5983  -13.6159   19.9218 C   0  0  1  0  0  0  0  0  0  0  0  0
    8.7587  -12.6852   19.5239 C   0  0  0  0  0  0  0  0  0  0  0  0
    8.1517  -14.5699   20.9094 C   0  0  0  0  0  0  0  0  0  0  0  0
    9.0751  -15.6296   20.3675 C   0  0  2  0  0  0  0  0  0  0  0  0
    8.5227  -16.3293   19.2462 N   0  0  0  0  0  0  0  0  0  0  0  0
    9.5422  -16.4849   21.4573 C   0  0  0  0  0  0  0  0  0  0  0  0
    8.8041  -17.3327   22.0226 O   0  0  0  0  0  0  0  0  0  0  0  0
   10.8788  -16.3908   21.9341 N   0  0  0  0  0  0  0  0  0  0  0  0
   11.4000  -17.2802   22.9880 C   0  0  1  0  0  0  0  0  0  0  0  0
   12.5054  -18.1306   22.4674 C   0  0  0  0  0  0  0  0  0  0  0  0
   12.1605  -19.5881   22.3146 C   0  0  0  0  0  0  0  0  0  0  0  0
   13.3724  -20.3372   21.7579 C   0  0  0  0  0  0  0  0  0  0  0  0
   12.9304  -21.7739   21.5349 C   0  0  0  0  0  0  0  0  0  0  0  0
   14.0041  -22.5681   20.9713 N   0  0  0  0  0  0  0  0  0  0  0  0
   11.8708  -16.4328   24.0960 C   0  0  0  0  0  0  0  0  0  0  0  0
   12.2151  -16.8975   25.3572 O   0  0  0  0  0  0  0  0  0  0  0  0
   11.9867  -15.1648   23.9334 O   0  0  0  0  0  0  0  0  0  0  0  0
  2  1  1  6
  3  2  1  0
  4  6  1  0
  4  2  1  0
  4  5  1  6
  6  7  2  0
  9  8  1  1
  9 11  1  0
 10  9  1  0
 12 11  1  1
 13 12  1  0
 13  6  1  0
 14 15  2  0
 14 12  1  0
 16 14  1  0
 17 16  1  0
 17 18  1  6
 19 20  1  0
 19 18  1  0
 20 21  1  0
 21 22  1  0
 23 17  1  0
 23 24  1  0
 25 23  2  0
M  END
$$$$
