TLK.pdb
     RDKit          3D

 25 24  0  0  1  0  0  0  0  0999 V2000
    7.4998  -17.8344   19.7789 C   0  0  0  0  0  0  0  0  0  0  0  0
    7.8985  -17.2087   21.0665 C   0  0  1  0  0  0  0  0  0  0  0  0
    8.9271  -17.9751   21.6538 O   0  0  0  0  0  0  0  0  0  0  0  0
    8.3875  -15.8046   20.9630 C   0  0  2  0  0  0  0  0  0  0  0  0
    9.5067  -15.7811   20.0482 N   0  0  0  0  0  0  0  0  0  0  0  0
    8.7748  -15.1787   22.2168 C   0  0  0  0  0  0  0  0  0  0  0  0
    9.9794  -15.1764   22.6548 O   0  0  0  0  0  0  0  0  0  0  0  0
    8.0441  -11.7844   26.6005 C   0  0  0  0  0  0  0  0  0  0  0  0
    6.9762  -12.7564   26.2635 C   0  0  1  0  0  0  0  0  0  0  0  0
    5.6415  -12.0622   26.5913 C   0  0  0  0  0  0  0  0  0  0  0  0
    6.8747  -13.2079   24.8572 C   0  0  0  0  0  0  0  0  0  0  0  0
    7.9862  -14.0948   24.3600 C   0  0  2  0  0  0  0  0  0  0  0  0
    7.7878  -14.5332   23.0108 N   0  0  0  0  0  0  0  0  0  0  0  0
    8.2358  -15.1649   25.3244 C   0  0  0  0  0  0  0  0  0  0  0  0
    7.4055  -16.0816   25.5553 O   0  0  0  0  0  0  0  0  0  0  0  0
    9.4535  -15.2139   26.0577 N   0  0  0  0  0  0  0  0  0  0  0  0
    9.8421  -16.3915   26.8549 C   0  0  1  0  0  0  0  0  0  0  0  0
   10.9857  -17.1065   26.2246 C   0  0  0  0  0  0  0  0  0  0  0  0
   11.3528  -18.4102   26.8819 C   0  0  0  0  0  0  0  0  0  0  0  0
   12.5558  -19.0181   26.1585 C   0  0  0  0  0  0  0  0  0  0  0  0
   12.9283  -20.2797   26.9194 C   0  0  0  0  0  0  0  0  0  0  0  0
   13.9050  -21.0611   26.1868 N   0  0  0  0  0  0  0  0  0  0  0  0
   10.1999  -15.9207   28.2030 C   0  0  0  0  0  0  0  0  0  0  0  0
   10.2232  -14.5905   28.5970 O   0  0  0  0  0  0  0  0  0  0  0  0
   10.5227  -16.7637   29.1156 O   0  0  0  0  0  0  0  0  0  0  0  0
  2  1  1  6
  3  2  1  0
  4  6  1  0
  4  2  1  0
  4  5  1  6
  6  7  2  0
  9  8  1  6
  9 11  1  0
 10  9  1  0
 12 11  1  1
 13 12  1  0
 13  6  1  0
 14 15  2  0
 14 12  1  0
 16 14  1  0
 17 16  1  0
 17 18  1  6
 19 20  1  0
 19 18  1  0
 20 21  1  0
 21 22  1  0
 23 17  1  0
 23 24  1  0
 25 23  2  0
M  END
$$$$
