TLK.pdb
     RDKit          3D

 25 24  0  0  1  0  0  0  0  0999 V2000
    8.7876  -19.8382   18.7286 C   0  0  0  0  0  0  0  0  0  0  0  0
    9.7124  -19.3350   17.6799 C   0  0  1  0  0  0  0  0  0  0  0  0
    9.4037  -19.9595   16.4530 O   0  0  0  0  0  0  0  0  0  0  0  0
    9.6742  -17.8619   17.4564 C   0  0  2  0  0  0  0  0  0  0  0  0
   10.5373  -17.5508   16.3391 N   0  0  0  0  0  0  0  0  0  0  0  0
   10.0467  -17.0420   18.5978 C   0  0  0  0  0  0  0  0  0  0  0  0
   11.2441  -16.9753   19.0502 O   0  0  0  0  0  0  0  0  0  0  0  0
    6.5188  -12.8410   20.0927 C   0  0  0  0  0  0  0  0  0  0  0  0
    7.7260  -13.6634   19.8376 C   0  0  1  0  0  0  0  0  0  0  0  0
    8.9083  -12.6806   19.7541 C   0  0  0  0  0  0  0  0  0  0  0  0
    8.0977  -14.6744   20.8532 C   0  0  0  0  0  0  0  0  0  0  0  0
    9.2469  -15.5824   20.5003 C   0  0  2  0  0  0  0  0  0  0  0  0
    9.0526  -16.2698   19.2587 N   0  0  0  0  0  0  0  0  0  0  0  0
    9.5653  -16.4441   21.6377 C   0  0  0  0  0  0  0  0  0  0  0  0
    8.8198  -17.3878   22.0075 O   0  0  0  0  0  0  0  0  0  0  0  0
   10.7563  -16.2459   22.3895 N   0  0  0  0  0  0  0  0  0  0  0  0
   11.1233  -17.1163   23.5213 C   0  0  1  0  0  0  0  0  0  0  0  0
   12.5388  -17.5636   23.4110 C   0  0  0  0  0  0  0  0  0  0  0  0
   12.8674  -18.3075   22.1440 C   0  0  0  0  0  0  0  0  0  0  0  0
   14.3727  -18.5746   22.0923 C   0  0  0  0  0  0  0  0  0  0  0  0
   14.6179  -19.4451   20.8711 C   0  0  0  0  0  0  0  0  0  0  0  0
   16.0349  -19.5577   20.5872 N   0  0  0  0  0  0  0  0  0  0  0  0
   10.9129  -16.3505   24.7609 C   0  0  0  0  0  0  0  0  0  0  0  0
   10.4470  -15.0447   24.8156 O   0  0  0  0  0  0  0  0  0  0  0  0
   11.1660  -16.8855   25.8999 O   0  0  0  0  0  0  0  0  0  0  0  0
  2  1  1  1
  3  2  1  0
  4  6  1  0
  4  2  1  0
  4  5  1  6
  6  7  2  0
  9  8  1  1
  9 11  1  0
 10  9  1  0
 12 11  1  1
 13 12  1  0
 13  6  1  0
 14 15  2  0
 14 12  1  0
 16 14  1  0
 17 16  1  0
 17 18  1  6
 19 20  1  0
 19 18  1  0
 20 21  1  0
 21 22  1  0
 23 17  1  0
 23 24  1  0
 25 23  2  0
M  END
$$$$
