TLK.pdb
     RDKit          3D

 25 24  0  0  1  0  0  0  0  0999 V2000
    6.3951  -17.0301   21.3710 C   0  0  0  0  0  0  0  0  0  0  0  0
    7.4491  -16.2979   20.6219 C   0  0  1  0  0  0  0  0  0  0  0  0
    7.0882  -16.2344   19.2595 O   0  0  0  0  0  0  0  0  0  0  0  0
    7.7023  -14.9042   21.0851 C   0  0  2  0  0  0  0  0  0  0  0  0
    8.5388  -14.2466   20.1064 N   0  0  0  0  0  0  0  0  0  0  0  0
    8.3075  -14.7782   22.4010 C   0  0  0  0  0  0  0  0  0  0  0  0
    9.5640  -14.9218   22.6098 O   0  0  0  0  0  0  0  0  0  0  0  0
    5.6413  -11.7872   26.4112 C   0  0  0  0  0  0  0  0  0  0  0  0
    6.6905  -12.4418   25.5930 C   0  0  1  0  0  0  0  0  0  0  0  0
    8.0037  -11.6989   25.9002 C   0  0  0  0  0  0  0  0  0  0  0  0
    6.9589  -13.8771   25.8374 C   0  0  0  0  0  0  0  0  0  0  0  0
    7.9175  -14.5470   24.8879 C   0  0  2  0  0  0  0  0  0  0  0  0
    7.4865  -14.4821   23.5233 N   0  0  0  0  0  0  0  0  0  0  0  0
    8.2352  -15.8903   25.3697 C   0  0  0  0  0  0  0  0  0  0  0  0
    7.3966  -16.8282   25.3760 O   0  0  0  0  0  0  0  0  0  0  0  0
    9.5334  -16.1981   25.8627 N   0  0  0  0  0  0  0  0  0  0  0  0
    9.9037  -17.5555   26.3028 C   0  0  1  0  0  0  0  0  0  0  0  0
   11.0153  -18.0982   25.4748 C   0  0  0  0  0  0  0  0  0  0  0  0
   11.5411  -19.4353   25.9246 C   0  0  0  0  0  0  0  0  0  0  0  0
   12.6475  -19.8887   24.9706 C   0  0  0  0  0  0  0  0  0  0  0  0
   13.1327  -21.2367   25.4772 C   0  0  0  0  0  0  0  0  0  0  0  0
   14.2115  -21.7456   24.6536 N   0  0  0  0  0  0  0  0  0  0  0  0
   10.2988  -17.4743   27.7186 C   0  0  0  0  0  0  0  0  0  0  0  0
   10.3486  -16.3032   28.4610 O   0  0  0  0  0  0  0  0  0  0  0  0
   10.6318  -18.5371   28.3568 O   0  0  0  0  0  0  0  0  0  0  0  0
  2  1  1  1
  3  2  1  0
  4  6  1  0
  4  2  1  0
  4  5  1  6
  6  7  2  0
  9  8  1  1
  9 11  1  0
 10  9  1  0
 12 11  1  1
 13 12  1  0
 13  6  1  0
 14 15  2  0
 14 12  1  0
 16 14  1  0
 17 16  1  0
 17 18  1  6
 19 20  1  0
 19 18  1  0
 20 21  1  0
 21 22  1  0
 23 17  1  0
 23 24  1  0
 25 23  2  0
M  END
$$$$
