TLK.pdb
     RDKit          3D

 25 24  0  0  1  0  0  0  0  0999 V2000
    6.6715  -15.8908   20.5575 C   0  0  0  0  0  0  0  0  0  0  0  0
    7.3780  -14.6704   20.0885 C   0  0  1  0  0  0  0  0  0  0  0  0
    6.8311  -14.2660   18.8525 O   0  0  0  0  0  0  0  0  0  0  0  0
    7.3086  -13.5041   21.0138 C   0  0  2  0  0  0  0  0  0  0  0  0
    7.8202  -12.3440   20.3192 N   0  0  0  0  0  0  0  0  0  0  0  0
    8.0112  -13.6600   22.2771 C   0  0  0  0  0  0  0  0  0  0  0  0
    9.2878  -13.6057   22.3789 O   0  0  0  0  0  0  0  0  0  0  0  0
    5.7098  -12.0317   27.1096 C   0  0  0  0  0  0  0  0  0  0  0  0
    6.6837  -12.4271   26.0637 C   0  0  1  0  0  0  0  0  0  0  0  0
    8.0197  -11.7632   26.4447 C   0  0  0  0  0  0  0  0  0  0  0  0
    6.9696  -13.8704   25.8993 C   0  0  0  0  0  0  0  0  0  0  0  0
    7.8405  -14.2483   24.7296 C   0  0  2  0  0  0  0  0  0  0  0  0
    7.2679  -13.8838   23.4682 N   0  0  0  0  0  0  0  0  0  0  0  0
    8.2409  -15.6499   24.8418 C   0  0  0  0  0  0  0  0  0  0  0  0
    7.4299  -16.6029   24.7110 O   0  0  0  0  0  0  0  0  0  0  0  0
    9.5927  -16.0010   25.1103 N   0  0  0  0  0  0  0  0  0  0  0  0
   10.0236  -17.4026   25.2622 C   0  0  1  0  0  0  0  0  0  0  0  0
   11.1472  -17.7167   24.3375 C   0  0  0  0  0  0  0  0  0  0  0  0
   10.7262  -18.2263   22.9849 C   0  0  0  0  0  0  0  0  0  0  0  0
   11.9718  -18.5247   22.1486 C   0  0  0  0  0  0  0  0  0  0  0  0
   11.4837  -19.1283   20.8422 C   0  0  0  0  0  0  0  0  0  0  0  0
   12.5970  -19.4944   19.9891 N   0  0  0  0  0  0  0  0  0  0  0  0
   10.4313  -17.5959   26.6635 C   0  0  0  0  0  0  0  0  0  0  0  0
   10.7215  -18.8233   27.2418 O   0  0  0  0  0  0  0  0  0  0  0  0
   10.5392  -16.5860   27.4486 O   0  0  0  0  0  0  0  0  0  0  0  0
  2  1  1  1
  3  2  1  0
  4  6  1  0
  4  2  1  0
  4  5  1  6
  6  7  2  0
  9  8  1  1
  9 11  1  0
 10  9  1  0
 12 11  1  1
 13 12  1  0
 13  6  1  0
 14 15  2  0
 14 12  1  0
 16 14  1  0
 17 16  1  0
 17 18  1  6
 19 20  1  0
 19 18  1  0
 20 21  1  0
 21 22  1  0
 23 17  1  0
 23 24  1  0
 25 23  2  0
M  END
$$$$
