TLK.pdb
     RDKit          3D

 25 24  0  0  1  0  0  0  0  0999 V2000
    6.6681  -17.2773   21.1575 C   0  0  0  0  0  0  0  0  0  0  0  0
    7.5875  -16.5302   20.2603 C   0  0  1  0  0  0  0  0  0  0  0  0
    7.2009  -16.7442   18.9205 O   0  0  0  0  0  0  0  0  0  0  0  0
    7.6330  -15.0575   20.4852 C   0  0  2  0  0  0  0  0  0  0  0  0
    8.3848  -14.4577   19.4058 N   0  0  0  0  0  0  0  0  0  0  0  0
    8.1915  -14.6319   21.7582 C   0  0  0  0  0  0  0  0  0  0  0  0
    9.4501  -14.6197   22.0009 O   0  0  0  0  0  0  0  0  0  0  0  0
    8.0927  -11.9647   26.6832 C   0  0  0  0  0  0  0  0  0  0  0  0
    7.0129  -12.9267   26.3556 C   0  0  1  0  0  0  0  0  0  0  0  0
    5.7260  -12.3622   26.9850 C   0  0  0  0  0  0  0  0  0  0  0  0
    6.7080  -13.1591   24.9256 C   0  0  0  0  0  0  0  0  0  0  0  0
    7.7240  -13.9547   24.1483 C   0  0  2  0  0  0  0  0  0  0  0  0
    7.3198  -14.2052   22.7971 N   0  0  0  0  0  0  0  0  0  0  0  0
    8.1078  -15.1443   24.9066 C   0  0  0  0  0  0  0  0  0  0  0  0
    7.2964  -16.0633   25.1896 O   0  0  0  0  0  0  0  0  0  0  0  0
    9.4431  -15.3146   25.3660 N   0  0  0  0  0  0  0  0  0  0  0  0
    9.9426  -16.6099   25.8620 C   0  0  1  0  0  0  0  0  0  0  0  0
   11.1772  -17.0167   25.1366 C   0  0  0  0  0  0  0  0  0  0  0  0
   11.4749  -18.4919   25.1780 C   0  0  0  0  0  0  0  0  0  0  0  0
   11.8875  -18.9622   23.7821 C   0  0  0  0  0  0  0  0  0  0  0  0
   11.9672  -20.4786   23.8403 C   0  0  0  0  0  0  0  0  0  0  0  0
   12.3452  -21.0305   22.5543 N   0  0  0  0  0  0  0  0  0  0  0  0
   10.2075  -16.4650   27.3029 C   0  0  0  0  0  0  0  0  0  0  0  0
   10.4135  -17.5200   28.1803 O   0  0  0  0  0  0  0  0  0  0  0  0
   10.2603  -15.2977   27.8344 O   0  0  0  0  0  0  0  0  0  0  0  0
  2  1  1  1
  3  2  1  0
  4  6  1  0
  4  2  1  0
  4  5  1  6
  6  7  2  0
  9  8  1  6
  9 11  1  0
 10  9  1  0
 12 11  1  1
 13 12  1  0
 13  6  1  0
 14 15  2  0
 14 12  1  0
 16 14  1  0
 17 16  1  0
 17 18  1  6
 19 20  1  0
 19 18  1  0
 20 21  1  0
 21 22  1  0
 23 17  1  0
 23 24  1  0
 25 23  2  0
M  END
$$$$
