TLK.pdb
     RDKit          3D

 25 24  0  0  1  0  0  0  0  0999 V2000
    6.8380  -17.6637   21.7370 C   0  0  0  0  0  0  0  0  0  0  0  0
    7.8411  -16.9089   20.9418 C   0  0  1  0  0  0  0  0  0  0  0  0
    7.4753  -16.9479   19.5798 O   0  0  0  0  0  0  0  0  0  0  0  0
    8.0031  -15.4772   21.3227 C   0  0  2  0  0  0  0  0  0  0  0  0
    8.8227  -14.8321   20.3216 N   0  0  0  0  0  0  0  0  0  0  0  0
    8.5697  -15.2363   22.6398 C   0  0  0  0  0  0  0  0  0  0  0  0
    9.8237  -15.3274   22.8893 O   0  0  0  0  0  0  0  0  0  0  0  0
    5.9020  -11.9035   26.3982 C   0  0  0  0  0  0  0  0  0  0  0  0
    6.9493  -12.6415   25.6517 C   0  0  1  0  0  0  0  0  0  0  0  0
    8.2860  -11.9585   25.9943 C   0  0  0  0  0  0  0  0  0  0  0  0
    7.1280  -14.0793   25.9559 C   0  0  0  0  0  0  0  0  0  0  0  0
    8.1097  -14.8265   25.0914 C   0  0  2  0  0  0  0  0  0  0  0  0
    7.7116  -14.8818   23.7165 N   0  0  0  0  0  0  0  0  0  0  0  0
    8.4171  -16.1217   25.6959 C   0  0  0  0  0  0  0  0  0  0  0  0
    7.5531  -17.0228   25.8528 O   0  0  0  0  0  0  0  0  0  0  0  0
    9.7338  -16.4223   26.1417 N   0  0  0  0  0  0  0  0  0  0  0  0
   10.0948  -17.7435   26.6870 C   0  0  1  0  0  0  0  0  0  0  0  0
   11.3125  -18.2797   26.0195 C   0  0  0  0  0  0  0  0  0  0  0  0
   11.1868  -18.4599   24.5301 C   0  0  0  0  0  0  0  0  0  0  0  0
   12.4979  -19.0221   23.9779 C   0  0  0  0  0  0  0  0  0  0  0  0
   12.3415  -19.0859   22.4677 C   0  0  0  0  0  0  0  0  0  0  0  0
   13.5663  -19.5347   21.8354 N   0  0  0  0  0  0  0  0  0  0  0  0
   10.3194  -17.5843   28.1332 C   0  0  0  0  0  0  0  0  0  0  0  0
   10.5055  -18.6304   29.0256 O   0  0  0  0  0  0  0  0  0  0  0  0
   10.3528  -16.4121   28.6551 O   0  0  0  0  0  0  0  0  0  0  0  0
  2  1  1  1
  3  2  1  0
  4  6  1  0
  4  2  1  0
  4  5  1  6
  6  7  2  0
  9  8  1  1
  9 11  1  0
 10  9  1  0
 12 11  1  1
 13 12  1  0
 13  6  1  0
 14 15  2  0
 14 12  1  0
 16 14  1  0
 17 16  1  0
 17 18  1  6
 19 20  1  0
 19 18  1  0
 20 21  1  0
 21 22  1  0
 23 17  1  0
 23 24  1  0
 25 23  2  0
M  END
$$$$
