TLK.pdb
     RDKit          3D

 25 24  0  0  1  0  0  0  0  0999 V2000
    6.9819  -17.7952   21.7538 C   0  0  0  0  0  0  0  0  0  0  0  0
    8.0383  -17.2295   20.8749 C   0  0  1  0  0  0  0  0  0  0  0  0
    7.7633  -17.5811   19.5366 O   0  0  0  0  0  0  0  0  0  0  0  0
    8.1803  -15.7469   20.9300 C   0  0  2  0  0  0  0  0  0  0  0  0
    9.1049  -15.3418   19.8951 N   0  0  0  0  0  0  0  0  0  0  0  0
    8.6147  -15.2029   22.2063 C   0  0  0  0  0  0  0  0  0  0  0  0
    9.8319  -15.2433   22.6061 O   0  0  0  0  0  0  0  0  0  0  0  0
    8.0497  -11.9398   26.7226 C   0  0  0  0  0  0  0  0  0  0  0  0
    6.9897  -12.9285   26.4100 C   0  0  1  0  0  0  0  0  0  0  0  0
    5.6576  -12.2807   26.8302 C   0  0  0  0  0  0  0  0  0  0  0  0
    6.8246  -13.3374   24.9968 C   0  0  0  0  0  0  0  0  0  0  0  0
    7.9257  -14.1853   24.4153 C   0  0  2  0  0  0  0  0  0  0  0  0
    7.6622  -14.5929   23.0676 N   0  0  0  0  0  0  0  0  0  0  0  0
    8.2515  -15.2740   25.3351 C   0  0  0  0  0  0  0  0  0  0  0  0
    7.4135  -16.1451   25.6843 O   0  0  0  0  0  0  0  0  0  0  0  0
    9.5574  -15.3950   25.8856 N   0  0  0  0  0  0  0  0  0  0  0  0
    9.9597  -16.5541   26.7029 C   0  0  1  0  0  0  0  0  0  0  0  0
   11.1710  -17.2089   26.1371 C   0  0  0  0  0  0  0  0  0  0  0  0
   10.9488  -17.9234   24.8307 C   0  0  0  0  0  0  0  0  0  0  0  0
   12.2658  -18.5488   24.3679 C   0  0  0  0  0  0  0  0  0  0  0  0
   11.9507  -19.3468   23.1136 C   0  0  0  0  0  0  0  0  0  0  0  0
   13.1645  -19.8232   22.4803 N   0  0  0  0  0  0  0  0  0  0  0  0
   10.2179  -16.0701   28.0690 C   0  0  0  0  0  0  0  0  0  0  0  0
   10.1648  -14.7402   28.4612 O   0  0  0  0  0  0  0  0  0  0  0  0
   10.5193  -16.8999   29.0007 O   0  0  0  0  0  0  0  0  0  0  0  0
  2  1  1  1
  3  2  1  0
  4  6  1  0
  4  2  1  0
  4  5  1  6
  6  7  2  0
  9  8  1  6
  9 11  1  0
 10  9  1  0
 12 11  1  1
 13 12  1  0
 13  6  1  0
 14 15  2  0
 14 12  1  0
 16 14  1  0
 17 16  1  0
 17 18  1  6
 19 20  1  0
 19 18  1  0
 20 21  1  0
 21 22  1  0
 23 17  1  0
 23 24  1  0
 25 23  2  0
M  END
$$$$
