TLK.pdb
     RDKit          3D

 25 24  0  0  1  0  0  0  0  0999 V2000
    6.6305  -17.2990   21.1907 C   0  0  0  0  0  0  0  0  0  0  0  0
    7.5692  -16.4453   20.4171 C   0  0  1  0  0  0  0  0  0  0  0  0
    7.1734  -16.4328   19.0630 O   0  0  0  0  0  0  0  0  0  0  0  0
    7.6581  -15.0290   20.8724 C   0  0  2  0  0  0  0  0  0  0  0  0
    8.3834  -14.2768   19.8732 N   0  0  0  0  0  0  0  0  0  0  0  0
    8.2735  -14.8233   22.1734 C   0  0  0  0  0  0  0  0  0  0  0  0
    9.5419  -14.8405   22.3579 O   0  0  0  0  0  0  0  0  0  0  0  0
    5.6718  -11.9064   26.3291 C   0  0  0  0  0  0  0  0  0  0  0  0
    6.7271  -12.5338   25.4975 C   0  0  1  0  0  0  0  0  0  0  0  0
    8.0551  -11.8776   25.9179 C   0  0  0  0  0  0  0  0  0  0  0  0
    6.9274  -13.9950   25.6262 C   0  0  0  0  0  0  0  0  0  0  0  0
    7.9051  -14.6208   24.6660 C   0  0  2  0  0  0  0  0  0  0  0  0
    7.4495  -14.5904   23.3083 N   0  0  0  0  0  0  0  0  0  0  0  0
    8.3020  -15.9411   25.1527 C   0  0  0  0  0  0  0  0  0  0  0  0
    7.5009  -16.9082   25.2296 O   0  0  0  0  0  0  0  0  0  0  0  0
    9.6387  -16.1914   25.5690 N   0  0  0  0  0  0  0  0  0  0  0  0
   10.0925  -17.5305   25.9864 C   0  0  1  0  0  0  0  0  0  0  0  0
   11.3075  -17.9400   25.2299 C   0  0  0  0  0  0  0  0  0  0  0  0
   11.8910  -19.2644   25.6444 C   0  0  0  0  0  0  0  0  0  0  0  0
   13.1772  -19.5175   24.8560 C   0  0  0  0  0  0  0  0  0  0  0  0
   13.7199  -20.8561   25.3279 C   0  0  0  0  0  0  0  0  0  0  0  0
   14.9883  -21.1571   24.6939 N   0  0  0  0  0  0  0  0  0  0  0  0
   10.3701  -17.4784   27.4312 C   0  0  0  0  0  0  0  0  0  0  0  0
   10.2745  -16.3378   28.2154 O   0  0  0  0  0  0  0  0  0  0  0  0
   10.7315  -18.5395   28.0567 O   0  0  0  0  0  0  0  0  0  0  0  0
  2  1  1  1
  3  2  1  0
  4  6  1  0
  4  2  1  0
  4  5  1  6
  6  7  2  0
  9  8  1  1
  9 11  1  0
 10  9  1  0
 12 11  1  1
 13 12  1  0
 13  6  1  0
 14 15  2  0
 14 12  1  0
 16 14  1  0
 17 16  1  0
 17 18  1  6
 19 20  1  0
 19 18  1  0
 20 21  1  0
 21 22  1  0
 23 17  1  0
 23 24  1  0
 25 23  2  0
M  END
$$$$
