TLK.pdb
     RDKit          3D

 25 24  0  0  1  0  0  0  0  0999 V2000
    7.3048  -16.8049   20.2312 C   0  0  0  0  0  0  0  0  0  0  0  0
    7.7439  -16.4450   21.6045 C   0  0  1  0  0  0  0  0  0  0  0  0
    8.7372  -17.3542   22.0253 O   0  0  0  0  0  0  0  0  0  0  0  0
    8.3017  -15.0706   21.7507 C   0  0  2  0  0  0  0  0  0  0  0  0
    9.3521  -14.9018   20.7718 N   0  0  0  0  0  0  0  0  0  0  0  0
    8.8120  -14.7353   23.0701 C   0  0  0  0  0  0  0  0  0  0  0  0
   10.0569  -14.5483   23.3119 O   0  0  0  0  0  0  0  0  0  0  0  0
    5.1795  -12.4027   26.7416 C   0  0  0  0  0  0  0  0  0  0  0  0
    6.3724  -12.7887   25.9498 C   0  0  1  0  0  0  0  0  0  0  0  0
    7.3394  -11.5922   26.0150 C   0  0  0  0  0  0  0  0  0  0  0  0
    7.1435  -13.9703   26.3978 C   0  0  0  0  0  0  0  0  0  0  0  0
    8.2945  -14.3872   25.5198 C   0  0  2  0  0  0  0  0  0  0  0  0
    7.9063  -14.6035   24.1580 N   0  0  0  0  0  0  0  0  0  0  0  0
    9.0131  -15.4996   26.1391 C   0  0  0  0  0  0  0  0  0  0  0  0
    9.3930  -15.4822   27.3384 O   0  0  0  0  0  0  0  0  0  0  0  0
    9.3196  -16.6721   25.3946 N   0  0  0  0  0  0  0  0  0  0  0  0
   10.0001  -17.8307   26.0012 C   0  0  1  0  0  0  0  0  0  0  0  0
   10.2072  -18.9109   24.9980 C   0  0  0  0  0  0  0  0  0  0  0  0
   10.8509  -20.1591   25.5401 C   0  0  0  0  0  0  0  0  0  0  0  0
   10.9873  -21.1857   24.4143 C   0  0  0  0  0  0  0  0  0  0  0  0
   11.6357  -22.4168   25.0250 C   0  0  0  0  0  0  0  0  0  0  0  0
   11.6613  -23.5156   24.0799 N   0  0  0  0  0  0  0  0  0  0  0  0
   11.2886  -17.3622   26.5374 C   0  0  0  0  0  0  0  0  0  0  0  0
   12.0989  -16.4114   25.9337 O   0  0  0  0  0  0  0  0  0  0  0  0
   11.7393  -17.8391   27.6406 O   0  0  0  0  0  0  0  0  0  0  0  0
  2  1  1  6
  3  2  1  0
  4  6  1  0
  4  2  1  0
  4  5  1  6
  6  7  2  0
  9  8  1  1
  9 11  1  0
 10  9  1  0
 12 11  1  1
 13 12  1  0
 13  6  1  0
 14 15  2  0
 14 12  1  0
 16 14  1  0
 17 16  1  0
 17 18  1  6
 19 20  1  0
 19 18  1  0
 20 21  1  0
 21 22  1  0
 23 17  1  0
 23 24  1  0
 25 23  2  0
M  END
$$$$
