TLK.pdb
     RDKit          3D

 25 24  0  0  1  0  0  0  0  0999 V2000
   -2.4726  -28.2983   28.0571 C   0  0  0  0  0  0  0  0  0  0  0  0
   -1.3707  -27.6098   28.7783 C   0  0  1  0  0  0  0  0  0  0  0  0
   -0.1337  -28.0870   28.2962 O   0  0  0  0  0  0  0  0  0  0  0  0
   -1.3607  -26.1251   28.6494 C   0  0  2  0  0  0  0  0  0  0  0  0
   -0.1523  -25.6251   29.2657 N   0  0  0  0  0  0  0  0  0  0  0  0
   -2.5109  -25.4364   29.2120 C   0  0  0  0  0  0  0  0  0  0  0  0
   -2.8357  -25.5131   30.4496 O   0  0  0  0  0  0  0  0  0  0  0  0
   -4.3506  -20.6864   26.8247 C   0  0  0  0  0  0  0  0  0  0  0  0
   -4.0637  -21.7528   27.8143 C   0  0  1  0  0  0  0  0  0  0  0  0
   -4.1210  -21.0831   29.1996 C   0  0  0  0  0  0  0  0  0  0  0  0
   -4.9904  -22.9059   27.8722 C   0  0  0  0  0  0  0  0  0  0  0  0
   -4.5758  -24.0502   28.7599 C   0  0  2  0  0  0  0  0  0  0  0  0
   -3.3280  -24.6348   28.3687 N   0  0  0  0  0  0  0  0  0  0  0  0
   -5.6820  -24.9961   28.8987 C   0  0  0  0  0  0  0  0  0  0  0  0
   -5.9294  -25.8857   28.0440 O   0  0  0  0  0  0  0  0  0  0  0  0
   -6.5429  -24.9476   30.0298 N   0  0  0  0  0  0  0  0  0  0  0  0
   -7.6254  -25.9273   30.2340 C   0  0  1  0  0  0  0  0  0  0  0  0
   -7.1134  -27.1532   30.9057 C   0  0  0  0  0  0  0  0  0  0  0  0
   -8.1744  -28.1469   31.2971 C   0  0  0  0  0  0  0  0  0  0  0  0
   -7.5063  -29.3996   31.8664 C   0  0  0  0  0  0  0  0  0  0  0  0
   -8.6242  -30.3687   32.2134 C   0  0  0  0  0  0  0  0  0  0  0  0
   -8.0933  -31.6071   32.7480 N   0  0  0  0  0  0  0  0  0  0  0  0
   -8.6658  -25.2806   31.0505 C   0  0  0  0  0  0  0  0  0  0  0  0
  -10.0180  -25.5869   30.9979 O   0  0  0  0  0  0  0  0  0  0  0  0
   -8.3492  -24.3590   31.8861 O   0  0  0  0  0  0  0  0  0  0  0  0
  2  1  1  6
  3  2  1  0
  4  6  1  0
  4  2  1  0
  4  5  1  1
  6  7  2  0
  9  8  1  6
  9 11  1  0
 10  9  1  0
 12 11  1  6
 13 12  1  0
 13  6  1  0
 14 15  2  0
 14 12  1  0
 16 14  1  0
 17 16  1  0
 17 18  1  1
 19 20  1  0
 19 18  1  0
 20 21  1  0
 21 22  1  0
 23 17  1  0
 23 24  1  0
 25 23  2  0
M  END
$$$$
