TLK.pdb
     RDKit          3D

 25 24  0  0  1  0  0  0  0  0999 V2000
    8.0429  -19.8290   18.9310 C   0  0  0  0  0  0  0  0  0  0  0  0
    8.7984  -19.4118   17.7212 C   0  0  1  0  0  0  0  0  0  0  0  0
    8.2598  -20.0642   16.5922 O   0  0  0  0  0  0  0  0  0  0  0  0
    8.7875  -17.9478   17.4420 C   0  0  2  0  0  0  0  0  0  0  0  0
    9.4417  -17.7241   16.1723 N   0  0  0  0  0  0  0  0  0  0  0  0
    9.4027  -17.1086   18.4573 C   0  0  0  0  0  0  0  0  0  0  0  0
   10.6703  -17.0422   18.6361 O   0  0  0  0  0  0  0  0  0  0  0  0
    6.5362  -12.6022   20.2679 C   0  0  0  0  0  0  0  0  0  0  0  0
    7.6332  -13.5272   19.8939 C   0  0  1  0  0  0  0  0  0  0  0  0
    8.8641  -12.6458   19.6129 C   0  0  0  0  0  0  0  0  0  0  0  0
    8.0607  -14.5294   20.8962 C   0  0  0  0  0  0  0  0  0  0  0  0
    9.0515  -15.5619   20.4256 C   0  0  2  0  0  0  0  0  0  0  0  0
    8.5794  -16.3158   19.3028 N   0  0  0  0  0  0  0  0  0  0  0  0
    9.5064  -16.3655   21.5591 C   0  0  0  0  0  0  0  0  0  0  0  0
    8.7268  -17.0690   22.2523 O   0  0  0  0  0  0  0  0  0  0  0  0
   10.8784  -16.3846   21.9333 N   0  0  0  0  0  0  0  0  0  0  0  0
   11.3619  -17.1399   23.1034 C   0  0  1  0  0  0  0  0  0  0  0  0
   12.2557  -18.2543   22.6847 C   0  0  0  0  0  0  0  0  0  0  0  0
   11.6677  -19.1797   21.6530 C   0  0  0  0  0  0  0  0  0  0  0  0
   12.6940  -20.2575   21.2993 C   0  0  0  0  0  0  0  0  0  0  0  0
   12.0226  -21.1859   20.3011 C   0  0  0  0  0  0  0  0  0  0  0  0
   12.9258  -22.2381   19.8788 N   0  0  0  0  0  0  0  0  0  0  0  0
   12.0775  -16.1977   23.9794 C   0  0  0  0  0  0  0  0  0  0  0  0
   12.4816  -16.4744   25.2776 O   0  0  0  0  0  0  0  0  0  0  0  0
   12.3709  -15.0214   23.5578 O   0  0  0  0  0  0  0  0  0  0  0  0
  2  1  1  1
  3  2  1  0
  4  6  1  0
  4  2  1  0
  4  5  1  6
  6  7  2  0
  9  8  1  1
  9 11  1  0
 10  9  1  0
 12 11  1  1
 13 12  1  0
 13  6  1  0
 14 15  2  0
 14 12  1  0
 16 14  1  0
 17 16  1  0
 17 18  1  6
 19 20  1  0
 19 18  1  0
 20 21  1  0
 21 22  1  0
 23 17  1  0
 23 24  1  0
 25 23  2  0
M  END
$$$$
