TLK.pdb
     RDKit          3D

 25 24  0  0  1  0  0  0  0  0999 V2000
    8.9307  -19.6573   19.5374 C   0  0  0  0  0  0  0  0  0  0  0  0
    9.8619  -19.4323   18.4014 C   0  0  1  0  0  0  0  0  0  0  0  0
    9.6931  -20.4640   17.4541 O   0  0  0  0  0  0  0  0  0  0  0  0
    9.6885  -18.1349   17.6886 C   0  0  2  0  0  0  0  0  0  0  0  0
   10.4304  -18.1965   16.4492 N   0  0  0  0  0  0  0  0  0  0  0  0
   10.0860  -16.9502   18.4316 C   0  0  0  0  0  0  0  0  0  0  0  0
   10.7304  -15.9763   17.9029 O   0  0  0  0  0  0  0  0  0  0  0  0
    8.8105  -12.4842   20.2028 C   0  0  0  0  0  0  0  0  0  0  0  0
    7.8452  -13.6053   20.3047 C   0  0  1  0  0  0  0  0  0  0  0  0
    6.5928  -13.1690   19.5223 C   0  0  0  0  0  0  0  0  0  0  0  0
    8.2491  -14.9148   19.7446 C   0  0  0  0  0  0  0  0  0  0  0  0
    9.3612  -15.6329   20.4636 C   0  0  2  0  0  0  0  0  0  0  0  0
    9.7553  -16.8452   19.8103 N   0  0  0  0  0  0  0  0  0  0  0  0
    9.0243  -15.7778   21.8789 C   0  0  0  0  0  0  0  0  0  0  0  0
    8.6403  -14.8136   22.5902 O   0  0  0  0  0  0  0  0  0  0  0  0
    9.1198  -17.0419   22.5236 N   0  0  0  0  0  0  0  0  0  0  0  0
   10.1931  -17.3528   23.4851 C   0  0  1  0  0  0  0  0  0  0  0  0
   11.2974  -18.1021   22.8253 C   0  0  0  0  0  0  0  0  0  0  0  0
   10.8738  -19.3728   22.1380 C   0  0  0  0  0  0  0  0  0  0  0  0
   12.1072  -20.0676   21.5583 C   0  0  0  0  0  0  0  0  0  0  0  0
   12.7928  -20.7732   22.7164 C   0  0  0  0  0  0  0  0  0  0  0  0
   13.9022  -21.5819   22.2508 N   0  0  0  0  0  0  0  0  0  0  0  0
   10.6831  -16.0786   24.0360 C   0  0  0  0  0  0  0  0  0  0  0  0
   11.0407  -15.8739   25.3609 O   0  0  0  0  0  0  0  0  0  0  0  0
   10.8046  -15.0518   23.2753 O   0  0  0  0  0  0  0  0  0  0  0  0
  2  1  1  1
  3  2  1  0
  4  6  1  0
  4  2  1  0
  4  5  1  6
  6  7  2  0
  9  8  1  6
  9 11  1  0
 10  9  1  0
 12 11  1  6
 13 12  1  0
 13  6  1  0
 14 15  2  0
 14 12  1  0
 16 14  1  0
 17 16  1  0
 17 18  1  6
 19 20  1  0
 19 18  1  0
 20 21  1  0
 21 22  1  0
 23 17  1  0
 23 24  1  0
 25 23  2  0
M  END
$$$$
