KVW.pdb
     RDKit          3D

 31 32  0  0  1  0  0  0  0  0999 V2000
    8.9433  -18.9890   19.2257 N   0  0  0  0  0  0  0  0  0  0  0  0
   10.2082  -18.3472   19.2507 C   0  0  1  0  0  0  0  0  0  0  0  0
   10.9013  -18.0536   18.0123 C   0  0  0  0  0  0  0  0  0  0  0  0
   10.6309  -18.7432   16.7776 C   0  0  0  0  0  0  0  0  0  0  0  0
    9.4479  -19.1922   16.1158 C   0  0  0  0  0  0  0  0  0  0  0  0
    9.3497  -19.9207   14.8443 C   0  0  0  0  0  0  0  0  0  0  0  0
   10.5033  -20.4611   14.2453 N   0  0  0  0  0  0  0  0  0  0  0  0
   10.1045  -17.1093   20.1447 C   0  0  0  0  0  0  0  0  0  0  0  0
   11.0350  -16.2994   20.1915 O   0  0  0  0  0  0  0  0  0  0  0  0
    7.4866  -13.7391   22.5575 C   0  0  0  0  0  0  0  0  0  0  0  0
    7.5387  -14.9719   21.6762 C   0  0  1  0  0  0  0  0  0  0  0  0
    7.1648  -14.6781   20.2438 C   0  0  0  0  0  0  0  0  0  0  0  0
    8.8227  -15.7339   21.8257 C   0  0  2  0  0  0  0  0  0  0  0  0
    8.9726  -16.8429   20.9340 N   0  0  0  0  0  0  0  0  0  0  0  0
    8.9533  -16.1140   23.2504 C   0  0  0  0  0  0  0  0  0  0  0  0
    8.1586  -16.8863   23.8403 O   0  0  0  0  0  0  0  0  0  0  0  0
   10.0375  -15.5783   23.9958 N   0  0  0  0  0  0  0  0  0  0  0  0
   10.3156  -15.9262   25.3489 C   0  0  1  0  0  0  0  0  0  0  0  0
    9.7871  -14.8690   26.2772 C   0  0  0  0  0  0  0  0  0  0  0  0
    8.3421  -14.6438   26.2372 C   0  0  0  0  0  0  0  0  0  0  0  0
    7.3733  -15.6461   26.0676 C   0  0  0  0  0  0  0  0  0  0  0  0
    6.1993  -15.0089   26.0664 N   0  0  0  0  0  0  0  0  0  0  0  0
    6.3645  -13.6809   26.2233 C   0  0  0  0  0  0  0  0  0  0  0  0
    5.4471  -12.6440   26.2910 C   0  0  0  0  0  0  0  0  0  0  0  0
    5.9095  -11.3613   26.4710 C   0  0  0  0  0  0  0  0  0  0  0  0
    7.2500  -11.0661   26.5869 C   0  0  0  0  0  0  0  0  0  0  0  0
    8.1377  -12.1136   26.5158 C   0  0  0  0  0  0  0  0  0  0  0  0
    7.7290  -13.4146   26.3362 C   0  0  0  0  0  0  0  0  0  0  0  0
    9.8626  -17.2703   25.7337 C   0  0  0  0  0  0  0  0  0  0  0  0
    8.9855  -18.0451   25.0287 O   0  0  0  0  0  0  0  0  0  0  0  0
   10.3245  -17.7483   26.8080 O   0  0  0  0  0  0  0  0  0  0  0  0
  2  1  1  6
  2  3  1  0
  4  5  1  0
  4  3  1  0
  6  5  1  0
  7  6  1  0
  8  2  1  0
  8  9  2  0
 11 10  1  1
 11 12  1  0
 13 14  1  6
 13 11  1  0
 14  8  1  0
 15 13  1  0
 16 15  2  0
 17 15  1  0
 18 17  1  0
 19 20  1  0
 18 19  1  1
 20 28  1  0
 21 22  1  0
 21 20  2  0
 22 23  1  0
 23 28  2  0
 23 24  1  0
 24 25  2  0
 25 26  1  0
 27 26  2  0
 28 27  1  0
 29 18  1  0
 29 30  1  0
 31 29  2  0
M  END
$$$$
