KVW.pdb
     RDKit          3D

 31 32  0  0  1  0  0  0  0  0999 V2000
   10.5480  -16.8708   17.1870 N   0  0  0  0  0  0  0  0  0  0  0  0
   10.6051  -17.6291   18.3845 C   0  0  1  0  0  0  0  0  0  0  0  0
   11.7017  -18.5484   18.6136 C   0  0  0  0  0  0  0  0  0  0  0  0
   12.0946  -19.5558   17.6629 C   0  0  0  0  0  0  0  0  0  0  0  0
   12.3344  -19.5698   16.2552 C   0  0  0  0  0  0  0  0  0  0  0  0
   13.5259  -20.0602   15.5505 C   0  0  0  0  0  0  0  0  0  0  0  0
   13.8535  -21.4290   15.5782 N   0  0  0  0  0  0  0  0  0  0  0  0
   10.4111  -16.6784   19.5682 C   0  0  0  0  0  0  0  0  0  0  0  0
   11.3597  -16.0080   19.9861 O   0  0  0  0  0  0  0  0  0  0  0  0
    7.3422  -14.1524   22.5617 C   0  0  0  0  0  0  0  0  0  0  0  0
    7.5740  -15.0087   21.3321 C   0  0  1  0  0  0  0  0  0  0  0  0
    7.2527  -14.2818   20.0490 C   0  0  0  0  0  0  0  0  0  0  0  0
    8.9209  -15.6702   21.3355 C   0  0  2  0  0  0  0  0  0  0  0  0
    9.1742  -16.5273   20.2180 N   0  0  0  0  0  0  0  0  0  0  0  0
    9.0791  -16.3548   22.6385 C   0  0  0  0  0  0  0  0  0  0  0  0
    8.8750  -17.5817   22.8093 O   0  0  0  0  0  0  0  0  0  0  0  0
    9.4853  -15.5849   23.7611 N   0  0  0  0  0  0  0  0  0  0  0  0
    9.7155  -16.1339   25.0552 C   0  0  1  0  0  0  0  0  0  0  0  0
    9.4558  -15.0988   26.1135 C   0  0  0  0  0  0  0  0  0  0  0  0
    8.0701  -14.6481   26.2441 C   0  0  0  0  0  0  0  0  0  0  0  0
    6.9377  -15.4625   26.0820 C   0  0  0  0  0  0  0  0  0  0  0  0
    5.8897  -14.6539   26.2618 N   0  0  0  0  0  0  0  0  0  0  0  0
    6.2856  -13.3931   26.5249 C   0  0  0  0  0  0  0  0  0  0  0  0
    5.5619  -12.2396   26.7839 C   0  0  0  0  0  0  0  0  0  0  0  0
    6.2442  -11.0722   27.0350 C   0  0  0  0  0  0  0  0  0  0  0  0
    7.6199  -11.0039   27.0391 C   0  0  0  0  0  0  0  0  0  0  0  0
    8.3124  -12.1628   26.7787 C   0  0  0  0  0  0  0  0  0  0  0  0
    7.6799  -13.3567   26.5208 C   0  0  0  0  0  0  0  0  0  0  0  0
    8.9893  -17.3837   25.3206 C   0  0  0  0  0  0  0  0  0  0  0  0
    7.9235  -17.8506   24.6044 O   0  0  0  0  0  0  0  0  0  0  0  0
    9.3855  -18.0847   26.2940 O   0  0  0  0  0  0  0  0  0  0  0  0
  2  1  1  6
  2  3  1  0
  4  5  1  0
  4  3  1  0
  6  5  1  0
  7  6  1  0
  8  2  1  0
  8  9  2  0
 11 10  1  1
 11 12  1  0
 13 14  1  6
 13 11  1  0
 14  8  1  0
 15 13  1  0
 16 15  2  0
 17 15  1  0
 18 17  1  0
 19 20  1  0
 18 19  1  1
 20 28  1  0
 21 22  1  0
 21 20  2  0
 22 23  1  0
 23 28  2  0
 23 24  1  0
 24 25  2  0
 25 26  1  0
 27 26  2  0
 28 27  1  0
 29 18  1  0
 29 30  1  0
 31 29  2  0
M  END
$$$$
