KVW.pdb
     RDKit          3D

 31 32  0  0  1  0  0  0  0  0999 V2000
    5.1348  -18.6468   19.8874 N   0  0  0  0  0  0  0  0  0  0  0  0
    5.0587  -17.4064   20.5716 C   0  0  1  0  0  0  0  0  0  0  0  0
    4.1921  -17.2615   21.7240 C   0  0  0  0  0  0  0  0  0  0  0  0
    2.9716  -18.0075   21.8885 C   0  0  0  0  0  0  0  0  0  0  0  0
    2.6428  -19.3959   21.9464 C   0  0  0  0  0  0  0  0  0  0  0  0
    1.3225  -19.9992   22.1696 C   0  0  0  0  0  0  0  0  0  0  0  0
    1.1893  -21.3968   22.2733 N   0  0  0  0  0  0  0  0  0  0  0  0
    6.4824  -16.9338   20.8751 C   0  0  0  0  0  0  0  0  0  0  0  0
    7.3966  -17.7554   20.9893 O   0  0  0  0  0  0  0  0  0  0  0  0
    8.1364  -13.8716   18.9405 C   0  0  0  0  0  0  0  0  0  0  0  0
    8.3658  -13.7532   20.4346 C   0  0  1  0  0  0  0  0  0  0  0  0
    7.6462  -12.5732   21.0410 C   0  0  0  0  0  0  0  0  0  0  0  0
    8.1311  -15.0464   21.1584 C   0  0  2  0  0  0  0  0  0  0  0  0
    6.8076  -15.5757   21.0330 N   0  0  0  0  0  0  0  0  0  0  0  0
    8.5467  -14.8524   22.5659 C   0  0  0  0  0  0  0  0  0  0  0  0
    8.2722  -13.8279   23.2377 O   0  0  0  0  0  0  0  0  0  0  0  0
    9.2975  -15.8804   23.1964 N   0  0  0  0  0  0  0  0  0  0  0  0
    9.9830  -15.7138   24.4339 C   0  0  1  0  0  0  0  0  0  0  0  0
    9.1345  -16.2117   25.5701 C   0  0  0  0  0  0  0  0  0  0  0  0
    7.9091  -15.4574   25.8344 C   0  0  0  0  0  0  0  0  0  0  0  0
    6.6055  -15.9377   25.6297 C   0  0  0  0  0  0  0  0  0  0  0  0
    5.7978  -14.9299   25.9709 N   0  0  0  0  0  0  0  0  0  0  0  0
    6.5026  -13.8548   26.3744 C   0  0  0  0  0  0  0  0  0  0  0  0
    6.0969  -12.6069   26.8213 C   0  0  0  0  0  0  0  0  0  0  0  0
    7.0552  -11.6900   27.1850 C   0  0  0  0  0  0  0  0  0  0  0  0
    8.4039  -11.9629   27.1225 C   0  0  0  0  0  0  0  0  0  0  0  0
    8.7780  -13.2081   26.6752 C   0  0  0  0  0  0  0  0  0  0  0  0
    7.8611  -14.1617   26.2986 C   0  0  0  0  0  0  0  0  0  0  0  0
   11.3325  -16.2950   24.4615 C   0  0  0  0  0  0  0  0  0  0  0  0
   12.2445  -16.1383   25.4667 O   0  0  0  0  0  0  0  0  0  0  0  0
   11.6769  -16.9991   23.4708 O   0  0  0  0  0  0  0  0  0  0  0  0
  2  1  1  1
  2  3  1  0
  4  5  1  0
  4  3  1  0
  6  5  1  0
  7  6  1  0
  8  2  1  0
  8  9  2  0
 11 10  1  6
 11 12  1  0
 13 14  1  1
 13 11  1  0
 14  8  1  0
 15 13  1  0
 16 15  2  0
 17 15  1  0
 18 17  1  0
 19 20  1  0
 18 19  1  1
 20 28  1  0
 21 22  1  0
 21 20  2  0
 22 23  1  0
 23 28  2  0
 23 24  1  0
 24 25  2  0
 25 26  1  0
 27 26  2  0
 28 27  1  0
 29 18  1  0
 29 30  1  0
 31 29  2  0
M  END
$$$$
