KVW.pdb
     RDKit          3D

 31 32  0  0  1  0  0  0  0  0999 V2000
    8.0995  -19.2983   20.6652 N   0  0  0  0  0  0  0  0  0  0  0  0
    9.2624  -18.8334   19.9989 C   0  0  1  0  0  0  0  0  0  0  0  0
    9.3870  -18.9795   18.5625 C   0  0  0  0  0  0  0  0  0  0  0  0
    8.9727  -20.1623   17.8538 C   0  0  0  0  0  0  0  0  0  0  0  0
    8.6297  -20.4531   16.4984 C   0  0  0  0  0  0  0  0  0  0  0  0
    8.1283  -21.7196   15.9491 C   0  0  0  0  0  0  0  0  0  0  0  0
    8.4707  -22.9419   16.5576 N   0  0  0  0  0  0  0  0  0  0  0  0
    9.5312  -17.3938   20.4435 C   0  0  0  0  0  0  0  0  0  0  0  0
   10.5349  -16.7984   20.0408 O   0  0  0  0  0  0  0  0  0  0  0  0
    7.7462  -13.1143   22.1913 C   0  0  0  0  0  0  0  0  0  0  0  0
    7.5545  -14.5214   21.6601 C   0  0  1  0  0  0  0  0  0  0  0  0
    6.8629  -14.5468   20.3189 C   0  0  0  0  0  0  0  0  0  0  0  0
    8.8154  -15.3334   21.7097 C   0  0  2  0  0  0  0  0  0  0  0  0
    8.6688  -16.6993   21.3090 N   0  0  0  0  0  0  0  0  0  0  0  0
    9.3888  -15.1858   23.0665 C   0  0  0  0  0  0  0  0  0  0  0  0
    9.8214  -14.1000   23.5248 O   0  0  0  0  0  0  0  0  0  0  0  0
    9.4544  -16.3338   23.9007 N   0  0  0  0  0  0  0  0  0  0  0  0
    9.9813  -16.3208   25.2240 C   0  0  1  0  0  0  0  0  0  0  0  0
    8.8822  -16.5467   26.2240 C   0  0  0  0  0  0  0  0  0  0  0  0
    7.6925  -15.7091   26.0702 C   0  0  0  0  0  0  0  0  0  0  0  0
    6.4520  -16.1508   25.5824 C   0  0  0  0  0  0  0  0  0  0  0  0
    5.6647  -15.0716   25.5848 N   0  0  0  0  0  0  0  0  0  0  0  0
    6.3236  -13.9877   26.0392 C   0  0  0  0  0  0  0  0  0  0  0  0
    5.9151  -12.6759   26.2227 C   0  0  0  0  0  0  0  0  0  0  0  0
    6.8162  -11.7656   26.7233 C   0  0  0  0  0  0  0  0  0  0  0  0
    8.1102  -12.1063   27.0500 C   0  0  0  0  0  0  0  0  0  0  0  0
    8.4886  -13.4140   26.8575 C   0  0  0  0  0  0  0  0  0  0  0  0
    7.6279  -14.3642   26.3595 C   0  0  0  0  0  0  0  0  0  0  0  0
   11.1113  -17.2365   25.4348 C   0  0  0  0  0  0  0  0  0  0  0  0
   11.9332  -17.2458   26.5262 O   0  0  0  0  0  0  0  0  0  0  0  0
   11.3408  -18.0864   24.5289 O   0  0  0  0  0  0  0  0  0  0  0  0
  2  1  1  6
  2  3  1  0
  4  5  1  0
  4  3  1  0
  6  5  1  0
  7  6  1  0
  8  2  1  0
  8  9  2  0
 11 10  1  6
 11 12  1  0
 13 14  1  1
 13 11  1  0
 14  8  1  0
 15 13  1  0
 16 15  2  0
 17 15  1  0
 18 17  1  0
 19 20  1  0
 18 19  1  1
 20 28  1  0
 21 22  1  0
 21 20  2  0
 22 23  1  0
 23 28  2  0
 23 24  1  0
 24 25  2  0
 25 26  1  0
 27 26  2  0
 28 27  1  0
 29 18  1  0
 29 30  1  0
 31 29  2  0
M  END
$$$$
