KVW.pdb
     RDKit          3D

 31 32  0  0  1  0  0  0  0  0999 V2000
    5.5549  -17.2824   21.0617 N   0  0  0  0  0  0  0  0  0  0  0  0
    6.6852  -16.4363   20.9237 C   0  0  1  0  0  0  0  0  0  0  0  0
    6.5225  -14.9964   20.9261 C   0  0  0  0  0  0  0  0  0  0  0  0
    7.5066  -14.0932   20.3888 C   0  0  0  0  0  0  0  0  0  0  0  0
    8.0568  -13.8629   19.0913 C   0  0  0  0  0  0  0  0  0  0  0  0
    7.8055  -12.7259   18.1963 C   0  0  0  0  0  0  0  0  0  0  0  0
    8.8702  -11.9097   17.7700 N   0  0  0  0  0  0  0  0  0  0  0  0
    7.7495  -16.8841   21.9283 C   0  0  0  0  0  0  0  0  0  0  0  0
    7.4289  -17.1625   23.0875 O   0  0  0  0  0  0  0  0  0  0  0  0
   12.5326  -18.1996   22.7306 C   0  0  0  0  0  0  0  0  0  0  0  0
   11.4462  -17.7785   21.7604 C   0  0  1  0  0  0  0  0  0  0  0  0
   11.3193  -18.7186   20.5866 C   0  0  0  0  0  0  0  0  0  0  0  0
   10.1445  -17.4817   22.4455 C   0  0  2  0  0  0  0  0  0  0  0  0
    9.1079  -16.9974   21.5861 N   0  0  0  0  0  0  0  0  0  0  0  0
   10.4324  -16.5711   23.5765 C   0  0  0  0  0  0  0  0  0  0  0  0
   10.8368  -15.3911   23.4343 O   0  0  0  0  0  0  0  0  0  0  0  0
   10.2409  -17.0544   24.8986 N   0  0  0  0  0  0  0  0  0  0  0  0
   10.6216  -16.3340   26.0670 C   0  0  1  0  0  0  0  0  0  0  0  0
   10.0118  -14.9604   26.0532 C   0  0  0  0  0  0  0  0  0  0  0  0
    8.5603  -14.9008   26.2261 C   0  0  0  0  0  0  0  0  0  0  0  0
    7.6826  -15.9845   26.0610 C   0  0  0  0  0  0  0  0  0  0  0  0
    6.4622  -15.4910   26.2876 N   0  0  0  0  0  0  0  0  0  0  0  0
    6.5140  -14.1774   26.5828 C   0  0  0  0  0  0  0  0  0  0  0  0
    5.5159  -13.2668   26.8932 C   0  0  0  0  0  0  0  0  0  0  0  0
    5.8682  -11.9660   27.1676 C   0  0  0  0  0  0  0  0  0  0  0  0
    7.1753  -11.5318   27.1462 C   0  0  0  0  0  0  0  0  0  0  0  0
    8.1446  -12.4559   26.8349 C   0  0  0  0  0  0  0  0  0  0  0  0
    7.8471  -13.7686   26.5518 C   0  0  0  0  0  0  0  0  0  0  0  0
   10.3542  -17.0402   27.3277 C   0  0  0  0  0  0  0  0  0  0  0  0
   10.7497  -16.6277   28.5687 O   0  0  0  0  0  0  0  0  0  0  0  0
    9.7031  -18.1204   27.2560 O   0  0  0  0  0  0  0  0  0  0  0  0
  2  1  1  1
  2  3  1  0
  4  5  1  0
  4  3  1  0
  6  5  1  0
  7  6  1  0
  8  2  1  0
  8  9  2  0
 11 10  1  1
 11 12  1  0
 13 14  1  6
 13 11  1  0
 14  8  1  0
 15 13  1  0
 16 15  2  0
 17 15  1  0
 18 17  1  0
 19 20  1  0
 18 19  1  1
 20 28  1  0
 21 22  1  0
 21 20  2  0
 22 23  1  0
 23 28  2  0
 23 24  1  0
 24 25  2  0
 25 26  1  0
 27 26  2  0
 28 27  1  0
 29 18  1  0
 29 30  1  0
 31 29  2  0
M  END
$$$$
