KVW.pdb
     RDKit          3D

 31 32  0  0  1  0  0  0  0  0999 V2000
    6.5930  -17.0803   21.1596 N   0  0  0  0  0  0  0  0  0  0  0  0
    7.7244  -16.2640   21.4165 C   0  0  1  0  0  0  0  0  0  0  0  0
    7.5787  -14.8254   21.5124 C   0  0  0  0  0  0  0  0  0  0  0  0
    7.4225  -13.9727   20.3628 C   0  0  0  0  0  0  0  0  0  0  0  0
    8.1879  -13.7274   19.1824 C   0  0  0  0  0  0  0  0  0  0  0  0
    7.8771  -12.8024   18.0848 C   0  0  0  0  0  0  0  0  0  0  0  0
    8.7292  -12.7152   16.9677 N   0  0  0  0  0  0  0  0  0  0  0  0
    8.4686  -16.8361   22.6254 C   0  0  0  0  0  0  0  0  0  0  0  0
    7.8466  -17.4285   23.5121 O   0  0  0  0  0  0  0  0  0  0  0  0
   12.7755  -18.2574   24.6808 C   0  0  0  0  0  0  0  0  0  0  0  0
   12.0328  -17.6403   23.5119 C   0  0  1  0  0  0  0  0  0  0  0  0
   12.1431  -18.4651   22.2528 C   0  0  0  0  0  0  0  0  0  0  0  0
   10.6267  -17.2509   23.8627 C   0  0  2  0  0  0  0  0  0  0  0  0
    9.8606  -16.7177   22.7781 N   0  0  0  0  0  0  0  0  0  0  0  0
   10.6928  -16.3407   25.0282 C   0  0  0  0  0  0  0  0  0  0  0  0
   11.2842  -15.2334   25.0137 O   0  0  0  0  0  0  0  0  0  0  0  0
   10.0519  -16.7373   26.2324 N   0  0  0  0  0  0  0  0  0  0  0  0
   10.1449  -16.0111   27.4542 C   0  0  1  0  0  0  0  0  0  0  0  0
    8.7721  -15.7153   27.9897 C   0  0  0  0  0  0  0  0  0  0  0  0
    7.7881  -15.2507   27.0117 C   0  0  0  0  0  0  0  0  0  0  0  0
    6.8379  -16.0642   26.3736 C   0  0  0  0  0  0  0  0  0  0  0  0
    6.1674  -15.2509   25.5532 N   0  0  0  0  0  0  0  0  0  0  0  0
    6.6297  -13.9878   25.6329 C   0  0  0  0  0  0  0  0  0  0  0  0
    6.2404  -12.8258   24.9850 C   0  0  0  0  0  0  0  0  0  0  0  0
    6.8967  -11.6531   25.2771 C   0  0  0  0  0  0  0  0  0  0  0  0
    7.9270  -11.5875   26.1890 C   0  0  0  0  0  0  0  0  0  0  0  0
    8.2927  -12.7550   26.8164 C   0  0  0  0  0  0  0  0  0  0  0  0
    7.6703  -13.9547   26.5610 C   0  0  0  0  0  0  0  0  0  0  0  0
   11.0054  -16.6381   28.4672 C   0  0  0  0  0  0  0  0  0  0  0  0
   11.5607  -17.8832   28.3772 O   0  0  0  0  0  0  0  0  0  0  0  0
   11.2514  -15.9675   29.5092 O   0  0  0  0  0  0  0  0  0  0  0  0
  2  1  1  1
  2  3  1  0
  4  5  1  0
  4  3  1  0
  6  5  1  0
  7  6  1  0
  8  2  1  0
  8  9  2  0
 11 10  1  1
 11 12  1  0
 13 14  1  6
 13 11  1  0
 14  8  1  0
 15 13  1  0
 16 15  2  0
 17 15  1  0
 18 17  1  0
 19 20  1  0
 18 19  1  1
 20 28  1  0
 21 22  1  0
 21 20  2  0
 22 23  1  0
 23 28  2  0
 23 24  1  0
 24 25  2  0
 25 26  1  0
 27 26  2  0
 28 27  1  0
 29 18  1  0
 29 30  1  0
 31 29  2  0
M  END
$$$$
