KVW.pdb
     RDKit          3D

 31 32  0  0  1  0  0  0  0  0999 V2000
    8.0434  -18.7864   18.2042 N   0  0  0  0  0  0  0  0  0  0  0  0
    7.5231  -18.4345   19.4761 C   0  0  1  0  0  0  0  0  0  0  0  0
    7.3701  -19.4430   20.5055 C   0  0  0  0  0  0  0  0  0  0  0  0
    6.7957  -20.7395   20.2566 C   0  0  0  0  0  0  0  0  0  0  0  0
    7.3129  -22.0678   20.1703 C   0  0  0  0  0  0  0  0  0  0  0  0
    6.9649  -23.2247   21.0055 C   0  0  0  0  0  0  0  0  0  0  0  0
    7.6410  -23.4527   22.2190 N   0  0  0  0  0  0  0  0  0  0  0  0
    8.2914  -17.2155   19.9922 C   0  0  0  0  0  0  0  0  0  0  0  0
    9.5258  -17.2219   20.0064 O   0  0  0  0  0  0  0  0  0  0  0  0
    8.3612  -12.3852   21.1468 C   0  0  0  0  0  0  0  0  0  0  0  0
    7.6118  -13.5941   20.6219 C   0  0  1  0  0  0  0  0  0  0  0  0
    7.2431  -13.4612   19.1644 C   0  0  0  0  0  0  0  0  0  0  0  0
    8.2930  -14.8872   20.9616 C   0  0  2  0  0  0  0  0  0  0  0  0
    7.6434  -16.0601   20.4615 N   0  0  0  0  0  0  0  0  0  0  0  0
    8.4917  -14.9157   22.4283 C   0  0  0  0  0  0  0  0  0  0  0  0
    7.6850  -14.4152   23.2497 O   0  0  0  0  0  0  0  0  0  0  0  0
    9.6587  -15.5440   22.9398 N   0  0  0  0  0  0  0  0  0  0  0  0
   10.0561  -15.4818   24.3063 C   0  0  1  0  0  0  0  0  0  0  0  0
    9.0429  -16.1730   25.1749 C   0  0  0  0  0  0  0  0  0  0  0  0
    7.8540  -15.3929   25.5193 C   0  0  0  0  0  0  0  0  0  0  0  0
    6.5309  -15.8538   25.4252 C   0  0  0  0  0  0  0  0  0  0  0  0
    5.7686  -14.8263   25.8092 N   0  0  0  0  0  0  0  0  0  0  0  0
    6.5199  -13.7568   26.1369 C   0  0  0  0  0  0  0  0  0  0  0  0
    6.1703  -12.4946   26.5908 C   0  0  0  0  0  0  0  0  0  0  0  0
    7.1687  -11.5884   26.8620 C   0  0  0  0  0  0  0  0  0  0  0  0
    8.5038  -11.8860   26.7003 C   0  0  0  0  0  0  0  0  0  0  0  0
    8.8219  -13.1450   26.2485 C   0  0  0  0  0  0  0  0  0  0  0  0
    7.8632  -14.0887   25.9618 C   0  0  0  0  0  0  0  0  0  0  0  0
   11.4198  -15.9658   24.5628 C   0  0  0  0  0  0  0  0  0  0  0  0
   12.0808  -15.8832   25.7557 O   0  0  0  0  0  0  0  0  0  0  0  0
   12.0314  -16.5036   23.5971 O   0  0  0  0  0  0  0  0  0  0  0  0
  2  1  1  6
  2  3  1  0
  4  5  1  0
  4  3  1  0
  6  5  1  0
  7  6  1  0
  8  2  1  0
  8  9  2  0
 11 10  1  6
 11 12  1  0
 13 14  1  1
 13 11  1  0
 14  8  1  0
 15 13  1  0
 16 15  2  0
 17 15  1  0
 18 17  1  0
 19 20  1  0
 18 19  1  1
 20 28  1  0
 21 22  1  0
 21 20  2  0
 22 23  1  0
 23 28  2  0
 23 24  1  0
 24 25  2  0
 25 26  1  0
 27 26  2  0
 28 27  1  0
 29 18  1  0
 29 30  1  0
 31 29  2  0
M  END
$$$$
