KVW.pdb
     RDKit          3D

 31 32  0  0  1  0  0  0  0  0999 V2000
    7.4609  -19.7823   19.9229 N   0  0  0  0  0  0  0  0  0  0  0  0
    6.8996  -18.8524   20.8354 C   0  0  1  0  0  0  0  0  0  0  0  0
    6.3973  -19.3022   22.1182 C   0  0  0  0  0  0  0  0  0  0  0  0
    5.4384  -20.3672   22.2573 C   0  0  0  0  0  0  0  0  0  0  0  0
    4.3802  -20.8787   21.4462 C   0  0  0  0  0  0  0  0  0  0  0  0
    3.3070  -21.7994   21.8430 C   0  0  0  0  0  0  0  0  0  0  0  0
    3.6075  -23.1273   22.2007 N   0  0  0  0  0  0  0  0  0  0  0  0
    7.8722  -17.6810   20.9912 C   0  0  0  0  0  0  0  0  0  0  0  0
    9.0678  -17.8940   21.2135 O   0  0  0  0  0  0  0  0  0  0  0  0
    6.3430  -13.6088   20.9763 C   0  0  0  0  0  0  0  0  0  0  0  0
    7.7724  -13.9105   20.5708 C   0  0  1  0  0  0  0  0  0  0  0  0
    8.6969  -12.7368   20.7843 C   0  0  0  0  0  0  0  0  0  0  0  0
    8.2781  -15.1972   21.1542 C   0  0  2  0  0  0  0  0  0  0  0  0
    7.4601  -16.3412   20.8901 N   0  0  0  0  0  0  0  0  0  0  0  0
    8.5105  -14.9719   22.5986 C   0  0  0  0  0  0  0  0  0  0  0  0
    7.8885  -14.1197   23.2790 O   0  0  0  0  0  0  0  0  0  0  0  0
    9.4906  -15.7623   23.2565 N   0  0  0  0  0  0  0  0  0  0  0  0
   10.0753  -15.4167   24.5086 C   0  0  1  0  0  0  0  0  0  0  0  0
    9.2378  -15.9474   25.6382 C   0  0  0  0  0  0  0  0  0  0  0  0
    7.9100  -15.3515   25.7876 C   0  0  0  0  0  0  0  0  0  0  0  0
    6.6974  -16.0008   25.5051 C   0  0  0  0  0  0  0  0  0  0  0  0
    5.7447  -15.0979   25.7531 N   0  0  0  0  0  0  0  0  0  0  0  0
    6.2745  -13.9314   26.1705 C   0  0  0  0  0  0  0  0  0  0  0  0
    5.6808  -12.7361   26.5449 C   0  0  0  0  0  0  0  0  0  0  0  0
    6.4845  -11.6947   26.9463 C   0  0  0  0  0  0  0  0  0  0  0  0
    7.8577  -11.7928   26.9908 C   0  0  0  0  0  0  0  0  0  0  0  0
    8.4198  -12.9895   26.6137 C   0  0  0  0  0  0  0  0  0  0  0  0
    7.6627  -14.0621   26.2036 C   0  0  0  0  0  0  0  0  0  0  0  0
   11.4870  -15.8019   24.6446 C   0  0  0  0  0  0  0  0  0  0  0  0
   12.2019  -16.5324   23.7379 O   0  0  0  0  0  0  0  0  0  0  0  0
   12.0891  -15.4248   25.6892 O   0  0  0  0  0  0  0  0  0  0  0  0
  2  1  1  1
  2  3  1  0
  4  5  1  0
  4  3  1  0
  6  5  1  0
  7  6  1  0
  8  2  1  0
  8  9  2  0
 11 10  1  1
 11 12  1  0
 13 14  1  1
 13 11  1  0
 14  8  1  0
 15 13  1  0
 16 15  2  0
 17 15  1  0
 18 17  1  0
 19 20  1  0
 18 19  1  1
 20 28  1  0
 21 22  1  0
 21 20  2  0
 22 23  1  0
 23 28  2  0
 23 24  1  0
 24 25  2  0
 25 26  1  0
 27 26  2  0
 28 27  1  0
 29 18  1  0
 29 30  1  0
 31 29  2  0
M  END
$$$$
