KVW.pdb
     RDKit          3D

 31 32  0  0  1  0  0  0  0  0999 V2000
    8.5459  -18.9474   18.6358 N   0  0  0  0  0  0  0  0  0  0  0  0
    8.0824  -18.4726   19.8897 C   0  0  1  0  0  0  0  0  0  0  0  0
    7.9827  -19.3750   21.0192 C   0  0  0  0  0  0  0  0  0  0  0  0
    7.4261  -20.6991   20.9209 C   0  0  0  0  0  0  0  0  0  0  0  0
    7.8253  -21.9118   20.2811 C   0  0  0  0  0  0  0  0  0  0  0  0
    7.1787  -23.2279   20.3642 C   0  0  0  0  0  0  0  0  0  0  0  0
    6.0258  -23.5013   19.6041 N   0  0  0  0  0  0  0  0  0  0  0  0
    8.8662  -17.2077   20.2473 C   0  0  0  0  0  0  0  0  0  0  0  0
   10.0970  -17.1942   20.1524 O   0  0  0  0  0  0  0  0  0  0  0  0
    7.5537  -13.3818   19.4465 C   0  0  0  0  0  0  0  0  0  0  0  0
    8.0584  -13.5723   20.8635 C   0  0  1  0  0  0  0  0  0  0  0  0
    6.9610  -13.4499   21.8924 C   0  0  0  0  0  0  0  0  0  0  0  0
    8.8996  -14.8056   21.0151 C   0  0  2  0  0  0  0  0  0  0  0  0
    8.2369  -16.0311   20.6885 N   0  0  0  0  0  0  0  0  0  0  0  0
    9.4612  -14.7977   22.3848 C   0  0  0  0  0  0  0  0  0  0  0  0
   10.1883  -13.8779   22.8335 O   0  0  0  0  0  0  0  0  0  0  0  0
    9.1628  -15.8893   23.2435 N   0  0  0  0  0  0  0  0  0  0  0  0
    9.7513  -16.0688   24.5283 C   0  0  1  0  0  0  0  0  0  0  0  0
    8.7038  -16.4680   25.5293 C   0  0  0  0  0  0  0  0  0  0  0  0
    7.5965  -15.5288   25.7089 C   0  0  0  0  0  0  0  0  0  0  0  0
    6.2586  -15.7831   25.3664 C   0  0  0  0  0  0  0  0  0  0  0  0
    5.5951  -14.6645   25.6708 N   0  0  0  0  0  0  0  0  0  0  0  0
    6.4217  -13.7297   26.1791 C   0  0  0  0  0  0  0  0  0  0  0  0
    6.1814  -12.4429   26.6350 C   0  0  0  0  0  0  0  0  0  0  0  0
    7.2353  -11.7048   27.1208 C   0  0  0  0  0  0  0  0  0  0  0  0
    8.5218  -12.1945   27.1722 C   0  0  0  0  0  0  0  0  0  0  0  0
    8.7315  -13.4734   26.7131 C   0  0  0  0  0  0  0  0  0  0  0  0
    7.7136  -14.2540   26.2168 C   0  0  0  0  0  0  0  0  0  0  0  0
   10.9022  -16.9825   24.5447 C   0  0  0  0  0  0  0  0  0  0  0  0
   11.7288  -17.1998   25.6106 O   0  0  0  0  0  0  0  0  0  0  0  0
   11.1466  -17.6203   23.4820 O   0  0  0  0  0  0  0  0  0  0  0  0
  2  1  1  6
  2  3  1  0
  4  5  1  0
  4  3  1  0
  6  5  1  0
  7  6  1  0
  8  2  1  0
  8  9  2  0
 11 10  1  6
 11 12  1  0
 13 14  1  1
 13 11  1  0
 14  8  1  0
 15 13  1  0
 16 15  2  0
 17 15  1  0
 18 17  1  0
 19 20  1  0
 18 19  1  1
 20 28  1  0
 21 22  1  0
 21 20  2  0
 22 23  1  0
 23 28  2  0
 23 24  1  0
 24 25  2  0
 25 26  1  0
 27 26  2  0
 28 27  1  0
 29 18  1  0
 29 30  1  0
 31 29  2  0
M  END
$$$$
