KVW.pdb
     RDKit          3D

 31 32  0  0  1  0  0  0  0  0999 V2000
   10.3761  -15.1587   18.9780 N   0  0  0  0  0  0  0  0  0  0  0  0
    9.5940  -14.5003   19.9614 C   0  0  1  0  0  0  0  0  0  0  0  0
    8.3789  -13.8072   19.5827 C   0  0  0  0  0  0  0  0  0  0  0  0
    8.1012  -13.3876   18.2337 C   0  0  0  0  0  0  0  0  0  0  0  0
    7.3638  -13.9384   17.1418 C   0  0  0  0  0  0  0  0  0  0  0  0
    7.0856  -13.3179   15.8400 C   0  0  0  0  0  0  0  0  0  0  0  0
    7.6247  -13.8685   14.6620 N   0  0  0  0  0  0  0  0  0  0  0  0
    9.3496  -15.4743   21.1163 C   0  0  0  0  0  0  0  0  0  0  0  0
    8.2138  -15.6132   21.5796 O   0  0  0  0  0  0  0  0  0  0  0  0
   10.7659  -19.3095   21.5199 C   0  0  0  0  0  0  0  0  0  0  0  0
   11.1283  -18.3826   22.6637 C   0  0  1  0  0  0  0  0  0  0  0  0
   12.5980  -18.0401   22.6904 C   0  0  0  0  0  0  0  0  0  0  0  0
   10.2238  -17.1882   22.7470 C   0  0  2  0  0  0  0  0  0  0  0  0
   10.3812  -16.2380   21.6887 N   0  0  0  0  0  0  0  0  0  0  0  0
   10.3938  -16.5920   24.0912 C   0  0  0  0  0  0  0  0  0  0  0  0
   11.1907  -15.6546   24.3411 O   0  0  0  0  0  0  0  0  0  0  0  0
    9.6131  -17.1051   25.1614 N   0  0  0  0  0  0  0  0  0  0  0  0
    9.6350  -16.5727   26.4825 C   0  0  1  0  0  0  0  0  0  0  0  0
    8.2331  -16.3698   26.9851 C   0  0  0  0  0  0  0  0  0  0  0  0
    7.3718  -15.5229   26.1597 C   0  0  0  0  0  0  0  0  0  0  0  0
    6.4307  -15.9925   25.2292 C   0  0  0  0  0  0  0  0  0  0  0  0
    5.8896  -14.8978   24.6878 N   0  0  0  0  0  0  0  0  0  0  0  0
    6.4242  -13.7781   25.2131 C   0  0  0  0  0  0  0  0  0  0  0  0
    6.1701  -12.4377   24.9678 C   0  0  0  0  0  0  0  0  0  0  0  0
    6.8730  -11.4902   25.6747 C   0  0  0  0  0  0  0  0  0  0  0  0
    7.8207  -11.8211   26.6180 C   0  0  0  0  0  0  0  0  0  0  0  0
    8.0528  -13.1578   26.8407 C   0  0  0  0  0  0  0  0  0  0  0  0
    7.3787  -14.1457   26.1614 C   0  0  0  0  0  0  0  0  0  0  0  0
   10.4520  -17.3417   27.4317 C   0  0  0  0  0  0  0  0  0  0  0  0
   10.7874  -16.9441   28.6950 O   0  0  0  0  0  0  0  0  0  0  0  0
   10.8798  -18.4657   27.0448 O   0  0  0  0  0  0  0  0  0  0  0  0
  2  1  1  6
  2  3  1  0
  4  5  1  0
  4  3  1  0
  6  5  1  0
  7  6  1  0
  8  2  1  0
  8  9  2  0
 11 10  1  6
 11 12  1  0
 13 14  1  6
 13 11  1  0
 14  8  1  0
 15 13  1  0
 16 15  2  0
 17 15  1  0
 18 17  1  0
 19 20  1  0
 18 19  1  1
 20 28  1  0
 21 22  1  0
 21 20  2  0
 22 23  1  0
 23 28  2  0
 23 24  1  0
 24 25  2  0
 25 26  1  0
 27 26  2  0
 28 27  1  0
 29 18  1  0
 29 30  1  0
 31 29  2  0
M  END
$$$$
