KVW.pdb
     RDKit          3D

 31 32  0  0  1  0  0  0  0  0999 V2000
    7.5929  -18.2742   18.5533 N   0  0  0  0  0  0  0  0  0  0  0  0
    8.9106  -18.2718   19.0785 C   0  0  1  0  0  0  0  0  0  0  0  0
    9.9838  -18.9270   18.3580 C   0  0  0  0  0  0  0  0  0  0  0  0
    9.7630  -20.0005   17.4243 C   0  0  0  0  0  0  0  0  0  0  0  0
    9.2418  -20.0869   16.0976 C   0  0  0  0  0  0  0  0  0  0  0  0
    9.2367  -21.2549   15.2073 C   0  0  0  0  0  0  0  0  0  0  0  0
    8.3845  -22.3440   15.4706 N   0  0  0  0  0  0  0  0  0  0  0  0
    9.2793  -16.8342   19.4523 C   0  0  0  0  0  0  0  0  0  0  0  0
   10.3774  -16.3722   19.1286 O   0  0  0  0  0  0  0  0  0  0  0  0
    7.9187  -12.2677   20.7560 C   0  0  0  0  0  0  0  0  0  0  0  0
    7.6479  -13.6409   20.1731 C   0  0  1  0  0  0  0  0  0  0  0  0
    7.3645  -13.5974   18.6913 C   0  0  0  0  0  0  0  0  0  0  0  0
    8.6885  -14.6489   20.5641 C   0  0  2  0  0  0  0  0  0  0  0  0
    8.4060  -15.9932   20.1631 N   0  0  0  0  0  0  0  0  0  0  0  0
    8.9158  -14.5142   22.0206 C   0  0  0  0  0  0  0  0  0  0  0  0
    8.3334  -13.6664   22.7405 O   0  0  0  0  0  0  0  0  0  0  0  0
    9.8433  -15.3917   22.6435 N   0  0  0  0  0  0  0  0  0  0  0  0
    9.8728  -15.6464   24.0447 C   0  0  1  0  0  0  0  0  0  0  0  0
    8.5026  -16.0232   24.5341 C   0  0  0  0  0  0  0  0  0  0  0  0
    8.0041  -15.2730   25.6870 C   0  0  0  0  0  0  0  0  0  0  0  0
    7.9014  -15.7758   26.9942 C   0  0  0  0  0  0  0  0  0  0  0  0
    7.3826  -14.7803   27.7181 N   0  0  0  0  0  0  0  0  0  0  0  0
    7.1542  -13.6916   26.9578 C   0  0  0  0  0  0  0  0  0  0  0  0
    6.6424  -12.4428   27.2740 C   0  0  0  0  0  0  0  0  0  0  0  0
    6.5297  -11.5016   26.2776 C   0  0  0  0  0  0  0  0  0  0  0  0
    6.9058  -11.7512   24.9762 C   0  0  0  0  0  0  0  0  0  0  0  0
    7.4097  -12.9982   24.6906 C   0  0  0  0  0  0  0  0  0  0  0  0
    7.5431  -13.9759   25.6488 C   0  0  0  0  0  0  0  0  0  0  0  0
   10.8912  -16.6203   24.4618 C   0  0  0  0  0  0  0  0  0  0  0  0
   11.4943  -16.6637   25.6870 O   0  0  0  0  0  0  0  0  0  0  0  0
   11.2374  -17.4907   23.6140 O   0  0  0  0  0  0  0  0  0  0  0  0
  2  1  1  6
  2  3  1  0
  4  5  1  0
  4  3  1  0
  6  5  1  0
  7  6  1  0
  8  2  1  0
  8  9  2  0
 11 10  1  6
 11 12  1  0
 13 14  1  1
 13 11  1  0
 14  8  1  0
 15 13  1  0
 16 15  2  0
 17 15  1  0
 18 17  1  0
 19 20  1  0
 18 19  1  6
 20 28  1  0
 21 22  1  0
 21 20  2  0
 22 23  1  0
 23 28  2  0
 23 24  1  0
 24 25  2  0
 25 26  1  0
 27 26  2  0
 28 27  1  0
 29 18  1  0
 29 30  1  0
 31 29  2  0
M  END
$$$$
