WEG.pdb
     RDKit          3D

 28 29  0  0  1  0  0  0  0  0999 V2000
    6.5431  -18.1675   24.7700 N   0  0  0  0  0  0  0  0  0  0  0  0
    7.0325  -16.8516   24.4613 C   0  0  1  0  0  0  0  0  0  0  0  0
    7.6468  -16.1674   25.6508 C   0  0  0  0  0  0  0  0  0  0  0  0
    6.8488  -15.0295   26.1589 C   0  0  0  0  0  0  0  0  0  0  0  0
    5.5332  -15.0298   26.5900 C   0  0  0  0  0  0  0  0  0  0  0  0
    5.1927  -13.7717   26.9442 N   0  0  0  0  0  0  0  0  0  0  0  0
    6.2452  -12.9511   26.7581 C   0  0  0  0  0  0  0  0  0  0  0  0
    6.3958  -11.6070   26.9743 C   0  0  0  0  0  0  0  0  0  0  0  0
    7.5849  -10.9967   26.7103 C   0  0  0  0  0  0  0  0  0  0  0  0
    8.6369  -11.7314   26.2259 C   0  0  0  0  0  0  0  0  0  0  0  0
    8.4822  -13.0720   26.0115 C   0  0  0  0  0  0  0  0  0  0  0  0
    7.2923  -13.7309   26.2651 C   0  0  0  0  0  0  0  0  0  0  0  0
    7.9705  -16.8604   23.2903 C   0  0  0  0  0  0  0  0  0  0  0  0
    8.8508  -17.7767   23.1792 O   0  0  0  0  0  0  0  0  0  0  0  0
    7.8443  -15.8289   22.3245 N   0  0  0  0  0  0  0  0  0  0  0  0
    8.9145  -15.6671   21.3180 C   0  0  1  0  0  0  0  0  0  0  0  0
    8.5425  -14.5130   20.4287 C   0  0  0  0  0  0  0  0  0  0  0  0
    7.3723  -14.7012   19.5498 C   0  0  0  0  0  0  0  0  0  0  0  0
    7.8024  -15.5331   18.3693 C   0  0  0  0  0  0  0  0  0  0  0  0
    8.9399  -16.0379   18.2997 O   0  0  0  0  0  0  0  0  0  0  0  0
   10.1865  -15.3205   21.9919 C   0  0  0  0  0  0  0  0  0  0  0  0
   10.2259  -14.3430   22.7754 O   0  0  0  0  0  0  0  0  0  0  0  0
    6.9220  -15.7461   17.3362 O   0  0  0  0  0  0  0  0  0  0  0  0
   11.4123  -16.0357   21.8146 N   0  0  0  0  0  0  0  0  0  0  0  0
   12.6442  -15.6584   22.4393 C   0  0  0  0  0  0  0  0  0  0  0  0
   13.7488  -16.6166   22.2393 C   0  0  0  0  0  0  0  0  0  0  0  0
   14.9846  -16.2875   22.8088 O   0  0  0  0  0  0  0  0  0  0  0  0
   13.6845  -17.6850   21.6145 O   0  0  0  0  0  0  0  0  0  0  0  0
  2  1  1  1
  2  3  1  0
  2 13  1  0
  3  4  1  0
  4  5  2  0
  5  6  1  0
  7  8  2  0
  7  6  1  0
  9  8  1  0
 10  9  2  0
 11 10  1  0
 11 12  2  0
 12  4  1  0
 12  7  1  0
 13 15  1  0
 13 14  2  0
 15 16  1  0
 16 17  1  6
 18 17  1  0
 19 20  2  0
 19 18  1  0
 21 16  1  0
 21 22  2  0
 23 19  1  0
 24 21  1  0
 25 24  1  0
 26 25  1  0
 27 26  1  0
 28 26  2  0
M  END
$$$$
