WEG.pdb
     RDKit          3D

 28 29  0  0  1  0  0  0  0  0999 V2000
    6.6592  -17.9020   24.4376 N   0  0  0  0  0  0  0  0  0  0  0  0
    7.8257  -17.0757   24.2858 C   0  0  1  0  0  0  0  0  0  0  0  0
    8.0742  -16.1977   25.4807 C   0  0  0  0  0  0  0  0  0  0  0  0
    7.0590  -15.1358   25.6586 C   0  0  0  0  0  0  0  0  0  0  0  0
    5.6978  -15.2774   25.8673 C   0  0  0  0  0  0  0  0  0  0  0  0
    5.1415  -14.0494   25.9489 N   0  0  0  0  0  0  0  0  0  0  0  0
    6.0974  -13.1114   25.8004 C   0  0  0  0  0  0  0  0  0  0  0  0
    6.0342  -11.7431   25.8121 C   0  0  0  0  0  0  0  0  0  0  0  0
    7.1643  -11.0008   25.6446 C   0  0  0  0  0  0  0  0  0  0  0  0
    8.3715  -11.6260   25.4637 C   0  0  0  0  0  0  0  0  0  0  0  0
    8.4300  -12.9912   25.4524 C   0  0  0  0  0  0  0  0  0  0  0  0
    7.3072  -13.7826   25.6177 C   0  0  0  0  0  0  0  0  0  0  0  0
    9.0429  -17.8797   23.9349 C   0  0  0  0  0  0  0  0  0  0  0  0
    9.2190  -19.0350   24.4459 O   0  0  0  0  0  0  0  0  0  0  0  0
    9.9767  -17.3176   23.0267 N   0  0  0  0  0  0  0  0  0  0  0  0
   11.2746  -17.9981   22.8347 C   0  0  1  0  0  0  0  0  0  0  0  0
   11.9641  -17.3570   21.6621 C   0  0  0  0  0  0  0  0  0  0  0  0
   13.2757  -17.9126   21.2769 C   0  0  0  0  0  0  0  0  0  0  0  0
   13.7102  -17.2439   19.9984 C   0  0  0  0  0  0  0  0  0  0  0  0
   13.2001  -17.5330   18.8985 O   0  0  0  0  0  0  0  0  0  0  0  0
   12.1297  -17.7893   24.0251 C   0  0  0  0  0  0  0  0  0  0  0  0
   12.3915  -16.6231   24.4028 O   0  0  0  0  0  0  0  0  0  0  0  0
   14.6957  -16.2873   20.0373 O   0  0  0  0  0  0  0  0  0  0  0  0
   12.6982  -18.8461   24.8034 N   0  0  0  0  0  0  0  0  0  0  0  0
   13.5565  -18.6250   25.9279 C   0  0  0  0  0  0  0  0  0  0  0  0
   14.1754  -19.8488   26.4736 C   0  0  0  0  0  0  0  0  0  0  0  0
   15.0751  -19.6859   27.5336 O   0  0  0  0  0  0  0  0  0  0  0  0
   13.9728  -21.0068   26.0812 O   0  0  0  0  0  0  0  0  0  0  0  0
  2  1  1  1
  2  3  1  0
  2 13  1  0
  3  4  1  0
  4  5  2  0
  5  6  1  0
  7  8  2  0
  7  6  1  0
  9  8  1  0
 10  9  2  0
 11 10  1  0
 11 12  2  0
 12  4  1  0
 12  7  1  0
 13 15  1  0
 13 14  2  0
 15 16  1  0
 16 17  1  6
 18 17  1  0
 19 20  2  0
 19 18  1  0
 21 16  1  0
 21 22  2  0
 23 19  1  0
 24 21  1  0
 25 24  1  0
 26 25  1  0
 27 26  1  0
 28 26  2  0
M  END
$$$$
