WEG.pdb
     RDKit          3D

 28 29  0  0  1  0  0  0  0  0999 V2000
    6.1023  -17.7081   25.2881 N   0  0  0  0  0  0  0  0  0  0  0  0
    7.3249  -16.9778   25.0923 C   0  0  1  0  0  0  0  0  0  0  0  0
    7.6059  -16.0077   26.2060 C   0  0  0  0  0  0  0  0  0  0  0  0
    6.8987  -14.7159   26.0607 C   0  0  0  0  0  0  0  0  0  0  0  0
    5.8109  -14.2487   26.7782 C   0  0  0  0  0  0  0  0  0  0  0  0
    5.4671  -13.0326   26.3017 N   0  0  0  0  0  0  0  0  0  0  0  0
    6.2970  -12.6919   25.2963 C   0  0  0  0  0  0  0  0  0  0  0  0
    6.3571  -11.5712   24.5110 C   0  0  0  0  0  0  0  0  0  0  0  0
    7.3129  -11.4574   23.5467 C   0  0  0  0  0  0  0  0  0  0  0  0
    8.2198  -12.4694   23.3613 C   0  0  0  0  0  0  0  0  0  0  0  0
    8.1560  -13.5857   24.1467 C   0  0  0  0  0  0  0  0  0  0  0  0
    7.2016  -13.7424   25.1361 C   0  0  0  0  0  0  0  0  0  0  0  0
    8.4925  -17.8891   24.8527 C   0  0  0  0  0  0  0  0  0  0  0  0
    8.5307  -19.0413   25.3985 O   0  0  0  0  0  0  0  0  0  0  0  0
    9.5366  -17.4306   24.0087 N   0  0  0  0  0  0  0  0  0  0  0  0
   10.7736  -18.2340   23.9131 C   0  0  1  0  0  0  0  0  0  0  0  0
   11.5672  -17.7238   22.7422 C   0  0  0  0  0  0  0  0  0  0  0  0
   11.0101  -17.9784   21.3998 C   0  0  0  0  0  0  0  0  0  0  0  0
   11.7732  -17.1379   20.4090 C   0  0  0  0  0  0  0  0  0  0  0  0
   12.7358  -16.4253   20.7544 O   0  0  0  0  0  0  0  0  0  0  0  0
   11.5938  -18.0360   25.1297 C   0  0  0  0  0  0  0  0  0  0  0  0
   11.9242  -16.8763   25.4719 O   0  0  0  0  0  0  0  0  0  0  0  0
   11.4043  -17.1516   19.0856 O   0  0  0  0  0  0  0  0  0  0  0  0
   12.0530  -19.0964   25.9724 N   0  0  0  0  0  0  0  0  0  0  0  0
   12.5895  -18.8874   27.2834 C   0  0  0  0  0  0  0  0  0  0  0  0
   13.0254  -20.1199   27.9684 C   0  0  0  0  0  0  0  0  0  0  0  0
   13.6386  -19.9680   29.2177 O   0  0  0  0  0  0  0  0  0  0  0  0
   12.8993  -21.2764   27.5411 O   0  0  0  0  0  0  0  0  0  0  0  0
  2  1  1  1
  2  3  1  0
  2 13  1  0
  3  4  1  0
  4  5  2  0
  5  6  1  0
  7  8  2  0
  7  6  1  0
  9  8  1  0
 10  9  2  0
 11 10  1  0
 11 12  2  0
 12  4  1  0
 12  7  1  0
 13 15  1  0
 13 14  2  0
 15 16  1  0
 16 17  1  6
 18 17  1  0
 19 20  2  0
 19 18  1  0
 21 16  1  0
 21 22  2  0
 23 19  1  0
 24 21  1  0
 25 24  1  0
 26 25  1  0
 27 26  1  0
 28 26  2  0
M  END
$$$$
