WEG.pdb
     RDKit          3D

 28 29  0  0  1  0  0  0  0  0999 V2000
    6.4188  -17.6963   24.5193 N   0  0  0  0  0  0  0  0  0  0  0  0
    7.6107  -16.9534   24.2126 C   0  0  1  0  0  0  0  0  0  0  0  0
    8.0235  -16.0330   25.3275 C   0  0  0  0  0  0  0  0  0  0  0  0
    7.0657  -14.9323   25.5741 C   0  0  0  0  0  0  0  0  0  0  0  0
    5.7020  -15.0164   25.7973 C   0  0  0  0  0  0  0  0  0  0  0  0
    5.2095  -13.7679   25.9487 N   0  0  0  0  0  0  0  0  0  0  0  0
    6.2095  -12.8722   25.8316 C   0  0  0  0  0  0  0  0  0  0  0  0
    6.2155  -11.5049   25.9122 C   0  0  0  0  0  0  0  0  0  0  0  0
    7.3793  -10.8121   25.7635 C   0  0  0  0  0  0  0  0  0  0  0  0
    8.5509  -11.4867   25.5325 C   0  0  0  0  0  0  0  0  0  0  0  0
    8.5402  -12.8508   25.4526 C   0  0  0  0  0  0  0  0  0  0  0  0
    7.3813  -13.5927   25.5964 C   0  0  0  0  0  0  0  0  0  0  0  0
    8.7401  -17.8487   23.7955 C   0  0  0  0  0  0  0  0  0  0  0  0
    8.7861  -19.0568   24.2023 O   0  0  0  0  0  0  0  0  0  0  0  0
    9.7398  -17.3118   22.9441 N   0  0  0  0  0  0  0  0  0  0  0  0
   10.9966  -18.0684   22.7636 C   0  0  1  0  0  0  0  0  0  0  0  0
   11.8209  -17.3556   21.7273 C   0  0  0  0  0  0  0  0  0  0  0  0
   13.1565  -17.9137   21.4410 C   0  0  0  0  0  0  0  0  0  0  0  0
   13.6643  -17.2842   20.1697 C   0  0  0  0  0  0  0  0  0  0  0  0
   13.7940  -16.0500   20.0528 O   0  0  0  0  0  0  0  0  0  0  0  0
   11.7677  -18.0660   24.0274 C   0  0  0  0  0  0  0  0  0  0  0  0
   12.0946  -16.9753   24.5515 O   0  0  0  0  0  0  0  0  0  0  0  0
   13.9961  -18.0859   19.1043 O   0  0  0  0  0  0  0  0  0  0  0  0
   12.1817  -19.2469   24.7201 N   0  0  0  0  0  0  0  0  0  0  0  0
   12.7200  -19.2364   26.0469 C   0  0  0  0  0  0  0  0  0  0  0  0
   14.1945  -19.2119   26.1074 C   0  0  0  0  0  0  0  0  0  0  0  0
   14.7775  -19.2418   27.3798 O   0  0  0  0  0  0  0  0  0  0  0  0
   14.9644  -19.1673   25.1372 O   0  0  0  0  0  0  0  0  0  0  0  0
  2  1  1  1
  2  3  1  0
  2 13  1  0
  3  4  1  0
  4  5  2  0
  5  6  1  0
  7  8  2  0
  7  6  1  0
  9  8  1  0
 10  9  2  0
 11 10  1  0
 11 12  2  0
 12  4  1  0
 12  7  1  0
 13 15  1  0
 13 14  2  0
 15 16  1  0
 16 17  1  6
 18 17  1  0
 19 20  2  0
 19 18  1  0
 21 16  1  0
 21 22  2  0
 23 19  1  0
 24 21  1  0
 25 24  1  0
 26 25  1  0
 27 26  1  0
 28 26  2  0
M  END
$$$$
