WEG.pdb
     RDKit          3D

 28 29  0  0  1  0  0  0  0  0999 V2000
    8.4654  -16.7205   24.8783 N   0  0  0  0  0  0  0  0  0  0  0  0
    8.1923  -16.4384   23.4955 C   0  0  1  0  0  0  0  0  0  0  0  0
    7.6726  -15.0442   23.2795 C   0  0  0  0  0  0  0  0  0  0  0  0
    6.9645  -14.4861   24.4529 C   0  0  0  0  0  0  0  0  0  0  0  0
    6.1028  -15.1334   25.3218 C   0  0  0  0  0  0  0  0  0  0  0  0
    5.6596  -14.2435   26.2361 N   0  0  0  0  0  0  0  0  0  0  0  0
    6.2057  -13.0363   25.9909 C   0  0  0  0  0  0  0  0  0  0  0  0
    6.0724  -11.8338   26.6332 C   0  0  0  0  0  0  0  0  0  0  0  0
    6.7486  -10.7377   26.1886 C   0  0  0  0  0  0  0  0  0  0  0  0
    7.5672  -10.8383   25.0929 C   0  0  0  0  0  0  0  0  0  0  0  0
    7.6971  -12.0397   24.4550 C   0  0  0  0  0  0  0  0  0  0  0  0
    7.0283  -13.1768   24.8723 C   0  0  0  0  0  0  0  0  0  0  0  0
    9.3761  -16.7231   22.6186 C   0  0  0  0  0  0  0  0  0  0  0  0
    9.2457  -16.7432   21.3499 O   0  0  0  0  0  0  0  0  0  0  0  0
   10.6275  -16.9644   23.2418 N   0  0  0  0  0  0  0  0  0  0  0  0
   11.7742  -17.3596   22.3971 C   0  0  1  0  0  0  0  0  0  0  0  0
   12.1086  -16.2006   21.4994 C   0  0  0  0  0  0  0  0  0  0  0  0
   13.3033  -16.3443   20.6453 C   0  0  0  0  0  0  0  0  0  0  0  0
   13.4265  -15.1031   19.7999 C   0  0  0  0  0  0  0  0  0  0  0  0
   13.7087  -13.9948   20.2956 O   0  0  0  0  0  0  0  0  0  0  0  0
   12.9564  -17.6209   23.2492 C   0  0  0  0  0  0  0  0  0  0  0  0
   14.0017  -18.0819   22.7337 O   0  0  0  0  0  0  0  0  0  0  0  0
   13.2237  -15.1864   18.4435 O   0  0  0  0  0  0  0  0  0  0  0  0
   13.0019  -17.3807   24.6584 N   0  0  0  0  0  0  0  0  0  0  0  0
   12.2475  -18.1357   25.6130 C   0  0  0  0  0  0  0  0  0  0  0  0
   12.8580  -19.4249   25.9917 C   0  0  0  0  0  0  0  0  0  0  0  0
   13.3939  -20.2010   24.9572 O   0  0  0  0  0  0  0  0  0  0  0  0
   12.9405  -19.8844   27.1398 O   0  0  0  0  0  0  0  0  0  0  0  0
  2  1  1  1
  2  3  1  0
  2 13  1  0
  3  4  1  0
  4  5  2  0
  5  6  1  0
  7  8  2  0
  7  6  1  0
  9  8  1  0
 10  9  2  0
 11 10  1  0
 11 12  2  0
 12  4  1  0
 12  7  1  0
 13 15  1  0
 13 14  2  0
 15 16  1  0
 16 17  1  6
 18 17  1  0
 19 20  2  0
 19 18  1  0
 21 16  1  0
 21 22  2  0
 23 19  1  0
 24 21  1  0
 25 24  1  0
 26 25  1  0
 27 26  1  0
 28 26  2  0
M  END
$$$$
