WEG.pdb
     RDKit          3D

 28 29  0  0  1  0  0  0  0  0999 V2000
    6.3506  -17.8505   24.5710 N   0  0  0  0  0  0  0  0  0  0  0  0
    7.5196  -17.1045   24.1923 C   0  0  1  0  0  0  0  0  0  0  0  0
    8.0772  -16.2861   25.3235 C   0  0  0  0  0  0  0  0  0  0  0  0
    7.2405  -15.1188   25.6804 C   0  0  0  0  0  0  0  0  0  0  0  0
    6.1314  -15.0800   26.5079 C   0  0  0  0  0  0  0  0  0  0  0  0
    5.6547  -13.8166   26.5352 N   0  0  0  0  0  0  0  0  0  0  0  0
    6.4186  -13.0301   25.7518 C   0  0  0  0  0  0  0  0  0  0  0  0
    6.3448  -11.6933   25.4630 C   0  0  0  0  0  0  0  0  0  0  0  0
    7.2577  -11.1177   24.6314 C   0  0  0  0  0  0  0  0  0  0  0  0
    8.2560  -11.8801   24.0807 C   0  0  0  0  0  0  0  0  0  0  0  0
    8.3257  -13.2135   24.3713 C   0  0  0  0  0  0  0  0  0  0  0  0
    7.4191  -13.8379   25.2095 C   0  0  0  0  0  0  0  0  0  0  0  0
    8.5725  -17.9808   23.5800 C   0  0  0  0  0  0  0  0  0  0  0  0
    8.5575  -19.2401   23.7824 O   0  0  0  0  0  0  0  0  0  0  0  0
    9.5699  -17.3678   22.7787 N   0  0  0  0  0  0  0  0  0  0  0  0
   10.7420  -18.1706   22.3707 C   0  0  1  0  0  0  0  0  0  0  0  0
   11.3425  -17.5261   21.1520 C   0  0  0  0  0  0  0  0  0  0  0  0
   10.5866  -17.6547   19.8912 C   0  0  0  0  0  0  0  0  0  0  0  0
   11.0977  -16.6124   18.9306 C   0  0  0  0  0  0  0  0  0  0  0  0
   12.1293  -15.9528   19.1632 O   0  0  0  0  0  0  0  0  0  0  0  0
   11.7645  -18.1425   23.4411 C   0  0  0  0  0  0  0  0  0  0  0  0
   12.8706  -18.7021   23.2559 O   0  0  0  0  0  0  0  0  0  0  0  0
   10.4132  -16.3763   17.7628 O   0  0  0  0  0  0  0  0  0  0  0  0
   11.5847  -17.5067   24.7096 N   0  0  0  0  0  0  0  0  0  0  0  0
   12.5913  -17.4762   25.7274 C   0  0  0  0  0  0  0  0  0  0  0  0
   12.5710  -18.6351   26.6413 C   0  0  0  0  0  0  0  0  0  0  0  0
   13.4504  -18.5996   27.7300 O   0  0  0  0  0  0  0  0  0  0  0  0
   11.8483  -19.6363   26.5348 O   0  0  0  0  0  0  0  0  0  0  0  0
  2  1  1  1
  2  3  1  0
  2 13  1  0
  3  4  1  0
  4  5  2  0
  5  6  1  0
  7  8  2  0
  7  6  1  0
  9  8  1  0
 10  9  2  0
 11 10  1  0
 11 12  2  0
 12  4  1  0
 12  7  1  0
 13 15  1  0
 13 14  2  0
 15 16  1  0
 16 17  1  6
 18 17  1  0
 19 20  2  0
 19 18  1  0
 21 16  1  0
 21 22  2  0
 23 19  1  0
 24 21  1  0
 25 24  1  0
 26 25  1  0
 27 26  1  0
 28 26  2  0
M  END
$$$$
