WEG.pdb
     RDKit          3D

 28 29  0  0  1  0  0  0  0  0999 V2000
    6.5488  -17.7757   24.3396 N   0  0  0  0  0  0  0  0  0  0  0  0
    7.7374  -17.0162   24.0626 C   0  0  1  0  0  0  0  0  0  0  0  0
    8.1415  -16.1322   25.2096 C   0  0  0  0  0  0  0  0  0  0  0  0
    7.1481  -15.0829   25.5291 C   0  0  0  0  0  0  0  0  0  0  0  0
    5.8180  -15.2398   25.8794 C   0  0  0  0  0  0  0  0  0  0  0  0
    5.2698  -14.0185   26.0587 N   0  0  0  0  0  0  0  0  0  0  0  0
    6.2009  -13.0701   25.8366 C   0  0  0  0  0  0  0  0  0  0  0  0
    6.1348  -11.7033   25.8973 C   0  0  0  0  0  0  0  0  0  0  0  0
    7.2376  -10.9487   25.6314 C   0  0  0  0  0  0  0  0  0  0  0  0
    8.4201  -11.5602   25.3016 C   0  0  0  0  0  0  0  0  0  0  0  0
    8.4815  -12.9239   25.2420 C   0  0  0  0  0  0  0  0  0  0  0  0
    7.3859  -13.7275   25.5034 C   0  0  0  0  0  0  0  0  0  0  0  0
    8.8733  -17.8904   23.6189 C   0  0  0  0  0  0  0  0  0  0  0  0
    9.1469  -18.9609   24.2563 O   0  0  0  0  0  0  0  0  0  0  0  0
    9.6203  -17.4903   22.4812 N   0  0  0  0  0  0  0  0  0  0  0  0
   10.9725  -18.0552   22.2880 C   0  0  1  0  0  0  0  0  0  0  0  0
   11.5814  -17.3956   21.0817 C   0  0  0  0  0  0  0  0  0  0  0  0
   12.9585  -17.7928   20.7308 C   0  0  0  0  0  0  0  0  0  0  0  0
   13.3456  -17.0723   19.4653 C   0  0  0  0  0  0  0  0  0  0  0  0
   13.0381  -15.8809   19.2663 O   0  0  0  0  0  0  0  0  0  0  0  0
   11.8230  -17.7267   23.4544 C   0  0  0  0  0  0  0  0  0  0  0  0
   12.0055  -16.5273   23.7697 O   0  0  0  0  0  0  0  0  0  0  0  0
   14.0578  -17.7400   18.4984 O   0  0  0  0  0  0  0  0  0  0  0  0
   12.4730  -18.7001   24.2765 N   0  0  0  0  0  0  0  0  0  0  0  0
   13.3163  -18.3626   25.3833 C   0  0  0  0  0  0  0  0  0  0  0  0
   14.0359  -19.5078   25.9741 C   0  0  0  0  0  0  0  0  0  0  0  0
   14.8602  -19.2399   27.0734 O   0  0  0  0  0  0  0  0  0  0  0  0
   13.9786  -20.6841   25.5879 O   0  0  0  0  0  0  0  0  0  0  0  0
  2  1  1  1
  2  3  1  0
  2 13  1  0
  3  4  1  0
  4  5  2  0
  5  6  1  0
  7  8  2  0
  7  6  1  0
  9  8  1  0
 10  9  2  0
 11 10  1  0
 11 12  2  0
 12  4  1  0
 12  7  1  0
 13 15  1  0
 13 14  2  0
 15 16  1  0
 16 17  1  6
 18 17  1  0
 19 20  2  0
 19 18  1  0
 21 16  1  0
 21 22  2  0
 23 19  1  0
 24 21  1  0
 25 24  1  0
 26 25  1  0
 27 26  1  0
 28 26  2  0
M  END
$$$$
