WEG.pdb
     RDKit          3D

 28 29  0  0  1  0  0  0  0  0999 V2000
    8.6370  -17.0573   23.8647 N   0  0  0  0  0  0  0  0  0  0  0  0
    9.4475  -15.9133   24.1822 C   0  0  1  0  0  0  0  0  0  0  0  0
    9.1891  -15.3853   25.5660 C   0  0  0  0  0  0  0  0  0  0  0  0
    7.8226  -14.8486   25.7511 C   0  0  0  0  0  0  0  0  0  0  0  0
    6.6321  -15.5487   25.8465 C   0  0  0  0  0  0  0  0  0  0  0  0
    5.6193  -14.6656   25.9829 N   0  0  0  0  0  0  0  0  0  0  0  0
    6.1121  -13.4115   25.9798 C   0  0  0  0  0  0  0  0  0  0  0  0
    5.4940  -12.1945   26.0943 C   0  0  0  0  0  0  0  0  0  0  0  0
    6.2263  -11.0459   26.0698 C   0  0  0  0  0  0  0  0  0  0  0  0
    7.5893  -11.1078   25.9302 C   0  0  0  0  0  0  0  0  0  0  0  0
    8.2019  -12.3240   25.8162 C   0  0  0  0  0  0  0  0  0  0  0  0
    7.4963  -13.5140   25.8351 C   0  0  0  0  0  0  0  0  0  0  0  0
   10.9076  -16.1796   23.9619 C   0  0  0  0  0  0  0  0  0  0  0  0
   11.7631  -15.2489   24.1321 O   0  0  0  0  0  0  0  0  0  0  0  0
   11.2970  -17.4846   23.5644 N   0  0  0  0  0  0  0  0  0  0  0  0
   12.7038  -17.7152   23.1742 C   0  0  1  0  0  0  0  0  0  0  0  0
   13.0700  -19.1185   23.5716 C   0  0  0  0  0  0  0  0  0  0  0  0
   14.4607  -19.5405   23.3161 C   0  0  0  0  0  0  0  0  0  0  0  0
   14.5959  -20.9829   23.7303 C   0  0  0  0  0  0  0  0  0  0  0  0
   14.8167  -21.8874   22.9015 O   0  0  0  0  0  0  0  0  0  0  0  0
   12.8371  -17.6179   21.7029 C   0  0  0  0  0  0  0  0  0  0  0  0
   13.9471  -17.3255   21.1996 O   0  0  0  0  0  0  0  0  0  0  0  0
   14.4739  -21.3194   25.0568 O   0  0  0  0  0  0  0  0  0  0  0  0
   11.7659  -17.8388   20.7812 N   0  0  0  0  0  0  0  0  0  0  0  0
   11.9006  -17.6896   19.3636 C   0  0  0  0  0  0  0  0  0  0  0  0
   12.7565  -18.7061   18.7212 C   0  0  0  0  0  0  0  0  0  0  0  0
   12.7875  -18.7164   17.3217 O   0  0  0  0  0  0  0  0  0  0  0  0
   13.4503  -19.5511   19.3050 O   0  0  0  0  0  0  0  0  0  0  0  0
  2  1  1  1
  2  3  1  0
  2 13  1  0
  3  4  1  0
  4  5  2  0
  5  6  1  0
  7  8  2  0
  7  6  1  0
  9  8  1  0
 10  9  2  0
 11 10  1  0
 11 12  2  0
 12  4  1  0
 12  7  1  0
 13 15  1  0
 13 14  2  0
 15 16  1  0
 16 17  1  6
 18 17  1  0
 19 20  2  0
 19 18  1  0
 21 16  1  0
 21 22  2  0
 23 19  1  0
 24 21  1  0
 25 24  1  0
 26 25  1  0
 27 26  1  0
 28 26  2  0
M  END
$$$$
