WEG.pdb
     RDKit          3D

 28 29  0  0  1  0  0  0  0  0999 V2000
    7.4035  -17.2062   23.5539 N   0  0  0  0  0  0  0  0  0  0  0  0
    8.4694  -16.2419   23.5735 C   0  0  1  0  0  0  0  0  0  0  0  0
    8.7099  -15.6709   24.9433 C   0  0  0  0  0  0  0  0  0  0  0  0
    7.5407  -14.9567   25.5026 C   0  0  0  0  0  0  0  0  0  0  0  0
    6.3593  -15.4927   25.9855 C   0  0  0  0  0  0  0  0  0  0  0  0
    5.5519  -14.4824   26.3750 N   0  0  0  0  0  0  0  0  0  0  0  0
    6.1702  -13.3043   26.1616 C   0  0  0  0  0  0  0  0  0  0  0  0
    5.7700  -12.0153   26.3951 C   0  0  0  0  0  0  0  0  0  0  0  0
    6.5951  -10.9736   26.0948 C   0  0  0  0  0  0  0  0  0  0  0  0
    7.8329  -11.2162   25.5563 C   0  0  0  0  0  0  0  0  0  0  0  0
    8.2281  -12.5036   25.3247 C   0  0  0  0  0  0  0  0  0  0  0  0
    7.4215  -13.5900   25.6138 C   0  0  0  0  0  0  0  0  0  0  0  0
    9.7337  -16.7885   22.9787 C   0  0  0  0  0  0  0  0  0  0  0  0
   10.1232  -17.9678   23.2697 O   0  0  0  0  0  0  0  0  0  0  0  0
   10.4692  -15.9595   22.0931 N   0  0  0  0  0  0  0  0  0  0  0  0
   11.7607  -16.4527   21.5703 C   0  0  1  0  0  0  0  0  0  0  0  0
   12.1694  -15.5610   20.4305 C   0  0  0  0  0  0  0  0  0  0  0  0
   13.4272  -15.9013   19.7381 C   0  0  0  0  0  0  0  0  0  0  0  0
   13.6066  -14.9384   18.5931 C   0  0  0  0  0  0  0  0  0  0  0  0
   14.1188  -13.8135   18.7537 O   0  0  0  0  0  0  0  0  0  0  0  0
   12.7998  -16.3424   22.6192 C   0  0  0  0  0  0  0  0  0  0  0  0
   12.8420  -15.3207   23.3441 O   0  0  0  0  0  0  0  0  0  0  0  0
   13.1970  -15.3026   17.3332 O   0  0  0  0  0  0  0  0  0  0  0  0
   13.7900  -17.3409   22.8796 N   0  0  0  0  0  0  0  0  0  0  0  0
   14.6996  -17.2820   23.9839 C   0  0  0  0  0  0  0  0  0  0  0  0
   15.9777  -16.6063   23.6869 C   0  0  0  0  0  0  0  0  0  0  0  0
   16.8736  -16.4482   24.7508 O   0  0  0  0  0  0  0  0  0  0  0  0
   16.3317  -16.1661   22.5837 O   0  0  0  0  0  0  0  0  0  0  0  0
  2  1  1  1
  2  3  1  0
  2 13  1  0
  3  4  1  0
  4  5  2  0
  5  6  1  0
  7  8  2  0
  7  6  1  0
  9  8  1  0
 10  9  2  0
 11 10  1  0
 11 12  2  0
 12  4  1  0
 12  7  1  0
 13 15  1  0
 13 14  2  0
 15 16  1  0
 16 17  1  6
 18 17  1  0
 19 20  2  0
 19 18  1  0
 21 16  1  0
 21 22  2  0
 23 19  1  0
 24 21  1  0
 25 24  1  0
 26 25  1  0
 27 26  1  0
 28 26  2  0
M  END
$$$$
