TRD.pdb
     RDKit          3D

 27 26  0  0  1  0  0  0  0  0999 V2000
    9.7874  -18.4038   13.7504 C   0  0  0  0  0  0  0  0  0  0  0  0
   10.2074  -17.6256   14.9647 C   0  0  1  0  0  0  0  0  0  0  0  0
   11.3804  -18.1760   15.4654 O   0  0  0  0  0  0  0  0  0  0  0  0
   10.4624  -16.1793   14.6292 C   0  0  2  0  0  0  0  0  0  0  0  0
   11.4763  -16.0789   13.6058 N   0  0  0  0  0  0  0  0  0  0  0  0
   10.8305  -15.4216   15.8660 C   0  0  0  0  0  0  0  0  0  0  0  0
   12.0361  -15.4717   16.1843 O   0  0  0  0  0  0  0  0  0  0  0  0
    6.8453  -14.9100   21.0940 N   0  0  0  0  0  0  0  0  0  0  0  0
    7.1883  -13.9131   22.0692 C   0  0  0  0  0  0  0  0  0  0  0  0
    7.0752  -14.1613   23.3177 N   0  0  0  0  0  0  0  0  0  0  0  0
    7.6608  -12.6328   21.6815 N   0  0  0  0  0  0  0  0  0  0  0  0
    7.7421  -12.2862   20.2947 C   0  0  0  0  0  0  0  0  0  0  0  0
    9.0258  -12.8972   19.7417 C   0  0  0  0  0  0  0  0  0  0  0  0
    8.7010  -13.7239   18.5044 C   0  0  0  0  0  0  0  0  0  0  0  0
    9.9701  -14.2497   17.9414 C   0  0  2  0  0  0  0  0  0  0  0  0
    9.8637  -14.7125   16.5955 N   0  0  0  0  0  0  0  0  0  0  0  0
   10.6369  -15.1891   18.8834 C   0  0  0  0  0  0  0  0  0  0  0  0
   10.3903  -16.4053   19.0011 O   0  0  0  0  0  0  0  0  0  0  0  0
    7.2451  -13.5145   24.0875 N   0  0  0  0  0  0  0  0  0  0  0  0
   11.6518  -14.6628   19.7324 C   0  0  2  0  0  0  0  0  0  0  0  0
   12.4360  -15.5577   20.6031 C   0  0  0  0  0  0  0  0  0  0  0  0
   13.7555  -14.8634   20.7977 C   0  0  0  0  0  0  0  0  0  0  0  0
   14.5897  -14.8047   19.5777 O   0  0  0  0  0  0  0  0  0  0  0  0
   14.7858  -15.8379   18.9011 C   0  0  0  0  0  0  0  0  0  0  0  0
   11.7073  -15.7815   21.8686 O   0  0  0  0  0  0  0  0  0  0  0  0
   12.1908  -16.6095   22.8612 O   0  0  0  0  0  0  0  0  0  0  0  0
   15.1689  -13.6219   19.1555 O   0  0  0  0  0  0  0  0  0  0  0  0
  2  1  1  6
  2  4  1  0
  3  2  1  0
  4  5  1  6
  6  4  1  0
  6 16  1  0
  7  6  2  0
  8  9  1  0
  9 10  2  0
 11 12  1  0
 11  9  1  0
 13 14  1  0
 13 12  1  0
 15 16  1  0
 15 14  1  1
 17 15  1  0
 18 17  2  0
 19 17  1  0
 20 24  1  0
 20 19  1  0
 20 21  1  1
 22 21  1  0
 23 22  2  0
 24 25  1  0
 26 22  1  0
 27 24  2  0
M  END
$$$$
