TRD.pdb
     RDKit          3D

 27 26  0  0  1  0  0  0  0  0999 V2000
   11.3866  -20.6123   19.4214 C   0  0  0  0  0  0  0  0  0  0  0  0
   12.0327  -19.8818   18.2788 C   0  0  1  0  0  0  0  0  0  0  0  0
   11.8308  -20.6079   17.1120 O   0  0  0  0  0  0  0  0  0  0  0  0
   11.4380  -18.5096   18.0977 C   0  0  2  0  0  0  0  0  0  0  0  0
   11.9622  -17.8960   16.9001 N   0  0  0  0  0  0  0  0  0  0  0  0
   11.6871  -17.6763   19.3154 C   0  0  0  0  0  0  0  0  0  0  0  0
   12.8876  -17.4621   19.5799 O   0  0  0  0  0  0  0  0  0  0  0  0
    8.2412  -11.9261   19.8406 N   0  0  0  0  0  0  0  0  0  0  0  0
    7.5735  -13.0174   19.1882 C   0  0  0  0  0  0  0  0  0  0  0  0
    7.6199  -13.1393   17.9169 N   0  0  0  0  0  0  0  0  0  0  0  0
    6.8486  -13.9874   19.9274 N   0  0  0  0  0  0  0  0  0  0  0  0
    7.4434  -14.6127   21.0699 C   0  0  0  0  0  0  0  0  0  0  0  0
    8.7806  -15.2001   20.6295 C   0  0  0  0  0  0  0  0  0  0  0  0
    9.4284  -15.9211   21.8045 C   0  0  0  0  0  0  0  0  0  0  0  0
   10.7082  -16.5170   21.3450 C   0  0  2  0  0  0  0  0  0  0  0  0
   10.6224  -17.1837   20.0859 N   0  0  0  0  0  0  0  0  0  0  0  0
   11.3687  -17.2935   22.4291 C   0  0  0  0  0  0  0  0  0  0  0  0
   11.0449  -18.4340   22.8139 O   0  0  0  0  0  0  0  0  0  0  0  0
    7.2279  -13.8988   17.3608 N   0  0  0  0  0  0  0  0  0  0  0  0
   12.4735  -16.6896   23.0944 C   0  0  1  0  0  0  0  0  0  0  0  0
   13.1941  -17.4155   24.1563 C   0  0  0  0  0  0  0  0  0  0  0  0
   14.5754  -16.8218   24.1738 C   0  0  0  0  0  0  0  0  0  0  0  0
   15.5042  -17.4879   25.1126 O   0  0  0  0  0  0  0  0  0  0  0  0
   15.2479  -18.6341   25.5419 C   0  0  0  0  0  0  0  0  0  0  0  0
   12.4787  -17.2556   25.4390 O   0  0  0  0  0  0  0  0  0  0  0  0
   11.2952  -16.5529   25.5404 O   0  0  0  0  0  0  0  0  0  0  0  0
   16.6671  -16.8711   25.5369 O   0  0  0  0  0  0  0  0  0  0  0  0
  2  1  1  1
  2  4  1  0
  3  2  1  0
  4  5  1  6
  6  4  1  0
  6 16  1  0
  7  6  2  0
  8  9  1  0
  9 10  2  0
 11 12  1  0
 11  9  1  0
 13 14  1  0
 13 12  1  0
 15 16  1  0
 15 14  1  1
 17 15  1  0
 18 17  2  0
 19 17  1  0
 20 24  1  0
 20 19  1  0
 20 21  1  1
 22 21  1  0
 23 22  2  0
 24 25  1  0
 26 22  1  0
 27 24  2  0
M  END
$$$$
