TRD.pdb
     RDKit          3D

 27 26  0  0  1  0  0  0  0  0999 V2000
   16.4709  -17.5933   16.8901 C   0  0  0  0  0  0  0  0  0  0  0  0
   15.2241  -17.7861   16.0747 C   0  0  1  0  0  0  0  0  0  0  0  0
   14.3356  -18.5742   16.7950 O   0  0  0  0  0  0  0  0  0  0  0  0
   14.5580  -16.4697   15.7700 C   0  0  2  0  0  0  0  0  0  0  0  0
   15.3842  -15.6905   14.8781 N   0  0  0  0  0  0  0  0  0  0  0  0
   14.2545  -15.7406   17.0411 C   0  0  0  0  0  0  0  0  0  0  0  0
   15.1910  -15.0560   17.5011 O   0  0  0  0  0  0  0  0  0  0  0  0
    6.5108  -14.4916   18.4088 N   0  0  0  0  0  0  0  0  0  0  0  0
    7.4311  -13.5999   19.0573 C   0  0  0  0  0  0  0  0  0  0  0  0
    7.0344  -12.4696   19.5023 N   0  0  0  0  0  0  0  0  0  0  0  0
    8.7975  -13.9429   19.2247 N   0  0  0  0  0  0  0  0  0  0  0  0
    9.6499  -13.1256   20.0343 C   0  0  0  0  0  0  0  0  0  0  0  0
   11.0190  -13.7964   20.0847 C   0  0  0  0  0  0  0  0  0  0  0  0
   11.2333  -14.6059   18.8124 C   0  0  0  0  0  0  0  0  0  0  0  0
   12.5783  -15.2317   18.8721 C   0  0  2  0  0  0  0  0  0  0  0  0
   12.9935  -15.8396   17.6493 N   0  0  0  0  0  0  0  0  0  0  0  0
   12.7320  -16.0798   20.0852 C   0  0  0  0  0  0  0  0  0  0  0  0
   12.2864  -17.2346   20.2320 O   0  0  0  0  0  0  0  0  0  0  0  0
    7.5988  -11.7696   19.9833 N   0  0  0  0  0  0  0  0  0  0  0  0
   13.4530  -15.5338   21.1851 C   0  0  2  0  0  0  0  0  0  0  0  0
   13.6836  -16.3366   22.4000 C   0  0  0  0  0  0  0  0  0  0  0  0
   14.8570  -15.6911   23.0837 C   0  0  0  0  0  0  0  0  0  0  0  0
   16.1241  -15.7932   22.3276 O   0  0  0  0  0  0  0  0  0  0  0  0
   16.2392  -16.6299   21.4054 C   0  0  0  0  0  0  0  0  0  0  0  0
   12.4613  -16.3423   23.2297 O   0  0  0  0  0  0  0  0  0  0  0  0
   12.3644  -17.0759   24.3947 O   0  0  0  0  0  0  0  0  0  0  0  0
   17.2035  -14.9775   22.6144 O   0  0  0  0  0  0  0  0  0  0  0  0
  2  1  1  1
  2  4  1  0
  3  2  1  0
  4  5  1  6
  6  4  1  0
  6 16  1  0
  7  6  2  0
  8  9  1  0
  9 10  2  0
 11 12  1  0
 11  9  1  0
 13 14  1  0
 13 12  1  0
 15 16  1  0
 15 14  1  6
 17 15  1  0
 18 17  2  0
 19 17  1  0
 20 24  1  0
 20 19  1  0
 20 21  1  6
 22 21  1  0
 23 22  2  0
 24 25  1  0
 26 22  1  0
 27 24  2  0
M  END
$$$$
