TRD.pdb
     RDKit          3D

 27 26  0  0  1  0  0  0  0  0999 V2000
    8.6516  -12.4911   20.1911 C   0  0  0  0  0  0  0  0  0  0  0  0
    7.7727  -13.4817   19.4821 C   0  0  1  0  0  0  0  0  0  0  0  0
    6.6261  -12.8304   19.0454 O   0  0  0  0  0  0  0  0  0  0  0  0
    8.4695  -14.0774   18.2868 C   0  0  2  0  0  0  0  0  0  0  0  0
    7.5555  -14.9154   17.5465 N   0  0  0  0  0  0  0  0  0  0  0  0
    9.6923  -14.8219   18.7225 C   0  0  0  0  0  0  0  0  0  0  0  0
    9.4879  -15.9664   19.1758 O   0  0  0  0  0  0  0  0  0  0  0  0
   18.2738  -13.0572   17.4441 N   0  0  0  0  0  0  0  0  0  0  0  0
   17.4012  -14.0018   16.8047 C   0  0  0  0  0  0  0  0  0  0  0  0
   17.6720  -14.4486   15.6384 N   0  0  0  0  0  0  0  0  0  0  0  0
   16.2220  -14.4664   17.4421 N   0  0  0  0  0  0  0  0  0  0  0  0
   15.8819  -14.0006   18.7526 C   0  0  0  0  0  0  0  0  0  0  0  0
   14.6308  -14.7511   19.1980 C   0  0  0  0  0  0  0  0  0  0  0  0
   13.3937  -13.9836   18.7504 C   0  0  0  0  0  0  0  0  0  0  0  0
   12.1897  -14.7563   19.1470 C   0  0  2  0  0  0  0  0  0  0  0  0
   10.9675  -14.2456   18.6153 N   0  0  0  0  0  0  0  0  0  0  0  0
   12.1771  -15.0345   20.6089 C   0  0  0  0  0  0  0  0  0  0  0  0
   11.8613  -14.2273   21.5047 O   0  0  0  0  0  0  0  0  0  0  0  0
   17.1383  -15.1370   15.1082 N   0  0  0  0  0  0  0  0  0  0  0  0
   12.5576  -16.3386   21.0357 C   0  0  2  0  0  0  0  0  0  0  0  0
   12.5460  -16.6893   22.4678 C   0  0  0  0  0  0  0  0  0  0  0  0
   11.7831  -17.9823   22.5521 C   0  0  0  0  0  0  0  0  0  0  0  0
   11.7595  -18.5794   23.9051 O   0  0  0  0  0  0  0  0  0  0  0  0
   11.6513  -17.8467   24.9127 C   0  0  0  0  0  0  0  0  0  0  0  0
   13.9338  -16.8026   22.9615 O   0  0  0  0  0  0  0  0  0  0  0  0
   15.0263  -16.6166   22.1389 O   0  0  0  0  0  0  0  0  0  0  0  0
   11.8550  -19.9463   24.0926 O   0  0  0  0  0  0  0  0  0  0  0  0
  2  1  1  6
  2  4  1  0
  3  2  1  0
  4  5  1  1
  6  4  1  0
  6 16  1  0
  7  6  2  0
  8  9  1  0
  9 10  2  0
 11 12  1  0
 11  9  1  0
 13 14  1  0
 13 12  1  0
 15 16  1  0
 15 14  1  1
 17 15  1  0
 18 17  2  0
 19 17  1  0
 20 24  1  0
 20 19  1  0
 20 21  1  6
 22 21  1  0
 23 22  2  0
 24 25  1  0
 26 22  1  0
 27 24  2  0
M  END
$$$$
