TRD.pdb
     RDKit          3D

 27 26  0  0  1  0  0  0  0  0999 V2000
    7.3460  -18.3388   24.3624 C   0  0  0  0  0  0  0  0  0  0  0  0
    7.2563  -19.6876   23.7075 C   0  0  1  0  0  0  0  0  0  0  0  0
    5.9835  -20.2030   23.9169 O   0  0  0  0  0  0  0  0  0  0  0  0
    7.4971  -19.5948   22.2233 C   0  0  2  0  0  0  0  0  0  0  0  0
    7.1466  -20.8419   21.5851 N   0  0  0  0  0  0  0  0  0  0  0  0
    8.9162  -19.2023   21.9561 C   0  0  0  0  0  0  0  0  0  0  0  0
    9.7778  -20.0200   22.3385 O   0  0  0  0  0  0  0  0  0  0  0  0
    7.1630  -13.5963   18.1861 N   0  0  0  0  0  0  0  0  0  0  0  0
    7.5945  -12.8085   19.3067 C   0  0  0  0  0  0  0  0  0  0  0  0
    6.8699  -11.8507   19.7435 N   0  0  0  0  0  0  0  0  0  0  0  0
    8.8271  -13.0667   19.9597 N   0  0  0  0  0  0  0  0  0  0  0  0
    9.6841  -14.1132   19.4901 C   0  0  0  0  0  0  0  0  0  0  0  0
    9.6723  -15.2228   20.5368 C   0  0  0  0  0  0  0  0  0  0  0  0
   10.5605  -16.3687   20.0698 C   0  0  0  0  0  0  0  0  0  0  0  0
   10.5230  -17.4426   21.0943 C   0  0  2  0  0  0  0  0  0  0  0  0
    9.2244  -17.9916   21.3168 N   0  0  0  0  0  0  0  0  0  0  0  0
   11.2637  -17.0497   22.3238 C   0  0  0  0  0  0  0  0  0  0  0  0
   10.8565  -16.2674   23.2048 O   0  0  0  0  0  0  0  0  0  0  0  0
    7.1012  -11.2034   20.4967 N   0  0  0  0  0  0  0  0  0  0  0  0
   12.5561  -17.6129   22.5240 C   0  0  1  0  0  0  0  0  0  0  0  0
   13.3670  -17.2261   23.6931 C   0  0  0  0  0  0  0  0  0  0  0  0
   13.8329  -18.5217   24.2974 C   0  0  0  0  0  0  0  0  0  0  0  0
   14.5216  -18.3657   25.5969 O   0  0  0  0  0  0  0  0  0  0  0  0
   14.7371  -17.2242   26.0601 C   0  0  0  0  0  0  0  0  0  0  0  0
   14.4796  -16.3566   23.2585 O   0  0  0  0  0  0  0  0  0  0  0  0
   15.1772  -15.5561   24.1402 O   0  0  0  0  0  0  0  0  0  0  0  0
   14.9415  -19.4623   26.3276 O   0  0  0  0  0  0  0  0  0  0  0  0
  2  1  1  6
  2  4  1  0
  3  2  1  0
  4  5  1  6
  6  4  1  0
  6 16  1  0
  7  6  2  0
  8  9  1  0
  9 10  2  0
 11 12  1  0
 11  9  1  0
 13 14  1  0
 13 12  1  0
 15 16  1  0
 15 14  1  6
 17 15  1  0
 18 17  2  0
 19 17  1  0
 20 24  1  0
 20 19  1  0
 20 21  1  6
 22 21  1  0
 23 22  2  0
 24 25  1  0
 26 22  1  0
 27 24  2  0
M  END
$$$$
