TRD.pdb
     RDKit          3D

 27 26  0  0  1  0  0  0  0  0999 V2000
   11.1494  -18.8929   17.5461 C   0  0  0  0  0  0  0  0  0  0  0  0
    9.7451  -18.8141   18.0734 C   0  0  1  0  0  0  0  0  0  0  0  0
    8.9451  -19.6879   17.3482 O   0  0  0  0  0  0  0  0  0  0  0  0
    9.6819  -19.2021   19.5277 C   0  0  2  0  0  0  0  0  0  0  0  0
    8.3308  -19.5651   19.8858 N   0  0  0  0  0  0  0  0  0  0  0  0
   10.2139  -18.0928   20.3795 C   0  0  0  0  0  0  0  0  0  0  0  0
   11.4462  -17.9092   20.3094 O   0  0  0  0  0  0  0  0  0  0  0  0
    7.5624  -13.1406   17.7497 N   0  0  0  0  0  0  0  0  0  0  0  0
    7.5187  -12.6795   19.1091 C   0  0  0  0  0  0  0  0  0  0  0  0
    8.2955  -11.7438   19.5018 N   0  0  0  0  0  0  0  0  0  0  0  0
    6.6190  -13.2418   20.0508 N   0  0  0  0  0  0  0  0  0  0  0  0
    7.0980  -13.6913   21.3231 C   0  0  0  0  0  0  0  0  0  0  0  0
    8.2350  -14.6751   21.0658 C   0  0  0  0  0  0  0  0  0  0  0  0
    8.6598  -15.3133   22.3819 C   0  0  0  0  0  0  0  0  0  0  0  0
    9.7352  -16.2983   22.1034 C   0  0  2  0  0  0  0  0  0  0  0  0
    9.3600  -17.3290   21.1902 N   0  0  0  0  0  0  0  0  0  0  0  0
   10.3826  -16.7685   23.3581 C   0  0  0  0  0  0  0  0  0  0  0  0
    9.8001  -17.0291   24.4289 O   0  0  0  0  0  0  0  0  0  0  0  0
    8.3726  -11.3696   20.4473 N   0  0  0  0  0  0  0  0  0  0  0  0
   11.7960  -16.9417   23.3467 C   0  0  2  0  0  0  0  0  0  0  0  0
   12.5103  -17.3384   24.5740 C   0  0  0  0  0  0  0  0  0  0  0  0
   13.6666  -16.3837   24.6846 C   0  0  0  0  0  0  0  0  0  0  0  0
   14.6554  -16.5078   23.5915 O   0  0  0  0  0  0  0  0  0  0  0  0
   14.4757  -17.3382   22.6739 C   0  0  0  0  0  0  0  0  0  0  0  0
   11.5897  -17.2691   25.7274 O   0  0  0  0  0  0  0  0  0  0  0  0
   10.3095  -16.7650   25.6195 O   0  0  0  0  0  0  0  0  0  0  0  0
   15.7914  -15.7201   23.5530 O   0  0  0  0  0  0  0  0  0  0  0  0
  2  1  1  6
  2  4  1  0
  3  2  1  0
  4  5  1  1
  6  4  1  0
  6 16  1  0
  7  6  2  0
  8  9  1  0
  9 10  2  0
 11 12  1  0
 11  9  1  0
 13 14  1  0
 13 12  1  0
 15 16  1  0
 15 14  1  1
 17 15  1  0
 18 17  2  0
 19 17  1  0
 20 24  1  0
 20 19  1  0
 20 21  1  6
 22 21  1  0
 23 22  2  0
 24 25  1  0
 26 22  1  0
 27 24  2  0
M  END
$$$$
