TRD.pdb
     RDKit          3D

 27 26  0  0  1  0  0  0  0  0999 V2000
   11.4464  -17.6097   14.4938 C   0  0  0  0  0  0  0  0  0  0  0  0
   11.2952  -17.4802   15.9826 C   0  0  1  0  0  0  0  0  0  0  0  0
   12.2442  -16.5811   16.4523 O   0  0  0  0  0  0  0  0  0  0  0  0
    9.9273  -16.9697   16.3534 C   0  0  2  0  0  0  0  0  0  0  0  0
    9.6537  -15.7340   15.6580 N   0  0  0  0  0  0  0  0  0  0  0  0
    9.8199  -16.8184   17.8383 C   0  0  0  0  0  0  0  0  0  0  0  0
   10.0407  -15.6708   18.2759 O   0  0  0  0  0  0  0  0  0  0  0  0
    3.7342  -21.3584   20.8213 N   0  0  0  0  0  0  0  0  0  0  0  0
    3.7917  -20.4849   19.6827 C   0  0  0  0  0  0  0  0  0  0  0  0
    2.7885  -20.3744   18.8988 N   0  0  0  0  0  0  0  0  0  0  0  0
    4.9530  -19.7225   19.3951 N   0  0  0  0  0  0  0  0  0  0  0  0
    6.1046  -19.8199   20.2404 C   0  0  0  0  0  0  0  0  0  0  0  0
    7.1198  -18.7894   19.7563 C   0  0  0  0  0  0  0  0  0  0  0  0
    8.3821  -18.8857   20.6033 C   0  0  0  0  0  0  0  0  0  0  0  0
    9.3776  -17.9174   20.0784 C   0  0  2  0  0  0  0  0  0  0  0  0
    9.4909  -17.9109   18.6556 N   0  0  0  0  0  0  0  0  0  0  0  0
   10.6670  -18.0068   20.8160 C   0  0  0  0  0  0  0  0  0  0  0  0
   11.6042  -18.7875   20.5595 O   0  0  0  0  0  0  0  0  0  0  0  0
    2.7462  -19.8395   18.0317 N   0  0  0  0  0  0  0  0  0  0  0  0
   10.8601  -17.1242   21.9167 C   0  0  1  0  0  0  0  0  0  0  0  0
   12.0810  -17.2107   22.7387 C   0  0  0  0  0  0  0  0  0  0  0  0
   12.7338  -15.8613   22.6202 C   0  0  0  0  0  0  0  0  0  0  0  0
   13.6024  -15.7159   21.4319 O   0  0  0  0  0  0  0  0  0  0  0  0
   13.7495  -16.6733   20.6410 C   0  0  0  0  0  0  0  0  0  0  0  0
   11.7193  -17.5590   24.1281 O   0  0  0  0  0  0  0  0  0  0  0  0
   12.6534  -17.9947   25.0459 O   0  0  0  0  0  0  0  0  0  0  0  0
   14.2679  -14.5333   21.1646 O   0  0  0  0  0  0  0  0  0  0  0  0
  2  1  1  6
  2  4  1  0
  3  2  1  0
  4  5  1  6
  6  4  1  0
  6 16  1  0
  7  6  2  0
  8  9  1  0
  9 10  2  0
 11 12  1  0
 11  9  1  0
 13 14  1  0
 13 12  1  0
 15 16  1  0
 15 14  1  6
 17 15  1  0
 18 17  2  0
 19 17  1  0
 20 24  1  0
 20 19  1  0
 20 21  1  1
 22 21  1  0
 23 22  2  0
 24 25  1  0
 26 22  1  0
 27 24  2  0
M  END
$$$$
