TRD.pdb
     RDKit          3D

 27 26  0  0  1  0  0  0  0  0999 V2000
    7.3934  -14.2484   16.6032 C   0  0  0  0  0  0  0  0  0  0  0  0
    7.9626  -14.5854   17.9518 C   0  0  1  0  0  0  0  0  0  0  0  0
    9.3172  -14.8587   17.8103 O   0  0  0  0  0  0  0  0  0  0  0  0
    7.8037  -13.4398   18.9170 C   0  0  2  0  0  0  0  0  0  0  0  0
    8.3541  -12.2319   18.3481 N   0  0  0  0  0  0  0  0  0  0  0  0
    8.4322  -13.7832   20.2309 C   0  0  0  0  0  0  0  0  0  0  0  0
    9.6322  -13.4620   20.3494 O   0  0  0  0  0  0  0  0  0  0  0  0
    7.4749  -19.6119   26.4028 N   0  0  0  0  0  0  0  0  0  0  0  0
    8.1595  -18.3725   26.6432 C   0  0  0  0  0  0  0  0  0  0  0  0
    9.4265  -18.3530   26.8085 N   0  0  0  0  0  0  0  0  0  0  0  0
    7.4577  -17.1410   26.7028 N   0  0  0  0  0  0  0  0  0  0  0  0
    6.7792  -16.6435   25.5443 C   0  0  0  0  0  0  0  0  0  0  0  0
    7.8397  -16.1424   24.5690 C   0  0  0  0  0  0  0  0  0  0  0  0
    7.1593  -15.5438   23.3448 C   0  0  0  0  0  0  0  0  0  0  0  0
    8.2045  -14.9897   22.4476 C   0  0  2  0  0  0  0  0  0  0  0  0
    7.6961  -14.4220   21.2407 N   0  0  0  0  0  0  0  0  0  0  0  0
    9.3342  -15.9424   22.2726 C   0  0  0  0  0  0  0  0  0  0  0  0
    9.3204  -16.9732   21.5719 O   0  0  0  0  0  0  0  0  0  0  0  0
   10.0050  -17.5364   27.0047 N   0  0  0  0  0  0  0  0  0  0  0  0
   10.5477  -15.6610   22.9626 C   0  0  2  0  0  0  0  0  0  0  0  0
   11.7011  -16.5722   22.8482 C   0  0  0  0  0  0  0  0  0  0  0  0
   12.8747  -15.6867   22.5324 C   0  0  0  0  0  0  0  0  0  0  0  0
   14.1668  -16.4031   22.4631 O   0  0  0  0  0  0  0  0  0  0  0  0
   14.2344  -17.5241   21.9128 C   0  0  0  0  0  0  0  0  0  0  0  0
   11.8657  -17.3240   24.1092 O   0  0  0  0  0  0  0  0  0  0  0  0
   11.1185  -17.0464   25.2359 O   0  0  0  0  0  0  0  0  0  0  0  0
   15.3219  -15.8616   22.9972 O   0  0  0  0  0  0  0  0  0  0  0  0
  2  1  1  6
  2  4  1  0
  3  2  1  0
  4  5  1  6
  6  4  1  0
  6 16  1  0
  7  6  2  0
  8  9  1  0
  9 10  2  0
 11 12  1  0
 11  9  1  0
 13 14  1  0
 13 12  1  0
 15 16  1  0
 15 14  1  6
 17 15  1  0
 18 17  2  0
 19 17  1  0
 20 24  1  0
 20 19  1  0
 20 21  1  1
 22 21  1  0
 23 22  2  0
 24 25  1  0
 26 22  1  0
 27 24  2  0
M  END
$$$$
