TRD.pdb
     RDKit          3D

 27 26  0  0  1  0  0  0  0  0999 V2000
   10.5565  -19.0955   17.2660 C   0  0  0  0  0  0  0  0  0  0  0  0
   10.6747  -18.1809   18.4518 C   0  0  1  0  0  0  0  0  0  0  0  0
   10.2268  -16.9171   18.0886 O   0  0  0  0  0  0  0  0  0  0  0  0
    9.8419  -18.6699   19.6079 C   0  0  2  0  0  0  0  0  0  0  0  0
    8.4459  -18.6924   19.2391 N   0  0  0  0  0  0  0  0  0  0  0  0
   10.0937  -17.8248   20.8169 C   0  0  0  0  0  0  0  0  0  0  0  0
   11.2781  -17.7916   21.2084 O   0  0  0  0  0  0  0  0  0  0  0  0
    7.0500  -13.7969   18.8696 N   0  0  0  0  0  0  0  0  0  0  0  0
    7.8962  -12.9094   19.6171 C   0  0  0  0  0  0  0  0  0  0  0  0
    7.5056  -11.7260   19.9002 N   0  0  0  0  0  0  0  0  0  0  0  0
    9.1808  -13.3146   20.0625 N   0  0  0  0  0  0  0  0  0  0  0  0
    9.3088  -14.1781   21.1974 C   0  0  0  0  0  0  0  0  0  0  0  0
    7.9016  -14.5379   21.6636 C   0  0  0  0  0  0  0  0  0  0  0  0
    7.9890  -15.4555   22.8761 C   0  0  0  0  0  0  0  0  0  0  0  0
    9.1140  -16.4025   22.6712 C   0  0  2  0  0  0  0  0  0  0  0  0
    9.0488  -17.1288   21.4442 N   0  0  0  0  0  0  0  0  0  0  0  0
    9.3592  -17.2289   23.8842 C   0  0  0  0  0  0  0  0  0  0  0  0
    8.5370  -17.9911   24.4289 O   0  0  0  0  0  0  0  0  0  0  0  0
    8.0448  -11.0008   20.3725 N   0  0  0  0  0  0  0  0  0  0  0  0
   10.6474  -17.1514   24.4861 C   0  0  2  0  0  0  0  0  0  0  0  0
   10.9673  -17.9638   25.6742 C   0  0  0  0  0  0  0  0  0  0  0  0
   12.4659  -17.9223   25.7897 C   0  0  0  0  0  0  0  0  0  0  0  0
   13.1750  -18.4733   24.6144 O   0  0  0  0  0  0  0  0  0  0  0  0
   12.7599  -19.5160   24.0628 C   0  0  0  0  0  0  0  0  0  0  0  0
   10.2797  -17.4050   26.8563 O   0  0  0  0  0  0  0  0  0  0  0  0
   10.3038  -18.0295   28.0868 O   0  0  0  0  0  0  0  0  0  0  0  0
   14.3019  -17.8597   24.0983 O   0  0  0  0  0  0  0  0  0  0  0  0
  2  1  1  6
  2  4  1  0
  3  2  1  0
  4  5  1  6
  6  4  1  0
  6 16  1  0
  7  6  2  0
  8  9  1  0
  9 10  2  0
 11 12  1  0
 11  9  1  0
 13 14  1  0
 13 12  1  0
 15 16  1  0
 15 14  1  1
 17 15  1  0
 18 17  2  0
 19 17  1  0
 20 24  1  0
 20 19  1  0
 20 21  1  6
 22 21  1  0
 23 22  2  0
 24 25  1  0
 26 22  1  0
 27 24  2  0
M  END
$$$$
