TRD.pdb
     RDKit          3D

 27 26  0  0  1  0  0  0  0  0999 V2000
   10.6209  -20.3801   16.2764 C   0  0  0  0  0  0  0  0  0  0  0  0
   11.1012  -19.5832   17.4556 C   0  0  1  0  0  0  0  0  0  0  0  0
   12.4831  -19.6961   17.5391 O   0  0  0  0  0  0  0  0  0  0  0  0
   10.7476  -18.1257   17.3144 C   0  0  2  0  0  0  0  0  0  0  0  0
   11.2746  -17.6054   16.0746 N   0  0  0  0  0  0  0  0  0  0  0  0
   11.2382  -17.3600   18.5028 C   0  0  0  0  0  0  0  0  0  0  0  0
   12.4059  -16.9285   18.4156 O   0  0  0  0  0  0  0  0  0  0  0  0
    8.2795  -12.7477   18.4233 N   0  0  0  0  0  0  0  0  0  0  0  0
    7.7783  -12.4325   19.7317 C   0  0  0  0  0  0  0  0  0  0  0  0
    8.0238  -11.2969   20.2640 N   0  0  0  0  0  0  0  0  0  0  0  0
    7.0005  -13.3626   20.4682 N   0  0  0  0  0  0  0  0  0  0  0  0
    7.6372  -14.2916   21.3523 C   0  0  0  0  0  0  0  0  0  0  0  0
    8.8819  -14.8202   20.6464 C   0  0  0  0  0  0  0  0  0  0  0  0
    9.5451  -15.8806   21.5157 C   0  0  0  0  0  0  0  0  0  0  0  0
   10.7319  -16.4067   20.7954 C   0  0  2  0  0  0  0  0  0  0  0  0
   10.4172  -17.1573   19.6229 N   0  0  0  0  0  0  0  0  0  0  0  0
   11.6903  -17.0604   21.7276 C   0  0  0  0  0  0  0  0  0  0  0  0
   11.5922  -18.2149   22.1870 O   0  0  0  0  0  0  0  0  0  0  0  0
    7.7493  -10.9862   21.1956 N   0  0  0  0  0  0  0  0  0  0  0  0
   12.8278  -16.3088   22.1386 C   0  0  2  0  0  0  0  0  0  0  0  0
   13.8213  -16.8978   23.0550 C   0  0  0  0  0  0  0  0  0  0  0  0
   15.0140  -15.9848   22.9849 C   0  0  0  0  0  0  0  0  0  0  0  0
   16.1533  -16.4185   23.8225 O   0  0  0  0  0  0  0  0  0  0  0  0
   16.6746  -15.6226   24.6340 C   0  0  0  0  0  0  0  0  0  0  0  0
   13.2463  -16.9961   24.4124 O   0  0  0  0  0  0  0  0  0  0  0  0
   13.6490  -17.9588   25.3156 O   0  0  0  0  0  0  0  0  0  0  0  0
   16.6680  -17.6992   23.7338 O   0  0  0  0  0  0  0  0  0  0  0  0
  2  1  1  6
  2  4  1  0
  3  2  1  0
  4  5  1  6
  6  4  1  0
  6 16  1  0
  7  6  2  0
  8  9  1  0
  9 10  2  0
 11 12  1  0
 11  9  1  0
 13 14  1  0
 13 12  1  0
 15 16  1  0
 15 14  1  1
 17 15  1  0
 18 17  2  0
 19 17  1  0
 20 24  1  0
 20 19  1  0
 20 21  1  6
 22 21  1  0
 23 22  2  0
 24 25  1  0
 26 22  1  0
 27 24  2  0
M  END
$$$$
