TRD.pdb
     RDKit          3D

 27 26  0  0  1  0  0  0  0  0999 V2000
   11.3596  -14.5400   18.6078 C   0  0  0  0  0  0  0  0  0  0  0  0
   10.5164  -13.2973   18.6409 C   0  0  1  0  0  0  0  0  0  0  0  0
   10.8884  -12.4759   17.5843 O   0  0  0  0  0  0  0  0  0  0  0  0
    9.0523  -13.6230   18.5016 C   0  0  2  0  0  0  0  0  0  0  0  0
    8.2757  -12.4063   18.4555 N   0  0  0  0  0  0  0  0  0  0  0  0
    8.6190  -14.5285   19.6114 C   0  0  0  0  0  0  0  0  0  0  0  0
    8.6345  -14.0216   20.7515 O   0  0  0  0  0  0  0  0  0  0  0  0
    4.5719  -21.6454   23.2145 N   0  0  0  0  0  0  0  0  0  0  0  0
    4.8916  -21.4421   21.8292 C   0  0  0  0  0  0  0  0  0  0  0  0
    3.9685  -21.4308   20.9455 N   0  0  0  0  0  0  0  0  0  0  0  0
    6.2301  -21.2475   21.4013 N   0  0  0  0  0  0  0  0  0  0  0  0
    6.5138  -20.3756   20.3016 C   0  0  0  0  0  0  0  0  0  0  0  0
    7.0292  -19.0604   20.8776 C   0  0  0  0  0  0  0  0  0  0  0  0
    7.3774  -18.1109   19.7387 C   0  0  0  0  0  0  0  0  0  0  0  0
    7.9421  -16.8660   20.3180 C   0  0  2  0  0  0  0  0  0  0  0  0
    8.2271  -15.8516   19.3552 N   0  0  0  0  0  0  0  0  0  0  0  0
    9.0444  -17.1601   21.2735 C   0  0  0  0  0  0  0  0  0  0  0  0
   10.2200  -17.4425   20.9700 O   0  0  0  0  0  0  0  0  0  0  0  0
    4.0783  -21.2438   19.9491 N   0  0  0  0  0  0  0  0  0  0  0  0
    8.7414  -17.1168   22.6642 C   0  0  2  0  0  0  0  0  0  0  0  0
    9.8095  -17.2807   23.6672 C   0  0  0  0  0  0  0  0  0  0  0  0
    9.1188  -17.1859   24.9994 C   0  0  0  0  0  0  0  0  0  0  0  0
   10.0139  -17.3997   26.1573 O   0  0  0  0  0  0  0  0  0  0  0  0
   11.2313  -17.6217   25.9771 C   0  0  0  0  0  0  0  0  0  0  0  0
   10.4905  -18.5751   23.4589 O   0  0  0  0  0  0  0  0  0  0  0  0
    9.7970  -19.7628   23.3440 O   0  0  0  0  0  0  0  0  0  0  0  0
    9.5372  -17.3609   27.4550 O   0  0  0  0  0  0  0  0  0  0  0  0
  2  1  1  6
  2  4  1  0
  3  2  1  0
  4  5  1  1
  6  4  1  0
  6 16  1  0
  7  6  2  0
  8  9  1  0
  9 10  2  0
 11 12  1  0
 11  9  1  0
 13 14  1  0
 13 12  1  0
 15 16  1  0
 15 14  1  6
 17 15  1  0
 18 17  2  0
 19 17  1  0
 20 24  1  0
 20 19  1  0
 20 21  1  1
 22 21  1  0
 23 22  2  0
 24 25  1  0
 26 22  1  0
 27 24  2  0
M  END
$$$$
