TRD.pdb
     RDKit          3D

 27 26  0  0  1  0  0  0  0  0999 V2000
   10.6281  -14.4336   18.1090 C   0  0  0  0  0  0  0  0  0  0  0  0
    9.5476  -13.4271   18.3845 C   0  0  1  0  0  0  0  0  0  0  0  0
    9.2751  -12.7312   17.2136 O   0  0  0  0  0  0  0  0  0  0  0  0
    8.2803  -14.0953   18.8503 C   0  0  2  0  0  0  0  0  0  0  0  0
    7.2352  -13.1133   19.0196 N   0  0  0  0  0  0  0  0  0  0  0  0
    8.5380  -14.8688   20.1052 C   0  0  0  0  0  0  0  0  0  0  0  0
    8.6260  -14.1853   21.1455 O   0  0  0  0  0  0  0  0  0  0  0  0
    4.1382  -20.9827   22.7920 N   0  0  0  0  0  0  0  0  0  0  0  0
    5.5029  -20.6063   23.0337 C   0  0  0  0  0  0  0  0  0  0  0  0
    5.9201  -20.4098   24.2255 N   0  0  0  0  0  0  0  0  0  0  0  0
    6.4238  -20.4435   21.9669 N   0  0  0  0  0  0  0  0  0  0  0  0
    6.1172  -19.5623   20.8807 C   0  0  0  0  0  0  0  0  0  0  0  0
    6.8189  -18.2353   21.1521 C   0  0  0  0  0  0  0  0  0  0  0  0
    8.3272  -18.4466   21.1317 C   0  0  0  0  0  0  0  0  0  0  0  0
    8.9905  -17.1192   21.1785 C   0  0  2  0  0  0  0  0  0  0  0  0
    8.6662  -16.2662   20.0810 N   0  0  0  0  0  0  0  0  0  0  0  0
   10.4433  -17.2455   21.4749 C   0  0  0  0  0  0  0  0  0  0  0  0
   11.3508  -17.4009   20.6346 O   0  0  0  0  0  0  0  0  0  0  0  0
    6.8788  -20.2158   24.5135 N   0  0  0  0  0  0  0  0  0  0  0  0
   10.8463  -17.1834   22.8393 C   0  0  2  0  0  0  0  0  0  0  0  0
   12.2766  -17.1915   23.1972 C   0  0  0  0  0  0  0  0  0  0  0  0
   12.8572  -15.9738   22.5331 C   0  0  0  0  0  0  0  0  0  0  0  0
   14.3073  -15.7967   22.7644 O   0  0  0  0  0  0  0  0  0  0  0  0
   14.9257  -16.5895   23.5080 C   0  0  0  0  0  0  0  0  0  0  0  0
   12.4196  -17.1729   24.6675 O   0  0  0  0  0  0  0  0  0  0  0  0
   11.3357  -17.0429   25.5119 O   0  0  0  0  0  0  0  0  0  0  0  0
   15.0117  -14.7637   22.1733 O   0  0  0  0  0  0  0  0  0  0  0  0
  2  1  1  6
  2  4  1  0
  3  2  1  0
  4  5  1  1
  6  4  1  0
  6 16  1  0
  7  6  2  0
  8  9  1  0
  9 10  2  0
 11 12  1  0
 11  9  1  0
 13 14  1  0
 13 12  1  0
 15 16  1  0
 15 14  1  6
 17 15  1  0
 18 17  2  0
 19 17  1  0
 20 24  1  0
 20 19  1  0
 20 21  1  1
 22 21  1  0
 23 22  2  0
 24 25  1  0
 26 22  1  0
 27 24  2  0
M  END
$$$$
