TRD.pdb
     RDKit          3D

 27 26  0  0  1  0  0  0  0  0999 V2000
    9.5068  -12.4231   18.5440 C   0  0  0  0  0  0  0  0  0  0  0  0
    8.4610  -13.2826   17.8929 C   0  0  1  0  0  0  0  0  0  0  0  0
    9.0927  -14.2387   17.1079 O   0  0  0  0  0  0  0  0  0  0  0  0
    7.6139  -13.9891   18.9189 C   0  0  2  0  0  0  0  0  0  0  0  0
    6.8044  -13.0329   19.6371 N   0  0  0  0  0  0  0  0  0  0  0  0
    8.4805  -14.7964   19.8336 C   0  0  0  0  0  0  0  0  0  0  0  0
    9.0283  -14.1560   20.7539 O   0  0  0  0  0  0  0  0  0  0  0  0
    7.9057  -22.0558   19.0628 N   0  0  0  0  0  0  0  0  0  0  0  0
    6.7977  -21.2109   19.4108 C   0  0  0  0  0  0  0  0  0  0  0  0
    5.7442  -21.1922   18.6877 N   0  0  0  0  0  0  0  0  0  0  0  0
    6.8362  -20.3784   20.5589 N   0  0  0  0  0  0  0  0  0  0  0  0
    7.9995  -20.3580   21.3934 C   0  0  0  0  0  0  0  0  0  0  0  0
    8.4482  -18.9057   21.5228 C   0  0  0  0  0  0  0  0  0  0  0  0
    9.1735  -18.4847   20.2513 C   0  0  0  0  0  0  0  0  0  0  0  0
    9.5216  -17.0456   20.3610 C   0  0  2  0  0  0  0  0  0  0  0  0
    8.6449  -16.1772   19.6437 N   0  0  0  0  0  0  0  0  0  0  0  0
   10.9729  -16.8159   20.1257 C   0  0  0  0  0  0  0  0  0  0  0  0
   11.5314  -16.7428   19.0137 O   0  0  0  0  0  0  0  0  0  0  0  0
    4.9082  -20.6285   18.8397 N   0  0  0  0  0  0  0  0  0  0  0  0
   11.8104  -16.6631   21.2672 C   0  0  1  0  0  0  0  0  0  0  0  0
   13.2527  -16.4026   21.1064 C   0  0  0  0  0  0  0  0  0  0  0  0
   13.3395  -15.0607   20.4335 C   0  0  0  0  0  0  0  0  0  0  0  0
   14.7233  -14.5899   20.2076 O   0  0  0  0  0  0  0  0  0  0  0  0
   15.0274  -13.3996   20.4413 C   0  0  0  0  0  0  0  0  0  0  0  0
   13.9118  -16.4313   22.4283 O   0  0  0  0  0  0  0  0  0  0  0  0
   13.2045  -16.6014   23.6011 O   0  0  0  0  0  0  0  0  0  0  0  0
   15.7075  -15.4404   19.7378 O   0  0  0  0  0  0  0  0  0  0  0  0
  2  1  1  1
  2  4  1  0
  3  2  1  0
  4  5  1  1
  6  4  1  0
  6 16  1  0
  7  6  2  0
  8  9  1  0
  9 10  2  0
 11 12  1  0
 11  9  1  0
 13 14  1  0
 13 12  1  0
 15 16  1  0
 15 14  1  6
 17 15  1  0
 18 17  2  0
 19 17  1  0
 20 24  1  0
 20 19  1  0
 20 21  1  6
 22 21  1  0
 23 22  2  0
 24 25  1  0
 26 22  1  0
 27 24  2  0
M  END
$$$$
