TRD.pdb
     RDKit          3D

 27 26  0  0  1  0  0  0  0  0999 V2000
    8.0470  -16.4818   18.3548 C   0  0  0  0  0  0  0  0  0  0  0  0
    8.3340  -15.1011   17.8373 C   0  0  1  0  0  0  0  0  0  0  0  0
    7.6953  -14.9398   16.6145 O   0  0  0  0  0  0  0  0  0  0  0  0
    7.8294  -14.0437   18.7842 C   0  0  2  0  0  0  0  0  0  0  0  0
    7.9423  -12.7388   18.1761 N   0  0  0  0  0  0  0  0  0  0  0  0
    8.5633  -14.1263   20.0857 C   0  0  0  0  0  0  0  0  0  0  0  0
    9.7854  -13.8812   20.0265 O   0  0  0  0  0  0  0  0  0  0  0  0
    6.4399  -18.9941   24.5794 N   0  0  0  0  0  0  0  0  0  0  0  0
    6.9999  -18.7472   25.8787 C   0  0  0  0  0  0  0  0  0  0  0  0
    7.3163  -19.7204   26.6441 N   0  0  0  0  0  0  0  0  0  0  0  0
    7.2193  -17.4270   26.3492 N   0  0  0  0  0  0  0  0  0  0  0  0
    6.8083  -16.3050   25.5604 C   0  0  0  0  0  0  0  0  0  0  0  0
    7.8255  -16.1348   24.4363 C   0  0  0  0  0  0  0  0  0  0  0  0
    7.5062  -14.8688   23.6520 C   0  0  0  0  0  0  0  0  0  0  0  0
    8.4847  -14.7414   22.5427 C   0  0  2  0  0  0  0  0  0  0  0  0
    7.8947  -14.4584   21.2742 N   0  0  0  0  0  0  0  0  0  0  0  0
    9.4657  -15.8604   22.5495 C   0  0  0  0  0  0  0  0  0  0  0  0
    9.2869  -16.9933   22.0614 O   0  0  0  0  0  0  0  0  0  0  0  0
    7.6744  -19.6575   27.5967 N   0  0  0  0  0  0  0  0  0  0  0  0
   10.7281  -15.6275   23.1658 C   0  0  1  0  0  0  0  0  0  0  0  0
   11.7339  -16.7031   23.2387 C   0  0  0  0  0  0  0  0  0  0  0  0
   13.0458  -16.0396   22.9229 C   0  0  0  0  0  0  0  0  0  0  0  0
   13.3300  -15.9277   21.4757 O   0  0  0  0  0  0  0  0  0  0  0  0
   13.0771  -16.8840   20.7106 C   0  0  0  0  0  0  0  0  0  0  0  0
   11.7047  -17.3187   24.5814 O   0  0  0  0  0  0  0  0  0  0  0  0
   12.4544  -18.4334   24.8977 O   0  0  0  0  0  0  0  0  0  0  0  0
   13.8759  -14.7782   20.9341 O   0  0  0  0  0  0  0  0  0  0  0  0
  2  1  1  1
  2  4  1  0
  3  2  1  0
  4  5  1  6
  6  4  1  0
  6 16  1  0
  7  6  2  0
  8  9  1  0
  9 10  2  0
 11 12  1  0
 11  9  1  0
 13 14  1  0
 13 12  1  0
 15 16  1  0
 15 14  1  1
 17 15  1  0
 18 17  2  0
 19 17  1  0
 20 24  1  0
 20 19  1  0
 20 21  1  1
 22 21  1  0
 23 22  2  0
 24 25  1  0
 26 22  1  0
 27 24  2  0
M  END
$$$$
