TRD.pdb
     RDKit          3D

 27 26  0  0  1  0  0  0  0  0999 V2000
   14.2964  -16.8048   18.5253 C   0  0  0  0  0  0  0  0  0  0  0  0
   12.8961  -16.8443   17.9831 C   0  0  1  0  0  0  0  0  0  0  0  0
   12.2092  -17.8861   18.5932 O   0  0  0  0  0  0  0  0  0  0  0  0
   12.1624  -15.5586   18.2626 C   0  0  2  0  0  0  0  0  0  0  0  0
   12.8498  -14.4504   17.6421 N   0  0  0  0  0  0  0  0  0  0  0  0
   12.0008  -15.3689   19.7381 C   0  0  0  0  0  0  0  0  0  0  0  0
   13.0007  -14.9155   20.3312 O   0  0  0  0  0  0  0  0  0  0  0  0
    9.8708  -13.1421   18.8784 N   0  0  0  0  0  0  0  0  0  0  0  0
    8.4398  -13.0897   18.7691 C   0  0  0  0  0  0  0  0  0  0  0  0
    7.8677  -12.0892   18.2171 N   0  0  0  0  0  0  0  0  0  0  0  0
    7.6227  -14.1383   19.2646 N   0  0  0  0  0  0  0  0  0  0  0  0
    7.3543  -14.2388   20.6675 C   0  0  0  0  0  0  0  0  0  0  0  0
    8.6725  -14.0261   21.4051 C   0  0  0  0  0  0  0  0  0  0  0  0
    9.0849  -15.3230   22.0891 C   0  0  0  0  0  0  0  0  0  0  0  0
   10.5119  -15.5883   21.7768 C   0  0  2  0  0  0  0  0  0  0  0  0
   10.7949  -15.6877   20.3813 N   0  0  0  0  0  0  0  0  0  0  0  0
   11.0577  -16.6910   22.6138 C   0  0  0  0  0  0  0  0  0  0  0  0
   10.6704  -17.8757   22.6066 O   0  0  0  0  0  0  0  0  0  0  0  0
    6.8688  -11.9725   18.0484 N   0  0  0  0  0  0  0  0  0  0  0  0
   12.1206  -16.3768   23.5079 C   0  0  1  0  0  0  0  0  0  0  0  0
   12.7954  -17.4429   24.2706 C   0  0  0  0  0  0  0  0  0  0  0  0
   14.2219  -16.9878   24.4089 C   0  0  0  0  0  0  0  0  0  0  0  0
   15.0547  -17.8693   25.2557 O   0  0  0  0  0  0  0  0  0  0  0  0
   15.2144  -19.0701   24.9452 C   0  0  0  0  0  0  0  0  0  0  0  0
   12.1178  -17.6273   25.5704 O   0  0  0  0  0  0  0  0  0  0  0  0
   12.3873  -18.6994   26.3967 O   0  0  0  0  0  0  0  0  0  0  0  0
   15.6726  -17.3977   26.3997 O   0  0  0  0  0  0  0  0  0  0  0  0
  2  1  1  1
  2  4  1  0
  3  2  1  0
  4  5  1  1
  6  4  1  0
  6 16  1  0
  7  6  2  0
  8  9  1  0
  9 10  2  0
 11 12  1  0
 11  9  1  0
 13 14  1  0
 13 12  1  0
 15 16  1  0
 15 14  1  6
 17 15  1  0
 18 17  2  0
 19 17  1  0
 20 24  1  0
 20 19  1  0
 20 21  1  1
 22 21  1  0
 23 22  2  0
 24 25  1  0
 26 22  1  0
 27 24  2  0
M  END
$$$$
