VQT.pdb
     RDKit          3D

 24 23  0  0  1  0  0  0  0  0999 V2000
    7.9477  -12.3696   20.7475 C   0  0  0  0  0  0  0  0  0  0  0  0
    7.5687  -13.3985   19.7155 C   0  0  1  0  0  0  0  0  0  0  0  0
    7.5552  -12.7880   18.3599 C   0  0  0  0  0  0  0  0  0  0  0  0
    8.2780  -14.6975   19.8515 C   0  0  2  0  0  0  0  0  0  0  0  0
    7.6457  -15.6188   18.8926 N   0  0  0  0  0  0  0  0  0  0  0  0
    8.2526  -15.3389   21.1563 C   0  0  0  0  0  0  0  0  0  0  0  0
    7.1849  -15.9133   21.5745 O   0  0  0  0  0  0  0  0  0  0  0  0
   11.9185  -19.1735   24.1146 N   0  0  0  0  0  0  0  0  0  0  0  0
   11.1108  -18.6989   25.2012 C   0  0  0  0  0  0  0  0  0  0  0  0
   11.2480  -19.3109   26.2844 O   0  0  0  0  0  0  0  0  0  0  0  0
   10.2173  -17.5666   24.9591 C   0  0  0  0  0  0  0  0  0  0  0  0
   10.2309  -17.0166   23.5674 C   0  0  0  0  0  0  0  0  0  0  0  0
    9.1888  -15.9349   23.4161 C   0  0  2  0  0  0  0  0  0  0  0  0
    9.3458  -15.4024   22.0691 N   0  0  0  0  0  0  0  0  0  0  0  0
    9.2989  -14.9043   24.4673 C   0  0  0  0  0  0  0  0  0  0  0  0
   10.3445  -14.2129   24.5617 O   0  0  0  0  0  0  0  0  0  0  0  0
    6.6827  -12.0496   25.6155 C   0  0  0  0  0  0  0  0  0  0  0  0
    6.9337  -13.0975   26.6766 C   0  0  1  0  0  0  0  0  0  0  0  0
    5.9208  -14.0496   26.5558 O   0  0  0  0  0  0  0  0  0  0  0  0
    8.2890  -13.7056   26.4105 C   0  0  2  0  0  0  0  0  0  0  0  0
    8.2178  -14.7070   25.3616 N   0  0  0  0  0  0  0  0  0  0  0  0
    8.7738  -14.3222   27.6681 C   0  0  0  0  0  0  0  0  0  0  0  0
    8.9971  -15.5590   27.7027 O   0  0  0  0  0  0  0  0  0  0  0  0
    8.9852  -13.5671   28.8020 O   0  0  0  0  0  0  0  0  0  0  0  0
  2  1  1  1
  2  3  1  0
  4  2  1  0
  4  5  1  6
  6  4  1  0
  6  7  2  0
  8  9  1  0
  9 11  1  0
 10  9  2  0
 11 12  1  0
 13 12  1  1
 13 14  1  0
 14  6  1  0
 15 13  1  0
 16 15  2  0
 18 17  1  6
 18 20  1  0
 19 18  1  0
 20 22  1  0
 20 21  1  6
 21 15  1  0
 22 24  1  0
 23 22  2  0
M  END
$$$$
