VQT.pdb
     RDKit          3D

 24 23  0  0  1  0  0  0  0  0999 V2000
    7.9431  -12.6785   19.2559 C   0  0  0  0  0  0  0  0  0  0  0  0
    8.2021  -13.3501   20.5785 C   0  0  1  0  0  0  0  0  0  0  0  0
    7.1899  -12.9231   21.5802 C   0  0  0  0  0  0  0  0  0  0  0  0
    8.4705  -14.8090   20.4863 C   0  0  2  0  0  0  0  0  0  0  0  0
    7.2935  -15.4078   19.8351 N   0  0  0  0  0  0  0  0  0  0  0  0
    8.6944  -15.5269   21.7309 C   0  0  0  0  0  0  0  0  0  0  0  0
    7.7028  -15.9979   22.3939 O   0  0  0  0  0  0  0  0  0  0  0  0
   11.2980  -20.1050   24.3010 N   0  0  0  0  0  0  0  0  0  0  0  0
   10.8605  -19.8440   22.9600 C   0  0  0  0  0  0  0  0  0  0  0  0
   10.5339  -20.8509   22.2920 O   0  0  0  0  0  0  0  0  0  0  0  0
   10.8321  -18.4569   22.4966 C   0  0  0  0  0  0  0  0  0  0  0  0
   11.1880  -17.4247   23.5199 C   0  0  0  0  0  0  0  0  0  0  0  0
   10.0891  -16.3964   23.6380 C   0  0  2  0  0  0  0  0  0  0  0  0
    9.9659  -15.7779   22.3246 N   0  0  0  0  0  0  0  0  0  0  0  0
   10.3492  -15.4246   24.7184 C   0  0  0  0  0  0  0  0  0  0  0  0
   11.2278  -14.5382   24.5675 O   0  0  0  0  0  0  0  0  0  0  0  0
    8.7494  -12.6573   26.1686 C   0  0  0  0  0  0  0  0  0  0  0  0
    8.7550  -13.6695   27.2922 C   0  0  1  0  0  0  0  0  0  0  0  0
    7.5234  -14.3245   27.2559 O   0  0  0  0  0  0  0  0  0  0  0  0
    9.8917  -14.6297   27.0403 C   0  0  2  0  0  0  0  0  0  0  0  0
    9.6005  -15.5044   25.9186 N   0  0  0  0  0  0  0  0  0  0  0  0
   10.0991  -15.4326   28.2688 C   0  0  0  0  0  0  0  0  0  0  0  0
    9.8956  -16.6728   28.2369 O   0  0  0  0  0  0  0  0  0  0  0  0
   10.5110  -14.8472   29.4471 O   0  0  0  0  0  0  0  0  0  0  0  0
  2  1  1  6
  2  3  1  0
  4  2  1  0
  4  5  1  1
  6  4  1  0
  6  7  2  0
  8  9  1  0
  9 11  1  0
 10  9  2  0
 11 12  1  0
 13 12  1  6
 13 14  1  0
 14  6  1  0
 15 13  1  0
 16 15  2  0
 18 17  1  6
 18 20  1  0
 19 18  1  0
 20 22  1  0
 20 21  1  6
 21 15  1  0
 22 24  1  0
 23 22  2  0
M  END
$$$$
