VQT.pdb
     RDKit          3D

 24 23  0  0  1  0  0  0  0  0999 V2000
    8.3387  -12.8890   18.3754 C   0  0  0  0  0  0  0  0  0  0  0  0
    8.2908  -13.3438   19.8101 C   0  0  1  0  0  0  0  0  0  0  0  0
    7.1272  -12.7332   20.5055 C   0  0  0  0  0  0  0  0  0  0  0  0
    8.4856  -14.8050   19.9998 C   0  0  2  0  0  0  0  0  0  0  0  0
    7.4336  -15.4703   19.2133 N   0  0  0  0  0  0  0  0  0  0  0  0
    8.4072  -15.3184   21.3581 C   0  0  0  0  0  0  0  0  0  0  0  0
    7.2736  -15.6419   21.8633 O   0  0  0  0  0  0  0  0  0  0  0  0
   12.0745  -19.2754   24.0365 N   0  0  0  0  0  0  0  0  0  0  0  0
   11.2789  -19.1894   22.8459 C   0  0  0  0  0  0  0  0  0  0  0  0
   11.4639  -20.0980   22.0051 O   0  0  0  0  0  0  0  0  0  0  0  0
   10.3401  -18.0752   22.7172 C   0  0  0  0  0  0  0  0  0  0  0  0
   10.3914  -17.0553   23.8111 C   0  0  0  0  0  0  0  0  0  0  0  0
    9.3361  -15.9972   23.5974 C   0  0  2  0  0  0  0  0  0  0  0  0
    9.5141  -15.5124   22.2351 N   0  0  0  0  0  0  0  0  0  0  0  0
    9.4069  -14.9268   24.6115 C   0  0  0  0  0  0  0  0  0  0  0  0
   10.2990  -14.0446   24.5320 O   0  0  0  0  0  0  0  0  0  0  0  0
    6.7391  -12.3962   25.6800 C   0  0  0  0  0  0  0  0  0  0  0  0
    7.0640  -13.2934   26.8532 C   0  0  1  0  0  0  0  0  0  0  0  0
    6.1186  -14.3197   26.8546 O   0  0  0  0  0  0  0  0  0  0  0  0
    8.4573  -13.8349   26.6459 C   0  0  2  0  0  0  0  0  0  0  0  0
    8.4627  -14.9079   25.6677 N   0  0  0  0  0  0  0  0  0  0  0  0
    8.9577  -14.3340   27.9487 C   0  0  0  0  0  0  0  0  0  0  0  0
    9.1978  -15.5601   28.0886 O   0  0  0  0  0  0  0  0  0  0  0  0
    9.1656  -13.4808   29.0115 O   0  0  0  0  0  0  0  0  0  0  0  0
  2  1  1  6
  2  3  1  0
  4  2  1  0
  4  5  1  6
  6  4  1  0
  6  7  2  0
  8  9  1  0
  9 11  1  0
 10  9  2  0
 11 12  1  0
 13 12  1  1
 13 14  1  0
 14  6  1  0
 15 13  1  0
 16 15  2  0
 18 17  1  6
 18 20  1  0
 19 18  1  0
 20 22  1  0
 20 21  1  6
 21 15  1  0
 22 24  1  0
 23 22  2  0
M  END
$$$$
