VQT.pdb
     RDKit          3D

 24 23  0  0  1  0  0  0  0  0999 V2000
    8.7127  -12.6127   20.3571 C   0  0  0  0  0  0  0  0  0  0  0  0
    7.9042  -13.3982   19.3587 C   0  0  1  0  0  0  0  0  0  0  0  0
    7.4911  -12.5245   18.2289 C   0  0  0  0  0  0  0  0  0  0  0  0
    8.4839  -14.7187   18.9993 C   0  0  2  0  0  0  0  0  0  0  0  0
    7.5285  -15.3551   18.0774 N   0  0  0  0  0  0  0  0  0  0  0  0
    8.7358  -15.6548   20.0832 C   0  0  0  0  0  0  0  0  0  0  0  0
    7.7692  -16.3178   20.6036 O   0  0  0  0  0  0  0  0  0  0  0  0
   13.3660  -20.2754   23.4125 N   0  0  0  0  0  0  0  0  0  0  0  0
   12.9143  -19.4742   22.3116 C   0  0  0  0  0  0  0  0  0  0  0  0
   13.6306  -19.5117   21.2857 O   0  0  0  0  0  0  0  0  0  0  0  0
   11.6840  -18.7002   22.4749 C   0  0  0  0  0  0  0  0  0  0  0  0
   11.5055  -17.5589   21.5236 C   0  0  0  0  0  0  0  0  0  0  0  0
   10.1689  -16.8922   21.7425 C   0  0  2  0  0  0  0  0  0  0  0  0
   10.0102  -15.9306   20.6596 N   0  0  0  0  0  0  0  0  0  0  0  0
   10.0627  -16.2838   23.0833 C   0  0  0  0  0  0  0  0  0  0  0  0
   10.6897  -15.2260   23.3442 O   0  0  0  0  0  0  0  0  0  0  0  0
    7.3928  -14.7253   24.8493 C   0  0  0  0  0  0  0  0  0  0  0  0
    7.7106  -15.9372   25.6963 C   0  0  1  0  0  0  0  0  0  0  0  0
    6.8110  -16.9382   25.3281 O   0  0  0  0  0  0  0  0  0  0  0  0
    9.1329  -16.3453   25.3994 C   0  0  2  0  0  0  0  0  0  0  0  0
    9.2504  -16.9042   24.0645 N   0  0  0  0  0  0  0  0  0  0  0  0
    9.5453  -17.3501   26.4079 C   0  0  0  0  0  0  0  0  0  0  0  0
    9.8838  -18.5004   26.0300 O   0  0  0  0  0  0  0  0  0  0  0  0
    9.5656  -17.0494   27.7532 O   0  0  0  0  0  0  0  0  0  0  0  0
  2  1  1  6
  2  3  1  0
  4  2  1  0
  4  5  1  6
  6  4  1  0
  6  7  2  0
  8  9  1  0
  9 11  1  0
 10  9  2  0
 11 12  1  0
 13 12  1  1
 13 14  1  0
 14  6  1  0
 15 13  1  0
 16 15  2  0
 18 17  1  6
 18 20  1  0
 19 18  1  0
 20 22  1  0
 20 21  1  6
 21 15  1  0
 22 24  1  0
 23 22  2  0
M  END
$$$$
