VQT.pdb
     RDKit          3D

 24 23  0  0  1  0  0  0  0  0999 V2000
    8.1787  -12.8613   18.5958 C   0  0  0  0  0  0  0  0  0  0  0  0
    8.1930  -13.3229   20.0290 C   0  0  1  0  0  0  0  0  0  0  0  0
    7.1318  -12.6281   20.8046 C   0  0  0  0  0  0  0  0  0  0  0  0
    8.2838  -14.7964   20.2006 C   0  0  2  0  0  0  0  0  0  0  0  0
    7.1574  -15.3728   19.4478 N   0  0  0  0  0  0  0  0  0  0  0  0
    8.2153  -15.3162   21.5570 C   0  0  0  0  0  0  0  0  0  0  0  0
    7.0790  -15.5441   22.1061 O   0  0  0  0  0  0  0  0  0  0  0  0
   12.3389  -18.7275   25.5767 N   0  0  0  0  0  0  0  0  0  0  0  0
   10.9162  -18.9070   25.6190 C   0  0  0  0  0  0  0  0  0  0  0  0
   10.5251  -20.0621   25.9010 O   0  0  0  0  0  0  0  0  0  0  0  0
   10.0622  -17.7534   25.3374 C   0  0  0  0  0  0  0  0  0  0  0  0
   10.1737  -17.1866   23.9569 C   0  0  0  0  0  0  0  0  0  0  0  0
    9.1708  -16.0758   23.7589 C   0  0  2  0  0  0  0  0  0  0  0  0
    9.3354  -15.6172   22.3859 N   0  0  0  0  0  0  0  0  0  0  0  0
    9.3277  -14.9990   24.7564 C   0  0  0  0  0  0  0  0  0  0  0  0
   10.3894  -14.3268   24.7929 O   0  0  0  0  0  0  0  0  0  0  0  0
    6.7459  -12.1553   25.6649 C   0  0  0  0  0  0  0  0  0  0  0  0
    7.0499  -13.0041   26.8790 C   0  0  1  0  0  0  0  0  0  0  0  0
    6.0241  -13.9440   26.9856 O   0  0  0  0  0  0  0  0  0  0  0  0
    8.3825  -13.6741   26.6496 C   0  0  2  0  0  0  0  0  0  0  0  0
    8.2731  -14.7359   25.6653 N   0  0  0  0  0  0  0  0  0  0  0  0
    8.8501  -14.2276   27.9426 C   0  0  0  0  0  0  0  0  0  0  0  0
    9.0344  -15.4664   28.0529 O   0  0  0  0  0  0  0  0  0  0  0  0
    9.0876  -13.4115   29.0281 O   0  0  0  0  0  0  0  0  0  0  0  0
  2  1  1  6
  2  3  1  0
  4  2  1  0
  4  5  1  6
  6  4  1  0
  6  7  2  0
  8  9  1  0
  9 11  1  0
 10  9  2  0
 11 12  1  0
 13 12  1  1
 13 14  1  0
 14  6  1  0
 15 13  1  0
 16 15  2  0
 18 17  1  6
 18 20  1  0
 19 18  1  0
 20 22  1  0
 20 21  1  6
 21 15  1  0
 22 24  1  0
 23 22  2  0
M  END
$$$$
