VQT.pdb
     RDKit          3D

 24 23  0  0  1  0  0  0  0  0999 V2000
    9.5150  -12.8107   20.2181 C   0  0  0  0  0  0  0  0  0  0  0  0
    8.2943  -13.2140   19.4340 C   0  0  1  0  0  0  0  0  0  0  0  0
    7.6582  -12.0186   18.8200 C   0  0  0  0  0  0  0  0  0  0  0  0
    8.4929  -14.3897   18.5468 C   0  0  2  0  0  0  0  0  0  0  0  0
    7.2170  -14.5992   17.8424 N   0  0  0  0  0  0  0  0  0  0  0  0
    8.8562  -15.6486   19.1776 C   0  0  0  0  0  0  0  0  0  0  0  0
    7.9649  -16.5448   19.3946 O   0  0  0  0  0  0  0  0  0  0  0  0
   11.3519  -20.4375   17.6157 N   0  0  0  0  0  0  0  0  0  0  0  0
   11.5920  -19.1281   17.0811 C   0  0  0  0  0  0  0  0  0  0  0  0
   12.2964  -19.0869   16.0472 O   0  0  0  0  0  0  0  0  0  0  0  0
   11.0073  -17.9786   17.7711 C   0  0  0  0  0  0  0  0  0  0  0  0
   10.1631  -18.2999   18.9642 C   0  0  0  0  0  0  0  0  0  0  0  0
   10.4669  -17.3505   20.0980 C   0  0  2  0  0  0  0  0  0  0  0  0
   10.1671  -16.0137   19.6025 N   0  0  0  0  0  0  0  0  0  0  0  0
   11.8518  -17.4939   20.5887 C   0  0  0  0  0  0  0  0  0  0  0  0
   12.2868  -18.6261   20.9190 O   0  0  0  0  0  0  0  0  0  0  0  0
   14.9637  -15.7731   19.1010 C   0  0  0  0  0  0  0  0  0  0  0  0
   14.9504  -15.4565   20.5798 C   0  0  1  0  0  0  0  0  0  0  0  0
   14.4955  -14.1439   20.7107 O   0  0  0  0  0  0  0  0  0  0  0  0
   14.0111  -16.4292   21.2497 C   0  0  2  0  0  0  0  0  0  0  0  0
   12.6774  -16.3462   20.6817 N   0  0  0  0  0  0  0  0  0  0  0  0
   13.9671  -16.1076   22.6959 C   0  0  0  0  0  0  0  0  0  0  0  0
   12.8734  -15.7793   23.2219 O   0  0  0  0  0  0  0  0  0  0  0  0
   15.1017  -16.1610   23.4772 O   0  0  0  0  0  0  0  0  0  0  0  0
  2  1  1  6
  2  3  1  0
  4  2  1  0
  4  5  1  1
  6  4  1  0
  6  7  2  0
  8  9  1  0
  9 11  1  0
 10  9  2  0
 11 12  1  0
 13 12  1  6
 13 14  1  0
 14  6  1  0
 15 13  1  0
 16 15  2  0
 18 17  1  6
 18 20  1  0
 19 18  1  0
 20 22  1  0
 20 21  1  6
 21 15  1  0
 22 24  1  0
 23 22  2  0
M  END
$$$$
