VQT.pdb
     RDKit          3D

 24 23  0  0  1  0  0  0  0  0999 V2000
    8.4040  -12.3939   20.5523 C   0  0  0  0  0  0  0  0  0  0  0  0
    7.7102  -13.4209   19.6973 C   0  0  1  0  0  0  0  0  0  0  0  0
    7.5874  -12.9296   18.2994 C   0  0  0  0  0  0  0  0  0  0  0  0
    8.2131  -14.8086   19.8714 C   0  0  2  0  0  0  0  0  0  0  0  0
    7.3546  -15.6693   19.0406 N   0  0  0  0  0  0  0  0  0  0  0  0
    8.2089  -15.3563   21.2185 C   0  0  0  0  0  0  0  0  0  0  0  0
    7.1129  -15.7557   21.7514 O   0  0  0  0  0  0  0  0  0  0  0  0
   10.8038  -19.8231   26.0054 N   0  0  0  0  0  0  0  0  0  0  0  0
   11.2354  -18.6976   25.2275 C   0  0  0  0  0  0  0  0  0  0  0  0
   12.4233  -18.7351   24.8350 O   0  0  0  0  0  0  0  0  0  0  0  0
   10.2746  -17.6268   24.9634 C   0  0  0  0  0  0  0  0  0  0  0  0
   10.3074  -17.0534   23.5815 C   0  0  0  0  0  0  0  0  0  0  0  0
    9.2436  -15.9940   23.4232 C   0  0  2  0  0  0  0  0  0  0  0  0
    9.3536  -15.5063   22.0548 N   0  0  0  0  0  0  0  0  0  0  0  0
    9.3661  -14.9260   24.4349 C   0  0  0  0  0  0  0  0  0  0  0  0
   10.3760  -14.1774   24.4384 O   0  0  0  0  0  0  0  0  0  0  0  0
    6.7942  -12.1695   25.4723 C   0  0  0  0  0  0  0  0  0  0  0  0
    7.0819  -13.0775   26.6470 C   0  0  1  0  0  0  0  0  0  0  0  0
    6.0628  -14.0298   26.6842 O   0  0  0  0  0  0  0  0  0  0  0  0
    8.4249  -13.7239   26.4101 C   0  0  2  0  0  0  0  0  0  0  0  0
    8.3374  -14.7578   25.3945 N   0  0  0  0  0  0  0  0  0  0  0  0
    8.8883  -14.3090   27.6907 C   0  0  0  0  0  0  0  0  0  0  0  0
    9.0796  -13.5564   28.6794 O   0  0  0  0  0  0  0  0  0  0  0  0
    9.1142  -15.6628   27.8203 O   0  0  0  0  0  0  0  0  0  0  0  0
  2  1  1  1
  2  3  1  0
  4  2  1  0
  4  5  1  6
  6  4  1  0
  6  7  2  0
  8  9  1  0
  9 11  1  0
 10  9  2  0
 11 12  1  0
 13 12  1  1
 13 14  1  0
 14  6  1  0
 15 13  1  0
 16 15  2  0
 18 17  1  6
 18 20  1  0
 19 18  1  0
 20 22  1  0
 20 21  1  6
 21 15  1  0
 22 24  1  0
 23 22  2  0
M  END
$$$$
