VQT.pdb
     RDKit          3D

 24 23  0  0  1  0  0  0  0  0999 V2000
    7.8928  -13.2146   18.1281 C   0  0  0  0  0  0  0  0  0  0  0  0
    7.5883  -14.0902   19.3147 C   0  0  1  0  0  0  0  0  0  0  0  0
    7.9023  -15.5093   19.0020 C   0  0  0  0  0  0  0  0  0  0  0  0
    8.0943  -13.5683   20.6111 C   0  0  2  0  0  0  0  0  0  0  0  0
    9.5638  -13.5838   20.5204 N   0  0  0  0  0  0  0  0  0  0  0  0
    7.7225  -14.2952   21.8144 C   0  0  0  0  0  0  0  0  0  0  0  0
    6.4977  -14.6102   22.0279 O   0  0  0  0  0  0  0  0  0  0  0  0
    8.0019  -19.5486   23.0820 N   0  0  0  0  0  0  0  0  0  0  0  0
    7.3667  -19.1319   24.2988 C   0  0  0  0  0  0  0  0  0  0  0  0
    7.0074  -20.0544   25.0648 O   0  0  0  0  0  0  0  0  0  0  0  0
    7.1971  -17.6989   24.5379 C   0  0  0  0  0  0  0  0  0  0  0  0
    7.6437  -16.7997   23.4283 C   0  0  0  0  0  0  0  0  0  0  0  0
    8.1667  -15.4962   23.9820 C   0  0  2  0  0  0  0  0  0  0  0  0
    8.6213  -14.7192   22.8365 N   0  0  0  0  0  0  0  0  0  0  0  0
    9.2159  -15.7041   24.9994 C   0  0  0  0  0  0  0  0  0  0  0  0
   10.3051  -16.2427   24.6771 O   0  0  0  0  0  0  0  0  0  0  0  0
   10.0937  -12.6363   27.0846 C   0  0  0  0  0  0  0  0  0  0  0  0
    9.8911  -13.7942   28.0360 C   0  0  1  0  0  0  0  0  0  0  0  0
    8.5895  -13.6933   28.5284 O   0  0  0  0  0  0  0  0  0  0  0  0
   10.0815  -15.0706   27.2538 C   0  0  2  0  0  0  0  0  0  0  0  0
    8.9799  -15.2914   26.3341 N   0  0  0  0  0  0  0  0  0  0  0  0
   10.1708  -16.1938   28.2168 C   0  0  0  0  0  0  0  0  0  0  0  0
    9.3266  -17.1237   28.1601 O   0  0  0  0  0  0  0  0  0  0  0  0
   11.1614  -16.2401   29.1746 O   0  0  0  0  0  0  0  0  0  0  0  0
  2  1  1  6
  2  3  1  0
  4  2  1  0
  4  5  1  6
  6  4  1  0
  6  7  2  0
  8  9  1  0
  9 11  1  0
 10  9  2  0
 11 12  1  0
 13 12  1  6
 13 14  1  0
 14  6  1  0
 15 13  1  0
 16 15  2  0
 18 17  1  6
 18 20  1  0
 19 18  1  0
 20 22  1  0
 20 21  1  6
 21 15  1  0
 22 24  1  0
 23 22  2  0
M  END
$$$$
