VQT.pdb
     RDKit          3D

 24 23  0  0  1  0  0  0  0  0999 V2000
    7.3198  -13.5869   19.7390 C   0  0  0  0  0  0  0  0  0  0  0  0
    8.2832  -12.9643   18.7635 C   0  0  1  0  0  0  0  0  0  0  0  0
    9.0164  -11.8429   19.4080 C   0  0  0  0  0  0  0  0  0  0  0  0
    9.1024  -13.9406   17.9988 C   0  0  2  0  0  0  0  0  0  0  0  0
    8.1636  -14.7039   17.1597 N   0  0  0  0  0  0  0  0  0  0  0  0
    9.8851  -14.8989   18.7627 C   0  0  0  0  0  0  0  0  0  0  0  0
    9.3985  -16.0505   19.0488 O   0  0  0  0  0  0  0  0  0  0  0  0
   15.3643  -14.2348   17.1300 N   0  0  0  0  0  0  0  0  0  0  0  0
   15.1733  -14.2564   18.5516 C   0  0  0  0  0  0  0  0  0  0  0  0
   16.2165  -14.1759   19.2387 O   0  0  0  0  0  0  0  0  0  0  0  0
   13.8090  -14.3666   19.0672 C   0  0  0  0  0  0  0  0  0  0  0  0
   13.3222  -15.7591   19.3191 C   0  0  0  0  0  0  0  0  0  0  0  0
   11.9470  -15.7341   19.9413 C   0  0  2  0  0  0  0  0  0  0  0  0
   11.2066  -14.6851   19.2530 N   0  0  0  0  0  0  0  0  0  0  0  0
   12.0010  -15.5462   21.4045 C   0  0  0  0  0  0  0  0  0  0  0  0
   12.5257  -14.5100   21.8856 O   0  0  0  0  0  0  0  0  0  0  0  0
    9.2073  -15.4500   23.8185 C   0  0  0  0  0  0  0  0  0  0  0  0
   10.0831  -16.5965   24.2719 C   0  0  1  0  0  0  0  0  0  0  0  0
    9.5083  -17.7678   23.7772 O   0  0  0  0  0  0  0  0  0  0  0  0
   11.4606  -16.3786   23.6953 C   0  0  2  0  0  0  0  0  0  0  0  0
   11.4572  -16.5424   22.2526 N   0  0  0  0  0  0  0  0  0  0  0  0
   12.3815  -17.3609   24.3149 C   0  0  0  0  0  0  0  0  0  0  0  0
   12.9525  -18.2142   23.5894 O   0  0  0  0  0  0  0  0  0  0  0  0
   12.6253  -17.3584   25.6719 O   0  0  0  0  0  0  0  0  0  0  0  0
  2  1  1  1
  2  3  1  0
  4  2  1  0
  4  5  1  6
  6  4  1  0
  6  7  2  0
  8  9  1  0
  9 11  1  0
 10  9  2  0
 11 12  1  0
 13 12  1  6
 13 14  1  0
 14  6  1  0
 15 13  1  0
 16 15  2  0
 18 17  1  6
 18 20  1  0
 19 18  1  0
 20 22  1  0
 20 21  1  6
 21 15  1  0
 22 24  1  0
 23 22  2  0
M  END
$$$$
