VQT.pdb
     RDKit          3D

 24 23  0  0  1  0  0  0  0  0999 V2000
    8.4440  -12.2738   20.4844 C   0  0  0  0  0  0  0  0  0  0  0  0
    7.7970  -13.2829   19.5731 C   0  0  1  0  0  0  0  0  0  0  0  0
    7.7388  -12.7590   18.1829 C   0  0  0  0  0  0  0  0  0  0  0  0
    8.2978  -14.6725   19.7385 C   0  0  2  0  0  0  0  0  0  0  0  0
    7.5195  -15.5083   18.8092 N   0  0  0  0  0  0  0  0  0  0  0  0
    8.1882  -15.2690   21.0601 C   0  0  0  0  0  0  0  0  0  0  0  0
    7.0540  -15.6854   21.4902 O   0  0  0  0  0  0  0  0  0  0  0  0
   11.7353  -19.2708   24.0492 N   0  0  0  0  0  0  0  0  0  0  0  0
   10.7751  -18.9194   25.0555 C   0  0  0  0  0  0  0  0  0  0  0  0
   10.8254  -19.5927   26.1095 O   0  0  0  0  0  0  0  0  0  0  0  0
    9.8412  -17.8296   24.7736 C   0  0  0  0  0  0  0  0  0  0  0  0
    9.9861  -17.1832   23.4317 C   0  0  0  0  0  0  0  0  0  0  0  0
    9.0495  -16.0057   23.3081 C   0  0  2  0  0  0  0  0  0  0  0  0
    9.2637  -15.4516   21.9778 N   0  0  0  0  0  0  0  0  0  0  0  0
    9.2476  -15.0204   24.3894 C   0  0  0  0  0  0  0  0  0  0  0  0
   10.3462  -14.4189   24.4972 O   0  0  0  0  0  0  0  0  0  0  0  0
    6.6901  -12.1657   25.5623 C   0  0  0  0  0  0  0  0  0  0  0  0
    7.0151  -13.1297   26.6812 C   0  0  1  0  0  0  0  0  0  0  0  0
    5.9844  -14.0694   26.7210 O   0  0  0  0  0  0  0  0  0  0  0  0
    8.3365  -13.7822   26.3565 C   0  0  2  0  0  0  0  0  0  0  0  0
    8.1902  -14.7642   25.2971 N   0  0  0  0  0  0  0  0  0  0  0  0
    8.8440  -14.4353   27.5865 C   0  0  0  0  0  0  0  0  0  0  0  0
    8.9825  -15.6846   27.6094 O   0  0  0  0  0  0  0  0  0  0  0  0
    9.1677  -13.7005   28.7072 O   0  0  0  0  0  0  0  0  0  0  0  0
  2  1  1  1
  2  3  1  0
  4  2  1  0
  4  5  1  6
  6  4  1  0
  6  7  2  0
  8  9  1  0
  9 11  1  0
 10  9  2  0
 11 12  1  0
 13 12  1  1
 13 14  1  0
 14  6  1  0
 15 13  1  0
 16 15  2  0
 18 17  1  6
 18 20  1  0
 19 18  1  0
 20 22  1  0
 20 21  1  6
 21 15  1  0
 22 24  1  0
 23 22  2  0
M  END
$$$$
