VQT.pdb
     RDKit          3D

 24 23  0  0  1  0  0  0  0  0999 V2000
    8.2331  -20.7467   18.6251 C   0  0  0  0  0  0  0  0  0  0  0  0
    9.1710  -19.8613   19.4022 C   0  0  1  0  0  0  0  0  0  0  0  0
    9.2277  -18.5077   18.7899 C   0  0  0  0  0  0  0  0  0  0  0  0
    8.9902  -19.9161   20.8764 C   0  0  2  0  0  0  0  0  0  0  0  0
    7.5652  -19.6465   21.1307 N   0  0  0  0  0  0  0  0  0  0  0  0
    9.7624  -18.9814   21.6792 C   0  0  0  0  0  0  0  0  0  0  0  0
    9.5059  -17.7255   21.6361 O   0  0  0  0  0  0  0  0  0  0  0  0
   12.3139  -19.0056   27.2722 N   0  0  0  0  0  0  0  0  0  0  0  0
   12.0333  -20.1416   26.4423 C   0  0  0  0  0  0  0  0  0  0  0  0
   12.3482  -21.2536   26.9231 O   0  0  0  0  0  0  0  0  0  0  0  0
   11.4166  -19.9117   25.1361 C   0  0  0  0  0  0  0  0  0  0  0  0
   11.2827  -18.4787   24.7261 C   0  0  0  0  0  0  0  0  0  0  0  0
   11.6050  -18.3157   23.2603 C   0  0  2  0  0  0  0  0  0  0  0  0
   10.8304  -19.3295   22.5569 N   0  0  0  0  0  0  0  0  0  0  0  0
   13.0548  -18.4014   22.9958 C   0  0  0  0  0  0  0  0  0  0  0  0
   13.6075  -19.5250   22.8850 O   0  0  0  0  0  0  0  0  0  0  0  0
   14.7704  -15.0746   21.2984 C   0  0  0  0  0  0  0  0  0  0  0  0
   15.2791  -16.4786   21.0601 C   0  0  1  0  0  0  0  0  0  0  0  0
   16.6090  -16.3659   20.6530 O   0  0  0  0  0  0  0  0  0  0  0  0
   15.1688  -17.2346   22.3616 C   0  0  2  0  0  0  0  0  0  0  0  0
   13.8088  -17.2086   22.8695 N   0  0  0  0  0  0  0  0  0  0  0  0
   16.0876  -16.6063   23.3402 C   0  0  0  0  0  0  0  0  0  0  0  0
   15.6139  -15.8980   24.2646 O   0  0  0  0  0  0  0  0  0  0  0  0
   17.4525  -16.7826   23.2580 O   0  0  0  0  0  0  0  0  0  0  0  0
  2  1  1  6
  2  3  1  0
  4  2  1  0
  4  5  1  6
  6  4  1  0
  6  7  2  0
  8  9  1  0
  9 11  1  0
 10  9  2  0
 11 12  1  0
 13 12  1  1
 13 14  1  0
 14  6  1  0
 15 13  1  0
 16 15  2  0
 18 17  1  1
 18 20  1  0
 19 18  1  0
 20 22  1  0
 20 21  1  1
 21 15  1  0
 22 24  1  0
 23 22  2  0
M  END
$$$$
