VHA.pdb
     RDKit          3D

 23 23  0  0  1  0  0  0  0  0999 V2000
   18.6491  -10.4532  -18.7880 C   0  0  0  0  0  0  0  0  0  0  0  0
   18.2088  -11.5798  -17.8921 C   0  0  2  0  0  0  0  0  0  0  0  0
   17.3555  -10.9685  -16.7888 C   0  0  0  0  0  0  0  0  0  0  0  0
   19.3588  -12.2807  -17.2234 C   0  0  2  0  0  0  0  0  0  0  0  0
   18.8317  -13.2848  -16.3540 N   0  0  0  0  0  0  0  0  0  0  0  0
   20.2482  -11.3776  -16.4850 C   0  0  0  0  0  0  0  0  0  0  0  0
   19.9701  -11.0760  -15.3025 O   0  0  0  0  0  0  0  0  0  0  0  0
   21.4260  -10.8164  -17.0438 N   0  0  0  0  0  0  0  0  0  0  0  0
   22.3263   -9.9610  -16.3191 C   0  0  1  0  0  0  0  0  0  0  0  0
   23.7666  -10.1596  -16.7036 C   0  0  0  0  0  0  0  0  0  0  0  0
   24.3381  -11.4272  -16.2488 C   0  0  0  0  0  0  0  0  0  0  0  0
   23.7643  -12.3599  -15.4112 C   0  0  0  0  0  0  0  0  0  0  0  0
   24.6343  -13.3985  -15.2421 N   0  0  0  0  0  0  0  0  0  0  0  0
   25.7339  -13.1138  -15.9658 C   0  0  0  0  0  0  0  0  0  0  0  0
   25.5463  -11.9250  -16.5684 N   0  0  0  0  0  0  0  0  0  0  0  0
   21.8749   -8.5519  -16.4093 C   0  0  0  0  0  0  0  0  0  0  0  0
   21.2507   -8.1540  -17.4515 O   0  0  0  0  0  0  0  0  0  0  0  0
   20.0972   -6.2822  -15.4157 C   0  0  0  0  0  0  0  0  0  0  0  0
   21.6274   -6.2177  -15.5020 C   0  0  2  0  0  0  0  0  0  0  0  0
   22.0856   -7.5863  -15.4061 N   0  0  0  0  0  0  0  0  0  0  0  0
   22.0951   -5.3602  -14.4101 C   0  0  0  0  0  0  0  0  0  0  0  0
   21.9179   -4.1217  -14.5252 O   0  0  0  0  0  0  0  0  0  0  0  0
   22.7083   -5.9141  -13.2987 O   0  0  0  0  0  0  0  0  0  0  0  0
  2  1  1  6
  3  2  1  0
  4  5  1  1
  4  2  1  0
  4  6  1  0
  6  7  2  0
  8  6  1  0
  8  9  1  0
  9 16  1  0
 10 11  1  0
  9 10  1  6
 11 12  2  0
 12 13  1  0
 14 13  1  0
 15 11  1  0
 15 14  2  0
 16 20  1  0
 16 17  2  0
 19 18  1  1
 19 21  1  0
 20 19  1  0
 21 22  2  0
 21 23  1  0
M  END
$$$$
