VHA.pdb
     RDKit          3D

 23 23  0  0  1  0  0  0  0  0999 V2000
   18.6142  -10.8180  -18.3391 C   0  0  0  0  0  0  0  0  0  0  0  0
   20.0610  -10.8385  -17.9244 C   0  0  2  0  0  0  0  0  0  0  0  0
   20.1071  -11.3197  -16.4804 C   0  0  0  0  0  0  0  0  0  0  0  0
   20.6993   -9.4774  -17.9565 C   0  0  2  0  0  0  0  0  0  0  0  0
   22.1168   -9.6415  -17.8809 N   0  0  0  0  0  0  0  0  0  0  0  0
   20.2286   -8.5825  -16.8938 C   0  0  0  0  0  0  0  0  0  0  0  0
   19.0085   -8.3148  -16.8145 O   0  0  0  0  0  0  0  0  0  0  0  0
   21.0916   -7.9925  -15.9339 N   0  0  0  0  0  0  0  0  0  0  0  0
   20.6588   -7.0411  -14.9465 C   0  0  1  0  0  0  0  0  0  0  0  0
   20.7651   -7.5614  -13.5394 C   0  0  0  0  0  0  0  0  0  0  0  0
   19.5790   -8.2821  -13.0768 C   0  0  0  0  0  0  0  0  0  0  0  0
   18.4178   -8.5341  -13.7761 C   0  0  0  0  0  0  0  0  0  0  0  0
   17.5628   -9.2372  -12.9769 N   0  0  0  0  0  0  0  0  0  0  0  0
   18.1857   -9.4192  -11.7967 C   0  0  0  0  0  0  0  0  0  0  0  0
   19.3989   -8.8407  -11.8663 N   0  0  0  0  0  0  0  0  0  0  0  0
   21.3436   -5.7429  -15.1544 C   0  0  0  0  0  0  0  0  0  0  0  0
   22.6049   -5.7199  -15.3609 O   0  0  0  0  0  0  0  0  0  0  0  0
   20.2542   -2.1805  -15.4760 C   0  0  0  0  0  0  0  0  0  0  0  0
   21.3616   -3.2405  -15.4205 C   0  0  2  0  0  0  0  0  0  0  0  0
   20.6943   -4.4933  -15.1423 N   0  0  0  0  0  0  0  0  0  0  0  0
   22.3105   -2.8331  -14.3813 C   0  0  0  0  0  0  0  0  0  0  0  0
   22.2749   -3.4480  -13.2863 O   0  0  0  0  0  0  0  0  0  0  0  0
   23.2074   -1.8043  -14.6170 O   0  0  0  0  0  0  0  0  0  0  0  0
  2  1  1  1
  3  2  1  0
  4  5  1  1
  4  2  1  0
  4  6  1  0
  6  7  2  0
  8  6  1  0
  8  9  1  0
  9 16  1  0
 10 11  1  0
  9 10  1  1
 11 12  2  0
 12 13  1  0
 14 13  1  0
 15 11  1  0
 15 14  2  0
 16 20  1  0
 16 17  2  0
 19 18  1  1
 19 21  1  0
 20 19  1  0
 21 22  2  0
 21 23  1  0
M  END
$$$$
