VHA.pdb
     RDKit          3D

 23 23  0  0  1  0  0  0  0  0999 V2000
   22.3247  -16.7940  -15.9017 C   0  0  0  0  0  0  0  0  0  0  0  0
   22.7740  -15.3713  -16.1013 C   0  0  2  0  0  0  0  0  0  0  0  0
   22.1540  -14.5440  -14.9834 C   0  0  0  0  0  0  0  0  0  0  0  0
   22.2987  -14.7835  -17.4011 C   0  0  2  0  0  0  0  0  0  0  0  0
   22.9359  -15.4820  -18.4725 N   0  0  0  0  0  0  0  0  0  0  0  0
   22.5370  -13.3405  -17.5153 C   0  0  0  0  0  0  0  0  0  0  0  0
   23.6597  -12.9331  -17.8895 O   0  0  0  0  0  0  0  0  0  0  0  0
   21.5509  -12.3631  -17.2211 N   0  0  0  0  0  0  0  0  0  0  0  0
   21.7797  -10.9459  -17.3028 C   0  0  1  0  0  0  0  0  0  0  0  0
   20.9476  -10.2739  -18.3601 C   0  0  0  0  0  0  0  0  0  0  0  0
   21.1669   -8.8314  -18.4671 C   0  0  0  0  0  0  0  0  0  0  0  0
   22.3705   -8.1640  -18.5481 C   0  0  0  0  0  0  0  0  0  0  0  0
   22.1289   -6.8231  -18.6351 N   0  0  0  0  0  0  0  0  0  0  0  0
   20.7921   -6.6606  -18.6084 C   0  0  0  0  0  0  0  0  0  0  0  0
   20.2214   -7.8754  -18.5071 N   0  0  0  0  0  0  0  0  0  0  0  0
   21.6482  -10.3297  -15.9610 C   0  0  0  0  0  0  0  0  0  0  0  0
   20.5578  -10.4654  -15.3076 O   0  0  0  0  0  0  0  0  0  0  0  0
   23.9023   -8.5138  -13.6052 C   0  0  0  0  0  0  0  0  0  0  0  0
   22.4935   -8.9250  -14.0517 C   0  0  2  0  0  0  0  0  0  0  0  0
   22.6613   -9.5833  -15.3287 N   0  0  0  0  0  0  0  0  0  0  0  0
   21.6788   -7.7092  -14.1163 C   0  0  0  0  0  0  0  0  0  0  0  0
   21.0851   -7.3494  -13.0691 O   0  0  0  0  0  0  0  0  0  0  0  0
   21.5791   -6.9955  -15.2990 O   0  0  0  0  0  0  0  0  0  0  0  0
  2  1  1  1
  3  2  1  0
  4  5  1  6
  4  2  1  0
  4  6  1  0
  6  7  2  0
  8  6  1  0
  8  9  1  0
  9 16  1  0
 10 11  1  0
  9 10  1  6
 11 12  2  0
 12 13  1  0
 14 13  1  0
 15 11  1  0
 15 14  2  0
 16 20  1  0
 16 17  2  0
 19 18  1  6
 19 21  1  0
 20 19  1  0
 21 22  2  0
 21 23  1  0
M  END
$$$$
