VHA.pdb
     RDKit          3D

 23 23  0  0  1  0  0  0  0  0999 V2000
   29.1150  -21.6632  -17.5594 C   0  0  0  0  0  0  0  0  0  0  0  0
   28.9539  -23.0350  -16.9611 C   0  0  2  0  0  0  0  0  0  0  0  0
   29.4012  -24.0393  -18.0147 C   0  0  0  0  0  0  0  0  0  0  0  0
   27.5266  -23.3611  -16.6186 C   0  0  2  0  0  0  0  0  0  0  0  0
   26.8136  -23.5990  -17.8339 N   0  0  0  0  0  0  0  0  0  0  0  0
   26.8599  -22.3214  -15.8272 C   0  0  0  0  0  0  0  0  0  0  0  0
   27.2964  -22.0455  -14.6871 O   0  0  0  0  0  0  0  0  0  0  0  0
   25.7291  -21.5978  -16.2877 N   0  0  0  0  0  0  0  0  0  0  0  0
   25.1967  -20.4384  -15.6245 C   0  0  1  0  0  0  0  0  0  0  0  0
   25.4057  -19.1670  -16.4001 C   0  0  0  0  0  0  0  0  0  0  0  0
   26.8025  -18.7406  -16.4851 C   0  0  0  0  0  0  0  0  0  0  0  0
   27.9067  -19.3497  -15.9278 C   0  0  0  0  0  0  0  0  0  0  0  0
   29.0202  -18.6275  -16.2481 N   0  0  0  0  0  0  0  0  0  0  0  0
   28.6120  -17.5836  -16.9948 C   0  0  0  0  0  0  0  0  0  0  0  0
   27.2753  -17.6601  -17.1321 N   0  0  0  0  0  0  0  0  0  0  0  0
   23.7851  -20.6749  -15.2383 C   0  0  0  0  0  0  0  0  0  0  0  0
   22.9766  -21.1900  -16.0840 O   0  0  0  0  0  0  0  0  0  0  0  0
   21.7378  -20.2077  -12.1432 C   0  0  0  0  0  0  0  0  0  0  0  0
   21.8451  -20.5021  -13.6448 C   0  0  2  0  0  0  0  0  0  0  0  0
   23.2472  -20.3678  -13.9736 N   0  0  0  0  0  0  0  0  0  0  0  0
   20.9802  -19.5486  -14.3442 C   0  0  0  0  0  0  0  0  0  0  0  0
   21.5258  -18.5518  -14.8802 O   0  0  0  0  0  0  0  0  0  0  0  0
   19.6121  -19.7562  -14.4015 O   0  0  0  0  0  0  0  0  0  0  0  0
  2  1  1  6
  3  2  1  0
  4  5  1  6
  4  2  1  0
  4  6  1  0
  6  7  2  0
  8  6  1  0
  8  9  1  0
  9 16  1  0
 10 11  1  0
  9 10  1  6
 11 12  2  0
 12 13  1  0
 14 13  1  0
 15 11  1  0
 15 14  2  0
 16 20  1  0
 16 17  2  0
 19 18  1  1
 19 21  1  0
 20 19  1  0
 21 22  2  0
 21 23  1  0
M  END
$$$$
