VHA.pdb
     RDKit          3D

 23 23  0  0  1  0  0  0  0  0999 V2000
   17.3603  -10.6286  -19.8980 C   0  0  0  0  0  0  0  0  0  0  0  0
   17.2433  -11.8748  -19.0619 C   0  0  2  0  0  0  0  0  0  0  0  0
   16.0428  -11.6880  -18.1437 C   0  0  0  0  0  0  0  0  0  0  0  0
   18.4405  -12.1047  -18.1817 C   0  0  2  0  0  0  0  0  0  0  0  0
   18.2683  -13.3494  -17.5012 N   0  0  0  0  0  0  0  0  0  0  0  0
   18.6795  -11.0227  -17.2204 C   0  0  0  0  0  0  0  0  0  0  0  0
   18.0675  -11.0274  -16.1286 O   0  0  0  0  0  0  0  0  0  0  0  0
   19.5802   -9.9526  -17.4611 N   0  0  0  0  0  0  0  0  0  0  0  0
   19.8076   -8.8750  -16.5367 C   0  0  1  0  0  0  0  0  0  0  0  0
   21.2228   -8.8205  -16.0307 C   0  0  0  0  0  0  0  0  0  0  0  0
   21.5070   -7.6716  -15.1707 C   0  0  0  0  0  0  0  0  0  0  0  0
   21.2268   -7.5322  -13.8279 C   0  0  0  0  0  0  0  0  0  0  0  0
   21.6576   -6.3058  -13.4102 N   0  0  0  0  0  0  0  0  0  0  0  0
   22.1984   -5.6922  -14.4803 C   0  0  0  0  0  0  0  0  0  0  0  0
   22.1031   -6.5223  -15.5356 N   0  0  0  0  0  0  0  0  0  0  0  0
   19.3334   -7.5961  -17.1173 C   0  0  0  0  0  0  0  0  0  0  0  0
   19.6368   -7.2987  -18.3230 O   0  0  0  0  0  0  0  0  0  0  0  0
   16.8802   -4.9680  -16.2626 C   0  0  0  0  0  0  0  0  0  0  0  0
   18.1863   -5.3615  -16.9642 C   0  0  2  0  0  0  0  0  0  0  0  0
   18.5501   -6.6530  -16.4242 N   0  0  0  0  0  0  0  0  0  0  0  0
   19.1682   -4.3090  -16.6911 C   0  0  0  0  0  0  0  0  0  0  0  0
   19.9223   -4.4594  -15.6975 O   0  0  0  0  0  0  0  0  0  0  0  0
   19.2469   -3.1955  -17.5108 O   0  0  0  0  0  0  0  0  0  0  0  0
  2  1  1  1
  3  2  1  0
  4  5  1  1
  4  2  1  0
  4  6  1  0
  6  7  2  0
  8  6  1  0
  8  9  1  0
  9 16  1  0
 10 11  1  0
  9 10  1  6
 11 12  2  0
 12 13  1  0
 14 13  1  0
 15 11  1  0
 15 14  2  0
 16 20  1  0
 16 17  2  0
 19 18  1  1
 19 21  1  0
 20 19  1  0
 21 22  2  0
 21 23  1  0
M  END
$$$$
