VHA.pdb
     RDKit          3D

 23 23  0  0  1  0  0  0  0  0999 V2000
   40.0612  -22.4430    6.0613 C   0  0  0  0  0  0  0  0  0  0  0  0
   40.2060  -23.8729    6.5087 C   0  0  2  0  0  0  0  0  0  0  0  0
   41.6550  -24.0649    6.9358 C   0  0  0  0  0  0  0  0  0  0  0  0
   39.9356  -24.8615    5.4085 C   0  0  2  0  0  0  0  0  0  0  0  0
   40.8432  -24.6025    4.3355 N   0  0  0  0  0  0  0  0  0  0  0  0
   38.5505  -24.8396    4.9261 C   0  0  0  0  0  0  0  0  0  0  0  0
   38.2667  -24.1662    3.9100 O   0  0  0  0  0  0  0  0  0  0  0  0
   37.4956  -25.5502    5.5559 N   0  0  0  0  0  0  0  0  0  0  0  0
   36.1135  -25.4319    5.1773 C   0  0  1  0  0  0  0  0  0  0  0  0
   35.4123  -26.7590    5.0820 C   0  0  0  0  0  0  0  0  0  0  0  0
   35.8929  -27.6131    3.9959 C   0  0  0  0  0  0  0  0  0  0  0  0
   36.8936  -27.3410    3.0873 C   0  0  0  0  0  0  0  0  0  0  0  0
   37.0260  -28.4049    2.2419 N   0  0  0  0  0  0  0  0  0  0  0  0
   36.1189  -29.3254    2.6212 C   0  0  0  0  0  0  0  0  0  0  0  0
   35.4415  -28.8398    3.6780 N   0  0  0  0  0  0  0  0  0  0  0  0
   35.4254  -24.4568    6.0566 C   0  0  0  0  0  0  0  0  0  0  0  0
   35.6883  -24.4389    7.3075 O   0  0  0  0  0  0  0  0  0  0  0  0
   32.9299  -21.7116    5.5820 C   0  0  0  0  0  0  0  0  0  0  0  0
   33.7161  -22.6624    6.4937 C   0  0  2  0  0  0  0  0  0  0  0  0
   34.4751  -23.5188    5.6091 N   0  0  0  0  0  0  0  0  0  0  0  0
   32.7456  -23.3812    7.3230 C   0  0  0  0  0  0  0  0  0  0  0  0
   32.2435  -22.7668    8.2972 O   0  0  0  0  0  0  0  0  0  0  0  0
   32.4067  -24.6911    7.0274 O   0  0  0  0  0  0  0  0  0  0  0  0
  2  1  1  6
  3  2  1  0
  4  5  1  6
  4  2  1  0
  4  6  1  0
  6  7  2  0
  8  6  1  0
  8  9  1  0
  9 16  1  0
 10 11  1  0
  9 10  1  1
 11 12  2  0
 12 13  1  0
 14 13  1  0
 15 11  1  0
 15 14  2  0
 16 20  1  0
 16 17  2  0
 19 18  1  6
 19 21  1  0
 20 19  1  0
 21 22  2  0
 21 23  1  0
M  END
$$$$
