VHA.pdb
     RDKit          3D

 23 23  0  0  1  0  0  0  0  0999 V2000
   18.6546  -34.0053   -6.0139 C   0  0  0  0  0  0  0  0  0  0  0  0
   20.0481  -34.5689   -5.9339 C   0  0  2  0  0  0  0  0  0  0  0  0
   20.3679  -34.7669   -4.4583 C   0  0  0  0  0  0  0  0  0  0  0  0
   21.0897  -33.6380   -6.4901 C   0  0  2  0  0  0  0  0  0  0  0  0
   20.8690  -33.5012   -7.8952 N   0  0  0  0  0  0  0  0  0  0  0  0
   22.4661  -34.0714   -6.2263 C   0  0  0  0  0  0  0  0  0  0  0  0
   22.9310  -35.0493   -6.8540 O   0  0  0  0  0  0  0  0  0  0  0  0
   23.3155  -33.4348   -5.2842 N   0  0  0  0  0  0  0  0  0  0  0  0
   24.6604  -33.8597   -5.0044 C   0  0  1  0  0  0  0  0  0  0  0  0
   25.6984  -32.8731   -5.4635 C   0  0  0  0  0  0  0  0  0  0  0  0
   25.9336  -32.8803   -6.9075 C   0  0  0  0  0  0  0  0  0  0  0  0
   25.4498  -33.7759   -7.8373 C   0  0  0  0  0  0  0  0  0  0  0  0
   25.9076  -33.4219   -9.0739 N   0  0  0  0  0  0  0  0  0  0  0  0
   26.6659  -32.3204   -8.9132 C   0  0  0  0  0  0  0  0  0  0  0  0
   26.6756  -32.0018   -7.6055 N   0  0  0  0  0  0  0  0  0  0  0  0
   24.7892  -34.2383   -3.5769 C   0  0  0  0  0  0  0  0  0  0  0  0
   24.3309  -33.4592   -2.6729 O   0  0  0  0  0  0  0  0  0  0  0  0
   26.2446  -37.1299   -1.6990 C   0  0  0  0  0  0  0  0  0  0  0  0
   25.4814  -35.7997   -1.7287 C   0  0  2  0  0  0  0  0  0  0  0  0
   25.3953  -35.4257   -3.1233 N   0  0  0  0  0  0  0  0  0  0  0  0
   26.2276  -34.8445   -0.9059 C   0  0  0  0  0  0  0  0  0  0  0  0
   27.0480  -34.0911   -1.4871 O   0  0  0  0  0  0  0  0  0  0  0  0
   26.0217  -34.7891    0.4626 O   0  0  0  0  0  0  0  0  0  0  0  0
  2  1  1  1
  3  2  1  0
  4  5  1  6
  4  2  1  0
  4  6  1  0
  6  7  2  0
  8  6  1  0
  8  9  1  0
  9 16  1  0
 10 11  1  0
  9 10  1  1
 11 12  2  0
 12 13  1  0
 14 13  1  0
 15 11  1  0
 15 14  2  0
 16 20  1  0
 16 17  2  0
 19 18  1  6
 19 21  1  0
 20 19  1  0
 21 22  2  0
 21 23  1  0
M  END
$$$$
