VHA.pdb
     RDKit          3D

 23 23  0  0  1  0  0  0  0  0999 V2000
   19.4239  -13.1241  -18.7529 C   0  0  0  0  0  0  0  0  0  0  0  0
   18.1098  -13.7287  -18.3364 C   0  0  2  0  0  0  0  0  0  0  0  0
   17.5616  -14.4834  -19.5401 C   0  0  0  0  0  0  0  0  0  0  0  0
   17.0837  -12.6969  -17.9578 C   0  0  2  0  0  0  0  0  0  0  0  0
   16.7053  -11.9827  -19.1363 N   0  0  0  0  0  0  0  0  0  0  0  0
   17.5404  -11.7677  -16.9187 C   0  0  0  0  0  0  0  0  0  0  0  0
   17.8384  -12.2127  -15.7875 O   0  0  0  0  0  0  0  0  0  0  0  0
   17.6660  -10.3692  -17.1256 N   0  0  0  0  0  0  0  0  0  0  0  0
   18.2706   -9.4714  -16.1790 C   0  0  1  0  0  0  0  0  0  0  0  0
   19.6556   -9.8908  -15.7696 C   0  0  0  0  0  0  0  0  0  0  0  0
   20.0938   -9.3383  -14.4878 C   0  0  0  0  0  0  0  0  0  0  0  0
   19.3543   -8.5972  -13.5907 C   0  0  0  0  0  0  0  0  0  0  0  0
   20.1424   -8.2800  -12.5219 N   0  0  0  0  0  0  0  0  0  0  0  0
   21.3555   -8.8176  -12.7530 C   0  0  0  0  0  0  0  0  0  0  0  0
   21.3166   -9.4528  -13.9390 N   0  0  0  0  0  0  0  0  0  0  0  0
   18.1936   -8.0773  -16.6772 C   0  0  0  0  0  0  0  0  0  0  0  0
   18.7129   -7.7806  -17.8069 O   0  0  0  0  0  0  0  0  0  0  0  0
   16.4663   -4.9527  -15.5934 C   0  0  0  0  0  0  0  0  0  0  0  0
   17.4760   -5.6721  -16.4966 C   0  0  2  0  0  0  0  0  0  0  0  0
   17.5738   -7.0206  -15.9827 N   0  0  0  0  0  0  0  0  0  0  0  0
   18.7341   -4.9238  -16.4353 C   0  0  0  0  0  0  0  0  0  0  0  0
   18.7647   -3.7902  -16.9762 O   0  0  0  0  0  0  0  0  0  0  0  0
   19.8393   -5.4639  -15.7989 O   0  0  0  0  0  0  0  0  0  0  0  0
  2  1  1  6
  3  2  1  0
  4  5  1  6
  4  2  1  0
  4  6  1  0
  6  7  2  0
  8  6  1  0
  8  9  1  0
  9 16  1  0
 10 11  1  0
  9 10  1  6
 11 12  2  0
 12 13  1  0
 14 13  1  0
 15 11  1  0
 15 14  2  0
 16 20  1  0
 16 17  2  0
 19 18  1  1
 19 21  1  0
 20 19  1  0
 21 22  2  0
 21 23  1  0
M  END
$$$$
