VHA.pdb
     RDKit          3D

 23 23  0  0  1  0  0  0  0  0999 V2000
   33.6004  -32.9491   -6.1885 C   0  0  0  0  0  0  0  0  0  0  0  0
   33.3261  -34.4121   -5.9650 C   0  0  2  0  0  0  0  0  0  0  0  0
   33.3149  -35.0806   -7.3332 C   0  0  0  0  0  0  0  0  0  0  0  0
   31.9835  -34.6677   -5.3381 C   0  0  2  0  0  0  0  0  0  0  0  0
   31.8039  -36.0800   -5.2153 N   0  0  0  0  0  0  0  0  0  0  0  0
   30.8663  -34.0704   -6.0777 C   0  0  0  0  0  0  0  0  0  0  0  0
   30.7425  -32.8251   -6.0993 O   0  0  0  0  0  0  0  0  0  0  0  0
   29.9013  -34.8363   -6.7823 N   0  0  0  0  0  0  0  0  0  0  0  0
   28.8372  -34.2623   -7.5605 C   0  0  1  0  0  0  0  0  0  0  0  0
   28.4993  -35.0691   -8.7838 C   0  0  0  0  0  0  0  0  0  0  0  0
   27.3983  -34.5216   -9.5765 C   0  0  0  0  0  0  0  0  0  0  0  0
   26.6986  -33.3541   -9.3567 C   0  0  0  0  0  0  0  0  0  0  0  0
   25.7522  -33.2145  -10.3308 N   0  0  0  0  0  0  0  0  0  0  0  0
   25.8633  -34.2819  -11.1447 C   0  0  0  0  0  0  0  0  0  0  0  0
   26.8570  -35.0632  -10.6825 N   0  0  0  0  0  0  0  0  0  0  0  0
   27.6685  -33.9767   -6.6943 C   0  0  0  0  0  0  0  0  0  0  0  0
   27.4321  -34.7252   -5.6853 O   0  0  0  0  0  0  0  0  0  0  0  0
   24.9525  -31.4026   -6.6321 C   0  0  0  0  0  0  0  0  0  0  0  0
   25.6071  -32.6730   -6.0747 C   0  0  2  0  0  0  0  0  0  0  0  0
   26.7698  -32.9123   -6.9011 N   0  0  0  0  0  0  0  0  0  0  0  0
   24.6102  -33.7449   -6.1329 C   0  0  0  0  0  0  0  0  0  0  0  0
   23.6617  -33.7037   -5.3099 O   0  0  0  0  0  0  0  0  0  0  0  0
   24.7265  -34.7588   -7.0691 O   0  0  0  0  0  0  0  0  0  0  0  0
  2  1  1  6
  3  2  1  0
  4  5  1  6
  4  2  1  0
  4  6  1  0
  6  7  2  0
  8  6  1  0
  8  9  1  0
  9 16  1  0
 10 11  1  0
  9 10  1  6
 11 12  2  0
 12 13  1  0
 14 13  1  0
 15 11  1  0
 15 14  2  0
 16 20  1  0
 16 17  2  0
 19 18  1  6
 19 21  1  0
 20 19  1  0
 21 22  2  0
 21 23  1  0
M  END
$$$$
