VHA.pdb
     RDKit          3D

 23 23  0  0  1  0  0  0  0  0999 V2000
   24.8392  -32.3413   -9.4834 C   0  0  0  0  0  0  0  0  0  0  0  0
   25.9691  -33.1610   -8.9201 C   0  0  2  0  0  0  0  0  0  0  0  0
   26.0785  -34.4190   -9.7711 C   0  0  0  0  0  0  0  0  0  0  0  0
   25.7221  -33.6056   -7.5051 C   0  0  2  0  0  0  0  0  0  0  0  0
   25.4880  -32.4470   -6.7021 N   0  0  0  0  0  0  0  0  0  0  0  0
   26.8132  -34.4085   -6.9424 C   0  0  0  0  0  0  0  0  0  0  0  0
   26.7522  -35.6568   -7.0092 O   0  0  0  0  0  0  0  0  0  0  0  0
   27.9536  -33.8416   -6.3159 N   0  0  0  0  0  0  0  0  0  0  0  0
   29.0422  -34.6161   -5.7843 C   0  0  1  0  0  0  0  0  0  0  0  0
   30.3576  -33.8879   -5.8214 C   0  0  0  0  0  0  0  0  0  0  0  0
   31.4766  -34.6448   -5.2598 C   0  0  0  0  0  0  0  0  0  0  0  0
   31.4331  -35.8622   -4.6143 C   0  0  0  0  0  0  0  0  0  0  0  0
   32.7002  -36.2154   -4.2484 N   0  0  0  0  0  0  0  0  0  0  0  0
   33.5194  -35.2294   -4.6618 C   0  0  0  0  0  0  0  0  0  0  0  0
   32.7736  -34.2882   -5.2696 N   0  0  0  0  0  0  0  0  0  0  0  0
   28.6890  -35.1391   -4.4429 C   0  0  0  0  0  0  0  0  0  0  0  0
   28.1843  -34.3523   -3.5709 O   0  0  0  0  0  0  0  0  0  0  0  0
   29.9574  -37.3736   -2.1253 C   0  0  0  0  0  0  0  0  0  0  0  0
   28.5994  -36.9546   -2.7026 C   0  0  2  0  0  0  0  0  0  0  0  0
   28.8706  -36.4763   -4.0405 N   0  0  0  0  0  0  0  0  0  0  0  0
   28.0376  -35.9350   -1.8132 C   0  0  0  0  0  0  0  0  0  0  0  0
   28.7215  -34.9016   -1.6062 O   0  0  0  0  0  0  0  0  0  0  0  0
   26.7949  -36.1220   -1.2310 O   0  0  0  0  0  0  0  0  0  0  0  0
  2  1  1  6
  3  2  1  0
  4  5  1  1
  4  2  1  0
  4  6  1  0
  6  7  2  0
  8  6  1  0
  8  9  1  0
  9 16  1  0
 10 11  1  0
  9 10  1  1
 11 12  2  0
 12 13  1  0
 14 13  1  0
 15 11  1  0
 15 14  2  0
 16 20  1  0
 16 17  2  0
 19 18  1  1
 19 21  1  0
 20 19  1  0
 21 22  2  0
 21 23  1  0
M  END
$$$$
