VHA.pdb
     RDKit          3D

 23 23  0  0  1  0  0  0  0  0999 V2000
   14.7246  -10.3729  -15.9529 C   0  0  0  0  0  0  0  0  0  0  0  0
   16.0476  -10.1066  -15.2863 C   0  0  2  0  0  0  0  0  0  0  0  0
   16.2668   -8.5998  -15.3100 C   0  0  0  0  0  0  0  0  0  0  0  0
   17.2062  -10.7324  -16.0123 C   0  0  2  0  0  0  0  0  0  0  0  0
   17.1615  -12.1450  -15.8012 N   0  0  0  0  0  0  0  0  0  0  0  0
   18.5107  -10.1943  -15.6115 C   0  0  0  0  0  0  0  0  0  0  0  0
   19.0748  -10.6522  -14.5924 O   0  0  0  0  0  0  0  0  0  0  0  0
   19.1814   -9.1670  -16.3249 N   0  0  0  0  0  0  0  0  0  0  0  0
   20.5205   -8.7328  -16.0323 C   0  0  1  0  0  0  0  0  0  0  0  0
   21.4764   -8.9600  -17.1710 C   0  0  0  0  0  0  0  0  0  0  0  0
   21.7390  -10.3700  -17.4596 C   0  0  0  0  0  0  0  0  0  0  0  0
   22.5766  -11.2292  -16.7807 C   0  0  0  0  0  0  0  0  0  0  0  0
   22.5311  -12.4564  -17.3772 N   0  0  0  0  0  0  0  0  0  0  0  0
   21.6758  -12.3598  -18.4133 C   0  0  0  0  0  0  0  0  0  0  0  0
   21.2040  -11.1000  -18.4549 N   0  0  0  0  0  0  0  0  0  0  0  0
   20.5070   -7.3359  -15.5362 C   0  0  0  0  0  0  0  0  0  0  0  0
   19.7827   -6.4631  -16.1258 O   0  0  0  0  0  0  0  0  0  0  0  0
   21.9889   -5.5055  -12.6365 C   0  0  0  0  0  0  0  0  0  0  0  0
   21.2741   -5.5015  -13.9937 C   0  0  2  0  0  0  0  0  0  0  0  0
   21.2521   -6.8798  -14.4316 N   0  0  0  0  0  0  0  0  0  0  0  0
   22.0227   -4.6106  -14.8838 C   0  0  0  0  0  0  0  0  0  0  0  0
   21.9491   -3.3751  -14.6680 O   0  0  0  0  0  0  0  0  0  0  0  0
   22.7790   -5.1312  -15.9207 O   0  0  0  0  0  0  0  0  0  0  0  0
  2  1  1  6
  3  2  1  0
  4  5  1  1
  4  2  1  0
  4  6  1  0
  6  7  2  0
  8  6  1  0
  8  9  1  0
  9 16  1  0
 10 11  1  0
  9 10  1  6
 11 12  2  0
 12 13  1  0
 14 13  1  0
 15 11  1  0
 15 14  2  0
 16 20  1  0
 16 17  2  0
 19 18  1  1
 19 21  1  0
 20 19  1  0
 21 22  2  0
 21 23  1  0
M  END
$$$$
