PEQ.pdb
     RDKit          3D

 26 26  0  0  1  0  0  0  0  0999 V2000
   26.3865  -11.4844  -15.9807 N   0  0  0  0  0  0  0  0  0  0  0  0
   26.5007  -12.9101  -16.0718 C   0  0  0  0  0  0  0  0  0  0  0  0
   26.9827  -13.1459  -17.4711 C   0  0  0  0  0  0  0  0  0  0  0  0
   26.1507  -12.1266  -18.2536 C   0  0  0  0  0  0  0  0  0  0  0  0
   26.1489  -10.9608  -17.2990 C   0  0  1  0  0  0  0  0  0  0  0  0
   24.8722  -10.1957  -17.3368 C   0  0  0  0  0  0  0  0  0  0  0  0
   24.4295   -9.6443  -18.3638 O   0  0  0  0  0  0  0  0  0  0  0  0
   24.1065  -10.0787  -16.1486 N   0  0  0  0  0  0  0  0  0  0  0  0
   22.8586   -9.3209  -16.1248 C   0  0  1  0  0  0  0  0  0  0  0  0
   21.7682  -10.1057  -15.4515 C   0  0  0  0  0  0  0  0  0  0  0  0
   20.8043  -10.7506  -16.3805 C   0  0  0  0  0  0  0  0  0  0  0  0
   19.7894  -11.4861  -15.5758 C   0  0  0  0  0  0  0  0  0  0  0  0
   20.0488  -12.6044  -15.0797 O   0  0  0  0  0  0  0  0  0  0  0  0
   23.1275   -8.0048  -15.5397 C   0  0  0  0  0  0  0  0  0  0  0  0
   23.9677   -7.8107  -14.6112 O   0  0  0  0  0  0  0  0  0  0  0  0
   18.5115  -10.9344  -15.3564 O   0  0  0  0  0  0  0  0  0  0  0  0
   21.7678   -2.3436  -18.2327 N   0  0  0  0  0  0  0  0  0  0  0  0
   22.1840   -2.0055  -16.9206 C   0  0  0  0  0  0  0  0  0  0  0  0
   22.2133   -0.7578  -16.6412 O   0  0  0  0  0  0  0  0  0  0  0  0
   22.5457   -3.0635  -15.9643 C   0  0  0  0  0  0  0  0  0  0  0  0
   22.3725   -4.4623  -16.4106 C   0  0  0  0  0  0  0  0  0  0  0  0
   22.7580   -5.4930  -15.4340 C   0  0  2  0  0  0  0  0  0  0  0  0
   22.4481   -6.8400  -15.9870 N   0  0  0  0  0  0  0  0  0  0  0  0
   22.1897   -5.4167  -14.1147 C   0  0  0  0  0  0  0  0  0  0  0  0
   21.1034   -6.0236  -13.8468 O   0  0  0  0  0  0  0  0  0  0  0  0
   22.7497   -4.7205  -13.0664 O   0  0  0  0  0  0  0  0  0  0  0  0
  1  2  1  0
  1  5  1  0
  2  3  1  0
  3  4  1  0
  5  4  1  0
  6  7  2  0
  5  6  1  1
  8  6  1  0
  9  8  1  0
  9 10  1  1
 11 10  1  0
 12 11  1  0
 13 12  2  0
 14  9  1  0
 15 14  2  0
 16 12  1  0
 18 17  1  0
 19 18  2  0
 20 18  1  0
 22 21  1  6
 21 20  1  0
 22 23  1  0
 23 14  1  0
 24 22  1  0
 25 24  2  0
 26 24  1  0
M  END
$$$$
