PEQ.pdb
     RDKit          3D

 26 26  0  0  1  0  0  0  0  0999 V2000
   26.4151  -18.6447  -17.3007 N   0  0  0  0  0  0  0  0  0  0  0  0
   27.3162  -19.0415  -18.3422 C   0  0  0  0  0  0  0  0  0  0  0  0
   26.7519  -18.3991  -19.5730 C   0  0  0  0  0  0  0  0  0  0  0  0
   25.2509  -18.6208  -19.3690 C   0  0  0  0  0  0  0  0  0  0  0  0
   25.1245  -18.3960  -17.8845 C   0  0  1  0  0  0  0  0  0  0  0  0
   24.0909  -19.2687  -17.2623 C   0  0  0  0  0  0  0  0  0  0  0  0
   22.9015  -19.3016  -17.6354 O   0  0  0  0  0  0  0  0  0  0  0  0
   24.4635  -20.1141  -16.1861 N   0  0  0  0  0  0  0  0  0  0  0  0
   23.4752  -20.9351  -15.4924 C   0  0  1  0  0  0  0  0  0  0  0  0
   24.1149  -22.1615  -14.9050 C   0  0  0  0  0  0  0  0  0  0  0  0
   23.1658  -23.1122  -14.2700 C   0  0  0  0  0  0  0  0  0  0  0  0
   23.9389  -24.2659  -13.7315 C   0  0  0  0  0  0  0  0  0  0  0  0
   25.1746  -24.3494  -13.9049 O   0  0  0  0  0  0  0  0  0  0  0  0
   22.7611  -20.0883  -14.5335 C   0  0  0  0  0  0  0  0  0  0  0  0
   23.3312  -19.4736  -13.5833 O   0  0  0  0  0  0  0  0  0  0  0  0
   23.2910  -25.2904  -13.0132 O   0  0  0  0  0  0  0  0  0  0  0  0
   19.3435  -15.3258  -15.4634 N   0  0  0  0  0  0  0  0  0  0  0  0
   19.0735  -15.5595  -14.0917 C   0  0  0  0  0  0  0  0  0  0  0  0
   18.4593  -14.6257  -13.4699 O   0  0  0  0  0  0  0  0  0  0  0  0
   19.4882  -16.8225  -13.4614 C   0  0  0  0  0  0  0  0  0  0  0  0
   20.2089  -17.7942  -14.3114 C   0  0  0  0  0  0  0  0  0  0  0  0
   20.6266  -19.0362  -13.6423 C   0  0  2  0  0  0  0  0  0  0  0  0
   21.3550  -19.9001  -14.6115 N   0  0  0  0  0  0  0  0  0  0  0  0
   19.6103  -19.8376  -13.0146 C   0  0  0  0  0  0  0  0  0  0  0  0
   19.1027  -19.4778  -11.9042 O   0  0  0  0  0  0  0  0  0  0  0  0
   19.1093  -21.0083  -13.5397 O   0  0  0  0  0  0  0  0  0  0  0  0
  1  2  1  0
  1  5  1  0
  2  3  1  0
  3  4  1  0
  5  4  1  0
  6  7  2  0
  5  6  1  1
  8  6  1  0
  9  8  1  0
  9 10  1  1
 11 10  1  0
 12 11  1  0
 13 12  2  0
 14  9  1  0
 15 14  2  0
 16 12  1  0
 18 17  1  0
 19 18  2  0
 20 18  1  0
 22 21  1  6
 21 20  1  0
 22 23  1  0
 23 14  1  0
 24 22  1  0
 25 24  2  0
 26 24  1  0
M  END
$$$$
