PEQ.pdb
     RDKit          3D

 26 26  0  0  1  0  0  0  0  0999 V2000
   25.9573  -11.9278  -15.7638 N   0  0  0  0  0  0  0  0  0  0  0  0
   26.5619  -12.8590  -16.6701 C   0  0  0  0  0  0  0  0  0  0  0  0
   27.8737  -12.2242  -17.0196 C   0  0  0  0  0  0  0  0  0  0  0  0
   27.4688  -10.7554  -17.1692 C   0  0  0  0  0  0  0  0  0  0  0  0
   26.4708  -10.6150  -16.0491 C   0  0  1  0  0  0  0  0  0  0  0  0
   25.3619   -9.6809  -16.3880 C   0  0  0  0  0  0  0  0  0  0  0  0
   25.5403   -8.4955  -16.7314 O   0  0  0  0  0  0  0  0  0  0  0  0
   24.0249  -10.1496  -16.3215 N   0  0  0  0  0  0  0  0  0  0  0  0
   22.9105   -9.3232  -16.7769 C   0  0  1  0  0  0  0  0  0  0  0  0
   21.7010  -10.1670  -17.0657 C   0  0  0  0  0  0  0  0  0  0  0  0
   20.5093   -9.4065  -17.5233 C   0  0  0  0  0  0  0  0  0  0  0  0
   19.4104  -10.3715  -17.8059 C   0  0  0  0  0  0  0  0  0  0  0  0
   18.6853  -10.2429  -18.8166 O   0  0  0  0  0  0  0  0  0  0  0  0
   22.7002   -8.2511  -15.8008 C   0  0  0  0  0  0  0  0  0  0  0  0
   22.8032   -8.4154  -14.5485 O   0  0  0  0  0  0  0  0  0  0  0  0
   19.1648  -11.4529  -16.9366 O   0  0  0  0  0  0  0  0  0  0  0  0
   22.7732   -1.9709  -17.1539 N   0  0  0  0  0  0  0  0  0  0  0  0
   22.6105   -2.0307  -15.7471 C   0  0  0  0  0  0  0  0  0  0  0  0
   22.5986   -0.9096  -15.1317 O   0  0  0  0  0  0  0  0  0  0  0  0
   22.4601   -3.3308  -15.0750 C   0  0  0  0  0  0  0  0  0  0  0  0
   22.4156   -4.5323  -15.9355 C   0  0  0  0  0  0  0  0  0  0  0  0
   22.2631   -5.8140  -15.2293 C   0  0  2  0  0  0  0  0  0  0  0  0
   22.3605   -6.9327  -16.2068 N   0  0  0  0  0  0  0  0  0  0  0  0
   21.0726   -6.0144  -14.4472 C   0  0  0  0  0  0  0  0  0  0  0  0
   20.0125   -6.4598  -14.9930 O   0  0  0  0  0  0  0  0  0  0  0  0
   20.9792   -5.7641  -13.0959 O   0  0  0  0  0  0  0  0  0  0  0  0
  1  2  1  0
  1  5  1  0
  2  3  1  0
  3  4  1  0
  5  4  1  0
  6  7  2  0
  5  6  1  6
  8  6  1  0
  9  8  1  0
  9 10  1  1
 11 10  1  0
 12 11  1  0
 13 12  2  0
 14  9  1  0
 15 14  2  0
 16 12  1  0
 18 17  1  0
 19 18  2  0
 20 18  1  0
 22 21  1  6
 21 20  1  0
 22 23  1  0
 23 14  1  0
 24 22  1  0
 25 24  2  0
 26 24  1  0
M  END
$$$$
