PEQ.pdb
     RDKit          3D

 26 26  0  0  1  0  0  0  0  0999 V2000
   18.7681  -11.5470  -15.1510 N   0  0  0  0  0  0  0  0  0  0  0  0
   18.2967  -12.8222  -15.6045 C   0  0  0  0  0  0  0  0  0  0  0  0
   19.2203  -13.1693  -16.7325 C   0  0  0  0  0  0  0  0  0  0  0  0
   19.3649  -11.8156  -17.4326 C   0  0  0  0  0  0  0  0  0  0  0  0
   19.4144  -10.8824  -16.2506 C   0  0  1  0  0  0  0  0  0  0  0  0
   18.7602   -9.5744  -16.5299 C   0  0  0  0  0  0  0  0  0  0  0  0
   19.0718   -8.8386  -17.4872 O   0  0  0  0  0  0  0  0  0  0  0  0
   17.7250   -9.1269  -15.6697 N   0  0  0  0  0  0  0  0  0  0  0  0
   17.0874   -7.8281  -15.8659 C   0  0  1  0  0  0  0  0  0  0  0  0
   15.5923   -7.9454  -15.7698 C   0  0  0  0  0  0  0  0  0  0  0  0
   14.9438   -8.5853  -16.9436 C   0  0  0  0  0  0  0  0  0  0  0  0
   13.4738   -8.6304  -16.7075 C   0  0  0  0  0  0  0  0  0  0  0  0
   12.9607   -8.0414  -15.7309 O   0  0  0  0  0  0  0  0  0  0  0  0
   17.6953   -6.8695  -14.9396 C   0  0  0  0  0  0  0  0  0  0  0  0
   18.3592   -7.2110  -13.9158 O   0  0  0  0  0  0  0  0  0  0  0  0
   12.6285   -9.3403  -17.5832 O   0  0  0  0  0  0  0  0  0  0  0  0
   22.6296   -5.6479  -14.7895 N   0  0  0  0  0  0  0  0  0  0  0  0
   22.2899   -4.4535  -14.1061 C   0  0  0  0  0  0  0  0  0  0  0  0
   23.2644   -3.7883  -13.6127 O   0  0  0  0  0  0  0  0  0  0  0  0
   20.8828   -4.0368  -14.0008 C   0  0  0  0  0  0  0  0  0  0  0  0
   19.8689   -4.9331  -14.5965 C   0  0  0  0  0  0  0  0  0  0  0  0
   18.4709   -4.5010  -14.4437 C   0  0  2  0  0  0  0  0  0  0  0  0
   17.5752   -5.4675  -15.1365 N   0  0  0  0  0  0  0  0  0  0  0  0
   18.1220   -3.1788  -14.8901 C   0  0  0  0  0  0  0  0  0  0  0  0
   17.6967   -2.9919  -16.0751 O   0  0  0  0  0  0  0  0  0  0  0  0
   18.2029   -2.0479  -14.1079 O   0  0  0  0  0  0  0  0  0  0  0  0
  1  2  1  0
  1  5  1  0
  2  3  1  0
  3  4  1  0
  5  4  1  0
  6  7  2  0
  5  6  1  6
  8  6  1  0
  9  8  1  0
  9 10  1  1
 11 10  1  0
 12 11  1  0
 13 12  2  0
 14  9  1  0
 15 14  2  0
 16 12  1  0
 18 17  1  0
 19 18  2  0
 20 18  1  0
 22 21  1  6
 21 20  1  0
 22 23  1  0
 23 14  1  0
 24 22  1  0
 25 24  2  0
 26 24  1  0
M  END
$$$$
