PEQ.pdb
     RDKit          3D

 26 26  0  0  1  0  0  0  0  0999 V2000
   28.0854  -21.3399  -11.1294 N   0  0  0  0  0  0  0  0  0  0  0  0
   29.1234  -20.6091  -10.4641 C   0  0  0  0  0  0  0  0  0  0  0  0
   28.5046  -20.2082   -9.1593 C   0  0  0  0  0  0  0  0  0  0  0  0
   27.0914  -19.8197   -9.6014 C   0  0  0  0  0  0  0  0  0  0  0  0
   26.8151  -20.8714  -10.6444 C   0  0  1  0  0  0  0  0  0  0  0  0
   25.9834  -20.3559  -11.7667 C   0  0  0  0  0  0  0  0  0  0  0  0
   24.9262  -19.7153  -11.6031 O   0  0  0  0  0  0  0  0  0  0  0  0
   26.4029  -20.5984  -13.0997 N   0  0  0  0  0  0  0  0  0  0  0  0
   25.6383  -20.0936  -14.2367 C   0  0  1  0  0  0  0  0  0  0  0  0
   26.4799  -20.0731  -15.4815 C   0  0  0  0  0  0  0  0  0  0  0  0
   25.8186  -19.4693  -16.6672 C   0  0  0  0  0  0  0  0  0  0  0  0
   26.7740  -19.4985  -17.8095 C   0  0  0  0  0  0  0  0  0  0  0  0
   27.1650  -18.4399  -18.3484 O   0  0  0  0  0  0  0  0  0  0  0  0
   24.3975  -20.8658  -14.3394 C   0  0  0  0  0  0  0  0  0  0  0  0
   24.1873  -21.9398  -13.7006 O   0  0  0  0  0  0  0  0  0  0  0  0
   27.2585  -20.7242  -18.3078 O   0  0  0  0  0  0  0  0  0  0  0  0
   20.8522  -19.5929  -10.8423 N   0  0  0  0  0  0  0  0  0  0  0  0
   19.8715  -20.1868  -11.6758 C   0  0  0  0  0  0  0  0  0  0  0  0
   18.7110  -20.3411  -11.1608 O   0  0  0  0  0  0  0  0  0  0  0  0
   20.2115  -20.5812  -13.0518 C   0  0  0  0  0  0  0  0  0  0  0  0
   21.6111  -20.3794  -13.4836 C   0  0  0  0  0  0  0  0  0  0  0  0
   21.9131  -20.7802  -14.8666 C   0  0  2  0  0  0  0  0  0  0  0  0
   23.3304  -20.4491  -15.1799 N   0  0  0  0  0  0  0  0  0  0  0  0
   21.0921  -20.2423  -15.9181 C   0  0  0  0  0  0  0  0  0  0  0  0
   21.4904  -19.2415  -16.5964 O   0  0  0  0  0  0  0  0  0  0  0  0
   19.8611  -20.7451  -16.2773 O   0  0  0  0  0  0  0  0  0  0  0  0
  1  2  1  0
  1  5  1  0
  2  3  1  0
  3  4  1  0
  5  4  1  0
  6  7  2  0
  5  6  1  6
  8  6  1  0
  9  8  1  0
  9 10  1  6
 11 10  1  0
 12 11  1  0
 13 12  2  0
 14  9  1  0
 15 14  2  0
 16 12  1  0
 18 17  1  0
 19 18  2  0
 20 18  1  0
 22 21  1  1
 21 20  1  0
 22 23  1  0
 23 14  1  0
 24 22  1  0
 25 24  2  0
 26 24  1  0
M  END
$$$$
