PEQ.pdb
     RDKit          3D

 26 26  0  0  1  0  0  0  0  0999 V2000
   27.0176  -19.5760  -16.3303 N   0  0  0  0  0  0  0  0  0  0  0  0
   28.3267  -19.0246  -16.1396 C   0  0  0  0  0  0  0  0  0  0  0  0
   29.2491  -20.1262  -16.5660 C   0  0  0  0  0  0  0  0  0  0  0  0
   28.5507  -21.3523  -15.9723 C   0  0  0  0  0  0  0  0  0  0  0  0
   27.1043  -21.0069  -16.2144 C   0  0  1  0  0  0  0  0  0  0  0  0
   26.2117  -21.4997  -15.1292 C   0  0  0  0  0  0  0  0  0  0  0  0
   25.6147  -22.5936  -15.1716 O   0  0  0  0  0  0  0  0  0  0  0  0
   26.0198  -20.6928  -13.9787 N   0  0  0  0  0  0  0  0  0  0  0  0
   25.1068  -21.0991  -12.9140 C   0  0  1  0  0  0  0  0  0  0  0  0
   25.6550  -20.7238  -11.5661 C   0  0  0  0  0  0  0  0  0  0  0  0
   24.7926  -21.1053  -10.4178 C   0  0  0  0  0  0  0  0  0  0  0  0
   25.4866  -20.7244   -9.1560 C   0  0  0  0  0  0  0  0  0  0  0  0
   25.0651  -19.7831   -8.4488 O   0  0  0  0  0  0  0  0  0  0  0  0
   23.7773  -20.5619  -13.2144 C   0  0  0  0  0  0  0  0  0  0  0  0
   23.5661  -19.3522  -13.5272 O   0  0  0  0  0  0  0  0  0  0  0  0
   26.6364  -21.4199   -8.7323 O   0  0  0  0  0  0  0  0  0  0  0  0
   20.6402  -21.0488  -17.8293 N   0  0  0  0  0  0  0  0  0  0  0  0
   19.5775  -20.6438  -16.9833 C   0  0  0  0  0  0  0  0  0  0  0  0
   18.4691  -20.3706  -17.5601 O   0  0  0  0  0  0  0  0  0  0  0  0
   19.7805  -20.5632  -15.5284 C   0  0  0  0  0  0  0  0  0  0  0  0
   21.1076  -20.9594  -15.0109 C   0  0  0  0  0  0  0  0  0  0  0  0
   21.2764  -20.8595  -13.5527 C   0  0  2  0  0  0  0  0  0  0  0  0
   22.6177  -21.3818  -13.1725 N   0  0  0  0  0  0  0  0  0  0  0  0
   20.2993  -21.5031  -12.7160 C   0  0  0  0  0  0  0  0  0  0  0  0
   20.4719  -22.7051  -12.3343 O   0  0  0  0  0  0  0  0  0  0  0  0
   19.1460  -20.9011  -12.2637 O   0  0  0  0  0  0  0  0  0  0  0  0
  1  2  1  0
  1  5  1  0
  2  3  1  0
  3  4  1  0
  5  4  1  0
  6  7  2  0
  5  6  1  1
  8  6  1  0
  9  8  1  0
  9 10  1  1
 11 10  1  0
 12 11  1  0
 13 12  2  0
 14  9  1  0
 15 14  2  0
 16 12  1  0
 18 17  1  0
 19 18  2  0
 20 18  1  0
 22 21  1  6
 21 20  1  0
 22 23  1  0
 23 14  1  0
 24 22  1  0
 25 24  2  0
 26 24  1  0
M  END
$$$$
