PEQ.pdb
     RDKit          3D

 26 26  0  0  1  0  0  0  0  0999 V2000
   22.1399  -13.3788  -18.0685 N   0  0  0  0  0  0  0  0  0  0  0  0
   21.5415  -14.4999  -18.7311 C   0  0  0  0  0  0  0  0  0  0  0  0
   22.0114  -14.3754  -20.1488 C   0  0  0  0  0  0  0  0  0  0  0  0
   21.8988  -12.8652  -20.3733 C   0  0  0  0  0  0  0  0  0  0  0  0
   22.3582  -12.3393  -19.0382 C   0  0  1  0  0  0  0  0  0  0  0  0
   21.6454  -11.0939  -18.6408 C   0  0  0  0  0  0  0  0  0  0  0  0
   21.6943  -10.0334  -19.2950 O   0  0  0  0  0  0  0  0  0  0  0  0
   20.8645  -11.0978  -17.4568 N   0  0  0  0  0  0  0  0  0  0  0  0
   20.0123   -9.9642  -17.1094 C   0  0  1  0  0  0  0  0  0  0  0  0
   18.6822  -10.4332  -16.5905 C   0  0  0  0  0  0  0  0  0  0  0  0
   18.7302  -11.0734  -15.2504 C   0  0  0  0  0  0  0  0  0  0  0  0
   17.3375  -11.3829  -14.8223 C   0  0  0  0  0  0  0  0  0  0  0  0
   16.7564  -12.4160  -15.2210 O   0  0  0  0  0  0  0  0  0  0  0  0
   20.7569   -9.0860  -16.2034 C   0  0  0  0  0  0  0  0  0  0  0  0
   21.7069   -9.4855  -15.4661 O   0  0  0  0  0  0  0  0  0  0  0  0
   16.6441  -10.5144  -13.9561 O   0  0  0  0  0  0  0  0  0  0  0  0
   22.0554   -3.1142  -17.5346 N   0  0  0  0  0  0  0  0  0  0  0  0
   22.5962   -3.2638  -16.2330 C   0  0  0  0  0  0  0  0  0  0  0  0
   23.2554   -2.2671  -15.7772 O   0  0  0  0  0  0  0  0  0  0  0  0
   22.3804   -4.5103  -15.4817 C   0  0  0  0  0  0  0  0  0  0  0  0
   21.5500   -5.5498  -16.1266 C   0  0  0  0  0  0  0  0  0  0  0  0
   21.3272   -6.7680  -15.3322 C   0  0  2  0  0  0  0  0  0  0  0  0
   20.4530   -7.7025  -16.0931 N   0  0  0  0  0  0  0  0  0  0  0  0
   20.7718   -6.6199  -14.0136 C   0  0  0  0  0  0  0  0  0  0  0  0
   19.5166   -6.7241  -13.8295 O   0  0  0  0  0  0  0  0  0  0  0  0
   21.5150   -6.3736  -12.8804 O   0  0  0  0  0  0  0  0  0  0  0  0
  1  2  1  0
  1  5  1  0
  2  3  1  0
  3  4  1  0
  5  4  1  0
  6  7  2  0
  5  6  1  1
  8  6  1  0
  9  8  1  0
  9 10  1  1
 11 10  1  0
 12 11  1  0
 13 12  2  0
 14  9  1  0
 15 14  2  0
 16 12  1  0
 18 17  1  0
 19 18  2  0
 20 18  1  0
 22 21  1  6
 21 20  1  0
 22 23  1  0
 23 14  1  0
 24 22  1  0
 25 24  2  0
 26 24  1  0
M  END
$$$$
