PEQ.pdb
     RDKit          3D

 26 26  0  0  1  0  0  0  0  0999 V2000
   27.8082  -19.4624  -17.2850 N   0  0  0  0  0  0  0  0  0  0  0  0
   27.5497  -18.4843  -18.3001 C   0  0  0  0  0  0  0  0  0  0  0  0
   27.6732  -17.1752  -17.5810 C   0  0  0  0  0  0  0  0  0  0  0  0
   26.9782  -17.4920  -16.2543 C   0  0  0  0  0  0  0  0  0  0  0  0
   27.4503  -18.9018  -16.0099 C   0  0  1  0  0  0  0  0  0  0  0  0
   26.4180  -19.7400  -15.3400 C   0  0  0  0  0  0  0  0  0  0  0  0
   25.6942  -20.5557  -15.9446 O   0  0  0  0  0  0  0  0  0  0  0  0
   26.2359  -19.6156  -13.9389 N   0  0  0  0  0  0  0  0  0  0  0  0
   25.2173  -20.3914  -13.2370 C   0  0  1  0  0  0  0  0  0  0  0  0
   25.5436  -20.5047  -11.7744 C   0  0  0  0  0  0  0  0  0  0  0  0
   24.5656  -21.2925  -10.9802 C   0  0  0  0  0  0  0  0  0  0  0  0
   25.0406  -21.3550   -9.5698 C   0  0  0  0  0  0  0  0  0  0  0  0
   24.2334  -21.3007   -8.6161 O   0  0  0  0  0  0  0  0  0  0  0  0
   23.9056  -19.8117  -13.5368 C   0  0  0  0  0  0  0  0  0  0  0  0
   23.6778  -18.5652  -13.5470 O   0  0  0  0  0  0  0  0  0  0  0  0
   26.4142  -21.4770   -9.2807 O   0  0  0  0  0  0  0  0  0  0  0  0
   20.8969  -19.1461  -18.2546 N   0  0  0  0  0  0  0  0  0  0  0  0
   19.7553  -19.1762  -17.4148 C   0  0  0  0  0  0  0  0  0  0  0  0
   18.6684  -18.7334  -17.9231 O   0  0  0  0  0  0  0  0  0  0  0  0
   19.8592  -19.7026  -16.0449 C   0  0  0  0  0  0  0  0  0  0  0  0
   21.1932  -20.1566  -15.5975 C   0  0  0  0  0  0  0  0  0  0  0  0
   21.4514  -20.0433  -14.1535 C   0  0  2  0  0  0  0  0  0  0  0  0
   22.7840  -20.6289  -13.8412 N   0  0  0  0  0  0  0  0  0  0  0  0
   20.4929  -20.6222  -13.2505 C   0  0  0  0  0  0  0  0  0  0  0  0
   20.6903  -21.7798  -12.7594 O   0  0  0  0  0  0  0  0  0  0  0  0
   19.3325  -20.0005  -12.8456 O   0  0  0  0  0  0  0  0  0  0  0  0
  1  2  1  0
  1  5  1  0
  2  3  1  0
  3  4  1  0
  5  4  1  0
  6  7  2  0
  5  6  1  6
  8  6  1  0
  9  8  1  0
  9 10  1  1
 11 10  1  0
 12 11  1  0
 13 12  2  0
 14  9  1  0
 15 14  2  0
 16 12  1  0
 18 17  1  0
 19 18  2  0
 20 18  1  0
 22 21  1  6
 21 20  1  0
 22 23  1  0
 23 14  1  0
 24 22  1  0
 25 24  2  0
 26 24  1  0
M  END
$$$$
