EYN.pdb
     RDKit          3D

 30 30  0  0  1  0  0  0  0  0999 V2000
   29.2618  -21.8307  -18.4016 N   0  0  0  0  0  0  0  0  0  0  0  0
   28.2376  -20.8684  -18.0925 C   0  0  1  0  0  0  0  0  0  0  0  0
   27.2699  -20.8605  -19.2442 C   0  0  0  0  0  0  0  0  0  0  0  0
   27.6109  -19.9087  -20.3403 C   0  0  0  0  0  0  0  0  0  0  0  0
   27.4193  -20.6074  -21.6379 C   0  0  0  0  0  0  0  0  0  0  0  0
   26.3197  -21.1400  -21.9593 O   0  0  0  0  0  0  0  0  0  0  0  0
   27.5982  -21.2360  -16.7978 C   0  0  0  0  0  0  0  0  0  0  0  0
   26.9186  -22.3016  -16.6842 O   0  0  0  0  0  0  0  0  0  0  0  0
   28.4436  -20.7113  -22.5681 O   0  0  0  0  0  0  0  0  0  0  0  0
   24.7340  -20.6976   -8.4493 O   0  0  0  0  0  0  0  0  0  0  0  0
   25.4180  -20.4560   -9.6538 C   0  0  0  0  0  0  0  0  0  0  0  0
   26.4513  -21.2670  -10.0850 C   0  0  0  0  0  0  0  0  0  0  0  0
   27.1309  -21.0437  -11.2622 C   0  0  0  0  0  0  0  0  0  0  0  0
   26.7669  -19.9746  -12.0352 C   0  0  0  0  0  0  0  0  0  0  0  0
   27.4644  -19.7014  -13.2977 C   0  0  0  0  0  0  0  0  0  0  0  0
   27.0023  -20.6021  -14.4210 C   0  0  2  0  0  0  0  0  0  0  0  0
   27.7254  -20.4097  -15.6462 N   0  0  0  0  0  0  0  0  0  0  0  0
   25.5380  -20.4037  -14.5877 C   0  0  0  0  0  0  0  0  0  0  0  0
   25.0647  -19.4186  -15.2102 O   0  0  0  0  0  0  0  0  0  0  0  0
   25.7476  -19.1508  -11.6380 C   0  0  0  0  0  0  0  0  0  0  0  0
   25.0931  -19.3959  -10.4688 C   0  0  0  0  0  0  0  0  0  0  0  0
   20.4073  -20.8842  -14.7005 N   0  0  0  0  0  0  0  0  0  0  0  0
   20.9990  -22.1750  -14.6915 C   0  0  0  0  0  0  0  0  0  0  0  0
   20.1763  -23.1324  -14.8932 O   0  0  0  0  0  0  0  0  0  0  0  0
   22.4369  -22.4220  -14.4745 C   0  0  0  0  0  0  0  0  0  0  0  0
   23.1315  -21.1236  -14.2340 C   0  0  2  0  0  0  0  0  0  0  0  0
   24.5756  -21.3069  -14.0584 N   0  0  0  0  0  0  0  0  0  0  0  0
   22.6572  -20.5583  -12.9553 C   0  0  0  0  0  0  0  0  0  0  0  0
   23.4563  -20.5546  -11.8436 O   0  0  0  0  0  0  0  0  0  0  0  0
   21.5129  -20.0729  -12.8716 O   0  0  0  0  0  0  0  0  0  0  0  0
  2  1  1  6
  2  3  1  0
  3  4  1  0
  4  5  1  0
  5  9  1  0
  6  5  2  0
  7  8  2  0
  7  2  1  0
 10 11  1  0
 11 21  2  0
 12 11  1  0
 12 13  2  0
 13 14  1  0
 14 20  2  0
 14 15  1  0
 16 15  1  1
 16 18  1  0
 16 17  1  0
 17  7  1  0
 18 27  1  0
 19 18  2  0
 21 20  1  0
 23 22  1  0
 23 24  2  0
 25 23  1  0
 26 27  1  0
 26 25  1  1
 28 26  1  0
 29 28  1  0
 30 28  2  0
M  END
$$$$
