EYN.pdb
     RDKit          3D

 30 30  0  0  1  0  0  0  0  0999 V2000
   28.1914  -19.9419  -17.5963 N   0  0  0  0  0  0  0  0  0  0  0  0
   27.4075  -21.1329  -17.7901 C   0  0  1  0  0  0  0  0  0  0  0  0
   28.2631  -22.1127  -18.5456 C   0  0  0  0  0  0  0  0  0  0  0  0
   29.6298  -21.6197  -18.8815 C   0  0  0  0  0  0  0  0  0  0  0  0
   30.5227  -22.7974  -19.0372 C   0  0  0  0  0  0  0  0  0  0  0  0
   30.7460  -23.3284  -20.1616 O   0  0  0  0  0  0  0  0  0  0  0  0
   26.9669  -21.6476  -16.4631 C   0  0  0  0  0  0  0  0  0  0  0  0
   26.4960  -22.8195  -16.3405 O   0  0  0  0  0  0  0  0  0  0  0  0
   31.1603  -23.3776  -17.9499 O   0  0  0  0  0  0  0  0  0  0  0  0
   23.6037  -21.1774   -8.3076 O   0  0  0  0  0  0  0  0  0  0  0  0
   24.3629  -20.9237   -9.4636 C   0  0  0  0  0  0  0  0  0  0  0  0
   23.9979  -19.9572  -10.3823 C   0  0  0  0  0  0  0  0  0  0  0  0
   24.7308  -19.6968  -11.5192 C   0  0  0  0  0  0  0  0  0  0  0  0
   25.8665  -20.4257  -11.7469 C   0  0  0  0  0  0  0  0  0  0  0  0
   26.6773  -20.1793  -12.9456 C   0  0  0  0  0  0  0  0  0  0  0  0
   26.2279  -21.0069  -14.1286 C   0  0  2  0  0  0  0  0  0  0  0  0
   27.0574  -20.8478  -15.2895 N   0  0  0  0  0  0  0  0  0  0  0  0
   24.8033  -20.6762  -14.3979 C   0  0  0  0  0  0  0  0  0  0  0  0
   24.4553  -19.5685  -14.8813 O   0  0  0  0  0  0  0  0  0  0  0  0
   26.2571  -21.3909  -10.8574 C   0  0  0  0  0  0  0  0  0  0  0  0
   25.5127  -21.6268   -9.7413 C   0  0  0  0  0  0  0  0  0  0  0  0
   19.6863  -20.7697  -15.0664 N   0  0  0  0  0  0  0  0  0  0  0  0
   20.3392  -21.8927  -15.6400 C   0  0  0  0  0  0  0  0  0  0  0  0
   19.5969  -22.5997  -16.4036 O   0  0  0  0  0  0  0  0  0  0  0  0
   21.7527  -22.2378  -15.3977 C   0  0  0  0  0  0  0  0  0  0  0  0
   22.3378  -21.2724  -14.4221 C   0  0  2  0  0  0  0  0  0  0  0  0
   23.7407  -21.5823  -14.1294 N   0  0  0  0  0  0  0  0  0  0  0  0
   21.6353  -21.4134  -13.1314 C   0  0  0  0  0  0  0  0  0  0  0  0
   20.4995  -20.6980  -12.8621 O   0  0  0  0  0  0  0  0  0  0  0  0
   22.0718  -22.1927  -12.2629 O   0  0  0  0  0  0  0  0  0  0  0  0
  2  1  1  1
  2  3  1  0
  3  4  1  0
  4  5  1  0
  5  9  1  0
  6  5  2  0
  7  8  2  0
  7  2  1  0
 10 11  1  0
 11 21  2  0
 12 11  1  0
 12 13  2  0
 13 14  1  0
 14 20  2  0
 14 15  1  0
 16 15  1  1
 16 18  1  0
 16 17  1  0
 17  7  1  0
 18 27  1  0
 19 18  2  0
 21 20  1  0
 23 22  1  0
 23 24  2  0
 25 23  1  0
 26 27  1  0
 26 25  1  6
 28 26  1  0
 29 28  1  0
 30 28  2  0
M  END
$$$$
