EYN.pdb
     RDKit          3D

 30 30  0  0  1  0  0  0  0  0999 V2000
   21.4845  -10.6770  -19.0662 N   0  0  0  0  0  0  0  0  0  0  0  0
   20.1293  -10.4081  -18.6639 C   0  0  1  0  0  0  0  0  0  0  0  0
   19.6354  -11.6191  -17.9207 C   0  0  0  0  0  0  0  0  0  0  0  0
   19.6188  -12.8785  -18.7191 C   0  0  0  0  0  0  0  0  0  0  0  0
   20.7826  -13.7053  -18.3060 C   0  0  0  0  0  0  0  0  0  0  0  0
   21.8147  -13.8211  -19.0254 O   0  0  0  0  0  0  0  0  0  0  0  0
   20.1029   -9.1680  -17.8384 C   0  0  0  0  0  0  0  0  0  0  0  0
   19.0292   -8.7700  -17.2916 O   0  0  0  0  0  0  0  0  0  0  0  0
   20.7956  -14.3962  -17.1028 O   0  0  0  0  0  0  0  0  0  0  0  0
   20.7388   -9.4435  -10.8276 O   0  0  0  0  0  0  0  0  0  0  0  0
   21.1585   -8.9012  -12.0550 C   0  0  0  0  0  0  0  0  0  0  0  0
   20.5830   -7.7629  -12.5882 C   0  0  0  0  0  0  0  0  0  0  0  0
   20.9831   -7.2194  -13.7891 C   0  0  0  0  0  0  0  0  0  0  0  0
   21.9916   -7.8330  -14.4813 C   0  0  0  0  0  0  0  0  0  0  0  0
   22.4492   -7.2860  -15.7646 C   0  0  0  0  0  0  0  0  0  0  0  0
   21.3440   -7.2247  -16.7948 C   0  0  2  0  0  0  0  0  0  0  0  0
   21.2752   -8.3877  -17.6335 N   0  0  0  0  0  0  0  0  0  0  0  0
   21.5205   -5.9708  -17.5745 C   0  0  0  0  0  0  0  0  0  0  0  0
   22.5221   -5.7779  -18.3102 O   0  0  0  0  0  0  0  0  0  0  0  0
   22.5839   -8.9624  -13.9821 C   0  0  0  0  0  0  0  0  0  0  0  0
   22.1677   -9.4776  -12.7918 C   0  0  0  0  0  0  0  0  0  0  0  0
   19.2418   -1.4736  -20.5959 N   0  0  0  0  0  0  0  0  0  0  0  0
   19.6759   -1.7196  -19.2664 C   0  0  0  0  0  0  0  0  0  0  0  0
   20.2974   -0.7419  -18.7264 O   0  0  0  0  0  0  0  0  0  0  0  0
   19.4415   -2.9832  -18.5425 C   0  0  0  0  0  0  0  0  0  0  0  0
   20.7455   -3.6707  -18.3117 C   0  0  2  0  0  0  0  0  0  0  0  0
   20.5762   -4.9080  -17.5433 N   0  0  0  0  0  0  0  0  0  0  0  0
   21.5972   -2.8081  -17.4691 C   0  0  0  0  0  0  0  0  0  0  0  0
   21.5669   -2.9010  -16.1035 O   0  0  0  0  0  0  0  0  0  0  0  0
   22.3614   -1.9770  -17.9957 O   0  0  0  0  0  0  0  0  0  0  0  0
  2  1  1  1
  2  3  1  0
  3  4  1  0
  4  5  1  0
  5  9  1  0
  6  5  2  0
  7  8  2  0
  7  2  1  0
 10 11  1  0
 11 21  2  0
 12 11  1  0
 12 13  2  0
 13 14  1  0
 14 20  2  0
 14 15  1  0
 16 15  1  1
 16 18  1  0
 16 17  1  0
 17  7  1  0
 18 27  1  0
 19 18  2  0
 21 20  1  0
 23 22  1  0
 23 24  2  0
 25 23  1  0
 26 27  1  0
 26 25  1  1
 28 26  1  0
 29 28  1  0
 30 28  2  0
M  END
$$$$
