EYN.pdb
     RDKit          3D

 30 30  0  0  1  0  0  0  0  0999 V2000
   20.0224  -16.6622  -16.1415 N   0  0  0  0  0  0  0  0  0  0  0  0
   19.7743  -15.3460  -16.6673 C   0  0  1  0  0  0  0  0  0  0  0  0
   18.4199  -14.9158  -16.1738 C   0  0  0  0  0  0  0  0  0  0  0  0
   17.2791  -15.7200  -16.6990 C   0  0  0  0  0  0  0  0  0  0  0  0
   16.0210  -15.1618  -16.1385 C   0  0  0  0  0  0  0  0  0  0  0  0
   15.7383  -13.9327  -16.2131 O   0  0  0  0  0  0  0  0  0  0  0  0
   20.8688  -14.4332  -16.2325 C   0  0  0  0  0  0  0  0  0  0  0  0
   21.2178  -14.3657  -15.0144 O   0  0  0  0  0  0  0  0  0  0  0  0
   15.0872  -15.9661  -15.5010 O   0  0  0  0  0  0  0  0  0  0  0  0
   27.9691   -9.2861  -16.1146 O   0  0  0  0  0  0  0  0  0  0  0  0
   26.9422  -10.1662  -16.4991 C   0  0  0  0  0  0  0  0  0  0  0  0
   26.6288  -11.2930  -15.7620 C   0  0  0  0  0  0  0  0  0  0  0  0
   25.6257  -12.1646  -16.1253 C   0  0  0  0  0  0  0  0  0  0  0  0
   24.9114  -11.9025  -17.2628 C   0  0  0  0  0  0  0  0  0  0  0  0
   23.8333  -12.8050  -17.6853 C   0  0  0  0  0  0  0  0  0  0  0  0
   22.6027  -12.6838  -16.8151 C   0  0  2  0  0  0  0  0  0  0  0  0
   21.5600  -13.6074  -17.1628 N   0  0  0  0  0  0  0  0  0  0  0  0
   22.1492  -11.2685  -16.8663 C   0  0  0  0  0  0  0  0  0  0  0  0
   21.5252  -10.8030  -17.8540 O   0  0  0  0  0  0  0  0  0  0  0  0
   25.1955  -10.7950  -18.0166 C   0  0  0  0  0  0  0  0  0  0  0  0
   26.1931   -9.9505  -17.6330 C   0  0  0  0  0  0  0  0  0  0  0  0
   19.5532   -6.7659  -14.9089 N   0  0  0  0  0  0  0  0  0  0  0  0
   20.8863   -7.1473  -14.6031 C   0  0  0  0  0  0  0  0  0  0  0  0
   21.6800   -6.1668  -14.3962 O   0  0  0  0  0  0  0  0  0  0  0  0
   21.3458   -8.5466  -14.5201 C   0  0  0  0  0  0  0  0  0  0  0  0
   21.9077   -8.9621  -15.8383 C   0  0  2  0  0  0  0  0  0  0  0  0
   22.3876  -10.3473  -15.8095 N   0  0  0  0  0  0  0  0  0  0  0  0
   23.1041   -8.1464  -16.1256 C   0  0  0  0  0  0  0  0  0  0  0  0
   23.0718   -7.1482  -17.0622 O   0  0  0  0  0  0  0  0  0  0  0  0
   24.1682   -8.3584  -15.5133 O   0  0  0  0  0  0  0  0  0  0  0  0
  2  1  1  1
  2  3  1  0
  3  4  1  0
  4  5  1  0
  5  9  1  0
  6  5  2  0
  7  8  2  0
  7  2  1  0
 10 11  1  0
 11 21  2  0
 12 11  1  0
 12 13  2  0
 13 14  1  0
 14 20  2  0
 14 15  1  0
 16 15  1  6
 16 18  1  0
 16 17  1  0
 17  7  1  0
 18 27  1  0
 19 18  2  0
 21 20  1  0
 23 22  1  0
 23 24  2  0
 25 23  1  0
 26 27  1  0
 26 25  1  1
 28 26  1  0
 29 28  1  0
 30 28  2  0
M  END
$$$$
