EYN.pdb
     RDKit          3D

 30 30  0  0  1  0  0  0  0  0999 V2000
   27.0512  -25.1016  -16.6798 N   0  0  0  0  0  0  0  0  0  0  0  0
   27.2801  -25.5630  -18.0235 C   0  0  1  0  0  0  0  0  0  0  0  0
   28.7200  -25.2797  -18.3538 C   0  0  0  0  0  0  0  0  0  0  0  0
   29.0610  -23.8329  -18.4720 C   0  0  0  0  0  0  0  0  0  0  0  0
   28.6836  -23.3770  -19.8353 C   0  0  0  0  0  0  0  0  0  0  0  0
   27.6196  -22.7337  -20.0590 O   0  0  0  0  0  0  0  0  0  0  0  0
   26.9380  -27.0109  -18.1064 C   0  0  0  0  0  0  0  0  0  0  0  0
   27.1853  -27.6815  -19.1549 O   0  0  0  0  0  0  0  0  0  0  0  0
   29.4848  -23.6358  -20.9382 O   0  0  0  0  0  0  0  0  0  0  0  0
   31.8106  -30.9543  -18.9356 O   0  0  0  0  0  0  0  0  0  0  0  0
   30.6118  -30.6902  -18.2501 C   0  0  0  0  0  0  0  0  0  0  0  0
   30.3856  -29.4878  -17.6063 C   0  0  0  0  0  0  0  0  0  0  0  0
   29.2167  -29.2139  -16.9308 C   0  0  0  0  0  0  0  0  0  0  0  0
   28.2407  -30.1725  -16.8965 C   0  0  0  0  0  0  0  0  0  0  0  0
   26.9794  -29.9210  -16.1887 C   0  0  0  0  0  0  0  0  0  0  0  0
   26.0125  -29.0933  -17.0050 C   0  0  2  0  0  0  0  0  0  0  0  0
   26.3244  -27.6921  -17.0180 N   0  0  0  0  0  0  0  0  0  0  0  0
   24.6417  -29.3662  -16.4973 C   0  0  0  0  0  0  0  0  0  0  0  0
   24.1754  -28.7801  -15.4869 O   0  0  0  0  0  0  0  0  0  0  0  0
   28.4317  -31.3749  -17.5237 C   0  0  0  0  0  0  0  0  0  0  0  0
   29.5979  -31.6181  -18.1843 C   0  0  0  0  0  0  0  0  0  0  0  0
   20.8852  -29.0506  -14.8911 N   0  0  0  0  0  0  0  0  0  0  0  0
   20.6214  -29.0228  -16.2860 C   0  0  0  0  0  0  0  0  0  0  0  0
   19.6594  -28.2520  -16.6245 O   0  0  0  0  0  0  0  0  0  0  0  0
   21.3773  -29.8024  -17.2843 C   0  0  0  0  0  0  0  0  0  0  0  0
   22.4294  -30.6036  -16.5935 C   0  0  2  0  0  0  0  0  0  0  0  0
   23.7670  -30.3029  -17.1134 N   0  0  0  0  0  0  0  0  0  0  0  0
   22.2133  -32.0332  -16.8916 C   0  0  0  0  0  0  0  0  0  0  0  0
   21.2956  -32.7709  -16.1928 O   0  0  0  0  0  0  0  0  0  0  0  0
   22.8697  -32.5913  -17.7914 O   0  0  0  0  0  0  0  0  0  0  0  0
  2  1  1  1
  2  3  1  0
  3  4  1  0
  4  5  1  0
  5  9  1  0
  6  5  2  0
  7  8  2  0
  7  2  1  0
 10 11  1  0
 11 21  2  0
 12 11  1  0
 12 13  2  0
 13 14  1  0
 14 20  2  0
 14 15  1  0
 16 15  1  1
 16 18  1  0
 16 17  1  0
 17  7  1  0
 18 27  1  0
 19 18  2  0
 21 20  1  0
 23 22  1  0
 23 24  2  0
 25 23  1  0
 26 27  1  0
 26 25  1  6
 28 26  1  0
 29 28  1  0
 30 28  2  0
M  END
$$$$
