EYN.pdb
     RDKit          3D

 30 30  0  0  1  0  0  0  0  0999 V2000
   23.0935  -12.7480  -17.6001 N   0  0  0  0  0  0  0  0  0  0  0  0
   22.2401  -11.6747  -18.0363 C   0  0  1  0  0  0  0  0  0  0  0  0
   20.9697  -12.2949  -18.5504 C   0  0  0  0  0  0  0  0  0  0  0  0
   21.1554  -13.2646  -19.6679 C   0  0  0  0  0  0  0  0  0  0  0  0
   19.8176  -13.7729  -20.0685 C   0  0  0  0  0  0  0  0  0  0  0  0
   19.2284  -14.6912  -19.4316 O   0  0  0  0  0  0  0  0  0  0  0  0
   22.0123  -10.7400  -16.8985 C   0  0  0  0  0  0  0  0  0  0  0  0
   21.7093  -11.1757  -15.7459 O   0  0  0  0  0  0  0  0  0  0  0  0
   19.1433  -13.2624  -21.1685 O   0  0  0  0  0  0  0  0  0  0  0  0
   27.8414  -10.8881  -15.4755 O   0  0  0  0  0  0  0  0  0  0  0  0
   26.6982  -10.0714  -15.5298 C   0  0  0  0  0  0  0  0  0  0  0  0
   25.7950  -10.0049  -14.4853 C   0  0  0  0  0  0  0  0  0  0  0  0
   24.6707   -9.2098  -14.5232 C   0  0  0  0  0  0  0  0  0  0  0  0
   24.4402   -8.4556  -15.6416 C   0  0  0  0  0  0  0  0  0  0  0  0
   23.2546   -7.5936  -15.7227 C   0  0  0  0  0  0  0  0  0  0  0  0
   21.9894   -8.3740  -16.0000 C   0  0  2  0  0  0  0  0  0  0  0  0
   22.1256   -9.3308  -17.0615 N   0  0  0  0  0  0  0  0  0  0  0  0
   20.8994   -7.3946  -16.2534 C   0  0  0  0  0  0  0  0  0  0  0  0
   20.8317   -6.7329  -17.3208 O   0  0  0  0  0  0  0  0  0  0  0  0
   25.3145   -8.4975  -16.6948 C   0  0  0  0  0  0  0  0  0  0  0  0
   26.4183   -9.2930  -16.6295 C   0  0  0  0  0  0  0  0  0  0  0  0
   16.6000   -4.5078  -15.9774 N   0  0  0  0  0  0  0  0  0  0  0  0
   16.5240   -5.5053  -14.9696 C   0  0  0  0  0  0  0  0  0  0  0  0
   15.4580   -5.4617  -14.2654 O   0  0  0  0  0  0  0  0  0  0  0  0
   17.5674   -6.5208  -14.7335 C   0  0  0  0  0  0  0  0  0  0  0  0
   18.7563   -6.2155  -15.5817 C   0  0  2  0  0  0  0  0  0  0  0  0
   19.8637   -7.1383  -15.3134 N   0  0  0  0  0  0  0  0  0  0  0  0
   19.2715   -4.8805  -15.2186 C   0  0  0  0  0  0  0  0  0  0  0  0
   18.8076   -3.7507  -15.8374 O   0  0  0  0  0  0  0  0  0  0  0  0
   20.1431   -4.7646  -14.3361 O   0  0  0  0  0  0  0  0  0  0  0  0
  2  1  1  1
  2  3  1  0
  3  4  1  0
  4  5  1  0
  5  9  1  0
  6  5  2  0
  7  8  2  0
  7  2  1  0
 10 11  1  0
 11 21  2  0
 12 11  1  0
 12 13  2  0
 13 14  1  0
 14 20  2  0
 14 15  1  0
 16 15  1  6
 16 18  1  0
 16 17  1  0
 17  7  1  0
 18 27  1  0
 19 18  2  0
 21 20  1  0
 23 22  1  0
 23 24  2  0
 25 23  1  0
 26 27  1  0
 26 25  1  1
 28 26  1  0
 29 28  1  0
 30 28  2  0
M  END
$$$$
