EYN.pdb
     RDKit          3D

 30 30  0  0  1  0  0  0  0  0999 V2000
   20.5544  -11.6666  -17.8700 N   0  0  0  0  0  0  0  0  0  0  0  0
   21.2107  -10.3866  -17.8330 C   0  0  1  0  0  0  0  0  0  0  0  0
   21.0054   -9.7404  -19.1759 C   0  0  0  0  0  0  0  0  0  0  0  0
   21.7755  -10.3608  -20.2920 C   0  0  0  0  0  0  0  0  0  0  0  0
   23.1970   -9.9475  -20.1610 C   0  0  0  0  0  0  0  0  0  0  0  0
   23.5948   -8.7934  -20.4864 O   0  0  0  0  0  0  0  0  0  0  0  0
   20.6505   -9.5840  -16.7095 C   0  0  0  0  0  0  0  0  0  0  0  0
   19.4438   -9.7255  -16.3438 O   0  0  0  0  0  0  0  0  0  0  0  0
   24.1656  -10.8125  -19.6722 O   0  0  0  0  0  0  0  0  0  0  0  0
   19.0628   -5.3503   -9.3707 O   0  0  0  0  0  0  0  0  0  0  0  0
   19.7129   -5.9998  -10.4349 C   0  0  0  0  0  0  0  0  0  0  0  0
   19.4197   -7.3046  -10.7855 C   0  0  0  0  0  0  0  0  0  0  0  0
   20.0474   -7.9546  -11.8253 C   0  0  0  0  0  0  0  0  0  0  0  0
   21.0000   -7.2795  -12.5391 C   0  0  0  0  0  0  0  0  0  0  0  0
   21.6923   -7.9347  -13.6556 C   0  0  0  0  0  0  0  0  0  0  0  0
   20.9569   -7.7740  -14.9670 C   0  0  2  0  0  0  0  0  0  0  0  0
   21.4445   -8.6337  -16.0082 N   0  0  0  0  0  0  0  0  0  0  0  0
   21.0117   -6.3366  -15.3440 C   0  0  0  0  0  0  0  0  0  0  0  0
   22.0923   -5.7651  -15.6399 O   0  0  0  0  0  0  0  0  0  0  0  0
   21.3150   -5.9859  -12.2186 C   0  0  0  0  0  0  0  0  0  0  0  0
   20.6779   -5.3681  -11.1852 C   0  0  0  0  0  0  0  0  0  0  0  0
   19.7366   -2.5275  -18.0042 N   0  0  0  0  0  0  0  0  0  0  0  0
   18.5754   -2.7277  -17.2117 C   0  0  0  0  0  0  0  0  0  0  0  0
   17.5238   -2.1606  -17.6663 O   0  0  0  0  0  0  0  0  0  0  0  0
   18.5520   -3.5201  -15.9678 C   0  0  0  0  0  0  0  0  0  0  0  0
   19.9107   -4.0813  -15.7127 C   0  0  2  0  0  0  0  0  0  0  0  0
   19.8545   -5.5118  -15.3959 N   0  0  0  0  0  0  0  0  0  0  0  0
   20.4724   -3.4420  -14.5063 C   0  0  0  0  0  0  0  0  0  0  0  0
   19.7649   -3.3963  -13.3351 O   0  0  0  0  0  0  0  0  0  0  0  0
   21.6082   -2.9312  -14.5398 O   0  0  0  0  0  0  0  0  0  0  0  0
  2  1  1  6
  2  3  1  0
  3  4  1  0
  4  5  1  0
  5  9  1  0
  6  5  2  0
  7  8  2  0
  7  2  1  0
 10 11  1  0
 11 21  2  0
 12 11  1  0
 12 13  2  0
 13 14  1  0
 14 20  2  0
 14 15  1  0
 16 15  1  1
 16 18  1  0
 16 17  1  0
 17  7  1  0
 18 27  1  0
 19 18  2  0
 21 20  1  0
 23 22  1  0
 23 24  2  0
 25 23  1  0
 26 27  1  0
 26 25  1  1
 28 26  1  0
 29 28  1  0
 30 28  2  0
M  END
$$$$
