EYN.pdb
     RDKit          3D

 30 30  0  0  1  0  0  0  0  0999 V2000
   32.5763  -24.2278  -17.3951 N   0  0  0  0  0  0  0  0  0  0  0  0
   31.7478  -25.0699  -18.2166 C   0  0  1  0  0  0  0  0  0  0  0  0
   32.5666  -26.2757  -18.5886 C   0  0  0  0  0  0  0  0  0  0  0  0
   31.8566  -27.2755  -19.4372 C   0  0  0  0  0  0  0  0  0  0  0  0
   32.8079  -28.3715  -19.7574 C   0  0  0  0  0  0  0  0  0  0  0  0
   33.4821  -28.3865  -20.8257 O   0  0  0  0  0  0  0  0  0  0  0  0
   30.5090  -25.4170  -17.4650 C   0  0  0  0  0  0  0  0  0  0  0  0
   30.5577  -25.7394  -16.2387 O   0  0  0  0  0  0  0  0  0  0  0  0
   33.0056  -29.4403  -18.8949 O   0  0  0  0  0  0  0  0  0  0  0  0
   22.1554  -25.4328  -14.8080 O   0  0  0  0  0  0  0  0  0  0  0  0
   23.3442  -25.2266  -15.5299 C   0  0  0  0  0  0  0  0  0  0  0  0
   24.5097  -24.8056  -14.9171 C   0  0  0  0  0  0  0  0  0  0  0  0
   25.6822  -24.5993  -15.6103 C   0  0  0  0  0  0  0  0  0  0  0  0
   25.6915  -24.8207  -16.9607 C   0  0  0  0  0  0  0  0  0  0  0  0
   26.9202  -24.6140  -17.7371 C   0  0  0  0  0  0  0  0  0  0  0  0
   27.9879  -25.6348  -17.4138 C   0  0  2  0  0  0  0  0  0  0  0  0
   29.2314  -25.3999  -18.0916 N   0  0  0  0  0  0  0  0  0  0  0  0
   27.4286  -26.9822  -17.7020 C   0  0  0  0  0  0  0  0  0  0  0  0
   27.2923  -27.4108  -18.8765 O   0  0  0  0  0  0  0  0  0  0  0  0
   24.5545  -25.2382  -17.5997 C   0  0  0  0  0  0  0  0  0  0  0  0
   23.4093  -25.4342  -16.8886 C   0  0  0  0  0  0  0  0  0  0  0  0
   26.0983  -31.9585  -17.3571 N   0  0  0  0  0  0  0  0  0  0  0  0
   26.6474  -31.5491  -16.1132 C   0  0  0  0  0  0  0  0  0  0  0  0
   26.8281  -32.5007  -15.2790 O   0  0  0  0  0  0  0  0  0  0  0  0
   26.9938  -30.1537  -15.7836 C   0  0  0  0  0  0  0  0  0  0  0  0
   26.6512  -29.2727  -16.9379 C   0  0  2  0  0  0  0  0  0  0  0  0
   27.0107  -27.8752  -16.6773 N   0  0  0  0  0  0  0  0  0  0  0  0
   25.1856  -29.2662  -17.1149 C   0  0  0  0  0  0  0  0  0  0  0  0
   24.4482  -28.1387  -16.8710 O   0  0  0  0  0  0  0  0  0  0  0  0
   24.5960  -30.2969  -17.4921 O   0  0  0  0  0  0  0  0  0  0  0  0
  2  1  1  1
  2  3  1  0
  3  4  1  0
  4  5  1  0
  5  9  1  0
  6  5  2  0
  7  8  2  0
  7  2  1  0
 10 11  1  0
 11 21  2  0
 12 11  1  0
 12 13  2  0
 13 14  1  0
 14 20  2  0
 14 15  1  0
 16 15  1  6
 16 18  1  0
 16 17  1  0
 17  7  1  0
 18 27  1  0
 19 18  2  0
 21 20  1  0
 23 22  1  0
 23 24  2  0
 25 23  1  0
 26 27  1  0
 26 25  1  1
 28 26  1  0
 29 28  1  0
 30 28  2  0
M  END
$$$$
