EYN.pdb
     RDKit          3D

 30 30  0  0  1  0  0  0  0  0999 V2000
   24.0376  -16.8464  -18.9633 N   0  0  0  0  0  0  0  0  0  0  0  0
   23.8921  -18.2019  -19.4238 C   0  0  1  0  0  0  0  0  0  0  0  0
   25.0476  -18.4876  -20.3435 C   0  0  0  0  0  0  0  0  0  0  0  0
   25.0947  -17.6402  -21.5697 C   0  0  0  0  0  0  0  0  0  0  0  0
   26.5081  -17.2481  -21.8089 C   0  0  0  0  0  0  0  0  0  0  0  0
   27.4486  -18.0916  -21.8142 O   0  0  0  0  0  0  0  0  0  0  0  0
   23.8461  -19.1142  -18.2467 C   0  0  0  0  0  0  0  0  0  0  0  0
   23.7921  -20.3730  -18.3975 O   0  0  0  0  0  0  0  0  0  0  0  0
   26.8693  -15.9284  -22.0399 O   0  0  0  0  0  0  0  0  0  0  0  0
   29.9969  -20.3976  -17.4550 O   0  0  0  0  0  0  0  0  0  0  0  0
   28.7848  -20.0946  -16.8100 C   0  0  0  0  0  0  0  0  0  0  0  0
   28.0336  -21.0625  -16.1697 C   0  0  0  0  0  0  0  0  0  0  0  0
   26.8446  -20.7816  -15.5334 C   0  0  0  0  0  0  0  0  0  0  0  0
   26.3899  -19.4909  -15.5364 C   0  0  0  0  0  0  0  0  0  0  0  0
   25.1281  -19.1481  -14.8690 C   0  0  0  0  0  0  0  0  0  0  0  0
   23.9207  -19.4256  -15.7360 C   0  0  2  0  0  0  0  0  0  0  0  0
   23.8609  -18.6101  -16.9159 N   0  0  0  0  0  0  0  0  0  0  0  0
   22.7095  -19.2841  -14.8848 C   0  0  0  0  0  0  0  0  0  0  0  0
   22.5296  -18.2860  -14.1411 O   0  0  0  0  0  0  0  0  0  0  0  0
   27.1091  -18.5071  -16.1613 C   0  0  0  0  0  0  0  0  0  0  0  0
   28.2818  -18.8141  -16.7826 C   0  0  0  0  0  0  0  0  0  0  0  0
   19.2485  -17.6535  -13.6504 N   0  0  0  0  0  0  0  0  0  0  0  0
   18.6959  -18.5650  -14.5886 C   0  0  0  0  0  0  0  0  0  0  0  0
   17.6541  -18.1336  -15.1906 O   0  0  0  0  0  0  0  0  0  0  0  0
   19.2554  -19.9006  -14.8693 C   0  0  0  0  0  0  0  0  0  0  0  0
   20.4704  -20.1148  -14.0301 C   0  0  2  0  0  0  0  0  0  0  0  0
   21.6763  -20.2605  -14.8513 N   0  0  0  0  0  0  0  0  0  0  0  0
   20.3353  -21.3985  -13.3137 C   0  0  0  0  0  0  0  0  0  0  0  0
   19.7213  -21.4658  -12.0918 O   0  0  0  0  0  0  0  0  0  0  0  0
   20.7828  -22.4465  -13.8172 O   0  0  0  0  0  0  0  0  0  0  0  0
  2  1  1  1
  2  3  1  0
  3  4  1  0
  4  5  1  0
  5  9  1  0
  6  5  2  0
  7  8  2  0
  7  2  1  0
 10 11  1  0
 11 21  2  0
 12 11  1  0
 12 13  2  0
 13 14  1  0
 14 20  2  0
 14 15  1  0
 16 15  1  1
 16 18  1  0
 16 17  1  0
 17  7  1  0
 18 27  1  0
 19 18  2  0
 21 20  1  0
 23 22  1  0
 23 24  2  0
 25 23  1  0
 26 27  1  0
 26 25  1  6
 28 26  1  0
 29 28  1  0
 30 28  2  0
M  END
$$$$
