EYN.pdb
     RDKit          3D

 30 30  0  0  1  0  0  0  0  0999 V2000
   28.6142  -22.1991  -15.2998 N   0  0  0  0  0  0  0  0  0  0  0  0
   28.1856  -20.9494  -14.7296 C   0  0  1  0  0  0  0  0  0  0  0  0
   27.4739  -20.1853  -15.8124 C   0  0  0  0  0  0  0  0  0  0  0  0
   28.3413  -19.7531  -16.9457 C   0  0  0  0  0  0  0  0  0  0  0  0
   28.0736  -20.6473  -18.1022 C   0  0  0  0  0  0  0  0  0  0  0  0
   28.9758  -21.3619  -18.6232 O   0  0  0  0  0  0  0  0  0  0  0  0
   27.3216  -21.2241  -13.5472 C   0  0  0  0  0  0  0  0  0  0  0  0
   26.5745  -22.2490  -13.5080 O   0  0  0  0  0  0  0  0  0  0  0  0
   26.8123  -20.7437  -18.6724 O   0  0  0  0  0  0  0  0  0  0  0  0
   27.7923  -21.0698   -5.2563 O   0  0  0  0  0  0  0  0  0  0  0  0
   27.4448  -20.6111   -6.5393 C   0  0  0  0  0  0  0  0  0  0  0  0
   26.1669  -20.7537   -7.0471 C   0  0  0  0  0  0  0  0  0  0  0  0
   25.8109  -20.3097   -8.3016 C   0  0  0  0  0  0  0  0  0  0  0  0
   26.7626  -19.7029   -9.0754 C   0  0  0  0  0  0  0  0  0  0  0  0
   26.4250  -19.2141  -10.4179 C   0  0  0  0  0  0  0  0  0  0  0  0
   26.2745  -20.3352  -11.4213 C   0  0  2  0  0  0  0  0  0  0  0  0
   27.3025  -20.3514  -12.4232 N   0  0  0  0  0  0  0  0  0  0  0  0
   24.9109  -20.2390  -12.0069 C   0  0  0  0  0  0  0  0  0  0  0  0
   24.6310  -19.4141  -12.9140 O   0  0  0  0  0  0  0  0  0  0  0  0
   28.0385  -19.5453   -8.6034 C   0  0  0  0  0  0  0  0  0  0  0  0
   28.3621  -19.9942   -7.3587 C   0  0  0  0  0  0  0  0  0  0  0  0
   20.1797  -22.5283  -14.1466 N   0  0  0  0  0  0  0  0  0  0  0  0
   20.5386  -22.3382  -12.7860 C   0  0  0  0  0  0  0  0  0  0  0  0
   19.5536  -22.0815  -12.0128 O   0  0  0  0  0  0  0  0  0  0  0  0
   21.9203  -22.4266  -12.2770 C   0  0  0  0  0  0  0  0  0  0  0  0
   22.5232  -21.0623  -12.2419 C   0  0  2  0  0  0  0  0  0  0  0  0
   23.8342  -21.0668  -11.5854 N   0  0  0  0  0  0  0  0  0  0  0  0
   21.6772  -20.1880  -11.4056 C   0  0  0  0  0  0  0  0  0  0  0  0
   20.6194  -19.5037  -11.9417 O   0  0  0  0  0  0  0  0  0  0  0  0
   21.9179  -20.0610  -10.1899 O   0  0  0  0  0  0  0  0  0  0  0  0
  2  1  1  6
  2  3  1  0
  3  4  1  0
  4  5  1  0
  5  9  1  0
  6  5  2  0
  7  8  2  0
  7  2  1  0
 10 11  1  0
 11 21  2  0
 12 11  1  0
 12 13  2  0
 13 14  1  0
 14 20  2  0
 14 15  1  0
 16 15  1  1
 16 18  1  0
 16 17  1  0
 17  7  1  0
 18 27  1  0
 19 18  2  0
 21 20  1  0
 23 22  1  0
 23 24  2  0
 25 23  1  0
 26 27  1  0
 26 25  1  1
 28 26  1  0
 29 28  1  0
 30 28  2  0
M  END
$$$$
