EYN.pdb
     RDKit          3D

 30 30  0  0  1  0  0  0  0  0999 V2000
   24.7083  -19.3698  -16.5926 N   0  0  0  0  0  0  0  0  0  0  0  0
   24.5887  -18.3423  -17.5929 C   0  0  1  0  0  0  0  0  0  0  0  0
   23.3203  -18.6081  -18.3568 C   0  0  0  0  0  0  0  0  0  0  0  0
   23.2927  -19.9066  -19.0895 C   0  0  0  0  0  0  0  0  0  0  0  0
   22.9026  -20.9726  -18.1303 C   0  0  0  0  0  0  0  0  0  0  0  0
   23.7025  -21.8839  -17.7756 O   0  0  0  0  0  0  0  0  0  0  0  0
   24.5980  -17.0098  -16.9264 C   0  0  0  0  0  0  0  0  0  0  0  0
   23.7164  -16.7031  -16.0668 O   0  0  0  0  0  0  0  0  0  0  0  0
   21.6333  -21.0221  -17.5721 O   0  0  0  0  0  0  0  0  0  0  0  0
   26.7774   -8.5627  -15.3671 O   0  0  0  0  0  0  0  0  0  0  0  0
   26.8231   -9.9271  -15.7040 C   0  0  0  0  0  0  0  0  0  0  0  0
   26.8202  -10.9198  -14.7418 C   0  0  0  0  0  0  0  0  0  0  0  0
   26.8645  -12.2603  -15.0556 C   0  0  0  0  0  0  0  0  0  0  0  0
   26.9135  -12.6223  -16.3745 C   0  0  0  0  0  0  0  0  0  0  0  0
   26.9605  -14.0400  -16.7526 C   0  0  0  0  0  0  0  0  0  0  0  0
   25.5974  -14.6936  -16.7192 C   0  0  2  0  0  0  0  0  0  0  0  0
   25.5913  -16.0362  -17.2275 N   0  0  0  0  0  0  0  0  0  0  0  0
   24.6514  -13.8059  -17.4461 C   0  0  0  0  0  0  0  0  0  0  0  0
   24.6478  -13.7194  -18.7008 O   0  0  0  0  0  0  0  0  0  0  0  0
   26.9178  -11.6647  -17.3535 C   0  0  0  0  0  0  0  0  0  0  0  0
   26.8732  -10.3463  -17.0136 C   0  0  0  0  0  0  0  0  0  0  0  0
   20.7632  -10.6970  -18.8111 N   0  0  0  0  0  0  0  0  0  0  0  0
   20.4731  -11.2605  -17.5404 C   0  0  0  0  0  0  0  0  0  0  0  0
   19.3135  -10.9695  -17.0880 O   0  0  0  0  0  0  0  0  0  0  0  0
   21.4074  -12.1155  -16.7842 C   0  0  0  0  0  0  0  0  0  0  0  0
   22.7194  -12.1628  -17.4932 C   0  0  2  0  0  0  0  0  0  0  0  0
   23.6906  -12.9973  -16.7788 N   0  0  0  0  0  0  0  0  0  0  0  0
   23.3073  -10.8087  -17.5002 C   0  0  0  0  0  0  0  0  0  0  0  0
   23.3249  -10.0508  -18.6403 O   0  0  0  0  0  0  0  0  0  0  0  0
   23.7993  -10.3344  -16.4586 O   0  0  0  0  0  0  0  0  0  0  0  0
  2  1  1  1
  2  3  1  0
  3  4  1  0
  4  5  1  0
  5  9  1  0
  6  5  2  0
  7  8  2  0
  7  2  1  0
 10 11  1  0
 11 21  2  0
 12 11  1  0
 12 13  2  0
 13 14  1  0
 14 20  2  0
 14 15  1  0
 16 15  1  6
 16 18  1  0
 16 17  1  0
 17  7  1  0
 18 27  1  0
 19 18  2  0
 21 20  1  0
 23 22  1  0
 23 24  2  0
 25 23  1  0
 26 27  1  0
 26 25  1  1
 28 26  1  0
 29 28  1  0
 30 28  2  0
M  END
$$$$
