EYN.pdb
     RDKit          3D

 30 30  0  0  1  0  0  0  0  0999 V2000
   16.4643  -10.2704  -12.6569 N   0  0  0  0  0  0  0  0  0  0  0  0
   16.3746   -8.8563  -12.9072 C   0  0  1  0  0  0  0  0  0  0  0  0
   14.9982   -8.5852  -13.4502 C   0  0  0  0  0  0  0  0  0  0  0  0
   14.8052   -8.9622  -14.8800 C   0  0  0  0  0  0  0  0  0  0  0  0
   15.3070   -7.8478  -15.7256 C   0  0  0  0  0  0  0  0  0  0  0  0
   15.7586   -6.7774  -15.2293 O   0  0  0  0  0  0  0  0  0  0  0  0
   16.6572   -8.1188  -11.6437 C   0  0  0  0  0  0  0  0  0  0  0  0
   16.3986   -8.6355  -10.5140 O   0  0  0  0  0  0  0  0  0  0  0  0
   15.3053   -7.9262  -17.1109 O   0  0  0  0  0  0  0  0  0  0  0  0
   22.9357   -8.5019  -13.0935 O   0  0  0  0  0  0  0  0  0  0  0  0
   21.9401   -7.7089  -12.4961 C   0  0  0  0  0  0  0  0  0  0  0  0
   21.4206   -6.5908  -13.1217 C   0  0  0  0  0  0  0  0  0  0  0  0
   20.4451   -5.8040  -12.5499 C   0  0  0  0  0  0  0  0  0  0  0  0
   19.9723   -6.1446  -11.3116 C   0  0  0  0  0  0  0  0  0  0  0  0
   18.9321   -5.3339  -10.6668 C   0  0  0  0  0  0  0  0  0  0  0  0
   17.6362   -6.0919  -10.4864 C   0  0  2  0  0  0  0  0  0  0  0  0
   17.2251   -6.8140  -11.6570 N   0  0  0  0  0  0  0  0  0  0  0  0
   16.6059   -5.1243  -10.0240 C   0  0  0  0  0  0  0  0  0  0  0  0
   16.1040   -4.2655  -10.7935 O   0  0  0  0  0  0  0  0  0  0  0  0
   20.4648   -7.2459  -10.6635 C   0  0  0  0  0  0  0  0  0  0  0  0
   21.4294   -8.0057  -11.2534 C   0  0  0  0  0  0  0  0  0  0  0  0
   12.5909   -2.9984   -7.4348 N   0  0  0  0  0  0  0  0  0  0  0  0
   13.4255   -3.6916   -6.5187 C   0  0  0  0  0  0  0  0  0  0  0  0
   13.1763   -3.4452   -5.2894 O   0  0  0  0  0  0  0  0  0  0  0  0
   14.4945   -4.6253   -6.9203 C   0  0  0  0  0  0  0  0  0  0  0  0
   15.0282   -4.2227   -8.2541 C   0  0  2  0  0  0  0  0  0  0  0  0
   16.1189   -5.1013   -8.6882 N   0  0  0  0  0  0  0  0  0  0  0  0
   15.6362   -2.8823   -8.1401 C   0  0  0  0  0  0  0  0  0  0  0  0
   16.9799   -2.6965   -8.3263 O   0  0  0  0  0  0  0  0  0  0  0  0
   14.9271   -1.8941   -7.8705 O   0  0  0  0  0  0  0  0  0  0  0  0
  2  1  1  1
  2  3  1  0
  3  4  1  0
  4  5  1  0
  5  9  1  0
  6  5  2  0
  7  8  2  0
  7  2  1  0
 10 11  1  0
 11 21  2  0
 12 11  1  0
 12 13  2  0
 13 14  1  0
 14 20  2  0
 14 15  1  0
 16 15  1  6
 16 18  1  0
 16 17  1  0
 17  7  1  0
 18 27  1  0
 19 18  2  0
 21 20  1  0
 23 22  1  0
 23 24  2  0
 25 23  1  0
 26 27  1  0
 26 25  1  1
 28 26  1  0
 29 28  1  0
 30 28  2  0
M  END
$$$$
