EYN.pdb
     RDKit          3D

 30 30  0  0  1  0  0  0  0  0999 V2000
   16.4165  -19.1905    2.7407 N   0  0  0  0  0  0  0  0  0  0  0  0
   15.7233  -18.2690    3.6015 C   0  0  1  0  0  0  0  0  0  0  0  0
   14.8671  -19.0844    4.5314 C   0  0  0  0  0  0  0  0  0  0  0  0
   13.7954  -19.8759    3.8615 C   0  0  0  0  0  0  0  0  0  0  0  0
   12.7298  -18.9370    3.4237 C   0  0  0  0  0  0  0  0  0  0  0  0
   12.6554  -17.7535    3.8595 O   0  0  0  0  0  0  0  0  0  0  0  0
   16.7216  -17.4266    4.3183 C   0  0  0  0  0  0  0  0  0  0  0  0
   17.8564  -17.8922    4.6430 O   0  0  0  0  0  0  0  0  0  0  0  0
   11.7568  -19.3139    2.5092 O   0  0  0  0  0  0  0  0  0  0  0  0
   21.2348  -10.3945    6.9696 O   0  0  0  0  0  0  0  0  0  0  0  0
   20.2008  -11.2258    6.5041 C   0  0  0  0  0  0  0  0  0  0  0  0
   20.2526  -11.8350    5.2642 C   0  0  0  0  0  0  0  0  0  0  0  0
   19.2480  -12.6519    4.7940 C   0  0  0  0  0  0  0  0  0  0  0  0
   18.1548  -12.8681    5.5883 C   0  0  0  0  0  0  0  0  0  0  0  0
   17.0622  -13.7329    5.1260 C   0  0  0  0  0  0  0  0  0  0  0  0
   17.3541  -15.2005    5.3434 C   0  0  2  0  0  0  0  0  0  0  0  0
   16.4407  -16.0748    4.6635 N   0  0  0  0  0  0  0  0  0  0  0  0
   17.3883  -15.4432    6.8102 C   0  0  0  0  0  0  0  0  0  0  0  0
   16.3393  -15.6095    7.4837 O   0  0  0  0  0  0  0  0  0  0  0  0
   18.0711  -12.2803    6.8224 C   0  0  0  0  0  0  0  0  0  0  0  0
   19.0797  -11.4770    7.2614 C   0  0  0  0  0  0  0  0  0  0  0  0
   18.6269  -16.5772   11.6496 N   0  0  0  0  0  0  0  0  0  0  0  0
   19.2313  -17.4276   10.6864 C   0  0  0  0  0  0  0  0  0  0  0  0
   19.6990  -18.5165   11.1655 O   0  0  0  0  0  0  0  0  0  0  0  0
   19.3238  -17.1111    9.2487 C   0  0  0  0  0  0  0  0  0  0  0  0
   18.6440  -15.8096    8.9836 C   0  0  2  0  0  0  0  0  0  0  0  0
   18.6011  -15.5037    7.5502 N   0  0  0  0  0  0  0  0  0  0  0  0
   19.4420  -14.7231    9.5851 C   0  0  0  0  0  0  0  0  0  0  0  0
   20.0878  -13.8030    8.8033 O   0  0  0  0  0  0  0  0  0  0  0  0
   19.5386  -14.6291   10.8236 O   0  0  0  0  0  0  0  0  0  0  0  0
  2  1  1  6
  2  3  1  0
  3  4  1  0
  4  5  1  0
  5  9  1  0
  6  5  2  0
  7  8  2  0
  7  2  1  0
 10 11  1  0
 11 21  2  0
 12 11  1  0
 12 13  2  0
 13 14  1  0
 14 20  2  0
 14 15  1  0
 16 15  1  1
 16 18  1  0
 16 17  1  0
 17  7  1  0
 18 27  1  0
 19 18  2  0
 21 20  1  0
 23 22  1  0
 23 24  2  0
 25 23  1  0
 26 27  1  0
 26 25  1  6
 28 26  1  0
 29 28  1  0
 30 28  2  0
M  END
$$$$
