HGL.pdb
     RDKit          3D

 23 23  0  0  1  0  0  0  0  0999 V2000
   18.7206  -12.2745  -16.4832 N   0  0  0  0  0  0  0  0  0  0  0  0
   18.5074  -11.8818  -17.8621 C   0  0  1  0  0  0  0  0  0  0  0  0
   17.2124  -12.5290  -18.3020 C   0  0  0  0  0  0  0  0  0  0  0  0
   17.2897  -14.0076  -18.1876 C   0  0  0  0  0  0  0  0  0  0  0  0
   17.9154  -14.8932  -19.0433 C   0  0  0  0  0  0  0  0  0  0  0  0
   17.7509  -16.1603  -18.5772 N   0  0  0  0  0  0  0  0  0  0  0  0
   17.0253  -16.0717  -17.4339 C   0  0  0  0  0  0  0  0  0  0  0  0
   16.7538  -14.7847  -17.2077 N   0  0  0  0  0  0  0  0  0  0  0  0
   18.4818  -10.4252  -17.9395 C   0  0  0  0  0  0  0  0  0  0  0  0
   18.2980   -9.8630  -19.0456 O   0  0  0  0  0  0  0  0  0  0  0  0
   18.6555   -9.5627  -16.8159 N   0  0  0  0  0  0  0  0  0  0  0  0
   18.5750   -8.1358  -16.8951 C   0  0  0  0  0  0  0  0  0  0  0  0
   18.8620   -7.5631  -15.5431 C   0  0  0  0  0  0  0  0  0  0  0  0
   18.1921   -7.9596  -14.5300 O   0  0  0  0  0  0  0  0  0  0  0  0
   23.3719   -9.7227  -14.1480 C   0  0  0  0  0  0  0  0  0  0  0  0
   22.6180   -8.5136  -13.5719 C   0  0  2  0  0  0  0  0  0  0  0  0
   22.0835   -8.9827  -12.2397 C   0  0  0  0  0  0  0  0  0  0  0  0
   21.5783   -8.1571  -14.5699 C   0  0  0  0  0  0  0  0  0  0  0  0
   20.9225   -6.8160  -14.3716 C   0  0  2  0  0  0  0  0  0  0  0  0
   19.8412   -6.5957  -15.3047 N   0  0  0  0  0  0  0  0  0  0  0  0
   21.8240   -5.6688  -14.3987 C   0  0  0  0  0  0  0  0  0  0  0  0
   22.4183   -5.1565  -13.2538 O   0  0  0  0  0  0  0  0  0  0  0  0
   22.0913   -5.1014  -15.4853 O   0  0  0  0  0  0  0  0  0  0  0  0
  2  1  1  1
  2  3  1  0
  3  4  1  0
  4  5  2  0
  5  6  1  0
  7  6  1  0
  8  4  1  0
  8  7  2  0
  9  2  1  0
  9 10  2  0
 11  9  1  0
 12 11  1  0
 12 13  1  0
 13 20  1  0
 14 13  2  0
 16 15  1  6
 16 17  1  0
 18 16  1  0
 19 18  1  6
 20 19  1  0
 21 19  1  0
 21 22  1  0
 23 21  2  0
M  END
$$$$
