HGL.pdb
     RDKit          3D

 23 23  0  0  1  0  0  0  0  0999 V2000
   14.1461   -7.3901  -10.2603 N   0  0  0  0  0  0  0  0  0  0  0  0
   14.7496   -8.2206   -9.2370 C   0  0  1  0  0  0  0  0  0  0  0  0
   14.4072   -9.6531   -9.5834 C   0  0  0  0  0  0  0  0  0  0  0  0
   12.9426   -9.8851   -9.5042 C   0  0  0  0  0  0  0  0  0  0  0  0
   12.1205  -10.4521  -10.4584 C   0  0  0  0  0  0  0  0  0  0  0  0
   10.8434  -10.4805   -9.9916 N   0  0  0  0  0  0  0  0  0  0  0  0
   10.8624   -9.9340   -8.7497 C   0  0  0  0  0  0  0  0  0  0  0  0
   12.1179   -9.5811   -8.4656 N   0  0  0  0  0  0  0  0  0  0  0  0
   16.1847   -7.9605   -9.2037 C   0  0  0  0  0  0  0  0  0  0  0  0
   16.9109   -8.5756   -8.3866 O   0  0  0  0  0  0  0  0  0  0  0  0
   16.8475   -7.0290  -10.0580 N   0  0  0  0  0  0  0  0  0  0  0  0
   18.2558   -6.7778  -10.0117 C   0  0  0  0  0  0  0  0  0  0  0  0
   18.7516   -6.5648  -11.4071 C   0  0  0  0  0  0  0  0  0  0  0  0
   17.9364   -6.6352  -12.3885 O   0  0  0  0  0  0  0  0  0  0  0  0
   21.2322   -3.4477  -14.8620 C   0  0  0  0  0  0  0  0  0  0  0  0
   19.9344   -4.2683  -14.9308 C   0  0  2  0  0  0  0  0  0  0  0  0
   18.9087   -3.3317  -15.5234 C   0  0  0  0  0  0  0  0  0  0  0  0
   19.6469   -4.7099  -13.5429 C   0  0  0  0  0  0  0  0  0  0  0  0
   20.4851   -5.8558  -13.0407 C   0  0  2  0  0  0  0  0  0  0  0  0
   20.0840   -6.2858  -11.7206 N   0  0  0  0  0  0  0  0  0  0  0  0
   21.9267   -5.6305  -13.0571 C   0  0  0  0  0  0  0  0  0  0  0  0
   22.7219   -5.9490  -14.1492 O   0  0  0  0  0  0  0  0  0  0  0  0
   22.4991   -5.1308  -12.0587 O   0  0  0  0  0  0  0  0  0  0  0  0
  2  1  1  6
  2  3  1  0
  3  4  1  0
  4  5  2  0
  5  6  1  0
  7  6  1  0
  8  4  1  0
  8  7  2  0
  9  2  1  0
  9 10  2  0
 11  9  1  0
 12 11  1  0
 12 13  1  0
 13 20  1  0
 14 13  2  0
 16 15  1  1
 16 17  1  0
 18 16  1  0
 19 18  1  1
 20 19  1  0
 21 19  1  0
 21 22  1  0
 23 21  2  0
M  END
$$$$
