HGL.pdb
     RDKit          3D

 23 23  0  0  1  0  0  0  0  0999 V2000
   16.2235  -24.7235   -5.1390 N   0  0  0  0  0  0  0  0  0  0  0  0
   16.6638  -25.9779   -4.5614 C   0  0  1  0  0  0  0  0  0  0  0  0
   18.0968  -26.1794   -5.0032 C   0  0  0  0  0  0  0  0  0  0  0  0
   18.2067  -26.1535   -6.4839 C   0  0  0  0  0  0  0  0  0  0  0  0
   17.8468  -27.1422   -7.3789 C   0  0  0  0  0  0  0  0  0  0  0  0
   18.1105  -26.7200   -8.6446 N   0  0  0  0  0  0  0  0  0  0  0  0
   18.6337  -25.4718   -8.5459 C   0  0  0  0  0  0  0  0  0  0  0  0
   18.6881  -25.1404   -7.2542 N   0  0  0  0  0  0  0  0  0  0  0  0
   16.5093  -25.9104   -3.1123 C   0  0  0  0  0  0  0  0  0  0  0  0
   16.7431  -24.8353   -2.5099 O   0  0  0  0  0  0  0  0  0  0  0  0
   16.0988  -27.0103   -2.3009 N   0  0  0  0  0  0  0  0  0  0  0  0
   15.8892  -26.9153   -0.8882 C   0  0  0  0  0  0  0  0  0  0  0  0
   17.1516  -27.3087   -0.1881 C   0  0  0  0  0  0  0  0  0  0  0  0
   18.1431  -27.7464   -0.8646 O   0  0  0  0  0  0  0  0  0  0  0  0
   20.8034  -25.8445    0.9366 C   0  0  0  0  0  0  0  0  0  0  0  0
   19.6222  -25.3824    1.8048 C   0  0  2  0  0  0  0  0  0  0  0  0
   20.1566  -24.2212    2.6088 C   0  0  0  0  0  0  0  0  0  0  0  0
   19.2108  -26.5604    2.6092 C   0  0  0  0  0  0  0  0  0  0  0  0
   18.5423  -27.6691    1.8397 C   0  0  2  0  0  0  0  0  0  0  0  0
   17.3263  -27.2279    1.1955 N   0  0  0  0  0  0  0  0  0  0  0  0
   18.2711  -28.8838    2.6014 C   0  0  0  0  0  0  0  0  0  0  0  0
   19.2627  -29.7967    2.9328 O   0  0  0  0  0  0  0  0  0  0  0  0
   17.1048  -29.1410    2.9856 O   0  0  0  0  0  0  0  0  0  0  0  0
  2  1  1  6
  2  3  1  0
  3  4  1  0
  4  5  2  0
  5  6  1  0
  7  6  1  0
  8  4  1  0
  8  7  2  0
  9  2  1  0
  9 10  2  0
 11  9  1  0
 12 11  1  0
 12 13  1  0
 13 20  1  0
 14 13  2  0
 16 15  1  6
 16 17  1  0
 18 16  1  0
 19 18  1  1
 20 19  1  0
 21 19  1  0
 21 22  1  0
 23 21  2  0
M  END
$$$$
