HGL.pdb
     RDKit          3D

 23 23  0  0  1  0  0  0  0  0999 V2000
   24.3963  -15.7053  -18.4285 N   0  0  0  0  0  0  0  0  0  0  0  0
   24.4577  -17.0203  -17.8217 C   0  0  1  0  0  0  0  0  0  0  0  0
   25.5659  -16.9717  -16.7926 C   0  0  0  0  0  0  0  0  0  0  0  0
   26.8828  -16.7386  -17.4381 C   0  0  0  0  0  0  0  0  0  0  0  0
   27.8030  -17.6813  -17.8533 C   0  0  0  0  0  0  0  0  0  0  0  0
   28.8792  -17.0504  -18.3951 N   0  0  0  0  0  0  0  0  0  0  0  0
   28.6367  -15.7173  -18.3210 C   0  0  0  0  0  0  0  0  0  0  0  0
   27.4441  -15.5387  -17.7490 N   0  0  0  0  0  0  0  0  0  0  0  0
   23.1529  -17.3387  -17.2521 C   0  0  0  0  0  0  0  0  0  0  0  0
   22.5750  -16.5056  -16.5137 O   0  0  0  0  0  0  0  0  0  0  0  0
   22.4608  -18.5661  -17.4785 N   0  0  0  0  0  0  0  0  0  0  0  0
   21.1592  -18.8478  -16.9540 C   0  0  0  0  0  0  0  0  0  0  0  0
   21.3119  -19.5737  -15.6547 C   0  0  0  0  0  0  0  0  0  0  0  0
   22.4517  -20.0442  -15.3202 O   0  0  0  0  0  0  0  0  0  0  0  0
   20.8076  -19.1503   -9.9821 C   0  0  0  0  0  0  0  0  0  0  0  0
   20.8540  -20.2661  -11.0382 C   0  0  2  0  0  0  0  0  0  0  0  0
   22.1727  -20.9663  -10.8117 C   0  0  0  0  0  0  0  0  0  0  0  0
   20.7222  -19.5969  -12.3569 C   0  0  0  0  0  0  0  0  0  0  0  0
   20.4451  -20.5099  -13.5221 C   0  0  2  0  0  0  0  0  0  0  0  0
   20.2630  -19.7787  -14.7551 N   0  0  0  0  0  0  0  0  0  0  0  0
   19.3309  -21.4346  -13.3409 C   0  0  0  0  0  0  0  0  0  0  0  0
   19.4702  -22.6586  -12.7014 O   0  0  0  0  0  0  0  0  0  0  0  0
   18.1894  -21.1397  -13.7700 O   0  0  0  0  0  0  0  0  0  0  0  0
  2  1  1  1
  2  3  1  0
  3  4  1  0
  4  5  2  0
  5  6  1  0
  7  6  1  0
  8  4  1  0
  8  7  2  0
  9  2  1  0
  9 10  2  0
 11  9  1  0
 12 11  1  0
 12 13  1  0
 13 20  1  0
 14 13  2  0
 16 15  1  1
 16 17  1  0
 18 16  1  0
 19 18  1  1
 20 19  1  0
 21 19  1  0
 21 22  1  0
 23 21  2  0
M  END
$$$$
