HGL.pdb
     RDKit          3D

 23 23  0  0  1  0  0  0  0  0999 V2000
   24.5298  -20.9057  -16.0533 N   0  0  0  0  0  0  0  0  0  0  0  0
   24.0559  -19.6617  -16.6268 C   0  0  1  0  0  0  0  0  0  0  0  0
   23.6512  -19.9677  -18.0522 C   0  0  0  0  0  0  0  0  0  0  0  0
   24.8094  -20.4588  -18.8413 C   0  0  0  0  0  0  0  0  0  0  0  0
   25.0667  -21.7510  -19.2563 C   0  0  0  0  0  0  0  0  0  0  0  0
   26.2330  -21.7743  -19.9555 N   0  0  0  0  0  0  0  0  0  0  0  0
   26.7068  -20.5029  -19.9801 C   0  0  0  0  0  0  0  0  0  0  0  0
   25.8525  -19.7237  -19.3136 N   0  0  0  0  0  0  0  0  0  0  0  0
   22.9590  -19.1533  -15.8103 C   0  0  0  0  0  0  0  0  0  0  0  0
   22.3270  -18.1348  -16.1800 O   0  0  0  0  0  0  0  0  0  0  0  0
   22.5360  -19.7456  -14.5828 N   0  0  0  0  0  0  0  0  0  0  0  0
   21.5411  -19.1707  -13.7294 C   0  0  0  0  0  0  0  0  0  0  0  0
   20.2020  -19.7100  -14.1220 C   0  0  0  0  0  0  0  0  0  0  0  0
   19.1636  -19.3795  -13.4549 O   0  0  0  0  0  0  0  0  0  0  0  0
   17.4096  -19.3502  -17.6580 C   0  0  0  0  0  0  0  0  0  0  0  0
   18.6668  -20.1961  -17.9154 C   0  0  2  0  0  0  0  0  0  0  0  0
   18.6274  -20.5192  -19.3900 C   0  0  0  0  0  0  0  0  0  0  0  0
   18.5677  -21.3736  -17.0166 C   0  0  0  0  0  0  0  0  0  0  0  0
   18.6921  -21.0779  -15.5452 C   0  0  2  0  0  0  0  0  0  0  0  0
   20.0025  -20.5759  -15.1999 N   0  0  0  0  0  0  0  0  0  0  0  0
   18.3483  -22.1812  -14.6543 C   0  0  0  0  0  0  0  0  0  0  0  0
   19.2862  -23.1001  -14.2042 O   0  0  0  0  0  0  0  0  0  0  0  0
   17.1659  -22.3318  -14.2628 O   0  0  0  0  0  0  0  0  0  0  0  0
  2  1  1  1
  2  3  1  0
  3  4  1  0
  4  5  2  0
  5  6  1  0
  7  6  1  0
  8  4  1  0
  8  7  2  0
  9  2  1  0
  9 10  2  0
 11  9  1  0
 12 11  1  0
 12 13  1  0
 13 20  1  0
 14 13  2  0
 16 15  1  1
 16 17  1  0
 18 16  1  0
 19 18  1  6
 20 19  1  0
 21 19  1  0
 21 22  1  0
 23 21  2  0
M  END
$$$$
