HGL.pdb
     RDKit          3D

 23 23  0  0  1  0  0  0  0  0999 V2000
   26.5639  -18.9827  -15.8272 N   0  0  0  0  0  0  0  0  0  0  0  0
   27.2585  -18.2548  -14.7837 C   0  0  1  0  0  0  0  0  0  0  0  0
   26.3388  -17.1341  -14.3508 C   0  0  0  0  0  0  0  0  0  0  0  0
   26.0737  -16.1985  -15.4732 C   0  0  0  0  0  0  0  0  0  0  0  0
   26.6388  -16.2037  -16.7336 C   0  0  0  0  0  0  0  0  0  0  0  0
   26.1233  -15.1767  -17.4612 N   0  0  0  0  0  0  0  0  0  0  0  0
   25.2383  -14.5289  -16.6621 C   0  0  0  0  0  0  0  0  0  0  0  0
   25.2139  -15.1439  -15.4778 N   0  0  0  0  0  0  0  0  0  0  0  0
   27.5918  -19.1790  -13.7052 C   0  0  0  0  0  0  0  0  0  0  0  0
   28.1978  -18.7598  -12.6902 O   0  0  0  0  0  0  0  0  0  0  0  0
   27.2704  -20.5694  -13.7172 N   0  0  0  0  0  0  0  0  0  0  0  0
   27.9385  -21.5420  -12.9070 C   0  0  0  0  0  0  0  0  0  0  0  0
   27.2978  -21.5625  -11.5552 C   0  0  0  0  0  0  0  0  0  0  0  0
   27.6056  -22.4793  -10.7203 O   0  0  0  0  0  0  0  0  0  0  0  0
   27.4278  -19.3708   -6.7511 C   0  0  0  0  0  0  0  0  0  0  0  0
   27.0037  -20.4841   -7.7223 C   0  0  2  0  0  0  0  0  0  0  0  0
   28.2924  -21.1483   -8.1449 C   0  0  0  0  0  0  0  0  0  0  0  0
   26.2572  -19.8178   -8.8190 C   0  0  0  0  0  0  0  0  0  0  0  0
   25.6776  -20.7381   -9.8607 C   0  0  2  0  0  0  0  0  0  0  0  0
   26.3581  -20.6203  -11.1301 N   0  0  0  0  0  0  0  0  0  0  0  0
   24.2389  -20.6164  -10.0719 C   0  0  0  0  0  0  0  0  0  0  0  0
   23.3110  -20.8755   -9.0727 O   0  0  0  0  0  0  0  0  0  0  0  0
   23.7923  -20.2660  -11.1908 O   0  0  0  0  0  0  0  0  0  0  0  0
  2  1  1  6
  2  3  1  0
  3  4  1  0
  4  5  2  0
  5  6  1  0
  7  6  1  0
  8  4  1  0
  8  7  2  0
  9  2  1  0
  9 10  2  0
 11  9  1  0
 12 11  1  0
 12 13  1  0
 13 20  1  0
 14 13  2  0
 16 15  1  1
 16 17  1  0
 18 16  1  0
 19 18  1  1
 20 19  1  0
 21 19  1  0
 21 22  1  0
 23 21  2  0
M  END
$$$$
