HGL.pdb
     RDKit          3D

 23 23  0  0  1  0  0  0  0  0999 V2000
   20.8527  -22.2210  -18.8073 N   0  0  0  0  0  0  0  0  0  0  0  0
   21.4671  -23.2270  -17.9638 C   0  0  1  0  0  0  0  0  0  0  0  0
   22.8755  -23.4248  -18.4802 C   0  0  0  0  0  0  0  0  0  0  0  0
   22.8660  -23.8712  -19.8964 C   0  0  0  0  0  0  0  0  0  0  0  0
   23.3484  -23.1975  -21.0017 C   0  0  0  0  0  0  0  0  0  0  0  0
   23.1460  -23.9549  -22.1130 N   0  0  0  0  0  0  0  0  0  0  0  0
   22.5392  -25.0993  -21.7086 C   0  0  0  0  0  0  0  0  0  0  0  0
   22.3754  -25.0424  -20.3852 N   0  0  0  0  0  0  0  0  0  0  0  0
   21.4173  -22.7751  -16.5775 C   0  0  0  0  0  0  0  0  0  0  0  0
   21.5598  -21.5572  -16.3135 O   0  0  0  0  0  0  0  0  0  0  0  0
   21.2121  -23.6414  -15.4621 N   0  0  0  0  0  0  0  0  0  0  0  0
   21.0818  -23.1772  -14.1144 C   0  0  0  0  0  0  0  0  0  0  0  0
   19.7012  -23.4900  -13.6303 C   0  0  0  0  0  0  0  0  0  0  0  0
   18.8347  -23.9606  -14.4428 O   0  0  0  0  0  0  0  0  0  0  0  0
   18.2707  -26.3897  -10.6352 C   0  0  0  0  0  0  0  0  0  0  0  0
   18.8239  -25.0981  -10.0121 C   0  0  2  0  0  0  0  0  0  0  0  0
   18.8697  -25.3672   -8.5269 C   0  0  0  0  0  0  0  0  0  0  0  0
   17.9000  -24.0101  -10.4202 C   0  0  0  0  0  0  0  0  0  0  0  0
   17.9450  -23.6344  -11.8779 C   0  0  2  0  0  0  0  0  0  0  0  0
   19.2815  -23.2972  -12.3119 N   0  0  0  0  0  0  0  0  0  0  0  0
   17.0259  -22.5745  -12.2792 C   0  0  0  0  0  0  0  0  0  0  0  0
   15.6679  -22.7920  -12.4660 O   0  0  0  0  0  0  0  0  0  0  0  0
   17.4506  -21.4096  -12.4711 O   0  0  0  0  0  0  0  0  0  0  0  0
  2  1  1  6
  2  3  1  0
  3  4  1  0
  4  5  2  0
  5  6  1  0
  7  6  1  0
  8  4  1  0
  8  7  2  0
  9  2  1  0
  9 10  2  0
 11  9  1  0
 12 11  1  0
 12 13  1  0
 13 20  1  0
 14 13  2  0
 16 15  1  6
 16 17  1  0
 18 16  1  0
 19 18  1  1
 20 19  1  0
 21 19  1  0
 21 22  1  0
 23 21  2  0
M  END
$$$$
