HGL.pdb
     RDKit          3D

 23 23  0  0  1  0  0  0  0  0999 V2000
   21.8590  -19.7390  -20.2748 N   0  0  0  0  0  0  0  0  0  0  0  0
   22.3087  -19.4680  -18.9237 C   0  0  1  0  0  0  0  0  0  0  0  0
   22.0696  -17.9949  -18.6743 C   0  0  0  0  0  0  0  0  0  0  0  0
   22.8835  -17.1597  -19.5936 C   0  0  0  0  0  0  0  0  0  0  0  0
   24.1919  -16.7475  -19.4314 C   0  0  0  0  0  0  0  0  0  0  0  0
   24.5624  -15.9967  -20.5032 N   0  0  0  0  0  0  0  0  0  0  0  0
   23.4922  -15.9371  -21.3354 C   0  0  0  0  0  0  0  0  0  0  0  0
   22.4944  -16.6331  -20.7864 N   0  0  0  0  0  0  0  0  0  0  0  0
   21.5840  -20.3360  -18.0019 C   0  0  0  0  0  0  0  0  0  0  0  0
   21.7265  -20.1886  -16.7645 O   0  0  0  0  0  0  0  0  0  0  0  0
   20.6958  -21.3743  -18.4141 N   0  0  0  0  0  0  0  0  0  0  0  0
   20.0200  -22.2449  -17.5009 C   0  0  0  0  0  0  0  0  0  0  0  0
   18.6543  -21.6950  -17.2350 C   0  0  0  0  0  0  0  0  0  0  0  0
   18.3016  -20.5870  -17.7643 O   0  0  0  0  0  0  0  0  0  0  0  0
   13.6352  -22.1772  -14.6864 C   0  0  0  0  0  0  0  0  0  0  0  0
   13.9227  -22.3330  -16.1883 C   0  0  2  0  0  0  0  0  0  0  0  0
   12.8673  -23.2878  -16.6930 C   0  0  0  0  0  0  0  0  0  0  0  0
   15.3169  -22.8317  -16.2957 C   0  0  0  0  0  0  0  0  0  0  0  0
   16.3901  -21.7782  -16.2139 C   0  0  2  0  0  0  0  0  0  0  0  0
   17.7098  -22.3284  -16.4237 N   0  0  0  0  0  0  0  0  0  0  0  0
   16.3896  -20.9785  -14.9934 C   0  0  0  0  0  0  0  0  0  0  0  0
   17.1171  -21.3328  -13.8658 O   0  0  0  0  0  0  0  0  0  0  0  0
   15.7138  -19.9233  -14.9302 O   0  0  0  0  0  0  0  0  0  0  0  0
  2  1  1  6
  2  3  1  0
  3  4  1  0
  4  5  2  0
  5  6  1  0
  7  6  1  0
  8  4  1  0
  8  7  2  0
  9  2  1  0
  9 10  2  0
 11  9  1  0
 12 11  1  0
 12 13  1  0
 13 20  1  0
 14 13  2  0
 16 15  1  1
 16 17  1  0
 18 16  1  0
 19 18  1  1
 20 19  1  0
 21 19  1  0
 21 22  1  0
 23 21  2  0
M  END
$$$$
