HGL.pdb
     RDKit          3D

 23 23  0  0  1  0  0  0  0  0999 V2000
   17.4038   -9.8700  -18.6818 N   0  0  0  0  0  0  0  0  0  0  0  0
   17.0681  -10.2503  -17.3239 C   0  0  1  0  0  0  0  0  0  0  0  0
   17.9598  -11.4198  -16.9681 C   0  0  0  0  0  0  0  0  0  0  0  0
   17.7235  -12.5672  -17.8807 C   0  0  0  0  0  0  0  0  0  0  0  0
   16.5146  -13.1307  -18.2399 C   0  0  0  0  0  0  0  0  0  0  0  0
   16.7371  -14.1633  -19.0966 N   0  0  0  0  0  0  0  0  0  0  0  0
   18.0796  -14.2487  -19.2752 C   0  0  0  0  0  0  0  0  0  0  0  0
   18.6615  -13.2935  -18.5469 N   0  0  0  0  0  0  0  0  0  0  0  0
   17.2522   -9.0959  -16.4511 C   0  0  0  0  0  0  0  0  0  0  0  0
   16.9584   -9.1810  -15.2347 O   0  0  0  0  0  0  0  0  0  0  0  0
   17.7576   -7.8355  -16.8901 N   0  0  0  0  0  0  0  0  0  0  0  0
   17.9483   -6.7144  -16.0209 C   0  0  0  0  0  0  0  0  0  0  0  0
   19.3639   -6.7175  -15.5369 C   0  0  0  0  0  0  0  0  0  0  0  0
   19.7767   -5.7786  -14.7750 O   0  0  0  0  0  0  0  0  0  0  0  0
   24.2504   -9.4017  -15.3042 C   0  0  0  0  0  0  0  0  0  0  0  0
   23.3208   -9.1612  -14.1040 C   0  0  2  0  0  0  0  0  0  0  0  0
   23.5369  -10.3482  -13.1960 C   0  0  0  0  0  0  0  0  0  0  0  0
   21.9485   -9.0418  -14.6578 C   0  0  0  0  0  0  0  0  0  0  0  0
   21.6250   -7.7233  -15.3095 C   0  0  2  0  0  0  0  0  0  0  0  0
   20.2933   -7.7057  -15.8703 N   0  0  0  0  0  0  0  0  0  0  0  0
   22.5789   -7.2736  -16.3181 C   0  0  0  0  0  0  0  0  0  0  0  0
   23.6378   -6.4265  -16.0221 O   0  0  0  0  0  0  0  0  0  0  0  0
   22.4631   -7.6503  -17.5092 O   0  0  0  0  0  0  0  0  0  0  0  0
  2  1  1  6
  2  3  1  0
  3  4  1  0
  4  5  2  0
  5  6  1  0
  7  6  1  0
  8  4  1  0
  8  7  2  0
  9  2  1  0
  9 10  2  0
 11  9  1  0
 12 11  1  0
 12 13  1  0
 13 20  1  0
 14 13  2  0
 16 15  1  6
 16 17  1  0
 18 16  1  0
 19 18  1  6
 20 19  1  0
 21 19  1  0
 21 22  1  0
 23 21  2  0
M  END
$$$$
