HGL.pdb
     RDKit          3D

 23 23  0  0  1  0  0  0  0  0999 V2000
   28.0066  -19.5095  -15.5105 N   0  0  0  0  0  0  0  0  0  0  0  0
   26.7649  -18.7617  -15.5030 C   0  0  1  0  0  0  0  0  0  0  0  0
   26.2571  -18.7498  -16.9282 C   0  0  0  0  0  0  0  0  0  0  0  0
   27.0473  -17.8140  -17.7678 C   0  0  0  0  0  0  0  0  0  0  0  0
   27.8911  -16.8039  -17.3485 C   0  0  0  0  0  0  0  0  0  0  0  0
   28.4207  -16.1809  -18.4353 N   0  0  0  0  0  0  0  0  0  0  0  0
   27.9124  -16.7964  -19.5327 C   0  0  0  0  0  0  0  0  0  0  0  0
   27.0940  -17.7695  -19.1269 N   0  0  0  0  0  0  0  0  0  0  0  0
   25.8411  -19.3900  -14.5648 C   0  0  0  0  0  0  0  0  0  0  0  0
   24.6056  -19.2200  -14.6983 O   0  0  0  0  0  0  0  0  0  0  0  0
   26.2492  -20.2103  -13.4706 N   0  0  0  0  0  0  0  0  0  0  0  0
   25.3333  -20.8171  -12.5532 C   0  0  0  0  0  0  0  0  0  0  0  0
   26.0433  -21.0658  -11.2600 C   0  0  0  0  0  0  0  0  0  0  0  0
   26.8781  -22.0287  -11.1688 O   0  0  0  0  0  0  0  0  0  0  0  0
   26.6878  -19.6728   -5.9868 C   0  0  0  0  0  0  0  0  0  0  0  0
   27.8563  -20.0780   -6.8995 C   0  0  2  0  0  0  0  0  0  0  0  0
   29.0261  -19.2450   -6.4327 C   0  0  0  0  0  0  0  0  0  0  0  0
   27.4125  -19.8055   -8.2898 C   0  0  0  0  0  0  0  0  0  0  0  0
   26.3359  -20.7171   -8.8169 C   0  0  2  0  0  0  0  0  0  0  0  0
   25.8508  -20.2950  -10.1110 N   0  0  0  0  0  0  0  0  0  0  0  0
   25.2024  -20.9286   -7.9226 C   0  0  0  0  0  0  0  0  0  0  0  0
   25.2509  -21.8040   -6.8466 O   0  0  0  0  0  0  0  0  0  0  0  0
   24.1272  -20.3092   -8.1085 O   0  0  0  0  0  0  0  0  0  0  0  0
  2  1  1  6
  2  3  1  0
  3  4  1  0
  4  5  2  0
  5  6  1  0
  7  6  1  0
  8  4  1  0
  8  7  2  0
  9  2  1  0
  9 10  2  0
 11  9  1  0
 12 11  1  0
 12 13  1  0
 13 20  1  0
 14 13  2  0
 16 15  1  1
 16 17  1  0
 18 16  1  0
 19 18  1  1
 20 19  1  0
 21 19  1  0
 21 22  1  0
 23 21  2  0
M  END
$$$$
