HGL.pdb
     RDKit          3D

 23 23  0  0  1  0  0  0  0  0999 V2000
   18.2836  -12.9285  -18.0313 N   0  0  0  0  0  0  0  0  0  0  0  0
   17.0208  -12.2463  -18.2338 C   0  0  1  0  0  0  0  0  0  0  0  0
   16.0598  -12.7979  -17.2034 C   0  0  0  0  0  0  0  0  0  0  0  0
   15.8027  -14.2422  -17.4337 C   0  0  0  0  0  0  0  0  0  0  0  0
   16.3079  -15.0444  -18.4383 C   0  0  0  0  0  0  0  0  0  0  0  0
   15.8250  -16.3072  -18.2905 N   0  0  0  0  0  0  0  0  0  0  0  0
   15.0200  -16.2991  -17.1980 C   0  0  0  0  0  0  0  0  0  0  0  0
   15.0115  -15.0641  -16.6921 N   0  0  0  0  0  0  0  0  0  0  0  0
   17.2362  -10.8085  -18.1128 C   0  0  0  0  0  0  0  0  0  0  0  0
   16.2604  -10.0238  -18.1844 O   0  0  0  0  0  0  0  0  0  0  0  0
   18.5147  -10.2067  -17.9125 N   0  0  0  0  0  0  0  0  0  0  0  0
   18.7105   -8.7961  -17.7696 C   0  0  0  0  0  0  0  0  0  0  0  0
   19.1312   -8.5099  -16.3627 C   0  0  0  0  0  0  0  0  0  0  0  0
   18.3254   -8.7429  -15.3990 O   0  0  0  0  0  0  0  0  0  0  0  0
   23.2352  -10.1078  -12.7177 C   0  0  0  0  0  0  0  0  0  0  0  0
   22.1498   -9.0248  -12.8246 C   0  0  2  0  0  0  0  0  0  0  0  0
   21.1124   -9.4059  -11.7954 C   0  0  0  0  0  0  0  0  0  0  0  0
   21.6724   -9.0511  -14.2300 C   0  0  0  0  0  0  0  0  0  0  0  0
   20.8150   -7.8847  -14.6452 C   0  0  2  0  0  0  0  0  0  0  0  0
   20.3815   -7.9899  -16.0197 N   0  0  0  0  0  0  0  0  0  0  0  0
   21.4020   -6.5672  -14.4242 C   0  0  0  0  0  0  0  0  0  0  0  0
   21.5233   -6.0038  -13.1615 O   0  0  0  0  0  0  0  0  0  0  0  0
   21.8223   -5.8923  -15.3948 O   0  0  0  0  0  0  0  0  0  0  0  0
  2  1  1  1
  2  3  1  0
  3  4  1  0
  4  5  2  0
  5  6  1  0
  7  6  1  0
  8  4  1  0
  8  7  2  0
  9  2  1  0
  9 10  2  0
 11  9  1  0
 12 11  1  0
 12 13  1  0
 13 20  1  0
 14 13  2  0
 16 15  1  6
 16 17  1  0
 18 16  1  0
 19 18  1  6
 20 19  1  0
 21 19  1  0
 21 22  1  0
 23 21  2  0
M  END
$$$$
