HGL.pdb
     RDKit          3D

 23 23  0  0  1  0  0  0  0  0999 V2000
   26.2860  -11.6224  -22.8541 N   0  0  0  0  0  0  0  0  0  0  0  0
   25.6801  -12.8838  -22.4764 C   0  0  1  0  0  0  0  0  0  0  0  0
   26.0285  -13.8754  -23.5649 C   0  0  0  0  0  0  0  0  0  0  0  0
   25.3549  -13.5246  -24.8410 C   0  0  0  0  0  0  0  0  0  0  0  0
   24.1708  -14.0294  -25.3422 C   0  0  0  0  0  0  0  0  0  0  0  0
   23.9045  -13.4439  -26.5406 N   0  0  0  0  0  0  0  0  0  0  0  0
   24.9162  -12.5751  -26.7916 C   0  0  0  0  0  0  0  0  0  0  0  0
   25.7777  -12.6285  -25.7736 N   0  0  0  0  0  0  0  0  0  0  0  0
   26.1769  -13.2709  -21.1605 C   0  0  0  0  0  0  0  0  0  0  0  0
   25.7026  -14.2809  -20.5875 O   0  0  0  0  0  0  0  0  0  0  0  0
   27.1949  -12.5650  -20.4519 N   0  0  0  0  0  0  0  0  0  0  0  0
   27.7208  -12.9915  -19.1909 C   0  0  0  0  0  0  0  0  0  0  0  0
   28.0155  -11.7827  -18.3601 C   0  0  0  0  0  0  0  0  0  0  0  0
   28.4918  -11.9219  -17.1827 O   0  0  0  0  0  0  0  0  0  0  0  0
   30.9891   -9.5797  -17.2659 C   0  0  0  0  0  0  0  0  0  0  0  0
   30.4540   -9.1977  -18.6552 C   0  0  2  0  0  0  0  0  0  0  0  0
   31.5454   -8.3617  -19.2799 C   0  0  0  0  0  0  0  0  0  0  0  0
   29.1742   -8.4811  -18.4258 C   0  0  0  0  0  0  0  0  0  0  0  0
   28.0326   -9.3337  -17.9381 C   0  0  2  0  0  0  0  0  0  0  0  0
   27.7993  -10.4731  -18.7957 N   0  0  0  0  0  0  0  0  0  0  0  0
   26.7738   -8.6283  -17.7203 C   0  0  0  0  0  0  0  0  0  0  0  0
   26.6795   -7.4922  -16.9287 O   0  0  0  0  0  0  0  0  0  0  0  0
   25.7175   -9.0417  -18.2564 O   0  0  0  0  0  0  0  0  0  0  0  0
  2  1  1  6
  2  3  1  0
  3  4  1  0
  4  5  2  0
  5  6  1  0
  7  6  1  0
  8  4  1  0
  8  7  2  0
  9  2  1  0
  9 10  2  0
 11  9  1  0
 12 11  1  0
 12 13  1  0
 13 20  1  0
 14 13  2  0
 16 15  1  1
 16 17  1  0
 18 16  1  0
 19 18  1  6
 20 19  1  0
 21 19  1  0
 21 22  1  0
 23 21  2  0
M  END
$$$$
