HGL.pdb
     RDKit          3D

 23 23  0  0  1  0  0  0  0  0999 V2000
   25.4980  -18.8192  -18.7910 N   0  0  0  0  0  0  0  0  0  0  0  0
   24.8943  -18.4764  -17.5186 C   0  0  1  0  0  0  0  0  0  0  0  0
   24.6608  -16.9817  -17.5380 C   0  0  0  0  0  0  0  0  0  0  0  0
   25.9198  -16.2492  -17.8271 C   0  0  0  0  0  0  0  0  0  0  0  0
   26.1866  -15.4063  -18.8883 C   0  0  0  0  0  0  0  0  0  0  0  0
   27.4596  -14.9396  -18.7824 N   0  0  0  0  0  0  0  0  0  0  0  0
   27.9909  -15.4865  -17.6598 C   0  0  0  0  0  0  0  0  0  0  0  0
   27.0667  -16.2665  -17.0951 N   0  0  0  0  0  0  0  0  0  0  0  0
   23.6693  -19.2513  -17.3534 C   0  0  0  0  0  0  0  0  0  0  0  0
   23.0035  -19.5873  -18.3619 O   0  0  0  0  0  0  0  0  0  0  0  0
   23.1536  -19.6701  -16.0903 N   0  0  0  0  0  0  0  0  0  0  0  0
   22.0389  -20.5563  -15.9463 C   0  0  0  0  0  0  0  0  0  0  0  0
   21.9130  -20.9393  -14.5056 C   0  0  0  0  0  0  0  0  0  0  0  0
   20.9608  -21.7054  -14.1328 O   0  0  0  0  0  0  0  0  0  0  0  0
   24.9487  -22.4855  -11.6980 C   0  0  0  0  0  0  0  0  0  0  0  0
   25.0125  -20.9525  -11.7903 C   0  0  2  0  0  0  0  0  0  0  0  0
   26.2335  -20.5618  -10.9921 C   0  0  0  0  0  0  0  0  0  0  0  0
   23.7258  -20.4488  -11.2475 C   0  0  0  0  0  0  0  0  0  0  0  0
   22.5154  -20.7062  -12.1058 C   0  0  2  0  0  0  0  0  0  0  0  0
   22.7910  -20.5042  -13.5099 N   0  0  0  0  0  0  0  0  0  0  0  0
   21.3171  -19.9594  -11.7373 C   0  0  0  0  0  0  0  0  0  0  0  0
   20.4640  -20.3668  -10.7211 O   0  0  0  0  0  0  0  0  0  0  0  0
   21.0194  -18.9032  -12.3455 O   0  0  0  0  0  0  0  0  0  0  0  0
  2  1  1  6
  2  3  1  0
  3  4  1  0
  4  5  2  0
  5  6  1  0
  7  6  1  0
  8  4  1  0
  8  7  2  0
  9  2  1  0
  9 10  2  0
 11  9  1  0
 12 11  1  0
 12 13  1  0
 13 20  1  0
 14 13  2  0
 16 15  1  1
 16 17  1  0
 18 16  1  0
 19 18  1  1
 20 19  1  0
 21 19  1  0
 21 22  1  0
 23 21  2  0
M  END
$$$$
