WPI.pdb
     RDKit          3D

 30 32  0  0  1  0  0  0  0  0999 V2000
    6.1914  -16.7901   25.0433 N   0  0  0  0  0  0  0  0  0  0  0  0
    6.6698  -16.3299   23.7488 C   0  0  1  0  0  0  0  0  0  0  0  0
    6.6564  -14.8236   23.8241 C   0  0  0  0  0  0  0  0  0  0  0  0
    6.2828  -14.2548   25.1226 C   0  0  0  0  0  0  0  0  0  0  0  0
    5.7142  -14.9234   26.1965 C   0  0  0  0  0  0  0  0  0  0  0  0
    5.4923  -14.0646   27.2093 N   0  0  0  0  0  0  0  0  0  0  0  0
    5.9075  -12.8402   26.8164 C   0  0  0  0  0  0  0  0  0  0  0  0
    5.9128  -11.6389   27.4695 C   0  0  0  0  0  0  0  0  0  0  0  0
    6.4198  -10.5006   26.8333 C   0  0  0  0  0  0  0  0  0  0  0  0
    6.9135  -10.5717   25.5594 C   0  0  0  0  0  0  0  0  0  0  0  0
    6.8953  -11.7926   24.9261 C   0  0  0  0  0  0  0  0  0  0  0  0
    6.4004  -12.9456   25.5228 C   0  0  0  0  0  0  0  0  0  0  0  0
    7.9147  -16.9379   23.3054 C   0  0  0  0  0  0  0  0  0  0  0  0
    8.1065  -18.1483   23.6717 O   0  0  0  0  0  0  0  0  0  0  0  0
    8.9302  -16.3374   22.5174 N   0  0  0  0  0  0  0  0  0  0  0  0
    8.9286  -15.0552   21.8460 C   0  0  0  0  0  0  0  0  0  0  0  0
    9.8207  -15.2242   20.6385 C   0  0  0  0  0  0  0  0  0  0  0  0
   10.4545  -16.5638   20.8050 C   0  0  0  0  0  0  0  0  0  0  0  0
   10.2175  -16.9419   22.2296 C   0  0  1  0  0  0  0  0  0  0  0  0
   11.2827  -16.5273   23.1519 C   0  0  0  0  0  0  0  0  0  0  0  0
   11.9808  -15.5370   22.8121 O   0  0  0  0  0  0  0  0  0  0  0  0
    9.5400  -14.5196   27.2341 C   0  0  0  0  0  0  0  0  0  0  0  0
   10.4888  -14.8673   26.1025 C   0  0  0  0  0  0  0  0  0  0  0  0
   11.4070  -15.9838   26.5441 C   0  0  2  0  0  0  0  0  0  0  0  0
   12.1498  -15.5396   27.7627 C   0  0  0  0  0  0  0  0  0  0  0  0
   12.3059  -16.4660   25.4475 C   0  0  2  0  0  0  0  0  0  0  0  0
   11.6005  -17.1346   24.3873 N   0  0  0  0  0  0  0  0  0  0  0  0
   13.4196  -17.2543   25.9882 C   0  0  0  0  0  0  0  0  0  0  0  0
   14.3902  -16.7202   26.5809 O   0  0  0  0  0  0  0  0  0  0  0  0
   13.4743  -18.6543   25.8795 O   0  0  0  0  0  0  0  0  0  0  0  0
  2  1  1  1
  2 13  1  0
  2  3  1  0
  3  4  1  0
  4  5  2  0
  5  6  1  0
  7  8  2  0
  7  6  1  0
  9  8  1  0
 10  9  2  0
 11 10  1  0
 11 12  2  0
 12  4  1  0
 12  7  1  0
 13 14  2  0
 15 13  1  0
 15 19  1  0
 16 17  1  0
 16 15  1  0
 17 18  1  0
 18 19  1  0
 19 20  1  1
 20 21  2  0
 22 23  1  0
 23 24  1  0
 24 26  1  0
 24 25  1  1
 26 28  1  0
 26 27  1  6
 27 20  1  0
 28 30  1  0
 29 28  2  0
M  END
$$$$
