WPI.pdb
     RDKit          3D

 30 32  0  0  1  0  0  0  0  0999 V2000
    6.0105  -18.7264   24.4470 N   0  0  0  0  0  0  0  0  0  0  0  0
    6.2263  -17.5860   23.5698 C   0  0  1  0  0  0  0  0  0  0  0  0
    5.4922  -16.4359   24.2125 C   0  0  0  0  0  0  0  0  0  0  0  0
    6.0290  -15.9768   25.4972 C   0  0  0  0  0  0  0  0  0  0  0  0
    6.5950  -16.7572   26.4943 C   0  0  0  0  0  0  0  0  0  0  0  0
    6.9528  -15.9847   27.5372 N   0  0  0  0  0  0  0  0  0  0  0  0
    6.6303  -14.7067   27.2396 C   0  0  0  0  0  0  0  0  0  0  0  0
    6.7923  -13.5488   27.9486 C   0  0  0  0  0  0  0  0  0  0  0  0
    6.3781  -12.3302   27.3997 C   0  0  0  0  0  0  0  0  0  0  0  0
    5.8099  -12.2793   26.1563 C   0  0  0  0  0  0  0  0  0  0  0  0
    5.6587  -13.4593   25.4657 C   0  0  0  0  0  0  0  0  0  0  0  0
    6.0563  -14.6891   25.9756 C   0  0  0  0  0  0  0  0  0  0  0  0
    7.6157  -17.3411   23.2156 C   0  0  0  0  0  0  0  0  0  0  0  0
    8.3752  -18.3700   23.1899 O   0  0  0  0  0  0  0  0  0  0  0  0
    8.2137  -16.0941   22.8987 N   0  0  0  0  0  0  0  0  0  0  0  0
    7.6452  -14.7647   22.9629 C   0  0  0  0  0  0  0  0  0  0  0  0
    8.3484  -13.9664   21.8903 C   0  0  0  0  0  0  0  0  0  0  0  0
    9.4444  -14.8508   21.3998 C   0  0  0  0  0  0  0  0  0  0  0  0
    9.5750  -15.9283   22.4248 C   0  0  1  0  0  0  0  0  0  0  0  0
   10.5393  -15.6348   23.4931 C   0  0  0  0  0  0  0  0  0  0  0  0
   11.3708  -14.7154   23.2770 O   0  0  0  0  0  0  0  0  0  0  0  0
   10.1458  -12.8150   27.2898 C   0  0  0  0  0  0  0  0  0  0  0  0
   10.7857  -13.6647   26.2082 C   0  0  0  0  0  0  0  0  0  0  0  0
   11.1384  -15.0193   26.7788 C   0  0  2  0  0  0  0  0  0  0  0  0
   12.1104  -14.8292   27.8982 C   0  0  0  0  0  0  0  0  0  0  0  0
   11.6184  -15.9824   25.7371 C   0  0  2  0  0  0  0  0  0  0  0  0
   10.6240  -16.2869   24.7436 N   0  0  0  0  0  0  0  0  0  0  0  0
   12.2034  -17.1780   26.3553 C   0  0  0  0  0  0  0  0  0  0  0  0
   11.5727  -18.2610   26.4433 O   0  0  0  0  0  0  0  0  0  0  0  0
   13.5036  -17.1911   26.8884 O   0  0  0  0  0  0  0  0  0  0  0  0
  2  1  1  1
  2 13  1  0
  2  3  1  0
  3  4  1  0
  4  5  2  0
  5  6  1  0
  7  8  2  0
  7  6  1  0
  9  8  1  0
 10  9  2  0
 11 10  1  0
 11 12  2  0
 12  4  1  0
 12  7  1  0
 13 14  2  0
 15 13  1  0
 15 19  1  0
 16 17  1  0
 16 15  1  0
 17 18  1  0
 18 19  1  0
 19 20  1  1
 20 21  2  0
 22 23  1  0
 23 24  1  0
 24 26  1  0
 24 25  1  1
 26 28  1  0
 26 27  1  6
 27 20  1  0
 28 30  1  0
 29 28  2  0
M  END
$$$$
