WPI.pdb
     RDKit          3D

 30 32  0  0  1  0  0  0  0  0999 V2000
    8.0522  -14.8373   21.0799 N   0  0  0  0  0  0  0  0  0  0  0  0
    7.5690  -15.2514   22.3882 C   0  0  1  0  0  0  0  0  0  0  0  0
    7.4861  -16.7563   22.3317 C   0  0  0  0  0  0  0  0  0  0  0  0
    7.1338  -17.4218   23.5896 C   0  0  0  0  0  0  0  0  0  0  0  0
    5.8685  -17.5482   24.1433 C   0  0  0  0  0  0  0  0  0  0  0  0
    5.9423  -18.2031   25.3172 N   0  0  0  0  0  0  0  0  0  0  0  0
    7.2388  -18.5096   25.5431 C   0  0  0  0  0  0  0  0  0  0  0  0
    7.8402  -19.1735   26.5761 C   0  0  0  0  0  0  0  0  0  0  0  0
    9.2246  -19.3757   26.5644 C   0  0  0  0  0  0  0  0  0  0  0  0
    9.9907  -18.9160   25.5284 C   0  0  0  0  0  0  0  0  0  0  0  0
    9.3596  -18.2511   24.5029 C   0  0  0  0  0  0  0  0  0  0  0  0
    7.9881  -18.0298   24.4773 C   0  0  0  0  0  0  0  0  0  0  0  0
    8.2993  -14.6920   23.5150 C   0  0  0  0  0  0  0  0  0  0  0  0
    9.5610  -14.5597   23.3526 O   0  0  0  0  0  0  0  0  0  0  0  0
    7.7666  -14.2814   24.7643 N   0  0  0  0  0  0  0  0  0  0  0  0
    6.4107  -14.3865   25.2593 C   0  0  0  0  0  0  0  0  0  0  0  0
    6.2284  -13.2221   26.2044 C   0  0  0  0  0  0  0  0  0  0  0  0
    7.5857  -12.6223   26.3523 C   0  0  0  0  0  0  0  0  0  0  0  0
    8.5331  -13.6456   25.8195 C   0  0  1  0  0  0  0  0  0  0  0  0
    9.0400  -14.5854   26.8280 C   0  0  0  0  0  0  0  0  0  0  0  0
    8.2505  -15.4820   27.2230 O   0  0  0  0  0  0  0  0  0  0  0  0
   14.2503  -15.4091   25.9191 C   0  0  0  0  0  0  0  0  0  0  0  0
   12.7485  -15.4662   26.1265 C   0  0  0  0  0  0  0  0  0  0  0  0
   12.4550  -15.7956   27.5722 C   0  0  2  0  0  0  0  0  0  0  0  0
   13.0989  -17.1024   27.9062 C   0  0  0  0  0  0  0  0  0  0  0  0
   10.9922  -15.7593   27.8918 C   0  0  2  0  0  0  0  0  0  0  0  0
   10.3322  -14.5801   27.3993 N   0  0  0  0  0  0  0  0  0  0  0  0
   10.7597  -15.9979   29.3211 C   0  0  0  0  0  0  0  0  0  0  0  0
   10.4422  -15.0729   30.1098 O   0  0  0  0  0  0  0  0  0  0  0  0
   10.8762  -17.2727   29.9009 O   0  0  0  0  0  0  0  0  0  0  0  0
  2  1  1  6
  2 13  1  0
  2  3  1  0
  3  4  1  0
  4  5  2  0
  5  6  1  0
  7  8  2  0
  7  6  1  0
  9  8  1  0
 10  9  2  0
 11 10  1  0
 11 12  2  0
 12  4  1  0
 12  7  1  0
 13 14  2  0
 15 13  1  0
 15 19  1  0
 16 17  1  0
 16 15  1  0
 17 18  1  0
 18 19  1  0
 19 20  1  1
 20 21  2  0
 22 23  1  0
 23 24  1  0
 24 26  1  0
 24 25  1  6
 26 28  1  0
 26 27  1  1
 27 20  1  0
 28 30  1  0
 29 28  2  0
M  END
$$$$
