WPI.pdb
     RDKit          3D

 30 32  0  0  1  0  0  0  0  0999 V2000
    5.4048  -18.4366   24.3118 N   0  0  0  0  0  0  0  0  0  0  0  0
    6.1183  -17.1695   24.2692 C   0  0  1  0  0  0  0  0  0  0  0  0
    6.2446  -16.7272   25.7056 C   0  0  0  0  0  0  0  0  0  0  0  0
    5.8278  -15.3500   25.9863 C   0  0  0  0  0  0  0  0  0  0  0  0
    4.5297  -14.8667   26.0571 C   0  0  0  0  0  0  0  0  0  0  0  0
    4.5430  -13.5451   26.3130 N   0  0  0  0  0  0  0  0  0  0  0  0
    5.8321  -13.1524   26.4120 C   0  0  0  0  0  0  0  0  0  0  0  0
    6.3830  -11.9277   26.6696 C   0  0  0  0  0  0  0  0  0  0  0  0
    7.7736  -11.7871   26.7338 C   0  0  0  0  0  0  0  0  0  0  0  0
    8.5959  -12.8634   26.5415 C   0  0  0  0  0  0  0  0  0  0  0  0
    8.0147  -14.0832   26.2835 C   0  0  0  0  0  0  0  0  0  0  0  0
    6.6391  -14.2642   26.2113 C   0  0  0  0  0  0  0  0  0  0  0  0
    7.3488  -17.1862   23.4936 C   0  0  0  0  0  0  0  0  0  0  0  0
    7.8174  -18.3432   23.2147 O   0  0  0  0  0  0  0  0  0  0  0  0
    8.0788  -16.0665   23.0179 N   0  0  0  0  0  0  0  0  0  0  0  0
    7.7014  -14.6694   22.9999 C   0  0  0  0  0  0  0  0  0  0  0  0
    8.4095  -14.0693   21.8080 C   0  0  0  0  0  0  0  0  0  0  0  0
    9.3303  -15.1369   21.3217 C   0  0  0  0  0  0  0  0  0  0  0  0
    9.4037  -16.1341   22.4302 C   0  0  1  0  0  0  0  0  0  0  0  0
   10.4878  -15.8930   23.3914 C   0  0  0  0  0  0  0  0  0  0  0  0
   11.6368  -15.6915   22.9197 O   0  0  0  0  0  0  0  0  0  0  0  0
    9.5176  -13.8291   28.4484 C   0  0  0  0  0  0  0  0  0  0  0  0
   10.0050  -14.0940   27.0364 C   0  0  0  0  0  0  0  0  0  0  0  0
   11.0355  -15.1996   27.0616 C   0  0  2  0  0  0  0  0  0  0  0  0
   12.1736  -14.7740   27.9320 C   0  0  0  0  0  0  0  0  0  0  0  0
   11.4665  -15.6245   25.6916 C   0  0  2  0  0  0  0  0  0  0  0  0
   10.3650  -15.8653   24.7987 N   0  0  0  0  0  0  0  0  0  0  0  0
   12.4105  -16.7461   25.7611 C   0  0  0  0  0  0  0  0  0  0  0  0
   12.0257  -17.9381   25.8583 O   0  0  0  0  0  0  0  0  0  0  0  0
   13.8032  -16.5620   25.7238 O   0  0  0  0  0  0  0  0  0  0  0  0
  2  1  1  1
  2 13  1  0
  2  3  1  0
  3  4  1  0
  4  5  2  0
  5  6  1  0
  7  8  2  0
  7  6  1  0
  9  8  1  0
 10  9  2  0
 11 10  1  0
 11 12  2  0
 12  4  1  0
 12  7  1  0
 13 14  2  0
 15 13  1  0
 15 19  1  0
 16 17  1  0
 16 15  1  0
 17 18  1  0
 18 19  1  0
 19 20  1  1
 20 21  2  0
 22 23  1  0
 23 24  1  0
 24 26  1  0
 24 25  1  1
 26 28  1  0
 26 27  1  6
 27 20  1  0
 28 30  1  0
 29 28  2  0
M  END
$$$$
