WPI.pdb
     RDKit          3D

 30 32  0  0  1  0  0  0  0  0999 V2000
    5.9595  -18.7866   24.2843 N   0  0  0  0  0  0  0  0  0  0  0  0
    6.1589  -17.5276   23.5832 C   0  0  1  0  0  0  0  0  0  0  0  0
    5.5256  -16.4731   24.4559 C   0  0  0  0  0  0  0  0  0  0  0  0
    6.3531  -15.9812   25.5616 C   0  0  0  0  0  0  0  0  0  0  0  0
    7.1048  -16.7404   26.4461 C   0  0  0  0  0  0  0  0  0  0  0  0
    7.7132  -15.9387   27.3402 N   0  0  0  0  0  0  0  0  0  0  0  0
    7.3725  -14.6624   27.0557 C   0  0  0  0  0  0  0  0  0  0  0  0
    7.7271  -13.4824   27.6485 C   0  0  0  0  0  0  0  0  0  0  0  0
    7.2384  -12.2726   27.1432 C   0  0  0  0  0  0  0  0  0  0  0  0
    6.4059  -12.2523   26.0578 C   0  0  0  0  0  0  0  0  0  0  0  0
    6.0652  -13.4540   25.4817 C   0  0  0  0  0  0  0  0  0  0  0  0
    6.5286  -14.6760   25.9534 C   0  0  0  0  0  0  0  0  0  0  0  0
    7.5276  -17.2725   23.1614 C   0  0  0  0  0  0  0  0  0  0  0  0
    8.3009  -18.2908   23.1290 O   0  0  0  0  0  0  0  0  0  0  0  0
    8.0918  -16.0262   22.7858 N   0  0  0  0  0  0  0  0  0  0  0  0
    7.5285  -14.6974   22.8945 C   0  0  0  0  0  0  0  0  0  0  0  0
    8.1303  -13.9033   21.7590 C   0  0  0  0  0  0  0  0  0  0  0  0
    9.1796  -14.7882   21.1759 C   0  0  0  0  0  0  0  0  0  0  0  0
    9.4044  -15.8603   22.1902 C   0  0  1  0  0  0  0  0  0  0  0  0
   10.4605  -15.5598   23.1657 C   0  0  0  0  0  0  0  0  0  0  0  0
   11.1797  -14.5525   22.9386 O   0  0  0  0  0  0  0  0  0  0  0  0
   10.6587  -13.4088   28.3222 C   0  0  0  0  0  0  0  0  0  0  0  0
   11.5381  -14.3053   27.4709 C   0  0  0  0  0  0  0  0  0  0  0  0
   10.7056  -14.9260   26.3724 C   0  0  2  0  0  0  0  0  0  0  0  0
    9.5618  -15.6599   26.9946 C   0  0  0  0  0  0  0  0  0  0  0  0
   11.5134  -15.7738   25.4387 C   0  0  2  0  0  0  0  0  0  0  0  0
   10.7479  -16.2943   24.3379 N   0  0  0  0  0  0  0  0  0  0  0  0
   12.2497  -16.8100   26.1723 C   0  0  0  0  0  0  0  0  0  0  0  0
   13.2461  -16.5409   26.8887 O   0  0  0  0  0  0  0  0  0  0  0  0
   11.8904  -18.1677   26.1225 O   0  0  0  0  0  0  0  0  0  0  0  0
  2  1  1  1
  2 13  1  0
  2  3  1  0
  3  4  1  0
  4  5  2  0
  5  6  1  0
  7  8  2  0
  7  6  1  0
  9  8  1  0
 10  9  2  0
 11 10  1  0
 11 12  2  0
 12  4  1  0
 12  7  1  0
 13 14  2  0
 15 13  1  0
 15 19  1  0
 16 17  1  0
 16 15  1  0
 17 18  1  0
 18 19  1  0
 19 20  1  1
 20 21  2  0
 22 23  1  0
 23 24  1  0
 24 26  1  0
 24 25  1  1
 26 28  1  0
 26 27  1  6
 27 20  1  0
 28 30  1  0
 29 28  2  0
M  END
$$$$
