WPI.pdb
     RDKit          3D

 30 32  0  0  1  0  0  0  0  0999 V2000
    5.7502  -18.3277   24.7790 N   0  0  0  0  0  0  0  0  0  0  0  0
    6.3809  -17.0458   24.5042 C   0  0  1  0  0  0  0  0  0  0  0  0
    6.6847  -16.4460   25.8542 C   0  0  0  0  0  0  0  0  0  0  0  0
    6.0503  -15.1543   26.1340 C   0  0  0  0  0  0  0  0  0  0  0  0
    4.6968  -14.9076   26.3095 C   0  0  0  0  0  0  0  0  0  0  0  0
    4.4917  -13.5949   26.5269 N   0  0  0  0  0  0  0  0  0  0  0  0
    5.6919  -12.9748   26.4971 C   0  0  0  0  0  0  0  0  0  0  0  0
    6.0312  -11.6615   26.6698 C   0  0  0  0  0  0  0  0  0  0  0  0
    7.3736  -11.2726   26.6031 C   0  0  0  0  0  0  0  0  0  0  0  0
    8.3582  -12.1924   26.3662 C   0  0  0  0  0  0  0  0  0  0  0  0
    7.9883  -13.5062   26.1958 C   0  0  0  0  0  0  0  0  0  0  0  0
    6.6672  -13.9326   26.2542 C   0  0  0  0  0  0  0  0  0  0  0  0
    7.4887  -17.0986   23.5629 C   0  0  0  0  0  0  0  0  0  0  0  0
    7.8725  -18.2687   23.2172 O   0  0  0  0  0  0  0  0  0  0  0  0
    8.1832  -16.0008   22.9924 N   0  0  0  0  0  0  0  0  0  0  0  0
    7.8564  -14.5914   23.0322 C   0  0  0  0  0  0  0  0  0  0  0  0
    8.4101  -14.0065   21.7541 C   0  0  0  0  0  0  0  0  0  0  0  0
    9.2152  -15.1011   21.1396 C   0  0  0  0  0  0  0  0  0  0  0  0
    9.4090  -16.1091   22.2236 C   0  0  1  0  0  0  0  0  0  0  0  0
   10.6254  -15.9130   23.0231 C   0  0  0  0  0  0  0  0  0  0  0  0
   11.5561  -15.2500   22.4961 O   0  0  0  0  0  0  0  0  0  0  0  0
    9.6056  -14.0854   27.7837 C   0  0  0  0  0  0  0  0  0  0  0  0
   10.2277  -14.3439   26.4243 C   0  0  0  0  0  0  0  0  0  0  0  0
   11.2650  -15.4363   26.5480 C   0  0  2  0  0  0  0  0  0  0  0  0
   12.3058  -15.0000   27.5280 C   0  0  0  0  0  0  0  0  0  0  0  0
   11.8350  -15.8498   25.2262 C   0  0  2  0  0  0  0  0  0  0  0  0
   10.8524  -16.3983   24.3304 N   0  0  0  0  0  0  0  0  0  0  0  0
   13.0034  -16.7196   25.4057 C   0  0  0  0  0  0  0  0  0  0  0  0
   12.9049  -17.9715   25.4420 O   0  0  0  0  0  0  0  0  0  0  0  0
   14.3059  -16.2117   25.5486 O   0  0  0  0  0  0  0  0  0  0  0  0
  2  1  1  1
  2 13  1  0
  2  3  1  0
  3  4  1  0
  4  5  2  0
  5  6  1  0
  7  8  2  0
  7  6  1  0
  9  8  1  0
 10  9  2  0
 11 10  1  0
 11 12  2  0
 12  4  1  0
 12  7  1  0
 13 14  2  0
 15 13  1  0
 15 19  1  0
 16 17  1  0
 16 15  1  0
 17 18  1  0
 18 19  1  0
 19 20  1  1
 20 21  2  0
 22 23  1  0
 23 24  1  0
 24 26  1  0
 24 25  1  1
 26 28  1  0
 26 27  1  6
 27 20  1  0
 28 30  1  0
 29 28  2  0
M  END
$$$$
