WPI.pdb
     RDKit          3D

 30 32  0  0  1  0  0  0  0  0999 V2000
    6.0428  -18.2997   25.0006 N   0  0  0  0  0  0  0  0  0  0  0  0
    6.5991  -17.0296   24.5601 C   0  0  1  0  0  0  0  0  0  0  0  0
    6.9994  -16.3039   25.8201 C   0  0  0  0  0  0  0  0  0  0  0  0
    6.3217  -15.0265   26.0612 C   0  0  0  0  0  0  0  0  0  0  0  0
    4.9603  -14.8198   26.2265 C   0  0  0  0  0  0  0  0  0  0  0  0
    4.7113  -13.5090   26.4057 N   0  0  0  0  0  0  0  0  0  0  0  0
    5.8904  -12.8505   26.3610 C   0  0  0  0  0  0  0  0  0  0  0  0
    6.1856  -11.5223   26.4968 C   0  0  0  0  0  0  0  0  0  0  0  0
    7.5146  -11.0913   26.4221 C   0  0  0  0  0  0  0  0  0  0  0  0
    8.5298  -11.9843   26.2139 C   0  0  0  0  0  0  0  0  0  0  0  0
    8.2040  -13.3140   26.0803 C   0  0  0  0  0  0  0  0  0  0  0  0
    6.8975  -13.7820   26.1479 C   0  0  0  0  0  0  0  0  0  0  0  0
    7.6200  -17.1338   23.5291 C   0  0  0  0  0  0  0  0  0  0  0  0
    8.0242  -18.3174   23.2610 O   0  0  0  0  0  0  0  0  0  0  0  0
    8.2106  -16.0726   22.7958 N   0  0  0  0  0  0  0  0  0  0  0  0
    7.7806  -14.6962   22.6720 C   0  0  0  0  0  0  0  0  0  0  0  0
    8.2455  -14.2431   21.3079 C   0  0  0  0  0  0  0  0  0  0  0  0
    9.1092  -15.3485   20.8018 C   0  0  0  0  0  0  0  0  0  0  0  0
    9.4144  -16.1927   21.9947 C   0  0  1  0  0  0  0  0  0  0  0  0
   10.6390  -15.8107   22.7101 C   0  0  0  0  0  0  0  0  0  0  0  0
   11.1266  -14.6808   22.4473 O   0  0  0  0  0  0  0  0  0  0  0  0
    9.8346  -14.7379   27.9781 C   0  0  0  0  0  0  0  0  0  0  0  0
   11.0209  -14.9106   27.0483 C   0  0  0  0  0  0  0  0  0  0  0  0
   10.5794  -15.6484   25.8051 C   0  0  2  0  0  0  0  0  0  0  0  0
    9.6704  -16.7644   26.2077 C   0  0  0  0  0  0  0  0  0  0  0  0
   11.7287  -16.0995   24.9573 C   0  0  2  0  0  0  0  0  0  0  0  0
   11.3245  -16.5913   23.6675 N   0  0  0  0  0  0  0  0  0  0  0  0
   12.5876  -17.0368   25.6905 C   0  0  0  0  0  0  0  0  0  0  0  0
   13.4271  -16.6484   26.5407 O   0  0  0  0  0  0  0  0  0  0  0  0
   12.5284  -18.4266   25.4912 O   0  0  0  0  0  0  0  0  0  0  0  0
  2  1  1  1
  2 13  1  0
  2  3  1  0
  3  4  1  0
  4  5  2  0
  5  6  1  0
  7  8  2  0
  7  6  1  0
  9  8  1  0
 10  9  2  0
 11 10  1  0
 11 12  2  0
 12  4  1  0
 12  7  1  0
 13 14  2  0
 15 13  1  0
 15 19  1  0
 16 17  1  0
 16 15  1  0
 17 18  1  0
 18 19  1  0
 19 20  1  1
 20 21  2  0
 22 23  1  0
 23 24  1  0
 24 26  1  0
 24 25  1  1
 26 28  1  0
 26 27  1  6
 27 20  1  0
 28 30  1  0
 29 28  2  0
M  END
$$$$
