WPI.pdb
     RDKit          3D

 30 32  0  0  1  0  0  0  0  0999 V2000
    5.6661  -18.5270   24.1886 N   0  0  0  0  0  0  0  0  0  0  0  0
    6.4086  -17.2761   24.2066 C   0  0  1  0  0  0  0  0  0  0  0  0
    6.4478  -16.8490   25.6526 C   0  0  0  0  0  0  0  0  0  0  0  0
    5.8924  -15.5230   25.9397 C   0  0  0  0  0  0  0  0  0  0  0  0
    4.5652  -15.2085   26.1912 C   0  0  0  0  0  0  0  0  0  0  0  0
    4.4350  -13.8833   26.3895 N   0  0  0  0  0  0  0  0  0  0  0  0
    5.6584  -13.3218   26.2723 C   0  0  0  0  0  0  0  0  0  0  0  0
    6.0682  -12.0229   26.3929 C   0  0  0  0  0  0  0  0  0  0  0  0
    7.4205  -11.6999   26.2356 C   0  0  0  0  0  0  0  0  0  0  0  0
    8.3449  -12.6703   25.9612 C   0  0  0  0  0  0  0  0  0  0  0  0
    7.9047  -13.9683   25.8446 C   0  0  0  0  0  0  0  0  0  0  0  0
    6.5714  -14.3298   25.9933 C   0  0  0  0  0  0  0  0  0  0  0  0
    7.6878  -17.3142   23.5151 C   0  0  0  0  0  0  0  0  0  0  0  0
    8.1516  -18.4791   23.2625 O   0  0  0  0  0  0  0  0  0  0  0  0
    8.4696  -16.2074   23.0949 N   0  0  0  0  0  0  0  0  0  0  0  0
    8.1522  -14.7959   23.1348 C   0  0  0  0  0  0  0  0  0  0  0  0
    8.8973  -14.1757   21.9762 C   0  0  0  0  0  0  0  0  0  0  0  0
    9.7768  -15.2598   21.4515 C   0  0  0  0  0  0  0  0  0  0  0  0
    9.7964  -16.3063   22.5160 C   0  0  1  0  0  0  0  0  0  0  0  0
   10.8798  -16.1538   23.4958 C   0  0  0  0  0  0  0  0  0  0  0  0
   12.0477  -16.0318   23.0436 O   0  0  0  0  0  0  0  0  0  0  0  0
   10.4562  -14.2999   28.9304 C   0  0  0  0  0  0  0  0  0  0  0  0
   10.5474  -15.3650   27.8539 C   0  0  0  0  0  0  0  0  0  0  0  0
   11.6432  -14.9992   26.8792 C   0  0  2  0  0  0  0  0  0  0  0  0
   11.3625  -13.6368   26.3320 C   0  0  0  0  0  0  0  0  0  0  0  0
   11.8441  -16.0333   25.8146 C   0  0  2  0  0  0  0  0  0  0  0  0
   10.7372  -16.1307   24.9013 N   0  0  0  0  0  0  0  0  0  0  0  0
   12.2264  -17.3237   26.3998 C   0  0  0  0  0  0  0  0  0  0  0  0
   11.4804  -18.3327   26.3376 O   0  0  0  0  0  0  0  0  0  0  0  0
   13.4485  -17.5162   27.0664 O   0  0  0  0  0  0  0  0  0  0  0  0
  2  1  1  1
  2 13  1  0
  2  3  1  0
  3  4  1  0
  4  5  2  0
  5  6  1  0
  7  8  2  0
  7  6  1  0
  9  8  1  0
 10  9  2  0
 11 10  1  0
 11 12  2  0
 12  4  1  0
 12  7  1  0
 13 14  2  0
 15 13  1  0
 15 19  1  0
 16 17  1  0
 16 15  1  0
 17 18  1  0
 18 19  1  0
 19 20  1  1
 20 21  2  0
 22 23  1  0
 23 24  1  0
 24 26  1  0
 24 25  1  6
 26 28  1  0
 26 27  1  1
 27 20  1  0
 28 30  1  0
 29 28  2  0
M  END
$$$$
