WPI.pdb
     RDKit          3D

 30 32  0  0  1  0  0  0  0  0999 V2000
    5.4907  -18.2490   24.6237 N   0  0  0  0  0  0  0  0  0  0  0  0
    6.2245  -17.0060   24.4418 C   0  0  1  0  0  0  0  0  0  0  0  0
    6.5044  -16.4935   25.8323 C   0  0  0  0  0  0  0  0  0  0  0  0
    5.9617  -15.1675   26.1429 C   0  0  0  0  0  0  0  0  0  0  0  0
    4.6280  -14.8290   26.3163 C   0  0  0  0  0  0  0  0  0  0  0  0
    4.5157  -13.5112   26.5680 N   0  0  0  0  0  0  0  0  0  0  0  0
    5.7574  -12.9783   26.5630 C   0  0  0  0  0  0  0  0  0  0  0  0
    6.1884  -11.6979   26.7735 C   0  0  0  0  0  0  0  0  0  0  0  0
    7.5558  -11.4048   26.7261 C   0  0  0  0  0  0  0  0  0  0  0  0
    8.4739  -12.3863   26.4707 C   0  0  0  0  0  0  0  0  0  0  0  0
    8.0123  -13.6651   26.2622 C   0  0  0  0  0  0  0  0  0  0  0  0
    6.6636  -13.9968   26.3004 C   0  0  0  0  0  0  0  0  0  0  0  0
    7.3701  -17.0970   23.5500 C   0  0  0  0  0  0  0  0  0  0  0  0
    7.7438  -18.2803   23.2399 O   0  0  0  0  0  0  0  0  0  0  0  0
    8.1112  -16.0233   22.9925 N   0  0  0  0  0  0  0  0  0  0  0  0
    7.8090  -14.6079   22.9895 C   0  0  0  0  0  0  0  0  0  0  0  0
    8.4337  -14.0585   21.7285 C   0  0  0  0  0  0  0  0  0  0  0  0
    9.2468  -15.1792   21.1745 C   0  0  0  0  0  0  0  0  0  0  0  0
    9.3700  -16.1685   22.2857 C   0  0  1  0  0  0  0  0  0  0  0  0
   10.5504  -15.9778   23.1387 C   0  0  0  0  0  0  0  0  0  0  0  0
   11.4655  -15.2381   22.6927 O   0  0  0  0  0  0  0  0  0  0  0  0
    9.6643  -13.6577   27.5036 C   0  0  0  0  0  0  0  0  0  0  0  0
   10.3789  -14.1450   26.2573 C   0  0  0  0  0  0  0  0  0  0  0  0
   11.1112  -15.4298   26.5700 C   0  0  2  0  0  0  0  0  0  0  0  0
   12.0958  -15.1662   27.6633 C   0  0  0  0  0  0  0  0  0  0  0  0
   11.7283  -16.0576   25.3583 C   0  0  2  0  0  0  0  0  0  0  0  0
   10.7584  -16.5462   24.4153 N   0  0  0  0  0  0  0  0  0  0  0  0
   12.7250  -17.0659   25.7378 C   0  0  0  0  0  0  0  0  0  0  0  0
   12.4807  -18.2974   25.6908 O   0  0  0  0  0  0  0  0  0  0  0  0
   14.0147  -16.7222   26.1774 O   0  0  0  0  0  0  0  0  0  0  0  0
  2  1  1  1
  2 13  1  0
  2  3  1  0
  3  4  1  0
  4  5  2  0
  5  6  1  0
  7  8  2  0
  7  6  1  0
  9  8  1  0
 10  9  2  0
 11 10  1  0
 11 12  2  0
 12  4  1  0
 12  7  1  0
 13 14  2  0
 15 13  1  0
 15 19  1  0
 16 17  1  0
 16 15  1  0
 17 18  1  0
 18 19  1  0
 19 20  1  1
 20 21  2  0
 22 23  1  0
 23 24  1  0
 24 26  1  0
 24 25  1  1
 26 28  1  0
 26 27  1  1
 27 20  1  0
 28 30  1  0
 29 28  2  0
M  END
$$$$
