WPI.pdb
     RDKit          3D

 30 32  0  0  1  0  0  0  0  0999 V2000
    5.6744  -18.2262   24.8542 N   0  0  0  0  0  0  0  0  0  0  0  0
    6.4229  -17.0003   24.6230 C   0  0  1  0  0  0  0  0  0  0  0  0
    6.6617  -16.4076   25.9891 C   0  0  0  0  0  0  0  0  0  0  0  0
    6.0710  -15.0861   26.2215 C   0  0  0  0  0  0  0  0  0  0  0  0
    4.7268  -14.7882   26.3885 C   0  0  0  0  0  0  0  0  0  0  0  0
    4.5659  -13.4623   26.5576 N   0  0  0  0  0  0  0  0  0  0  0  0
    5.7859  -12.8840   26.5044 C   0  0  0  0  0  0  0  0  0  0  0  0
    6.1690  -11.5772   26.6285 C   0  0  0  0  0  0  0  0  0  0  0  0
    7.5235  -11.2360   26.5468 C   0  0  0  0  0  0  0  0  0  0  0  0
    8.4766  -12.1961   26.3434 C   0  0  0  0  0  0  0  0  0  0  0  0
    8.0629  -13.5023   26.2216 C   0  0  0  0  0  0  0  0  0  0  0  0
    6.7284  -13.8819   26.2964 C   0  0  0  0  0  0  0  0  0  0  0  0
    7.5960  -17.1506   23.7760 C   0  0  0  0  0  0  0  0  0  0  0  0
    8.0038  -18.3492   23.5944 O   0  0  0  0  0  0  0  0  0  0  0  0
    8.3302  -16.1191   23.1358 N   0  0  0  0  0  0  0  0  0  0  0  0
    7.9900  -14.7222   22.9698 C   0  0  0  0  0  0  0  0  0  0  0  0
    8.6514  -14.2899   21.6822 C   0  0  0  0  0  0  0  0  0  0  0  0
    9.5169  -15.4368   21.2828 C   0  0  0  0  0  0  0  0  0  0  0  0
    9.6207  -16.2986   22.4974 C   0  0  1  0  0  0  0  0  0  0  0  0
   10.7590  -15.9817   23.3698 C   0  0  0  0  0  0  0  0  0  0  0  0
   11.4037  -14.9325   23.1113 O   0  0  0  0  0  0  0  0  0  0  0  0
    9.3304  -13.8359   27.3115 C   0  0  0  0  0  0  0  0  0  0  0  0
   10.3451  -14.2736   26.2721 C   0  0  0  0  0  0  0  0  0  0  0  0
   10.8821  -15.6378   26.6402 C   0  0  2  0  0  0  0  0  0  0  0  0
   11.4518  -15.5721   28.0205 C   0  0  0  0  0  0  0  0  0  0  0  0
   11.8463  -16.1759   25.6284 C   0  0  2  0  0  0  0  0  0  0  0  0
   11.2015  -16.7431   24.4746 N   0  0  0  0  0  0  0  0  0  0  0  0
   12.8144  -17.0839   26.2547 C   0  0  0  0  0  0  0  0  0  0  0  0
   13.9059  -16.6759   26.7244 O   0  0  0  0  0  0  0  0  0  0  0  0
   12.5856  -18.4656   26.3706 O   0  0  0  0  0  0  0  0  0  0  0  0
  2  1  1  1
  2 13  1  0
  2  3  1  0
  3  4  1  0
  4  5  2  0
  5  6  1  0
  7  8  2  0
  7  6  1  0
  9  8  1  0
 10  9  2  0
 11 10  1  0
 11 12  2  0
 12  4  1  0
 12  7  1  0
 13 14  2  0
 15 13  1  0
 15 19  1  0
 16 17  1  0
 16 15  1  0
 17 18  1  0
 18 19  1  0
 19 20  1  1
 20 21  2  0
 22 23  1  0
 23 24  1  0
 24 26  1  0
 24 25  1  1
 26 28  1  0
 26 27  1  6
 27 20  1  0
 28 30  1  0
 29 28  2  0
M  END
$$$$
