WPI.pdb
     RDKit          3D

 30 32  0  0  1  0  0  0  0  0999 V2000
    5.9936  -17.9725   24.5019 N   0  0  0  0  0  0  0  0  0  0  0  0
    6.6518  -16.7956   23.9558 C   0  0  1  0  0  0  0  0  0  0  0  0
    7.4206  -16.1919   25.1044 C   0  0  0  0  0  0  0  0  0  0  0  0
    6.7561  -15.0886   25.8047 C   0  0  0  0  0  0  0  0  0  0  0  0
    5.4852  -15.0949   26.3601 C   0  0  0  0  0  0  0  0  0  0  0  0
    5.2117  -13.8921   26.8994 N   0  0  0  0  0  0  0  0  0  0  0  0
    6.2854  -13.0947   26.7066 C   0  0  0  0  0  0  0  0  0  0  0  0
    6.5197  -11.7971   27.0684 C   0  0  0  0  0  0  0  0  0  0  0  0
    7.7434  -11.1950   26.7555 C   0  0  0  0  0  0  0  0  0  0  0  0
    8.7153  -11.8895   26.0887 C   0  0  0  0  0  0  0  0  0  0  0  0
    8.4524  -13.1929   25.7365 C   0  0  0  0  0  0  0  0  0  0  0  0
    7.2508  -13.8265   26.0283 C   0  0  0  0  0  0  0  0  0  0  0  0
    7.4047  -17.0280   22.7330 C   0  0  0  0  0  0  0  0  0  0  0  0
    7.6015  -18.2532   22.4227 O   0  0  0  0  0  0  0  0  0  0  0  0
    7.9398  -16.0500   21.8556 N   0  0  0  0  0  0  0  0  0  0  0  0
    7.7943  -14.6105   21.8928 C   0  0  0  0  0  0  0  0  0  0  0  0
    7.8826  -14.1526   20.4559 C   0  0  0  0  0  0  0  0  0  0  0  0
    8.2841  -15.3636   19.6835 C   0  0  0  0  0  0  0  0  0  0  0  0
    8.7693  -16.3419   20.7015 C   0  0  1  0  0  0  0  0  0  0  0  0
   10.2100  -16.2656   20.9767 C   0  0  0  0  0  0  0  0  0  0  0  0
   10.7958  -15.1954   20.6686 O   0  0  0  0  0  0  0  0  0  0  0  0
   10.5535  -15.7493   25.7029 C   0  0  0  0  0  0  0  0  0  0  0  0
   10.8582  -15.7597   24.2167 C   0  0  0  0  0  0  0  0  0  0  0  0
   11.7000  -16.9710   23.8867 C   0  0  2  0  0  0  0  0  0  0  0  0
   12.8611  -17.0181   24.8267 C   0  0  0  0  0  0  0  0  0  0  0  0
   12.1045  -17.0233   22.4456 C   0  0  2  0  0  0  0  0  0  0  0  0
   11.0042  -17.2805   21.5557 N   0  0  0  0  0  0  0  0  0  0  0  0
   13.2339  -17.9397   22.2488 C   0  0  0  0  0  0  0  0  0  0  0  0
   13.0685  -19.1593   21.9966 O   0  0  0  0  0  0  0  0  0  0  0  0
   14.5712  -17.5154   22.3292 O   0  0  0  0  0  0  0  0  0  0  0  0
  2  1  1  1
  2 13  1  0
  2  3  1  0
  3  4  1  0
  4  5  2  0
  5  6  1  0
  7  8  2  0
  7  6  1  0
  9  8  1  0
 10  9  2  0
 11 10  1  0
 11 12  2  0
 12  4  1  0
 12  7  1  0
 13 14  2  0
 15 13  1  0
 15 19  1  0
 16 17  1  0
 16 15  1  0
 17 18  1  0
 18 19  1  0
 19 20  1  1
 20 21  2  0
 22 23  1  0
 23 24  1  0
 24 26  1  0
 24 25  1  1
 26 28  1  0
 26 27  1  6
 27 20  1  0
 28 30  1  0
 29 28  2  0
M  END
$$$$
