WPI.pdb
     RDKit          3D

 30 32  0  0  1  0  0  0  0  0999 V2000
    6.1131  -18.3795   25.3259 N   0  0  0  0  0  0  0  0  0  0  0  0
    6.6037  -17.1166   24.7959 C   0  0  1  0  0  0  0  0  0  0  0  0
    6.9800  -16.2906   26.0005 C   0  0  0  0  0  0  0  0  0  0  0  0
    6.1275  -15.1279   26.2662 C   0  0  0  0  0  0  0  0  0  0  0  0
    4.7483  -15.1177   26.4126 C   0  0  0  0  0  0  0  0  0  0  0  0
    4.3165  -13.8605   26.6252 N   0  0  0  0  0  0  0  0  0  0  0  0
    5.3927  -13.0435   26.6212 C   0  0  0  0  0  0  0  0  0  0  0  0
    5.4979  -11.6921   26.8008 C   0  0  0  0  0  0  0  0  0  0  0  0
    6.7547  -11.0784   26.7629 C   0  0  0  0  0  0  0  0  0  0  0  0
    7.8874  -11.8147   26.5474 C   0  0  0  0  0  0  0  0  0  0  0  0
    7.7521  -13.1719   26.3693 C   0  0  0  0  0  0  0  0  0  0  0  0
    6.5229  -13.8188   26.3995 C   0  0  0  0  0  0  0  0  0  0  0  0
    7.6192  -17.2405   23.7618 C   0  0  0  0  0  0  0  0  0  0  0  0
    7.8985  -18.4331   23.3935 O   0  0  0  0  0  0  0  0  0  0  0  0
    8.3271  -16.1895   23.1237 N   0  0  0  0  0  0  0  0  0  0  0  0
    8.1373  -14.7591   23.2358 C   0  0  0  0  0  0  0  0  0  0  0  0
    8.5648  -14.1838   21.9060 C   0  0  0  0  0  0  0  0  0  0  0  0
    9.1777  -15.3240   21.1654 C   0  0  0  0  0  0  0  0  0  0  0  0
    9.4235  -16.3792   22.1924 C   0  0  1  0  0  0  0  0  0  0  0  0
   10.7490  -16.3152   22.8218 C   0  0  0  0  0  0  0  0  0  0  0  0
   11.6858  -15.8305   22.1356 O   0  0  0  0  0  0  0  0  0  0  0  0
   10.8309  -15.0141   28.2298 C   0  0  0  0  0  0  0  0  0  0  0  0
   10.9484  -15.9481   27.0401 C   0  0  0  0  0  0  0  0  0  0  0  0
   11.7855  -15.2898   25.9674 C   0  0  2  0  0  0  0  0  0  0  0  0
   11.0553  -14.0885   25.4598 C   0  0  0  0  0  0  0  0  0  0  0  0
   12.1896  -16.2380   24.8809 C   0  0  2  0  0  0  0  0  0  0  0  0
   11.0751  -16.7465   24.1271 N   0  0  0  0  0  0  0  0  0  0  0  0
   13.0650  -17.2942   25.4027 C   0  0  0  0  0  0  0  0  0  0  0  0
   12.6625  -18.4721   25.5725 O   0  0  0  0  0  0  0  0  0  0  0  0
   14.4072  -17.0590   25.7459 O   0  0  0  0  0  0  0  0  0  0  0  0
  2  1  1  1
  2 13  1  0
  2  3  1  0
  3  4  1  0
  4  5  2  0
  5  6  1  0
  7  8  2  0
  7  6  1  0
  9  8  1  0
 10  9  2  0
 11 10  1  0
 11 12  2  0
 12  4  1  0
 12  7  1  0
 13 14  2  0
 15 13  1  0
 15 19  1  0
 16 17  1  0
 16 15  1  0
 17 18  1  0
 18 19  1  0
 19 20  1  1
 20 21  2  0
 22 23  1  0
 23 24  1  0
 24 26  1  0
 24 25  1  6
 26 28  1  0
 26 27  1  1
 27 20  1  0
 28 30  1  0
 29 28  2  0
M  END
$$$$
