FDV.pdb
     RDKit          3D

 27 27  0  0  1  0  0  0  0  0999 V2000
   40.6424  -10.1043   -6.7065 N   0  0  0  0  0  0  0  0  0  0  0  0
   39.8876   -9.5869   -7.8447 C   0  0  1  0  0  0  0  0  0  0  0  0
   38.4346   -9.8393   -7.6406 C   0  0  0  0  0  0  0  0  0  0  0  0
   38.0735  -11.2349   -7.8965 C   0  0  0  0  0  0  0  0  0  0  0  0
   38.2159  -11.8260   -9.1556 C   0  0  0  0  0  0  0  0  0  0  0  0
   37.8828  -13.1378   -9.3954 C   0  0  0  0  0  0  0  0  0  0  0  0
   37.3870  -13.9312   -8.3821 C   0  0  0  0  0  0  0  0  0  0  0  0
   37.2366  -13.3738   -7.1308 C   0  0  0  0  0  0  0  0  0  0  0  0
   37.5784  -12.0383   -6.8970 C   0  0  0  0  0  0  0  0  0  0  0  0
   40.2524   -8.1678   -8.0544 C   0  0  0  0  0  0  0  0  0  0  0  0
   40.5124   -7.3911   -7.0994 O   0  0  0  0  0  0  0  0  0  0  0  0
   40.3339   -7.5844   -9.3562 N   0  0  0  0  0  0  0  0  0  0  0  0
   40.4594   -6.1630   -9.5656 C   0  0  1  0  0  0  0  0  0  0  0  0
   41.3379   -5.8419  -10.7420 C   0  0  0  0  0  0  0  0  0  0  0  0
   42.6289   -6.5450  -10.7097 C   0  0  0  0  0  0  0  0  0  0  0  0
   43.5237   -6.3796   -9.8424 O   0  0  0  0  0  0  0  0  0  0  0  0
   39.1297   -5.5113   -9.6524 C   0  0  0  0  0  0  0  0  0  0  0  0
   38.3708   -5.8474  -10.5951 O   0  0  0  0  0  0  0  0  0  0  0  0
   42.8909   -7.4677  -11.7131 O   0  0  0  0  0  0  0  0  0  0  0  0
   37.6603   -3.4019   -6.3807 C   0  0  0  0  0  0  0  0  0  0  0  0
   36.7765   -4.1113   -7.3910 C   0  0  2  0  0  0  0  0  0  0  0  0
   36.6707   -5.5639   -7.0243 C   0  0  0  0  0  0  0  0  0  0  0  0
   37.4189   -3.9003   -8.7471 C   0  0  2  0  0  0  0  0  0  0  0  0
   38.7226   -4.5375   -8.7023 N   0  0  0  0  0  0  0  0  0  0  0  0
   37.5608   -2.4368   -9.0538 C   0  0  0  0  0  0  0  0  0  0  0  0
   38.6576   -1.8342   -8.9405 O   0  0  0  0  0  0  0  0  0  0  0  0
   36.4760   -1.6844   -9.4785 O   0  0  0  0  0  0  0  0  0  0  0  0
  2  1  1  1
  2 10  1  0
  3  4  1  0
  3  2  1  0
  4  9  2  0
  5  4  1  0
  5  6  2  0
  6  7  1  0
  7  8  2  0
  9  8  1  0
 10 11  2  0
 12 10  1  0
 12 13  1  0
 13 17  1  0
 13 14  1  6
 15 14  1  0
 15 19  1  0
 16 15  2  0
 17 24  1  0
 18 17  2  0
 21 20  1  1
 21 22  1  0
 23 21  1  0
 23 24  1  1
 25 23  1  0
 25 27  1  0
 26 25  2  0
M  END
$$$$
