FDV.pdb
     RDKit          3D

 27 27  0  0  1  0  0  0  0  0999 V2000
   27.8982  -21.5505   -9.3601 N   0  0  0  0  0  0  0  0  0  0  0  0
   26.7325  -20.7883   -8.9208 C   0  0  1  0  0  0  0  0  0  0  0  0
   27.1754  -19.5730   -8.1836 C   0  0  0  0  0  0  0  0  0  0  0  0
   27.9935  -19.9016   -7.0147 C   0  0  0  0  0  0  0  0  0  0  0  0
   28.6624  -21.1231   -6.8888 C   0  0  0  0  0  0  0  0  0  0  0  0
   29.4355  -21.4301   -5.7946 C   0  0  0  0  0  0  0  0  0  0  0  0
   29.5806  -20.5260   -4.7633 C   0  0  0  0  0  0  0  0  0  0  0  0
   28.9322  -19.3140   -4.8617 C   0  0  0  0  0  0  0  0  0  0  0  0
   28.1480  -19.0111   -5.9790 C   0  0  0  0  0  0  0  0  0  0  0  0
   25.8633  -20.5282  -10.0903 C   0  0  0  0  0  0  0  0  0  0  0  0
   24.9534  -19.6596  -10.0731 O   0  0  0  0  0  0  0  0  0  0  0  0
   25.9995  -21.2465  -11.3180 N   0  0  0  0  0  0  0  0  0  0  0  0
   25.2538  -20.9073  -12.5049 C   0  0  1  0  0  0  0  0  0  0  0  0
   25.9153  -21.4217  -13.7525 C   0  0  0  0  0  0  0  0  0  0  0  0
   27.1966  -20.7614  -14.0432 C   0  0  0  0  0  0  0  0  0  0  0  0
   27.3455  -19.5336  -14.2676 O   0  0  0  0  0  0  0  0  0  0  0  0
   23.8378  -21.3348  -12.3927 C   0  0  0  0  0  0  0  0  0  0  0  0
   23.6074  -22.5276  -12.0743 O   0  0  0  0  0  0  0  0  0  0  0  0
   28.3399  -21.5479  -14.0746 O   0  0  0  0  0  0  0  0  0  0  0  0
   20.9676  -19.1247  -10.9557 C   0  0  0  0  0  0  0  0  0  0  0  0
   20.5553  -19.6015  -12.3369 C   0  0  2  0  0  0  0  0  0  0  0  0
   19.0793  -19.8787  -12.3462 C   0  0  0  0  0  0  0  0  0  0  0  0
   21.3801  -20.8389  -12.6284 C   0  0  2  0  0  0  0  0  0  0  0  0
   22.7725  -20.4279  -12.6366 N   0  0  0  0  0  0  0  0  0  0  0  0
   21.0023  -21.4380  -13.9530 C   0  0  0  0  0  0  0  0  0  0  0  0
   21.4017  -20.9553  -15.0422 O   0  0  0  0  0  0  0  0  0  0  0  0
   20.1894  -22.5591  -14.0275 O   0  0  0  0  0  0  0  0  0  0  0  0
  2  1  1  6
  2 10  1  0
  3  4  1  0
  3  2  1  0
  4  9  2  0
  5  4  1  0
  5  6  2  0
  6  7  1  0
  7  8  2  0
  9  8  1  0
 10 11  2  0
 12 10  1  0
 12 13  1  0
 13 17  1  0
 13 14  1  6
 15 14  1  0
 15 19  1  0
 16 15  2  0
 17 24  1  0
 18 17  2  0
 21 20  1  1
 21 22  1  0
 23 21  1  0
 23 24  1  6
 25 23  1  0
 25 27  1  0
 26 25  2  0
M  END
$$$$
