FDV.pdb
     RDKit          3D

 27 27  0  0  1  0  0  0  0  0999 V2000
   28.5596  -20.5464   -8.8157 N   0  0  0  0  0  0  0  0  0  0  0  0
   27.1207  -20.5233   -8.5674 C   0  0  1  0  0  0  0  0  0  0  0  0
   26.8019  -19.4782   -7.5561 C   0  0  0  0  0  0  0  0  0  0  0  0
   27.5820  -19.6398   -6.3278 C   0  0  0  0  0  0  0  0  0  0  0  0
   27.1666  -20.4684   -5.2809 C   0  0  0  0  0  0  0  0  0  0  0  0
   27.9013  -20.6254   -4.1298 C   0  0  0  0  0  0  0  0  0  0  0  0
   29.0968  -19.9577   -3.9652 C   0  0  0  0  0  0  0  0  0  0  0  0
   29.5300  -19.1343   -4.9818 C   0  0  0  0  0  0  0  0  0  0  0  0
   28.7754  -18.9814   -6.1489 C   0  0  0  0  0  0  0  0  0  0  0  0
   26.4151  -20.3782   -9.8605 C   0  0  0  0  0  0  0  0  0  0  0  0
   26.5985  -19.3928  -10.6208 O   0  0  0  0  0  0  0  0  0  0  0  0
   25.4777  -21.3480  -10.3322 N   0  0  0  0  0  0  0  0  0  0  0  0
   24.7669  -21.2013  -11.5785 C   0  0  1  0  0  0  0  0  0  0  0  0
   25.3288  -22.0863  -12.6555 C   0  0  0  0  0  0  0  0  0  0  0  0
   26.2411  -21.3807  -13.5676 C   0  0  0  0  0  0  0  0  0  0  0  0
   26.2899  -20.1344  -13.7243 O   0  0  0  0  0  0  0  0  0  0  0  0
   23.3071  -21.3872  -11.3918 C   0  0  0  0  0  0  0  0  0  0  0  0
   22.9258  -22.2423  -10.5548 O   0  0  0  0  0  0  0  0  0  0  0  0
   27.1236  -22.1426  -14.3209 O   0  0  0  0  0  0  0  0  0  0  0  0
   20.7110  -18.7583  -13.2999 C   0  0  0  0  0  0  0  0  0  0  0  0
   20.3350  -19.3856  -11.9694 C   0  0  2  0  0  0  0  0  0  0  0  0
   20.8616  -18.5318  -10.8516 C   0  0  0  0  0  0  0  0  0  0  0  0
   20.9322  -20.7783  -11.9668 C   0  0  2  0  0  0  0  0  0  0  0  0
   22.3661  -20.6249  -12.1336 N   0  0  0  0  0  0  0  0  0  0  0  0
   20.3610  -21.6111  -13.0787 C   0  0  0  0  0  0  0  0  0  0  0  0
   19.2034  -22.0966  -13.0221 O   0  0  0  0  0  0  0  0  0  0  0  0
   21.0956  -21.8803  -14.2237 O   0  0  0  0  0  0  0  0  0  0  0  0
  2  1  1  6
  2 10  1  0
  3  4  1  0
  3  2  1  0
  4  9  2  0
  5  4  1  0
  5  6  2  0
  6  7  1  0
  7  8  2  0
  9  8  1  0
 10 11  2  0
 12 10  1  0
 12 13  1  0
 13 17  1  0
 13 14  1  6
 15 14  1  0
 15 19  1  0
 16 15  2  0
 17 24  1  0
 18 17  2  0
 21 20  1  6
 21 22  1  0
 23 21  1  0
 23 24  1  6
 25 23  1  0
 25 27  1  0
 26 25  2  0
M  END
$$$$
