FDV.pdb
     RDKit          3D

 27 27  0  0  1  0  0  0  0  0999 V2000
   28.0437  -19.9864  -10.3447 N   0  0  0  0  0  0  0  0  0  0  0  0
   26.8283  -20.7580  -10.1000 C   0  0  1  0  0  0  0  0  0  0  0  0
   26.2687  -20.4048   -8.7663 C   0  0  0  0  0  0  0  0  0  0  0  0
   27.3088  -20.2892   -7.7423 C   0  0  0  0  0  0  0  0  0  0  0  0
   28.2351  -21.3077   -7.4980 C   0  0  0  0  0  0  0  0  0  0  0  0
   29.2156  -21.1976   -6.5410 C   0  0  0  0  0  0  0  0  0  0  0  0
   29.3210  -20.0562   -5.7741 C   0  0  0  0  0  0  0  0  0  0  0  0
   28.4206  -19.0364   -5.9941 C   0  0  0  0  0  0  0  0  0  0  0  0
   27.4269  -19.1580   -6.9701 C   0  0  0  0  0  0  0  0  0  0  0  0
   25.9019  -20.5638  -11.2381 C   0  0  0  0  0  0  0  0  0  0  0  0
   25.5173  -19.4240  -11.6063 O   0  0  0  0  0  0  0  0  0  0  0  0
   25.3822  -21.6584  -11.9953 N   0  0  0  0  0  0  0  0  0  0  0  0
   24.4390  -21.4817  -13.0719 C   0  0  1  0  0  0  0  0  0  0  0  0
   24.7949  -22.3094  -14.2748 C   0  0  0  0  0  0  0  0  0  0  0  0
   23.8580  -22.1365  -15.3947 C   0  0  0  0  0  0  0  0  0  0  0  0
   23.0794  -23.0210  -15.8325 O   0  0  0  0  0  0  0  0  0  0  0  0
   23.0474  -21.7121  -12.6129 C   0  0  0  0  0  0  0  0  0  0  0  0
   22.8115  -22.7532  -11.9512 O   0  0  0  0  0  0  0  0  0  0  0  0
   23.8222  -20.9010  -16.0264 O   0  0  0  0  0  0  0  0  0  0  0  0
   20.2895  -18.6403  -12.8361 C   0  0  0  0  0  0  0  0  0  0  0  0
   20.1201  -19.7866  -11.8552 C   0  0  2  0  0  0  0  0  0  0  0  0
   20.8882  -19.4839  -10.6005 C   0  0  0  0  0  0  0  0  0  0  0  0
   20.6235  -21.0314  -12.5578 C   0  0  2  0  0  0  0  0  0  0  0  0
   22.0108  -20.7878  -12.9095 N   0  0  0  0  0  0  0  0  0  0  0  0
   19.8130  -21.3196  -13.7891 C   0  0  0  0  0  0  0  0  0  0  0  0
   20.2469  -21.0829  -14.9444 O   0  0  0  0  0  0  0  0  0  0  0  0
   18.5406  -21.8638  -13.6994 O   0  0  0  0  0  0  0  0  0  0  0  0
  2  1  1  6
  2 10  1  0
  3  4  1  0
  3  2  1  0
  4  9  2  0
  5  4  1  0
  5  6  2  0
  6  7  1  0
  7  8  2  0
  9  8  1  0
 10 11  2  0
 12 10  1  0
 12 13  1  0
 13 17  1  0
 13 14  1  6
 15 14  1  0
 15 19  1  0
 16 15  2  0
 17 24  1  0
 18 17  2  0
 21 20  1  6
 21 22  1  0
 23 21  1  0
 23 24  1  6
 25 23  1  0
 25 27  1  0
 26 25  2  0
M  END
$$$$
