FDV.pdb
     RDKit          3D

 27 27  0  0  1  0  0  0  0  0999 V2000
   16.8351  -25.7665   -9.2599 N   0  0  0  0  0  0  0  0  0  0  0  0
   17.8687  -26.5898   -8.6383 C   0  0  1  0  0  0  0  0  0  0  0  0
   19.1681  -25.8632   -8.6557 C   0  0  0  0  0  0  0  0  0  0  0  0
   19.7408  -25.7848  -10.0008 C   0  0  0  0  0  0  0  0  0  0  0  0
   20.4213  -26.8558  -10.5881 C   0  0  0  0  0  0  0  0  0  0  0  0
   20.9541  -26.7852  -11.8532 C   0  0  0  0  0  0  0  0  0  0  0  0
   20.8332  -25.6326  -12.6010 C   0  0  0  0  0  0  0  0  0  0  0  0
   20.1670  -24.5614  -12.0462 C   0  0  0  0  0  0  0  0  0  0  0  0
   19.6285  -24.6433  -10.7585 C   0  0  0  0  0  0  0  0  0  0  0  0
   17.4038  -27.0076   -7.2965 C   0  0  0  0  0  0  0  0  0  0  0  0
   16.3945  -26.4981   -6.7447 O   0  0  0  0  0  0  0  0  0  0  0  0
   18.0705  -28.0181   -6.5375 N   0  0  0  0  0  0  0  0  0  0  0  0
   17.5705  -28.4985   -5.2729 C   0  0  1  0  0  0  0  0  0  0  0  0
   18.0126  -29.9068   -4.9902 C   0  0  0  0  0  0  0  0  0  0  0  0
   17.4263  -30.4624   -3.7615 C   0  0  0  0  0  0  0  0  0  0  0  0
   16.4538  -29.9706   -3.1350 O   0  0  0  0  0  0  0  0  0  0  0  0
   17.9051  -27.5639   -4.1706 C   0  0  0  0  0  0  0  0  0  0  0  0
   19.0857  -27.1422   -4.0955 O   0  0  0  0  0  0  0  0  0  0  0  0
   17.9839  -31.6230   -3.2432 O   0  0  0  0  0  0  0  0  0  0  0  0
   15.0005  -26.7209   -1.2552 C   0  0  0  0  0  0  0  0  0  0  0  0
   15.9390  -25.6130   -1.6989 C   0  0  2  0  0  0  0  0  0  0  0  0
   15.3066  -24.8487   -2.8266 C   0  0  0  0  0  0  0  0  0  0  0  0
   17.2343  -26.2849   -2.1077 C   0  0  2  0  0  0  0  0  0  0  0  0
   16.9251  -27.1557   -3.2273 N   0  0  0  0  0  0  0  0  0  0  0  0
   17.8116  -27.0780   -0.9702 C   0  0  0  0  0  0  0  0  0  0  0  0
   17.7674  -28.3335   -0.9416 O   0  0  0  0  0  0  0  0  0  0  0  0
   18.4227  -26.4502    0.1048 O   0  0  0  0  0  0  0  0  0  0  0  0
  2  1  1  1
  2 10  1  0
  3  4  1  0
  3  2  1  0
  4  9  2  0
  5  4  1  0
  5  6  2  0
  6  7  1  0
  7  8  2  0
  9  8  1  0
 10 11  2  0
 12 10  1  0
 12 13  1  0
 13 17  1  0
 13 14  1  1
 15 14  1  0
 15 19  1  0
 16 15  2  0
 17 24  1  0
 18 17  2  0
 21 20  1  6
 21 22  1  0
 23 21  1  0
 23 24  1  6
 25 23  1  0
 25 27  1  0
 26 25  2  0
M  END
$$$$
