FDV.pdb
     RDKit          3D

 27 27  0  0  1  0  0  0  0  0999 V2000
   18.9067  -10.9290  -15.8777 N   0  0  0  0  0  0  0  0  0  0  0  0
   19.1377   -9.7307  -16.6798 C   0  0  1  0  0  0  0  0  0  0  0  0
   17.9748   -9.4963  -17.5795 C   0  0  0  0  0  0  0  0  0  0  0  0
   18.0692  -10.2691  -18.8194 C   0  0  0  0  0  0  0  0  0  0  0  0
   17.1767  -11.3001  -19.1284 C   0  0  0  0  0  0  0  0  0  0  0  0
   17.2609  -12.0223  -20.2949 C   0  0  0  0  0  0  0  0  0  0  0  0
   18.2481  -11.7489  -21.2184 C   0  0  0  0  0  0  0  0  0  0  0  0
   19.1413  -10.7374  -20.9391 C   0  0  0  0  0  0  0  0  0  0  0  0
   19.0472  -10.0086  -19.7496 C   0  0  0  0  0  0  0  0  0  0  0  0
   19.4649   -8.6059  -15.7748 C   0  0  0  0  0  0  0  0  0  0  0  0
   19.6938   -8.7726  -14.5490 O   0  0  0  0  0  0  0  0  0  0  0  0
   19.5429   -7.2548  -16.2330 N   0  0  0  0  0  0  0  0  0  0  0  0
   19.8827   -6.1563  -15.3625 C   0  0  1  0  0  0  0  0  0  0  0  0
   21.0969   -6.4533  -14.5279 C   0  0  0  0  0  0  0  0  0  0  0  0
   21.4732   -5.3449  -13.6380 C   0  0  0  0  0  0  0  0  0  0  0  0
   20.7013   -4.7688  -12.8303 O   0  0  0  0  0  0  0  0  0  0  0  0
   20.0082   -4.8870  -16.1198 C   0  0  0  0  0  0  0  0  0  0  0  0
   20.9508   -4.7846  -16.9434 O   0  0  0  0  0  0  0  0  0  0  0  0
   22.7839   -4.8904  -13.6856 O   0  0  0  0  0  0  0  0  0  0  0  0
   16.7811   -2.3547  -16.0764 C   0  0  0  0  0  0  0  0  0  0  0  0
   17.6952   -2.4476  -17.2850 C   0  0  2  0  0  0  0  0  0  0  0  0
   17.2613   -3.5975  -18.1483 C   0  0  0  0  0  0  0  0  0  0  0  0
   19.1013   -2.6233  -16.7480 C   0  0  2  0  0  0  0  0  0  0  0  0
   19.0939   -3.8182  -15.9235 N   0  0  0  0  0  0  0  0  0  0  0  0
   19.5213   -1.4299  -15.9383 C   0  0  0  0  0  0  0  0  0  0  0  0
   19.7759   -0.3196  -16.4686 O   0  0  0  0  0  0  0  0  0  0  0  0
   19.6462   -1.5066  -14.5592 O   0  0  0  0  0  0  0  0  0  0  0  0
  2  1  1  1
  2 10  1  0
  3  4  1  0
  3  2  1  0
  4  9  2  0
  5  4  1  0
  5  6  2  0
  6  7  1  0
  7  8  2  0
  9  8  1  0
 10 11  2  0
 12 10  1  0
 12 13  1  0
 13 17  1  0
 13 14  1  6
 15 14  1  0
 15 19  1  0
 16 15  2  0
 17 24  1  0
 18 17  2  0
 21 20  1  1
 21 22  1  0
 23 21  1  0
 23 24  1  1
 25 23  1  0
 25 27  1  0
 26 25  2  0
M  END
$$$$
