FDV.pdb
     RDKit          3D

 27 27  0  0  1  0  0  0  0  0999 V2000
   29.2289  -27.0368  -17.6524 N   0  0  0  0  0  0  0  0  0  0  0  0
   27.8201  -27.4024  -17.7725 C   0  0  1  0  0  0  0  0  0  0  0  0
   27.4384  -28.3066  -16.6529 C   0  0  0  0  0  0  0  0  0  0  0  0
   27.6966  -29.7136  -16.9648 C   0  0  0  0  0  0  0  0  0  0  0  0
   28.8865  -30.3538  -16.6052 C   0  0  0  0  0  0  0  0  0  0  0  0
   29.1273  -31.6763  -16.8923 C   0  0  0  0  0  0  0  0  0  0  0  0
   28.1846  -32.4316  -17.5580 C   0  0  0  0  0  0  0  0  0  0  0  0
   27.0024  -31.8254  -17.9242 C   0  0  0  0  0  0  0  0  0  0  0  0
   26.7670  -30.4795  -17.6275 C   0  0  0  0  0  0  0  0  0  0  0  0
   27.0133  -26.1661  -17.8806 C   0  0  0  0  0  0  0  0  0  0  0  0
   27.3988  -25.0668  -17.4057 O   0  0  0  0  0  0  0  0  0  0  0  0
   25.7419  -26.1383  -18.5321 N   0  0  0  0  0  0  0  0  0  0  0  0
   24.9606  -24.9331  -18.6627 C   0  0  1  0  0  0  0  0  0  0  0  0
   24.5257  -24.6942  -20.0814 C   0  0  0  0  0  0  0  0  0  0  0  0
   23.7966  -23.4296  -20.2585 C   0  0  0  0  0  0  0  0  0  0  0  0
   23.1150  -23.1205  -21.2685 O   0  0  0  0  0  0  0  0  0  0  0  0
   23.8250  -24.9206  -17.7085 C   0  0  0  0  0  0  0  0  0  0  0  0
   23.0314  -25.8939  -17.7264 O   0  0  0  0  0  0  0  0  0  0  0  0
   23.8593  -22.4951  -19.2342 O   0  0  0  0  0  0  0  0  0  0  0  0
   23.8268  -22.1006  -14.6371 C   0  0  0  0  0  0  0  0  0  0  0  0
   23.2547  -23.4973  -14.4726 C   0  0  2  0  0  0  0  0  0  0  0  0
   24.3604  -24.4473  -14.1114 C   0  0  0  0  0  0  0  0  0  0  0  0
   22.5944  -23.8492  -15.7904 C   0  0  2  0  0  0  0  0  0  0  0  0
   23.6364  -23.8445  -16.8012 N   0  0  0  0  0  0  0  0  0  0  0  0
   21.5223  -22.8560  -16.1375 C   0  0  0  0  0  0  0  0  0  0  0  0
   21.6925  -21.9677  -17.0098 O   0  0  0  0  0  0  0  0  0  0  0  0
   20.2895  -22.8799  -15.5030 O   0  0  0  0  0  0  0  0  0  0  0  0
  2  1  1  1
  2 10  1  0
  3  4  1  0
  3  2  1  0
  4  9  2  0
  5  4  1  0
  5  6  2  0
  6  7  1  0
  7  8  2  0
  9  8  1  0
 10 11  2  0
 12 10  1  0
 12 13  1  0
 13 17  1  0
 13 14  1  6
 15 14  1  0
 15 19  1  0
 16 15  2  0
 17 24  1  0
 18 17  2  0
 21 20  1  6
 21 22  1  0
 23 21  1  0
 23 24  1  6
 25 23  1  0
 25 27  1  0
 26 25  2  0
M  END
$$$$
