FDV.pdb
     RDKit          3D

 27 27  0  0  1  0  0  0  0  0999 V2000
   27.3621  -22.3250  -11.7537 N   0  0  0  0  0  0  0  0  0  0  0  0
   26.3844  -21.4680  -11.0886 C   0  0  1  0  0  0  0  0  0  0  0  0
   27.0110  -20.1609  -10.7482 C   0  0  0  0  0  0  0  0  0  0  0  0
   27.4174  -20.0907   -9.3435 C   0  0  0  0  0  0  0  0  0  0  0  0
   26.5604  -19.6318   -8.3384 C   0  0  0  0  0  0  0  0  0  0  0  0
   26.9391  -19.5711   -7.0184 C   0  0  0  0  0  0  0  0  0  0  0  0
   28.2022  -19.9686   -6.6330 C   0  0  0  0  0  0  0  0  0  0  0  0
   29.0674  -20.4254   -7.6036 C   0  0  0  0  0  0  0  0  0  0  0  0
   28.6727  -20.4834   -8.9436 C   0  0  0  0  0  0  0  0  0  0  0  0
   25.1731  -21.3793  -11.9347 C   0  0  0  0  0  0  0  0  0  0  0  0
   25.2162  -21.4952  -13.1866 O   0  0  0  0  0  0  0  0  0  0  0  0
   23.8728  -21.1561  -11.3860 N   0  0  0  0  0  0  0  0  0  0  0  0
   22.6714  -21.2178  -12.1814 C   0  0  1  0  0  0  0  0  0  0  0  0
   21.4586  -21.5233  -11.3480 C   0  0  0  0  0  0  0  0  0  0  0  0
   20.2470  -21.7503  -12.1497 C   0  0  0  0  0  0  0  0  0  0  0  0
   20.2105  -21.8249  -13.4040 O   0  0  0  0  0  0  0  0  0  0  0  0
   22.5050  -19.9939  -13.0028 C   0  0  0  0  0  0  0  0  0  0  0  0
   22.2960  -18.9091  -12.4055 O   0  0  0  0  0  0  0  0  0  0  0  0
   19.0413  -21.8950  -11.4775 O   0  0  0  0  0  0  0  0  0  0  0  0
   23.1720  -20.2087  -17.0881 C   0  0  0  0  0  0  0  0  0  0  0  0
   23.2669  -18.8691  -16.3799 C   0  0  2  0  0  0  0  0  0  0  0  0
   24.6688  -18.6709  -15.8786 C   0  0  0  0  0  0  0  0  0  0  0  0
   22.2488  -18.9030  -15.2580 C   0  0  2  0  0  0  0  0  0  0  0  0
   22.5789  -20.0417  -14.4202 N   0  0  0  0  0  0  0  0  0  0  0  0
   20.8545  -19.0375  -15.8003 C   0  0  0  0  0  0  0  0  0  0  0  0
   20.1983  -18.0464  -16.2079 O   0  0  0  0  0  0  0  0  0  0  0  0
   20.2293  -20.2732  -15.8735 O   0  0  0  0  0  0  0  0  0  0  0  0
  2  1  1  6
  2 10  1  0
  3  4  1  0
  3  2  1  0
  4  9  2  0
  5  4  1  0
  5  6  2  0
  6  7  1  0
  7  8  2  0
  9  8  1  0
 10 11  2  0
 12 10  1  0
 12 13  1  0
 13 17  1  0
 13 14  1  1
 15 14  1  0
 15 19  1  0
 16 15  2  0
 17 24  1  0
 18 17  2  0
 21 20  1  1
 21 22  1  0
 23 21  1  0
 23 24  1  1
 25 23  1  0
 25 27  1  0
 26 25  2  0
M  END
$$$$
