FDV.pdb
     RDKit          3D

 27 27  0  0  1  0  0  0  0  0999 V2000
   16.9620  -15.7636    6.7497 N   0  0  0  0  0  0  0  0  0  0  0  0
   18.0438  -16.6987    6.4531 C   0  0  1  0  0  0  0  0  0  0  0  0
   19.1061  -16.0068    5.6723 C   0  0  0  0  0  0  0  0  0  0  0  0
   18.6208  -15.5349    4.3741 C   0  0  0  0  0  0  0  0  0  0  0  0
   18.3969  -14.1810    4.1059 C   0  0  0  0  0  0  0  0  0  0  0  0
   17.9470  -13.7365    2.8855 C   0  0  0  0  0  0  0  0  0  0  0  0
   17.6963  -14.6285    1.8639 C   0  0  0  0  0  0  0  0  0  0  0  0
   17.9087  -15.9693    2.1012 C   0  0  0  0  0  0  0  0  0  0  0  0
   18.3666  -16.4114    3.3461 C   0  0  0  0  0  0  0  0  0  0  0  0
   18.5002  -17.3179    7.7177 C   0  0  0  0  0  0  0  0  0  0  0  0
   18.2680  -16.8029    8.8418 O   0  0  0  0  0  0  0  0  0  0  0  0
   19.2354  -18.5428    7.7467 N   0  0  0  0  0  0  0  0  0  0  0  0
   19.7622  -19.1055    8.9656 C   0  0  1  0  0  0  0  0  0  0  0  0
   19.3701  -20.5463    9.1368 C   0  0  0  0  0  0  0  0  0  0  0  0
   17.9376  -20.7877    8.9091 C   0  0  0  0  0  0  0  0  0  0  0  0
   16.9992  -20.2007    9.5050 O   0  0  0  0  0  0  0  0  0  0  0  0
   21.2274  -18.8977    9.0663 C   0  0  0  0  0  0  0  0  0  0  0  0
   21.9291  -19.1609    8.0584 O   0  0  0  0  0  0  0  0  0  0  0  0
   17.5818  -21.7382    7.9622 O   0  0  0  0  0  0  0  0  0  0  0  0
   22.8499  -16.2929   11.7327 C   0  0  0  0  0  0  0  0  0  0  0  0
   23.5789  -16.8213   10.5103 C   0  0  2  0  0  0  0  0  0  0  0  0
   23.1233  -16.0651    9.2953 C   0  0  0  0  0  0  0  0  0  0  0  0
   23.2609  -18.3006   10.4264 C   0  0  2  0  0  0  0  0  0  0  0  0
   21.8232  -18.4164   10.2622 N   0  0  0  0  0  0  0  0  0  0  0  0
   23.7066  -19.0184   11.6683 C   0  0  0  0  0  0  0  0  0  0  0  0
   22.8966  -19.3744   12.5605 O   0  0  0  0  0  0  0  0  0  0  0  0
   25.0433  -19.3198   11.8821 O   0  0  0  0  0  0  0  0  0  0  0  0
  2  1  1  1
  2 10  1  0
  3  4  1  0
  3  2  1  0
  4  9  2  0
  5  4  1  0
  5  6  2  0
  6  7  1  0
  7  8  2  0
  9  8  1  0
 10 11  2  0
 12 10  1  0
 12 13  1  0
 13 17  1  0
 13 14  1  6
 15 14  1  0
 15 19  1  0
 16 15  2  0
 17 24  1  0
 18 17  2  0
 21 20  1  1
 21 22  1  0
 23 21  1  0
 23 24  1  1
 25 23  1  0
 25 27  1  0
 26 25  2  0
M  END
$$$$
