FDV.pdb
     RDKit          3D

 27 27  0  0  1  0  0  0  0  0999 V2000
   25.3027  -20.9469  -17.8785 N   0  0  0  0  0  0  0  0  0  0  0  0
   23.8797  -21.1592  -18.1287 C   0  0  1  0  0  0  0  0  0  0  0  0
   23.6887  -22.4092  -18.9147 C   0  0  0  0  0  0  0  0  0  0  0  0
   22.2838  -22.6388  -19.2572 C   0  0  0  0  0  0  0  0  0  0  0  0
   21.5204  -23.6421  -18.6525 C   0  0  0  0  0  0  0  0  0  0  0  0
   20.1998  -23.8546  -18.9691 C   0  0  0  0  0  0  0  0  0  0  0  0
   19.5706  -23.0698  -19.9126 C   0  0  0  0  0  0  0  0  0  0  0  0
   20.2998  -22.0732  -20.5243 C   0  0  0  0  0  0  0  0  0  0  0  0
   21.6427  -21.8651  -20.1952 C   0  0  0  0  0  0  0  0  0  0  0  0
   23.1560  -21.1152  -16.8382 C   0  0  0  0  0  0  0  0  0  0  0  0
   23.6115  -21.6458  -15.7924 O   0  0  0  0  0  0  0  0  0  0  0  0
   21.8910  -20.4669  -16.6936 N   0  0  0  0  0  0  0  0  0  0  0  0
   21.1682  -20.4405  -15.4459 C   0  0  1  0  0  0  0  0  0  0  0  0
   20.8784  -19.0373  -14.9919 C   0  0  0  0  0  0  0  0  0  0  0  0
   20.1685  -18.9798  -13.7055 C   0  0  0  0  0  0  0  0  0  0  0  0
   18.9274  -18.8354  -13.5675 O   0  0  0  0  0  0  0  0  0  0  0  0
   19.9482  -21.2818  -15.5114 C   0  0  0  0  0  0  0  0  0  0  0  0
   19.2105  -21.1697  -16.5216 O   0  0  0  0  0  0  0  0  0  0  0  0
   20.9197  -19.0929  -12.5438 O   0  0  0  0  0  0  0  0  0  0  0  0
   19.1146  -23.9020  -12.3423 C   0  0  0  0  0  0  0  0  0  0  0  0
   18.7975  -24.3139  -13.7687 C   0  0  2  0  0  0  0  0  0  0  0  0
   19.9856  -25.0190  -14.3575 C   0  0  0  0  0  0  0  0  0  0  0  0
   18.4482  -23.0424  -14.5156 C   0  0  2  0  0  0  0  0  0  0  0  0
   19.6202  -22.1871  -14.4675 N   0  0  0  0  0  0  0  0  0  0  0  0
   17.2706  -22.3545  -13.8861 C   0  0  0  0  0  0  0  0  0  0  0  0
   17.3972  -21.3128  -13.1949 O   0  0  0  0  0  0  0  0  0  0  0  0
   15.9837  -22.8464  -14.0443 O   0  0  0  0  0  0  0  0  0  0  0  0
  2  1  1  1
  2 10  1  0
  3  4  1  0
  3  2  1  0
  4  9  2  0
  5  4  1  0
  5  6  2  0
  6  7  1  0
  7  8  2  0
  9  8  1  0
 10 11  2  0
 12 10  1  0
 12 13  1  0
 13 17  1  0
 13 14  1  6
 15 14  1  0
 15 19  1  0
 16 15  2  0
 17 24  1  0
 18 17  2  0
 21 20  1  1
 21 22  1  0
 23 21  1  0
 23 24  1  1
 25 23  1  0
 25 27  1  0
 26 25  2  0
M  END
$$$$
