FDV.pdb
     RDKit          3D

 27 27  0  0  1  0  0  0  0  0999 V2000
   26.1434  -22.5530  -11.5169 N   0  0  0  0  0  0  0  0  0  0  0  0
   25.3360  -21.3777  -11.2014 C   0  0  1  0  0  0  0  0  0  0  0  0
   26.2158  -20.1834  -11.0727 C   0  0  0  0  0  0  0  0  0  0  0  0
   27.0194  -20.2168   -9.8494 C   0  0  0  0  0  0  0  0  0  0  0  0
   26.4983  -19.8607   -8.6017 C   0  0  0  0  0  0  0  0  0  0  0  0
   27.2504  -19.8974   -7.4517 C   0  0  0  0  0  0  0  0  0  0  0  0
   28.5705  -20.2945   -7.4903 C   0  0  0  0  0  0  0  0  0  0  0  0
   29.1097  -20.6510   -8.7074 C   0  0  0  0  0  0  0  0  0  0  0  0
   28.3363  -20.6104   -9.8716 C   0  0  0  0  0  0  0  0  0  0  0  0
   24.2578  -21.2545  -12.2081 C   0  0  0  0  0  0  0  0  0  0  0  0
   24.4017  -21.6345  -13.3987 O   0  0  0  0  0  0  0  0  0  0  0  0
   22.9807  -20.6956  -11.8949 N   0  0  0  0  0  0  0  0  0  0  0  0
   21.8982  -20.6465  -12.8466 C   0  0  1  0  0  0  0  0  0  0  0  0
   20.5559  -20.7599  -12.1799 C   0  0  0  0  0  0  0  0  0  0  0  0
   20.2929  -22.0986  -11.6314 C   0  0  0  0  0  0  0  0  0  0  0  0
   19.8537  -22.3365  -10.4779 O   0  0  0  0  0  0  0  0  0  0  0  0
   22.0017  -19.4520  -13.7200 C   0  0  0  0  0  0  0  0  0  0  0  0
   22.1359  -18.3312  -13.1695 O   0  0  0  0  0  0  0  0  0  0  0  0
   20.5467  -23.1947  -12.4443 O   0  0  0  0  0  0  0  0  0  0  0  0
   23.2822  -17.5481  -17.9382 C   0  0  0  0  0  0  0  0  0  0  0  0
   23.1799  -18.7412  -17.0049 C   0  0  2  0  0  0  0  0  0  0  0  0
   22.8895  -19.9765  -17.8084 C   0  0  0  0  0  0  0  0  0  0  0  0
   22.0777  -18.4199  -16.0157 C   0  0  2  0  0  0  0  0  0  0  0  0
   21.9514  -19.5667  -15.1346 N   0  0  0  0  0  0  0  0  0  0  0  0
   20.7792  -18.1565  -16.7234 C   0  0  0  0  0  0  0  0  0  0  0  0
   19.9198  -19.0563  -16.8981 O   0  0  0  0  0  0  0  0  0  0  0  0
   20.4739  -16.8970  -17.2171 O   0  0  0  0  0  0  0  0  0  0  0  0
  2  1  1  6
  2 10  1  0
  3  4  1  0
  3  2  1  0
  4  9  2  0
  5  4  1  0
  5  6  2  0
  6  7  1  0
  7  8  2  0
  9  8  1  0
 10 11  2  0
 12 10  1  0
 12 13  1  0
 13 17  1  0
 13 14  1  1
 15 14  1  0
 15 19  1  0
 16 15  2  0
 17 24  1  0
 18 17  2  0
 21 20  1  6
 21 22  1  0
 23 21  1  0
 23 24  1  1
 25 23  1  0
 25 27  1  0
 26 25  2  0
M  END
$$$$
