FDV.pdb
     RDKit          3D

 27 27  0  0  1  0  0  0  0  0999 V2000
   26.9997  -18.0849   -7.9248 N   0  0  0  0  0  0  0  0  0  0  0  0
   27.3315  -19.4336   -8.3760 C   0  0  1  0  0  0  0  0  0  0  0  0
   27.0181  -20.4146   -7.3007 C   0  0  0  0  0  0  0  0  0  0  0  0
   27.8127  -20.1850   -6.0927 C   0  0  0  0  0  0  0  0  0  0  0  0
   27.2319  -20.0646   -4.8265 C   0  0  0  0  0  0  0  0  0  0  0  0
   27.9776  -19.8549   -3.6910 C   0  0  0  0  0  0  0  0  0  0  0  0
   29.3511  -19.7542   -3.7635 C   0  0  0  0  0  0  0  0  0  0  0  0
   29.9498  -19.8692   -4.9995 C   0  0  0  0  0  0  0  0  0  0  0  0
   29.1824  -20.0825   -6.1486 C   0  0  0  0  0  0  0  0  0  0  0  0
   26.6551  -19.6850   -9.6684 C   0  0  0  0  0  0  0  0  0  0  0  0
   25.5373  -19.1823   -9.9523 O   0  0  0  0  0  0  0  0  0  0  0  0
   27.2265  -20.5158  -10.6807 N   0  0  0  0  0  0  0  0  0  0  0  0
   26.6686  -20.6225  -12.0064 C   0  0  1  0  0  0  0  0  0  0  0  0
   27.6479  -21.2081  -12.9846 C   0  0  0  0  0  0  0  0  0  0  0  0
   27.1183  -21.2932  -14.3537 C   0  0  0  0  0  0  0  0  0  0  0  0
   26.7499  -22.3508  -14.9247 O   0  0  0  0  0  0  0  0  0  0  0  0
   25.3754  -21.3490  -11.9903 C   0  0  0  0  0  0  0  0  0  0  0  0
   25.3376  -22.4693  -11.4241 O   0  0  0  0  0  0  0  0  0  0  0  0
   27.0125  -20.1170  -15.0832 O   0  0  0  0  0  0  0  0  0  0  0  0
   21.9927  -19.3214  -13.0962 C   0  0  0  0  0  0  0  0  0  0  0  0
   21.8777  -20.5359  -12.1923 C   0  0  2  0  0  0  0  0  0  0  0  0
   22.0521  -20.1091  -10.7630 C   0  0  0  0  0  0  0  0  0  0  0  0
   22.9483  -21.5094  -12.6422 C   0  0  2  0  0  0  0  0  0  0  0  0
   24.2137  -20.7995  -12.5947 N   0  0  0  0  0  0  0  0  0  0  0  0
   22.6760  -22.0036  -14.0343 C   0  0  0  0  0  0  0  0  0  0  0  0
   23.3094  -21.5741  -15.0309 O   0  0  0  0  0  0  0  0  0  0  0  0
   21.7049  -22.9632  -14.2777 O   0  0  0  0  0  0  0  0  0  0  0  0
  2  1  1  1
  2 10  1  0
  3  4  1  0
  3  2  1  0
  4  9  2  0
  5  4  1  0
  5  6  2  0
  6  7  1  0
  7  8  2  0
  9  8  1  0
 10 11  2  0
 12 10  1  0
 12 13  1  0
 13 17  1  0
 13 14  1  6
 15 14  1  0
 15 19  1  0
 16 15  2  0
 17 24  1  0
 18 17  2  0
 21 20  1  6
 21 22  1  0
 23 21  1  0
 23 24  1  6
 25 23  1  0
 25 27  1  0
 26 25  2  0
M  END
$$$$
