FDV.pdb
     RDKit          3D

 27 27  0  0  1  0  0  0  0  0999 V2000
   25.6965  -21.1101   -7.7789 N   0  0  0  0  0  0  0  0  0  0  0  0
   26.4835  -20.0419   -8.3889 C   0  0  1  0  0  0  0  0  0  0  0  0
   27.9061  -20.1616   -7.9662 C   0  0  0  0  0  0  0  0  0  0  0  0
   28.0846  -19.8882   -6.5389 C   0  0  0  0  0  0  0  0  0  0  0  0
   27.6595  -18.6952   -5.9465 C   0  0  0  0  0  0  0  0  0  0  0  0
   27.8212  -18.4402   -4.6055 C   0  0  0  0  0  0  0  0  0  0  0  0
   28.4203  -19.3708   -3.7827 C   0  0  0  0  0  0  0  0  0  0  0  0
   28.8488  -20.5558   -4.3407 C   0  0  0  0  0  0  0  0  0  0  0  0
   28.6796  -20.8057   -5.7059 C   0  0  0  0  0  0  0  0  0  0  0  0
   26.2623  -20.0615   -9.8524 C   0  0  0  0  0  0  0  0  0  0  0  0
   26.7510  -19.1919  -10.6190 O   0  0  0  0  0  0  0  0  0  0  0  0
   25.4786  -21.0700  -10.4930 N   0  0  0  0  0  0  0  0  0  0  0  0
   25.2200  -21.0703  -11.9118 C   0  0  1  0  0  0  0  0  0  0  0  0
   25.6440  -22.3575  -12.5617 C   0  0  0  0  0  0  0  0  0  0  0  0
   25.5467  -22.3252  -14.0286 C   0  0  0  0  0  0  0  0  0  0  0  0
   24.5286  -22.6403  -14.6952 O   0  0  0  0  0  0  0  0  0  0  0  0
   23.8075  -20.7232  -12.2026 C   0  0  0  0  0  0  0  0  0  0  0  0
   22.9221  -21.1670  -11.4303 O   0  0  0  0  0  0  0  0  0  0  0  0
   26.6630  -21.9154  -14.7445 O   0  0  0  0  0  0  0  0  0  0  0  0
   20.7092  -18.1357  -15.0379 C   0  0  0  0  0  0  0  0  0  0  0  0
   22.1387  -18.5824  -14.7885 C   0  0  2  0  0  0  0  0  0  0  0  0
   22.6831  -19.2222  -16.0335 C   0  0  0  0  0  0  0  0  0  0  0  0
   22.0908  -19.5416  -13.6163 C   0  0  2  0  0  0  0  0  0  0  0  0
   23.4616  -19.9149  -13.3179 N   0  0  0  0  0  0  0  0  0  0  0  0
   21.2764  -20.7589  -13.9496 C   0  0  0  0  0  0  0  0  0  0  0  0
   21.6844  -21.6359  -14.7518 O   0  0  0  0  0  0  0  0  0  0  0  0
   20.0292  -20.9657  -13.3797 O   0  0  0  0  0  0  0  0  0  0  0  0
  2  1  1  1
  2 10  1  0
  3  4  1  0
  3  2  1  0
  4  9  2  0
  5  4  1  0
  5  6  2  0
  6  7  1  0
  7  8  2  0
  9  8  1  0
 10 11  2  0
 12 10  1  0
 12 13  1  0
 13 17  1  0
 13 14  1  1
 15 14  1  0
 15 19  1  0
 16 15  2  0
 17 24  1  0
 18 17  2  0
 21 20  1  6
 21 22  1  0
 23 21  1  0
 23 24  1  6
 25 23  1  0
 25 27  1  0
 26 25  2  0
M  END
$$$$
