KSI.pdb
     RDKit          3D

 24 23  0  0  1  0  0  0  0  0999 V2000
    9.5116  -15.8459   18.6004 N   0  0  0  0  0  0  0  0  0  0  0  0
    8.9892  -14.5512   18.9739 C   0  0  1  0  0  0  0  0  0  0  0  0
    8.0904  -14.0117   17.9117 C   0  0  0  0  0  0  0  0  0  0  0  0
    8.3972  -14.4308   16.5224 C   0  0  0  0  0  0  0  0  0  0  0  0
    7.8684  -13.5613   15.4354 C   0  0  0  0  0  0  0  0  0  0  0  0
    8.1831  -14.0797   14.0532 C   0  0  0  0  0  0  0  0  0  0  0  0
    7.6940  -13.1715   13.0352 N   0  0  0  0  0  0  0  0  0  0  0  0
    8.2873  -14.7068   20.2810 C   0  0  0  0  0  0  0  0  0  0  0  0
    7.8013  -13.7233   20.8944 O   0  0  0  0  0  0  0  0  0  0  0  0
    8.7476  -18.1097   22.8736 O   0  0  0  0  0  0  0  0  0  0  0  0
    7.4870  -17.7170   22.4103 C   0  0  0  0  0  0  0  0  0  0  0  0
    7.4749  -16.2035   22.1558 C   0  0  2  0  0  0  0  0  0  0  0  0
    8.1301  -15.9811   20.9046 N   0  0  0  0  0  0  0  0  0  0  0  0
    8.2086  -15.5107   23.2831 C   0  0  0  0  0  0  0  0  0  0  0  0
    9.4338  -15.2660   23.1761 O   0  0  0  0  0  0  0  0  0  0  0  0
    6.6259  -11.1366   27.1446 C   0  0  0  0  0  0  0  0  0  0  0  0
    7.5864  -12.3140   26.9356 C   0  0  0  0  0  0  0  0  0  0  0  0
    7.0783  -13.2102   25.8406 C   0  0  2  0  0  0  0  0  0  0  0  0
    5.6552  -13.6192   26.2078 C   0  0  0  0  0  0  0  0  0  0  0  0
    7.9860  -14.3302   25.5380 C   0  0  2  0  0  0  0  0  0  0  0  0
    7.5124  -15.1516   24.4304 N   0  0  0  0  0  0  0  0  0  0  0  0
    8.3630  -15.0946   26.7353 C   0  0  0  0  0  0  0  0  0  0  0  0
    9.2678  -14.5776   27.6427 O   0  0  0  0  0  0  0  0  0  0  0  0
    7.8925  -16.2139   26.9823 O   0  0  0  0  0  0  0  0  0  0  0  0
  2  1  1  6
  3  2  1  0
  4  3  1  0
  5  6  1  0
  5  4  1  0
  6  7  1  0
  8  2  1  0
  8  9  2  0
 10 11  1  0
 12 11  1  1
 12 13  1  0
 13  8  1  0
 14 12  1  0
 15 14  2  0
 17 16  1  0
 18 17  1  0
 18 19  1  1
 20 18  1  0
 20 21  1  6
 21 14  1  0
 22 20  1  0
 23 22  1  0
 24 22  2  0
M  END
$$$$
