KSI.pdb
     RDKit          3D

 24 23  0  0  1  0  0  0  0  0999 V2000
    8.6151  -15.7595   18.0431 N   0  0  0  0  0  0  0  0  0  0  0  0
    9.4143  -15.5697   19.2322 C   0  0  1  0  0  0  0  0  0  0  0  0
   10.2546  -14.3415   19.1200 C   0  0  0  0  0  0  0  0  0  0  0  0
   11.6088  -14.5277   18.5441 C   0  0  0  0  0  0  0  0  0  0  0  0
   12.7472  -14.4987   19.5035 C   0  0  0  0  0  0  0  0  0  0  0  0
   14.0941  -14.4293   18.8259 C   0  0  0  0  0  0  0  0  0  0  0  0
   15.1591  -14.3055   19.8011 N   0  0  0  0  0  0  0  0  0  0  0  0
    8.4847  -15.5122   20.3974 C   0  0  0  0  0  0  0  0  0  0  0  0
    7.4888  -14.7457   20.4146 O   0  0  0  0  0  0  0  0  0  0  0  0
    8.8066  -18.3577   23.4550 O   0  0  0  0  0  0  0  0  0  0  0  0
    7.6005  -17.7049   23.1772 C   0  0  0  0  0  0  0  0  0  0  0  0
    7.8798  -16.2603   22.7404 C   0  0  2  0  0  0  0  0  0  0  0  0
    8.6767  -16.3250   21.5551 N   0  0  0  0  0  0  0  0  0  0  0  0
    8.6171  -15.5457   23.8516 C   0  0  0  0  0  0  0  0  0  0  0  0
    9.8702  -15.5717   23.8898 O   0  0  0  0  0  0  0  0  0  0  0  0
    5.8004  -11.7822   27.3489 C   0  0  0  0  0  0  0  0  0  0  0  0
    6.2949  -13.0534   26.6475 C   0  0  0  0  0  0  0  0  0  0  0  0
    7.7425  -12.9075   26.2686 C   0  0  2  0  0  0  0  0  0  0  0  0
    7.8157  -11.9064   25.1197 C   0  0  0  0  0  0  0  0  0  0  0  0
    8.4086  -14.1958   26.0107 C   0  0  2  0  0  0  0  0  0  0  0  0
    7.8931  -14.8651   24.8225 N   0  0  0  0  0  0  0  0  0  0  0  0
    8.4702  -15.0516   27.2040 C   0  0  0  0  0  0  0  0  0  0  0  0
    9.1618  -14.6414   28.3277 O   0  0  0  0  0  0  0  0  0  0  0  0
    7.9123  -16.1567   27.2564 O   0  0  0  0  0  0  0  0  0  0  0  0
  2  1  1  6
  3  2  1  0
  4  3  1  0
  5  6  1  0
  5  4  1  0
  6  7  1  0
  8  2  1  0
  8  9  2  0
 10 11  1  0
 12 11  1  1
 12 13  1  0
 13  8  1  0
 14 12  1  0
 15 14  2  0
 17 16  1  0
 18 17  1  0
 18 19  1  6
 20 18  1  0
 20 21  1  6
 21 14  1  0
 22 20  1  0
 23 22  1  0
 24 22  2  0
M  END
$$$$
