KSI.pdb
     RDKit          3D

 24 23  0  0  1  0  0  0  0  0999 V2000
   11.0880  -17.1596   18.4720 N   0  0  0  0  0  0  0  0  0  0  0  0
   10.4054  -17.7485   19.6016 C   0  0  1  0  0  0  0  0  0  0  0  0
   11.3648  -18.4703   20.4879 C   0  0  0  0  0  0  0  0  0  0  0  0
   12.7187  -17.8759   20.6053 C   0  0  0  0  0  0  0  0  0  0  0  0
   13.6966  -18.6153   21.4504 C   0  0  0  0  0  0  0  0  0  0  0  0
   15.0394  -17.9323   21.5418 C   0  0  0  0  0  0  0  0  0  0  0  0
   15.9445  -18.6799   22.3916 N   0  0  0  0  0  0  0  0  0  0  0  0
    9.6900  -16.6534   20.3187 C   0  0  0  0  0  0  0  0  0  0  0  0
   10.1532  -15.4866   20.3794 O   0  0  0  0  0  0  0  0  0  0  0  0
    6.2533  -17.5549   22.5701 O   0  0  0  0  0  0  0  0  0  0  0  0
    6.2465  -16.3984   21.7824 C   0  0  0  0  0  0  0  0  0  0  0  0
    7.6767  -15.8611   21.6354 C   0  0  2  0  0  0  0  0  0  0  0  0
    8.4410  -16.8724   20.9741 N   0  0  0  0  0  0  0  0  0  0  0  0
    8.2356  -15.5711   23.0111 C   0  0  0  0  0  0  0  0  0  0  0  0
    9.1287  -16.3080   23.4925 O   0  0  0  0  0  0  0  0  0  0  0  0
    7.0281  -11.1120   27.2299 C   0  0  0  0  0  0  0  0  0  0  0  0
    7.7823  -12.4026   26.8864 C   0  0  0  0  0  0  0  0  0  0  0  0
    7.3066  -12.9465   25.5680 C   0  0  2  0  0  0  0  0  0  0  0  0
    5.8138  -13.2312   25.7026 C   0  0  0  0  0  0  0  0  0  0  0  0
    8.1119  -14.0803   25.0822 C   0  0  2  0  0  0  0  0  0  0  0  0
    7.7500  -14.4856   23.7293 N   0  0  0  0  0  0  0  0  0  0  0  0
    8.1716  -15.1881   26.0462 C   0  0  0  0  0  0  0  0  0  0  0  0
    7.3865  -16.3121   25.8741 O   0  0  0  0  0  0  0  0  0  0  0  0
    8.9173  -15.1662   27.0355 O   0  0  0  0  0  0  0  0  0  0  0  0
  2  1  1  6
  3  2  1  0
  4  3  1  0
  5  6  1  0
  5  4  1  0
  6  7  1  0
  8  2  1  0
  8  9  2  0
 10 11  1  0
 12 11  1  1
 12 13  1  0
 13  8  1  0
 14 12  1  0
 15 14  2  0
 17 16  1  0
 18 17  1  0
 18 19  1  1
 20 18  1  0
 20 21  1  6
 21 14  1  0
 22 20  1  0
 23 22  1  0
 24 22  2  0
M  END
$$$$
