KSI.pdb
     RDKit          3D

 24 23  0  0  1  0  0  0  0  0999 V2000
    6.4284  -16.8985   19.0300 N   0  0  0  0  0  0  0  0  0  0  0  0
    7.0280  -15.9398   19.9300 C   0  0  1  0  0  0  0  0  0  0  0  0
    6.6493  -14.5460   19.5548 C   0  0  0  0  0  0  0  0  0  0  0  0
    7.5610  -13.8535   18.6118 C   0  0  0  0  0  0  0  0  0  0  0  0
    9.0024  -13.8235   18.9843 C   0  0  0  0  0  0  0  0  0  0  0  0
    9.8596  -13.0858   17.9848 C   0  0  0  0  0  0  0  0  0  0  0  0
   11.2548  -13.1166   18.3758 N   0  0  0  0  0  0  0  0  0  0  0  0
    6.5960  -16.2881   21.3147 C   0  0  0  0  0  0  0  0  0  0  0  0
    5.5123  -16.8826   21.5420 O   0  0  0  0  0  0  0  0  0  0  0  0
    8.3517  -18.3610   23.8252 O   0  0  0  0  0  0  0  0  0  0  0  0
    7.0454  -17.8609   23.8622 C   0  0  0  0  0  0  0  0  0  0  0  0
    7.0740  -16.3275   23.8017 C   0  0  2  0  0  0  0  0  0  0  0  0
    7.3907  -15.9645   22.4555 N   0  0  0  0  0  0  0  0  0  0  0  0
    8.1257  -15.8182   24.7628 C   0  0  0  0  0  0  0  0  0  0  0  0
    9.3417  -15.9894   24.5089 O   0  0  0  0  0  0  0  0  0  0  0  0
    6.1129  -11.7519   28.2001 C   0  0  0  0  0  0  0  0  0  0  0  0
    6.6400  -13.1490   27.8496 C   0  0  0  0  0  0  0  0  0  0  0  0
    7.9411  -13.0409   27.1042 C   0  0  2  0  0  0  0  0  0  0  0  0
    7.6977  -12.1562   25.8853 C   0  0  0  0  0  0  0  0  0  0  0  0
    8.5520  -14.3483   26.8085 C   0  0  2  0  0  0  0  0  0  0  0  0
    7.7298  -15.1631   25.9221 N   0  0  0  0  0  0  0  0  0  0  0  0
    9.0082  -15.0481   28.0177 C   0  0  0  0  0  0  0  0  0  0  0  0
    9.9390  -14.4662   28.8570 O   0  0  0  0  0  0  0  0  0  0  0  0
    8.5841  -16.1682   28.3350 O   0  0  0  0  0  0  0  0  0  0  0  0
  2  1  1  6
  3  2  1  0
  4  3  1  0
  5  6  1  0
  5  4  1  0
  6  7  1  0
  8  2  1  0
  8  9  2  0
 10 11  1  0
 12 11  1  6
 12 13  1  0
 13  8  1  0
 14 12  1  0
 15 14  2  0
 17 16  1  0
 18 17  1  0
 18 19  1  6
 20 18  1  0
 20 21  1  1
 21 14  1  0
 22 20  1  0
 23 22  1  0
 24 22  2  0
M  END
$$$$
