KSI.pdb
     RDKit          3D

 24 23  0  0  1  0  0  0  0  0999 V2000
    7.7018  -16.4866   18.3352 N   0  0  0  0  0  0  0  0  0  0  0  0
    8.0714  -15.5238   19.3476 C   0  0  1  0  0  0  0  0  0  0  0  0
    7.3466  -14.2346   19.1480 C   0  0  0  0  0  0  0  0  0  0  0  0
    7.7846  -13.4117   17.9943 C   0  0  0  0  0  0  0  0  0  0  0  0
    7.8273  -14.0938   16.6714 C   0  0  0  0  0  0  0  0  0  0  0  0
    8.2284  -13.1764   15.5420 C   0  0  0  0  0  0  0  0  0  0  0  0
    8.0955  -13.8418   14.2614 N   0  0  0  0  0  0  0  0  0  0  0  0
    7.7820  -16.1331   20.6781 C   0  0  0  0  0  0  0  0  0  0  0  0
    6.9469  -17.0624   20.8149 O   0  0  0  0  0  0  0  0  0  0  0  0
   10.3086  -17.6051   22.8130 O   0  0  0  0  0  0  0  0  0  0  0  0
    8.9316  -17.7137   23.0365 C   0  0  0  0  0  0  0  0  0  0  0  0
    8.3111  -16.3143   23.1484 C   0  0  2  0  0  0  0  0  0  0  0  0
    8.4383  -15.6931   21.8669 N   0  0  0  0  0  0  0  0  0  0  0  0
    9.0553  -15.5310   24.2074 C   0  0  0  0  0  0  0  0  0  0  0  0
   10.2524  -15.2072   24.0215 O   0  0  0  0  0  0  0  0  0  0  0  0
    6.0307  -11.9115   26.6427 C   0  0  0  0  0  0  0  0  0  0  0  0
    7.1966  -12.6793   26.0075 C   0  0  0  0  0  0  0  0  0  0  0  0
    7.9302  -13.4691   27.0555 C   0  0  2  0  0  0  0  0  0  0  0  0
    8.4813  -12.4760   28.0742 C   0  0  0  0  0  0  0  0  0  0  0  0
    8.9270  -14.3964   26.4929 C   0  0  2  0  0  0  0  0  0  0  0  0
    8.4001  -15.1776   25.3803 N   0  0  0  0  0  0  0  0  0  0  0  0
    9.6023  -15.1974   27.5237 C   0  0  0  0  0  0  0  0  0  0  0  0
   10.5174  -14.6141   28.3790 O   0  0  0  0  0  0  0  0  0  0  0  0
    9.3827  -16.4078   27.6718 O   0  0  0  0  0  0  0  0  0  0  0  0
  2  1  1  6
  3  2  1  0
  4  3  1  0
  5  6  1  0
  5  4  1  0
  6  7  1  0
  8  2  1  0
  8  9  2  0
 10 11  1  0
 12 11  1  6
 12 13  1  0
 13  8  1  0
 14 12  1  0
 15 14  2  0
 17 16  1  0
 18 17  1  0
 18 19  1  1
 20 18  1  0
 20 21  1  6
 21 14  1  0
 22 20  1  0
 23 22  1  0
 24 22  2  0
M  END
$$$$
