KSI.pdb
     RDKit          3D

 24 23  0  0  1  0  0  0  0  0999 V2000
    8.5924  -18.3791   18.7149 N   0  0  0  0  0  0  0  0  0  0  0  0
    9.2824  -18.2499   19.9782 C   0  0  1  0  0  0  0  0  0  0  0  0
   10.5804  -17.5339   19.8066 C   0  0  0  0  0  0  0  0  0  0  0  0
   11.7531  -18.3793   19.4747 C   0  0  0  0  0  0  0  0  0  0  0  0
   13.0535  -17.6733   19.3076 C   0  0  0  0  0  0  0  0  0  0  0  0
   14.1715  -18.5842   18.8620 C   0  0  0  0  0  0  0  0  0  0  0  0
   15.3774  -17.8286   18.5872 N   0  0  0  0  0  0  0  0  0  0  0  0
    8.3689  -17.5428   20.9221 C   0  0  0  0  0  0  0  0  0  0  0  0
    7.5218  -16.7046   20.5229 O   0  0  0  0  0  0  0  0  0  0  0  0
    7.7552  -19.0208   24.7641 O   0  0  0  0  0  0  0  0  0  0  0  0
    6.8342  -18.2337   24.0641 C   0  0  0  0  0  0  0  0  0  0  0  0
    7.5729  -17.1325   23.2912 C   0  0  2  0  0  0  0  0  0  0  0  0
    8.4084  -17.7807   22.3290 N   0  0  0  0  0  0  0  0  0  0  0  0
    8.3969  -16.3184   24.2646 C   0  0  0  0  0  0  0  0  0  0  0  0
    9.6417  -16.4639   24.3061 O   0  0  0  0  0  0  0  0  0  0  0  0
    5.8125  -11.7685   26.0963 C   0  0  0  0  0  0  0  0  0  0  0  0
    6.9322  -12.6677   25.5579 C   0  0  0  0  0  0  0  0  0  0  0  0
    7.4584  -13.5535   26.6528 C   0  0  2  0  0  0  0  0  0  0  0  0
    8.0530  -12.6482   27.7273 C   0  0  0  0  0  0  0  0  0  0  0  0
    8.3616  -14.6091   26.1631 C   0  0  2  0  0  0  0  0  0  0  0  0
    7.7613  -15.4141   25.1061 N   0  0  0  0  0  0  0  0  0  0  0  0
    8.9590  -15.3950   27.2519 C   0  0  0  0  0  0  0  0  0  0  0  0
   10.1261  -14.9766   27.8617 O   0  0  0  0  0  0  0  0  0  0  0  0
    8.4506  -16.4461   27.6666 O   0  0  0  0  0  0  0  0  0  0  0  0
  2  1  1  6
  3  2  1  0
  4  3  1  0
  5  6  1  0
  5  4  1  0
  6  7  1  0
  8  2  1  0
  8  9  2  0
 10 11  1  0
 12 11  1  1
 12 13  1  0
 13  8  1  0
 14 12  1  0
 15 14  2  0
 17 16  1  0
 18 17  1  0
 18 19  1  1
 20 18  1  0
 20 21  1  6
 21 14  1  0
 22 20  1  0
 23 22  1  0
 24 22  2  0
M  END
$$$$
