KSI.pdb
     RDKit          3D

 24 23  0  0  1  0  0  0  0  0999 V2000
    7.0014  -17.7320   19.5527 N   0  0  0  0  0  0  0  0  0  0  0  0
    7.9248  -16.8921   20.2810 C   0  0  1  0  0  0  0  0  0  0  0  0
    7.8871  -15.4901   19.7709 C   0  0  0  0  0  0  0  0  0  0  0  0
    8.2078  -15.3097   18.3340 C   0  0  0  0  0  0  0  0  0  0  0  0
    8.1045  -13.9234   17.8005 C   0  0  0  0  0  0  0  0  0  0  0  0
    8.2773  -13.8481   16.3030 C   0  0  0  0  0  0  0  0  0  0  0  0
    7.9365  -12.5296   15.8074 N   0  0  0  0  0  0  0  0  0  0  0  0
    7.5681  -16.9757   21.7271 C   0  0  0  0  0  0  0  0  0  0  0  0
    6.3915  -16.7978   22.1316 O   0  0  0  0  0  0  0  0  0  0  0  0
   10.1672  -18.7415   24.3771 O   0  0  0  0  0  0  0  0  0  0  0  0
    8.8133  -18.5868   24.6949 C   0  0  0  0  0  0  0  0  0  0  0  0
    8.2973  -17.2535   24.1366 C   0  0  2  0  0  0  0  0  0  0  0  0
    8.5442  -17.2623   22.7284 N   0  0  0  0  0  0  0  0  0  0  0  0
    9.0388  -16.1198   24.8104 C   0  0  0  0  0  0  0  0  0  0  0  0
   10.1184  -15.7029   24.3275 O   0  0  0  0  0  0  0  0  0  0  0  0
    6.2928  -12.0741   26.2021 C   0  0  0  0  0  0  0  0  0  0  0  0
    7.6129  -12.7791   25.8666 C   0  0  0  0  0  0  0  0  0  0  0  0
    8.1882  -13.4178   27.1001 C   0  0  2  0  0  0  0  0  0  0  0  0
    8.7737  -12.3032   27.9616 C   0  0  0  0  0  0  0  0  0  0  0  0
    9.1154  -14.5234   26.8036 C   0  0  2  0  0  0  0  0  0  0  0  0
    8.5121  -15.5505   25.9629 N   0  0  0  0  0  0  0  0  0  0  0  0
    9.7800  -15.0446   28.0065 C   0  0  0  0  0  0  0  0  0  0  0  0
    9.5779  -16.3504   28.4106 O   0  0  0  0  0  0  0  0  0  0  0  0
   10.5400  -14.3510   28.6968 O   0  0  0  0  0  0  0  0  0  0  0  0
  2  1  1  6
  3  2  1  0
  4  3  1  0
  5  6  1  0
  5  4  1  0
  6  7  1  0
  8  2  1  0
  8  9  2  0
 10 11  1  0
 12 11  1  1
 12 13  1  0
 13  8  1  0
 14 12  1  0
 15 14  2  0
 17 16  1  0
 18 17  1  0
 18 19  1  6
 20 18  1  0
 20 21  1  1
 21 14  1  0
 22 20  1  0
 23 22  1  0
 24 22  2  0
M  END
$$$$
