KSI.pdb
     RDKit          3D

 24 23  0  0  1  0  0  0  0  0999 V2000
    7.4412  -16.3777   19.7679 N   0  0  0  0  0  0  0  0  0  0  0  0
    7.7149  -15.1113   20.4083 C   0  0  1  0  0  0  0  0  0  0  0  0
    6.9107  -14.0162   19.7909 C   0  0  0  0  0  0  0  0  0  0  0  0
    7.1072  -13.8028   18.3363 C   0  0  0  0  0  0  0  0  0  0  0  0
    8.5109  -13.8532   17.8423 C   0  0  0  0  0  0  0  0  0  0  0  0
    8.6327  -13.5617   16.3664 C   0  0  0  0  0  0  0  0  0  0  0  0
   10.0079  -13.6841   15.9255 N   0  0  0  0  0  0  0  0  0  0  0  0
    7.4285  -15.2694   21.8637 C   0  0  0  0  0  0  0  0  0  0  0  0
    7.2001  -14.2814   22.6062 O   0  0  0  0  0  0  0  0  0  0  0  0
    8.3997  -18.8294   23.9124 O   0  0  0  0  0  0  0  0  0  0  0  0
    7.1196  -18.2950   24.0957 C   0  0  0  0  0  0  0  0  0  0  0  0
    7.1551  -16.7756   23.8816 C   0  0  2  0  0  0  0  0  0  0  0  0
    7.3986  -16.5515   22.4906 N   0  0  0  0  0  0  0  0  0  0  0  0
    8.2623  -16.1866   24.7280 C   0  0  0  0  0  0  0  0  0  0  0  0
    9.4413  -16.1802   24.3010 O   0  0  0  0  0  0  0  0  0  0  0  0
    6.5863  -11.8901   26.9186 C   0  0  0  0  0  0  0  0  0  0  0  0
    7.6797  -12.7957   26.3383 C   0  0  0  0  0  0  0  0  0  0  0  0
    8.2252  -13.7011   27.4075 C   0  0  2  0  0  0  0  0  0  0  0  0
    9.1328  -12.8599   28.2998 C   0  0  0  0  0  0  0  0  0  0  0  0
    8.8454  -14.9251   26.8718 C   0  0  2  0  0  0  0  0  0  0  0  0
    7.9581  -15.6568   25.9757 N   0  0  0  0  0  0  0  0  0  0  0  0
    9.4606  -15.7541   27.9180 C   0  0  0  0  0  0  0  0  0  0  0  0
    8.9931  -17.0300   28.1688 O   0  0  0  0  0  0  0  0  0  0  0  0
   10.4105  -15.3554   28.6064 O   0  0  0  0  0  0  0  0  0  0  0  0
  2  1  1  6
  3  2  1  0
  4  3  1  0
  5  6  1  0
  5  4  1  0
  6  7  1  0
  8  2  1  0
  8  9  2  0
 10 11  1  0
 12 11  1  6
 12 13  1  0
 13  8  1  0
 14 12  1  0
 15 14  2  0
 17 16  1  0
 18 17  1  0
 18 19  1  6
 20 18  1  0
 20 21  1  1
 21 14  1  0
 22 20  1  0
 23 22  1  0
 24 22  2  0
M  END
$$$$
