KSI.pdb
     RDKit          3D

 24 23  0  0  1  0  0  0  0  0999 V2000
    8.8443  -15.6492   19.5849 N   0  0  0  0  0  0  0  0  0  0  0  0
    8.5157  -14.4213   20.2726 C   0  0  1  0  0  0  0  0  0  0  0  0
    7.5110  -13.6308   19.5027 C   0  0  0  0  0  0  0  0  0  0  0  0
    7.3290  -14.0145   18.0815 C   0  0  0  0  0  0  0  0  0  0  0  0
    8.3460  -13.5038   17.1213 C   0  0  0  0  0  0  0  0  0  0  0  0
    8.0596  -13.8898   15.6906 C   0  0  0  0  0  0  0  0  0  0  0  0
    9.1639  -13.5274   14.8248 N   0  0  0  0  0  0  0  0  0  0  0  0
    8.0252  -14.7829   21.6342 C   0  0  0  0  0  0  0  0  0  0  0  0
    7.5062  -13.9323   22.4001 O   0  0  0  0  0  0  0  0  0  0  0  0
    9.3385  -18.3647   23.4932 O   0  0  0  0  0  0  0  0  0  0  0  0
    7.9826  -18.0258   23.5617 C   0  0  0  0  0  0  0  0  0  0  0  0
    7.8232  -16.5013   23.4839 C   0  0  2  0  0  0  0  0  0  0  0  0
    8.1192  -16.1146   22.1396 N   0  0  0  0  0  0  0  0  0  0  0  0
    8.7850  -15.8571   24.4581 C   0  0  0  0  0  0  0  0  0  0  0  0
    9.9553  -15.5875   24.0973 O   0  0  0  0  0  0  0  0  0  0  0  0
    6.8109  -11.9119   27.1677 C   0  0  0  0  0  0  0  0  0  0  0  0
    7.7600  -12.8825   26.4540 C   0  0  0  0  0  0  0  0  0  0  0  0
    8.3857  -13.8214   27.4477 C   0  0  2  0  0  0  0  0  0  0  0  0
    9.2087  -12.9789   28.4174 C   0  0  0  0  0  0  0  0  0  0  0  0
    9.1189  -14.9321   26.8161 C   0  0  2  0  0  0  0  0  0  0  0  0
    8.3582  -15.5704   25.7486 N   0  0  0  0  0  0  0  0  0  0  0  0
    9.6825  -15.8704   27.7969 C   0  0  0  0  0  0  0  0  0  0  0  0
   10.8904  -15.6023   28.4120 O   0  0  0  0  0  0  0  0  0  0  0  0
    9.1090  -16.9222   28.1132 O   0  0  0  0  0  0  0  0  0  0  0  0
  2  1  1  6
  3  2  1  0
  4  3  1  0
  5  6  1  0
  5  4  1  0
  6  7  1  0
  8  2  1  0
  8  9  2  0
 10 11  1  0
 12 11  1  6
 12 13  1  0
 13  8  1  0
 14 12  1  0
 15 14  2  0
 17 16  1  0
 18 17  1  0
 18 19  1  6
 20 18  1  0
 20 21  1  6
 21 14  1  0
 22 20  1  0
 23 22  1  0
 24 22  2  0
M  END
$$$$
