KSI.pdb
     RDKit          3D

 24 23  0  0  1  0  0  0  0  0999 V2000
    9.0594  -17.9694   19.0835 N   0  0  0  0  0  0  0  0  0  0  0  0
    9.5256  -18.2300   20.4265 C   0  0  1  0  0  0  0  0  0  0  0  0
   10.9751  -17.9017   20.5614 C   0  0  0  0  0  0  0  0  0  0  0  0
   11.8961  -18.6297   19.6549 C   0  0  0  0  0  0  0  0  0  0  0  0
   13.3451  -18.3137   19.7884 C   0  0  0  0  0  0  0  0  0  0  0  0
   14.2138  -19.0899   18.8287 C   0  0  0  0  0  0  0  0  0  0  0  0
   15.5721  -18.5845   18.8342 N   0  0  0  0  0  0  0  0  0  0  0  0
    8.6779  -17.4347   21.3616 C   0  0  0  0  0  0  0  0  0  0  0  0
    8.1792  -16.3302   21.0287 O   0  0  0  0  0  0  0  0  0  0  0  0
    7.6536  -19.0749   25.1079 O   0  0  0  0  0  0  0  0  0  0  0  0
    6.7745  -18.2431   24.4056 C   0  0  0  0  0  0  0  0  0  0  0  0
    7.5694  -17.1872   23.6254 C   0  0  2  0  0  0  0  0  0  0  0  0
    8.3881  -17.8861   22.6844 N   0  0  0  0  0  0  0  0  0  0  0  0
    8.4156  -16.3936   24.5966 C   0  0  0  0  0  0  0  0  0  0  0  0
    9.6368  -16.6509   24.7188 O   0  0  0  0  0  0  0  0  0  0  0  0
    5.7609  -11.8469   26.2335 C   0  0  0  0  0  0  0  0  0  0  0  0
    6.9534  -12.6544   25.7060 C   0  0  0  0  0  0  0  0  0  0  0  0
    7.5701  -13.4561   26.8183 C   0  0  2  0  0  0  0  0  0  0  0  0
    8.2134  -12.4712   27.7897 C   0  0  0  0  0  0  0  0  0  0  0  0
    8.4628  -14.5251   26.3385 C   0  0  2  0  0  0  0  0  0  0  0  0
    7.8264  -15.3832   25.3463 N   0  0  0  0  0  0  0  0  0  0  0  0
    9.1147  -15.2549   27.4352 C   0  0  0  0  0  0  0  0  0  0  0  0
    8.5411  -16.3988   27.9564 O   0  0  0  0  0  0  0  0  0  0  0  0
   10.1894  -14.8864   27.9296 O   0  0  0  0  0  0  0  0  0  0  0  0
  2  1  1  6
  3  2  1  0
  4  3  1  0
  5  6  1  0
  5  4  1  0
  6  7  1  0
  8  2  1  0
  8  9  2  0
 10 11  1  0
 12 11  1  1
 12 13  1  0
 13  8  1  0
 14 12  1  0
 15 14  2  0
 17 16  1  0
 18 17  1  0
 18 19  1  1
 20 18  1  0
 20 21  1  1
 21 14  1  0
 22 20  1  0
 23 22  1  0
 24 22  2  0
M  END
$$$$
