KSI.pdb
     RDKit          3D

 24 23  0  0  1  0  0  0  0  0999 V2000
    6.6086  -20.0399   21.0671 N   0  0  0  0  0  0  0  0  0  0  0  0
    6.4878  -18.7439   21.6951 C   0  0  1  0  0  0  0  0  0  0  0  0
    5.3920  -18.7417   22.7082 C   0  0  0  0  0  0  0  0  0  0  0  0
    4.4399  -19.8772   22.6420 C   0  0  0  0  0  0  0  0  0  0  0  0
    4.7863  -21.0808   23.4473 C   0  0  0  0  0  0  0  0  0  0  0  0
    3.6855  -22.1129   23.4775 C   0  0  0  0  0  0  0  0  0  0  0  0
    4.0983  -23.2897   24.2159 N   0  0  0  0  0  0  0  0  0  0  0  0
    7.8113  -18.4073   22.2954 C   0  0  0  0  0  0  0  0  0  0  0  0
    8.5146  -19.2708   22.8779 O   0  0  0  0  0  0  0  0  0  0  0  0
   10.0605  -15.3787   20.8922 O   0  0  0  0  0  0  0  0  0  0  0  0
   10.5700  -16.3822   21.7236 C   0  0  0  0  0  0  0  0  0  0  0  0
    9.5741  -16.6765   22.8537 C   0  0  2  0  0  0  0  0  0  0  0  0
    8.3494  -17.0863   22.2402 N   0  0  0  0  0  0  0  0  0  0  0  0
    9.3766  -15.4199   23.6730 C   0  0  0  0  0  0  0  0  0  0  0  0
    9.2959  -14.3063   23.1023 O   0  0  0  0  0  0  0  0  0  0  0  0
    6.3324  -11.7723   26.3026 C   0  0  0  0  0  0  0  0  0  0  0  0
    7.6599  -12.4742   26.6147 C   0  0  0  0  0  0  0  0  0  0  0  0
    7.8380  -13.6692   25.7198 C   0  0  2  0  0  0  0  0  0  0  0  0
    6.5466  -14.4795   25.7765 C   0  0  0  0  0  0  0  0  0  0  0  0
    9.0627  -14.4348   26.0093 C   0  0  2  0  0  0  0  0  0  0  0  0
    9.2866  -15.5150   25.0560 N   0  0  0  0  0  0  0  0  0  0  0  0
    9.1551  -14.8465   27.4172 C   0  0  0  0  0  0  0  0  0  0  0  0
    9.2989  -16.1795   27.7513 O   0  0  0  0  0  0  0  0  0  0  0  0
    9.1129  -14.0319   28.3499 O   0  0  0  0  0  0  0  0  0  0  0  0
  2  1  1  1
  3  2  1  0
  4  3  1  0
  5  6  1  0
  5  4  1  0
  6  7  1  0
  8  2  1  0
  8  9  2  0
 10 11  1  0
 12 11  1  6
 12 13  1  0
 13  8  1  0
 14 12  1  0
 15 14  2  0
 17 16  1  0
 18 17  1  0
 18 19  1  1
 20 18  1  0
 20 21  1  6
 21 14  1  0
 22 20  1  0
 23 22  1  0
 24 22  2  0
M  END
$$$$
