REM.pdb
     RDKit          3D

 29 28  0  0  1  0  0  0  0  0999 V2000
   10.1439  -13.5185   19.2030 N   0  0  0  0  0  0  0  0  0  0  0  0
    9.0573  -12.5998   19.2430 C   0  0  0  0  0  0  0  0  0  0  0  0
    9.1839  -11.3293   19.1458 N   0  0  0  0  0  0  0  0  0  0  0  0
    7.7343  -13.1413   19.4033 N   0  0  0  0  0  0  0  0  0  0  0  0
    7.5086  -14.5608   19.3978 C   0  0  0  0  0  0  0  0  0  0  0  0
    6.6065  -14.9526   20.5165 C   0  0  0  0  0  0  0  0  0  0  0  0
    6.3435  -16.4087   20.6670 C   0  0  0  0  0  0  0  0  0  0  0  0
    7.5623  -17.2776   20.5780 C   0  0  2  0  0  0  0  0  0  0  0  0
    7.2113  -18.6746   20.4160 N   0  0  0  0  0  0  0  0  0  0  0  0
    8.4520  -17.1380   21.7437 C   0  0  0  0  0  0  0  0  0  0  0  0
    8.0389  -17.4023   22.9019 O   0  0  0  0  0  0  0  0  0  0  0  0
    8.3832  -10.6779   19.2312 N   0  0  0  0  0  0  0  0  0  0  0  0
    9.7979  -16.7052   21.6197 C   0  0  2  0  0  0  0  0  0  0  0  0
   10.7016  -16.5100   22.7191 C   0  0  0  0  0  0  0  0  0  0  0  0
   12.1106  -16.2929   22.2975 C   0  0  0  0  0  0  0  0  0  0  0  0
   13.1450  -16.1240   23.3294 C   0  0  0  0  0  0  0  0  0  0  0  0
   14.5256  -15.9459   22.9302 O   0  0  0  0  0  0  0  0  0  0  0  0
   14.9453  -15.9220   21.7575 C   0  0  0  0  0  0  0  0  0  0  0  0
   10.2077  -15.6452   23.7996 O   0  0  0  0  0  0  0  0  0  0  0  0
    9.9313  -14.4149   23.5720 O   0  0  0  0  0  0  0  0  0  0  0  0
   15.5579  -15.7764   23.8979 C   0  0  0  0  0  0  0  0  0  0  0  0
    5.6984  -12.3954   26.3990 S   0  0  0  0  0  0  0  0  0  0  0  0
    6.0460  -13.7549   27.5779 C   0  0  0  0  0  0  0  0  0  0  0  0
    7.8343  -14.0677   27.5377 C   0  0  0  0  0  0  0  0  0  0  0  0
    8.2421  -14.8457   26.3155 C   0  0  1  0  0  0  0  0  0  0  0  0
    9.7009  -15.1698   26.2388 N   0  0  0  0  0  0  0  0  0  0  0  0
    9.9994  -16.0704   25.1392 C   0  0  0  0  0  0  0  0  0  0  0  0
   10.1192  -15.8246   27.4910 O   0  0  0  0  0  0  0  0  0  0  0  0
   10.2287  -15.0682   28.6462 O   0  0  0  0  0  0  0  0  0  0  0  0
  2  3  2  0
  2  1  1  0
  4  2  1  0
  5  4  1  0
  6  5  1  0
  7  8  1  0
  7  6  1  0
  8  9  1  1
 10  8  1  0
 10 12  1  0
 11 10  2  0
 13 12  1  0
 13 18  1  0
 13 14  1  6
 15 14  1  0
 15 16  1  0
 16 17  2  0
 18 26  1  0
 19 18  2  0
 20 16  1  0
 21 22  1  0
 22 23  1  0
 23 24  1  0
 25 24  1  6
 25 27  1  0
 26 25  1  0
 27 29  2  0
 27 28  1  0
M  END
$$$$
