REM.pdb
     RDKit          3D

 29 28  0  0  1  0  0  0  0  0999 V2000
    3.4345  -20.9341   20.5088 N   0  0  0  0  0  0  0  0  0  0  0  0
    2.5472  -20.0800   19.7951 C   0  0  0  0  0  0  0  0  0  0  0  0
    1.6741  -20.4899   18.9529 N   0  0  0  0  0  0  0  0  0  0  0  0
    2.6436  -18.6661   20.0412 N   0  0  0  0  0  0  0  0  0  0  0  0
    3.6597  -18.1317   20.9060 C   0  0  0  0  0  0  0  0  0  0  0  0
    4.9731  -18.7801   20.6352 C   0  0  0  0  0  0  0  0  0  0  0  0
    6.1511  -18.1861   21.3216 C   0  0  0  0  0  0  0  0  0  0  0  0
    7.4770  -18.7078   20.8543 C   0  0  2  0  0  0  0  0  0  0  0  0
    7.4134  -20.1212   20.5387 N   0  0  0  0  0  0  0  0  0  0  0  0
    8.5578  -18.4815   21.8292 C   0  0  0  0  0  0  0  0  0  0  0  0
    8.6378  -19.1795   22.8725 O   0  0  0  0  0  0  0  0  0  0  0  0
    1.0964  -19.8445   18.3852 N   0  0  0  0  0  0  0  0  0  0  0  0
    9.5466  -17.4808   21.6426 C   0  0  1  0  0  0  0  0  0  0  0  0
   10.5229  -17.0987   22.6247 C   0  0  0  0  0  0  0  0  0  0  0  0
   11.8849  -16.9027   22.0622 C   0  0  0  0  0  0  0  0  0  0  0  0
   12.9714  -16.4782   22.9581 C   0  0  0  0  0  0  0  0  0  0  0  0
   14.2830  -16.2073   22.4071 O   0  0  0  0  0  0  0  0  0  0  0  0
   14.9583  -16.9954   21.7181 C   0  0  0  0  0  0  0  0  0  0  0  0
   10.0771  -16.1002   23.6063 O   0  0  0  0  0  0  0  0  0  0  0  0
    9.5253  -15.0104   23.2196 O   0  0  0  0  0  0  0  0  0  0  0  0
   14.9304  -14.9563   22.6230 C   0  0  0  0  0  0  0  0  0  0  0  0
    5.6707  -11.7743   27.1089 S   0  0  0  0  0  0  0  0  0  0  0  0
    6.2635  -12.9729   25.8556 C   0  0  0  0  0  0  0  0  0  0  0  0
    7.7059  -13.8255   26.5558 C   0  0  0  0  0  0  0  0  0  0  0  0
    8.3494  -14.7528   25.5602 C   0  0  1  0  0  0  0  0  0  0  0  0
    9.6826  -15.2897   25.9770 N   0  0  0  0  0  0  0  0  0  0  0  0
   10.2095  -16.2406   25.0140 C   0  0  0  0  0  0  0  0  0  0  0  0
    9.5446  -15.9805   27.2714 O   0  0  0  0  0  0  0  0  0  0  0  0
    9.7750  -17.3447   27.3381 O   0  0  0  0  0  0  0  0  0  0  0  0
  2  3  2  0
  2  1  1  0
  4  2  1  0
  5  4  1  0
  6  5  1  0
  7  8  1  0
  7  6  1  0
  8  9  1  1
 10  8  1  0
 10 12  1  0
 11 10  2  0
 13 12  1  0
 13 18  1  0
 13 14  1  1
 15 14  1  0
 15 16  1  0
 16 17  2  0
 18 26  1  0
 19 18  2  0
 20 16  1  0
 21 22  1  0
 22 23  1  0
 23 24  1  0
 25 24  1  6
 25 27  1  0
 26 25  1  0
 27 29  2  0
 27 28  1  0
M  END
$$$$
