REM.pdb
     RDKit          3D

 29 28  0  0  1  0  0  0  0  0999 V2000
    7.1581  -12.8895   16.1783 N   0  0  0  0  0  0  0  0  0  0  0  0
    8.1327  -13.5262   15.3593 C   0  0  0  0  0  0  0  0  0  0  0  0
    8.7367  -12.9577   14.3837 N   0  0  0  0  0  0  0  0  0  0  0  0
    8.4548  -14.8971   15.6526 N   0  0  0  0  0  0  0  0  0  0  0  0
    7.7285  -15.6317   16.6519 C   0  0  0  0  0  0  0  0  0  0  0  0
    7.6664  -14.8630   17.9262 C   0  0  0  0  0  0  0  0  0  0  0  0
    7.7994  -15.6562   19.1772 C   0  0  0  0  0  0  0  0  0  0  0  0
    9.1529  -15.5904   19.8193 C   0  0  2  0  0  0  0  0  0  0  0  0
   10.1409  -16.3303   19.0593 N   0  0  0  0  0  0  0  0  0  0  0  0
    9.1521  -16.0784   21.2092 C   0  0  0  0  0  0  0  0  0  0  0  0
    8.3248  -15.6330   22.0455 O   0  0  0  0  0  0  0  0  0  0  0  0
    9.4383  -13.4449   13.7982 N   0  0  0  0  0  0  0  0  0  0  0  0
   10.0700  -17.0594   21.6663 C   0  0  2  0  0  0  0  0  0  0  0  0
   10.1829  -17.5070   23.0267 C   0  0  0  0  0  0  0  0  0  0  0  0
   11.2014  -18.5728   23.2180 C   0  0  0  0  0  0  0  0  0  0  0  0
   12.3506  -18.6327   22.3020 C   0  0  0  0  0  0  0  0  0  0  0  0
   13.4193  -19.5746   22.5622 O   0  0  0  0  0  0  0  0  0  0  0  0
   13.4752  -20.3617   23.5262 C   0  0  0  0  0  0  0  0  0  0  0  0
   10.1519  -16.4493   24.0463 O   0  0  0  0  0  0  0  0  0  0  0  0
   11.0554  -15.5410   24.0678 O   0  0  0  0  0  0  0  0  0  0  0  0
   14.5424  -19.6759   21.6908 C   0  0  0  0  0  0  0  0  0  0  0  0
    6.8791  -10.8658   26.2834 S   0  0  0  0  0  0  0  0  0  0  0  0
    6.2881  -12.4645   26.9572 C   0  0  0  0  0  0  0  0  0  0  0  0
    7.7418  -13.5263   27.1961 C   0  0  0  0  0  0  0  0  0  0  0  0
    7.8273  -14.6064   26.1514 C   0  0  1  0  0  0  0  0  0  0  0  0
    9.1530  -15.2960   26.0723 N   0  0  0  0  0  0  0  0  0  0  0  0
    9.1630  -16.3377   25.0604 C   0  0  0  0  0  0  0  0  0  0  0  0
    9.4536  -15.9206   27.3728 O   0  0  0  0  0  0  0  0  0  0  0  0
    9.6961  -15.1126   28.4715 O   0  0  0  0  0  0  0  0  0  0  0  0
  2  3  2  0
  2  1  1  0
  4  2  1  0
  5  4  1  0
  6  5  1  0
  7  8  1  0
  7  6  1  0
  8  9  1  6
 10  8  1  0
 10 12  1  0
 11 10  2  0
 13 12  1  0
 13 18  1  0
 13 14  1  6
 15 14  1  0
 15 16  1  0
 16 17  2  0
 18 26  1  0
 19 18  2  0
 20 16  1  0
 21 22  1  0
 22 23  1  0
 23 24  1  0
 25 24  1  6
 25 27  1  0
 26 25  1  0
 27 29  2  0
 27 28  1  0
M  END
$$$$
