REM.pdb
     RDKit          3D

 29 28  0  0  1  0  0  0  0  0999 V2000
    6.7971  -13.6527   15.6615 N   0  0  0  0  0  0  0  0  0  0  0  0
    8.1963  -13.9029   15.5858 C   0  0  0  0  0  0  0  0  0  0  0  0
    8.8393  -14.0756   14.4920 N   0  0  0  0  0  0  0  0  0  0  0  0
    8.9287  -13.9644   16.8223 N   0  0  0  0  0  0  0  0  0  0  0  0
    8.4438  -14.7364   17.9335 C   0  0  0  0  0  0  0  0  0  0  0  0
    7.6040  -13.8943   18.8304 C   0  0  0  0  0  0  0  0  0  0  0  0
    7.7021  -14.1869   20.2853 C   0  0  0  0  0  0  0  0  0  0  0  0
    9.0842  -14.5134   20.7665 C   0  0  2  0  0  0  0  0  0  0  0  0
    9.7578  -15.4333   19.8713 N   0  0  0  0  0  0  0  0  0  0  0  0
    9.0995  -15.0719   22.1295 C   0  0  0  0  0  0  0  0  0  0  0  0
    8.4334  -14.5342   23.0510 O   0  0  0  0  0  0  0  0  0  0  0  0
    9.8555  -14.2731   14.4641 N   0  0  0  0  0  0  0  0  0  0  0  0
    9.8544  -16.2257   22.4651 C   0  0  1  0  0  0  0  0  0  0  0  0
    9.8291  -16.8796   23.7439 C   0  0  0  0  0  0  0  0  0  0  0  0
   10.4147  -18.2458   23.7234 C   0  0  0  0  0  0  0  0  0  0  0  0
   10.4592  -19.0207   24.9727 C   0  0  0  0  0  0  0  0  0  0  0  0
   11.0432  -20.3459   24.9675 O   0  0  0  0  0  0  0  0  0  0  0  0
   12.2289  -20.6160   24.6975 C   0  0  0  0  0  0  0  0  0  0  0  0
   10.1883  -16.0375   24.8933 O   0  0  0  0  0  0  0  0  0  0  0  0
   11.3580  -15.5218   24.9805 O   0  0  0  0  0  0  0  0  0  0  0  0
   10.2656  -21.4966   25.2869 C   0  0  0  0  0  0  0  0  0  0  0  0
    5.9676  -11.7440   26.8846 S   0  0  0  0  0  0  0  0  0  0  0  0
    7.6564  -11.8790   26.1855 C   0  0  0  0  0  0  0  0  0  0  0  0
    8.7229  -12.5927   27.4702 C   0  0  0  0  0  0  0  0  0  0  0  0
    8.5334  -14.0805   27.5962 C   0  0  2  0  0  0  0  0  0  0  0  0
    9.6838  -14.9011   27.1039 N   0  0  0  0  0  0  0  0  0  0  0  0
    9.3135  -15.7290   25.9696 C   0  0  0  0  0  0  0  0  0  0  0  0
   10.1445  -15.7895   28.1858 O   0  0  0  0  0  0  0  0  0  0  0  0
   10.7747  -15.2401   29.2902 O   0  0  0  0  0  0  0  0  0  0  0  0
  2  3  2  0
  2  1  1  0
  4  2  1  0
  5  4  1  0
  6  5  1  0
  7  8  1  0
  7  6  1  0
  8  9  1  6
 10  8  1  0
 10 12  1  0
 11 10  2  0
 13 12  1  0
 13 18  1  0
 13 14  1  6
 15 14  1  0
 15 16  1  0
 16 17  2  0
 18 26  1  0
 19 18  2  0
 20 16  1  0
 21 22  1  0
 22 23  1  0
 23 24  1  0
 25 24  1  6
 25 27  1  0
 26 25  1  0
 27 29  2  0
 27 28  1  0
M  END
$$$$
