REM.pdb
     RDKit          3D

 29 28  0  0  1  0  0  0  0  0999 V2000
    7.4689  -13.0567   15.7964 N   0  0  0  0  0  0  0  0  0  0  0  0
    8.5731  -13.7682   16.3449 C   0  0  0  0  0  0  0  0  0  0  0  0
    9.2570  -14.6415   15.7051 N   0  0  0  0  0  0  0  0  0  0  0  0
    8.9381  -13.4825   17.7065 N   0  0  0  0  0  0  0  0  0  0  0  0
    8.0314  -12.8016   18.5898 C   0  0  0  0  0  0  0  0  0  0  0  0
    6.9405  -13.7163   19.0283 C   0  0  0  0  0  0  0  0  0  0  0  0
    7.2138  -14.5259   20.2456 C   0  0  0  0  0  0  0  0  0  0  0  0
    8.2287  -15.6138   20.0591 C   0  0  2  0  0  0  0  0  0  0  0  0
    7.7341  -16.6618   19.1883 N   0  0  0  0  0  0  0  0  0  0  0  0
    8.6665  -16.2133   21.3314 C   0  0  0  0  0  0  0  0  0  0  0  0
    7.8369  -16.4589   22.2444 O   0  0  0  0  0  0  0  0  0  0  0  0
   10.0449  -15.1600   16.1329 N   0  0  0  0  0  0  0  0  0  0  0  0
   10.0243  -16.5383   21.5861 C   0  0  1  0  0  0  0  0  0  0  0  0
   10.5243  -17.0593   22.8280 C   0  0  0  0  0  0  0  0  0  0  0  0
   11.7804  -17.8406   22.6807 C   0  0  0  0  0  0  0  0  0  0  0  0
   12.3511  -18.5018   23.8641 C   0  0  0  0  0  0  0  0  0  0  0  0
   13.7527  -18.8657   23.8690 O   0  0  0  0  0  0  0  0  0  0  0  0
   14.7000  -18.1113   23.5768 C   0  0  0  0  0  0  0  0  0  0  0  0
   10.4639  -16.1385   23.9715 O   0  0  0  0  0  0  0  0  0  0  0  0
   10.5347  -14.8720   23.7903 O   0  0  0  0  0  0  0  0  0  0  0  0
   14.1730  -20.1797   24.2265 C   0  0  0  0  0  0  0  0  0  0  0  0
    7.1128  -11.7775   25.8282 S   0  0  0  0  0  0  0  0  0  0  0  0
    6.5997  -13.2438   26.8007 C   0  0  0  0  0  0  0  0  0  0  0  0
    8.1063  -14.1459   27.2630 C   0  0  0  0  0  0  0  0  0  0  0  0
    8.6666  -14.9339   26.1096 C   0  0  1  0  0  0  0  0  0  0  0  0
    9.9446  -15.6535   26.4062 N   0  0  0  0  0  0  0  0  0  0  0  0
   10.3282  -16.5454   25.3261 C   0  0  0  0  0  0  0  0  0  0  0  0
    9.7744  -16.4620   27.6266 O   0  0  0  0  0  0  0  0  0  0  0  0
   10.0774  -15.9022   28.8568 O   0  0  0  0  0  0  0  0  0  0  0  0
  2  3  2  0
  2  1  1  0
  4  2  1  0
  5  4  1  0
  6  5  1  0
  7  8  1  0
  7  6  1  0
  8  9  1  6
 10  8  1  0
 10 12  1  0
 11 10  2  0
 13 12  1  0
 13 18  1  0
 13 14  1  6
 15 14  1  0
 15 16  1  0
 16 17  2  0
 18 26  1  0
 19 18  2  0
 20 16  1  0
 21 22  1  0
 22 23  1  0
 23 24  1  0
 25 24  1  6
 25 27  1  0
 26 25  1  0
 27 29  2  0
 27 28  1  0
M  END
$$$$
