REM.pdb
     RDKit          3D

 29 28  0  0  1  0  0  0  0  0999 V2000
    9.3433  -13.1695   17.6101 N   0  0  0  0  0  0  0  0  0  0  0  0
    8.7124  -12.7837   18.8264 C   0  0  0  0  0  0  0  0  0  0  0  0
    9.2756  -12.0859   19.7405 N   0  0  0  0  0  0  0  0  0  0  0  0
    7.3542  -13.2089   19.0350 N   0  0  0  0  0  0  0  0  0  0  0  0
    6.8719  -14.4460   18.4846 C   0  0  0  0  0  0  0  0  0  0  0  0
    6.1100  -15.2138   19.5087 C   0  0  0  0  0  0  0  0  0  0  0  0
    6.8451  -15.5491   20.7573 C   0  0  0  0  0  0  0  0  0  0  0  0
    7.5455  -16.8748   20.7348 C   0  0  2  0  0  0  0  0  0  0  0  0
    6.6035  -17.9754   20.6838 N   0  0  0  0  0  0  0  0  0  0  0  0
    8.4465  -17.0666   21.8842 C   0  0  0  0  0  0  0  0  0  0  0  0
    7.9901  -17.3907   23.0106 O   0  0  0  0  0  0  0  0  0  0  0  0
    8.7928  -11.8133   20.6153 N   0  0  0  0  0  0  0  0  0  0  0  0
    9.8517  -16.8978   21.7795 C   0  0  2  0  0  0  0  0  0  0  0  0
   10.7508  -16.7918   22.8948 C   0  0  0  0  0  0  0  0  0  0  0  0
   12.1832  -16.7459   22.4997 C   0  0  0  0  0  0  0  0  0  0  0  0
   13.2109  -16.6973   23.5508 C   0  0  0  0  0  0  0  0  0  0  0  0
   14.6061  -16.5930   23.1772 O   0  0  0  0  0  0  0  0  0  0  0  0
   15.5127  -17.3710   23.5304 C   0  0  0  0  0  0  0  0  0  0  0  0
   10.3401  -15.8591   23.9534 O   0  0  0  0  0  0  0  0  0  0  0  0
   10.2143  -14.6086   23.7045 O   0  0  0  0  0  0  0  0  0  0  0  0
   15.0683  -15.5400   22.3356 C   0  0  0  0  0  0  0  0  0  0  0  0
    6.6880  -11.8301   25.8802 S   0  0  0  0  0  0  0  0  0  0  0  0
    6.2933  -13.1532   27.0855 C   0  0  0  0  0  0  0  0  0  0  0  0
    7.8389  -14.0310   27.4571 C   0  0  0  0  0  0  0  0  0  0  0  0
    8.2828  -14.8988   26.3103 C   0  0  1  0  0  0  0  0  0  0  0  0
    9.7250  -15.2958   26.3486 N   0  0  0  0  0  0  0  0  0  0  0  0
   10.0568  -16.2370   25.2935 C   0  0  0  0  0  0  0  0  0  0  0  0
   10.0173  -15.9390   27.6419 O   0  0  0  0  0  0  0  0  0  0  0  0
    9.9734  -15.1803   28.8000 O   0  0  0  0  0  0  0  0  0  0  0  0
  2  3  2  0
  2  1  1  0
  4  2  1  0
  5  4  1  0
  6  5  1  0
  7  8  1  0
  7  6  1  0
  8  9  1  1
 10  8  1  0
 10 12  1  0
 11 10  2  0
 13 12  1  0
 13 18  1  0
 13 14  1  6
 15 14  1  0
 15 16  1  0
 16 17  2  0
 18 26  1  0
 19 18  2  0
 20 16  1  0
 21 22  1  0
 22 23  1  0
 23 24  1  0
 25 24  1  6
 25 27  1  0
 26 25  1  0
 27 29  2  0
 27 28  1  0
M  END
$$$$
