REM.pdb
     RDKit          3D

 29 28  0  0  1  0  0  0  0  0999 V2000
    7.4624  -13.3575   16.0016 N   0  0  0  0  0  0  0  0  0  0  0  0
    8.4104  -13.3086   17.0623 C   0  0  0  0  0  0  0  0  0  0  0  0
    8.6038  -12.2867   17.8094 N   0  0  0  0  0  0  0  0  0  0  0  0
    9.1985  -14.4872   17.3047 N   0  0  0  0  0  0  0  0  0  0  0  0
    8.9678  -15.3082   18.4617 C   0  0  0  0  0  0  0  0  0  0  0  0
    7.5118  -15.3892   18.7655 C   0  0  0  0  0  0  0  0  0  0  0  0
    7.1375  -16.1653   19.9777 C   0  0  0  0  0  0  0  0  0  0  0  0
    8.0156  -17.3475   20.2602 C   0  0  2  0  0  0  0  0  0  0  0  0
    7.3543  -18.5946   19.9307 N   0  0  0  0  0  0  0  0  0  0  0  0
    8.4719  -17.4010   21.6598 C   0  0  0  0  0  0  0  0  0  0  0  0
    7.6432  -17.3933   22.6059 O   0  0  0  0  0  0  0  0  0  0  0  0
    9.3271  -12.2626   18.5502 N   0  0  0  0  0  0  0  0  0  0  0  0
    9.8472  -17.4629   22.0045 C   0  0  2  0  0  0  0  0  0  0  0  0
   10.3540  -17.5428   23.3463 C   0  0  0  0  0  0  0  0  0  0  0  0
   11.7690  -17.9925   23.4201 C   0  0  0  0  0  0  0  0  0  0  0  0
   12.1766  -19.1887   22.6676 C   0  0  0  0  0  0  0  0  0  0  0  0
   13.5718  -19.5762   22.6487 O   0  0  0  0  0  0  0  0  0  0  0  0
   14.4287  -19.1659   21.8430 C   0  0  0  0  0  0  0  0  0  0  0  0
    9.9798  -16.4317   24.2322 O   0  0  0  0  0  0  0  0  0  0  0  0
   10.2334  -15.2209   23.8983 O   0  0  0  0  0  0  0  0  0  0  0  0
   14.0938  -20.5018   23.5982 C   0  0  0  0  0  0  0  0  0  0  0  0
    6.6428  -11.3102   27.9588 S   0  0  0  0  0  0  0  0  0  0  0  0
    7.0855  -12.4760   26.6157 C   0  0  0  0  0  0  0  0  0  0  0  0
    7.0528  -14.1515   27.3151 C   0  0  0  0  0  0  0  0  0  0  0  0
    7.5117  -15.1848   26.3217 C   0  0  1  0  0  0  0  0  0  0  0  0
    8.9782  -15.4798   26.3589 N   0  0  0  0  0  0  0  0  0  0  0  0
    9.3314  -16.5862   25.4869 C   0  0  0  0  0  0  0  0  0  0  0  0
    9.3659  -15.8413   27.7341 O   0  0  0  0  0  0  0  0  0  0  0  0
    9.8709  -17.1067   27.9841 O   0  0  0  0  0  0  0  0  0  0  0  0
  2  3  2  0
  2  1  1  0
  4  2  1  0
  5  4  1  0
  6  5  1  0
  7  8  1  0
  7  6  1  0
  8  9  1  1
 10  8  1  0
 10 12  1  0
 11 10  2  0
 13 12  1  0
 13 18  1  0
 13 14  1  6
 15 14  1  0
 15 16  1  0
 16 17  2  0
 18 26  1  0
 19 18  2  0
 20 16  1  0
 21 22  1  0
 22 23  1  0
 23 24  1  0
 25 24  1  6
 25 27  1  0
 26 25  1  0
 27 29  2  0
 27 28  1  0
M  END
$$$$
