REM.pdb
     RDKit          3D

 29 28  0  0  1  0  0  0  0  0999 V2000
    8.6260  -13.1101   14.5842 N   0  0  0  0  0  0  0  0  0  0  0  0
    7.5438  -14.0273   14.7024 C   0  0  0  0  0  0  0  0  0  0  0  0
    7.1858  -14.8419   13.7816 N   0  0  0  0  0  0  0  0  0  0  0  0
    6.8095  -14.0335   15.9392 N   0  0  0  0  0  0  0  0  0  0  0  0
    7.1873  -13.1770   17.0299 C   0  0  0  0  0  0  0  0  0  0  0  0
    8.3813  -13.7213   17.7348 C   0  0  0  0  0  0  0  0  0  0  0  0
    8.1425  -14.2817   19.0915 C   0  0  0  0  0  0  0  0  0  0  0  0
    9.3015  -14.1548   20.0344 C   0  0  2  0  0  0  0  0  0  0  0  0
   10.5592  -14.4504   19.3772 N   0  0  0  0  0  0  0  0  0  0  0  0
    9.1684  -15.0122   21.2248 C   0  0  0  0  0  0  0  0  0  0  0  0
    8.1462  -14.9435   21.9545 O   0  0  0  0  0  0  0  0  0  0  0  0
    6.3641  -15.4656   13.8731 N   0  0  0  0  0  0  0  0  0  0  0  0
   10.1710  -15.9434   21.6014 C   0  0  1  0  0  0  0  0  0  0  0  0
   10.0983  -16.8098   22.7449 C   0  0  0  0  0  0  0  0  0  0  0  0
   10.8328  -18.0900   22.5669 C   0  0  0  0  0  0  0  0  0  0  0  0
   10.5055  -18.9450   21.4158 C   0  0  0  0  0  0  0  0  0  0  0  0
   11.4994  -19.8693   20.9108 O   0  0  0  0  0  0  0  0  0  0  0  0
   12.5250  -20.2351   21.5159 C   0  0  0  0  0  0  0  0  0  0  0  0
   10.2503  -16.1512   24.0496 O   0  0  0  0  0  0  0  0  0  0  0  0
   11.2321  -15.3568   24.2659 O   0  0  0  0  0  0  0  0  0  0  0  0
   11.3712  -20.4583   19.6194 C   0  0  0  0  0  0  0  0  0  0  0  0
    6.3903  -11.9221   25.8878 S   0  0  0  0  0  0  0  0  0  0  0  0
    7.5613  -12.3223   27.2396 C   0  0  0  0  0  0  0  0  0  0  0  0
    8.8219  -13.4369   26.5568 C   0  0  0  0  0  0  0  0  0  0  0  0
    8.5756  -14.8700   26.9451 C   0  0  2  0  0  0  0  0  0  0  0  0
    9.6270  -15.8313   26.4872 N   0  0  0  0  0  0  0  0  0  0  0  0
    9.3642  -16.3247   25.1468 C   0  0  0  0  0  0  0  0  0  0  0  0
    9.6586  -16.9874   27.4006 O   0  0  0  0  0  0  0  0  0  0  0  0
   10.2178  -16.8401   28.6593 O   0  0  0  0  0  0  0  0  0  0  0  0
  2  3  2  0
  2  1  1  0
  4  2  1  0
  5  4  1  0
  6  5  1  0
  7  8  1  0
  7  6  1  0
  8  9  1  6
 10  8  1  0
 10 12  1  0
 11 10  2  0
 13 12  1  0
 13 18  1  0
 13 14  1  1
 15 14  1  0
 15 16  1  0
 16 17  2  0
 18 26  1  0
 19 18  2  0
 20 16  1  0
 21 22  1  0
 22 23  1  0
 23 24  1  0
 25 24  1  6
 25 27  1  0
 26 25  1  0
 27 29  2  0
 27 28  1  0
M  END
$$$$
