REM.pdb
     RDKit          3D

 29 28  0  0  1  0  0  0  0  0999 V2000
    8.6208  -13.8836   18.5726 N   0  0  0  0  0  0  0  0  0  0  0  0
    8.4534  -12.7341   19.3953 C   0  0  0  0  0  0  0  0  0  0  0  0
    9.2390  -11.7229   19.3891 N   0  0  0  0  0  0  0  0  0  0  0  0
    7.3264  -12.7144   20.2890 N   0  0  0  0  0  0  0  0  0  0  0  0
    6.6981  -13.9344   20.7167 C   0  0  0  0  0  0  0  0  0  0  0  0
    7.6966  -15.0363   20.8027 C   0  0  0  0  0  0  0  0  0  0  0  0
    7.1737  -16.3630   21.2252 C   0  0  0  0  0  0  0  0  0  0  0  0
    8.1913  -17.4642   21.2310 C   0  0  2  0  0  0  0  0  0  0  0  0
    7.6448  -18.6991   20.7040 N   0  0  0  0  0  0  0  0  0  0  0  0
    8.7518  -17.7196   22.5691 C   0  0  0  0  0  0  0  0  0  0  0  0
    8.0256  -18.1632   23.4953 O   0  0  0  0  0  0  0  0  0  0  0  0
    9.1370  -10.9296   20.0471 N   0  0  0  0  0  0  0  0  0  0  0  0
   10.1171  -17.4816   22.8747 C   0  0  2  0  0  0  0  0  0  0  0  0
   10.6852  -17.5403   24.1928 C   0  0  0  0  0  0  0  0  0  0  0  0
   11.9640  -18.2959   24.2546 C   0  0  0  0  0  0  0  0  0  0  0  0
   12.6163  -18.4869   25.5589 C   0  0  0  0  0  0  0  0  0  0  0  0
   13.9159  -19.1231   25.6179 O   0  0  0  0  0  0  0  0  0  0  0  0
   14.6225  -19.4241   24.6370 C   0  0  0  0  0  0  0  0  0  0  0  0
   10.6340  -16.2887   24.9611 O   0  0  0  0  0  0  0  0  0  0  0  0
   11.2692  -15.2519   24.5570 O   0  0  0  0  0  0  0  0  0  0  0  0
   14.5126  -19.4690   26.8649 C   0  0  0  0  0  0  0  0  0  0  0  0
    7.1399  -11.9315   25.1546 S   0  0  0  0  0  0  0  0  0  0  0  0
    7.3855  -11.6417   26.9476 C   0  0  0  0  0  0  0  0  0  0  0  0
    8.6959  -12.7673   27.5074 C   0  0  0  0  0  0  0  0  0  0  0  0
    8.7917  -13.9944   26.6412 C   0  0  1  0  0  0  0  0  0  0  0  0
    9.9364  -14.9014   26.9665 N   0  0  0  0  0  0  0  0  0  0  0  0
    9.9091  -16.1162   26.1709 C   0  0  0  0  0  0  0  0  0  0  0  0
    9.8630  -15.2852   28.3875 O   0  0  0  0  0  0  0  0  0  0  0  0
    9.7109  -16.6211   28.7205 O   0  0  0  0  0  0  0  0  0  0  0  0
  2  3  2  0
  2  1  1  0
  4  2  1  0
  5  4  1  0
  6  5  1  0
  7  8  1  0
  7  6  1  0
  8  9  1  1
 10  8  1  0
 10 12  1  0
 11 10  2  0
 13 12  1  0
 13 18  1  0
 13 14  1  6
 15 14  1  0
 15 16  1  0
 16 17  2  0
 18 26  1  0
 19 18  2  0
 20 16  1  0
 21 22  1  0
 22 23  1  0
 23 24  1  0
 25 24  1  6
 25 27  1  0
 26 25  1  0
 27 29  2  0
 27 28  1  0
M  END
$$$$
