REM.pdb
     RDKit          3D

 29 28  0  0  1  0  0  0  0  0999 V2000
    8.6377  -11.9810   19.4830 N   0  0  0  0  0  0  0  0  0  0  0  0
    8.7567  -12.9702   18.4663 C   0  0  0  0  0  0  0  0  0  0  0  0
    9.2858  -12.7638   17.3186 N   0  0  0  0  0  0  0  0  0  0  0  0
    8.2473  -14.2842   18.7541 N   0  0  0  0  0  0  0  0  0  0  0  0
    7.2894  -14.4942   19.8050 C   0  0  0  0  0  0  0  0  0  0  0  0
    6.8557  -15.9187   19.8422 C   0  0  0  0  0  0  0  0  0  0  0  0
    7.8217  -16.9122   19.3023 C   0  0  0  0  0  0  0  0  0  0  0  0
    7.9142  -18.1863   20.0875 C   0  0  2  0  0  0  0  0  0  0  0  0
    6.6501  -18.8956   20.1049 N   0  0  0  0  0  0  0  0  0  0  0  0
    8.3648  -17.9738   21.4737 C   0  0  0  0  0  0  0  0  0  0  0  0
    7.5502  -18.0354   22.4301 O   0  0  0  0  0  0  0  0  0  0  0  0
    9.2897  -13.4761   16.5667 N   0  0  0  0  0  0  0  0  0  0  0  0
    9.7187  -17.6936   21.7938 C   0  0  2  0  0  0  0  0  0  0  0  0
   10.2364  -17.5622   23.1273 C   0  0  0  0  0  0  0  0  0  0  0  0
   11.7121  -17.7225   23.2093 C   0  0  0  0  0  0  0  0  0  0  0  0
   12.5744  -16.6139   22.7724 C   0  0  0  0  0  0  0  0  0  0  0  0
   13.8806  -16.9044   22.2188 O   0  0  0  0  0  0  0  0  0  0  0  0
   14.3001  -16.5244   21.1091 C   0  0  0  0  0  0  0  0  0  0  0  0
    9.6569  -16.4746   23.9277 O   0  0  0  0  0  0  0  0  0  0  0  0
    9.6249  -15.2779   23.4710 O   0  0  0  0  0  0  0  0  0  0  0  0
   14.8305  -17.6856   22.9389 C   0  0  0  0  0  0  0  0  0  0  0  0
    6.5233  -11.6224   27.9377 S   0  0  0  0  0  0  0  0  0  0  0  0
    7.0628  -12.8164   26.6562 C   0  0  0  0  0  0  0  0  0  0  0  0
    6.7473  -14.4854   27.2986 C   0  0  0  0  0  0  0  0  0  0  0  0
    7.2241  -15.5526   26.3506 C   0  0  1  0  0  0  0  0  0  0  0  0
    8.6954  -15.5348   26.0782 N   0  0  0  0  0  0  0  0  0  0  0  0
    9.1026  -16.6379   25.2257 C   0  0  0  0  0  0  0  0  0  0  0  0
    9.4264  -15.6495   27.3527 O   0  0  0  0  0  0  0  0  0  0  0  0
    9.4803  -14.5570   28.2024 O   0  0  0  0  0  0  0  0  0  0  0  0
  2  3  2  0
  2  1  1  0
  4  2  1  0
  5  4  1  0
  6  5  1  0
  7  8  1  0
  7  6  1  0
  8  9  1  1
 10  8  1  0
 10 12  1  0
 11 10  2  0
 13 12  1  0
 13 18  1  0
 13 14  1  6
 15 14  1  0
 15 16  1  0
 16 17  2  0
 18 26  1  0
 19 18  2  0
 20 16  1  0
 21 22  1  0
 22 23  1  0
 23 24  1  0
 25 24  1  6
 25 27  1  0
 26 25  1  0
 27 29  2  0
 27 28  1  0
M  END
$$$$
