REM.pdb
     RDKit          3D

 29 28  0  0  1  0  0  0  0  0999 V2000
    7.7150  -12.5866   14.4055 N   0  0  0  0  0  0  0  0  0  0  0  0
    7.0801  -13.8472   14.2213 C   0  0  0  0  0  0  0  0  0  0  0  0
    6.0603  -14.0375   13.4706 N   0  0  0  0  0  0  0  0  0  0  0  0
    7.6251  -14.9757   14.9273 N   0  0  0  0  0  0  0  0  0  0  0  0
    8.7597  -14.8283   15.7974 C   0  0  0  0  0  0  0  0  0  0  0  0
    8.3948  -15.1777   17.1987 C   0  0  0  0  0  0  0  0  0  0  0  0
    8.3828  -14.0536   18.1725 C   0  0  0  0  0  0  0  0  0  0  0  0
    9.4682  -14.1086   19.2056 C   0  0  2  0  0  0  0  0  0  0  0  0
   10.6949  -14.6576   18.6624 N   0  0  0  0  0  0  0  0  0  0  0  0
    9.0840  -14.8805   20.3999 C   0  0  0  0  0  0  0  0  0  0  0  0
    8.0359  -14.5997   21.0360 O   0  0  0  0  0  0  0  0  0  0  0  0
    5.6345  -14.9710   13.3294 N   0  0  0  0  0  0  0  0  0  0  0  0
    9.8650  -15.9619   20.8843 C   0  0  1  0  0  0  0  0  0  0  0  0
    9.6118  -16.6744   22.1058 C   0  0  0  0  0  0  0  0  0  0  0  0
   10.2337  -18.0241   22.1451 C   0  0  0  0  0  0  0  0  0  0  0  0
    9.7225  -19.0705   21.2468 C   0  0  0  0  0  0  0  0  0  0  0  0
   10.3024  -20.3965   21.2966 O   0  0  0  0  0  0  0  0  0  0  0  0
   11.2601  -20.7439   22.0136 C   0  0  0  0  0  0  0  0  0  0  0  0
    9.7129  -15.8779   23.3365 O   0  0  0  0  0  0  0  0  0  0  0  0
   10.8209  -15.3227   23.6618 O   0  0  0  0  0  0  0  0  0  0  0  0
    9.7949  -21.4550   20.4887 C   0  0  0  0  0  0  0  0  0  0  0  0
    6.6410  -11.0164   25.5564 S   0  0  0  0  0  0  0  0  0  0  0  0
    6.3300  -12.0035   27.0690 C   0  0  0  0  0  0  0  0  0  0  0  0
    7.5147  -13.3797   27.0751 C   0  0  0  0  0  0  0  0  0  0  0  0
    7.4880  -14.1508   25.7829 C   0  0  1  0  0  0  0  0  0  0  0  0
    8.7570  -14.8757   25.4612 N   0  0  0  0  0  0  0  0  0  0  0  0
    8.6411  -15.6577   24.2429 C   0  0  0  0  0  0  0  0  0  0  0  0
    9.0833  -15.7963   26.5648 O   0  0  0  0  0  0  0  0  0  0  0  0
    9.5628  -15.2799   27.7573 O   0  0  0  0  0  0  0  0  0  0  0  0
  2  3  2  0
  2  1  1  0
  4  2  1  0
  5  4  1  0
  6  5  1  0
  7  8  1  0
  7  6  1  0
  8  9  1  6
 10  8  1  0
 10 12  1  0
 11 10  2  0
 13 12  1  0
 13 18  1  0
 13 14  1  1
 15 14  1  0
 15 16  1  0
 16 17  2  0
 18 26  1  0
 19 18  2  0
 20 16  1  0
 21 22  1  0
 22 23  1  0
 23 24  1  0
 25 24  1  6
 25 27  1  0
 26 25  1  0
 27 29  2  0
 27 28  1  0
M  END
$$$$
