REM.pdb
     RDKit          3D

 29 28  0  0  1  0  0  0  0  0999 V2000
    9.5900  -14.1584   17.0364 N   0  0  0  0  0  0  0  0  0  0  0  0
    8.3194  -13.6012   16.7182 C   0  0  0  0  0  0  0  0  0  0  0  0
    7.7765  -13.6599   15.5600 N   0  0  0  0  0  0  0  0  0  0  0  0
    7.6050  -12.9303   17.7711 N   0  0  0  0  0  0  0  0  0  0  0  0
    7.9305  -13.1613   19.1519 C   0  0  0  0  0  0  0  0  0  0  0  0
    8.0756  -14.6194   19.4196 C   0  0  0  0  0  0  0  0  0  0  0  0
    8.2169  -15.0128   20.8469 C   0  0  0  0  0  0  0  0  0  0  0  0
    8.2691  -16.4920   21.0865 C   0  0  2  0  0  0  0  0  0  0  0  0
    7.0243  -17.1369   20.7180 N   0  0  0  0  0  0  0  0  0  0  0  0
    8.5932  -16.8355   22.4818 C   0  0  0  0  0  0  0  0  0  0  0  0
    7.6795  -17.0646   23.3154 O   0  0  0  0  0  0  0  0  0  0  0  0
    6.8724  -13.2046   15.3408 N   0  0  0  0  0  0  0  0  0  0  0  0
    9.9309  -16.9235   22.9474 C   0  0  1  0  0  0  0  0  0  0  0  0
   10.3108  -17.1883   24.3072 C   0  0  0  0  0  0  0  0  0  0  0  0
   11.3234  -18.2685   24.4407 C   0  0  0  0  0  0  0  0  0  0  0  0
   11.0721  -19.5647   23.7926 C   0  0  0  0  0  0  0  0  0  0  0  0
   12.0445  -20.6290   23.9297 O   0  0  0  0  0  0  0  0  0  0  0  0
   12.1091  -21.4363   24.8762 C   0  0  0  0  0  0  0  0  0  0  0  0
   10.5129  -16.0025   25.1511 O   0  0  0  0  0  0  0  0  0  0  0  0
   11.4720  -15.1883   24.9085 O   0  0  0  0  0  0  0  0  0  0  0  0
   13.0496  -20.8423   22.9423 C   0  0  0  0  0  0  0  0  0  0  0  0
    5.9170  -12.9732   27.9585 S   0  0  0  0  0  0  0  0  0  0  0  0
    6.7464  -12.0876   26.5849 C   0  0  0  0  0  0  0  0  0  0  0  0
    8.3064  -12.9518   26.2422 C   0  0  0  0  0  0  0  0  0  0  0  0
    8.8013  -13.7159   27.4407 C   0  0  2  0  0  0  0  0  0  0  0  0
    9.9995  -14.5745   27.1834 N   0  0  0  0  0  0  0  0  0  0  0  0
    9.7017  -15.6608   26.2665 C   0  0  0  0  0  0  0  0  0  0  0  0
   10.4568  -15.1633   28.4547 O   0  0  0  0  0  0  0  0  0  0  0  0
   11.0318  -14.3435   29.4118 O   0  0  0  0  0  0  0  0  0  0  0  0
  2  3  2  0
  2  1  1  0
  4  2  1  0
  5  4  1  0
  6  5  1  0
  7  8  1  0
  7  6  1  0
  8  9  1  1
 10  8  1  0
 10 12  1  0
 11 10  2  0
 13 12  1  0
 13 18  1  0
 13 14  1  1
 15 14  1  0
 15 16  1  0
 16 17  2  0
 18 26  1  0
 19 18  2  0
 20 16  1  0
 21 22  1  0
 22 23  1  0
 23 24  1  0
 25 24  1  6
 25 27  1  0
 26 25  1  0
 27 29  2  0
 27 28  1  0
M  END
$$$$
