REM.pdb
     RDKit          3D

 29 28  0  0  1  0  0  0  0  0999 V2000
    7.4196  -13.6419   15.1880 N   0  0  0  0  0  0  0  0  0  0  0  0
    8.2229  -13.7976   16.3528 C   0  0  0  0  0  0  0  0  0  0  0  0
    9.4238  -14.2419   16.3457 N   0  0  0  0  0  0  0  0  0  0  0  0
    7.6411  -13.4300   17.6158 N   0  0  0  0  0  0  0  0  0  0  0  0
    8.3933  -13.5320   18.8363 C   0  0  0  0  0  0  0  0  0  0  0  0
    8.6202  -14.9599   19.1946 C   0  0  0  0  0  0  0  0  0  0  0  0
    8.1348  -15.3843   20.5349 C   0  0  0  0  0  0  0  0  0  0  0  0
    8.3865  -16.8253   20.8646 C   0  0  2  0  0  0  0  0  0  0  0  0
    7.2850  -17.6692   20.4454 N   0  0  0  0  0  0  0  0  0  0  0  0
    8.6444  -17.0487   22.2976 C   0  0  0  0  0  0  0  0  0  0  0  0
    7.7011  -17.0347   23.1294 O   0  0  0  0  0  0  0  0  0  0  0  0
    9.9652  -14.4084   17.2128 N   0  0  0  0  0  0  0  0  0  0  0  0
    9.9491  -17.2870   22.8025 C   0  0  2  0  0  0  0  0  0  0  0  0
   10.2725  -17.4596   24.1915 C   0  0  0  0  0  0  0  0  0  0  0  0
   11.4037  -18.3954   24.4254 C   0  0  0  0  0  0  0  0  0  0  0  0
   11.8643  -18.6261   25.8030 C   0  0  0  0  0  0  0  0  0  0  0  0
   13.0256  -19.4596   26.0347 O   0  0  0  0  0  0  0  0  0  0  0  0
   14.1686  -19.2542   25.5839 C   0  0  0  0  0  0  0  0  0  0  0  0
   10.2683  -16.2327   25.0002 O   0  0  0  0  0  0  0  0  0  0  0  0
   10.9998  -15.2341   24.6695 O   0  0  0  0  0  0  0  0  0  0  0  0
   12.9425  -20.6353   26.8357 C   0  0  0  0  0  0  0  0  0  0  0  0
    6.8139  -10.7435   25.0892 S   0  0  0  0  0  0  0  0  0  0  0  0
    6.7745  -12.0929   26.3288 C   0  0  0  0  0  0  0  0  0  0  0  0
    8.3172  -13.0355   26.1579 C   0  0  0  0  0  0  0  0  0  0  0  0
    8.4492  -14.0956   27.2181 C   0  0  2  0  0  0  0  0  0  0  0  0
    9.6757  -14.9451   27.1034 N   0  0  0  0  0  0  0  0  0  0  0  0
    9.4889  -16.0448   26.1733 C   0  0  0  0  0  0  0  0  0  0  0  0
    9.9970  -15.5145   28.4242 O   0  0  0  0  0  0  0  0  0  0  0  0
    9.9681  -16.8890   28.5935 O   0  0  0  0  0  0  0  0  0  0  0  0
  2  3  2  0
  2  1  1  0
  4  2  1  0
  5  4  1  0
  6  5  1  0
  7  8  1  0
  7  6  1  0
  8  9  1  1
 10  8  1  0
 10 12  1  0
 11 10  2  0
 13 12  1  0
 13 18  1  0
 13 14  1  6
 15 14  1  0
 15 16  1  0
 16 17  2  0
 18 26  1  0
 19 18  2  0
 20 16  1  0
 21 22  1  0
 22 23  1  0
 23 24  1  0
 25 24  1  6
 25 27  1  0
 26 25  1  0
 27 29  2  0
 27 28  1  0
M  END
$$$$
