REM.pdb
     RDKit          3D

 29 28  0  0  1  0  0  0  0  0999 V2000
    9.5868  -12.5532   17.7734 N   0  0  0  0  0  0  0  0  0  0  0  0
    8.7762  -12.9071   18.8886 C   0  0  0  0  0  0  0  0  0  0  0  0
    8.2935  -12.0656   19.7245 N   0  0  0  0  0  0  0  0  0  0  0  0
    8.4847  -14.3022   19.0827 N   0  0  0  0  0  0  0  0  0  0  0  0
    7.2108  -14.8525   18.7080 C   0  0  0  0  0  0  0  0  0  0  0  0
    7.1057  -16.2738   19.1411 C   0  0  0  0  0  0  0  0  0  0  0  0
    7.3485  -16.5387   20.5843 C   0  0  0  0  0  0  0  0  0  0  0  0
    8.7948  -16.6282   20.9698 C   0  0  2  0  0  0  0  0  0  0  0  0
    9.4358  -17.7835   20.3732 N   0  0  0  0  0  0  0  0  0  0  0  0
    8.9980  -16.6661   22.4283 C   0  0  0  0  0  0  0  0  0  0  0  0
    8.3047  -15.9461   23.1919 O   0  0  0  0  0  0  0  0  0  0  0  0
    7.6902  -12.3466   20.5180 N   0  0  0  0  0  0  0  0  0  0  0  0
    9.9704  -17.5033   23.0345 C   0  0  2  0  0  0  0  0  0  0  0  0
   10.1675  -17.6399   24.4508 C   0  0  0  0  0  0  0  0  0  0  0  0
   11.1532  -18.6917   24.8140 C   0  0  0  0  0  0  0  0  0  0  0  0
   11.4465  -18.9332   26.2348 C   0  0  0  0  0  0  0  0  0  0  0  0
   12.4745  -19.8867   26.5970 O   0  0  0  0  0  0  0  0  0  0  0  0
   12.3622  -20.7865   27.4511 C   0  0  0  0  0  0  0  0  0  0  0  0
   10.2569  -16.3804   25.2025 O   0  0  0  0  0  0  0  0  0  0  0  0
   11.2169  -15.5603   24.9841 O   0  0  0  0  0  0  0  0  0  0  0  0
   13.7548  -19.8651   25.9715 C   0  0  0  0  0  0  0  0  0  0  0  0
    5.9046  -11.7079   26.4765 S   0  0  0  0  0  0  0  0  0  0  0  0
    6.4505  -12.1266   28.1752 C   0  0  0  0  0  0  0  0  0  0  0  0
    8.0940  -12.8884   28.0476 C   0  0  0  0  0  0  0  0  0  0  0  0
    8.0929  -14.0774   27.1249 C   0  0  1  0  0  0  0  0  0  0  0  0
    9.4299  -14.7214   26.9335 N   0  0  0  0  0  0  0  0  0  0  0  0
    9.3304  -15.9701   26.1985 C   0  0  0  0  0  0  0  0  0  0  0  0
   10.0209  -15.0139   28.2515 O   0  0  0  0  0  0  0  0  0  0  0  0
   10.2191  -16.3326   28.6265 O   0  0  0  0  0  0  0  0  0  0  0  0
  2  3  2  0
  2  1  1  0
  4  2  1  0
  5  4  1  0
  6  5  1  0
  7  8  1  0
  7  6  1  0
  8  9  1  6
 10  8  1  0
 10 12  1  0
 11 10  2  0
 13 12  1  0
 13 18  1  0
 13 14  1  6
 15 14  1  0
 15 16  1  0
 16 17  2  0
 18 26  1  0
 19 18  2  0
 20 16  1  0
 21 22  1  0
 22 23  1  0
 23 24  1  0
 25 24  1  6
 25 27  1  0
 26 25  1  0
 27 29  2  0
 27 28  1  0
M  END
$$$$
