NES.pdb
     RDKit          3D

 24 23  0  0  1  0  0  0  0  0999 V2000
   13.2121  -12.8529  -10.9623 N   0  0  0  0  0  0  0  0  0  0  0  0
   12.5743  -11.5730  -10.8267 C   0  0  0  0  0  0  0  0  0  0  0  0
   11.3403  -11.5609  -10.6028 O   0  0  0  0  0  0  0  0  0  0  0  0
   13.3751  -10.3557  -10.9529 C   0  0  0  0  0  0  0  0  0  0  0  0
   14.8430  -10.5740  -11.1414 C   0  0  2  0  0  0  0  0  0  0  0  0
   15.3904  -11.1782   -9.9213 N   0  0  0  0  0  0  0  0  0  0  0  0
   15.5002   -9.2746  -11.4096 C   0  0  0  0  0  0  0  0  0  0  0  0
   15.3341   -8.6058  -12.4516 O   0  0  0  0  0  0  0  0  0  0  0  0
   16.3938   -8.7081  -10.4385 N   0  0  0  0  0  0  0  0  0  0  0  0
   17.0309   -7.4182  -10.6156 C   0  0  1  0  0  0  0  0  0  0  0  0
   16.9120   -6.5986   -9.3558 C   0  0  0  0  0  0  0  0  0  0  0  0
   15.5842   -5.9013   -9.3544 C   0  0  0  0  0  0  0  0  0  0  0  0
   15.4971   -5.0372   -8.1476 C   0  0  0  0  0  0  0  0  0  0  0  0
   16.4209   -4.9687   -7.3143 O   0  0  0  0  0  0  0  0  0  0  0  0
   18.4413   -7.5712  -11.0595 C   0  0  0  0  0  0  0  0  0  0  0  0
   19.1578   -8.4338  -10.5239 O   0  0  0  0  0  0  0  0  0  0  0  0
   14.3557   -4.2803   -7.9346 O   0  0  0  0  0  0  0  0  0  0  0  0
   21.5530   -7.8147  -14.5468 O   0  0  0  0  0  0  0  0  0  0  0  0
   20.3065   -7.7171  -13.9476 C   0  0  0  0  0  0  0  0  0  0  0  0
   20.3171   -7.0200  -12.6259 C   0  0  2  0  0  0  0  0  0  0  0  0
   19.0161   -6.7682  -12.0791 N   0  0  0  0  0  0  0  0  0  0  0  0
   20.9533   -5.6757  -12.8557 C   0  0  0  0  0  0  0  0  0  0  0  0
   22.3085   -5.4515  -12.6899 O   0  0  0  0  0  0  0  0  0  0  0  0
   20.2166   -4.7275  -13.2115 O   0  0  0  0  0  0  0  0  0  0  0  0
  1  2  1  0
  2  3  2  0
  4  2  1  0
  5  4  1  0
  5  6  1  1
  7  8  2  0
  7  5  1  0
  9  7  1  0
 10 11  1  1
 10  9  1  0
 11 12  1  0
 13 12  1  0
 13 17  1  0
 14 13  2  0
 15 10  1  0
 16 15  2  0
 19 18  1  0
 20 19  1  6
 20 21  1  0
 21 15  1  0
 22 23  1  0
 22 20  1  0
 24 22  2  0
M  END
$$$$
