NES.pdb
     RDKit          3D

 24 23  0  0  1  0  0  0  0  0999 V2000
   13.9300  -12.6946   -9.9186 N   0  0  0  0  0  0  0  0  0  0  0  0
   15.2486  -12.6026  -10.4809 C   0  0  0  0  0  0  0  0  0  0  0  0
   15.9138  -13.6616  -10.5755 O   0  0  0  0  0  0  0  0  0  0  0  0
   15.7545  -11.3003  -10.9134 C   0  0  0  0  0  0  0  0  0  0  0  0
   14.9195  -10.1257  -10.5120 C   0  0  2  0  0  0  0  0  0  0  0  0
   13.6054  -10.2394  -11.1551 N   0  0  0  0  0  0  0  0  0  0  0  0
   15.5931   -8.8781  -10.9387 C   0  0  0  0  0  0  0  0  0  0  0  0
   15.6602   -8.4863  -12.1231 O   0  0  0  0  0  0  0  0  0  0  0  0
   16.2232   -8.0329   -9.9636 N   0  0  0  0  0  0  0  0  0  0  0  0
   16.8241   -6.7575  -10.3006 C   0  0  1  0  0  0  0  0  0  0  0  0
   16.5669   -5.7527   -9.2064 C   0  0  0  0  0  0  0  0  0  0  0  0
   15.1608   -5.2467   -9.3333 C   0  0  0  0  0  0  0  0  0  0  0  0
   14.9160   -4.2375   -8.2693 C   0  0  0  0  0  0  0  0  0  0  0  0
   15.7796   -3.9493   -7.4187 O   0  0  0  0  0  0  0  0  0  0  0  0
   18.2721   -6.9077  -10.6013 C   0  0  0  0  0  0  0  0  0  0  0  0
   18.9968   -7.5328   -9.8086 O   0  0  0  0  0  0  0  0  0  0  0  0
   13.6909   -3.5916   -8.2142 O   0  0  0  0  0  0  0  0  0  0  0  0
   21.7667   -7.6551  -13.6612 O   0  0  0  0  0  0  0  0  0  0  0  0
   20.4507   -7.5496  -13.2376 C   0  0  0  0  0  0  0  0  0  0  0  0
   20.2473   -6.5910  -12.1094 C   0  0  2  0  0  0  0  0  0  0  0  0
   18.8742   -6.3637  -11.7660 N   0  0  0  0  0  0  0  0  0  0  0  0
   20.7998   -5.2679  -12.5666 C   0  0  0  0  0  0  0  0  0  0  0  0
   20.0484   -4.3494  -13.2779 O   0  0  0  0  0  0  0  0  0  0  0  0
   21.9900   -4.9971  -12.2865 O   0  0  0  0  0  0  0  0  0  0  0  0
  1  2  1  0
  2  3  2  0
  4  2  1  0
  5  4  1  0
  5  6  1  6
  7  8  2  0
  7  5  1  0
  9  7  1  0
 10 11  1  1
 10  9  1  0
 11 12  1  0
 13 12  1  0
 13 17  1  0
 14 13  2  0
 15 10  1  0
 16 15  2  0
 19 18  1  0
 20 19  1  6
 20 21  1  0
 21 15  1  0
 22 23  1  0
 22 20  1  0
 24 22  2  0
M  END
$$$$
