NES.pdb
     RDKit          3D

 24 23  0  0  1  0  0  0  0  0999 V2000
   25.2232  -11.4242  -20.2744 N   0  0  0  0  0  0  0  0  0  0  0  0
   23.8841  -11.2834  -20.7747 C   0  0  0  0  0  0  0  0  0  0  0  0
   23.6293  -11.7804  -21.8976 O   0  0  0  0  0  0  0  0  0  0  0  0
   22.8879  -10.5784  -19.9687 C   0  0  0  0  0  0  0  0  0  0  0  0
   23.3629  -10.1162  -18.6276 C   0  0  2  0  0  0  0  0  0  0  0  0
   23.4583  -11.2771  -17.7352 N   0  0  0  0  0  0  0  0  0  0  0  0
   22.4041   -9.1280  -18.0830 C   0  0  0  0  0  0  0  0  0  0  0  0
   22.0685   -8.0779  -18.6708 O   0  0  0  0  0  0  0  0  0  0  0  0
   21.7960   -9.3489  -16.8009 N   0  0  0  0  0  0  0  0  0  0  0  0
   20.7921   -8.4634  -16.2447 C   0  0  1  0  0  0  0  0  0  0  0  0
   19.7503   -9.2573  -15.4980 C   0  0  0  0  0  0  0  0  0  0  0  0
   18.6731   -8.3245  -15.0303 C   0  0  0  0  0  0  0  0  0  0  0  0
   17.6496   -9.1070  -14.2882 C   0  0  0  0  0  0  0  0  0  0  0  0
   17.8315  -10.2965  -13.9649 O   0  0  0  0  0  0  0  0  0  0  0  0
   21.4129   -7.4097  -15.3997 C   0  0  0  0  0  0  0  0  0  0  0  0
   22.3368   -7.7150  -14.6267 O   0  0  0  0  0  0  0  0  0  0  0  0
   16.4519   -8.5021  -13.9407 O   0  0  0  0  0  0  0  0  0  0  0  0
   23.4882   -3.3698  -14.9580 O   0  0  0  0  0  0  0  0  0  0  0  0
   22.8198   -4.4093  -15.5863 C   0  0  0  0  0  0  0  0  0  0  0  0
   21.7131   -5.0020  -14.7758 C   0  0  2  0  0  0  0  0  0  0  0  0
   20.9948   -6.0536  -15.4342 N   0  0  0  0  0  0  0  0  0  0  0  0
   20.7231   -3.8958  -14.5289 C   0  0  0  0  0  0  0  0  0  0  0  0
   19.4839   -3.8503  -15.1425 O   0  0  0  0  0  0  0  0  0  0  0  0
   21.0442   -2.9835  -13.7332 O   0  0  0  0  0  0  0  0  0  0  0  0
  1  2  1  0
  2  3  2  0
  4  2  1  0
  5  4  1  0
  5  6  1  1
  7  8  2  0
  7  5  1  0
  9  7  1  0
 10 11  1  1
 10  9  1  0
 11 12  1  0
 13 12  1  0
 13 17  1  0
 14 13  2  0
 15 10  1  0
 16 15  2  0
 19 18  1  0
 20 19  1  6
 20 21  1  0
 21 15  1  0
 22 23  1  0
 22 20  1  0
 24 22  2  0
M  END
$$$$
