NES.pdb
     RDKit          3D

 24 23  0  0  1  0  0  0  0  0999 V2000
   26.6584  -18.0994  -17.8271 N   0  0  0  0  0  0  0  0  0  0  0  0
   26.6912  -18.2334  -16.3973 C   0  0  0  0  0  0  0  0  0  0  0  0
   27.8155  -18.2445  -15.8416 O   0  0  0  0  0  0  0  0  0  0  0  0
   25.4341  -18.3496  -15.6589 C   0  0  0  0  0  0  0  0  0  0  0  0
   24.2012  -18.4133  -16.5037 C   0  0  2  0  0  0  0  0  0  0  0  0
   24.0127  -17.1154  -17.1618 N   0  0  0  0  0  0  0  0  0  0  0  0
   23.0361  -18.7273  -15.6456 C   0  0  0  0  0  0  0  0  0  0  0  0
   22.9563  -19.7350  -14.9114 O   0  0  0  0  0  0  0  0  0  0  0  0
   21.9025  -17.8460  -15.6236 N   0  0  0  0  0  0  0  0  0  0  0  0
   20.7619  -18.0550  -14.7538 C   0  0  1  0  0  0  0  0  0  0  0  0
   20.0650  -16.7461  -14.4813 C   0  0  0  0  0  0  0  0  0  0  0  0
   18.9860  -16.9736  -13.4649 C   0  0  0  0  0  0  0  0  0  0  0  0
   18.2723  -15.6912  -13.2272 C   0  0  0  0  0  0  0  0  0  0  0  0
   17.7102  -15.0659  -14.1467 O   0  0  0  0  0  0  0  0  0  0  0  0
   19.8411  -19.0803  -15.3112 C   0  0  0  0  0  0  0  0  0  0  0  0
   19.6128  -19.0939  -16.5327 O   0  0  0  0  0  0  0  0  0  0  0  0
   18.2258  -15.1668  -11.9450 O   0  0  0  0  0  0  0  0  0  0  0  0
   18.3384  -22.2780  -12.8968 O   0  0  0  0  0  0  0  0  0  0  0  0
   18.6539  -22.4416  -14.2370 C   0  0  0  0  0  0  0  0  0  0  0  0
   18.5241  -21.1955  -15.0515 C   0  0  2  0  0  0  0  0  0  0  0  0
   19.2015  -20.0570  -14.5038 N   0  0  0  0  0  0  0  0  0  0  0  0
   17.0592  -20.8514  -15.0774 C   0  0  0  0  0  0  0  0  0  0  0  0
   16.1032  -21.6915  -15.6200 O   0  0  0  0  0  0  0  0  0  0  0  0
   16.7016  -19.7569  -14.5849 O   0  0  0  0  0  0  0  0  0  0  0  0
  1  2  1  0
  2  3  2  0
  4  2  1  0
  5  4  1  0
  5  6  1  1
  7  8  2  0
  7  5  1  0
  9  7  1  0
 10 11  1  6
 10  9  1  0
 11 12  1  0
 13 12  1  0
 13 17  1  0
 14 13  2  0
 15 10  1  0
 16 15  2  0
 19 18  1  0
 20 19  1  1
 20 21  1  0
 21 15  1  0
 22 23  1  0
 22 20  1  0
 24 22  2  0
M  END
$$$$
