NES.pdb
     RDKit          3D

 24 23  0  0  1  0  0  0  0  0999 V2000
   17.4443  -12.6096  -16.4984 N   0  0  0  0  0  0  0  0  0  0  0  0
   18.1863  -12.9044  -15.3043 C   0  0  0  0  0  0  0  0  0  0  0  0
   17.7695  -13.8381  -14.5782 O   0  0  0  0  0  0  0  0  0  0  0  0
   19.3780  -12.1177  -14.9880 C   0  0  0  0  0  0  0  0  0  0  0  0
   19.6313  -10.9518  -15.8905 C   0  0  2  0  0  0  0  0  0  0  0  0
   20.0243  -11.4549  -17.2118 N   0  0  0  0  0  0  0  0  0  0  0  0
   20.7110  -10.1157  -15.3181 C   0  0  0  0  0  0  0  0  0  0  0  0
   20.6440   -9.5460  -14.2083 O   0  0  0  0  0  0  0  0  0  0  0  0
   21.9310   -9.9189  -16.0497 N   0  0  0  0  0  0  0  0  0  0  0  0
   22.9655   -8.9995  -15.6190 C   0  0  1  0  0  0  0  0  0  0  0  0
   24.2988   -9.4058  -16.1936 C   0  0  0  0  0  0  0  0  0  0  0  0
   24.7403  -10.6812  -15.5396 C   0  0  0  0  0  0  0  0  0  0  0  0
   26.0180  -11.1212  -16.1595 C   0  0  0  0  0  0  0  0  0  0  0  0
   27.0612  -11.2670  -15.4940 O   0  0  0  0  0  0  0  0  0  0  0  0
   22.6102   -7.5952  -15.9531 C   0  0  0  0  0  0  0  0  0  0  0  0
   22.5401   -7.2522  -17.1455 O   0  0  0  0  0  0  0  0  0  0  0  0
   26.0595  -11.3796  -17.5206 O   0  0  0  0  0  0  0  0  0  0  0  0
   19.6944   -5.4170  -14.8482 O   0  0  0  0  0  0  0  0  0  0  0  0
   20.6686   -4.9865  -15.7359 C   0  0  0  0  0  0  0  0  0  0  0  0
   22.0678   -5.2441  -15.2790 C   0  0  2  0  0  0  0  0  0  0  0  0
   22.3442   -6.6146  -14.9619 N   0  0  0  0  0  0  0  0  0  0  0  0
   22.2533   -4.4635  -14.0058 C   0  0  0  0  0  0  0  0  0  0  0  0
   22.1298   -3.0867  -13.9479 O   0  0  0  0  0  0  0  0  0  0  0  0
   22.5308   -5.0961  -12.9611 O   0  0  0  0  0  0  0  0  0  0  0  0
  1  2  1  0
  2  3  2  0
  4  2  1  0
  5  4  1  0
  5  6  1  6
  7  8  2  0
  7  5  1  0
  9  7  1  0
 10 11  1  6
 10  9  1  0
 11 12  1  0
 13 12  1  0
 13 17  1  0
 14 13  2  0
 15 10  1  0
 16 15  2  0
 19 18  1  0
 20 19  1  1
 20 21  1  0
 21 15  1  0
 22 23  1  0
 22 20  1  0
 24 22  2  0
M  END
$$$$
