NES.pdb
     RDKit          3D

 24 23  0  0  1  0  0  0  0  0999 V2000
   18.3789  -14.4765  -18.2246 N   0  0  0  0  0  0  0  0  0  0  0  0
   17.9462  -13.5908  -17.1798 C   0  0  0  0  0  0  0  0  0  0  0  0
   17.2717  -14.0834  -16.2443 O   0  0  0  0  0  0  0  0  0  0  0  0
   18.3034  -12.1741  -17.2471 C   0  0  0  0  0  0  0  0  0  0  0  0
   18.9096  -11.6087  -16.0019 C   0  0  2  0  0  0  0  0  0  0  0  0
   17.9379  -11.7268  -14.9087 N   0  0  0  0  0  0  0  0  0  0  0  0
   19.2564  -10.1872  -16.2286 C   0  0  0  0  0  0  0  0  0  0  0  0
   20.0528   -9.7901  -17.1055 O   0  0  0  0  0  0  0  0  0  0  0  0
   18.6640   -9.1648  -15.4124 N   0  0  0  0  0  0  0  0  0  0  0  0
   18.8485   -7.7501  -15.6687 C   0  0  1  0  0  0  0  0  0  0  0  0
   17.6342   -6.9751  -15.2238 C   0  0  0  0  0  0  0  0  0  0  0  0
   17.8420   -5.5240  -15.5408 C   0  0  0  0  0  0  0  0  0  0  0  0
   16.6286   -4.7659  -15.1368 C   0  0  0  0  0  0  0  0  0  0  0  0
   15.8522   -4.2647  -15.9725 O   0  0  0  0  0  0  0  0  0  0  0  0
   20.0999   -7.2485  -15.0425 C   0  0  0  0  0  0  0  0  0  0  0  0
   20.4238   -7.6597  -13.9154 O   0  0  0  0  0  0  0  0  0  0  0  0
   16.3440   -4.6065  -13.7897 O   0  0  0  0  0  0  0  0  0  0  0  0
   23.5609   -5.9312  -17.1316 O   0  0  0  0  0  0  0  0  0  0  0  0
   23.0942   -5.1624  -16.0764 C   0  0  0  0  0  0  0  0  0  0  0  0
   22.2115   -5.9029  -15.1248 C   0  0  2  0  0  0  0  0  0  0  0  0
   20.9535   -6.3098  -15.6789 N   0  0  0  0  0  0  0  0  0  0  0  0
   21.8979   -4.9509  -14.0022 C   0  0  0  0  0  0  0  0  0  0  0  0
   22.6981   -4.8280  -12.8803 O   0  0  0  0  0  0  0  0  0  0  0  0
   20.8674   -4.2455  -14.0975 O   0  0  0  0  0  0  0  0  0  0  0  0
  1  2  1  0
  2  3  2  0
  4  2  1  0
  5  4  1  0
  5  6  1  1
  7  8  2  0
  7  5  1  0
  9  7  1  0
 10 11  1  1
 10  9  1  0
 11 12  1  0
 13 12  1  0
 13 17  1  0
 14 13  2  0
 15 10  1  0
 16 15  2  0
 19 18  1  0
 20 19  1  6
 20 21  1  0
 21 15  1  0
 22 23  1  0
 22 20  1  0
 24 22  2  0
M  END
$$$$
