NES.pdb
     RDKit          3D

 24 23  0  0  1  0  0  0  0  0999 V2000
   15.9520  -13.6109  -15.3039 N   0  0  0  0  0  0  0  0  0  0  0  0
   17.3587  -13.3202  -15.2962 C   0  0  0  0  0  0  0  0  0  0  0  0
   18.1304  -14.2008  -14.8467 O   0  0  0  0  0  0  0  0  0  0  0  0
   17.8274  -12.0313  -15.8043 C   0  0  0  0  0  0  0  0  0  0  0  0
   16.7552  -11.0239  -16.0753 C   0  0  2  0  0  0  0  0  0  0  0  0
   15.8787  -11.5408  -17.1325 N   0  0  0  0  0  0  0  0  0  0  0  0
   17.3776   -9.7500  -16.5022 C   0  0  0  0  0  0  0  0  0  0  0  0
   17.4214   -9.3521  -17.6856 O   0  0  0  0  0  0  0  0  0  0  0  0
   17.9817   -8.8845  -15.5284 N   0  0  0  0  0  0  0  0  0  0  0  0
   18.4540   -7.5518  -15.8478 C   0  0  1  0  0  0  0  0  0  0  0  0
   17.3447   -6.7371  -16.4631 C   0  0  0  0  0  0  0  0  0  0  0  0
   16.2422   -6.5820  -15.4582 C   0  0  0  0  0  0  0  0  0  0  0  0
   15.2376   -5.6246  -15.9918 C   0  0  0  0  0  0  0  0  0  0  0  0
   14.4083   -5.9516  -16.8622 O   0  0  0  0  0  0  0  0  0  0  0  0
   19.0463   -6.8908  -14.6552 C   0  0  0  0  0  0  0  0  0  0  0  0
   18.6128   -7.1723  -13.5251 O   0  0  0  0  0  0  0  0  0  0  0  0
   15.2157   -4.3246  -15.5115 O   0  0  0  0  0  0  0  0  0  0  0  0
   22.6515   -6.4466  -12.1281 O   0  0  0  0  0  0  0  0  0  0  0  0
   21.7644   -6.7762  -13.1414 C   0  0  0  0  0  0  0  0  0  0  0  0
   20.9570   -5.6240  -13.6451 C   0  0  2  0  0  0  0  0  0  0  0  0
   20.0969   -5.9408  -14.7474 N   0  0  0  0  0  0  0  0  0  0  0  0
   21.9389   -4.6002  -14.1477 C   0  0  0  0  0  0  0  0  0  0  0  0
   22.4865   -3.6258  -13.3323 O   0  0  0  0  0  0  0  0  0  0  0  0
   22.2670   -4.6408  -15.3556 O   0  0  0  0  0  0  0  0  0  0  0  0
  1  2  1  0
  2  3  2  0
  4  2  1  0
  5  4  1  0
  5  6  1  6
  7  8  2  0
  7  5  1  0
  9  7  1  0
 10 11  1  1
 10  9  1  0
 11 12  1  0
 13 12  1  0
 13 17  1  0
 14 13  2  0
 15 10  1  0
 16 15  2  0
 19 18  1  0
 20 19  1  6
 20 21  1  0
 21 15  1  0
 22 23  1  0
 22 20  1  0
 24 22  2  0
M  END
$$$$
