NES.pdb
     RDKit          3D

 24 23  0  0  1  0  0  0  0  0999 V2000
   14.8410  -12.8199  -10.2607 N   0  0  0  0  0  0  0  0  0  0  0  0
   16.1134  -12.3887  -10.7692 C   0  0  0  0  0  0  0  0  0  0  0  0
   16.9661  -13.2726  -11.0231 O   0  0  0  0  0  0  0  0  0  0  0  0
   16.3598  -10.9607  -10.9673 C   0  0  0  0  0  0  0  0  0  0  0  0
   15.2401  -10.0569  -10.5583 C   0  0  2  0  0  0  0  0  0  0  0  0
   14.0558  -10.3795  -11.3624 N   0  0  0  0  0  0  0  0  0  0  0  0
   15.6422   -8.6492  -10.7793 C   0  0  0  0  0  0  0  0  0  0  0  0
   15.5896   -8.0694  -11.8847 O   0  0  0  0  0  0  0  0  0  0  0  0
   16.1299   -7.8612   -9.6823 N   0  0  0  0  0  0  0  0  0  0  0  0
   16.5346   -6.4770   -9.8283 C   0  0  1  0  0  0  0  0  0  0  0  0
   15.9595   -5.6432   -8.7114 C   0  0  0  0  0  0  0  0  0  0  0  0
   14.4995   -5.4223   -8.9735 C   0  0  0  0  0  0  0  0  0  0  0  0
   13.9370   -4.5852   -7.8811 C   0  0  0  0  0  0  0  0  0  0  0  0
   12.7125   -4.5202   -7.6602 O   0  0  0  0  0  0  0  0  0  0  0  0
   18.0133   -6.3557   -9.9205 C   0  0  0  0  0  0  0  0  0  0  0  0
   18.7227   -6.8756   -9.0426 O   0  0  0  0  0  0  0  0  0  0  0  0
   14.7947   -3.8502   -7.0778 O   0  0  0  0  0  0  0  0  0  0  0  0
   21.6782   -7.4698  -12.1115 O   0  0  0  0  0  0  0  0  0  0  0  0
   20.3640   -7.2843  -11.7106 C   0  0  0  0  0  0  0  0  0  0  0  0
   20.0378   -5.8800  -11.3174 C   0  0  2  0  0  0  0  0  0  0  0  0
   18.6619   -5.6649  -10.9775 N   0  0  0  0  0  0  0  0  0  0  0  0
   20.3217   -5.0215  -12.5204 C   0  0  0  0  0  0  0  0  0  0  0  0
   21.5381   -4.3935  -12.7208 O   0  0  0  0  0  0  0  0  0  0  0  0
   19.4123   -4.8759  -13.3690 O   0  0  0  0  0  0  0  0  0  0  0  0
  1  2  1  0
  2  3  2  0
  4  2  1  0
  5  4  1  0
  5  6  1  6
  7  8  2  0
  7  5  1  0
  9  7  1  0
 10 11  1  1
 10  9  1  0
 11 12  1  0
 13 12  1  0
 13 17  1  0
 14 13  2  0
 15 10  1  0
 16 15  2  0
 19 18  1  0
 20 19  1  6
 20 21  1  0
 21 15  1  0
 22 23  1  0
 22 20  1  0
 24 22  2  0
M  END
$$$$
