NES.pdb
     RDKit          3D

 24 23  0  0  1  0  0  0  0  0999 V2000
   17.3783  -11.5842  -17.1413 N   0  0  0  0  0  0  0  0  0  0  0  0
   16.9664  -10.3728  -16.4886 C   0  0  0  0  0  0  0  0  0  0  0  0
   15.7394  -10.2128  -16.2838 O   0  0  0  0  0  0  0  0  0  0  0  0
   17.9765   -9.3909  -16.0954 C   0  0  0  0  0  0  0  0  0  0  0  0
   19.3819   -9.7332  -16.4767 C   0  0  2  0  0  0  0  0  0  0  0  0
   19.8375  -10.8518  -15.6434 N   0  0  0  0  0  0  0  0  0  0  0  0
   20.2477   -8.5507  -16.2659 C   0  0  0  0  0  0  0  0  0  0  0  0
   20.5607   -8.1010  -15.1431 O   0  0  0  0  0  0  0  0  0  0  0  0
   20.7847   -7.8438  -17.3947 N   0  0  0  0  0  0  0  0  0  0  0  0
   21.7113   -6.7373  -17.2602 C   0  0  1  0  0  0  0  0  0  0  0  0
   22.5664   -6.6178  -18.4961 C   0  0  0  0  0  0  0  0  0  0  0  0
   23.5504   -7.7495  -18.5163 C   0  0  0  0  0  0  0  0  0  0  0  0
   24.3915   -7.6325  -19.7366 C   0  0  0  0  0  0  0  0  0  0  0  0
   24.6573   -8.6157  -20.4543 O   0  0  0  0  0  0  0  0  0  0  0  0
   20.9969   -5.4729  -16.9427 C   0  0  0  0  0  0  0  0  0  0  0  0
   19.9337   -5.2104  -17.5301 O   0  0  0  0  0  0  0  0  0  0  0  0
   24.9006   -6.3941  -20.0949 O   0  0  0  0  0  0  0  0  0  0  0  0
   19.6005   -2.1089  -13.9346 O   0  0  0  0  0  0  0  0  0  0  0  0
   20.2532   -3.2886  -14.2579 C   0  0  0  0  0  0  0  0  0  0  0  0
   20.7752   -3.3340  -15.6573 C   0  0  2  0  0  0  0  0  0  0  0  0
   21.4780   -4.5388  -15.9882 N   0  0  0  0  0  0  0  0  0  0  0  0
   21.7686   -2.2103  -15.7807 C   0  0  0  0  0  0  0  0  0  0  0  0
   21.4016   -0.8777  -15.7210 O   0  0  0  0  0  0  0  0  0  0  0  0
   22.9749   -2.5047  -15.9439 O   0  0  0  0  0  0  0  0  0  0  0  0
  1  2  1  0
  2  3  2  0
  4  2  1  0
  5  4  1  0
  5  6  1  1
  7  8  2  0
  7  5  1  0
  9  7  1  0
 10 11  1  6
 10  9  1  0
 11 12  1  0
 13 12  1  0
 13 17  1  0
 14 13  2  0
 15 10  1  0
 16 15  2  0
 19 18  1  0
 20 19  1  1
 20 21  1  0
 21 15  1  0
 22 23  1  0
 22 20  1  0
 24 22  2  0
M  END
$$$$
