NES.pdb
     RDKit          3D

 24 23  0  0  1  0  0  0  0  0999 V2000
   19.2588  -13.5694  -15.3717 N   0  0  0  0  0  0  0  0  0  0  0  0
   18.4445  -12.4960  -15.8696 C   0  0  0  0  0  0  0  0  0  0  0  0
   17.6568  -12.7542  -16.8108 O   0  0  0  0  0  0  0  0  0  0  0  0
   18.5639  -11.1675  -15.2697 C   0  0  0  0  0  0  0  0  0  0  0  0
   18.2678  -10.0238  -16.1873 C   0  0  2  0  0  0  0  0  0  0  0  0
   19.3372   -9.9328  -17.1879 N   0  0  0  0  0  0  0  0  0  0  0  0
   18.1939   -8.7718  -15.4002 C   0  0  0  0  0  0  0  0  0  0  0  0
   17.4351   -8.6009  -14.4226 O   0  0  0  0  0  0  0  0  0  0  0  0
   19.0292   -7.6560  -15.7462 N   0  0  0  0  0  0  0  0  0  0  0  0
   18.9575   -6.3796  -15.0631 C   0  0  1  0  0  0  0  0  0  0  0  0
   20.3356   -5.7851  -14.9192 C   0  0  0  0  0  0  0  0  0  0  0  0
   20.9927   -6.3723  -13.7056 C   0  0  0  0  0  0  0  0  0  0  0  0
   22.3646   -5.8124  -13.5844 C   0  0  0  0  0  0  0  0  0  0  0  0
   23.3663   -6.4158  -14.0144 O   0  0  0  0  0  0  0  0  0  0  0  0
   18.0122   -5.4569  -15.7449 C   0  0  0  0  0  0  0  0  0  0  0  0
   18.0549   -5.3465  -16.9819 O   0  0  0  0  0  0  0  0  0  0  0  0
   22.5446   -4.5805  -12.9752 O   0  0  0  0  0  0  0  0  0  0  0  0
   14.7902   -3.6091  -13.6871 O   0  0  0  0  0  0  0  0  0  0  0  0
   14.7648   -3.7741  -15.0635 C   0  0  0  0  0  0  0  0  0  0  0  0
   16.1169   -3.8193  -15.6982 C   0  0  2  0  0  0  0  0  0  0  0  0
   17.0508   -4.6857  -15.0407 N   0  0  0  0  0  0  0  0  0  0  0  0
   16.6819   -2.4277  -15.6023 C   0  0  0  0  0  0  0  0  0  0  0  0
   16.0676   -1.3299  -16.1780 O   0  0  0  0  0  0  0  0  0  0  0  0
   17.7529   -2.2680  -14.9731 O   0  0  0  0  0  0  0  0  0  0  0  0
  1  2  1  0
  2  3  2  0
  4  2  1  0
  5  4  1  0
  5  6  1  6
  7  8  2  0
  7  5  1  0
  9  7  1  0
 10 11  1  6
 10  9  1  0
 11 12  1  0
 13 12  1  0
 13 17  1  0
 14 13  2  0
 15 10  1  0
 16 15  2  0
 19 18  1  0
 20 19  1  1
 20 21  1  0
 21 15  1  0
 22 23  1  0
 22 20  1  0
 24 22  2  0
M  END
$$$$
