NES.pdb
     RDKit          3D

 24 23  0  0  1  0  0  0  0  0999 V2000
   28.4214  -26.6827  -16.6144 N   0  0  0  0  0  0  0  0  0  0  0  0
   28.2107  -25.3047  -16.2681 C   0  0  0  0  0  0  0  0  0  0  0  0
   29.2035  -24.5392  -16.3050 O   0  0  0  0  0  0  0  0  0  0  0  0
   26.8701  -24.8565  -15.8927 C   0  0  0  0  0  0  0  0  0  0  0  0
   25.8375  -25.9353  -15.8053 C   0  0  2  0  0  0  0  0  0  0  0  0
   26.1500  -26.9688  -16.7990 N   0  0  0  0  0  0  0  0  0  0  0  0
   24.5011  -25.3558  -16.0710 C   0  0  0  0  0  0  0  0  0  0  0  0
   23.7150  -25.7762  -16.9462 O   0  0  0  0  0  0  0  0  0  0  0  0
   24.0367  -24.2381  -15.2979 N   0  0  0  0  0  0  0  0  0  0  0  0
   22.7076  -23.6789  -15.4457 C   0  0  1  0  0  0  0  0  0  0  0  0
   21.6638  -24.7390  -15.2012 C   0  0  0  0  0  0  0  0  0  0  0  0
   21.5842  -25.0105  -13.7283 C   0  0  0  0  0  0  0  0  0  0  0  0
   20.5602  -26.0615  -13.4887 C   0  0  0  0  0  0  0  0  0  0  0  0
   20.7273  -27.2428  -13.8477 O   0  0  0  0  0  0  0  0  0  0  0  0
   22.5231  -22.4915  -14.5706 C   0  0  0  0  0  0  0  0  0  0  0  0
   23.1945  -22.3924  -13.5296 O   0  0  0  0  0  0  0  0  0  0  0  0
   19.3790  -25.7255  -12.8461 O   0  0  0  0  0  0  0  0  0  0  0  0
   22.2355  -18.8870  -15.9804 O   0  0  0  0  0  0  0  0  0  0  0  0
   22.3775  -19.1289  -14.6226 C   0  0  0  0  0  0  0  0  0  0  0  0
   21.5232  -20.2416  -14.1078 C   0  0  2  0  0  0  0  0  0  0  0  0
   21.6043  -21.4522  -14.8714 N   0  0  0  0  0  0  0  0  0  0  0  0
   20.0981  -19.7678  -14.2054 C   0  0  0  0  0  0  0  0  0  0  0  0
   19.5951  -18.7440  -13.4223 O   0  0  0  0  0  0  0  0  0  0  0  0
   19.3447  -20.3303  -15.0327 O   0  0  0  0  0  0  0  0  0  0  0  0
  1  2  1  0
  2  3  2  0
  4  2  1  0
  5  4  1  0
  5  6  1  6
  7  8  2  0
  7  5  1  0
  9  7  1  0
 10 11  1  1
 10  9  1  0
 11 12  1  0
 13 12  1  0
 13 17  1  0
 14 13  2  0
 15 10  1  0
 16 15  2  0
 19 18  1  0
 20 19  1  6
 20 21  1  0
 21 15  1  0
 22 23  1  0
 22 20  1  0
 24 22  2  0
M  END
$$$$
