NES.pdb
     RDKit          3D

 24 23  0  0  1  0  0  0  0  0999 V2000
   23.4799  -11.2162  -21.0183 N   0  0  0  0  0  0  0  0  0  0  0  0
   22.2798  -11.0666  -20.2434 C   0  0  0  0  0  0  0  0  0  0  0  0
   21.4407  -11.9976  -20.2883 O   0  0  0  0  0  0  0  0  0  0  0  0
   22.0871   -9.8554  -19.4464 C   0  0  0  0  0  0  0  0  0  0  0  0
   23.2099   -8.8685  -19.5034 C   0  0  2  0  0  0  0  0  0  0  0  0
   24.2633   -9.2986  -18.5769 N   0  0  0  0  0  0  0  0  0  0  0  0
   22.7047   -7.5304  -19.1202 C   0  0  0  0  0  0  0  0  0  0  0  0
   21.7566   -6.9487  -19.6890 O   0  0  0  0  0  0  0  0  0  0  0  0
   23.3127   -6.8183  -18.0314 N   0  0  0  0  0  0  0  0  0  0  0  0
   22.8893   -5.4926  -17.6260 C   0  0  1  0  0  0  0  0  0  0  0  0
   22.8428   -5.3953  -16.1222 C   0  0  0  0  0  0  0  0  0  0  0  0
   21.5432   -5.9671  -15.6392 C   0  0  0  0  0  0  0  0  0  0  0  0
   21.5445   -5.9732  -14.1525 C   0  0  0  0  0  0  0  0  0  0  0  0
   20.6184   -6.4810  -13.4916 O   0  0  0  0  0  0  0  0  0  0  0  0
   23.7495   -4.4437  -18.2340 C   0  0  0  0  0  0  0  0  0  0  0  0
   24.9685   -4.6519  -18.3569 O   0  0  0  0  0  0  0  0  0  0  0  0
   22.6058   -5.3978  -13.4715 O   0  0  0  0  0  0  0  0  0  0  0  0
   24.3329   -0.9331  -21.3906 O   0  0  0  0  0  0  0  0  0  0  0  0
   23.5778   -1.9050  -20.7522 C   0  0  0  0  0  0  0  0  0  0  0  0
   24.0436   -2.2304  -19.3701 C   0  0  2  0  0  0  0  0  0  0  0  0
   23.2381   -3.1994  -18.6866 N   0  0  0  0  0  0  0  0  0  0  0  0
   23.9487   -0.9561  -18.5750 C   0  0  0  0  0  0  0  0  0  0  0  0
   24.9795   -0.0355  -18.5118 O   0  0  0  0  0  0  0  0  0  0  0  0
   22.8883   -0.7295  -17.9483 O   0  0  0  0  0  0  0  0  0  0  0  0
  1  2  1  0
  2  3  2  0
  4  2  1  0
  5  4  1  0
  5  6  1  1
  7  8  2  0
  7  5  1  0
  9  7  1  0
 10 11  1  1
 10  9  1  0
 11 12  1  0
 13 12  1  0
 13 17  1  0
 14 13  2  0
 15 10  1  0
 16 15  2  0
 19 18  1  0
 20 19  1  6
 20 21  1  0
 21 15  1  0
 22 23  1  0
 22 20  1  0
 24 22  2  0
M  END
$$$$
