NES.pdb
     RDKit          3D

 24 23  0  0  1  0  0  0  0  0999 V2000
   12.7776  -11.0028  -10.7893 N   0  0  0  0  0  0  0  0  0  0  0  0
   12.5346   -9.6349  -10.4246 C   0  0  0  0  0  0  0  0  0  0  0  0
   11.3449   -9.2380  -10.4216 O   0  0  0  0  0  0  0  0  0  0  0  0
   13.6646   -8.7738  -10.0771 C   0  0  0  0  0  0  0  0  0  0  0  0
   15.0094   -9.4251  -10.1495 C   0  0  2  0  0  0  0  0  0  0  0  0
   15.1067  -10.4262   -9.0811 N   0  0  0  0  0  0  0  0  0  0  0  0
   16.0609   -8.3957   -9.9853 C   0  0  0  0  0  0  0  0  0  0  0  0
   16.3506   -7.8557   -8.8966 O   0  0  0  0  0  0  0  0  0  0  0  0
   16.8220   -7.9592  -11.1222 N   0  0  0  0  0  0  0  0  0  0  0  0
   17.7690   -6.8636  -11.0596 C   0  0  1  0  0  0  0  0  0  0  0  0
   18.7345   -6.9400  -12.2152 C   0  0  0  0  0  0  0  0  0  0  0  0
   19.7857   -7.9629  -11.9019 C   0  0  0  0  0  0  0  0  0  0  0  0
   20.5989   -8.2048  -13.1229 C   0  0  0  0  0  0  0  0  0  0  0  0
   21.6307   -7.5520  -13.3712 O   0  0  0  0  0  0  0  0  0  0  0  0
   17.0715   -5.5527  -10.9916 C   0  0  0  0  0  0  0  0  0  0  0  0
   16.1210   -5.3283  -11.7601 O   0  0  0  0  0  0  0  0  0  0  0  0
   20.2041   -9.1857  -14.0190 O   0  0  0  0  0  0  0  0  0  0  0  0
   15.9135   -1.5526   -8.5241 O   0  0  0  0  0  0  0  0  0  0  0  0
   16.4798   -2.8157   -8.6017 C   0  0  0  0  0  0  0  0  0  0  0  0
   16.7594   -3.2751   -9.9958 C   0  0  2  0  0  0  0  0  0  0  0  0
   17.4446   -4.5316  -10.0789 N   0  0  0  0  0  0  0  0  0  0  0  0
   17.6714   -2.2478  -10.6106 C   0  0  0  0  0  0  0  0  0  0  0  0
   17.2655   -0.9528  -10.8795 O   0  0  0  0  0  0  0  0  0  0  0  0
   18.8442   -2.5899  -10.8864 O   0  0  0  0  0  0  0  0  0  0  0  0
  1  2  1  0
  2  3  2  0
  4  2  1  0
  5  4  1  0
  5  6  1  1
  7  8  2  0
  7  5  1  0
  9  7  1  0
 10 11  1  6
 10  9  1  0
 11 12  1  0
 13 12  1  0
 13 17  1  0
 14 13  2  0
 15 10  1  0
 16 15  2  0
 19 18  1  0
 20 19  1  1
 20 21  1  0
 21 15  1  0
 22 23  1  0
 22 20  1  0
 24 22  2  0
M  END
$$$$
