NES.pdb
     RDKit          3D

 24 23  0  0  1  0  0  0  0  0999 V2000
   10.9898  -12.3173  -12.8073 N   0  0  0  0  0  0  0  0  0  0  0  0
   12.2865  -12.0790  -13.3774 C   0  0  0  0  0  0  0  0  0  0  0  0
   12.4406  -12.3354  -14.5953 O   0  0  0  0  0  0  0  0  0  0  0  0
   13.3573  -11.5556  -12.5297 C   0  0  0  0  0  0  0  0  0  0  0  0
   14.7456  -11.8048  -13.0281 C   0  0  2  0  0  0  0  0  0  0  0  0
   15.0289  -13.2417  -12.9363 N   0  0  0  0  0  0  0  0  0  0  0  0
   15.7066  -11.0388  -12.2023 C   0  0  0  0  0  0  0  0  0  0  0  0
   16.0526  -11.3622  -11.0462 O   0  0  0  0  0  0  0  0  0  0  0  0
   16.3045   -9.8410  -12.7221 N   0  0  0  0  0  0  0  0  0  0  0  0
   17.1795   -8.9946  -11.9352 C   0  0  1  0  0  0  0  0  0  0  0  0
   18.4194   -8.6502  -12.7207 C   0  0  0  0  0  0  0  0  0  0  0  0
   19.3626   -7.8955  -11.8318 C   0  0  0  0  0  0  0  0  0  0  0  0
   20.6215   -7.6352  -12.5788 C   0  0  0  0  0  0  0  0  0  0  0  0
   20.9769   -6.4841  -12.8966 O   0  0  0  0  0  0  0  0  0  0  0  0
   16.4642   -7.7855  -11.4493 C   0  0  0  0  0  0  0  0  0  0  0  0
   15.8367   -7.0826  -12.2596 O   0  0  0  0  0  0  0  0  0  0  0  0
   21.4317   -8.7011  -12.9372 O   0  0  0  0  0  0  0  0  0  0  0  0
   14.8531   -5.1385   -7.6405 O   0  0  0  0  0  0  0  0  0  0  0  0
   15.5593   -6.2355   -8.1098 C   0  0  0  0  0  0  0  0  0  0  0  0
   15.6931   -6.2849   -9.5973 C   0  0  2  0  0  0  0  0  0  0  0  0
   16.4640   -7.3903  -10.0859 N   0  0  0  0  0  0  0  0  0  0  0  0
   16.4289   -5.0363  -10.0029 C   0  0  0  0  0  0  0  0  0  0  0  0
   15.8315   -3.7885  -10.0202 O   0  0  0  0  0  0  0  0  0  0  0  0
   17.6312   -5.1423  -10.3369 O   0  0  0  0  0  0  0  0  0  0  0  0
  1  2  1  0
  2  3  2  0
  4  2  1  0
  5  4  1  0
  5  6  1  1
  7  8  2  0
  7  5  1  0
  9  7  1  0
 10 11  1  6
 10  9  1  0
 11 12  1  0
 13 12  1  0
 13 17  1  0
 14 13  2  0
 15 10  1  0
 16 15  2  0
 19 18  1  0
 20 19  1  1
 20 21  1  0
 21 15  1  0
 22 23  1  0
 22 20  1  0
 24 22  2  0
M  END
$$$$
