NES.pdb
     RDKit          3D

 24 23  0  0  1  0  0  0  0  0999 V2000
   12.8499  -12.4130  -11.2694 N   0  0  0  0  0  0  0  0  0  0  0  0
   12.5449  -11.2996  -10.4147 C   0  0  0  0  0  0  0  0  0  0  0  0
   11.3415  -11.1099  -10.1168 O   0  0  0  0  0  0  0  0  0  0  0  0
   13.6308  -10.4460   -9.9340 C   0  0  0  0  0  0  0  0  0  0  0  0
   15.0021  -10.8475  -10.3768 C   0  0  2  0  0  0  0  0  0  0  0  0
   15.3686  -12.0976   -9.7015 N   0  0  0  0  0  0  0  0  0  0  0  0
   15.9622   -9.7756  -10.0278 C   0  0  0  0  0  0  0  0  0  0  0  0
   16.3085   -9.4961   -8.8605 O   0  0  0  0  0  0  0  0  0  0  0  0
   16.5585   -8.9806  -11.0645 N   0  0  0  0  0  0  0  0  0  0  0  0
   17.4659   -7.8841  -10.7898 C   0  0  1  0  0  0  0  0  0  0  0  0
   18.5784   -7.8582  -11.8070 C   0  0  0  0  0  0  0  0  0  0  0  0
   19.4983   -6.7167  -11.4907 C   0  0  0  0  0  0  0  0  0  0  0  0
   20.5815   -6.6771  -12.5083 C   0  0  0  0  0  0  0  0  0  0  0  0
   21.5075   -7.5106  -12.5224 O   0  0  0  0  0  0  0  0  0  0  0  0
   16.7385   -6.5899  -10.7145 C   0  0  0  0  0  0  0  0  0  0  0  0
   15.9463   -6.2831  -11.6215 O   0  0  0  0  0  0  0  0  0  0  0  0
   20.5690   -5.6848  -13.4759 O   0  0  0  0  0  0  0  0  0  0  0  0
   15.0040   -2.9738   -8.0076 O   0  0  0  0  0  0  0  0  0  0  0  0
   15.5435   -4.2390   -8.1824 C   0  0  0  0  0  0  0  0  0  0  0  0
   16.1535   -4.4623   -9.5281 C   0  0  2  0  0  0  0  0  0  0  0  0
   16.9084   -5.6757   -9.6419 N   0  0  0  0  0  0  0  0  0  0  0  0
   17.1217   -3.3322   -9.7524 C   0  0  0  0  0  0  0  0  0  0  0  0
   16.7234   -2.0091   -9.8228 O   0  0  0  0  0  0  0  0  0  0  0  0
   18.3357   -3.6121   -9.8795 O   0  0  0  0  0  0  0  0  0  0  0  0
  1  2  1  0
  2  3  2  0
  4  2  1  0
  5  4  1  0
  5  6  1  1
  7  8  2  0
  7  5  1  0
  9  7  1  0
 10 11  1  6
 10  9  1  0
 11 12  1  0
 13 12  1  0
 13 17  1  0
 14 13  2  0
 15 10  1  0
 16 15  2  0
 19 18  1  0
 20 19  1  1
 20 21  1  0
 21 15  1  0
 22 23  1  0
 22 20  1  0
 24 22  2  0
M  END
$$$$
