EMG.pdb
     RDKit          3D

 22 21  0  0  1  0  0  0  0  0999 V2000
   26.1463  -20.1448  -16.1786 N   0  0  0  0  0  0  0  0  0  0  0  0
   25.0268  -19.5271  -15.4947 C   0  0  1  0  0  0  0  0  0  0  0  0
   23.9606  -19.2239  -16.5275 C   0  0  0  0  0  0  0  0  0  0  0  0
   24.1534  -17.7609  -16.9090 C   0  0  0  0  0  0  0  0  0  0  0  0
   22.9413  -17.1880  -17.5113 C   0  0  0  0  0  0  0  0  0  0  0  0
   22.9681  -16.6406  -18.6319 O   0  0  0  0  0  0  0  0  0  0  0  0
   24.5796  -20.4103  -14.4189 C   0  0  0  0  0  0  0  0  0  0  0  0
   24.0386  -21.5297  -14.6717 O   0  0  0  0  0  0  0  0  0  0  0  0
   21.7488  -17.2566  -16.8242 O   0  0  0  0  0  0  0  0  0  0  0  0
   29.3134  -21.4193   -9.9662 C   0  0  0  0  0  0  0  0  0  0  0  0
   27.6452  -20.7958   -9.6483 S   0  0  0  0  0  0  0  0  0  0  0  0
   26.5186  -21.1509  -11.0053 C   0  0  0  0  0  0  0  0  0  0  0  0
   25.1354  -20.5983  -10.7599 C   0  0  0  0  0  0  0  0  0  0  0  0
   24.2337  -20.8409  -11.9550 C   0  0  2  0  0  0  0  0  0  0  0  0
   24.7438  -20.0287  -13.0503 N   0  0  0  0  0  0  0  0  0  0  0  0
   22.8250  -20.4847  -11.6435 C   0  0  0  0  0  0  0  0  0  0  0  0
   22.4279  -19.3041  -11.7678 O   0  0  0  0  0  0  0  0  0  0  0  0
   21.8776  -21.4420  -11.1989 N   0  0  0  0  0  0  0  0  0  0  0  0
   20.5020  -21.0820  -10.8954 C   0  0  0  0  0  0  0  0  0  0  0  0
   19.5561  -21.7098  -11.8379 C   0  0  0  0  0  0  0  0  0  0  0  0
   19.9963  -22.3119  -12.8445 O   0  0  0  0  0  0  0  0  0  0  0  0
   18.1737  -21.6634  -11.6572 O   0  0  0  0  0  0  0  0  0  0  0  0
  2  1  1  6
  3  2  1  0
  4  3  1  0
  5  4  1  0
  6  5  2  0
  7  8  2  0
  7  2  1  0
  9  5  1  0
 10 11  1  0
 11 12  1  0
 12 13  1  0
 14 13  1  1
 14 15  1  0
 15  7  1  0
 16 18  1  0
 16 14  1  0
 17 16  2  0
 19 20  1  0
 19 18  1  0
 20 22  1  0
 21 20  2  0
M  END
$$$$
