EMG.pdb
     RDKit          3D

 22 21  0  0  1  0  0  0  0  0999 V2000
   26.1717  -19.7225  -13.6225 N   0  0  0  0  0  0  0  0  0  0  0  0
   27.1804  -20.7144  -13.3041 C   0  0  1  0  0  0  0  0  0  0  0  0
   28.5128  -20.2023  -13.8119 C   0  0  0  0  0  0  0  0  0  0  0  0
   28.3727  -20.1054  -15.3265 C   0  0  0  0  0  0  0  0  0  0  0  0
   27.9399  -18.7666  -15.7514 C   0  0  0  0  0  0  0  0  0  0  0  0
   26.8692  -18.5942  -16.3679 O   0  0  0  0  0  0  0  0  0  0  0  0
   27.1525  -20.9777  -11.8663 C   0  0  0  0  0  0  0  0  0  0  0  0
   27.7677  -21.9697  -11.3692 O   0  0  0  0  0  0  0  0  0  0  0  0
   28.7332  -17.6774  -15.4631 O   0  0  0  0  0  0  0  0  0  0  0  0
   29.1703  -19.9098   -6.0846 C   0  0  0  0  0  0  0  0  0  0  0  0
   27.4503  -19.3549   -6.0053 S   0  0  0  0  0  0  0  0  0  0  0  0
   26.4196  -20.1625   -7.2391 C   0  0  0  0  0  0  0  0  0  0  0  0
   26.7957  -19.7666   -8.6465 C   0  0  0  0  0  0  0  0  0  0  0  0
   25.9916  -20.5519   -9.6647 C   0  0  2  0  0  0  0  0  0  0  0  0
   26.4267  -20.1170  -10.9842 N   0  0  0  0  0  0  0  0  0  0  0  0
   24.5339  -20.3239   -9.4865 C   0  0  0  0  0  0  0  0  0  0  0  0
   23.9943  -19.2899   -9.9410 O   0  0  0  0  0  0  0  0  0  0  0  0
   23.6962  -21.2450   -8.8071 N   0  0  0  0  0  0  0  0  0  0  0  0
   22.2650  -21.0292   -8.6696 C   0  0  0  0  0  0  0  0  0  0  0  0
   21.5501  -21.3115   -9.9291 C   0  0  0  0  0  0  0  0  0  0  0  0
   22.1976  -21.6767  -10.9376 O   0  0  0  0  0  0  0  0  0  0  0  0
   20.1658  -21.1891  -10.0507 O   0  0  0  0  0  0  0  0  0  0  0  0
  2  1  1  1
  3  2  1  0
  4  3  1  0
  5  4  1  0
  6  5  2  0
  7  8  2  0
  7  2  1  0
  9  5  1  0
 10 11  1  0
 11 12  1  0
 12 13  1  0
 14 13  1  1
 14 15  1  0
 15  7  1  0
 16 18  1  0
 16 14  1  0
 17 16  2  0
 19 20  1  0
 19 18  1  0
 20 22  1  0
 21 20  2  0
M  END
$$$$
