EMG.pdb
     RDKit          3D

 22 21  0  0  1  0  0  0  0  0999 V2000
   18.0907  -10.2757  -16.8303 N   0  0  0  0  0  0  0  0  0  0  0  0
   17.8027  -10.2729  -15.4092 C   0  0  1  0  0  0  0  0  0  0  0  0
   17.1871  -11.6118  -15.0568 C   0  0  0  0  0  0  0  0  0  0  0  0
   15.8435  -11.6550  -15.7749 C   0  0  0  0  0  0  0  0  0  0  0  0
   15.1965  -12.9685  -15.6468 C   0  0  0  0  0  0  0  0  0  0  0  0
   14.6711  -13.3331  -14.5756 O   0  0  0  0  0  0  0  0  0  0  0  0
   19.0301   -9.9702  -14.6749 C   0  0  0  0  0  0  0  0  0  0  0  0
   19.0385   -9.9120  -13.4075 O   0  0  0  0  0  0  0  0  0  0  0  0
   15.1689  -13.8164  -16.7326 O   0  0  0  0  0  0  0  0  0  0  0  0
   26.9205  -10.3028  -15.1513 C   0  0  0  0  0  0  0  0  0  0  0  0
   25.3017  -10.5158  -15.9302 S   0  0  0  0  0  0  0  0  0  0  0  0
   23.9652   -9.8973  -14.8966 C   0  0  0  0  0  0  0  0  0  0  0  0
   22.6076  -10.1444  -15.5087 C   0  0  0  0  0  0  0  0  0  0  0  0
   21.5122   -9.5067  -14.6758 C   0  0  2  0  0  0  0  0  0  0  0  0
   20.2548   -9.7319  -15.3740 N   0  0  0  0  0  0  0  0  0  0  0  0
   21.7603   -8.0536  -14.4877 C   0  0  0  0  0  0  0  0  0  0  0  0
   22.6644   -7.6600  -13.7167 O   0  0  0  0  0  0  0  0  0  0  0  0
   21.0026   -7.0586  -15.1568 N   0  0  0  0  0  0  0  0  0  0  0  0
   21.2217   -5.6395  -14.9289 C   0  0  0  0  0  0  0  0  0  0  0  0
   22.1885   -5.0781  -15.8918 C   0  0  0  0  0  0  0  0  0  0  0  0
   22.7027   -5.8248  -16.7564 O   0  0  0  0  0  0  0  0  0  0  0  0
   22.5621   -3.7340  -15.8841 O   0  0  0  0  0  0  0  0  0  0  0  0
  2  1  1  6
  3  2  1  0
  4  3  1  0
  5  4  1  0
  6  5  2  0
  7  8  2  0
  7  2  1  0
  9  5  1  0
 10 11  1  0
 11 12  1  0
 12 13  1  0
 14 13  1  6
 14 15  1  0
 15  7  1  0
 16 18  1  0
 16 14  1  0
 17 16  2  0
 19 20  1  0
 19 18  1  0
 20 22  1  0
 21 20  2  0
M  END
$$$$
