EMG.pdb
     RDKit          3D

 22 21  0  0  1  0  0  0  0  0999 V2000
   19.3958  -13.8884  -16.3820 N   0  0  0  0  0  0  0  0  0  0  0  0
   19.1827  -12.5171  -16.8024 C   0  0  1  0  0  0  0  0  0  0  0  0
   17.8136  -12.0886  -16.3152 C   0  0  0  0  0  0  0  0  0  0  0  0
   16.8167  -12.6611  -17.3159 C   0  0  0  0  0  0  0  0  0  0  0  0
   16.5981  -11.7533  -18.4510 C   0  0  0  0  0  0  0  0  0  0  0  0
   16.3810  -12.1888  -19.5997 O   0  0  0  0  0  0  0  0  0  0  0  0
   20.2788  -11.6894  -16.3016 C   0  0  0  0  0  0  0  0  0  0  0  0
   20.4964  -11.5722  -15.0571 O   0  0  0  0  0  0  0  0  0  0  0  0
   16.6335  -10.3916  -18.2430 O   0  0  0  0  0  0  0  0  0  0  0  0
   26.8934  -10.1333  -15.1665 C   0  0  0  0  0  0  0  0  0  0  0  0
   25.4213  -10.8841  -15.9027 S   0  0  0  0  0  0  0  0  0  0  0  0
   24.6869   -9.8374  -17.1684 C   0  0  0  0  0  0  0  0  0  0  0  0
   23.4014  -10.4129  -17.7115 C   0  0  0  0  0  0  0  0  0  0  0  0
   22.2527  -10.1796  -16.7491 C   0  0  2  0  0  0  0  0  0  0  0  0
   21.1345  -10.9901  -17.2096 N   0  0  0  0  0  0  0  0  0  0  0  0
   21.8793   -8.7420  -16.7000 C   0  0  0  0  0  0  0  0  0  0  0  0
   21.4884   -8.1535  -17.7332 O   0  0  0  0  0  0  0  0  0  0  0  0
   21.9449   -7.9782  -15.5066 N   0  0  0  0  0  0  0  0  0  0  0  0
   21.6611   -6.5524  -15.4872 C   0  0  0  0  0  0  0  0  0  0  0  0
   21.8633   -5.9770  -14.1437 C   0  0  0  0  0  0  0  0  0  0  0  0
   21.7912   -4.7362  -13.9867 O   0  0  0  0  0  0  0  0  0  0  0  0
   22.1348   -6.7625  -13.0233 O   0  0  0  0  0  0  0  0  0  0  0  0
  2  1  1  1
  3  2  1  0
  4  3  1  0
  5  4  1  0
  6  5  2  0
  7  8  2  0
  7  2  1  0
  9  5  1  0
 10 11  1  0
 11 12  1  0
 12 13  1  0
 14 13  1  6
 14 15  1  0
 15  7  1  0
 16 18  1  0
 16 14  1  0
 17 16  2  0
 19 20  1  0
 19 18  1  0
 20 22  1  0
 21 20  2  0
M  END
$$$$
