EMG.pdb
     RDKit          3D

 22 21  0  0  1  0  0  0  0  0999 V2000
   12.0978  -17.4913    2.9170 N   0  0  0  0  0  0  0  0  0  0  0  0
   13.1608  -16.8505    3.6667 C   0  0  1  0  0  0  0  0  0  0  0  0
   12.6794  -16.6661    5.0914 C   0  0  0  0  0  0  0  0  0  0  0  0
   12.5916  -15.1603    5.3104 C   0  0  0  0  0  0  0  0  0  0  0  0
   12.1773  -14.8299    6.6812 C   0  0  0  0  0  0  0  0  0  0  0  0
   12.9718  -14.9148    7.6393 O   0  0  0  0  0  0  0  0  0  0  0  0
   14.3775  -17.6525    3.5484 C   0  0  0  0  0  0  0  0  0  0  0  0
   14.3231  -18.8898    3.2728 O   0  0  0  0  0  0  0  0  0  0  0  0
   10.8835  -14.4172    6.9146 O   0  0  0  0  0  0  0  0  0  0  0  0
   21.6992  -17.0050    1.5753 C   0  0  0  0  0  0  0  0  0  0  0  0
   20.0059  -17.2752    0.9989 S   0  0  0  0  0  0  0  0  0  0  0  0
   18.9679  -18.0170    2.2674 C   0  0  0  0  0  0  0  0  0  0  0  0
   17.6941  -17.2386    2.4915 C   0  0  0  0  0  0  0  0  0  0  0  0
   16.8951  -17.8237    3.6401 C   0  0  2  0  0  0  0  0  0  0  0  0
   15.6626  -17.0554    3.7420 N   0  0  0  0  0  0  0  0  0  0  0  0
   17.6626  -17.7636    4.9112 C   0  0  0  0  0  0  0  0  0  0  0  0
   18.0052  -16.6602    5.3927 O   0  0  0  0  0  0  0  0  0  0  0  0
   18.0390  -18.9272    5.6296 N   0  0  0  0  0  0  0  0  0  0  0  0
   18.8393  -18.8600    6.8416 C   0  0  0  0  0  0  0  0  0  0  0  0
   20.1556  -19.5011    6.6591 C   0  0  0  0  0  0  0  0  0  0  0  0
   20.3844  -20.1538    5.6145 O   0  0  0  0  0  0  0  0  0  0  0  0
   21.1724  -19.4127    7.6100 O   0  0  0  0  0  0  0  0  0  0  0  0
  2  1  1  6
  3  2  1  0
  4  3  1  0
  5  4  1  0
  6  5  2  0
  7  8  2  0
  7  2  1  0
  9  5  1  0
 10 11  1  0
 11 12  1  0
 12 13  1  0
 14 13  1  6
 14 15  1  0
 15  7  1  0
 16 18  1  0
 16 14  1  0
 17 16  2  0
 19 20  1  0
 19 18  1  0
 20 22  1  0
 21 20  2  0
M  END
$$$$
