EMG.pdb
     RDKit          3D

 22 21  0  0  1  0  0  0  0  0999 V2000
   26.4505  -18.0637  -14.3649 N   0  0  0  0  0  0  0  0  0  0  0  0
   26.5084  -17.0511  -15.4012 C   0  0  1  0  0  0  0  0  0  0  0  0
   25.6822  -17.5383  -16.5742 C   0  0  0  0  0  0  0  0  0  0  0  0
   24.9303  -18.7658  -16.0735 C   0  0  0  0  0  0  0  0  0  0  0  0
   24.0962  -19.3636  -17.1257 C   0  0  0  0  0  0  0  0  0  0  0  0
   22.8513  -19.2936  -17.0873 O   0  0  0  0  0  0  0  0  0  0  0  0
   26.0599  -15.7752  -14.8462 C   0  0  0  0  0  0  0  0  0  0  0  0
   26.3862  -15.4195  -13.6729 O   0  0  0  0  0  0  0  0  0  0  0  0
   24.7013  -20.0156  -18.1781 O   0  0  0  0  0  0  0  0  0  0  0  0
   26.2753   -8.6212  -15.9225 C   0  0  0  0  0  0  0  0  0  0  0  0
   26.0593  -10.3614  -16.3670 S   0  0  0  0  0  0  0  0  0  0  0  0
   26.6399  -11.4689  -15.0734 C   0  0  0  0  0  0  0  0  0  0  0  0
   26.5798  -12.9181  -15.4916 C   0  0  0  0  0  0  0  0  0  0  0  0
   25.1725  -13.4658  -15.3517 C   0  0  2  0  0  0  0  0  0  0  0  0
   25.2388  -14.8953  -15.6191 N   0  0  0  0  0  0  0  0  0  0  0  0
   24.2406  -12.7938  -16.2942 C   0  0  0  0  0  0  0  0  0  0  0  0
   24.5391  -12.6761  -17.5041 O   0  0  0  0  0  0  0  0  0  0  0  0
   22.9919  -12.2624  -15.8818 N   0  0  0  0  0  0  0  0  0  0  0  0
   22.8445  -11.5090  -14.6471 C   0  0  0  0  0  0  0  0  0  0  0  0
   22.7816  -10.0570  -14.9015 C   0  0  0  0  0  0  0  0  0  0  0  0
   23.1113   -9.2569  -13.9955 O   0  0  0  0  0  0  0  0  0  0  0  0
   22.3659   -9.5257  -16.1226 O   0  0  0  0  0  0  0  0  0  0  0  0
  2  1  1  1
  3  2  1  0
  4  3  1  0
  5  4  1  0
  6  5  2  0
  7  8  2  0
  7  2  1  0
  9  5  1  0
 10 11  1  0
 11 12  1  0
 12 13  1  0
 14 13  1  6
 14 15  1  0
 15  7  1  0
 16 18  1  0
 16 14  1  0
 17 16  2  0
 19 20  1  0
 19 18  1  0
 20 22  1  0
 21 20  2  0
M  END
$$$$
