EMG.pdb
     RDKit          3D

 22 21  0  0  1  0  0  0  0  0999 V2000
   21.0502  -11.8885  -17.2936 N   0  0  0  0  0  0  0  0  0  0  0  0
   20.1057  -11.4524  -16.2835 C   0  0  1  0  0  0  0  0  0  0  0  0
   19.6362  -12.6776  -15.5258 C   0  0  0  0  0  0  0  0  0  0  0  0
   18.9548  -13.5697  -16.5567 C   0  0  0  0  0  0  0  0  0  0  0  0
   18.4987  -14.8368  -15.9678 C   0  0  0  0  0  0  0  0  0  0  0  0
   17.3069  -15.1975  -16.0434 O   0  0  0  0  0  0  0  0  0  0  0  0
   20.7414  -10.4396  -15.4424 C   0  0  0  0  0  0  0  0  0  0  0  0
   20.2048  -10.0563  -14.3585 O   0  0  0  0  0  0  0  0  0  0  0  0
   19.4063  -15.6446  -15.3179 O   0  0  0  0  0  0  0  0  0  0  0  0
   26.8931  -12.2576  -15.2164 C   0  0  0  0  0  0  0  0  0  0  0  0
   26.2018  -10.6866  -15.7879 S   0  0  0  0  0  0  0  0  0  0  0  0
   24.7691  -10.1848  -14.8221 C   0  0  0  0  0  0  0  0  0  0  0  0
   24.1386   -8.9187  -15.3496 C   0  0  0  0  0  0  0  0  0  0  0  0
   22.6632   -8.8617  -15.0032 C   0  0  2  0  0  0  0  0  0  0  0  0
   21.9896   -9.8559  -15.8260 N   0  0  0  0  0  0  0  0  0  0  0  0
   22.1075   -7.5057  -15.2505 C   0  0  0  0  0  0  0  0  0  0  0  0
   21.7581   -7.1650  -16.4032 O   0  0  0  0  0  0  0  0  0  0  0  0
   21.9475   -6.5478  -14.2169 N   0  0  0  0  0  0  0  0  0  0  0  0
   21.4213   -5.2170  -14.4737 C   0  0  0  0  0  0  0  0  0  0  0  0
   22.4785   -4.2938  -14.9285 C   0  0  0  0  0  0  0  0  0  0  0  0
   23.6459   -4.7211  -15.0840 O   0  0  0  0  0  0  0  0  0  0  0  0
   22.2347   -2.9468  -15.1976 O   0  0  0  0  0  0  0  0  0  0  0  0
  2  1  1  6
  3  2  1  0
  4  3  1  0
  5  4  1  0
  6  5  2  0
  7  8  2  0
  7  2  1  0
  9  5  1  0
 10 11  1  0
 11 12  1  0
 12 13  1  0
 14 13  1  6
 14 15  1  0
 15  7  1  0
 16 18  1  0
 16 14  1  0
 17 16  2  0
 19 20  1  0
 19 18  1  0
 20 22  1  0
 21 20  2  0
M  END
$$$$
