EMG.pdb
     RDKit          3D

 22 21  0  0  1  0  0  0  0  0999 V2000
   26.8422  -22.2629  -14.4000 N   0  0  0  0  0  0  0  0  0  0  0  0
   26.8026  -21.0158  -13.6611 C   0  0  1  0  0  0  0  0  0  0  0  0
   26.0506  -20.0022  -14.4993 C   0  0  0  0  0  0  0  0  0  0  0  0
   27.0979  -19.0125  -14.9960 C   0  0  0  0  0  0  0  0  0  0  0  0
   27.3554  -19.1643  -16.4350 C   0  0  0  0  0  0  0  0  0  0  0  0
   26.5206  -19.6991  -17.1923 O   0  0  0  0  0  0  0  0  0  0  0  0
   26.2096  -21.2592  -12.3471 C   0  0  0  0  0  0  0  0  0  0  0  0
   25.3346  -22.1626  -12.1797 O   0  0  0  0  0  0  0  0  0  0  0  0
   28.5441  -18.7065  -16.9603 O   0  0  0  0  0  0  0  0  0  0  0  0
   26.5953  -20.6379   -4.7553 C   0  0  0  0  0  0  0  0  0  0  0  0
   27.3105  -20.3456   -6.3911 S   0  0  0  0  0  0  0  0  0  0  0  0
   26.0826  -19.7756   -7.5761 C   0  0  0  0  0  0  0  0  0  0  0  0
   26.6472  -19.6532   -8.9707 C   0  0  0  0  0  0  0  0  0  0  0  0
   25.9292  -20.5821   -9.9308 C   0  0  2  0  0  0  0  0  0  0  0  0
   26.6059  -20.4793  -11.2156 N   0  0  0  0  0  0  0  0  0  0  0  0
   24.4946  -20.2158  -10.0575 C   0  0  0  0  0  0  0  0  0  0  0  0
   24.1427  -19.2885  -10.8212 O   0  0  0  0  0  0  0  0  0  0  0  0
   23.4715  -20.8825   -9.3361 N   0  0  0  0  0  0  0  0  0  0  0  0
   22.0949  -20.4146   -9.3401 C   0  0  0  0  0  0  0  0  0  0  0  0
   21.3906  -20.8109  -10.5745 C   0  0  0  0  0  0  0  0  0  0  0  0
   22.0045  -21.4572  -11.4548 O   0  0  0  0  0  0  0  0  0  0  0  0
   20.0525  -20.4947  -10.8103 O   0  0  0  0  0  0  0  0  0  0  0  0
  2  1  1  6
  3  2  1  0
  4  3  1  0
  5  4  1  0
  6  5  2  0
  7  8  2  0
  7  2  1  0
  9  5  1  0
 10 11  1  0
 11 12  1  0
 12 13  1  0
 14 13  1  1
 14 15  1  0
 15  7  1  0
 16 18  1  0
 16 14  1  0
 17 16  2  0
 19 20  1  0
 19 18  1  0
 20 22  1  0
 21 20  2  0
M  END
$$$$
