EMG.pdb
     RDKit          3D

 22 21  0  0  1  0  0  0  0  0999 V2000
   26.2297  -21.2192  -16.4090 N   0  0  0  0  0  0  0  0  0  0  0  0
   25.2346  -22.2545  -16.2075 C   0  0  1  0  0  0  0  0  0  0  0  0
   25.8370  -23.5716  -16.6526 C   0  0  0  0  0  0  0  0  0  0  0  0
   26.3535  -23.3371  -18.0673 C   0  0  0  0  0  0  0  0  0  0  0  0
   26.9588  -24.5492  -18.6368 C   0  0  0  0  0  0  0  0  0  0  0  0
   26.2644  -25.4224  -19.1950 O   0  0  0  0  0  0  0  0  0  0  0  0
   24.8062  -22.2380  -14.8098 C   0  0  0  0  0  0  0  0  0  0  0  0
   24.0241  -23.1265  -14.3531 O   0  0  0  0  0  0  0  0  0  0  0  0
   28.3228  -24.7261  -18.5530 O   0  0  0  0  0  0  0  0  0  0  0  0
   25.4918  -21.1436   -7.5542 C   0  0  0  0  0  0  0  0  0  0  0  0
   26.1070  -21.2608   -9.2514 S   0  0  0  0  0  0  0  0  0  0  0  0
   25.2940  -20.0905  -10.3498 C   0  0  0  0  0  0  0  0  0  0  0  0
   25.7364  -20.2501  -11.7842 C   0  0  0  0  0  0  0  0  0  0  0  0
   24.7309  -21.0645  -12.5752 C   0  0  2  0  0  0  0  0  0  0  0  0
   25.2626  -21.2135  -13.9223 N   0  0  0  0  0  0  0  0  0  0  0  0
   23.4034  -20.3968  -12.6012 C   0  0  0  0  0  0  0  0  0  0  0  0
   23.3099  -19.1651  -12.3990 O   0  0  0  0  0  0  0  0  0  0  0  0
   22.1996  -21.1042  -12.8506 N   0  0  0  0  0  0  0  0  0  0  0  0
   20.9107  -20.4345  -12.9134 C   0  0  0  0  0  0  0  0  0  0  0  0
   19.8318  -21.3679  -13.2901 C   0  0  0  0  0  0  0  0  0  0  0  0
   20.1224  -22.5262  -13.6688 O   0  0  0  0  0  0  0  0  0  0  0  0
   18.4830  -21.0151  -13.2432 O   0  0  0  0  0  0  0  0  0  0  0  0
  2  1  1  1
  3  2  1  0
  4  3  1  0
  5  4  1  0
  6  5  2  0
  7  8  2  0
  7  2  1  0
  9  5  1  0
 10 11  1  0
 11 12  1  0
 12 13  1  0
 14 13  1  1
 14 15  1  0
 15  7  1  0
 16 18  1  0
 16 14  1  0
 17 16  2  0
 19 20  1  0
 19 18  1  0
 20 22  1  0
 21 20  2  0
M  END
$$$$
