EMG.pdb
     RDKit          3D

 22 21  0  0  1  0  0  0  0  0999 V2000
   19.5936  -13.3110  -17.1680 N   0  0  0  0  0  0  0  0  0  0  0  0
   19.5140  -11.8782  -16.9599 C   0  0  1  0  0  0  0  0  0  0  0  0
   18.2990  -11.6000  -16.0985 C   0  0  0  0  0  0  0  0  0  0  0  0
   17.1117  -11.5571  -17.0532 C   0  0  0  0  0  0  0  0  0  0  0  0
   15.8773  -11.1405  -16.3730 C   0  0  0  0  0  0  0  0  0  0  0  0
   15.0032  -11.9685  -16.0466 O   0  0  0  0  0  0  0  0  0  0  0  0
   20.7729  -11.4099  -16.3828 C   0  0  0  0  0  0  0  0  0  0  0  0
   21.6160  -12.2254  -15.8991 O   0  0  0  0  0  0  0  0  0  0  0  0
   15.6801   -9.8066  -16.0890 O   0  0  0  0  0  0  0  0  0  0  0  0
   27.1679  -10.5977  -15.0507 C   0  0  0  0  0  0  0  0  0  0  0  0
   25.4583  -10.9901  -15.4933 S   0  0  0  0  0  0  0  0  0  0  0  0
   24.8009   -9.8591  -16.7285 C   0  0  0  0  0  0  0  0  0  0  0  0
   23.3606  -10.1573  -17.0681 C   0  0  0  0  0  0  0  0  0  0  0  0
   22.4224   -9.5260  -16.0575 C   0  0  2  0  0  0  0  0  0  0  0  0
   21.0826  -10.0140  -16.3511 N   0  0  0  0  0  0  0  0  0  0  0  0
   22.4738   -8.0427  -16.1334 C   0  0  0  0  0  0  0  0  0  0  0  0
   22.6415   -7.4703  -17.2339 O   0  0  0  0  0  0  0  0  0  0  0  0
   22.3386   -7.2162  -14.9887 N   0  0  0  0  0  0  0  0  0  0  0  0
   22.3388   -5.7652  -15.0811 C   0  0  0  0  0  0  0  0  0  0  0  0
   22.1777   -5.1370  -13.7558 C   0  0  0  0  0  0  0  0  0  0  0  0
   22.3309   -3.8993  -13.6369 O   0  0  0  0  0  0  0  0  0  0  0  0
   21.8578   -5.8684  -12.6117 O   0  0  0  0  0  0  0  0  0  0  0  0
  2  1  1  1
  3  2  1  0
  4  3  1  0
  5  4  1  0
  6  5  2  0
  7  8  2  0
  7  2  1  0
  9  5  1  0
 10 11  1  0
 11 12  1  0
 12 13  1  0
 14 13  1  6
 14 15  1  0
 15  7  1  0
 16 18  1  0
 16 14  1  0
 17 16  2  0
 19 20  1  0
 19 18  1  0
 20 22  1  0
 21 20  2  0
M  END
$$$$
