EMG.pdb
     RDKit          3D

 22 21  0  0  1  0  0  0  0  0999 V2000
   20.7478  -20.5253  -10.4660 N   0  0  0  0  0  0  0  0  0  0  0  0
   21.8607  -21.0304  -11.2464 C   0  0  1  0  0  0  0  0  0  0  0  0
   21.5441  -20.8013  -12.7103 C   0  0  0  0  0  0  0  0  0  0  0  0
   20.5803  -21.9132  -13.1076 C   0  0  0  0  0  0  0  0  0  0  0  0
   20.1573  -21.7955  -14.5102 C   0  0  0  0  0  0  0  0  0  0  0  0
   20.5771  -22.5805  -15.3842 O   0  0  0  0  0  0  0  0  0  0  0  0
   23.0916  -20.3835  -10.7952 C   0  0  0  0  0  0  0  0  0  0  0  0
   23.2429  -19.1270  -10.8846 O   0  0  0  0  0  0  0  0  0  0  0  0
   19.2782  -20.7970  -14.8689 O   0  0  0  0  0  0  0  0  0  0  0  0
   28.5907  -18.7879   -6.2955 C   0  0  0  0  0  0  0  0  0  0  0  0
   27.0036  -19.4916   -6.8042 S   0  0  0  0  0  0  0  0  0  0  0  0
   27.1943  -20.7371   -8.0884 C   0  0  0  0  0  0  0  0  0  0  0  0
   25.8667  -21.2710   -8.5691 C   0  0  0  0  0  0  0  0  0  0  0  0
   25.4183  -20.5565   -9.8295 C   0  0  2  0  0  0  0  0  0  0  0  0
   24.1578  -21.1583  -10.2397 N   0  0  0  0  0  0  0  0  0  0  0  0
   26.4371  -20.6776  -10.9045 C   0  0  0  0  0  0  0  0  0  0  0  0
   27.5813  -20.1941  -10.7502 O   0  0  0  0  0  0  0  0  0  0  0  0
   26.1727  -21.3327  -12.1344 N   0  0  0  0  0  0  0  0  0  0  0  0
   27.1890  -21.4802  -13.1635 C   0  0  0  0  0  0  0  0  0  0  0  0
   27.0290  -20.4757  -14.2324 C   0  0  0  0  0  0  0  0  0  0  0  0
   27.5122  -19.3299  -14.0796 O   0  0  0  0  0  0  0  0  0  0  0  0
   26.3547  -20.7468  -15.4231 O   0  0  0  0  0  0  0  0  0  0  0  0
  2  1  1  1
  3  2  1  0
  4  3  1  0
  5  4  1  0
  6  5  2  0
  7  8  2  0
  7  2  1  0
  9  5  1  0
 10 11  1  0
 11 12  1  0
 12 13  1  0
 14 13  1  1
 14 15  1  0
 15  7  1  0
 16 18  1  0
 16 14  1  0
 17 16  2  0
 19 20  1  0
 19 18  1  0
 20 22  1  0
 21 20  2  0
M  END
$$$$
