EMG.pdb
     RDKit          3D

 22 21  0  0  1  0  0  0  0  0999 V2000
   23.4200  -11.4268  -20.6638 N   0  0  0  0  0  0  0  0  0  0  0  0
   24.5826  -10.7162  -20.1677 C   0  0  1  0  0  0  0  0  0  0  0  0
   24.7852   -9.4918  -21.0369 C   0  0  0  0  0  0  0  0  0  0  0  0
   25.5192   -9.9798  -22.2804 C   0  0  0  0  0  0  0  0  0  0  0  0
   26.4838   -8.9858  -22.7719 C   0  0  0  0  0  0  0  0  0  0  0  0
   27.2010   -9.2121  -23.7672 O   0  0  0  0  0  0  0  0  0  0  0  0
   24.3878  -10.4146  -18.7505 C   0  0  0  0  0  0  0  0  0  0  0  0
   23.3561  -10.8156  -18.1305 O   0  0  0  0  0  0  0  0  0  0  0  0
   26.5993   -7.7773  -22.1201 O   0  0  0  0  0  0  0  0  0  0  0  0
   29.0604  -12.4127  -16.7711 C   0  0  0  0  0  0  0  0  0  0  0  0
   27.9338  -12.2324  -15.3673 S   0  0  0  0  0  0  0  0  0  0  0  0
   26.3709  -11.4796  -15.8443 C   0  0  0  0  0  0  0  0  0  0  0  0
   26.4626   -9.9752  -15.9281 C   0  0  0  0  0  0  0  0  0  0  0  0
   25.2353   -9.3930  -16.6025 C   0  0  2  0  0  0  0  0  0  0  0  0
   25.3625   -9.6567  -18.0286 N   0  0  0  0  0  0  0  0  0  0  0  0
   25.1229   -7.9343  -16.3420 C   0  0  0  0  0  0  0  0  0  0  0  0
   26.0288   -7.1533  -16.7111 O   0  0  0  0  0  0  0  0  0  0  0  0
   24.0083   -7.3629  -15.6765 N   0  0  0  0  0  0  0  0  0  0  0  0
   23.8949   -5.9308  -15.4528 C   0  0  0  0  0  0  0  0  0  0  0  0
   22.6145   -5.5819  -14.8079 C   0  0  0  0  0  0  0  0  0  0  0  0
   22.4267   -4.4115  -14.4023 O   0  0  0  0  0  0  0  0  0  0  0  0
   21.5878   -6.5087  -14.6264 O   0  0  0  0  0  0  0  0  0  0  0  0
  2  1  1  6
  3  2  1  0
  4  3  1  0
  5  4  1  0
  6  5  2  0
  7  8  2  0
  7  2  1  0
  9  5  1  0
 10 11  1  0
 11 12  1  0
 12 13  1  0
 14 13  1  1
 14 15  1  0
 15  7  1  0
 16 18  1  0
 16 14  1  0
 17 16  2  0
 19 20  1  0
 19 18  1  0
 20 22  1  0
 21 20  2  0
M  END
$$$$
