ERS.pdb
     RDKit          3D

 27 26  0  0  1  0  0  0  0  0999 V2000
   14.6237  -15.6677   18.0832 N   0  0  0  0  0  0  0  0  0  0  0  0
   13.3496  -16.3535   18.2568 C   0  0  1  0  0  0  0  0  0  0  0  0
   13.5691  -17.8012   17.9812 C   0  0  0  0  0  0  0  0  0  0  0  0
   14.4519  -18.5177   18.9502 C   0  0  0  0  0  0  0  0  0  0  0  0
   14.6995  -19.9368   18.6316 C   0  0  0  0  0  0  0  0  0  0  0  0
   14.2092  -20.4780   17.6148 O   0  0  0  0  0  0  0  0  0  0  0  0
   12.8066  -16.0891   19.6300 C   0  0  0  0  0  0  0  0  0  0  0  0
   13.5733  -15.9885   20.6163 O   0  0  0  0  0  0  0  0  0  0  0  0
   15.5034  -20.6545   19.5099 O   0  0  0  0  0  0  0  0  0  0  0  0
    8.5429  -11.7304   19.3491 N   0  0  0  0  0  0  0  0  0  0  0  0
    7.8944  -12.8404   18.7521 C   0  0  0  0  0  0  0  0  0  0  0  0
    7.7941  -12.9697   17.4645 N   0  0  0  0  0  0  0  0  0  0  0  0
    7.3416  -13.8336   19.6057 N   0  0  0  0  0  0  0  0  0  0  0  0
    7.5471  -13.8423   21.0238 C   0  0  0  0  0  0  0  0  0  0  0  0
    9.0283  -14.0035   21.3801 C   0  0  0  0  0  0  0  0  0  0  0  0
    9.4187  -15.3942   21.0289 C   0  0  0  0  0  0  0  0  0  0  0  0
   10.8904  -15.7115   21.2263 C   0  0  2  0  0  0  0  0  0  0  0  0
   11.4181  -15.9426   19.8686 N   0  0  0  0  0  0  0  0  0  0  0  0
   11.0825  -16.8944   22.0690 C   0  0  0  0  0  0  0  0  0  0  0  0
   10.8490  -18.0577   21.6597 O   0  0  0  0  0  0  0  0  0  0  0  0
    7.3004  -13.7920   17.0659 O   0  0  0  0  0  0  0  0  0  0  0  0
   13.7936  -17.0189   25.0847 C   0  0  0  0  0  0  0  0  0  0  0  0
   13.1921  -18.1833   24.6302 C   0  0  1  0  0  0  0  0  0  0  0  0
   11.7391  -17.9753   24.2479 N   0  0  0  0  0  0  0  0  0  0  0  0
   11.5525  -16.8175   23.4266 C   0  0  0  0  0  0  0  0  0  0  0  0
   10.9278  -17.8264   25.4794 O   0  0  0  0  0  0  0  0  0  0  0  0
   10.1835  -16.8113   25.5585 O   0  0  0  0  0  0  0  0  0  0  0  0
  2  7  1  0
  2  1  1  1
  3  2  1  0
  4  3  1  0
  5  4  1  0
  5  6  2  0
  7  8  2  0
  9  5  1  0
 10 11  1  0
 11 12  2  0
 11 13  1  0
 13 14  1  0
 14 15  1  0
 17 16  1  6
 16 15  1  0
 18 17  1  0
 18  7  1  0
 19 17  1  0
 20 19  2  0
 21 22  1  0
 23 22  1  6
 23 25  1  0
 23 24  1  0
 24 19  1  0
 25 27  1  0
 26 25  2  0
M  END
$$$$
