ERS.pdb
     RDKit          3D

 27 26  0  0  1  0  0  0  0  0999 V2000
   16.2821  -13.7967   14.6526 N   0  0  0  0  0  0  0  0  0  0  0  0
   16.0632  -15.0509   15.3616 C   0  0  1  0  0  0  0  0  0  0  0  0
   17.3942  -15.6721   15.6120 C   0  0  0  0  0  0  0  0  0  0  0  0
   18.3051  -14.9079   16.5163 C   0  0  0  0  0  0  0  0  0  0  0  0
   19.6504  -15.4913   16.6789 C   0  0  0  0  0  0  0  0  0  0  0  0
   19.9899  -16.5382   16.0824 O   0  0  0  0  0  0  0  0  0  0  0  0
   15.2818  -14.8017   16.6178 C   0  0  0  0  0  0  0  0  0  0  0  0
   15.4988  -13.7859   17.3192 O   0  0  0  0  0  0  0  0  0  0  0  0
   20.5321  -14.8293   17.5257 O   0  0  0  0  0  0  0  0  0  0  0  0
    8.1024  -12.7012   16.3857 N   0  0  0  0  0  0  0  0  0  0  0  0
    8.2868  -14.1020   16.2726 C   0  0  0  0  0  0  0  0  0  0  0  0
    8.1980  -14.7194   15.1343 N   0  0  0  0  0  0  0  0  0  0  0  0
    8.5769  -14.8384   17.4533 N   0  0  0  0  0  0  0  0  0  0  0  0
    9.6961  -15.7269   17.5605 C   0  0  0  0  0  0  0  0  0  0  0  0
   10.9849  -14.9745   17.9064 C   0  0  0  0  0  0  0  0  0  0  0  0
   12.0851  -15.9737   17.9384 C   0  0  0  0  0  0  0  0  0  0  0  0
   13.4561  -15.4015   18.2517 C   0  0  2  0  0  0  0  0  0  0  0  0
   14.2751  -15.6942   17.0605 N   0  0  0  0  0  0  0  0  0  0  0  0
   14.0391  -16.0128   19.4487 C   0  0  0  0  0  0  0  0  0  0  0  0
   14.4492  -17.1989   19.4670 O   0  0  0  0  0  0  0  0  0  0  0  0
    7.3154  -15.2032   14.8778 O   0  0  0  0  0  0  0  0  0  0  0  0
   16.6299  -14.2957   22.0482 C   0  0  0  0  0  0  0  0  0  0  0  0
   15.5301  -14.8459   22.6900 C   0  0  2  0  0  0  0  0  0  0  0  0
   14.8203  -15.8825   21.8403 N   0  0  0  0  0  0  0  0  0  0  0  0
   14.1879  -15.3055   20.6926 C   0  0  0  0  0  0  0  0  0  0  0  0
   13.7931  -16.5656   22.6619 O   0  0  0  0  0  0  0  0  0  0  0  0
   12.5914  -16.4432   22.2990 O   0  0  0  0  0  0  0  0  0  0  0  0
  2  7  1  0
  2  1  1  1
  3  2  1  0
  4  3  1  0
  5  4  1  0
  5  6  2  0
  7  8  2  0
  9  5  1  0
 10 11  1  0
 11 12  2  0
 11 13  1  0
 13 14  1  0
 14 15  1  0
 17 16  1  6
 16 15  1  0
 18 17  1  0
 18  7  1  0
 19 17  1  0
 20 19  2  0
 21 22  1  0
 23 22  1  6
 23 25  1  0
 23 24  1  0
 24 19  1  0
 25 27  1  0
 26 25  2  0
M  END
$$$$
