ERS.pdb
     RDKit          3D

 27 26  0  0  1  0  0  0  0  0999 V2000
   14.5247  -17.5688   16.2135 N   0  0  0  0  0  0  0  0  0  0  0  0
   13.5134  -18.3174   16.9488 C   0  0  1  0  0  0  0  0  0  0  0  0
   14.0256  -19.7024   17.1481 C   0  0  0  0  0  0  0  0  0  0  0  0
   15.2473  -19.8241   17.9991 C   0  0  0  0  0  0  0  0  0  0  0  0
   15.7511  -21.2005   18.1678 C   0  0  0  0  0  0  0  0  0  0  0  0
   16.9254  -21.5127   17.8667 O   0  0  0  0  0  0  0  0  0  0  0  0
   13.1891  -17.6166   18.2350 C   0  0  0  0  0  0  0  0  0  0  0  0
   14.1005  -17.2115   18.9941 O   0  0  0  0  0  0  0  0  0  0  0  0
   14.8657  -22.1434   18.6773 O   0  0  0  0  0  0  0  0  0  0  0  0
    7.4988  -12.6728   20.9776 N   0  0  0  0  0  0  0  0  0  0  0  0
    7.2916  -13.3655   19.7585 C   0  0  0  0  0  0  0  0  0  0  0  0
    6.6934  -12.8157   18.7463 N   0  0  0  0  0  0  0  0  0  0  0  0
    7.7596  -14.7040   19.6591 N   0  0  0  0  0  0  0  0  0  0  0  0
    7.9957  -15.5324   20.8043 C   0  0  0  0  0  0  0  0  0  0  0  0
    9.4928  -15.7427   21.0518 C   0  0  0  0  0  0  0  0  0  0  0  0
   10.0485  -16.4205   19.8511 C   0  0  0  0  0  0  0  0  0  0  0  0
   11.5428  -16.6844   19.9032 C   0  0  2  0  0  0  0  0  0  0  0  0
   11.8527  -17.3843   18.6425 N   0  0  0  0  0  0  0  0  0  0  0  0
   11.9090  -17.5060   21.0597 C   0  0  0  0  0  0  0  0  0  0  0  0
   11.6671  -18.7363   21.1150 O   0  0  0  0  0  0  0  0  0  0  0  0
    6.5758  -13.3512   17.8640 O   0  0  0  0  0  0  0  0  0  0  0  0
   14.8685  -18.8635   24.3758 C   0  0  0  0  0  0  0  0  0  0  0  0
   14.4624  -18.1063   23.2868 C   0  0  1  0  0  0  0  0  0  0  0  0
   12.9803  -17.7860   23.3226 N   0  0  0  0  0  0  0  0  0  0  0  0
   12.5725  -16.9707   22.2185 C   0  0  0  0  0  0  0  0  0  0  0  0
   12.6655  -17.0766   24.5854 O   0  0  0  0  0  0  0  0  0  0  0  0
   12.9866  -17.6493   25.6623 O   0  0  0  0  0  0  0  0  0  0  0  0
  2  7  1  0
  2  1  1  1
  3  2  1  0
  4  3  1  0
  5  4  1  0
  5  6  2  0
  7  8  2  0
  9  5  1  0
 10 11  1  0
 11 12  2  0
 11 13  1  0
 13 14  1  0
 14 15  1  0
 17 16  1  1
 16 15  1  0
 18 17  1  0
 18  7  1  0
 19 17  1  0
 20 19  2  0
 21 22  1  0
 23 22  1  6
 23 25  1  0
 23 24  1  0
 24 19  1  0
 25 27  1  0
 26 25  2  0
M  END
$$$$
