ERS.pdb
     RDKit          3D

 27 26  0  0  1  0  0  0  0  0999 V2000
   13.1570  -17.8471   18.6220 N   0  0  0  0  0  0  0  0  0  0  0  0
   13.9808  -16.8495   19.2926 C   0  0  1  0  0  0  0  0  0  0  0  0
   14.5180  -15.9272   18.2529 C   0  0  0  0  0  0  0  0  0  0  0  0
   15.4171  -14.8434   18.7516 C   0  0  0  0  0  0  0  0  0  0  0  0
   15.8783  -13.8959   17.7191 C   0  0  0  0  0  0  0  0  0  0  0  0
   15.5694  -12.6832   17.7540 O   0  0  0  0  0  0  0  0  0  0  0  0
   13.1795  -16.1469   20.3486 C   0  0  0  0  0  0  0  0  0  0  0  0
   13.7000  -15.2635   21.0693 O   0  0  0  0  0  0  0  0  0  0  0  0
   16.6742  -14.4050   16.6992 O   0  0  0  0  0  0  0  0  0  0  0  0
    7.5776  -14.7890   17.5382 N   0  0  0  0  0  0  0  0  0  0  0  0
    7.7929  -13.4956   18.0765 C   0  0  0  0  0  0  0  0  0  0  0  0
    8.1676  -12.4956   17.3390 N   0  0  0  0  0  0  0  0  0  0  0  0
    7.5879  -13.3060   19.4703 N   0  0  0  0  0  0  0  0  0  0  0  0
    7.9444  -14.2894   20.4497 C   0  0  0  0  0  0  0  0  0  0  0  0
    9.3011  -14.9302   20.1406 C   0  0  0  0  0  0  0  0  0  0  0  0
    9.6168  -15.8580   21.2584 C   0  0  0  0  0  0  0  0  0  0  0  0
   11.0697  -15.8527   21.6993 C   0  0  2  0  0  0  0  0  0  0  0  0
   11.8140  -16.4482   20.5739 N   0  0  0  0  0  0  0  0  0  0  0  0
   11.2679  -16.6300   22.9253 C   0  0  0  0  0  0  0  0  0  0  0  0
   11.8579  -17.7378   22.9320 O   0  0  0  0  0  0  0  0  0  0  0  0
    8.4215  -11.5926   17.7851 O   0  0  0  0  0  0  0  0  0  0  0  0
   10.8357  -14.8892   26.6329 C   0  0  0  0  0  0  0  0  0  0  0  0
   10.4891  -16.2323   26.6426 C   0  0  2  0  0  0  0  0  0  0  0  0
   10.9692  -16.9649   25.4043 N   0  0  0  0  0  0  0  0  0  0  0  0
   10.8048  -16.1873   24.2134 C   0  0  0  0  0  0  0  0  0  0  0  0
   10.2091  -18.2293   25.2609 O   0  0  0  0  0  0  0  0  0  0  0  0
    9.5113  -18.3660   24.2192 O   0  0  0  0  0  0  0  0  0  0  0  0
  2  7  1  0
  2  1  1  6
  3  2  1  0
  4  3  1  0
  5  4  1  0
  5  6  2  0
  7  8  2  0
  9  5  1  0
 10 11  1  0
 11 12  2  0
 11 13  1  0
 13 14  1  0
 14 15  1  0
 17 16  1  6
 16 15  1  0
 18 17  1  0
 18  7  1  0
 19 17  1  0
 20 19  2  0
 21 22  1  0
 23 22  1  1
 23 25  1  0
 23 24  1  0
 24 19  1  0
 25 27  1  0
 26 25  2  0
M  END
$$$$
