ERS.pdb
     RDKit          3D

 27 26  0  0  1  0  0  0  0  0999 V2000
   10.9621  -19.4397   20.1049 N   0  0  0  0  0  0  0  0  0  0  0  0
   12.1581  -18.7325   20.5444 C   0  0  1  0  0  0  0  0  0  0  0  0
   12.8516  -18.2115   19.3328 C   0  0  0  0  0  0  0  0  0  0  0  0
   11.9935  -17.4572   18.3703 C   0  0  0  0  0  0  0  0  0  0  0  0
   12.6831  -17.0056   17.1468 C   0  0  0  0  0  0  0  0  0  0  0  0
   13.4752  -17.7495   16.5254 O   0  0  0  0  0  0  0  0  0  0  0  0
   11.7887  -17.6564   21.5223 C   0  0  0  0  0  0  0  0  0  0  0  0
   12.6630  -16.9012   22.0080 O   0  0  0  0  0  0  0  0  0  0  0  0
   12.4175  -15.7135   16.7077 O   0  0  0  0  0  0  0  0  0  0  0  0
    6.6303  -12.8962   19.1994 N   0  0  0  0  0  0  0  0  0  0  0  0
    7.8884  -13.5489   19.2143 C   0  0  0  0  0  0  0  0  0  0  0  0
    8.5536  -13.7887   18.1259 N   0  0  0  0  0  0  0  0  0  0  0  0
    8.4233  -13.9468   20.4697 N   0  0  0  0  0  0  0  0  0  0  0  0
    7.6263  -14.0545   21.6558 C   0  0  0  0  0  0  0  0  0  0  0  0
    8.4497  -14.5528   22.8477 C   0  0  0  0  0  0  0  0  0  0  0  0
    8.7005  -16.0028   22.6365 C   0  0  0  0  0  0  0  0  0  0  0  0
   10.1079  -16.4614   22.9746 C   0  0  2  0  0  0  0  0  0  0  0  0
   10.4495  -17.4494   21.9342 N   0  0  0  0  0  0  0  0  0  0  0  0
   10.1771  -17.0632   24.3085 C   0  0  0  0  0  0  0  0  0  0  0  0
    9.8666  -18.2600   24.5239 O   0  0  0  0  0  0  0  0  0  0  0  0
    9.4415  -14.3257   18.1721 O   0  0  0  0  0  0  0  0  0  0  0  0
   12.4754  -15.5138   27.5436 C   0  0  0  0  0  0  0  0  0  0  0  0
   11.1909  -15.9574   27.8214 C   0  0  2  0  0  0  0  0  0  0  0  0
   10.6715  -16.9247   26.7750 N   0  0  0  0  0  0  0  0  0  0  0  0
   10.6051  -16.3339   25.4725 C   0  0  0  0  0  0  0  0  0  0  0  0
    9.3166  -17.3824   27.1643 O   0  0  0  0  0  0  0  0  0  0  0  0
    8.3617  -17.0649   26.4040 O   0  0  0  0  0  0  0  0  0  0  0  0
  2  7  1  0
  2  1  1  6
  3  2  1  0
  4  3  1  0
  5  4  1  0
  5  6  2  0
  7  8  2  0
  9  5  1  0
 10 11  1  0
 11 12  2  0
 11 13  1  0
 13 14  1  0
 14 15  1  0
 17 16  1  6
 16 15  1  0
 18 17  1  0
 18  7  1  0
 19 17  1  0
 20 19  2  0
 21 22  1  0
 23 22  1  6
 23 25  1  0
 23 24  1  0
 24 19  1  0
 25 27  1  0
 26 25  2  0
M  END
$$$$
