ERS.pdb
     RDKit          3D

 27 26  0  0  1  0  0  0  0  0999 V2000
   10.5633  -19.4308   17.4257 N   0  0  0  0  0  0  0  0  0  0  0  0
    9.5635  -19.3996   18.4855 C   0  0  1  0  0  0  0  0  0  0  0  0
    9.2599  -20.8072   18.8683 C   0  0  0  0  0  0  0  0  0  0  0  0
    8.6718  -21.6583   17.7906 C   0  0  0  0  0  0  0  0  0  0  0  0
    8.3341  -23.0344   18.2018 C   0  0  0  0  0  0  0  0  0  0  0  0
    8.5240  -23.4367   19.3719 O   0  0  0  0  0  0  0  0  0  0  0  0
   10.0566  -18.5685   19.6330 C   0  0  0  0  0  0  0  0  0  0  0  0
   11.2623  -18.5945   19.9744 O   0  0  0  0  0  0  0  0  0  0  0  0
    7.7934  -23.8726   17.2333 O   0  0  0  0  0  0  0  0  0  0  0  0
    7.3987  -12.7321   16.9158 N   0  0  0  0  0  0  0  0  0  0  0  0
    7.9742  -12.9883   18.1856 C   0  0  0  0  0  0  0  0  0  0  0  0
    9.2473  -12.8613   18.4037 N   0  0  0  0  0  0  0  0  0  0  0  0
    7.1151  -13.3967   19.2419 N   0  0  0  0  0  0  0  0  0  0  0  0
    7.6002  -13.7820   20.5340 C   0  0  0  0  0  0  0  0  0  0  0  0
    8.8138  -14.7109   20.4291 C   0  0  0  0  0  0  0  0  0  0  0  0
    8.7036  -15.7079   21.5264 C   0  0  0  0  0  0  0  0  0  0  0  0
    9.6966  -16.8538   21.4475 C   0  0  2  0  0  0  0  0  0  0  0  0
    9.1899  -17.7268   20.3722 N   0  0  0  0  0  0  0  0  0  0  0  0
    9.7845  -17.5842   22.7145 C   0  0  0  0  0  0  0  0  0  0  0  0
    8.8093  -18.2061   23.2021 O   0  0  0  0  0  0  0  0  0  0  0  0
    9.6483  -13.1707   19.3106 O   0  0  0  0  0  0  0  0  0  0  0  0
   13.5346  -18.2690   24.5626 C   0  0  0  0  0  0  0  0  0  0  0  0
   12.4921  -19.1760   24.6839 C   0  0  1  0  0  0  0  0  0  0  0  0
   11.1317  -18.5073   24.6328 N   0  0  0  0  0  0  0  0  0  0  0  0
   10.9901  -17.6470   23.4971 C   0  0  0  0  0  0  0  0  0  0  0  0
   10.9340  -17.7102   25.8667 O   0  0  0  0  0  0  0  0  0  0  0  0
   10.7450  -16.4710   25.7268 O   0  0  0  0  0  0  0  0  0  0  0  0
  2  7  1  0
  2  1  1  6
  3  2  1  0
  4  3  1  0
  5  4  1  0
  5  6  2  0
  7  8  2  0
  9  5  1  0
 10 11  1  0
 11 12  2  0
 11 13  1  0
 13 14  1  0
 14 15  1  0
 17 16  1  1
 16 15  1  0
 18 17  1  0
 18  7  1  0
 19 17  1  0
 20 19  2  0
 21 22  1  0
 23 22  1  6
 23 25  1  0
 23 24  1  0
 24 19  1  0
 25 27  1  0
 26 25  2  0
M  END
$$$$
