ERS.pdb
     RDKit          3D

 27 26  0  0  1  0  0  0  0  0999 V2000
    8.6467  -12.7119   17.1998 N   0  0  0  0  0  0  0  0  0  0  0  0
    8.0745  -13.9402   17.7361 C   0  0  1  0  0  0  0  0  0  0  0  0
    7.4230  -14.6692   16.6118 C   0  0  0  0  0  0  0  0  0  0  0  0
    7.9798  -14.3939   15.2532 C   0  0  0  0  0  0  0  0  0  0  0  0
    7.2771  -15.0701   14.1461 C   0  0  0  0  0  0  0  0  0  0  0  0
    6.3193  -15.8491   14.3532 O   0  0  0  0  0  0  0  0  0  0  0  0
    9.1374  -14.7444   18.4247 C   0  0  0  0  0  0  0  0  0  0  0  0
    8.8752  -15.8645   18.9221 O   0  0  0  0  0  0  0  0  0  0  0  0
    7.7225  -14.8070   12.8557 O   0  0  0  0  0  0  0  0  0  0  0  0
   17.2233  -15.1606   19.5960 N   0  0  0  0  0  0  0  0  0  0  0  0
   16.8743  -13.9793   18.8946 C   0  0  0  0  0  0  0  0  0  0  0  0
   17.5353  -12.8716   19.0382 N   0  0  0  0  0  0  0  0  0  0  0  0
   15.7622  -14.0273   18.0106 N   0  0  0  0  0  0  0  0  0  0  0  0
   15.0711  -15.2424   17.6954 C   0  0  0  0  0  0  0  0  0  0  0  0
   13.9863  -15.5610   18.7291 C   0  0  0  0  0  0  0  0  0  0  0  0
   12.7947  -14.7409   18.3864 C   0  0  0  0  0  0  0  0  0  0  0  0
   11.5287  -15.1123   19.1379 C   0  0  2  0  0  0  0  0  0  0  0  0
   10.4696  -14.2776   18.5407 N   0  0  0  0  0  0  0  0  0  0  0  0
   11.6527  -14.8493   20.5738 C   0  0  0  0  0  0  0  0  0  0  0  0
   12.1703  -13.7980   21.0234 O   0  0  0  0  0  0  0  0  0  0  0  0
   17.2374  -12.0225   18.5194 O   0  0  0  0  0  0  0  0  0  0  0  0
    8.9779  -16.2424   23.2902 C   0  0  0  0  0  0  0  0  0  0  0  0
    9.8760  -15.2232   23.5708 C   0  0  1  0  0  0  0  0  0  0  0  0
   11.2489  -15.4798   22.9794 N   0  0  0  0  0  0  0  0  0  0  0  0
   11.1928  -15.7706   21.5785 C   0  0  0  0  0  0  0  0  0  0  0  0
   11.8763  -16.6239   23.6825 O   0  0  0  0  0  0  0  0  0  0  0  0
   12.0816  -16.4957   24.9203 O   0  0  0  0  0  0  0  0  0  0  0  0
  2  7  1  0
  2  1  1  6
  3  2  1  0
  4  3  1  0
  5  4  1  0
  5  6  2  0
  7  8  2  0
  9  5  1  0
 10 11  1  0
 11 12  2  0
 11 13  1  0
 13 14  1  0
 14 15  1  0
 17 16  1  6
 16 15  1  0
 18 17  1  0
 18  7  1  0
 19 17  1  0
 20 19  2  0
 21 22  1  0
 23 22  1  6
 23 25  1  0
 23 24  1  0
 24 19  1  0
 25 27  1  0
 26 25  2  0
M  END
$$$$
