ERS.pdb
     RDKit          3D

 27 26  0  0  1  0  0  0  0  0999 V2000
   11.6461  -17.7465   19.3371 N   0  0  0  0  0  0  0  0  0  0  0  0
   12.7184  -17.4577   20.2808 C   0  0  1  0  0  0  0  0  0  0  0  0
   13.7154  -16.5936   19.5885 C   0  0  0  0  0  0  0  0  0  0  0  0
   13.2138  -15.2607   19.1373 C   0  0  0  0  0  0  0  0  0  0  0  0
   14.2018  -14.4391   18.4124 C   0  0  0  0  0  0  0  0  0  0  0  0
   14.4285  -14.6066   17.1927 O   0  0  0  0  0  0  0  0  0  0  0  0
   12.1553  -16.8320   21.5226 C   0  0  0  0  0  0  0  0  0  0  0  0
   12.9055  -16.4845   22.4645 O   0  0  0  0  0  0  0  0  0  0  0  0
   14.8756  -13.4654   19.1408 O   0  0  0  0  0  0  0  0  0  0  0  0
    9.8808  -12.7981   19.8348 N   0  0  0  0  0  0  0  0  0  0  0  0
    8.6478  -12.8114   19.1358 C   0  0  0  0  0  0  0  0  0  0  0  0
    8.5565  -12.4516   17.8921 N   0  0  0  0  0  0  0  0  0  0  0  0
    7.4845  -13.2346   19.8347 N   0  0  0  0  0  0  0  0  0  0  0  0
    7.5386  -14.0387   21.0196 C   0  0  0  0  0  0  0  0  0  0  0  0
    8.9607  -14.5317   21.3047 C   0  0  0  0  0  0  0  0  0  0  0  0
    8.8942  -15.4009   22.5088 C   0  0  0  0  0  0  0  0  0  0  0  0
   10.2173  -16.0223   22.9194 C   0  0  2  0  0  0  0  0  0  0  0  0
   10.7658  -16.6087   21.6823 N   0  0  0  0  0  0  0  0  0  0  0  0
   10.0386  -17.0491   23.9490 C   0  0  0  0  0  0  0  0  0  0  0  0
    9.2053  -17.9806   23.8332 O   0  0  0  0  0  0  0  0  0  0  0  0
    7.6390  -12.5000   17.4075 O   0  0  0  0  0  0  0  0  0  0  0  0
   13.0359  -18.5274   26.2245 C   0  0  0  0  0  0  0  0  0  0  0  0
   11.7868  -19.1161   26.0923 C   0  0  1  0  0  0  0  0  0  0  0  0
   10.6587  -18.1041   26.1512 N   0  0  0  0  0  0  0  0  0  0  0  0
   10.8009  -17.0721   25.1689 C   0  0  0  0  0  0  0  0  0  0  0  0
   10.6295  -17.4848   27.4975 O   0  0  0  0  0  0  0  0  0  0  0  0
   10.7345  -16.2292   27.5555 O   0  0  0  0  0  0  0  0  0  0  0  0
  2  7  1  0
  2  1  1  6
  3  2  1  0
  4  3  1  0
  5  4  1  0
  5  6  2  0
  7  8  2  0
  9  5  1  0
 10 11  1  0
 11 12  2  0
 11 13  1  0
 13 14  1  0
 14 15  1  0
 17 16  1  6
 16 15  1  0
 18 17  1  0
 18  7  1  0
 19 17  1  0
 20 19  2  0
 21 22  1  0
 23 22  1  6
 23 25  1  0
 23 24  1  0
 24 19  1  0
 25 27  1  0
 26 25  2  0
M  END
$$$$
