ERS.pdb
     RDKit          3D

 27 26  0  0  1  0  0  0  0  0999 V2000
    9.2384  -20.9036   17.2005 N   0  0  0  0  0  0  0  0  0  0  0  0
    8.8915  -20.7211   18.6041 C   0  0  1  0  0  0  0  0  0  0  0  0
    9.1886  -21.9951   19.3173 C   0  0  0  0  0  0  0  0  0  0  0  0
   10.5842  -22.1391   19.8305 C   0  0  0  0  0  0  0  0  0  0  0  0
   10.8859  -23.4437   20.4498 C   0  0  0  0  0  0  0  0  0  0  0  0
   12.0040  -23.6884   20.9568 O   0  0  0  0  0  0  0  0  0  0  0  0
    9.6301  -19.5428   19.1670 C   0  0  0  0  0  0  0  0  0  0  0  0
   10.7728  -19.2410   18.7499 O   0  0  0  0  0  0  0  0  0  0  0  0
    9.8739  -24.3971   20.4487 O   0  0  0  0  0  0  0  0  0  0  0  0
    6.9204  -12.6052   18.3585 N   0  0  0  0  0  0  0  0  0  0  0  0
    7.6668  -12.9666   19.5080 C   0  0  0  0  0  0  0  0  0  0  0  0
    8.8121  -12.4226   19.7854 N   0  0  0  0  0  0  0  0  0  0  0  0
    7.1293  -13.9584   20.3729 N   0  0  0  0  0  0  0  0  0  0  0  0
    7.7605  -14.3451   21.5999 C   0  0  0  0  0  0  0  0  0  0  0  0
    9.0297  -15.1656   21.3494 C   0  0  0  0  0  0  0  0  0  0  0  0
    8.6015  -16.5401   20.9789 C   0  0  0  0  0  0  0  0  0  0  0  0
    9.7348  -17.4859   20.6232 C   0  0  2  0  0  0  0  0  0  0  0  0
    9.0733  -18.7285   20.1835 N   0  0  0  0  0  0  0  0  0  0  0  0
   10.6110  -17.7388   21.7698 C   0  0  0  0  0  0  0  0  0  0  0  0
   10.2417  -18.4099   22.7641 O   0  0  0  0  0  0  0  0  0  0  0  0
    9.4201  -12.8445   20.5143 O   0  0  0  0  0  0  0  0  0  0  0  0
   14.3505  -15.7682   22.2286 C   0  0  0  0  0  0  0  0  0  0  0  0
   14.2401  -17.0601   22.7213 C   0  0  1  0  0  0  0  0  0  0  0  0
   12.8010  -17.4605   22.9838 N   0  0  0  0  0  0  0  0  0  0  0  0
   11.9586  -17.2410   21.8470 C   0  0  0  0  0  0  0  0  0  0  0  0
   12.2779  -16.6763   24.1276 O   0  0  0  0  0  0  0  0  0  0  0  0
   11.2972  -15.9156   23.9030 O   0  0  0  0  0  0  0  0  0  0  0  0
  2  7  1  0
  2  1  1  6
  3  2  1  0
  4  3  1  0
  5  4  1  0
  5  6  2  0
  7  8  2  0
  9  5  1  0
 10 11  1  0
 11 12  2  0
 11 13  1  0
 13 14  1  0
 14 15  1  0
 17 16  1  1
 16 15  1  0
 18 17  1  0
 18  7  1  0
 19 17  1  0
 20 19  2  0
 21 22  1  0
 23 22  1  6
 23 25  1  0
 23 24  1  0
 24 19  1  0
 25 27  1  0
 26 25  2  0
M  END
$$$$
