ERS.pdb
     RDKit          3D

 27 26  0  0  1  0  0  0  0  0999 V2000
   13.2317  -15.8788   16.6021 N   0  0  0  0  0  0  0  0  0  0  0  0
   12.5585  -16.9419   17.3373 C   0  0  1  0  0  0  0  0  0  0  0  0
   13.5154  -18.0752   17.4795 C   0  0  0  0  0  0  0  0  0  0  0  0
   13.0081  -19.2590   18.2365 C   0  0  0  0  0  0  0  0  0  0  0  0
   13.9839  -20.3528   18.4040 C   0  0  0  0  0  0  0  0  0  0  0  0
   15.0537  -20.3851   17.7546 O   0  0  0  0  0  0  0  0  0  0  0  0
   12.0598  -16.4209   18.6528 C   0  0  0  0  0  0  0  0  0  0  0  0
   12.8352  -15.8467   19.4527 O   0  0  0  0  0  0  0  0  0  0  0  0
   13.6675  -21.3526   19.3166 O   0  0  0  0  0  0  0  0  0  0  0  0
    6.9502  -14.9919   15.2399 N   0  0  0  0  0  0  0  0  0  0  0  0
    7.7486  -13.8666   15.5646 C   0  0  0  0  0  0  0  0  0  0  0  0
    8.0355  -12.9499   14.6917 N   0  0  0  0  0  0  0  0  0  0  0  0
    8.2427  -13.7549   16.8927 N   0  0  0  0  0  0  0  0  0  0  0  0
    7.7984  -14.5998   17.9614 C   0  0  0  0  0  0  0  0  0  0  0  0
    8.5363  -14.2942   19.2687 C   0  0  0  0  0  0  0  0  0  0  0  0
    8.7433  -15.5873   19.9723 C   0  0  0  0  0  0  0  0  0  0  0  0
   10.1930  -15.9229   20.2743 C   0  0  2  0  0  0  0  0  0  0  0  0
   10.7048  -16.5538   19.0433 N   0  0  0  0  0  0  0  0  0  0  0  0
   10.3131  -16.8332   21.4159 C   0  0  0  0  0  0  0  0  0  0  0  0
   10.1377  -18.0715   21.3107 O   0  0  0  0  0  0  0  0  0  0  0  0
    8.6129  -12.1334   14.9724 O   0  0  0  0  0  0  0  0  0  0  0  0
   11.8398  -17.5590   26.0112 C   0  0  0  0  0  0  0  0  0  0  0  0
   11.7155  -16.7129   24.9190 C   0  0  1  0  0  0  0  0  0  0  0  0
   10.8057  -17.2796   23.8459 N   0  0  0  0  0  0  0  0  0  0  0  0
   10.6407  -16.3825   22.7423 C   0  0  0  0  0  0  0  0  0  0  0  0
    9.4761  -17.5653   24.4354 O   0  0  0  0  0  0  0  0  0  0  0  0
    9.4086  -18.5052   25.2738 O   0  0  0  0  0  0  0  0  0  0  0  0
  2  7  1  0
  2  1  1  1
  3  2  1  0
  4  3  1  0
  5  4  1  0
  5  6  2  0
  7  8  2  0
  9  5  1  0
 10 11  1  0
 11 12  2  0
 11 13  1  0
 13 14  1  0
 14 15  1  0
 17 16  1  6
 16 15  1  0
 18 17  1  0
 18  7  1  0
 19 17  1  0
 20 19  2  0
 21 22  1  0
 23 22  1  6
 23 25  1  0
 23 24  1  0
 24 19  1  0
 25 27  1  0
 26 25  2  0
M  END
$$$$
