ERS.pdb
     RDKit          3D

 27 26  0  0  1  0  0  0  0  0999 V2000
   13.3419  -17.7206   16.7190 N   0  0  0  0  0  0  0  0  0  0  0  0
   12.6563  -18.4902   17.7492 C   0  0  1  0  0  0  0  0  0  0  0  0
   13.3958  -19.7710   17.9305 C   0  0  0  0  0  0  0  0  0  0  0  0
   14.8397  -19.6389   18.2903 C   0  0  0  0  0  0  0  0  0  0  0  0
   15.5564  -20.9175   18.4586 C   0  0  0  0  0  0  0  0  0  0  0  0
   15.8513  -21.3622   19.5910 O   0  0  0  0  0  0  0  0  0  0  0  0
   12.5532  -17.6839   19.0101 C   0  0  0  0  0  0  0  0  0  0  0  0
   13.5459  -17.0662   19.4613 O   0  0  0  0  0  0  0  0  0  0  0  0
   15.8939  -21.6138   17.3036 O   0  0  0  0  0  0  0  0  0  0  0  0
    7.9085  -12.6645   20.3832 N   0  0  0  0  0  0  0  0  0  0  0  0
    7.2073  -13.3639   19.3691 C   0  0  0  0  0  0  0  0  0  0  0  0
    6.8691  -12.7998   18.2502 N   0  0  0  0  0  0  0  0  0  0  0  0
    6.8716  -14.7254   19.6021 N   0  0  0  0  0  0  0  0  0  0  0  0
    7.5921  -15.5582   20.5191 C   0  0  0  0  0  0  0  0  0  0  0  0
    9.1011  -15.5127   20.2591 C   0  0  0  0  0  0  0  0  0  0  0  0
    9.7314  -16.5365   21.1335 C   0  0  0  0  0  0  0  0  0  0  0  0
   11.2241  -16.7202   20.9251 C   0  0  2  0  0  0  0  0  0  0  0  0
   11.3416  -17.5865   19.7373 N   0  0  0  0  0  0  0  0  0  0  0  0
   11.8625  -17.3407   22.0886 C   0  0  0  0  0  0  0  0  0  0  0  0
   11.6189  -18.5206   22.4406 O   0  0  0  0  0  0  0  0  0  0  0  0
    6.3882  -13.3565   17.5169 O   0  0  0  0  0  0  0  0  0  0  0  0
   15.2428  -17.0157   25.6513 C   0  0  0  0  0  0  0  0  0  0  0  0
   14.6360  -16.4435   24.5429 C   0  0  1  0  0  0  0  0  0  0  0  0
   13.4870  -17.2800   24.0133 N   0  0  0  0  0  0  0  0  0  0  0  0
   12.8155  -16.6507   22.9164 C   0  0  0  0  0  0  0  0  0  0  0  0
   12.5108  -17.5131   25.1039 O   0  0  0  0  0  0  0  0  0  0  0  0
   11.4612  -16.8138   25.0957 O   0  0  0  0  0  0  0  0  0  0  0  0
  2  7  1  0
  2  1  1  6
  3  2  1  0
  4  3  1  0
  5  4  1  0
  5  6  2  0
  7  8  2  0
  9  5  1  0
 10 11  1  0
 11 12  2  0
 11 13  1  0
 13 14  1  0
 14 15  1  0
 17 16  1  1
 16 15  1  0
 18 17  1  0
 18  7  1  0
 19 17  1  0
 20 19  2  0
 21 22  1  0
 23 22  1  6
 23 25  1  0
 23 24  1  0
 24 19  1  0
 25 27  1  0
 26 25  2  0
M  END
$$$$
