ERS.pdb
     RDKit          3D

 27 26  0  0  1  0  0  0  0  0999 V2000
    8.3648  -20.7087   23.0784 N   0  0  0  0  0  0  0  0  0  0  0  0
    9.6750  -20.8224   22.4506 C   0  0  1  0  0  0  0  0  0  0  0  0
    9.5694  -21.8225   21.3513 C   0  0  0  0  0  0  0  0  0  0  0  0
    8.1948  -22.0476   20.8113 C   0  0  0  0  0  0  0  0  0  0  0  0
    8.1159  -23.0135   19.6988 C   0  0  0  0  0  0  0  0  0  0  0  0
    7.0297  -23.2843   19.1386 O   0  0  0  0  0  0  0  0  0  0  0  0
   10.1386  -19.4750   21.9811 C   0  0  0  0  0  0  0  0  0  0  0  0
   11.2621  -19.3326   21.4444 O   0  0  0  0  0  0  0  0  0  0  0  0
    9.3021  -23.6152   19.2941 O   0  0  0  0  0  0  0  0  0  0  0  0
    8.3666  -12.8605   17.4122 N   0  0  0  0  0  0  0  0  0  0  0  0
    8.0413  -12.8184   18.7912 C   0  0  0  0  0  0  0  0  0  0  0  0
    8.6493  -12.0249   19.6190 N   0  0  0  0  0  0  0  0  0  0  0  0
    7.0145  -13.6795   19.2652 N   0  0  0  0  0  0  0  0  0  0  0  0
    7.1760  -14.5253   20.4107 C   0  0  0  0  0  0  0  0  0  0  0  0
    8.5257  -15.2497   20.3935 C   0  0  0  0  0  0  0  0  0  0  0  0
    8.5687  -16.1328   21.5886 C   0  0  0  0  0  0  0  0  0  0  0  0
    9.8176  -16.9886   21.7034 C   0  0  2  0  0  0  0  0  0  0  0  0
    9.3344  -18.3176   22.1223 N   0  0  0  0  0  0  0  0  0  0  0  0
   10.7610  -16.4438   22.6829 C   0  0  0  0  0  0  0  0  0  0  0  0
   10.4037  -16.0731   23.8276 O   0  0  0  0  0  0  0  0  0  0  0  0
    8.5040  -12.1370   20.6413 O   0  0  0  0  0  0  0  0  0  0  0  0
   13.6566  -18.1702   24.0318 C   0  0  0  0  0  0  0  0  0  0  0  0
   13.2471  -16.9359   24.5144 C   0  0  1  0  0  0  0  0  0  0  0  0
   13.1091  -15.8994   23.4157 N   0  0  0  0  0  0  0  0  0  0  0  0
   12.1658  -16.2914   22.4125 C   0  0  0  0  0  0  0  0  0  0  0  0
   14.4297  -15.6881   22.7766 O   0  0  0  0  0  0  0  0  0  0  0  0
   14.5430  -16.0230   21.5659 O   0  0  0  0  0  0  0  0  0  0  0  0
  2  7  1  0
  2  1  1  6
  3  2  1  0
  4  3  1  0
  5  4  1  0
  5  6  2  0
  7  8  2  0
  9  5  1  0
 10 11  1  0
 11 12  2  0
 11 13  1  0
 13 14  1  0
 14 15  1  0
 17 16  1  1
 16 15  1  0
 18 17  1  0
 18  7  1  0
 19 17  1  0
 20 19  2  0
 21 22  1  0
 23 22  1  1
 23 25  1  0
 23 24  1  0
 24 19  1  0
 25 27  1  0
 26 25  2  0
M  END
$$$$
