THI.pdb
     RDKit          3D

 26 26  0  0  1  0  0  0  0  0999 V2000
   15.4756   -9.3080  -15.9199 C   0  0  0  0  0  0  0  0  0  0  0  0
   15.5631  -10.8137  -16.0164 C   0  0  1  0  0  0  0  0  0  0  0  0
   14.2764  -11.3146  -15.9497 O   0  0  0  0  0  0  0  0  0  0  0  0
   16.3066  -11.2430  -17.2562 C   0  0  2  0  0  0  0  0  0  0  0  0
   16.2872  -12.6831  -17.3028 N   0  0  0  0  0  0  0  0  0  0  0  0
   17.6794  -10.7403  -17.3183 C   0  0  0  0  0  0  0  0  0  0  0  0
   18.5718  -11.2657  -16.6055 O   0  0  0  0  0  0  0  0  0  0  0  0
   18.0718   -9.6693  -18.1555 N   0  0  0  0  0  0  0  0  0  0  0  0
   19.4470   -9.0911  -18.1043 C   0  0  1  0  0  0  0  0  0  0  0  0
   19.5581   -8.1781  -19.2944 C   0  0  0  0  0  0  0  0  0  0  0  0
   20.8054   -7.4545  -19.4525 C   0  0  0  0  0  0  0  0  0  0  0  0
   22.0270   -8.0451  -19.8029 C   0  0  0  0  0  0  0  0  0  0  0  0
   22.9051   -7.0380  -19.8373 N   0  0  0  0  0  0  0  0  0  0  0  0
   22.2969   -5.8883  -19.5329 C   0  0  0  0  0  0  0  0  0  0  0  0
   21.0142   -6.1395  -19.2973 N   0  0  0  0  0  0  0  0  0  0  0  0
   19.5724   -8.3909  -16.8346 C   0  0  0  0  0  0  0  0  0  0  0  0
   18.5463   -7.8098  -16.3414 O   0  0  0  0  0  0  0  0  0  0  0  0
   21.2308   -8.7056  -11.2143 C   0  0  0  0  0  0  0  0  0  0  0  0
   21.2883   -7.8009  -12.3952 C   0  0  0  0  0  0  0  0  0  0  0  0
   21.1252   -8.5136  -13.7133 C   0  0  2  0  0  0  0  0  0  0  0  0
   22.3392   -9.3289  -14.0701 C   0  0  0  0  0  0  0  0  0  0  0  0
   20.8169   -7.5320  -14.8382 C   0  0  2  0  0  0  0  0  0  0  0  0
   20.7640   -8.3003  -16.0704 N   0  0  0  0  0  0  0  0  0  0  0  0
   21.8248   -6.4630  -14.8667 C   0  0  0  0  0  0  0  0  0  0  0  0
   22.7962   -6.2876  -15.8296 O   0  0  0  0  0  0  0  0  0  0  0  0
   21.8539   -5.5781  -13.9314 O   0  0  0  0  0  0  0  0  0  0  0  0
  2  1  1  6
  3  2  1  0
  4  2  1  0
  4  6  1  0
  4  5  1  1
  6  7  2  0
  8  6  1  0
  8  9  1  0
  9 10  1  6
 11 10  1  0
 12 11  2  0
 13 12  1  0
 14 13  1  0
 14 15  2  0
 15 11  1  0
 16  9  1  0
 16 17  2  0
 18 19  1  0
 19 20  1  0
 20 21  1  6
 20 22  1  0
 22 23  1  6
 23 16  1  0
 24 22  1  0
 24 25  1  0
 26 24  2  0
M  END
$$$$
