THI.pdb
     RDKit          3D

 26 26  0  0  1  0  0  0  0  0999 V2000
   22.2675  -10.5605  -18.5363 C   0  0  0  0  0  0  0  0  0  0  0  0
   21.0741  -11.1265  -19.2709 C   0  0  1  0  0  0  0  0  0  0  0  0
   21.5293  -12.1386  -20.0952 O   0  0  0  0  0  0  0  0  0  0  0  0
   20.0006  -11.5760  -18.3119 C   0  0  2  0  0  0  0  0  0  0  0  0
   18.9217  -12.1306  -19.0897 N   0  0  0  0  0  0  0  0  0  0  0  0
   19.5141  -10.5088  -17.4368 C   0  0  0  0  0  0  0  0  0  0  0  0
   18.7907   -9.5942  -17.9066 O   0  0  0  0  0  0  0  0  0  0  0  0
   19.8181  -10.4441  -16.0565 N   0  0  0  0  0  0  0  0  0  0  0  0
   19.3579   -9.3117  -15.1997 C   0  0  1  0  0  0  0  0  0  0  0  0
   18.5658   -9.9321  -14.0817 C   0  0  0  0  0  0  0  0  0  0  0  0
   17.1967  -10.3093  -14.3779 C   0  0  0  0  0  0  0  0  0  0  0  0
   16.2383   -9.4495  -14.9311 C   0  0  0  0  0  0  0  0  0  0  0  0
   15.1278  -10.1857  -15.0369 N   0  0  0  0  0  0  0  0  0  0  0  0
   15.3530  -11.4231  -14.5870 C   0  0  0  0  0  0  0  0  0  0  0  0
   16.6160  -11.5017  -14.1838 N   0  0  0  0  0  0  0  0  0  0  0  0
   20.5470   -8.6121  -14.7362 C   0  0  0  0  0  0  0  0  0  0  0  0
   21.4447   -9.2649  -14.1024 O   0  0  0  0  0  0  0  0  0  0  0  0
   22.4475   -4.4539  -17.7176 C   0  0  0  0  0  0  0  0  0  0  0  0
   21.8575   -5.0466  -16.4860 C   0  0  0  0  0  0  0  0  0  0  0  0
   22.7162   -6.1127  -15.8550 C   0  0  2  0  0  0  0  0  0  0  0  0
   22.9849   -7.2547  -16.7980 C   0  0  0  0  0  0  0  0  0  0  0  0
   22.0857   -6.6430  -14.5723 C   0  0  2  0  0  0  0  0  0  0  0  0
   20.8092   -7.2327  -14.9381 N   0  0  0  0  0  0  0  0  0  0  0  0
   21.9608   -5.5611  -13.5857 C   0  0  0  0  0  0  0  0  0  0  0  0
   22.9989   -4.9477  -12.9166 O   0  0  0  0  0  0  0  0  0  0  0  0
   20.7984   -5.1016  -13.2753 O   0  0  0  0  0  0  0  0  0  0  0  0
  2  1  1  1
  3  2  1  0
  4  2  1  0
  4  6  1  0
  4  5  1  6
  6  7  2  0
  8  6  1  0
  8  9  1  0
  9 10  1  1
 11 10  1  0
 12 11  2  0
 13 12  1  0
 14 13  1  0
 14 15  2  0
 15 11  1  0
 16  9  1  0
 16 17  2  0
 18 19  1  0
 19 20  1  0
 20 21  1  6
 20 22  1  0
 22 23  1  6
 23 16  1  0
 24 22  1  0
 24 25  1  0
 26 24  2  0
M  END
$$$$
