THI.pdb
     RDKit          3D

 26 26  0  0  1  0  0  0  0  0999 V2000
   29.1639  -17.8812  -17.7766 C   0  0  0  0  0  0  0  0  0  0  0  0
   28.2117  -18.3321  -16.6929 C   0  0  1  0  0  0  0  0  0  0  0  0
   28.8201  -18.0965  -15.4742 O   0  0  0  0  0  0  0  0  0  0  0  0
   26.8676  -17.6618  -16.8279 C   0  0  2  0  0  0  0  0  0  0  0  0
   27.0926  -16.2410  -16.9139 N   0  0  0  0  0  0  0  0  0  0  0  0
   25.9453  -17.9758  -15.7362 C   0  0  0  0  0  0  0  0  0  0  0  0
   25.7739  -17.1504  -14.8037 O   0  0  0  0  0  0  0  0  0  0  0  0
   25.2156  -19.1861  -15.6667 N   0  0  0  0  0  0  0  0  0  0  0  0
   24.2208  -19.4463  -14.5846 C   0  0  1  0  0  0  0  0  0  0  0  0
   23.1006  -20.2174  -15.2271 C   0  0  0  0  0  0  0  0  0  0  0  0
   22.0075  -20.6274  -14.3661 C   0  0  0  0  0  0  0  0  0  0  0  0
   21.9776  -20.4406  -12.9776 C   0  0  0  0  0  0  0  0  0  0  0  0
   20.8102  -20.9563  -12.5805 N   0  0  0  0  0  0  0  0  0  0  0  0
   20.1402  -21.4377  -13.6310 C   0  0  0  0  0  0  0  0  0  0  0  0
   20.8690  -21.2383  -14.7232 N   0  0  0  0  0  0  0  0  0  0  0  0
   24.9052  -20.1967  -13.5423 C   0  0  0  0  0  0  0  0  0  0  0  0
   25.7490  -21.0968  -13.8766 O   0  0  0  0  0  0  0  0  0  0  0  0
   28.1760  -19.9583   -8.6724 C   0  0  0  0  0  0  0  0  0  0  0  0
   27.1735  -20.7651   -9.4208 C   0  0  0  0  0  0  0  0  0  0  0  0
   26.3898  -19.9702  -10.4338 C   0  0  2  0  0  0  0  0  0  0  0  0
   25.6729  -18.8046   -9.8068 C   0  0  0  0  0  0  0  0  0  0  0  0
   25.3895  -20.8509  -11.1739 C   0  0  2  0  0  0  0  0  0  0  0  0
   24.7198  -20.0070  -12.1488 N   0  0  0  0  0  0  0  0  0  0  0  0
   24.4642  -21.4770  -10.2193 C   0  0  0  0  0  0  0  0  0  0  0  0
   24.7139  -22.6049   -9.4662 O   0  0  0  0  0  0  0  0  0  0  0  0
   23.2960  -20.9707  -10.0257 O   0  0  0  0  0  0  0  0  0  0  0  0
  2  1  1  6
  3  2  1  0
  4  2  1  0
  4  6  1  0
  4  5  1  1
  6  7  2  0
  8  6  1  0
  8  9  1  0
  9 10  1  6
 11 10  1  0
 12 11  2  0
 13 12  1  0
 14 13  1  0
 14 15  2  0
 15 11  1  0
 16  9  1  0
 16 17  2  0
 18 19  1  0
 19 20  1  0
 20 21  1  1
 20 22  1  0
 22 23  1  6
 23 16  1  0
 24 22  1  0
 24 25  1  0
 26 24  2  0
M  END
$$$$
