THI.pdb
     RDKit          3D

 26 26  0  0  1  0  0  0  0  0999 V2000
   28.8152  -18.0248  -16.5549 C   0  0  0  0  0  0  0  0  0  0  0  0
   27.7222  -17.3881  -17.3820 C   0  0  1  0  0  0  0  0  0  0  0  0
   28.2890  -16.3534  -18.1025 O   0  0  0  0  0  0  0  0  0  0  0  0
   27.0246  -18.4062  -18.2487 C   0  0  2  0  0  0  0  0  0  0  0  0
   26.0732  -17.7034  -19.0718 N   0  0  0  0  0  0  0  0  0  0  0  0
   26.3670  -19.4693  -17.4881 C   0  0  0  0  0  0  0  0  0  0  0  0
   25.2555  -19.2534  -16.9418 O   0  0  0  0  0  0  0  0  0  0  0  0
   26.9235  -20.7602  -17.3270 N   0  0  0  0  0  0  0  0  0  0  0  0
   26.2453  -21.8162  -16.5188 C   0  0  1  0  0  0  0  0  0  0  0  0
   26.8137  -23.1273  -16.9882 C   0  0  0  0  0  0  0  0  0  0  0  0
   26.2631  -24.3313  -16.3953 C   0  0  0  0  0  0  0  0  0  0  0  0
   25.3330  -24.3464  -15.3472 C   0  0  0  0  0  0  0  0  0  0  0  0
   25.0968  -25.6400  -15.1080 N   0  0  0  0  0  0  0  0  0  0  0  0
   25.8183  -26.3992  -15.9371 C   0  0  0  0  0  0  0  0  0  0  0  0
   26.5318  -25.6026  -16.7247 N   0  0  0  0  0  0  0  0  0  0  0  0
   26.5330  -21.5382  -15.1195 C   0  0  0  0  0  0  0  0  0  0  0  0
   27.7318  -21.2586  -14.7751 O   0  0  0  0  0  0  0  0  0  0  0  0
   26.6115  -17.6133  -13.3783 C   0  0  0  0  0  0  0  0  0  0  0  0
   26.8722  -19.0769  -13.3010 C   0  0  0  0  0  0  0  0  0  0  0  0
   25.8866  -19.8235  -12.4388 C   0  0  2  0  0  0  0  0  0  0  0  0
   26.0918  -19.5453  -10.9738 C   0  0  0  0  0  0  0  0  0  0  0  0
   25.9574  -21.3252  -12.6915 C   0  0  2  0  0  0  0  0  0  0  0  0
   25.5725  -21.5421  -14.0757 N   0  0  0  0  0  0  0  0  0  0  0  0
   25.1007  -22.0396  -11.7349 C   0  0  0  0  0  0  0  0  0  0  0  0
   25.5232  -22.6941  -10.5970 O   0  0  0  0  0  0  0  0  0  0  0  0
   23.8280  -22.0946  -11.9241 O   0  0  0  0  0  0  0  0  0  0  0  0
  2  1  1  6
  3  2  1  0
  4  2  1  0
  4  6  1  0
  4  5  1  1
  6  7  2  0
  8  6  1  0
  8  9  1  0
  9 10  1  6
 11 10  1  0
 12 11  2  0
 13 12  1  0
 14 13  1  0
 14 15  2  0
 15 11  1  0
 16  9  1  0
 16 17  2  0
 18 19  1  0
 19 20  1  0
 20 21  1  1
 20 22  1  0
 22 23  1  6
 23 16  1  0
 24 22  1  0
 24 25  1  0
 26 24  2  0
M  END
$$$$
