THI.pdb
     RDKit          3D

 26 26  0  0  1  0  0  0  0  0999 V2000
   29.4411  -35.2856  -16.7599 C   0  0  0  0  0  0  0  0  0  0  0  0
   28.4632  -34.5716  -15.8553 C   0  0  1  0  0  0  0  0  0  0  0  0
   28.0541  -35.4692  -14.8869 O   0  0  0  0  0  0  0  0  0  0  0  0
   29.0619  -33.3105  -15.2848 C   0  0  2  0  0  0  0  0  0  0  0  0
   28.0285  -32.6291  -14.5471 N   0  0  0  0  0  0  0  0  0  0  0  0
   29.6435  -32.4291  -16.2977 C   0  0  0  0  0  0  0  0  0  0  0  0
   28.9359  -31.5400  -16.8354 O   0  0  0  0  0  0  0  0  0  0  0  0
   30.9912  -32.5211  -16.7186 N   0  0  0  0  0  0  0  0  0  0  0  0
   31.6038  -31.5099  -17.6299 C   0  0  1  0  0  0  0  0  0  0  0  0
   33.0564  -31.4322  -17.2473 C   0  0  0  0  0  0  0  0  0  0  0  0
   33.8802  -30.4937  -17.9854 C   0  0  0  0  0  0  0  0  0  0  0  0
   33.4413  -29.7484  -19.0880 C   0  0  0  0  0  0  0  0  0  0  0  0
   34.4993  -29.0228  -19.4630 N   0  0  0  0  0  0  0  0  0  0  0  0
   35.5387  -29.2804  -18.6645 C   0  0  0  0  0  0  0  0  0  0  0  0
   35.1636  -30.1786  -17.7609 N   0  0  0  0  0  0  0  0  0  0  0  0
   31.3972  -31.9776  -18.9925 C   0  0  0  0  0  0  0  0  0  0  0  0
   31.5607  -33.2177  -19.2554 O   0  0  0  0  0  0  0  0  0  0  0  0
   27.0398  -31.1105  -21.7805 C   0  0  0  0  0  0  0  0  0  0  0  0
   28.3293  -31.6264  -21.2446 C   0  0  0  0  0  0  0  0  0  0  0  0
   29.5410  -31.1025  -21.9721 C   0  0  2  0  0  0  0  0  0  0  0  0
   29.4633  -31.3524  -23.4544 C   0  0  0  0  0  0  0  0  0  0  0  0
   30.8247  -31.7077  -21.4156 C   0  0  2  0  0  0  0  0  0  0  0  0
   31.0117  -31.1576  -20.0839 N   0  0  0  0  0  0  0  0  0  0  0  0
   31.9489  -31.4275  -22.3195 C   0  0  0  0  0  0  0  0  0  0  0  0
   32.4452  -32.2763  -23.2864 O   0  0  0  0  0  0  0  0  0  0  0  0
   32.5687  -30.3007  -22.2489 O   0  0  0  0  0  0  0  0  0  0  0  0
  2  1  1  6
  3  2  1  0
  4  2  1  0
  4  6  1  0
  4  5  1  6
  6  7  2  0
  8  6  1  0
  8  9  1  0
  9 10  1  1
 11 10  1  0
 12 11  2  0
 13 12  1  0
 14 13  1  0
 14 15  2  0
 15 11  1  0
 16  9  1  0
 16 17  2  0
 18 19  1  0
 19 20  1  0
 20 21  1  6
 20 22  1  0
 22 23  1  1
 23 16  1  0
 24 22  1  0
 24 25  1  0
 26 24  2  0
M  END
$$$$
