THI.pdb
     RDKit          3D

 26 26  0  0  1  0  0  0  0  0999 V2000
   20.9191  -11.9236  -20.1492 C   0  0  0  0  0  0  0  0  0  0  0  0
   21.0192  -13.3750  -19.7394 C   0  0  1  0  0  0  0  0  0  0  0  0
   20.7452  -14.1461  -20.8536 O   0  0  0  0  0  0  0  0  0  0  0  0
   22.3589  -13.6798  -19.1179 C   0  0  2  0  0  0  0  0  0  0  0  0
   22.3753  -15.0795  -18.7754 N   0  0  0  0  0  0  0  0  0  0  0  0
   22.6616  -12.8557  -17.9473 C   0  0  0  0  0  0  0  0  0  0  0  0
   22.0784  -13.0788  -16.8562 O   0  0  0  0  0  0  0  0  0  0  0  0
   23.5968  -11.7942  -17.9720 N   0  0  0  0  0  0  0  0  0  0  0  0
   23.8338  -10.9240  -16.7826 C   0  0  1  0  0  0  0  0  0  0  0  0
   25.3050  -10.6110  -16.7837 C   0  0  0  0  0  0  0  0  0  0  0  0
   26.1988  -11.6557  -16.3209 C   0  0  0  0  0  0  0  0  0  0  0  0
   25.7785  -12.8848  -15.7953 C   0  0  0  0  0  0  0  0  0  0  0  0
   26.9042  -13.5402  -15.4957 N   0  0  0  0  0  0  0  0  0  0  0  0
   27.9668  -12.7919  -15.8042 C   0  0  0  0  0  0  0  0  0  0  0  0
   27.5391  -11.6401  -16.3086 N   0  0  0  0  0  0  0  0  0  0  0  0
   22.9993   -9.7422  -16.9409 C   0  0  0  0  0  0  0  0  0  0  0  0
   22.9182   -9.1880  -18.0898 O   0  0  0  0  0  0  0  0  0  0  0  0
   18.2353  -10.0403  -17.1269 C   0  0  0  0  0  0  0  0  0  0  0  0
   19.5972   -9.4457  -17.2133 C   0  0  0  0  0  0  0  0  0  0  0  0
   19.9311   -8.5261  -16.0666 C   0  0  2  0  0  0  0  0  0  0  0  0
   18.9788   -7.3638  -15.9773 C   0  0  0  0  0  0  0  0  0  0  0  0
   21.3623   -8.0110  -16.1695 C   0  0  2  0  0  0  0  0  0  0  0  0
   22.2400   -9.1386  -15.9059 N   0  0  0  0  0  0  0  0  0  0  0  0
   21.5646   -6.8916  -15.2392 C   0  0  0  0  0  0  0  0  0  0  0  0
   21.4583   -5.5513  -15.5453 O   0  0  0  0  0  0  0  0  0  0  0  0
   21.8726   -7.1214  -14.0100 O   0  0  0  0  0  0  0  0  0  0  0  0
  2  1  1  6
  3  2  1  0
  4  2  1  0
  4  6  1  0
  4  5  1  1
  6  7  2  0
  8  6  1  0
  8  9  1  0
  9 10  1  6
 11 10  1  0
 12 11  2  0
 13 12  1  0
 14 13  1  0
 14 15  2  0
 15 11  1  0
 16  9  1  0
 16 17  2  0
 18 19  1  0
 19 20  1  0
 20 21  1  6
 20 22  1  0
 22 23  1  1
 23 16  1  0
 24 22  1  0
 24 25  1  0
 26 24  2  0
M  END
$$$$
