THI.pdb
     RDKit          3D

 26 26  0  0  1  0  0  0  0  0999 V2000
   23.3110  -25.3405  -15.9125 C   0  0  0  0  0  0  0  0  0  0  0  0
   24.5194  -26.0923  -16.4212 C   0  0  1  0  0  0  0  0  0  0  0  0
   24.0653  -27.1391  -17.2016 O   0  0  0  0  0  0  0  0  0  0  0  0
   25.4714  -25.1760  -17.1480 C   0  0  2  0  0  0  0  0  0  0  0  0
   26.6309  -25.9492  -17.5145 N   0  0  0  0  0  0  0  0  0  0  0  0
   25.8579  -23.9983  -16.3703 C   0  0  0  0  0  0  0  0  0  0  0  0
   26.6857  -24.1117  -15.4311 O   0  0  0  0  0  0  0  0  0  0  0  0
   25.3408  -22.7051  -16.6199 N   0  0  0  0  0  0  0  0  0  0  0  0
   25.7809  -21.5145  -15.8345 C   0  0  1  0  0  0  0  0  0  0  0  0
   25.4263  -20.3133  -16.6675 C   0  0  0  0  0  0  0  0  0  0  0  0
   25.7176  -19.0110  -16.0989 C   0  0  0  0  0  0  0  0  0  0  0  0
   26.2593  -18.8049  -14.8230 C   0  0  0  0  0  0  0  0  0  0  0  0
   26.3643  -17.4784  -14.6978 N   0  0  0  0  0  0  0  0  0  0  0  0
   25.9247  -16.8766  -15.8064 C   0  0  0  0  0  0  0  0  0  0  0  0
   25.5290  -17.8103  -16.6641 N   0  0  0  0  0  0  0  0  0  0  0  0
   25.0760  -21.5541  -14.5618 C   0  0  0  0  0  0  0  0  0  0  0  0
   23.8928  -22.0358  -14.5214 O   0  0  0  0  0  0  0  0  0  0  0  0
   25.9016  -20.4610   -8.4754 C   0  0  0  0  0  0  0  0  0  0  0  0
   25.0553  -20.8811   -9.6258 C   0  0  0  0  0  0  0  0  0  0  0  0
   25.7706  -20.8388  -10.9519 C   0  0  2  0  0  0  0  0  0  0  0  0
   26.4350  -19.5101  -11.1947 C   0  0  0  0  0  0  0  0  0  0  0  0
   24.8221  -21.1568  -12.1022 C   0  0  2  0  0  0  0  0  0  0  0  0
   25.6036  -21.1001  -13.3258 N   0  0  0  0  0  0  0  0  0  0  0  0
   23.6891  -20.2210  -12.0964 C   0  0  0  0  0  0  0  0  0  0  0  0
   22.4802  -20.4126  -11.4613 O   0  0  0  0  0  0  0  0  0  0  0  0
   23.7736  -19.1011  -12.7267 O   0  0  0  0  0  0  0  0  0  0  0  0
  2  1  1  6
  3  2  1  0
  4  2  1  0
  4  6  1  0
  4  5  1  1
  6  7  2  0
  8  6  1  0
  8  9  1  0
  9 10  1  6
 11 10  1  0
 12 11  2  0
 13 12  1  0
 14 13  1  0
 14 15  2  0
 15 11  1  0
 16  9  1  0
 16 17  2  0
 18 19  1  0
 19 20  1  0
 20 21  1  6
 20 22  1  0
 22 23  1  6
 23 16  1  0
 24 22  1  0
 24 25  1  0
 26 24  2  0
M  END
$$$$
