THI.pdb
     RDKit          3D

 26 26  0  0  1  0  0  0  0  0999 V2000
   28.8646  -21.2541  -13.8822 C   0  0  0  0  0  0  0  0  0  0  0  0
   28.6251  -20.2721  -15.0058 C   0  0  1  0  0  0  0  0  0  0  0  0
   29.4010  -20.6655  -16.0802 O   0  0  0  0  0  0  0  0  0  0  0  0
   27.1581  -20.1632  -15.3378 C   0  0  2  0  0  0  0  0  0  0  0  0
   27.0176  -19.1890  -16.3902 N   0  0  0  0  0  0  0  0  0  0  0  0
   26.3234  -19.8100  -14.1890 C   0  0  0  0  0  0  0  0  0  0  0  0
   26.3030  -18.6248  -13.7701 O   0  0  0  0  0  0  0  0  0  0  0  0
   25.5165  -20.7488  -13.5039 N   0  0  0  0  0  0  0  0  0  0  0  0
   24.6509  -20.3541  -12.3535 C   0  0  1  0  0  0  0  0  0  0  0  0
   23.2836  -20.9036  -12.6549 C   0  0  0  0  0  0  0  0  0  0  0  0
   22.4932  -20.1925  -13.6418 C   0  0  0  0  0  0  0  0  0  0  0  0
   21.9413  -18.9189  -13.4490 C   0  0  0  0  0  0  0  0  0  0  0  0
   21.2983  -18.6406  -14.5872 N   0  0  0  0  0  0  0  0  0  0  0  0
   21.4260  -19.6555  -15.4464 C   0  0  0  0  0  0  0  0  0  0  0  0
   22.1555  -20.6050  -14.8716 N   0  0  0  0  0  0  0  0  0  0  0  0
   25.2434  -20.9257  -11.1534 C   0  0  0  0  0  0  0  0  0  0  0  0
   25.6626  -22.1329  -11.1816 O   0  0  0  0  0  0  0  0  0  0  0  0
   28.4442  -19.5540   -6.1344 C   0  0  0  0  0  0  0  0  0  0  0  0
   27.5086  -20.4803   -6.8290 C   0  0  0  0  0  0  0  0  0  0  0  0
   26.9081  -19.9053   -8.0863 C   0  0  2  0  0  0  0  0  0  0  0  0
   26.1773  -18.6154   -7.8259 C   0  0  0  0  0  0  0  0  0  0  0  0
   25.9689  -20.9017   -8.7565 C   0  0  2  0  0  0  0  0  0  0  0  0
   25.4090  -20.2401   -9.9227 N   0  0  0  0  0  0  0  0  0  0  0  0
   24.9469  -21.3534   -7.8022 C   0  0  0  0  0  0  0  0  0  0  0  0
   25.1119  -22.3181   -6.8308 O   0  0  0  0  0  0  0  0  0  0  0  0
   23.7672  -20.8373   -7.8273 O   0  0  0  0  0  0  0  0  0  0  0  0
  2  1  1  1
  3  2  1  0
  4  2  1  0
  4  6  1  0
  4  5  1  6
  6  7  2  0
  8  6  1  0
  8  9  1  0
  9 10  1  6
 11 10  1  0
 12 11  2  0
 13 12  1  0
 14 13  1  0
 14 15  2  0
 15 11  1  0
 16  9  1  0
 16 17  2  0
 18 19  1  0
 19 20  1  0
 20 21  1  1
 20 22  1  0
 22 23  1  6
 23 16  1  0
 24 22  1  0
 24 25  1  0
 26 24  2  0
M  END
$$$$
