THI.pdb
     RDKit          3D

 26 26  0  0  1  0  0  0  0  0999 V2000
   27.6592  -22.3264  -17.0731 C   0  0  0  0  0  0  0  0  0  0  0  0
   28.6280  -21.1711  -17.1777 C   0  0  1  0  0  0  0  0  0  0  0  0
   29.6596  -21.5618  -18.0109 O   0  0  0  0  0  0  0  0  0  0  0  0
   27.9354  -19.9123  -17.6359 C   0  0  2  0  0  0  0  0  0  0  0  0
   28.9401  -18.8914  -17.7935 N   0  0  0  0  0  0  0  0  0  0  0  0
   26.8777  -19.4639  -16.7296 C   0  0  0  0  0  0  0  0  0  0  0  0
   27.1743  -19.0199  -15.5915 O   0  0  0  0  0  0  0  0  0  0  0  0
   25.5044  -19.5016  -17.0681 N   0  0  0  0  0  0  0  0  0  0  0  0
   24.4503  -18.9858  -16.1455 C   0  0  1  0  0  0  0  0  0  0  0  0
   23.2470  -18.7076  -17.0041 C   0  0  0  0  0  0  0  0  0  0  0  0
   22.0539  -18.2340  -16.3286 C   0  0  0  0  0  0  0  0  0  0  0  0
   21.9698  -17.9750  -14.9539 C   0  0  0  0  0  0  0  0  0  0  0  0
   20.7138  -17.5650  -14.7516 N   0  0  0  0  0  0  0  0  0  0  0  0
   20.0411  -17.5603  -15.9057 C   0  0  0  0  0  0  0  0  0  0  0  0
   20.8571  -17.9684  -16.8708 N   0  0  0  0  0  0  0  0  0  0  0  0
   24.2116  -20.0164  -15.1460 C   0  0  0  0  0  0  0  0  0  0  0  0
   24.1001  -21.2329  -15.5219 O   0  0  0  0  0  0  0  0  0  0  0  0
   27.0668  -20.3222  -10.7145 C   0  0  0  0  0  0  0  0  0  0  0  0
   26.1996  -20.6461  -11.8804 C   0  0  0  0  0  0  0  0  0  0  0  0
   24.7248  -20.5700  -11.5785 C   0  0  2  0  0  0  0  0  0  0  0  0
   24.3282  -21.4922  -10.4569 C   0  0  0  0  0  0  0  0  0  0  0  0
   23.8904  -20.8782  -12.8166 C   0  0  2  0  0  0  0  0  0  0  0  0
   24.0964  -19.7850  -13.7512 N   0  0  0  0  0  0  0  0  0  0  0  0
   22.4809  -21.0614  -12.4434 C   0  0  0  0  0  0  0  0  0  0  0  0
   21.8120  -22.2644  -12.3604 O   0  0  0  0  0  0  0  0  0  0  0  0
   21.7510  -20.0397  -12.1568 O   0  0  0  0  0  0  0  0  0  0  0  0
  2  1  1  6
  3  2  1  0
  4  2  1  0
  4  6  1  0
  4  5  1  1
  6  7  2  0
  8  6  1  0
  8  9  1  0
  9 10  1  6
 11 10  1  0
 12 11  2  0
 13 12  1  0
 14 13  1  0
 14 15  2  0
 15 11  1  0
 16  9  1  0
 16 17  2  0
 18 19  1  0
 19 20  1  0
 20 21  1  1
 20 22  1  0
 22 23  1  6
 23 16  1  0
 24 22  1  0
 24 25  1  0
 26 24  2  0
M  END
$$$$
