THI.pdb
     RDKit          3D

 26 26  0  0  1  0  0  0  0  0999 V2000
   13.9764   -7.8232  -11.2317 C   0  0  0  0  0  0  0  0  0  0  0  0
   13.6148   -9.1599  -10.6263 C   0  0  1  0  0  0  0  0  0  0  0  0
   12.4310   -8.9998   -9.9307 O   0  0  0  0  0  0  0  0  0  0  0  0
   13.5476  -10.2395  -11.6772 C   0  0  2  0  0  0  0  0  0  0  0  0
   13.2488  -11.4820  -11.0112 N   0  0  0  0  0  0  0  0  0  0  0  0
   14.7701  -10.3581  -12.4726 C   0  0  0  0  0  0  0  0  0  0  0  0
   15.6583  -11.1821  -12.1373 O   0  0  0  0  0  0  0  0  0  0  0  0
   15.0177   -9.5791  -13.6275 N   0  0  0  0  0  0  0  0  0  0  0  0
   16.2618   -9.7413  -14.4364 C   0  0  1  0  0  0  0  0  0  0  0  0
   15.8821   -9.4084  -15.8533 C   0  0  0  0  0  0  0  0  0  0  0  0
   15.4480  -10.5091  -16.6925 C   0  0  0  0  0  0  0  0  0  0  0  0
   15.4575  -11.8555  -16.3038 C   0  0  0  0  0  0  0  0  0  0  0  0
   14.9871  -12.5274  -17.3591 N   0  0  0  0  0  0  0  0  0  0  0  0
   14.6971  -11.6802  -18.3504 C   0  0  0  0  0  0  0  0  0  0  0  0
   14.9776  -10.4465  -17.9461 N   0  0  0  0  0  0  0  0  0  0  0  0
   17.2556   -8.8329  -13.8840 C   0  0  0  0  0  0  0  0  0  0  0  0
   16.8665   -7.7515  -13.3246 O   0  0  0  0  0  0  0  0  0  0  0  0
   22.6059   -8.8173  -11.0101 C   0  0  0  0  0  0  0  0  0  0  0  0
   21.6112   -8.0641  -11.8220 C   0  0  0  0  0  0  0  0  0  0  0  0
   20.6143   -8.9456  -12.5299 C   0  0  2  0  0  0  0  0  0  0  0  0
   21.2808   -9.9053  -13.4789 C   0  0  0  0  0  0  0  0  0  0  0  0
   19.5784   -8.1167  -13.2808 C   0  0  2  0  0  0  0  0  0  0  0  0
   18.6571   -9.0512  -13.9046 N   0  0  0  0  0  0  0  0  0  0  0  0
   20.2435   -7.2301  -14.2456 C   0  0  0  0  0  0  0  0  0  0  0  0
   20.2761   -7.3969  -15.6141 O   0  0  0  0  0  0  0  0  0  0  0  0
   20.8716   -6.1837  -13.8342 O   0  0  0  0  0  0  0  0  0  0  0  0
  2  1  1  6
  3  2  1  0
  4  2  1  0
  4  6  1  0
  4  5  1  1
  6  7  2  0
  8  6  1  0
  8  9  1  0
  9 10  1  6
 11 10  1  0
 12 11  2  0
 13 12  1  0
 14 13  1  0
 14 15  2  0
 15 11  1  0
 16  9  1  0
 16 17  2  0
 18 19  1  0
 19 20  1  0
 20 21  1  6
 20 22  1  0
 22 23  1  6
 23 16  1  0
 24 22  1  0
 24 25  1  0
 26 24  2  0
M  END
$$$$
