KNG.pdb
     RDKit          3D

 22 21  0  0  1  0  0  0  0  0999 V2000
   23.2449  -20.1347  -14.7426 N   0  0  0  0  0  0  0  0  0  0  0  0
   21.8521  -19.8736  -14.9625 C   0  0  1  0  0  0  0  0  0  0  0  0
   20.8998  -20.6392  -14.1211 C   0  0  0  0  0  0  0  0  0  0  0  0
   20.5313  -21.9554  -14.7205 C   0  0  0  0  0  0  0  0  0  0  0  0
   19.4900  -22.7454  -14.0128 C   0  0  0  0  0  0  0  0  0  0  0  0
   19.1176  -23.9728  -14.8326 C   0  0  0  0  0  0  0  0  0  0  0  0
   18.1221  -24.6978  -14.1025 N   0  0  0  0  0  0  0  0  0  0  0  0
   21.5926  -18.4089  -14.7219 C   0  0  0  0  0  0  0  0  0  0  0  0
   22.0860  -17.9024  -13.6875 O   0  0  0  0  0  0  0  0  0  0  0  0
   20.7002  -13.1018  -17.0646 N   0  0  0  0  0  0  0  0  0  0  0  0
   21.2950  -13.9178  -16.0328 C   0  0  0  0  0  0  0  0  0  0  0  0
   21.6192  -13.3041  -14.9981 O   0  0  0  0  0  0  0  0  0  0  0  0
   21.4678  -15.3447  -16.2646 C   0  0  0  0  0  0  0  0  0  0  0  0
   20.7112  -16.1807  -15.2944 C   0  0  2  0  0  0  0  0  0  0  0  0
   20.8303  -17.6072  -15.6027 N   0  0  0  0  0  0  0  0  0  0  0  0
   19.2936  -15.8672  -15.1200 C   0  0  0  0  0  0  0  0  0  0  0  0
   18.4112  -16.2318  -15.9114 O   0  0  0  0  0  0  0  0  0  0  0  0
   18.8583  -15.1024  -13.9919 N   0  0  0  0  0  0  0  0  0  0  0  0
   17.4735  -14.7914  -13.7596 C   0  0  0  0  0  0  0  0  0  0  0  0
   17.0253  -13.6166  -14.5400 C   0  0  0  0  0  0  0  0  0  0  0  0
   17.5872  -12.5005  -14.4114 O   0  0  0  0  0  0  0  0  0  0  0  0
   15.9723  -13.6840  -15.4457 O   0  0  0  0  0  0  0  0  0  0  0  0
  2  1  1  1
  2  3  1  0
  2  8  1  0
  4  3  1  0
  5  4  1  0
  6  5  1  0
  7  6  1  0
  8  9  2  0
 11 13  1  0
 11 10  1  0
 12 11  2  0
 14 13  1  6
 14 16  1  0
 15 14  1  0
 15  8  1  0
 16 17  2  0
 18 19  1  0
 18 16  1  0
 19 20  1  0
 20 21  2  0
 20 22  1  0
M  END
$$$$
