KNG.pdb
     RDKit          3D

 22 21  0  0  1  0  0  0  0  0999 V2000
   18.1939  -11.9898  -15.4059 N   0  0  0  0  0  0  0  0  0  0  0  0
   18.3513  -10.8465  -16.2570 C   0  0  1  0  0  0  0  0  0  0  0  0
   17.2596   -9.8427  -16.2167 C   0  0  0  0  0  0  0  0  0  0  0  0
   15.9761  -10.3654  -16.7708 C   0  0  0  0  0  0  0  0  0  0  0  0
   15.9177  -10.5750  -18.2411 C   0  0  0  0  0  0  0  0  0  0  0  0
   14.5451  -11.0983  -18.6406 C   0  0  0  0  0  0  0  0  0  0  0  0
   14.6054  -11.4668  -20.0227 N   0  0  0  0  0  0  0  0  0  0  0  0
   19.6294  -10.1405  -15.8841 C   0  0  0  0  0  0  0  0  0  0  0  0
   19.7406   -9.7450  -14.7004 O   0  0  0  0  0  0  0  0  0  0  0  0
   22.7881  -11.7983  -15.8781 N   0  0  0  0  0  0  0  0  0  0  0  0
   23.5222  -10.9965  -16.8282 C   0  0  0  0  0  0  0  0  0  0  0  0
   24.4973  -11.5658  -17.3549 O   0  0  0  0  0  0  0  0  0  0  0  0
   23.0888   -9.6322  -17.0936 C   0  0  0  0  0  0  0  0  0  0  0  0
   21.8861   -9.2476  -16.3073 C   0  0  2  0  0  0  0  0  0  0  0  0
   20.6808   -9.9157  -16.8025 N   0  0  0  0  0  0  0  0  0  0  0  0
   21.6027   -7.8175  -16.1944 C   0  0  0  0  0  0  0  0  0  0  0  0
   21.1206   -7.1420  -17.1160 O   0  0  0  0  0  0  0  0  0  0  0  0
   21.8806   -7.1220  -14.9754 N   0  0  0  0  0  0  0  0  0  0  0  0
   21.6125   -5.7187  -14.8103 C   0  0  0  0  0  0  0  0  0  0  0  0
   21.8573   -5.2616  -13.4243 C   0  0  0  0  0  0  0  0  0  0  0  0
   22.1731   -6.0743  -12.5200 O   0  0  0  0  0  0  0  0  0  0  0  0
   21.7526   -3.9256  -13.0531 O   0  0  0  0  0  0  0  0  0  0  0  0
  2  1  1  1
  2  3  1  0
  2  8  1  0
  4  3  1  0
  5  4  1  0
  6  5  1  0
  7  6  1  0
  8  9  2  0
 11 13  1  0
 11 10  1  0
 12 11  2  0
 14 13  1  6
 14 16  1  0
 15 14  1  0
 15  8  1  0
 16 17  2  0
 18 19  1  0
 18 16  1  0
 19 20  1  0
 20 21  2  0
 20 22  1  0
M  END
$$$$
