KNG.pdb
     RDKit          3D

 22 21  0  0  1  0  0  0  0  0999 V2000
   27.7860  -20.8192  -15.7050 N   0  0  0  0  0  0  0  0  0  0  0  0
   27.3107  -19.9374  -14.6790 C   0  0  1  0  0  0  0  0  0  0  0  0
   27.0874  -18.5260  -15.0778 C   0  0  0  0  0  0  0  0  0  0  0  0
   28.0250  -18.0748  -16.1479 C   0  0  0  0  0  0  0  0  0  0  0  0
   27.4193  -17.6828  -17.4473 C   0  0  0  0  0  0  0  0  0  0  0  0
   28.5097  -17.3018  -18.4389 C   0  0  0  0  0  0  0  0  0  0  0  0
   27.8802  -17.0378  -19.6973 N   0  0  0  0  0  0  0  0  0  0  0  0
   26.0036  -20.4712  -14.1524 C   0  0  0  0  0  0  0  0  0  0  0  0
   25.4495  -21.3812  -14.8119 O   0  0  0  0  0  0  0  0  0  0  0  0
   26.2677  -20.4822   -9.4811 N   0  0  0  0  0  0  0  0  0  0  0  0
   25.5807  -21.2788  -10.4700 C   0  0  0  0  0  0  0  0  0  0  0  0
   26.1816  -22.3113  -10.8238 O   0  0  0  0  0  0  0  0  0  0  0  0
   24.2850  -20.8369  -10.9654 C   0  0  0  0  0  0  0  0  0  0  0  0
   24.2430  -20.7276  -12.4483 C   0  0  2  0  0  0  0  0  0  0  0  0
   25.3972  -19.9916  -12.9684 N   0  0  0  0  0  0  0  0  0  0  0  0
   23.0324  -20.1518  -13.0322 C   0  0  0  0  0  0  0  0  0  0  0  0
   22.4974  -19.1152  -12.6112 O   0  0  0  0  0  0  0  0  0  0  0  0
   22.3994  -20.7848  -14.1483 N   0  0  0  0  0  0  0  0  0  0  0  0
   21.1659  -21.5138  -14.0234 C   0  0  0  0  0  0  0  0  0  0  0  0
   19.9899  -20.6175  -13.9643 C   0  0  0  0  0  0  0  0  0  0  0  0
   19.6070  -19.9829  -14.9785 O   0  0  0  0  0  0  0  0  0  0  0  0
   19.2548  -20.4321  -12.7986 O   0  0  0  0  0  0  0  0  0  0  0  0
  2  1  1  6
  2  3  1  0
  2  8  1  0
  4  3  1  0
  5  4  1  0
  6  5  1  0
  7  6  1  0
  8  9  2  0
 11 13  1  0
 11 10  1  0
 12 11  2  0
 14 13  1  1
 14 16  1  0
 15 14  1  0
 15  8  1  0
 16 17  2  0
 18 19  1  0
 18 16  1  0
 19 20  1  0
 20 21  2  0
 20 22  1  0
M  END
$$$$
