KNG.pdb
     RDKit          3D

 22 21  0  0  1  0  0  0  0  0999 V2000
   28.4166  -23.2879  -16.2330 N   0  0  0  0  0  0  0  0  0  0  0  0
   27.2062  -22.8042  -16.8305 C   0  0  1  0  0  0  0  0  0  0  0  0
   26.2465  -23.8351  -17.2965 C   0  0  0  0  0  0  0  0  0  0  0  0
   26.5868  -25.2027  -16.8051 C   0  0  0  0  0  0  0  0  0  0  0  0
   25.6733  -26.3046  -17.2056 C   0  0  0  0  0  0  0  0  0  0  0  0
   26.1440  -27.6200  -16.6011 C   0  0  0  0  0  0  0  0  0  0  0  0
   25.2553  -28.6482  -17.0512 N   0  0  0  0  0  0  0  0  0  0  0  0
   26.4880  -21.9366  -15.8294 C   0  0  0  0  0  0  0  0  0  0  0  0
   27.1522  -21.5200  -14.8521 O   0  0  0  0  0  0  0  0  0  0  0  0
   27.4383  -18.6770  -15.2930 N   0  0  0  0  0  0  0  0  0  0  0  0
   26.3052  -19.0444  -14.4771 C   0  0  0  0  0  0  0  0  0  0  0  0
   26.5382  -19.1174  -13.2554 O   0  0  0  0  0  0  0  0  0  0  0  0
   25.0203  -19.2946  -15.1143 C   0  0  0  0  0  0  0  0  0  0  0  0
   24.5546  -20.6964  -14.9388 C   0  0  2  0  0  0  0  0  0  0  0  0
   25.1238  -21.5856  -15.9535 N   0  0  0  0  0  0  0  0  0  0  0  0
   23.1085  -20.9103  -14.9024 C   0  0  0  0  0  0  0  0  0  0  0  0
   22.4196  -21.0942  -15.9171 O   0  0  0  0  0  0  0  0  0  0  0  0
   22.4121  -20.9153  -13.6526 N   0  0  0  0  0  0  0  0  0  0  0  0
   20.9970  -21.1546  -13.5597 C   0  0  0  0  0  0  0  0  0  0  0  0
   20.6896  -22.5515  -13.1799 C   0  0  0  0  0  0  0  0  0  0  0  0
   21.3287  -23.5132  -13.6744 O   0  0  0  0  0  0  0  0  0  0  0  0
   19.6901  -22.8705  -12.2672 O   0  0  0  0  0  0  0  0  0  0  0  0
  2  1  1  1
  2  3  1  0
  2  8  1  0
  4  3  1  0
  5  4  1  0
  6  5  1  0
  7  6  1  0
  8  9  2  0
 11 13  1  0
 11 10  1  0
 12 11  2  0
 14 13  1  6
 14 16  1  0
 15 14  1  0
 15  8  1  0
 16 17  2  0
 18 19  1  0
 18 16  1  0
 19 20  1  0
 20 21  2  0
 20 22  1  0
M  END
$$$$
