KNG.pdb
     RDKit          3D

 22 21  0  0  1  0  0  0  0  0999 V2000
   24.9248  -20.0011   -9.5913 N   0  0  0  0  0  0  0  0  0  0  0  0
   24.1267  -20.5799  -10.6326 C   0  0  1  0  0  0  0  0  0  0  0  0
   22.6649  -20.6355  -10.3855 C   0  0  0  0  0  0  0  0  0  0  0  0
   22.3082  -21.5199   -9.2374 C   0  0  0  0  0  0  0  0  0  0  0  0
   20.8645  -21.8146   -9.0425 C   0  0  0  0  0  0  0  0  0  0  0  0
   20.6658  -22.6457   -7.7827 C   0  0  0  0  0  0  0  0  0  0  0  0
   19.2699  -22.9452   -7.6749 N   0  0  0  0  0  0  0  0  0  0  0  0
   24.3422  -19.7923  -11.8991 C   0  0  0  0  0  0  0  0  0  0  0  0
   24.4500  -18.5489  -11.7887 O   0  0  0  0  0  0  0  0  0  0  0  0
   26.8032  -17.7261  -16.0349 N   0  0  0  0  0  0  0  0  0  0  0  0
   26.1405  -18.9986  -16.1968 C   0  0  0  0  0  0  0  0  0  0  0  0
   25.8087  -19.2740  -17.3657 O   0  0  0  0  0  0  0  0  0  0  0  0
   25.9149  -19.8376  -15.0286 C   0  0  0  0  0  0  0  0  0  0  0  0
   24.6413  -19.5191  -14.3291 C   0  0  2  0  0  0  0  0  0  0  0  0
   24.4251  -20.3949  -13.1756 N   0  0  0  0  0  0  0  0  0  0  0  0
   23.4252  -19.5233  -15.1410 C   0  0  0  0  0  0  0  0  0  0  0  0
   22.8063  -20.5559  -15.4387 O   0  0  0  0  0  0  0  0  0  0  0  0
   22.8868  -18.2946  -15.6384 N   0  0  0  0  0  0  0  0  0  0  0  0
   21.7427  -18.2508  -16.5089 C   0  0  0  0  0  0  0  0  0  0  0  0
   21.3615  -16.8654  -16.8626 C   0  0  0  0  0  0  0  0  0  0  0  0
   20.3289  -16.3348  -16.3829 O   0  0  0  0  0  0  0  0  0  0  0  0
   22.1158  -16.0864  -17.7331 O   0  0  0  0  0  0  0  0  0  0  0  0
  2  1  1  1
  2  3  1  0
  2  8  1  0
  4  3  1  0
  5  4  1  0
  6  5  1  0
  7  6  1  0
  8  9  2  0
 11 13  1  0
 11 10  1  0
 12 11  2  0
 14 13  1  6
 14 16  1  0
 15 14  1  0
 15  8  1  0
 16 17  2  0
 18 19  1  0
 18 16  1  0
 19 20  1  0
 20 21  2  0
 20 22  1  0
M  END
$$$$
