KNG.pdb
     RDKit          3D

 22 21  0  0  1  0  0  0  0  0999 V2000
   12.4505  -11.3080  -12.2811 N   0  0  0  0  0  0  0  0  0  0  0  0
   13.8829  -11.3600  -12.3226 C   0  0  1  0  0  0  0  0  0  0  0  0
   14.4881  -11.7632  -13.6157 C   0  0  0  0  0  0  0  0  0  0  0  0
   14.2390  -13.1973  -13.9458 C   0  0  0  0  0  0  0  0  0  0  0  0
   14.9878  -14.2068  -13.1527 C   0  0  0  0  0  0  0  0  0  0  0  0
   14.5712  -15.6112  -13.5669 C   0  0  0  0  0  0  0  0  0  0  0  0
   15.3541  -16.5388  -12.8078 N   0  0  0  0  0  0  0  0  0  0  0  0
   14.4248   -9.9977  -11.9743 C   0  0  0  0  0  0  0  0  0  0  0  0
   13.8517   -9.0064  -12.4829 O   0  0  0  0  0  0  0  0  0  0  0  0
   15.7403   -5.5599   -9.6867 N   0  0  0  0  0  0  0  0  0  0  0  0
   16.3353   -6.7461   -9.1179 C   0  0  0  0  0  0  0  0  0  0  0  0
   17.3176   -6.5398   -8.3799 O   0  0  0  0  0  0  0  0  0  0  0  0
   15.7682   -8.0491   -9.4345 C   0  0  0  0  0  0  0  0  0  0  0  0
   15.9643   -8.4309  -10.8588 C   0  0  2  0  0  0  0  0  0  0  0  0
   15.5306   -9.8060  -11.1139 N   0  0  0  0  0  0  0  0  0  0  0  0
   17.3107   -8.2670  -11.4052 C   0  0  0  0  0  0  0  0  0  0  0  0
   18.3428   -8.5148  -10.7638 O   0  0  0  0  0  0  0  0  0  0  0  0
   17.4926   -7.7989  -12.7448 N   0  0  0  0  0  0  0  0  0  0  0  0
   18.7928   -7.5297  -13.2974 C   0  0  0  0  0  0  0  0  0  0  0  0
   19.1410   -6.0928  -13.2341 C   0  0  0  0  0  0  0  0  0  0  0  0
   18.3339   -5.2502  -12.7687 O   0  0  0  0  0  0  0  0  0  0  0  0
   20.3641   -5.6043  -13.6803 O   0  0  0  0  0  0  0  0  0  0  0  0
  2  1  1  6
  2  3  1  0
  2  8  1  0
  4  3  1  0
  5  4  1  0
  6  5  1  0
  7  6  1  0
  8  9  2  0
 11 13  1  0
 11 10  1  0
 12 11  2  0
 14 13  1  1
 14 16  1  0
 15 14  1  0
 15  8  1  0
 16 17  2  0
 18 19  1  0
 18 16  1  0
 19 20  1  0
 20 21  2  0
 20 22  1  0
M  END
$$$$
