KNG.pdb
     RDKit          3D

 22 21  0  0  1  0  0  0  0  0999 V2000
   22.7333  -26.7359  -13.1320 N   0  0  0  0  0  0  0  0  0  0  0  0
   21.7631  -25.6939  -13.3025 C   0  0  1  0  0  0  0  0  0  0  0  0
   20.7996  -25.5055  -12.1903 C   0  0  0  0  0  0  0  0  0  0  0  0
   20.0136  -26.7393  -11.8941 C   0  0  0  0  0  0  0  0  0  0  0  0
   18.9304  -26.6167  -10.8838 C   0  0  0  0  0  0  0  0  0  0  0  0
   18.1596  -27.9255  -10.7821 C   0  0  0  0  0  0  0  0  0  0  0  0
   17.1526  -27.7602   -9.7781 N   0  0  0  0  0  0  0  0  0  0  0  0
   22.4885  -24.3878  -13.4993 C   0  0  0  0  0  0  0  0  0  0  0  0
   22.9939  -23.8550  -12.4842 O   0  0  0  0  0  0  0  0  0  0  0  0
   25.9315  -24.7620  -15.4896 N   0  0  0  0  0  0  0  0  0  0  0  0
   25.6676  -23.4015  -15.0846 C   0  0  0  0  0  0  0  0  0  0  0  0
   26.4234  -22.9606  -14.1977 O   0  0  0  0  0  0  0  0  0  0  0  0
   24.5794  -22.6690  -15.7160 C   0  0  0  0  0  0  0  0  0  0  0  0
   23.3943  -22.5221  -14.8290 C   0  0  2  0  0  0  0  0  0  0  0  0
   22.6146  -23.7597  -14.7600 N   0  0  0  0  0  0  0  0  0  0  0  0
   22.4797  -21.4214  -15.1288 C   0  0  0  0  0  0  0  0  0  0  0  0
   21.5024  -21.5319  -15.8844 O   0  0  0  0  0  0  0  0  0  0  0  0
   22.6857  -20.1330  -14.5417 N   0  0  0  0  0  0  0  0  0  0  0  0
   21.7786  -19.0367  -14.7507 C   0  0  0  0  0  0  0  0  0  0  0  0
   22.2835  -18.0768  -15.7574 C   0  0  0  0  0  0  0  0  0  0  0  0
   23.3587  -18.2875  -16.3718 O   0  0  0  0  0  0  0  0  0  0  0  0
   21.6041  -16.9054  -16.0734 O   0  0  0  0  0  0  0  0  0  0  0  0
  2  1  1  1
  2  3  1  0
  2  8  1  0
  4  3  1  0
  5  4  1  0
  6  5  1  0
  7  6  1  0
  8  9  2  0
 11 13  1  0
 11 10  1  0
 12 11  2  0
 14 13  1  6
 14 16  1  0
 15 14  1  0
 15  8  1  0
 16 17  2  0
 18 19  1  0
 18 16  1  0
 19 20  1  0
 20 21  2  0
 20 22  1  0
M  END
$$$$
