KNG.pdb
     RDKit          3D

 22 21  0  0  1  0  0  0  0  0999 V2000
   28.4680  -20.4152  -15.8382 N   0  0  0  0  0  0  0  0  0  0  0  0
   27.4980  -19.8136  -14.9702 C   0  0  1  0  0  0  0  0  0  0  0  0
   26.6280  -18.7762  -15.5768 C   0  0  0  0  0  0  0  0  0  0  0  0
   27.3381  -17.9573  -16.6030 C   0  0  0  0  0  0  0  0  0  0  0  0
   27.0596  -18.2798  -18.0269 C   0  0  0  0  0  0  0  0  0  0  0  0
   27.8906  -17.3867  -18.9375 C   0  0  0  0  0  0  0  0  0  0  0  0
   27.6562  -17.8032  -20.2870 N   0  0  0  0  0  0  0  0  0  0  0  0
   26.6009  -20.8956  -14.4268 C   0  0  0  0  0  0  0  0  0  0  0  0
   27.1419  -21.9775  -14.1003 O   0  0  0  0  0  0  0  0  0  0  0  0
   25.5450  -21.2924   -9.7018 N   0  0  0  0  0  0  0  0  0  0  0  0
   26.1008  -20.9398  -10.9869 C   0  0  0  0  0  0  0  0  0  0  0  0
   27.2518  -21.3676  -11.1975 O   0  0  0  0  0  0  0  0  0  0  0  0
   25.3086  -20.1400  -11.9101 C   0  0  0  0  0  0  0  0  0  0  0  0
   24.6315  -20.9625  -12.9483 C   0  0  2  0  0  0  0  0  0  0  0  0
   25.2042  -20.7342  -14.2765 N   0  0  0  0  0  0  0  0  0  0  0  0
   23.1785  -20.8316  -13.0479 C   0  0  0  0  0  0  0  0  0  0  0  0
   22.4095  -21.0102  -12.0915 O   0  0  0  0  0  0  0  0  0  0  0  0
   22.5705  -20.4808  -14.2946 N   0  0  0  0  0  0  0  0  0  0  0  0
   21.1462  -20.5081  -14.4922 C   0  0  0  0  0  0  0  0  0  0  0  0
   20.5400  -19.1627  -14.3809 C   0  0  0  0  0  0  0  0  0  0  0  0
   21.2424  -18.1551  -14.1176 O   0  0  0  0  0  0  0  0  0  0  0  0
   19.1783  -18.9442  -14.5594 O   0  0  0  0  0  0  0  0  0  0  0  0
  2  1  1  6
  2  3  1  0
  2  8  1  0
  4  3  1  0
  5  4  1  0
  6  5  1  0
  7  6  1  0
  8  9  2  0
 11 13  1  0
 11 10  1  0
 12 11  2  0
 14 13  1  1
 14 16  1  0
 15 14  1  0
 15  8  1  0
 16 17  2  0
 18 19  1  0
 18 16  1  0
 19 20  1  0
 20 21  2  0
 20 22  1  0
M  END
$$$$
