KNG.pdb
     RDKit          3D

 22 21  0  0  1  0  0  0  0  0999 V2000
   24.0471  -21.1748  -12.6309 N   0  0  0  0  0  0  0  0  0  0  0  0
   23.5555  -21.1445  -13.9776 C   0  0  1  0  0  0  0  0  0  0  0  0
   22.2044  -20.5628  -14.1703 C   0  0  0  0  0  0  0  0  0  0  0  0
   21.1147  -21.4719  -13.7077 C   0  0  0  0  0  0  0  0  0  0  0  0
   19.7218  -20.9728  -13.8479 C   0  0  0  0  0  0  0  0  0  0  0  0
   18.7357  -22.0403  -13.3946 C   0  0  0  0  0  0  0  0  0  0  0  0
   17.4156  -21.5123  -13.5623 N   0  0  0  0  0  0  0  0  0  0  0  0
   24.5158  -20.3489  -14.8234 C   0  0  0  0  0  0  0  0  0  0  0  0
   24.8994  -19.2456  -14.3700 O   0  0  0  0  0  0  0  0  0  0  0  0
   28.1421  -22.5304  -15.9518 N   0  0  0  0  0  0  0  0  0  0  0  0
   28.0007  -21.1238  -16.2451 C   0  0  0  0  0  0  0  0  0  0  0  0
   28.6910  -20.3666  -15.5363 O   0  0  0  0  0  0  0  0  0  0  0  0
   27.0965  -20.7051  -17.3066 C   0  0  0  0  0  0  0  0  0  0  0  0
   25.9298  -19.9352  -16.7979 C   0  0  2  0  0  0  0  0  0  0  0  0
   24.9869  -20.7951  -16.0798 N   0  0  0  0  0  0  0  0  0  0  0  0
   25.1792  -19.1523  -17.7786 C   0  0  0  0  0  0  0  0  0  0  0  0
   24.2490  -19.6160  -18.4552 O   0  0  0  0  0  0  0  0  0  0  0  0
   25.5015  -17.7762  -18.0010 N   0  0  0  0  0  0  0  0  0  0  0  0
   24.7827  -16.9582  -18.9405 C   0  0  0  0  0  0  0  0  0  0  0  0
   25.1901  -15.5372  -18.8715 C   0  0  0  0  0  0  0  0  0  0  0  0
   24.6854  -14.6803  -19.6389 O   0  0  0  0  0  0  0  0  0  0  0  0
   26.1409  -15.0800  -17.9656 O   0  0  0  0  0  0  0  0  0  0  0  0
  2  1  1  1
  2  3  1  0
  2  8  1  0
  4  3  1  0
  5  4  1  0
  6  5  1  0
  7  6  1  0
  8  9  2  0
 11 13  1  0
 11 10  1  0
 12 11  2  0
 14 13  1  6
 14 16  1  0
 15 14  1  0
 15  8  1  0
 16 17  2  0
 18 19  1  0
 18 16  1  0
 19 20  1  0
 20 21  2  0
 20 22  1  0
M  END
$$$$
