KNG.pdb
     RDKit          3D

 22 21  0  0  1  0  0  0  0  0999 V2000
   18.8446  -13.7627  -16.6861 N   0  0  0  0  0  0  0  0  0  0  0  0
   18.6026  -12.3579  -16.8411 C   0  0  1  0  0  0  0  0  0  0  0  0
   17.2764  -11.8667  -16.3928 C   0  0  0  0  0  0  0  0  0  0  0  0
   16.1445  -12.5971  -17.0355 C   0  0  0  0  0  0  0  0  0  0  0  0
   14.7719  -12.1818  -16.6450 C   0  0  0  0  0  0  0  0  0  0  0  0
   13.7426  -13.0778  -17.3196 C   0  0  0  0  0  0  0  0  0  0  0  0
   12.4491  -12.6871  -16.8464 N   0  0  0  0  0  0  0  0  0  0  0  0
   19.6509  -11.6002  -16.0680 C   0  0  0  0  0  0  0  0  0  0  0  0
   20.2047  -12.1986  -15.1165 O   0  0  0  0  0  0  0  0  0  0  0  0
   23.8598  -10.4748  -13.6910 N   0  0  0  0  0  0  0  0  0  0  0  0
   23.4736   -9.9198  -14.9668 C   0  0  0  0  0  0  0  0  0  0  0  0
   24.1595   -8.9524  -15.3489 O   0  0  0  0  0  0  0  0  0  0  0  0
   22.3536  -10.5062  -15.6887 C   0  0  0  0  0  0  0  0  0  0  0  0
   21.1210   -9.6772  -15.6094 C   0  0  2  0  0  0  0  0  0  0  0  0
   20.0214  -10.2701  -16.3733 N   0  0  0  0  0  0  0  0  0  0  0  0
   21.2450   -8.2737  -16.0004 C   0  0  0  0  0  0  0  0  0  0  0  0
   21.5445   -7.9081  -17.1470 O   0  0  0  0  0  0  0  0  0  0  0  0
   21.0178   -7.2360  -15.0420 N   0  0  0  0  0  0  0  0  0  0  0  0
   21.1854   -5.8433  -15.3596 C   0  0  0  0  0  0  0  0  0  0  0  0
   21.9939   -5.1315  -14.3450 C   0  0  0  0  0  0  0  0  0  0  0  0
   22.4333   -5.7285  -13.3309 O   0  0  0  0  0  0  0  0  0  0  0  0
   22.3069   -3.7813  -14.4580 O   0  0  0  0  0  0  0  0  0  0  0  0
  2  1  1  1
  2  3  1  0
  2  8  1  0
  4  3  1  0
  5  4  1  0
  6  5  1  0
  7  6  1  0
  8  9  2  0
 11 13  1  0
 11 10  1  0
 12 11  2  0
 14 13  1  6
 14 16  1  0
 15 14  1  0
 15  8  1  0
 16 17  2  0
 18 19  1  0
 18 16  1  0
 19 20  1  0
 20 21  2  0
 20 22  1  0
M  END
$$$$
