KNG.pdb
     RDKit          3D

 22 21  0  0  1  0  0  0  0  0999 V2000
   19.8844  -10.6617  -18.0641 N   0  0  0  0  0  0  0  0  0  0  0  0
   19.4501  -10.3820  -16.7265 C   0  0  1  0  0  0  0  0  0  0  0  0
   18.9597  -11.5402  -15.9397 C   0  0  0  0  0  0  0  0  0  0  0  0
   18.2579  -12.5529  -16.7820 C   0  0  0  0  0  0  0  0  0  0  0  0
   17.8377  -13.8091  -16.1080 C   0  0  0  0  0  0  0  0  0  0  0  0
   17.1833  -14.7477  -17.1121 C   0  0  0  0  0  0  0  0  0  0  0  0
   16.7878  -15.9301  -16.4085 N   0  0  0  0  0  0  0  0  0  0  0  0
   20.5979   -9.7708  -15.9651 C   0  0  0  0  0  0  0  0  0  0  0  0
   20.4078   -9.5107  -14.7543 O   0  0  0  0  0  0  0  0  0  0  0  0
   23.2053  -11.3622  -14.6662 N   0  0  0  0  0  0  0  0  0  0  0  0
   24.3198  -10.8049  -15.3955 C   0  0  0  0  0  0  0  0  0  0  0  0
   25.3096  -11.5546  -15.4973 O   0  0  0  0  0  0  0  0  0  0  0  0
   24.2132   -9.4585  -15.9391 C   0  0  0  0  0  0  0  0  0  0  0  0
   22.8715   -8.8545  -15.7201 C   0  0  2  0  0  0  0  0  0  0  0  0
   21.8507   -9.4884  -16.5569 N   0  0  0  0  0  0  0  0  0  0  0  0
   22.7661   -7.4058  -15.8885 C   0  0  0  0  0  0  0  0  0  0  0  0
   22.9810   -6.8258  -16.9634 O   0  0  0  0  0  0  0  0  0  0  0  0
   22.3989   -6.5766  -14.7819 N   0  0  0  0  0  0  0  0  0  0  0  0
   22.3065   -5.1453  -14.8884 C   0  0  0  0  0  0  0  0  0  0  0  0
   21.7500   -4.5279  -13.6641 C   0  0  0  0  0  0  0  0  0  0  0  0
   21.4021   -5.2320  -12.6837 O   0  0  0  0  0  0  0  0  0  0  0  0
   21.5845   -3.1533  -13.5344 O   0  0  0  0  0  0  0  0  0  0  0  0
  2  1  1  6
  2  3  1  0
  2  8  1  0
  4  3  1  0
  5  4  1  0
  6  5  1  0
  7  6  1  0
  8  9  2  0
 11 13  1  0
 11 10  1  0
 12 11  2  0
 14 13  1  6
 14 16  1  0
 15 14  1  0
 15  8  1  0
 16 17  2  0
 18 19  1  0
 18 16  1  0
 19 20  1  0
 20 21  2  0
 20 22  1  0
M  END
$$$$
