KNG.pdb
     RDKit          3D

 22 21  0  0  1  0  0  0  0  0999 V2000
   20.6677  -10.5791  -17.5976 N   0  0  0  0  0  0  0  0  0  0  0  0
   19.5367   -9.7214  -17.8015 C   0  0  1  0  0  0  0  0  0  0  0  0
   18.2373  -10.3949  -18.0441 C   0  0  0  0  0  0  0  0  0  0  0  0
   18.3571  -11.5620  -18.9667 C   0  0  0  0  0  0  0  0  0  0  0  0
   17.8963  -12.8761  -18.4472 C   0  0  0  0  0  0  0  0  0  0  0  0
   18.0501  -13.9455  -19.5196 C   0  0  0  0  0  0  0  0  0  0  0  0
   17.5442  -15.1735  -18.9851 N   0  0  0  0  0  0  0  0  0  0  0  0
   19.3723   -8.8442  -16.5873 C   0  0  0  0  0  0  0  0  0  0  0  0
   18.4144   -8.0365  -16.5901 O   0  0  0  0  0  0  0  0  0  0  0  0
   19.4439   -6.4986  -12.1193 N   0  0  0  0  0  0  0  0  0  0  0  0
   19.3546   -7.9316  -11.9668 C   0  0  0  0  0  0  0  0  0  0  0  0
   19.0543   -8.3211  -10.8221 O   0  0  0  0  0  0  0  0  0  0  0  0
   19.6119   -8.7874  -13.1161 C   0  0  0  0  0  0  0  0  0  0  0  0
   19.9556   -8.0169  -14.3413 C   0  0  2  0  0  0  0  0  0  0  0  0
   20.2410   -8.9011  -15.4730 N   0  0  0  0  0  0  0  0  0  0  0  0
   21.0484   -7.0520  -14.2276 C   0  0  0  0  0  0  0  0  0  0  0  0
   22.2465   -7.3721  -14.2443 O   0  0  0  0  0  0  0  0  0  0  0  0
   20.7659   -5.6564  -14.0882 N   0  0  0  0  0  0  0  0  0  0  0  0
   21.7969   -4.6543  -14.1204 C   0  0  0  0  0  0  0  0  0  0  0  0
   21.2435   -3.2818  -14.1140 C   0  0  0  0  0  0  0  0  0  0  0  0
   20.0082   -3.0806  -14.2201 O   0  0  0  0  0  0  0  0  0  0  0  0
   22.0504   -2.1559  -13.9917 O   0  0  0  0  0  0  0  0  0  0  0  0
  2  1  1  1
  2  3  1  0
  2  8  1  0
  4  3  1  0
  5  4  1  0
  6  5  1  0
  7  6  1  0
  8  9  2  0
 11 13  1  0
 11 10  1  0
 12 11  2  0
 14 13  1  1
 14 16  1  0
 15 14  1  0
 15  8  1  0
 16 17  2  0
 18 19  1  0
 18 16  1  0
 19 20  1  0
 20 21  2  0
 20 22  1  0
M  END
$$$$
