KNG.pdb
     RDKit          3D

 22 21  0  0  1  0  0  0  0  0999 V2000
   26.6250  -18.4281  -16.3831 N   0  0  0  0  0  0  0  0  0  0  0  0
   26.3442  -19.8177  -16.5981 C   0  0  1  0  0  0  0  0  0  0  0  0
   27.2467  -20.5329  -17.5334 C   0  0  0  0  0  0  0  0  0  0  0  0
   27.9405  -19.6122  -18.4814 C   0  0  0  0  0  0  0  0  0  0  0  0
   29.4089  -19.4581  -18.3113 C   0  0  0  0  0  0  0  0  0  0  0  0
   29.9668  -18.5402  -19.3901 C   0  0  0  0  0  0  0  0  0  0  0  0
   31.3734  -18.4043  -19.1607 N   0  0  0  0  0  0  0  0  0  0  0  0
   26.4068  -20.5325  -15.2730 C   0  0  0  0  0  0  0  0  0  0  0  0
   26.1271  -21.7538  -15.2675 O   0  0  0  0  0  0  0  0  0  0  0  0
   30.1869  -19.9957  -12.4602 N   0  0  0  0  0  0  0  0  0  0  0  0
   29.0353  -20.8557  -12.5977 C   0  0  0  0  0  0  0  0  0  0  0  0
   29.2171  -21.8703  -13.2975 O   0  0  0  0  0  0  0  0  0  0  0  0
   27.7912  -20.4910  -11.9354 C   0  0  0  0  0  0  0  0  0  0  0  0
   26.6041  -20.6390  -12.8196 C   0  0  2  0  0  0  0  0  0  0  0  0
   26.7622  -19.8870  -14.0661 N   0  0  0  0  0  0  0  0  0  0  0  0
   25.3053  -20.2978  -12.2410 C   0  0  0  0  0  0  0  0  0  0  0  0
   25.1279  -19.3328  -11.4825 O   0  0  0  0  0  0  0  0  0  0  0  0
   24.1529  -21.0916  -12.5389 N   0  0  0  0  0  0  0  0  0  0  0  0
   22.8467  -20.7771  -12.0257 C   0  0  0  0  0  0  0  0  0  0  0  0
   21.7935  -21.6354  -12.6123 C   0  0  0  0  0  0  0  0  0  0  0  0
   22.0774  -22.5321  -13.4449 O   0  0  0  0  0  0  0  0  0  0  0  0
   20.4509  -21.4976  -12.2778 O   0  0  0  0  0  0  0  0  0  0  0  0
  2  1  1  1
  2  3  1  0
  2  8  1  0
  4  3  1  0
  5  4  1  0
  6  5  1  0
  7  6  1  0
  8  9  2  0
 11 13  1  0
 11 10  1  0
 12 11  2  0
 14 13  1  1
 14 16  1  0
 15 14  1  0
 15  8  1  0
 16 17  2  0
 18 19  1  0
 18 16  1  0
 19 20  1  0
 20 21  2  0
 20 22  1  0
M  END
$$$$
