KNG.pdb
     RDKit          3D

 22 21  0  0  1  0  0  0  0  0999 V2000
   22.8972  -12.8766  -17.9365 N   0  0  0  0  0  0  0  0  0  0  0  0
   22.1375  -12.5888  -16.7548 C   0  0  1  0  0  0  0  0  0  0  0  0
   21.9721  -13.7057  -15.7925 C   0  0  0  0  0  0  0  0  0  0  0  0
   21.4284  -14.9403  -16.4311 C   0  0  0  0  0  0  0  0  0  0  0  0
   21.3233  -16.1482  -15.5715 C   0  0  0  0  0  0  0  0  0  0  0  0
   20.6853  -17.2903  -16.3500 C   0  0  0  0  0  0  0  0  0  0  0  0
   20.6085  -18.4222  -15.4769 N   0  0  0  0  0  0  0  0  0  0  0  0
   22.8011  -11.4527  -16.0202 C   0  0  0  0  0  0  0  0  0  0  0  0
   22.3767  -11.1883  -14.8713 O   0  0  0  0  0  0  0  0  0  0  0  0
   27.3154  -11.5323  -16.0071 N   0  0  0  0  0  0  0  0  0  0  0  0
   26.4868  -10.6653  -15.2031 C   0  0  0  0  0  0  0  0  0  0  0  0
   26.3800  -10.9998  -14.0077 O   0  0  0  0  0  0  0  0  0  0  0  0
   25.8584   -9.5067  -15.8215 C   0  0  0  0  0  0  0  0  0  0  0  0
   24.3727   -9.5702  -15.7845 C   0  0  2  0  0  0  0  0  0  0  0  0
   23.8604  -10.6946  -16.5703 N   0  0  0  0  0  0  0  0  0  0  0  0
   23.6517   -8.3638  -16.1883 C   0  0  0  0  0  0  0  0  0  0  0  0
   23.5361   -8.0001  -17.3683 O   0  0  0  0  0  0  0  0  0  0  0  0
   23.0326   -7.5309  -15.2035 N   0  0  0  0  0  0  0  0  0  0  0  0
   22.3805   -6.2939  -15.5398 C   0  0  0  0  0  0  0  0  0  0  0  0
   21.7424   -5.6602  -14.3646 C   0  0  0  0  0  0  0  0  0  0  0  0
   21.7300   -6.2327  -13.2465 O   0  0  0  0  0  0  0  0  0  0  0  0
   21.1304   -4.4135  -14.4335 O   0  0  0  0  0  0  0  0  0  0  0  0
  2  1  1  6
  2  3  1  0
  2  8  1  0
  4  3  1  0
  5  4  1  0
  6  5  1  0
  7  6  1  0
  8  9  2  0
 11 13  1  0
 11 10  1  0
 12 11  2  0
 14 13  1  6
 14 16  1  0
 15 14  1  0
 15  8  1  0
 16 17  2  0
 18 19  1  0
 18 16  1  0
 19 20  1  0
 20 21  2  0
 20 22  1  0
M  END
$$$$
