VSV.pdb
     RDKit          3D

 21 20  0  0  1  0  0  0  0  0999 V2000
    9.7713  -20.8745   18.1959 C   0  0  0  0  0  0  0  0  0  0  0  0
   10.6064  -19.9407   19.0384 C   0  0  1  0  0  0  0  0  0  0  0  0
   12.0656  -20.2341   18.8621 C   0  0  0  0  0  0  0  0  0  0  0  0
   10.2607  -18.4919   18.7637 C   0  0  2  0  0  0  0  0  0  0  0  0
   10.5214  -18.2217   17.3851 N   0  0  0  0  0  0  0  0  0  0  0  0
   10.9236  -17.5700   19.6918 C   0  0  0  0  0  0  0  0  0  0  0  0
   12.0584  -17.1309   19.4107 O   0  0  0  0  0  0  0  0  0  0  0  0
    9.3783  -16.5908   23.5427 O   0  0  0  0  0  0  0  0  0  0  0  0
   10.0551  -15.6055   22.8311 C   0  0  0  0  0  0  0  0  0  0  0  0
   10.9911  -16.2057   21.8074 C   0  0  2  0  0  0  0  0  0  0  0  0
   10.3440  -17.1286   20.9282 N   0  0  0  0  0  0  0  0  0  0  0  0
   12.0623  -16.9091   22.5513 C   0  0  0  0  0  0  0  0  0  0  0  0
   12.0157  -18.1407   22.6802 O   0  0  0  0  0  0  0  0  0  0  0  0
   15.8570  -15.9524   22.2661 C   0  0  0  0  0  0  0  0  0  0  0  0
   15.4974  -16.1276   23.7150 C   0  0  2  0  0  0  0  0  0  0  0  0
   16.6402  -16.7811   24.4276 C   0  0  0  0  0  0  0  0  0  0  0  0
   14.2019  -16.9106   23.8785 C   0  0  2  0  0  0  0  0  0  0  0  0
   13.1654  -16.2285   23.1378 N   0  0  0  0  0  0  0  0  0  0  0  0
   13.8425  -17.0917   25.3034 C   0  0  0  0  0  0  0  0  0  0  0  0
   12.8370  -16.3563   25.8716 O   0  0  0  0  0  0  0  0  0  0  0  0
   14.4592  -17.9256   26.0094 O   0  0  0  0  0  0  0  0  0  0  0  0
  2  1  1  6
  2  4  1  0
  3  2  1  0
  4  5  1  6
  6  4  1  0
  7  6  2  0
  8  9  1  0
 10  9  1  1
 10 11  1  0
 10 12  1  0
 11  6  1  0
 12 18  1  0
 12 13  2  0
 15 14  1  6
 16 15  1  0
 17 15  1  0
 17 18  1  6
 19 17  1  0
 19 20  1  0
 21 19  2  0
M  END
$$$$
