VSV.pdb
     RDKit          3D

 21 20  0  0  1  0  0  0  0  0999 V2000
   12.4120  -27.3388   17.3042 C   0  0  0  0  0  0  0  0  0  0  0  0
   12.3382  -26.4654   16.0750 C   0  0  1  0  0  0  0  0  0  0  0  0
   12.2516  -27.3045   14.8362 C   0  0  0  0  0  0  0  0  0  0  0  0
   11.2131  -25.4570   16.1817 C   0  0  2  0  0  0  0  0  0  0  0  0
   11.2546  -24.6142   15.0287 N   0  0  0  0  0  0  0  0  0  0  0  0
   11.2271  -24.7316   17.4562 C   0  0  0  0  0  0  0  0  0  0  0  0
   12.0074  -23.7676   17.6020 O   0  0  0  0  0  0  0  0  0  0  0  0
    8.5636  -25.5869   20.7133 O   0  0  0  0  0  0  0  0  0  0  0  0
    9.0176  -24.2967   20.4596 C   0  0  0  0  0  0  0  0  0  0  0  0
   10.3706  -24.3080   19.7861 C   0  0  2  0  0  0  0  0  0  0  0  0
   10.3867  -25.0618   18.5716 N   0  0  0  0  0  0  0  0  0  0  0  0
   11.3322  -24.9034   20.7432 C   0  0  0  0  0  0  0  0  0  0  0  0
   11.5494  -26.1231   20.7194 O   0  0  0  0  0  0  0  0  0  0  0  0
   14.0733  -22.5089   22.8343 C   0  0  0  0  0  0  0  0  0  0  0  0
   14.2448  -23.9900   22.6449 C   0  0  2  0  0  0  0  0  0  0  0  0
   14.9675  -24.2387   21.3577 C   0  0  0  0  0  0  0  0  0  0  0  0
   12.9089  -24.7185   22.6976 C   0  0  2  0  0  0  0  0  0  0  0  0
   12.0343  -24.1300   21.7092 N   0  0  0  0  0  0  0  0  0  0  0  0
   12.3172  -24.6889   24.0546 C   0  0  0  0  0  0  0  0  0  0  0  0
   11.2638  -23.8629   24.3421 O   0  0  0  0  0  0  0  0  0  0  0  0
   12.7776  -25.4246   24.9606 O   0  0  0  0  0  0  0  0  0  0  0  0
  2  1  1  1
  2  4  1  0
  3  2  1  0
  4  5  1  6
  6  4  1  0
  7  6  2  0
  8  9  1  0
 10  9  1  1
 10 11  1  0
 10 12  1  0
 11  6  1  0
 12 18  1  0
 12 13  2  0
 15 14  1  6
 16 15  1  0
 17 15  1  0
 17 18  1  6
 19 17  1  0
 19 20  1  0
 21 19  2  0
M  END
$$$$
