VSV.pdb
     RDKit          3D

 21 20  0  0  1  0  0  0  0  0999 V2000
    3.6591  -20.6223   22.3721 C   0  0  0  0  0  0  0  0  0  0  0  0
    3.1308  -19.4708   21.5510 C   0  0  1  0  0  0  0  0  0  0  0  0
    2.6119  -18.3825   22.4413 C   0  0  0  0  0  0  0  0  0  0  0  0
    4.1667  -18.9775   20.5621 C   0  0  2  0  0  0  0  0  0  0  0  0
    4.4243  -20.0228   19.6228 N   0  0  0  0  0  0  0  0  0  0  0  0
    5.3674  -18.4528   21.2206 C   0  0  0  0  0  0  0  0  0  0  0  0
    6.2673  -19.2444   21.5713 O   0  0  0  0  0  0  0  0  0  0  0  0
    8.1514  -14.6420   22.5012 O   0  0  0  0  0  0  0  0  0  0  0  0
    6.9321  -15.0699   21.9861 C   0  0  0  0  0  0  0  0  0  0  0  0
    6.7640  -16.5650   22.1303 C   0  0  2  0  0  0  0  0  0  0  0  0
    5.5832  -17.0609   21.4952 N   0  0  0  0  0  0  0  0  0  0  0  0
    6.6998  -16.8616   23.5805 C   0  0  0  0  0  0  0  0  0  0  0  0
    5.7431  -16.4493   24.2516 O   0  0  0  0  0  0  0  0  0  0  0  0
    8.3460  -20.1857   25.4888 C   0  0  0  0  0  0  0  0  0  0  0  0
    7.3353  -19.2073   26.0180 C   0  0  2  0  0  0  0  0  0  0  0  0
    5.9844  -19.5576   25.4764 C   0  0  0  0  0  0  0  0  0  0  0  0
    7.7240  -17.7715   25.6930 C   0  0  2  0  0  0  0  0  0  0  0  0
    7.7018  -17.6117   24.2570 N   0  0  0  0  0  0  0  0  0  0  0  0
    9.0369  -17.4101   26.2745 C   0  0  0  0  0  0  0  0  0  0  0  0
   10.0885  -17.0632   25.4692 O   0  0  0  0  0  0  0  0  0  0  0  0
    9.2006  -17.4178   27.5184 O   0  0  0  0  0  0  0  0  0  0  0  0
  2  1  1  1
  2  4  1  0
  3  2  1  0
  4  5  1  6
  6  4  1  0
  7  6  2  0
  8  9  1  0
 10  9  1  1
 10 11  1  0
 10 12  1  0
 11  6  1  0
 12 18  1  0
 12 13  2  0
 15 14  1  6
 16 15  1  0
 17 15  1  0
 17 18  1  6
 19 17  1  0
 19 20  1  0
 21 19  2  0
M  END
$$$$
