VSV.pdb
     RDKit          3D

 21 20  0  0  1  0  0  0  0  0999 V2000
    8.5282  -17.4667   22.0615 C   0  0  0  0  0  0  0  0  0  0  0  0
    8.7958  -16.4861   20.9453 C   0  0  1  0  0  0  0  0  0  0  0  0
    8.5625  -17.1287   19.6115 C   0  0  0  0  0  0  0  0  0  0  0  0
    8.0012  -15.2099   21.1299 C   0  0  2  0  0  0  0  0  0  0  0  0
    8.2528  -14.3584   20.0106 N   0  0  0  0  0  0  0  0  0  0  0  0
    8.2454  -14.5788   22.4311 C   0  0  0  0  0  0  0  0  0  0  0  0
    9.3064  -13.9459   22.6136 O   0  0  0  0  0  0  0  0  0  0  0  0
    5.6890  -15.0988   25.8338 O   0  0  0  0  0  0  0  0  0  0  0  0
    6.3846  -13.9045   25.6757 C   0  0  0  0  0  0  0  0  0  0  0  0
    7.6165  -14.0900   24.8200 C   0  0  2  0  0  0  0  0  0  0  0  0
    7.3279  -14.6406   23.5327 N   0  0  0  0  0  0  0  0  0  0  0  0
    8.5243  -15.0053   25.5503 C   0  0  0  0  0  0  0  0  0  0  0  0
    8.7488  -16.1381   25.1007 O   0  0  0  0  0  0  0  0  0  0  0  0
   10.0891  -14.0234   29.4604 C   0  0  0  0  0  0  0  0  0  0  0  0
   10.9363  -14.6590   28.3940 C   0  0  2  0  0  0  0  0  0  0  0  0
   11.6902  -13.5902   27.6657 C   0  0  0  0  0  0  0  0  0  0  0  0
   10.0994  -15.5100   27.4487 C   0  0  2  0  0  0  0  0  0  0  0  0
    9.1655  -14.6428   26.7675 N   0  0  0  0  0  0  0  0  0  0  0  0
    9.4178  -16.6160   28.1589 C   0  0  0  0  0  0  0  0  0  0  0  0
   10.1354  -17.6480   28.7018 O   0  0  0  0  0  0  0  0  0  0  0  0
    8.1682  -16.6194   28.2715 O   0  0  0  0  0  0  0  0  0  0  0  0
  2  1  1  1
  2  4  1  0
  3  2  1  0
  4  5  1  6
  6  4  1  0
  7  6  2  0
  8  9  1  0
 10  9  1  1
 10 11  1  0
 10 12  1  0
 11  6  1  0
 12 18  1  0
 12 13  2  0
 15 14  1  1
 16 15  1  0
 17 15  1  0
 17 18  1  1
 19 17  1  0
 19 20  1  0
 21 19  2  0
M  END
$$$$
