VSV.pdb
     RDKit          3D

 21 20  0  0  1  0  0  0  0  0999 V2000
    9.3439  -12.7979   18.2370 C   0  0  0  0  0  0  0  0  0  0  0  0
    8.5746  -13.3380   19.4183 C   0  0  1  0  0  0  0  0  0  0  0  0
    7.2125  -12.7167   19.4893 C   0  0  0  0  0  0  0  0  0  0  0  0
    8.5300  -14.8519   19.4020 C   0  0  2  0  0  0  0  0  0  0  0  0
    8.0017  -15.2720   18.1428 N   0  0  0  0  0  0  0  0  0  0  0  0
    7.8264  -15.4061   20.5633 C   0  0  0  0  0  0  0  0  0  0  0  0
    6.6218  -15.7179   20.4562 O   0  0  0  0  0  0  0  0  0  0  0  0
    9.1193  -17.8010   23.5172 O   0  0  0  0  0  0  0  0  0  0  0  0
    7.7951  -17.3866   23.4177 C   0  0  0  0  0  0  0  0  0  0  0  0
    7.6984  -15.9309   23.0229 C   0  0  2  0  0  0  0  0  0  0  0  0
    8.4415  -15.6191   21.8422 N   0  0  0  0  0  0  0  0  0  0  0  0
    8.2239  -15.1332   24.1555 C   0  0  0  0  0  0  0  0  0  0  0  0
    9.4128  -14.7837   24.1632 O   0  0  0  0  0  0  0  0  0  0  0  0
    6.2552  -12.2172   25.7724 C   0  0  0  0  0  0  0  0  0  0  0  0
    6.8202  -13.0646   26.8778 C   0  0  2  0  0  0  0  0  0  0  0  0
    7.2877  -12.1747   27.9870 C   0  0  0  0  0  0  0  0  0  0  0  0
    7.9308  -13.9751   26.3719 C   0  0  2  0  0  0  0  0  0  0  0  0
    7.4163  -14.7392   25.2585 N   0  0  0  0  0  0  0  0  0  0  0  0
    8.4646  -14.8436   27.4457 C   0  0  0  0  0  0  0  0  0  0  0  0
    9.4763  -14.4100   28.2599 O   0  0  0  0  0  0  0  0  0  0  0  0
    7.9927  -15.9927   27.6219 O   0  0  0  0  0  0  0  0  0  0  0  0
  2  1  1  6
  2  4  1  0
  3  2  1  0
  4  5  1  6
  6  4  1  0
  7  6  2  0
  8  9  1  0
 10  9  1  1
 10 11  1  0
 10 12  1  0
 11  6  1  0
 12 18  1  0
 12 13  2  0
 15 14  1  6
 16 15  1  0
 17 15  1  0
 17 18  1  6
 19 17  1  0
 19 20  1  0
 21 19  2  0
M  END
$$$$
