VSV.pdb
     RDKit          3D

 21 20  0  0  1  0  0  0  0  0999 V2000
    8.2710  -12.5957   20.4099 C   0  0  0  0  0  0  0  0  0  0  0  0
    7.8822  -13.5529   19.3091 C   0  0  1  0  0  0  0  0  0  0  0  0
    8.5350  -13.1639   18.0172 C   0  0  0  0  0  0  0  0  0  0  0  0
    8.1641  -14.9884   19.7013 C   0  0  2  0  0  0  0  0  0  0  0  0
    7.7533  -15.8362   18.6271 N   0  0  0  0  0  0  0  0  0  0  0  0
    7.5821  -15.3409   21.0005 C   0  0  0  0  0  0  0  0  0  0  0  0
    6.3493  -15.5195   21.0896 O   0  0  0  0  0  0  0  0  0  0  0  0
    9.3522  -17.5510   23.9131 O   0  0  0  0  0  0  0  0  0  0  0  0
    7.9966  -17.2391   23.8961 C   0  0  0  0  0  0  0  0  0  0  0  0
    7.7626  -15.8085   23.4683 C   0  0  2  0  0  0  0  0  0  0  0  0
    8.3500  -15.4980   22.2026 N   0  0  0  0  0  0  0  0  0  0  0  0
    8.3560  -14.9367   24.5091 C   0  0  0  0  0  0  0  0  0  0  0  0
    9.5723  -14.7002   24.4941 O   0  0  0  0  0  0  0  0  0  0  0  0
    5.8975  -13.0118   27.5019 C   0  0  0  0  0  0  0  0  0  0  0  0
    7.1733  -12.4372   26.9530 C   0  0  2  0  0  0  0  0  0  0  0  0
    6.8520  -11.5616   25.7820 C   0  0  0  0  0  0  0  0  0  0  0  0
    8.1680  -13.5312   26.5897 C   0  0  2  0  0  0  0  0  0  0  0  0
    7.5844  -14.3442   25.5473 N   0  0  0  0  0  0  0  0  0  0  0  0
    8.5606  -14.3344   27.7700 C   0  0  0  0  0  0  0  0  0  0  0  0
    9.3323  -13.7914   28.7621 O   0  0  0  0  0  0  0  0  0  0  0  0
    8.1880  -15.5279   27.8742 O   0  0  0  0  0  0  0  0  0  0  0  0
  2  1  1  1
  2  4  1  0
  3  2  1  0
  4  5  1  6
  6  4  1  0
  7  6  2  0
  8  9  1  0
 10  9  1  1
 10 11  1  0
 10 12  1  0
 11  6  1  0
 12 18  1  0
 12 13  2  0
 15 14  1  6
 16 15  1  0
 17 15  1  0
 17 18  1  6
 19 17  1  0
 19 20  1  0
 21 19  2  0
M  END
$$$$
