VSV.pdb
     RDKit          3D

 21 20  0  0  1  0  0  0  0  0999 V2000
   12.4793  -17.7795   22.3840 C   0  0  0  0  0  0  0  0  0  0  0  0
   11.8141  -17.2710   21.1278 C   0  0  1  0  0  0  0  0  0  0  0  0
   12.4291  -17.8993   19.9140 C   0  0  0  0  0  0  0  0  0  0  0  0
   10.3117  -17.4532   21.1867 C   0  0  2  0  0  0  0  0  0  0  0  0
    9.7586  -17.0288   19.9396 N   0  0  0  0  0  0  0  0  0  0  0  0
    9.7126  -16.8081   22.3597 C   0  0  0  0  0  0  0  0  0  0  0  0
    9.6905  -15.5613   22.4265 O   0  0  0  0  0  0  0  0  0  0  0  0
    7.9362  -19.0116   25.5166 O   0  0  0  0  0  0  0  0  0  0  0  0
    7.4846  -17.7203   25.2639 C   0  0  0  0  0  0  0  0  0  0  0  0
    8.5481  -16.8833   24.5912 C   0  0  2  0  0  0  0  0  0  0  0  0
    9.1376  -17.5281   23.4598 N   0  0  0  0  0  0  0  0  0  0  0  0
    9.5980  -16.6131   25.6012 C   0  0  0  0  0  0  0  0  0  0  0  0
   10.6465  -17.2735   25.5913 O   0  0  0  0  0  0  0  0  0  0  0  0
    8.9749  -13.8518   28.9475 C   0  0  0  0  0  0  0  0  0  0  0  0
   10.2706  -14.0094   28.2023 C   0  0  2  0  0  0  0  0  0  0  0  0
   10.3409  -12.9786   27.1189 C   0  0  0  0  0  0  0  0  0  0  0  0
   10.4329  -15.4213   27.6560 C   0  0  2  0  0  0  0  0  0  0  0  0
    9.4613  -15.6128   26.6036 N   0  0  0  0  0  0  0  0  0  0  0  0
   10.3107  -16.4426   28.7210 C   0  0  0  0  0  0  0  0  0  0  0  0
   11.2923  -16.5933   29.6636 O   0  0  0  0  0  0  0  0  0  0  0  0
    9.3006  -17.1850   28.7714 O   0  0  0  0  0  0  0  0  0  0  0  0
  2  1  1  1
  2  4  1  0
  3  2  1  0
  4  5  1  6
  6  4  1  0
  7  6  2  0
  8  9  1  0
 10  9  1  1
 10 11  1  0
 10 12  1  0
 11  6  1  0
 12 18  1  0
 12 13  2  0
 15 14  1  6
 16 15  1  0
 17 15  1  0
 17 18  1  6
 19 17  1  0
 19 20  1  0
 21 19  2  0
M  END
$$$$
