VSV.pdb
     RDKit          3D

 21 20  0  0  1  0  0  0  0  0999 V2000
    8.1994  -12.4701   20.3703 C   0  0  0  0  0  0  0  0  0  0  0  0
    7.7965  -13.4174   19.2660 C   0  0  1  0  0  0  0  0  0  0  0  0
    8.3091  -12.9338   17.9432 C   0  0  0  0  0  0  0  0  0  0  0  0
    8.2192  -14.8383   19.5765 C   0  0  2  0  0  0  0  0  0  0  0  0
    7.7810  -15.6805   18.5088 N   0  0  0  0  0  0  0  0  0  0  0  0
    7.7818  -15.2773   20.9057 C   0  0  0  0  0  0  0  0  0  0  0  0
    6.5705  -15.5055   21.1058 O   0  0  0  0  0  0  0  0  0  0  0  0
   10.1109  -17.3813   23.5327 O   0  0  0  0  0  0  0  0  0  0  0  0
    8.7284  -17.2905   23.6575 C   0  0  0  0  0  0  0  0  0  0  0  0
    8.2296  -15.9088   23.3020 C   0  0  2  0  0  0  0  0  0  0  0  0
    8.6708  -15.4665   22.0162 N   0  0  0  0  0  0  0  0  0  0  0  0
    8.7363  -14.9791   24.3385 C   0  0  0  0  0  0  0  0  0  0  0  0
    9.8520  -14.4568   24.2048 O   0  0  0  0  0  0  0  0  0  0  0  0
    6.1687  -13.4614   27.3934 C   0  0  0  0  0  0  0  0  0  0  0  0
    7.4025  -12.7696   26.8852 C   0  0  2  0  0  0  0  0  0  0  0  0
    7.0348  -11.9067   25.7186 C   0  0  0  0  0  0  0  0  0  0  0  0
    8.4973  -13.7673   26.5325 C   0  0  2  0  0  0  0  0  0  0  0  0
    7.9916  -14.6481   25.5047 N   0  0  0  0  0  0  0  0  0  0  0  0
    8.9700  -14.5114   27.7222 C   0  0  0  0  0  0  0  0  0  0  0  0
    9.6497  -13.8723   28.7242 O   0  0  0  0  0  0  0  0  0  0  0  0
    8.7514  -15.7426   27.8252 O   0  0  0  0  0  0  0  0  0  0  0  0
  2  1  1  1
  2  4  1  0
  3  2  1  0
  4  5  1  6
  6  4  1  0
  7  6  2  0
  8  9  1  0
 10  9  1  1
 10 11  1  0
 10 12  1  0
 11  6  1  0
 12 18  1  0
 12 13  2  0
 15 14  1  6
 16 15  1  0
 17 15  1  0
 17 18  1  6
 19 17  1  0
 19 20  1  0
 21 19  2  0
M  END
$$$$
