VSV.pdb
     RDKit          3D

 21 20  0  0  1  0  0  0  0  0999 V2000
    8.2890  -12.6219   20.4113 C   0  0  0  0  0  0  0  0  0  0  0  0
    7.7636  -13.4727   19.2803 C   0  0  1  0  0  0  0  0  0  0  0  0
    8.1851  -12.9094   17.9568 C   0  0  0  0  0  0  0  0  0  0  0  0
    8.1576  -14.9249   19.4534 C   0  0  2  0  0  0  0  0  0  0  0  0
    7.5925  -15.6749   18.3765 N   0  0  0  0  0  0  0  0  0  0  0  0
    7.8255  -15.4427   20.7847 C   0  0  0  0  0  0  0  0  0  0  0  0
    6.6272  -15.6106   21.0936 O   0  0  0  0  0  0  0  0  0  0  0  0
   10.5589  -17.4212   23.2686 O   0  0  0  0  0  0  0  0  0  0  0  0
    9.1837  -17.5447   23.4385 C   0  0  0  0  0  0  0  0  0  0  0  0
    8.4640  -16.2656   23.0775 C   0  0  2  0  0  0  0  0  0  0  0  0
    8.8056  -15.7769   21.7783 N   0  0  0  0  0  0  0  0  0  0  0  0
    8.8339  -15.2522   24.0932 C   0  0  0  0  0  0  0  0  0  0  0  0
    9.8750  -14.5944   23.9559 O   0  0  0  0  0  0  0  0  0  0  0  0
    7.5955  -11.9323   27.3659 C   0  0  0  0  0  0  0  0  0  0  0  0
    7.2610  -13.0235   26.3879 C   0  0  2  0  0  0  0  0  0  0  0  0
    5.9917  -13.6921   26.8153 C   0  0  0  0  0  0  0  0  0  0  0  0
    8.4068  -14.0159   26.2446 C   0  0  2  0  0  0  0  0  0  0  0  0
    8.0380  -14.9900   25.2429 N   0  0  0  0  0  0  0  0  0  0  0  0
    8.7537  -14.6489   27.5374 C   0  0  0  0  0  0  0  0  0  0  0  0
    9.4350  -13.9515   28.4988 O   0  0  0  0  0  0  0  0  0  0  0  0
    8.4251  -15.8377   27.7670 O   0  0  0  0  0  0  0  0  0  0  0  0
  2  1  1  1
  2  4  1  0
  3  2  1  0
  4  5  1  6
  6  4  1  0
  7  6  2  0
  8  9  1  0
 10  9  1  1
 10 11  1  0
 10 12  1  0
 11  6  1  0
 12 18  1  0
 12 13  2  0
 15 14  1  1
 16 15  1  0
 17 15  1  0
 17 18  1  6
 19 17  1  0
 19 20  1  0
 21 19  2  0
M  END
$$$$
