VSV.pdb
     RDKit          3D

 21 20  0  0  1  0  0  0  0  0999 V2000
    8.7850  -12.8857   18.2633 C   0  0  0  0  0  0  0  0  0  0  0  0
    8.3813  -13.3724   19.6342 C   0  0  1  0  0  0  0  0  0  0  0  0
    7.0365  -12.8290   20.0118 C   0  0  0  0  0  0  0  0  0  0  0  0
    8.4520  -14.8826   19.7264 C   0  0  2  0  0  0  0  0  0  0  0  0
    7.7355  -15.4340   18.6200 N   0  0  0  0  0  0  0  0  0  0  0  0
    8.0189  -15.3870   21.0335 C   0  0  0  0  0  0  0  0  0  0  0  0
    6.8211  -15.6976   21.2023 O   0  0  0  0  0  0  0  0  0  0  0  0
   10.3921  -17.4113   23.6793 O   0  0  0  0  0  0  0  0  0  0  0  0
    9.0059  -17.3787   23.7915 C   0  0  0  0  0  0  0  0  0  0  0  0
    8.4529  -16.0187   23.4323 C   0  0  2  0  0  0  0  0  0  0  0  0
    8.8972  -15.5514   22.1565 N   0  0  0  0  0  0  0  0  0  0  0  0
    8.8992  -15.0724   24.4814 C   0  0  0  0  0  0  0  0  0  0  0  0
    9.9814  -14.4814   24.3577 O   0  0  0  0  0  0  0  0  0  0  0  0
    6.2446  -13.4436   27.3006 C   0  0  0  0  0  0  0  0  0  0  0  0
    7.6023  -12.8781   26.9909 C   0  0  2  0  0  0  0  0  0  0  0  0
    7.4885  -11.9382   25.8313 C   0  0  0  0  0  0  0  0  0  0  0  0
    8.6210  -13.9798   26.7328 C   0  0  2  0  0  0  0  0  0  0  0  0
    8.1327  -14.8014   25.6490 N   0  0  0  0  0  0  0  0  0  0  0  0
    8.8982  -14.7721   27.9525 C   0  0  0  0  0  0  0  0  0  0  0  0
    9.5820  -14.2235   29.0043 O   0  0  0  0  0  0  0  0  0  0  0  0
    8.5073  -15.9613   28.0358 O   0  0  0  0  0  0  0  0  0  0  0  0
  2  1  1  6
  2  4  1  0
  3  2  1  0
  4  5  1  6
  6  4  1  0
  7  6  2  0
  8  9  1  0
 10  9  1  1
 10 11  1  0
 10 12  1  0
 11  6  1  0
 12 18  1  0
 12 13  2  0
 15 14  1  6
 16 15  1  0
 17 15  1  0
 17 18  1  6
 19 17  1  0
 19 20  1  0
 21 19  2  0
M  END
$$$$
