VSV.pdb
     RDKit          3D

 21 20  0  0  1  0  0  0  0  0999 V2000
    8.4092  -12.8776   17.9162 C   0  0  0  0  0  0  0  0  0  0  0  0
    7.7436  -13.1928   19.2341 C   0  0  1  0  0  0  0  0  0  0  0  0
    6.4249  -13.8692   19.0105 C   0  0  0  0  0  0  0  0  0  0  0  0
    8.6634  -13.9833   20.1414 C   0  0  2  0  0  0  0  0  0  0  0  0
    9.0674  -15.1667   19.4503 N   0  0  0  0  0  0  0  0  0  0  0  0
    8.0744  -14.2305   21.4616 C   0  0  0  0  0  0  0  0  0  0  0  0
    7.7207  -13.2605   22.1642 O   0  0  0  0  0  0  0  0  0  0  0  0
    8.3563  -17.8695   23.6392 O   0  0  0  0  0  0  0  0  0  0  0  0
    7.1205  -17.2309   23.6251 C   0  0  0  0  0  0  0  0  0  0  0  0
    7.2583  -15.7650   23.2839 C   0  0  2  0  0  0  0  0  0  0  0  0
    7.8725  -15.5400   22.0128 N   0  0  0  0  0  0  0  0  0  0  0  0
    8.0871  -15.1439   24.3435 C   0  0  0  0  0  0  0  0  0  0  0  0
    9.3127  -15.0465   24.1888 O   0  0  0  0  0  0  0  0  0  0  0  0
    6.2800  -13.1523   27.7040 C   0  0  0  0  0  0  0  0  0  0  0  0
    7.6009  -12.7889   27.0856 C   0  0  2  0  0  0  0  0  0  0  0  0
    7.3725  -11.7894   25.9948 C   0  0  0  0  0  0  0  0  0  0  0  0
    8.3404  -14.0211   26.5828 C   0  0  2  0  0  0  0  0  0  0  0  0
    7.5362  -14.6426   25.5556 N   0  0  0  0  0  0  0  0  0  0  0  0
    8.6627  -14.9585   27.6827 C   0  0  0  0  0  0  0  0  0  0  0  0
    9.5922  -14.6308   28.6332 O   0  0  0  0  0  0  0  0  0  0  0  0
    8.0841  -16.0693   27.7560 O   0  0  0  0  0  0  0  0  0  0  0  0
  2  1  1  6
  2  4  1  0
  3  2  1  0
  4  5  1  6
  6  4  1  0
  7  6  2  0
  8  9  1  0
 10  9  1  1
 10 11  1  0
 10 12  1  0
 11  6  1  0
 12 18  1  0
 12 13  2  0
 15 14  1  6
 16 15  1  0
 17 15  1  0
 17 18  1  6
 19 17  1  0
 19 20  1  0
 21 19  2  0
M  END
$$$$
