VSV.pdb
     RDKit          3D

 21 20  0  0  1  0  0  0  0  0999 V2000
    8.4753  -13.1942   17.8579 C   0  0  0  0  0  0  0  0  0  0  0  0
    7.8452  -13.3228   19.2238 C   0  0  1  0  0  0  0  0  0  0  0  0
    6.4475  -13.8524   19.1120 C   0  0  0  0  0  0  0  0  0  0  0  0
    8.7120  -14.1434   20.1561 C   0  0  2  0  0  0  0  0  0  0  0  0
    9.0739  -15.3519   19.4853 N   0  0  0  0  0  0  0  0  0  0  0  0
    8.0892  -14.3484   21.4680 C   0  0  0  0  0  0  0  0  0  0  0  0
    7.7390  -13.3557   22.1398 O   0  0  0  0  0  0  0  0  0  0  0  0
    8.2702  -17.9104   23.8504 O   0  0  0  0  0  0  0  0  0  0  0  0
    7.0422  -17.2780   23.6849 C   0  0  0  0  0  0  0  0  0  0  0  0
    7.2141  -15.8235   23.3118 C   0  0  2  0  0  0  0  0  0  0  0  0
    7.8498  -15.6405   22.0446 N   0  0  0  0  0  0  0  0  0  0  0  0
    8.0407  -15.1942   24.3682 C   0  0  0  0  0  0  0  0  0  0  0  0
    9.2542  -15.0258   24.1820 O   0  0  0  0  0  0  0  0  0  0  0  0
    6.2018  -13.1217   27.5447 C   0  0  0  0  0  0  0  0  0  0  0  0
    7.6006  -12.8510   27.0659 C   0  0  2  0  0  0  0  0  0  0  0  0
    7.5534  -11.8414   25.9615 C   0  0  0  0  0  0  0  0  0  0  0  0
    8.3019  -14.1323   26.6362 C   0  0  2  0  0  0  0  0  0  0  0  0
    7.5012  -14.7638   25.6124 N   0  0  0  0  0  0  0  0  0  0  0  0
    8.5545  -15.0344   27.7828 C   0  0  0  0  0  0  0  0  0  0  0  0
    7.9543  -16.2630   27.8535 O   0  0  0  0  0  0  0  0  0  0  0  0
    9.3257  -14.6806   28.7070 O   0  0  0  0  0  0  0  0  0  0  0  0
  2  1  1  6
  2  4  1  0
  3  2  1  0
  4  5  1  6
  6  4  1  0
  7  6  2  0
  8  9  1  0
 10  9  1  1
 10 11  1  0
 10 12  1  0
 11  6  1  0
 12 18  1  0
 12 13  2  0
 15 14  1  6
 16 15  1  0
 17 15  1  0
 17 18  1  6
 19 17  1  0
 19 20  1  0
 21 19  2  0
M  END
$$$$
