VSV.pdb
     RDKit          3D

 21 20  0  0  1  0  0  0  0  0999 V2000
    8.8271  -19.3596   25.8964 C   0  0  0  0  0  0  0  0  0  0  0  0
    7.3620  -19.0279   25.7465 C   0  0  1  0  0  0  0  0  0  0  0  0
    7.0470  -17.7201   26.4075 C   0  0  0  0  0  0  0  0  0  0  0  0
    6.9323  -19.0713   24.2948 C   0  0  2  0  0  0  0  0  0  0  0  0
    7.0471  -20.4184   23.8326 N   0  0  0  0  0  0  0  0  0  0  0  0
    7.6435  -18.0905   23.4684 C   0  0  0  0  0  0  0  0  0  0  0  0
    8.8317  -18.3064   23.1504 O   0  0  0  0  0  0  0  0  0  0  0  0
    5.6705  -14.8789   21.8331 O   0  0  0  0  0  0  0  0  0  0  0  0
    6.9854  -15.0066   21.3972 C   0  0  0  0  0  0  0  0  0  0  0  0
    7.8080  -15.8380   22.3544 C   0  0  2  0  0  0  0  0  0  0  0  0
    7.0538  -16.8728   22.9899 N   0  0  0  0  0  0  0  0  0  0  0  0
    8.3422  -14.9189   23.3865 C   0  0  0  0  0  0  0  0  0  0  0  0
    9.1462  -14.0325   23.0649 O   0  0  0  0  0  0  0  0  0  0  0  0
    6.3358  -13.8211   26.7946 C   0  0  0  0  0  0  0  0  0  0  0  0
    7.5812  -13.1694   26.2624 C   0  0  2  0  0  0  0  0  0  0  0  0
    7.2063  -12.2119   25.1745 C   0  0  0  0  0  0  0  0  0  0  0  0
    8.5933  -14.2029   25.7873 C   0  0  2  0  0  0  0  0  0  0  0  0
    7.9716  -15.0036   24.7575 N   0  0  0  0  0  0  0  0  0  0  0  0
    9.1042  -15.0293   26.9046 C   0  0  0  0  0  0  0  0  0  0  0  0
    9.8611  -14.4715   27.8999 O   0  0  0  0  0  0  0  0  0  0  0  0
    8.8475  -16.2565   26.9514 O   0  0  0  0  0  0  0  0  0  0  0  0
  2  1  1  6
  2  4  1  0
  3  2  1  0
  4  5  1  6
  6  4  1  0
  7  6  2  0
  8  9  1  0
 10  9  1  6
 10 11  1  0
 10 12  1  0
 11  6  1  0
 12 18  1  0
 12 13  2  0
 15 14  1  6
 16 15  1  0
 17 15  1  0
 17 18  1  6
 19 17  1  0
 19 20  1  0
 21 19  2  0
M  END
$$$$
