VSV.pdb
     RDKit          3D

 21 20  0  0  1  0  0  0  0  0999 V2000
    8.2758  -12.4356   20.3423 C   0  0  0  0  0  0  0  0  0  0  0  0
    7.8808  -13.3892   19.2406 C   0  0  1  0  0  0  0  0  0  0  0  0
    8.3767  -12.8974   17.9145 C   0  0  0  0  0  0  0  0  0  0  0  0
    8.3286  -14.8031   19.5480 C   0  0  2  0  0  0  0  0  0  0  0  0
    7.9096  -15.6499   18.4763 N   0  0  0  0  0  0  0  0  0  0  0  0
    7.8950  -15.2543   20.8744 C   0  0  0  0  0  0  0  0  0  0  0  0
    6.6796  -15.4470   21.0870 O   0  0  0  0  0  0  0  0  0  0  0  0
   10.3194  -17.3464   23.4440 O   0  0  0  0  0  0  0  0  0  0  0  0
    8.9363  -17.3300   23.5917 C   0  0  0  0  0  0  0  0  0  0  0  0
    8.3578  -15.9783   23.2415 C   0  0  2  0  0  0  0  0  0  0  0  0
    8.7921  -15.4947   21.9683 N   0  0  0  0  0  0  0  0  0  0  0  0
    8.7873  -15.0305   24.2963 C   0  0  0  0  0  0  0  0  0  0  0  0
    9.8679  -14.4342   24.1854 O   0  0  0  0  0  0  0  0  0  0  0  0
    6.1344  -13.6176   27.3303 C   0  0  0  0  0  0  0  0  0  0  0  0
    7.4123  -12.9459   26.9121 C   0  0  2  0  0  0  0  0  0  0  0  0
    7.1266  -12.0138   25.7761 C   0  0  0  0  0  0  0  0  0  0  0  0
    8.4881  -13.9632   26.5570 C   0  0  2  0  0  0  0  0  0  0  0  0
    8.0060  -14.7641   25.4551 N   0  0  0  0  0  0  0  0  0  0  0  0
    8.8711  -14.7913   27.7232 C   0  0  0  0  0  0  0  0  0  0  0  0
    9.5242  -14.2377   28.7916 O   0  0  0  0  0  0  0  0  0  0  0  0
    8.5997  -16.0160   27.7447 O   0  0  0  0  0  0  0  0  0  0  0  0
  2  1  1  1
  2  4  1  0
  3  2  1  0
  4  5  1  6
  6  4  1  0
  7  6  2  0
  8  9  1  0
 10  9  1  1
 10 11  1  0
 10 12  1  0
 11  6  1  0
 12 18  1  0
 12 13  2  0
 15 14  1  6
 16 15  1  0
 17 15  1  0
 17 18  1  6
 19 17  1  0
 19 20  1  0
 21 19  2  0
M  END
$$$$
