VSV.pdb
     RDKit          3D

 21 20  0  0  1  0  0  0  0  0999 V2000
    7.9586  -12.7688   19.3677 C   0  0  0  0  0  0  0  0  0  0  0  0
    8.1377  -13.4023   20.7263 C   0  0  1  0  0  0  0  0  0  0  0  0
    7.2212  -12.7685   21.7287 C   0  0  0  0  0  0  0  0  0  0  0  0
    7.9831  -14.9074   20.6578 C   0  0  2  0  0  0  0  0  0  0  0  0
    6.7310  -15.2024   20.0361 N   0  0  0  0  0  0  0  0  0  0  0  0
    8.1726  -15.5520   21.9614 C   0  0  0  0  0  0  0  0  0  0  0  0
    7.1872  -15.7162   22.7108 O   0  0  0  0  0  0  0  0  0  0  0  0
   11.9547  -16.9749   23.3452 O   0  0  0  0  0  0  0  0  0  0  0  0
   10.7794  -17.5550   23.8116 C   0  0  0  0  0  0  0  0  0  0  0  0
    9.6195  -16.5885   23.7429 C   0  0  2  0  0  0  0  0  0  0  0  0
    9.4413  -16.0169   22.4448 N   0  0  0  0  0  0  0  0  0  0  0  0
    9.8905  -15.5075   24.7194 C   0  0  0  0  0  0  0  0  0  0  0  0
   10.3593  -14.4287   24.3294 O   0  0  0  0  0  0  0  0  0  0  0  0
    7.5848  -14.0837   27.4600 C   0  0  0  0  0  0  0  0  0  0  0  0
    8.9285  -13.5493   27.0502 C   0  0  2  0  0  0  0  0  0  0  0  0
    8.8123  -12.9154   25.6990 C   0  0  0  0  0  0  0  0  0  0  0  0
    9.9946  -14.6360   27.0793 C   0  0  2  0  0  0  0  0  0  0  0  0
    9.6349  -15.6475   26.1119 N   0  0  0  0  0  0  0  0  0  0  0  0
   10.1709  -15.1999   28.4370 C   0  0  0  0  0  0  0  0  0  0  0  0
    9.9135  -16.5215   28.6859 O   0  0  0  0  0  0  0  0  0  0  0  0
   10.5603  -14.4686   29.3791 O   0  0  0  0  0  0  0  0  0  0  0  0
  2  1  1  6
  2  4  1  0
  3  2  1  0
  4  5  1  1
  6  4  1  0
  7  6  2  0
  8  9  1  0
 10  9  1  6
 10 11  1  0
 10 12  1  0
 11  6  1  0
 12 18  1  0
 12 13  2  0
 15 14  1  6
 16 15  1  0
 17 15  1  0
 17 18  1  6
 19 17  1  0
 19 20  1  0
 21 19  2  0
M  END
$$$$
