VSV.pdb
     RDKit          3D

 21 20  0  0  1  0  0  0  0  0999 V2000
    8.8465  -12.7616   18.1199 C   0  0  0  0  0  0  0  0  0  0  0  0
    8.3968  -13.2457   19.4774 C   0  0  1  0  0  0  0  0  0  0  0  0
    7.0538  -12.6765   19.8220 C   0  0  0  0  0  0  0  0  0  0  0  0
    8.4344  -14.7573   19.5642 C   0  0  2  0  0  0  0  0  0  0  0  0
    7.7598  -15.2896   18.4227 N   0  0  0  0  0  0  0  0  0  0  0  0
    7.9313  -15.2594   20.8470 C   0  0  0  0  0  0  0  0  0  0  0  0
    6.7218  -15.5502   20.9574 O   0  0  0  0  0  0  0  0  0  0  0  0
   10.0680  -17.3798   23.5996 O   0  0  0  0  0  0  0  0  0  0  0  0
    8.6838  -17.2563   23.6625 C   0  0  0  0  0  0  0  0  0  0  0  0
    8.2333  -15.8675   23.2720 C   0  0  2  0  0  0  0  0  0  0  0  0
    8.7525  -15.4433   22.0094 N   0  0  0  0  0  0  0  0  0  0  0  0
    8.7019  -14.9408   24.3289 C   0  0  0  0  0  0  0  0  0  0  0  0
    9.8227  -14.4199   24.2385 O   0  0  0  0  0  0  0  0  0  0  0  0
    5.9956  -13.3648   27.1737 C   0  0  0  0  0  0  0  0  0  0  0  0
    7.2902  -12.7037   26.7914 C   0  0  2  0  0  0  0  0  0  0  0  0
    7.0535  -11.8055   25.6174 C   0  0  0  0  0  0  0  0  0  0  0  0
    8.3804  -13.7294   26.5126 C   0  0  2  0  0  0  0  0  0  0  0  0
    7.9142  -14.6110   25.4668 N   0  0  0  0  0  0  0  0  0  0  0  0
    8.7675  -14.4695   27.7351 C   0  0  0  0  0  0  0  0  0  0  0  0
    8.5618  -15.8197   27.8318 O   0  0  0  0  0  0  0  0  0  0  0  0
    9.2912  -13.8639   28.7011 O   0  0  0  0  0  0  0  0  0  0  0  0
  2  1  1  6
  2  4  1  0
  3  2  1  0
  4  5  1  6
  6  4  1  0
  7  6  2  0
  8  9  1  0
 10  9  1  1
 10 11  1  0
 10 12  1  0
 11  6  1  0
 12 18  1  0
 12 13  2  0
 15 14  1  6
 16 15  1  0
 17 15  1  0
 17 18  1  6
 19 17  1  0
 19 20  1  0
 21 19  2  0
M  END
$$$$
