VLC.pdb
     RDKit          3D

 22 21  0  0  1  0  0  0  0  0999 V2000
    7.3033  -12.7777   20.5114 C   0  0  0  0  0  0  0  0  0  0  0  0
    8.2450  -13.8491   20.0478 C   0  0  2  0  0  0  0  0  0  0  0  0
    7.8287  -14.2848   18.6582 C   0  0  0  0  0  0  0  0  0  0  0  0
    8.3410  -15.0139   20.9915 C   0  0  2  0  0  0  0  0  0  0  0  0
    7.0515  -15.6780   20.9874 N   0  0  0  0  0  0  0  0  0  0  0  0
    8.6896  -14.6353   22.3621 C   0  0  0  0  0  0  0  0  0  0  0  0
    9.8425  -14.3106   22.7454 O   0  0  0  0  0  0  0  0  0  0  0  0
    5.5859  -12.2128   26.9803 C   0  0  0  0  0  0  0  0  0  0  0  0
    6.9862  -12.7388   26.5643 C   0  0  2  0  0  0  0  0  0  0  0  0
    7.9021  -11.5589   26.6246 C   0  0  0  0  0  0  0  0  0  0  0  0
    6.8049  -13.3446   25.2322 C   0  0  0  0  0  0  0  0  0  0  0  0
    7.9934  -14.0900   24.7320 C   0  0  2  0  0  0  0  0  0  0  0  0
    7.6869  -14.6182   23.3688 N   0  0  0  0  0  0  0  0  0  0  0  0
    8.4194  -15.2544   25.5132 C   0  0  0  0  0  0  0  0  0  0  0  0
    8.4987  -15.1589   26.7646 O   0  0  0  0  0  0  0  0  0  0  0  0
    8.7600  -16.5249   24.9846 N   0  0  0  0  0  0  0  0  0  0  0  0
    9.0388  -17.6711   25.8415 C   0  0  1  0  0  0  0  0  0  0  0  0
    8.1765  -18.8214   25.3661 C   0  0  0  0  0  0  0  0  0  0  0  0
    6.4363  -18.5168   25.7678 S   0  0  0  0  0  0  0  0  0  0  0  0
   10.4559  -18.0719   25.6724 C   0  0  0  0  0  0  0  0  0  0  0  0
   11.2025  -17.4252   24.8949 O   0  0  0  0  0  0  0  0  0  0  0  0
   10.9776  -19.1530   26.3591 O   0  0  0  0  0  0  0  0  0  0  0  0
  2  1  1  1
  2  4  1  0
  2  3  1  0
  4  6  1  0
  4  5  1  1
  6  7  2  0
  9  8  1  6
  9 11  1  0
 10  9  1  0
 12 11  1  1
 12 14  1  0
 13 12  1  0
 13  6  1  0
 14 16  1  0
 15 14  2  0
 16 17  1  0
 17 18  1  6
 18 19  1  0
 20 17  1  0
 21 20  2  0
 22 20  1  0
M  END
$$$$
