VLC.pdb
     RDKit          3D

 22 21  0  0  1  0  0  0  0  0999 V2000
    5.0602  -18.6255   21.0673 C   0  0  0  0  0  0  0  0  0  0  0  0
    6.1230  -18.0846   21.9771 C   0  0  2  0  0  0  0  0  0  0  0  0
    6.0800  -18.8589   23.2781 C   0  0  0  0  0  0  0  0  0  0  0  0
    6.0204  -16.6036   22.2067 C   0  0  2  0  0  0  0  0  0  0  0  0
    6.0411  -15.9643   20.9049 N   0  0  0  0  0  0  0  0  0  0  0  0
    7.0985  -16.0590   23.0340 C   0  0  0  0  0  0  0  0  0  0  0  0
    8.2825  -15.8859   22.6469 O   0  0  0  0  0  0  0  0  0  0  0  0
    7.7574  -12.1751   25.0129 C   0  0  0  0  0  0  0  0  0  0  0  0
    6.6376  -13.0325   25.6620 C   0  0  2  0  0  0  0  0  0  0  0  0
    5.9467  -12.1346   26.6373 C   0  0  0  0  0  0  0  0  0  0  0  0
    7.3183  -14.2063   26.2393 C   0  0  0  0  0  0  0  0  0  0  0  0
    7.9270  -15.1181   25.2311 C   0  0  2  0  0  0  0  0  0  0  0  0
    6.8378  -15.6837   24.3796 N   0  0  0  0  0  0  0  0  0  0  0  0
    8.6593  -16.2780   25.7467 C   0  0  0  0  0  0  0  0  0  0  0  0
    8.0187  -17.2299   26.2613 O   0  0  0  0  0  0  0  0  0  0  0  0
   10.0668  -16.4453   25.7205 N   0  0  0  0  0  0  0  0  0  0  0  0
   10.7123  -17.6558   26.2143 C   0  0  1  0  0  0  0  0  0  0  0  0
   12.0418  -17.7913   25.5023 C   0  0  0  0  0  0  0  0  0  0  0  0
   11.8094  -17.7178   23.7070 S   0  0  0  0  0  0  0  0  0  0  0  0
   10.9915  -17.5025   27.6620 C   0  0  0  0  0  0  0  0  0  0  0  0
   10.6663  -16.4430   28.2552 O   0  0  0  0  0  0  0  0  0  0  0  0
   11.6081  -18.5111   28.3797 O   0  0  0  0  0  0  0  0  0  0  0  0
  2  1  1  6
  2  4  1  0
  2  3  1  0
  4  6  1  0
  4  5  1  6
  6  7  2  0
  9  8  1  1
  9 11  1  0
 10  9  1  0
 12 11  1  1
 12 14  1  0
 13 12  1  0
 13  6  1  0
 14 16  1  0
 15 14  2  0
 16 17  1  0
 17 18  1  6
 18 19  1  0
 20 17  1  0
 21 20  2  0
 22 20  1  0
M  END
$$$$
