VLC.pdb
     RDKit          3D

 22 21  0  0  1  0  0  0  0  0999 V2000
    7.3334  -17.0015   19.4947 C   0  0  0  0  0  0  0  0  0  0  0  0
    7.9317  -16.7345   20.8439 C   0  0  2  0  0  0  0  0  0  0  0  0
    7.5108  -17.8454   21.7834 C   0  0  0  0  0  0  0  0  0  0  0  0
    7.5900  -15.3795   21.3950 C   0  0  2  0  0  0  0  0  0  0  0  0
    7.9906  -14.3989   20.4042 N   0  0  0  0  0  0  0  0  0  0  0  0
    8.2442  -15.0792   22.6698 C   0  0  0  0  0  0  0  0  0  0  0  0
    9.4751  -14.8637   22.8114 O   0  0  0  0  0  0  0  0  0  0  0  0
    8.0044  -11.8531   25.7707 C   0  0  0  0  0  0  0  0  0  0  0  0
    6.7108  -12.7075   25.6859 C   0  0  2  0  0  0  0  0  0  0  0  0
    5.7207  -12.0434   26.5878 C   0  0  0  0  0  0  0  0  0  0  0  0
    7.1107  -14.0750   26.0662 C   0  0  0  0  0  0  0  0  0  0  0  0
    8.1268  -14.6881   25.1662 C   0  0  2  0  0  0  0  0  0  0  0  0
    7.4747  -15.0155   23.8628 N   0  0  0  0  0  0  0  0  0  0  0  0
    8.7406  -15.9395   25.6189 C   0  0  0  0  0  0  0  0  0  0  0  0
    8.0420  -16.9840   25.6676 O   0  0  0  0  0  0  0  0  0  0  0  0
   10.0911  -16.1005   26.0185 N   0  0  0  0  0  0  0  0  0  0  0  0
   10.6178  -17.3830   26.4698 C   0  0  1  0  0  0  0  0  0  0  0  0
   12.0415  -17.4982   25.9669 C   0  0  0  0  0  0  0  0  0  0  0  0
   12.0888  -17.3575   24.1612 S   0  0  0  0  0  0  0  0  0  0  0  0
   10.6621  -17.3966   27.9514 C   0  0  0  0  0  0  0  0  0  0  0  0
   10.2535  -16.4008   28.6007 O   0  0  0  0  0  0  0  0  0  0  0  0
   11.1483  -18.4930   28.6398 O   0  0  0  0  0  0  0  0  0  0  0  0
  2  1  1  6
  2  4  1  0
  2  3  1  0
  4  6  1  0
  4  5  1  6
  6  7  2  0
  9  8  1  1
  9 11  1  0
 10  9  1  0
 12 11  1  1
 12 14  1  0
 13 12  1  0
 13  6  1  0
 14 16  1  0
 15 14  2  0
 16 17  1  0
 17 18  1  6
 18 19  1  0
 20 17  1  0
 21 20  2  0
 22 20  1  0
M  END
$$$$
