VLC.pdb
     RDKit          3D

 22 21  0  0  1  0  0  0  0  0999 V2000
    7.2602  -13.7092   20.2154 C   0  0  0  0  0  0  0  0  0  0  0  0
    8.1861  -14.8634   19.9698 C   0  0  2  0  0  0  0  0  0  0  0  0
    7.7295  -15.5869   18.7200 C   0  0  0  0  0  0  0  0  0  0  0  0
    8.3066  -15.7963   21.1410 C   0  0  2  0  0  0  0  0  0  0  0  0
    7.0262  -16.4597   21.2959 N   0  0  0  0  0  0  0  0  0  0  0  0
    8.6636  -15.1276   22.3934 C   0  0  0  0  0  0  0  0  0  0  0  0
    9.8067  -14.6809   22.6678 O   0  0  0  0  0  0  0  0  0  0  0  0
    5.5765  -12.1007   26.6773 C   0  0  0  0  0  0  0  0  0  0  0  0
    6.9886  -12.6184   26.2916 C   0  0  2  0  0  0  0  0  0  0  0  0
    7.8421  -11.4015   26.1320 C   0  0  0  0  0  0  0  0  0  0  0  0
    6.7966  -13.4328   25.0774 C   0  0  0  0  0  0  0  0  0  0  0  0
    8.0078  -14.1856   24.6476 C   0  0  2  0  0  0  0  0  0  0  0  0
    7.6812  -14.9460   23.4041 N   0  0  0  0  0  0  0  0  0  0  0  0
    8.5336  -15.1815   25.5854 C   0  0  0  0  0  0  0  0  0  0  0  0
    8.8574  -14.8217   26.7460 O   0  0  0  0  0  0  0  0  0  0  0  0
    8.7178  -16.5599   25.3101 N   0  0  0  0  0  0  0  0  0  0  0  0
    9.1338  -17.5063   26.3382 C   0  0  1  0  0  0  0  0  0  0  0  0
    8.2741  -18.7449   26.1980 C   0  0  0  0  0  0  0  0  0  0  0  0
    6.5595  -18.3813   26.6568 S   0  0  0  0  0  0  0  0  0  0  0  0
   10.5401  -17.9052   26.0922 C   0  0  0  0  0  0  0  0  0  0  0  0
   11.0922  -18.7518   26.8396 O   0  0  0  0  0  0  0  0  0  0  0  0
   11.2633  -17.3595   25.0474 O   0  0  0  0  0  0  0  0  0  0  0  0
  2  1  1  1
  2  4  1  0
  2  3  1  0
  4  6  1  0
  4  5  1  1
  6  7  2  0
  9  8  1  6
  9 11  1  0
 10  9  1  0
 12 11  1  1
 12 14  1  0
 13 12  1  0
 13  6  1  0
 14 16  1  0
 15 14  2  0
 16 17  1  0
 17 18  1  6
 18 19  1  0
 20 17  1  0
 21 20  2  0
 22 20  1  0
M  END
$$$$
