VLC.pdb
     RDKit          3D

 22 21  0  0  1  0  0  0  0  0999 V2000
    7.3709  -18.0528   20.3029 C   0  0  0  0  0  0  0  0  0  0  0  0
    7.9753  -17.4978   21.5584 C   0  0  2  0  0  0  0  0  0  0  0  0
    7.6560  -18.4392   22.7011 C   0  0  0  0  0  0  0  0  0  0  0  0
    7.5465  -16.0901   21.8600 C   0  0  2  0  0  0  0  0  0  0  0  0
    7.8243  -15.2938   20.6800 N   0  0  0  0  0  0  0  0  0  0  0  0
    8.2256  -15.5015   23.0158 C   0  0  0  0  0  0  0  0  0  0  0  0
    9.4494  -15.2149   23.0596 O   0  0  0  0  0  0  0  0  0  0  0  0
    7.8078  -11.6291   25.4962 C   0  0  0  0  0  0  0  0  0  0  0  0
    6.5816  -12.5784   25.5710 C   0  0  2  0  0  0  0  0  0  0  0  0
    5.5522  -11.8560   26.3792 C   0  0  0  0  0  0  0  0  0  0  0  0
    7.0866  -13.8370   26.1501 C   0  0  0  0  0  0  0  0  0  0  0  0
    8.1429  -14.5035   25.3386 C   0  0  2  0  0  0  0  0  0  0  0  0
    7.4913  -15.2147   24.1981 N   0  0  0  0  0  0  0  0  0  0  0  0
    8.9546  -15.5180   26.0165 C   0  0  0  0  0  0  0  0  0  0  0  0
    8.4250  -16.6107   26.3436 O   0  0  0  0  0  0  0  0  0  0  0  0
   10.3265  -15.3913   26.3504 N   0  0  0  0  0  0  0  0  0  0  0  0
   11.0509  -16.4384   27.0607 C   0  0  1  0  0  0  0  0  0  0  0  0
   12.5013  -16.3663   26.6320 C   0  0  0  0  0  0  0  0  0  0  0  0
   13.4295  -17.7725   27.2979 S   0  0  0  0  0  0  0  0  0  0  0  0
   10.9985  -16.1646   28.5166 C   0  0  0  0  0  0  0  0  0  0  0  0
   10.7431  -15.0047   28.9282 O   0  0  0  0  0  0  0  0  0  0  0  0
   11.2269  -17.1690   29.4394 O   0  0  0  0  0  0  0  0  0  0  0  0
  2  1  1  6
  2  4  1  0
  2  3  1  0
  4  6  1  0
  4  5  1  6
  6  7  2  0
  9  8  1  1
  9 11  1  0
 10  9  1  0
 12 11  1  1
 12 14  1  0
 13 12  1  0
 13  6  1  0
 14 16  1  0
 15 14  2  0
 16 17  1  0
 17 18  1  6
 18 19  1  0
 20 17  1  0
 21 20  2  0
 22 20  1  0
M  END
$$$$
