VLC.pdb
     RDKit          3D

 22 21  0  0  1  0  0  0  0  0999 V2000
    8.3573  -21.3389   19.5387 C   0  0  0  0  0  0  0  0  0  0  0  0
    8.9719  -20.1103   20.1408 C   0  0  2  0  0  0  0  0  0  0  0  0
    8.8212  -20.1872   21.6459 C   0  0  0  0  0  0  0  0  0  0  0  0
    8.4151  -18.8285   19.5900 C   0  0  2  0  0  0  0  0  0  0  0  0
    8.4947  -18.9113   18.1441 N   0  0  0  0  0  0  0  0  0  0  0  0
    9.1233  -17.6323   20.0492 C   0  0  0  0  0  0  0  0  0  0  0  0
   10.3233  -17.3635   19.7856 O   0  0  0  0  0  0  0  0  0  0  0  0
    8.7953  -13.2898   19.2771 C   0  0  0  0  0  0  0  0  0  0  0  0
    7.6167  -13.9358   20.0544 C   0  0  2  0  0  0  0  0  0  0  0  0
    6.5314  -12.9081   20.0820 C   0  0  0  0  0  0  0  0  0  0  0  0
    8.1688  -14.3231   21.3658 C   0  0  0  0  0  0  0  0  0  0  0  0
    9.1532  -15.4395   21.3097 C   0  0  2  0  0  0  0  0  0  0  0  0
    8.4485  -16.6752   20.8541 N   0  0  0  0  0  0  0  0  0  0  0  0
    9.8074  -15.8068   22.5686 C   0  0  0  0  0  0  0  0  0  0  0  0
    9.1182  -16.2984   23.4985 O   0  0  0  0  0  0  0  0  0  0  0  0
   11.1883  -15.6634   22.8551 N   0  0  0  0  0  0  0  0  0  0  0  0
   11.7836  -16.1845   24.0798 C   0  0  1  0  0  0  0  0  0  0  0  0
   11.6106  -17.6888   24.0714 C   0  0  0  0  0  0  0  0  0  0  0  0
   11.6467  -18.3402   25.7616 S   0  0  0  0  0  0  0  0  0  0  0  0
   13.2382  -15.8994   24.0735 C   0  0  0  0  0  0  0  0  0  0  0  0
   13.8356  -15.7086   22.9840 O   0  0  0  0  0  0  0  0  0  0  0  0
   13.9577  -15.8385   25.2529 O   0  0  0  0  0  0  0  0  0  0  0  0
  2  1  1  6
  2  4  1  0
  2  3  1  0
  4  6  1  0
  4  5  1  6
  6  7  2  0
  9  8  1  6
  9 11  1  0
 10  9  1  0
 12 11  1  1
 12 14  1  0
 13 12  1  0
 13  6  1  0
 14 16  1  0
 15 14  2  0
 16 17  1  0
 17 18  1  6
 18 19  1  0
 20 17  1  0
 21 20  2  0
 22 20  1  0
M  END
$$$$
