VLC.pdb
     RDKit          3D

 22 21  0  0  1  0  0  0  0  0999 V2000
   10.3067  -18.6536   22.4654 C   0  0  0  0  0  0  0  0  0  0  0  0
    8.8910  -18.2911   22.1277 C   0  0  2  0  0  0  0  0  0  0  0  0
    8.4343  -19.1630   20.9765 C   0  0  0  0  0  0  0  0  0  0  0  0
    8.6994  -16.8310   21.8308 C   0  0  2  0  0  0  0  0  0  0  0  0
    9.5311  -16.5122   20.6861 N   0  0  0  0  0  0  0  0  0  0  0  0
    9.0495  -15.9513   22.9475 C   0  0  0  0  0  0  0  0  0  0  0  0
   10.2125  -15.5487   23.2064 O   0  0  0  0  0  0  0  0  0  0  0  0
    5.8868  -12.4412   26.8712 C   0  0  0  0  0  0  0  0  0  0  0  0
    7.3066  -12.9777   26.5443 C   0  0  2  0  0  0  0  0  0  0  0  0
    8.1739  -11.7708   26.3824 C   0  0  0  0  0  0  0  0  0  0  0  0
    7.1478  -13.8207   25.3449 C   0  0  0  0  0  0  0  0  0  0  0  0
    8.3756  -14.5687   24.9557 C   0  0  2  0  0  0  0  0  0  0  0  0
    8.0361  -15.4917   23.8314 N   0  0  0  0  0  0  0  0  0  0  0  0
    8.9863  -15.4161   25.9835 C   0  0  0  0  0  0  0  0  0  0  0  0
    8.3470  -16.4056   26.4234 O   0  0  0  0  0  0  0  0  0  0  0  0
   10.2721  -15.2308   26.5510 N   0  0  0  0  0  0  0  0  0  0  0  0
   10.7824  -16.0917   27.6112 C   0  0  1  0  0  0  0  0  0  0  0  0
   12.2622  -16.2970   27.3648 C   0  0  0  0  0  0  0  0  0  0  0  0
   12.5351  -17.0547   25.7418 S   0  0  0  0  0  0  0  0  0  0  0  0
   10.6355  -15.3990   28.9135 C   0  0  0  0  0  0  0  0  0  0  0  0
   10.2261  -14.2111   28.9499 O   0  0  0  0  0  0  0  0  0  0  0  0
   10.9428  -16.0395   30.1001 O   0  0  0  0  0  0  0  0  0  0  0  0
  2  1  1  6
  2  4  1  0
  2  3  1  0
  4  6  1  0
  4  5  1  6
  6  7  2  0
  9  8  1  6
  9 11  1  0
 10  9  1  0
 12 11  1  1
 12 14  1  0
 13 12  1  0
 13  6  1  0
 14 16  1  0
 15 14  2  0
 16 17  1  0
 17 18  1  6
 18 19  1  0
 20 17  1  0
 21 20  2  0
 22 20  1  0
M  END
$$$$
