VLC.pdb
     RDKit          3D

 22 21  0  0  1  0  0  0  0  0999 V2000
    8.5528  -17.6286   17.5283 C   0  0  0  0  0  0  0  0  0  0  0  0
    9.4874  -18.6222   18.1521 C   0  0  2  0  0  0  0  0  0  0  0  0
    9.0683  -20.0118   17.7195 C   0  0  0  0  0  0  0  0  0  0  0  0
    9.5759  -18.5070   19.6472 C   0  0  2  0  0  0  0  0  0  0  0  0
    8.3031  -18.9441   20.1882 N   0  0  0  0  0  0  0  0  0  0  0  0
    9.8657  -17.1515   20.1182 C   0  0  0  0  0  0  0  0  0  0  0  0
   10.9502  -16.5431   19.9301 O   0  0  0  0  0  0  0  0  0  0  0  0
    8.7698  -12.8547   19.4398 C   0  0  0  0  0  0  0  0  0  0  0  0
    7.6462  -13.8335   19.8757 C   0  0  2  0  0  0  0  0  0  0  0  0
    6.3615  -13.0916   19.6913 C   0  0  0  0  0  0  0  0  0  0  0  0
    7.9711  -14.2221   21.2605 C   0  0  0  0  0  0  0  0  0  0  0  0
    9.1879  -15.0716   21.3883 C   0  0  2  0  0  0  0  0  0  0  0  0
    8.8816  -16.4292   20.8457 N   0  0  0  0  0  0  0  0  0  0  0  0
    9.6943  -15.3000   22.7443 C   0  0  0  0  0  0  0  0  0  0  0  0
    8.9124  -15.1754   23.7213 O   0  0  0  0  0  0  0  0  0  0  0  0
   11.0226  -15.6642   23.0803 N   0  0  0  0  0  0  0  0  0  0  0  0
   11.3753  -16.1773   24.3987 C   0  0  1  0  0  0  0  0  0  0  0  0
   10.6635  -17.5011   24.5825 C   0  0  0  0  0  0  0  0  0  0  0  0
   10.0472  -17.6588   26.2789 S   0  0  0  0  0  0  0  0  0  0  0  0
   12.8333  -16.4407   24.4443 C   0  0  0  0  0  0  0  0  0  0  0  0
   13.3948  -16.6736   25.5446 O   0  0  0  0  0  0  0  0  0  0  0  0
   13.5949  -16.4355   23.2901 O   0  0  0  0  0  0  0  0  0  0  0  0
  2  1  1  1
  2  4  1  0
  2  3  1  0
  4  6  1  0
  4  5  1  1
  6  7  2  0
  9  8  1  1
  9 11  1  0
 10  9  1  0
 12 11  1  1
 12 14  1  0
 13 12  1  0
 13  6  1  0
 14 16  1  0
 15 14  2  0
 16 17  1  0
 17 18  1  6
 18 19  1  0
 20 17  1  0
 21 20  2  0
 22 20  1  0
M  END
$$$$
