VLC.pdb
     RDKit          3D

 22 21  0  0  1  0  0  0  0  0999 V2000
    7.0027  -16.6716   19.2308 C   0  0  0  0  0  0  0  0  0  0  0  0
    7.6141  -16.4536   20.5830 C   0  0  2  0  0  0  0  0  0  0  0  0
    7.0938  -17.5218   21.5223 C   0  0  0  0  0  0  0  0  0  0  0  0
    7.3871  -15.0729   21.1293 C   0  0  2  0  0  0  0  0  0  0  0  0
    7.8970  -14.1334   20.1490 N   0  0  0  0  0  0  0  0  0  0  0  0
    8.0391  -14.8339   22.4182 C   0  0  0  0  0  0  0  0  0  0  0  0
    9.2744  -14.6582   22.5756 O   0  0  0  0  0  0  0  0  0  0  0  0
    7.9309  -11.7826   25.8847 C   0  0  0  0  0  0  0  0  0  0  0  0
    6.6135  -12.5543   25.6025 C   0  0  2  0  0  0  0  0  0  0  0  0
    5.5789  -11.9371   26.4875 C   0  0  0  0  0  0  0  0  0  0  0  0
    6.9191  -13.9732   25.8632 C   0  0  0  0  0  0  0  0  0  0  0  0
    7.9179  -14.5655   24.9305 C   0  0  2  0  0  0  0  0  0  0  0  0
    7.2620  -14.7883   23.6070 N   0  0  0  0  0  0  0  0  0  0  0  0
    8.4844  -15.8635   25.3070 C   0  0  0  0  0  0  0  0  0  0  0  0
    7.7307  -16.8682   25.3686 O   0  0  0  0  0  0  0  0  0  0  0  0
    9.8452  -16.1131   25.6166 N   0  0  0  0  0  0  0  0  0  0  0  0
   10.3196  -17.4332   26.0141 C   0  0  1  0  0  0  0  0  0  0  0  0
   11.7122  -17.6115   25.4467 C   0  0  0  0  0  0  0  0  0  0  0  0
   11.6932  -17.4101   23.6462 S   0  0  0  0  0  0  0  0  0  0  0  0
   10.4261  -17.4875   27.4916 C   0  0  0  0  0  0  0  0  0  0  0  0
   10.8691  -18.5222   28.0513 O   0  0  0  0  0  0  0  0  0  0  0  0
   10.0443  -16.4127   28.2736 O   0  0  0  0  0  0  0  0  0  0  0  0
  2  1  1  6
  2  4  1  0
  2  3  1  0
  4  6  1  0
  4  5  1  6
  6  7  2  0
  9  8  1  1
  9 11  1  0
 10  9  1  0
 12 11  1  1
 12 14  1  0
 13 12  1  0
 13  6  1  0
 14 16  1  0
 15 14  2  0
 16 17  1  0
 17 18  1  6
 18 19  1  0
 20 17  1  0
 21 20  2  0
 22 20  1  0
M  END
$$$$
