VLC.pdb
     RDKit          3D

 22 21  0  0  1  0  0  0  0  0999 V2000
    8.7286  -19.1133   20.5353 C   0  0  0  0  0  0  0  0  0  0  0  0
    9.0830  -18.2410   21.7028 C   0  0  2  0  0  0  0  0  0  0  0  0
    8.6653  -18.9493   22.9747 C   0  0  0  0  0  0  0  0  0  0  0  0
    8.5012  -16.8586   21.6182 C   0  0  2  0  0  0  0  0  0  0  0  0
    8.9323  -16.2871   20.3568 N   0  0  0  0  0  0  0  0  0  0  0  0
    8.9079  -15.9793   22.7158 C   0  0  0  0  0  0  0  0  0  0  0  0
   10.0625  -15.5030   22.8633 O   0  0  0  0  0  0  0  0  0  0  0  0
    8.1011  -13.2472   27.2739 C   0  0  0  0  0  0  0  0  0  0  0  0
    7.4362  -12.6647   25.9975 C   0  0  2  0  0  0  0  0  0  0  0  0
    6.2471  -11.8920   26.4706 C   0  0  0  0  0  0  0  0  0  0  0  0
    7.1472  -13.8245   25.1339 C   0  0  0  0  0  0  0  0  0  0  0  0
    8.3428  -14.6425   24.7875 C   0  0  2  0  0  0  0  0  0  0  0  0
    7.9653  -15.6083   23.7123 N   0  0  0  0  0  0  0  0  0  0  0  0
    8.9171  -15.4595   25.8599 C   0  0  0  0  0  0  0  0  0  0  0  0
    8.1820  -16.2773   26.4701 O   0  0  0  0  0  0  0  0  0  0  0  0
   10.2663  -15.4245   26.2936 N   0  0  0  0  0  0  0  0  0  0  0  0
   10.7977  -16.3877   27.2505 C   0  0  1  0  0  0  0  0  0  0  0  0
   12.2838  -16.5206   26.9922 C   0  0  0  0  0  0  0  0  0  0  0  0
   12.5804  -17.2514   25.3611 S   0  0  0  0  0  0  0  0  0  0  0  0
   10.6260  -15.8553   28.6232 C   0  0  0  0  0  0  0  0  0  0  0  0
   10.0982  -14.7278   28.7976 O   0  0  0  0  0  0  0  0  0  0  0  0
   11.0386  -16.5808   29.7259 O   0  0  0  0  0  0  0  0  0  0  0  0
  2  1  1  6
  2  4  1  0
  2  3  1  0
  4  6  1  0
  4  5  1  6
  6  7  2  0
  9  8  1  1
  9 11  1  0
 10  9  1  0
 12 11  1  1
 12 14  1  0
 13 12  1  0
 13  6  1  0
 14 16  1  0
 15 14  2  0
 16 17  1  0
 17 18  1  6
 18 19  1  0
 20 17  1  0
 21 20  2  0
 22 20  1  0
M  END
$$$$
