VLC.pdb
     RDKit          3D

 22 21  0  0  1  0  0  0  0  0999 V2000
    7.6006  -12.5573   21.2048 C   0  0  0  0  0  0  0  0  0  0  0  0
    8.3409  -13.6806   20.5417 C   0  0  2  0  0  0  0  0  0  0  0  0
    7.8025  -13.8455   19.1356 C   0  0  0  0  0  0  0  0  0  0  0  0
    8.2918  -14.9695   21.3117 C   0  0  2  0  0  0  0  0  0  0  0  0
    6.9162  -15.4288   21.2941 N   0  0  0  0  0  0  0  0  0  0  0  0
    8.7465  -14.8460   22.6978 C   0  0  0  0  0  0  0  0  0  0  0  0
    9.9074  -14.5091   23.0448 O   0  0  0  0  0  0  0  0  0  0  0  0
    8.2473  -12.2597   26.2810 C   0  0  0  0  0  0  0  0  0  0  0  0
    6.9535  -12.9506   25.7720 C   0  0  2  0  0  0  0  0  0  0  0  0
    5.8305  -12.3415   26.5483 C   0  0  0  0  0  0  0  0  0  0  0  0
    7.1665  -14.3954   25.9758 C   0  0  0  0  0  0  0  0  0  0  0  0
    8.2910  -14.9661   25.1831 C   0  0  2  0  0  0  0  0  0  0  0  0
    7.8474  -15.1160   23.7646 N   0  0  0  0  0  0  0  0  0  0  0  0
    8.7740  -16.2910   25.5814 C   0  0  0  0  0  0  0  0  0  0  0  0
    7.9889  -17.2721   25.5307 O   0  0  0  0  0  0  0  0  0  0  0  0
   10.0843  -16.5925   26.0308 N   0  0  0  0  0  0  0  0  0  0  0  0
   10.4825  -17.9436   26.4072 C   0  0  1  0  0  0  0  0  0  0  0  0
   11.9295  -18.1268   26.0004 C   0  0  0  0  0  0  0  0  0  0  0  0
   12.1578  -17.6898   24.2571 S   0  0  0  0  0  0  0  0  0  0  0  0
   10.4095  -18.0795   27.8815 C   0  0  0  0  0  0  0  0  0  0  0  0
   10.0538  -17.1004   28.5851 O   0  0  0  0  0  0  0  0  0  0  0  0
   10.7277  -19.2728   28.5039 O   0  0  0  0  0  0  0  0  0  0  0  0
  2  1  1  1
  2  4  1  0
  2  3  1  0
  4  6  1  0
  4  5  1  1
  6  7  2  0
  9  8  1  1
  9 11  1  0
 10  9  1  0
 12 11  1  1
 12 14  1  0
 13 12  1  0
 13  6  1  0
 14 16  1  0
 15 14  2  0
 16 17  1  0
 17 18  1  1
 18 19  1  0
 20 17  1  0
 21 20  2  0
 22 20  1  0
M  END
$$$$
