GQY.pdb
     RDKit          3D

 26 26  0  0  1  0  0  0  0  0999 V2000
   27.0370  -19.4239  -16.3997 N   0  0  0  0  0  0  0  0  0  0  0  0
   25.8802  -18.8959  -17.1147 C   0  0  0  0  0  0  0  0  0  0  0  0
   24.7295  -18.7354  -16.1475 C   0  0  0  0  0  0  0  0  0  0  0  0
   24.9196  -18.9321  -14.9234 O   0  0  0  0  0  0  0  0  0  0  0  0
   18.6187  -17.6941  -17.4733 N   0  0  0  0  0  0  0  0  0  0  0  0
   18.7507  -17.3576  -16.0949 C   0  0  0  0  0  0  0  0  0  0  0  0
   17.6903  -17.2506  -15.4409 O   0  0  0  0  0  0  0  0  0  0  0  0
   20.0568  -17.1433  -15.4485 C   0  0  0  0  0  0  0  0  0  0  0  0
   21.2303  -17.3056  -16.3589 C   0  0  0  0  0  0  0  0  0  0  0  0
   22.2566  -18.2239  -15.8070 C   0  0  2  0  0  0  0  0  0  0  0  0
   23.4428  -18.3671  -16.6079 N   0  0  0  0  0  0  0  0  0  0  0  0
   21.6979  -19.5174  -15.3150 C   0  0  0  0  0  0  0  0  0  0  0  0
   21.5130  -20.4477  -16.0966 O   0  0  0  0  0  0  0  0  0  0  0  0
   25.5415  -24.6383  -15.7996 O   0  0  0  0  0  0  0  0  0  0  0  0
   24.5855  -23.9576  -15.0469 C   0  0  0  0  0  0  0  0  0  0  0  0
   23.2614  -24.3367  -15.0554 C   0  0  0  0  0  0  0  0  0  0  0  0
   22.3227  -23.6488  -14.3006 C   0  0  0  0  0  0  0  0  0  0  0  0
   22.6603  -22.5678  -13.5156 C   0  0  0  0  0  0  0  0  0  0  0  0
   21.7120  -21.7959  -12.7012 C   0  0  0  0  0  0  0  0  0  0  0  0
   20.7443  -20.9654  -13.4921 C   0  0  2  0  0  0  0  0  0  0  0  0
   21.3637  -19.7200  -13.9481 N   0  0  0  0  0  0  0  0  0  0  0  0
   19.4579  -20.7036  -12.8367 C   0  0  0  0  0  0  0  0  0  0  0  0
   18.7292  -21.6407  -12.4780 O   0  0  0  0  0  0  0  0  0  0  0  0
   23.9915  -22.2024  -13.5196 C   0  0  0  0  0  0  0  0  0  0  0  0
   24.9367  -22.8782  -14.2661 C   0  0  0  0  0  0  0  0  0  0  0  0
   19.0645  -19.4056  -12.6219 O   0  0  0  0  0  0  0  0  0  0  0  0
  2  3  1  0
  2  1  1  0
  3  4  2  0
  5  6  1  0
  6  8  1  0
  6  7  2  0
  8  9  1  0
 10  9  1  6
 10 12  1  0
 11 10  1  0
 11  3  1  0
 12 21  1  0
 13 12  2  0
 15 14  1  0
 16 15  2  0
 17 16  1  0
 18 17  2  0
 18 24  1  0
 19 18  1  0
 20 19  1  1
 21 20  1  0
 22 20  1  0
 23 22  2  0
 24 25  2  0
 25 15  1  0
 26 22  1  0
M  END
$$$$
