GQY.pdb
     RDKit          3D

 26 26  0  0  1  0  0  0  0  0999 V2000
   24.8051  -23.7789  -21.5211 N   0  0  0  0  0  0  0  0  0  0  0  0
   25.1824  -23.0404  -20.3209 C   0  0  0  0  0  0  0  0  0  0  0  0
   26.1164  -23.8891  -19.4888 C   0  0  0  0  0  0  0  0  0  0  0  0
   26.4791  -25.0106  -19.9176 O   0  0  0  0  0  0  0  0  0  0  0  0
   30.7991  -24.5683  -16.3290 N   0  0  0  0  0  0  0  0  0  0  0  0
   30.6393  -23.3234  -17.0039 C   0  0  0  0  0  0  0  0  0  0  0  0
   31.6605  -22.8442  -17.5434 O   0  0  0  0  0  0  0  0  0  0  0  0
   29.3487  -22.6174  -17.0786 C   0  0  0  0  0  0  0  0  0  0  0  0
   28.2214  -23.3173  -16.3920 C   0  0  0  0  0  0  0  0  0  0  0  0
   27.4243  -24.1583  -17.3185 C   0  0  2  0  0  0  0  0  0  0  0  0
   26.5843  -23.4327  -18.2334 N   0  0  0  0  0  0  0  0  0  0  0  0
   26.7420  -25.3039  -16.6480 C   0  0  0  0  0  0  0  0  0  0  0  0
   25.9020  -25.0975  -15.7749 O   0  0  0  0  0  0  0  0  0  0  0  0
   21.3531  -31.1747  -14.0572 O   0  0  0  0  0  0  0  0  0  0  0  0
   22.2840  -30.4557  -14.8056 C   0  0  0  0  0  0  0  0  0  0  0  0
   23.3448  -31.0799  -15.4236 C   0  0  0  0  0  0  0  0  0  0  0  0
   24.2623  -30.3499  -16.1649 C   0  0  0  0  0  0  0  0  0  0  0  0
   24.1620  -28.9843  -16.3193 C   0  0  0  0  0  0  0  0  0  0  0  0
   25.1043  -28.1569  -17.0846 C   0  0  0  0  0  0  0  0  0  0  0  0
   26.3435  -27.7678  -16.3332 C   0  0  2  0  0  0  0  0  0  0  0  0
   27.0321  -26.6537  -16.9869 N   0  0  0  0  0  0  0  0  0  0  0  0
   27.2744  -28.8646  -16.0443 C   0  0  0  0  0  0  0  0  0  0  0  0
   28.4463  -28.8214  -16.4473 O   0  0  0  0  0  0  0  0  0  0  0  0
   23.0926  -28.3761  -15.6930 C   0  0  0  0  0  0  0  0  0  0  0  0
   22.1718  -29.0904  -14.9520 C   0  0  0  0  0  0  0  0  0  0  0  0
   26.8356  -29.9456  -15.3200 O   0  0  0  0  0  0  0  0  0  0  0  0
  2  3  1  0
  2  1  1  0
  3  4  2  0
  5  6  1  0
  6  8  1  0
  6  7  2  0
  8  9  1  0
 10  9  1  1
 10 12  1  0
 11 10  1  0
 11  3  1  0
 12 21  1  0
 13 12  2  0
 15 14  1  0
 16 15  2  0
 17 16  1  0
 18 17  2  0
 18 24  1  0
 19 18  1  0
 20 19  1  6
 21 20  1  0
 22 20  1  0
 23 22  2  0
 24 25  2  0
 25 15  1  0
 26 22  1  0
M  END
$$$$
