GQY.pdb
     RDKit          3D

 26 26  0  0  1  0  0  0  0  0999 V2000
   25.7839  -17.3964  -18.8729 N   0  0  0  0  0  0  0  0  0  0  0  0
   25.4141  -17.1470  -17.4839 C   0  0  0  0  0  0  0  0  0  0  0  0
   25.1026  -18.4634  -16.8090 C   0  0  0  0  0  0  0  0  0  0  0  0
   24.3434  -19.2843  -17.3772 O   0  0  0  0  0  0  0  0  0  0  0  0
   25.3534  -23.8898  -13.0101 N   0  0  0  0  0  0  0  0  0  0  0  0
   25.9532  -22.6812  -13.4685 C   0  0  0  0  0  0  0  0  0  0  0  0
   26.6868  -22.7680  -14.4773 O   0  0  0  0  0  0  0  0  0  0  0  0
   25.7353  -21.3830  -12.8075 C   0  0  0  0  0  0  0  0  0  0  0  0
   26.1881  -20.2017  -13.6024 C   0  0  0  0  0  0  0  0  0  0  0  0
   25.2124  -19.8123  -14.6500 C   0  0  2  0  0  0  0  0  0  0  0  0
   25.6570  -18.7779  -15.5453 N   0  0  0  0  0  0  0  0  0  0  0  0
   23.8277  -19.6105  -14.1311 C   0  0  0  0  0  0  0  0  0  0  0  0
   23.5578  -18.6163  -13.4609 O   0  0  0  0  0  0  0  0  0  0  0  0
   19.9939  -19.1116  -20.1870 O   0  0  0  0  0  0  0  0  0  0  0  0
   20.2010  -19.1095  -18.8083 C   0  0  0  0  0  0  0  0  0  0  0  0
   19.6956  -20.1075  -18.0047 C   0  0  0  0  0  0  0  0  0  0  0  0
   19.9107  -20.0908  -16.6344 C   0  0  0  0  0  0  0  0  0  0  0  0
   20.6297  -19.0913  -16.0156 C   0  0  0  0  0  0  0  0  0  0  0  0
   20.8847  -19.0151  -14.5708 C   0  0  0  0  0  0  0  0  0  0  0  0
   21.4094  -20.2831  -13.9636 C   0  0  2  0  0  0  0  0  0  0  0  0
   22.7862  -20.5437  -14.3869 N   0  0  0  0  0  0  0  0  0  0  0  0
   20.5666  -21.4686  -14.1567 C   0  0  0  0  0  0  0  0  0  0  0  0
   19.3804  -21.4664  -13.7950 O   0  0  0  0  0  0  0  0  0  0  0  0
   21.1284  -18.1000  -16.8368 C   0  0  0  0  0  0  0  0  0  0  0  0
   20.9219  -18.1040  -18.2023 C   0  0  0  0  0  0  0  0  0  0  0  0
   21.1042  -22.5873  -14.7444 O   0  0  0  0  0  0  0  0  0  0  0  0
  2  3  1  0
  2  1  1  0
  3  4  2  0
  5  6  1  0
  6  8  1  0
  6  7  2  0
  8  9  1  0
 10  9  1  1
 10 12  1  0
 11 10  1  0
 11  3  1  0
 12 21  1  0
 13 12  2  0
 15 14  1  0
 16 15  2  0
 17 16  1  0
 18 17  2  0
 18 24  1  0
 19 18  1  0
 20 19  1  6
 21 20  1  0
 22 20  1  0
 23 22  2  0
 24 25  2  0
 25 15  1  0
 26 22  1  0
M  END
$$$$
