GQY.pdb
     RDKit          3D

 26 26  0  0  1  0  0  0  0  0999 V2000
   19.5269  -13.2573  -17.8374 N   0  0  0  0  0  0  0  0  0  0  0  0
   20.7842  -13.6999  -17.2444 C   0  0  0  0  0  0  0  0  0  0  0  0
   20.7739  -15.2069  -17.1260 C   0  0  0  0  0  0  0  0  0  0  0  0
   19.6874  -15.8265  -17.2197 O   0  0  0  0  0  0  0  0  0  0  0  0
   25.8889  -19.2146  -17.7353 N   0  0  0  0  0  0  0  0  0  0  0  0
   24.7324  -19.9910  -17.4350 C   0  0  0  0  0  0  0  0  0  0  0  0
   24.8328  -21.2277  -17.5900 O   0  0  0  0  0  0  0  0  0  0  0  0
   23.4717  -19.3930  -16.9629 C   0  0  0  0  0  0  0  0  0  0  0  0
   23.4508  -17.8992  -16.9844 C   0  0  0  0  0  0  0  0  0  0  0  0
   22.1001  -17.3447  -16.7208 C   0  0  2  0  0  0  0  0  0  0  0  0
   21.9748  -15.9243  -16.9104 N   0  0  0  0  0  0  0  0  0  0  0  0
   21.4863  -17.8435  -15.4552 C   0  0  0  0  0  0  0  0  0  0  0  0
   21.8499  -17.3911  -14.3720 O   0  0  0  0  0  0  0  0  0  0  0  0
   14.1276  -17.4468  -16.7564 O   0  0  0  0  0  0  0  0  0  0  0  0
   15.2847  -17.6429  -16.0039 C   0  0  0  0  0  0  0  0  0  0  0  0
   15.4010  -18.6992  -15.1276 C   0  0  0  0  0  0  0  0  0  0  0  0
   16.5594  -18.8804  -14.3863 C   0  0  0  0  0  0  0  0  0  0  0  0
   17.6367  -18.0271  -14.4862 C   0  0  0  0  0  0  0  0  0  0  0  0
   18.8852  -18.1624  -13.7238 C   0  0  0  0  0  0  0  0  0  0  0  0
   19.8020  -19.2431  -14.2171 C   0  0  2  0  0  0  0  0  0  0  0  0
   20.4757  -18.8434  -15.4536 N   0  0  0  0  0  0  0  0  0  0  0  0
   19.1920  -20.5704  -14.3560 C   0  0  0  0  0  0  0  0  0  0  0  0
   19.2680  -21.1920  -15.4263 O   0  0  0  0  0  0  0  0  0  0  0  0
   17.5020  -16.9746  -15.3692 C   0  0  0  0  0  0  0  0  0  0  0  0
   16.3548  -16.7821  -16.1135 C   0  0  0  0  0  0  0  0  0  0  0  0
   18.5325  -21.1226  -13.2855 O   0  0  0  0  0  0  0  0  0  0  0  0
  2  3  1  0
  2  1  1  0
  3  4  2  0
  5  6  1  0
  6  8  1  0
  6  7  2  0
  8  9  1  0
 10  9  1  1
 10 12  1  0
 11 10  1  0
 11  3  1  0
 12 21  1  0
 13 12  2  0
 15 14  1  0
 16 15  2  0
 17 16  1  0
 18 17  2  0
 18 24  1  0
 19 18  1  0
 20 19  1  6
 21 20  1  0
 22 20  1  0
 23 22  2  0
 24 25  2  0
 25 15  1  0
 26 22  1  0
M  END
$$$$
