GQY.pdb
     RDKit          3D

 26 26  0  0  1  0  0  0  0  0999 V2000
   27.5500  -35.8511  -10.2663 N   0  0  0  0  0  0  0  0  0  0  0  0
   26.1485  -35.5002  -10.0642 C   0  0  0  0  0  0  0  0  0  0  0  0
   25.9849  -34.8772   -8.6966 C   0  0  0  0  0  0  0  0  0  0  0  0
   26.9971  -34.6792   -7.9829 O   0  0  0  0  0  0  0  0  0  0  0  0
   20.4290  -32.4201   -6.1638 N   0  0  0  0  0  0  0  0  0  0  0  0
   21.4055  -32.4763   -5.1276 C   0  0  0  0  0  0  0  0  0  0  0  0
   21.0648  -32.0250   -4.0124 O   0  0  0  0  0  0  0  0  0  0  0  0
   22.7535  -33.0338   -5.3324 C   0  0  0  0  0  0  0  0  0  0  0  0
   22.9967  -33.5731   -6.7043 C   0  0  0  0  0  0  0  0  0  0  0  0
   24.3893  -34.0501   -6.8902 C   0  0  2  0  0  0  0  0  0  0  0  0
   24.7041  -34.5164   -8.2140 N   0  0  0  0  0  0  0  0  0  0  0  0
   24.8611  -34.9547   -5.8010 C   0  0  0  0  0  0  0  0  0  0  0  0
   24.5711  -36.1489   -5.8207 O   0  0  0  0  0  0  0  0  0  0  0  0
   28.2913  -40.5068   -0.4454 O   0  0  0  0  0  0  0  0  0  0  0  0
   27.9923  -39.5153   -1.3788 C   0  0  0  0  0  0  0  0  0  0  0  0
   28.9830  -38.7609   -1.9675 C   0  0  0  0  0  0  0  0  0  0  0  0
   28.6686  -37.7783   -2.8947 C   0  0  0  0  0  0  0  0  0  0  0  0
   27.3700  -37.5098   -3.2691 C   0  0  0  0  0  0  0  0  0  0  0  0
   26.9743  -36.4791   -4.2385 C   0  0  0  0  0  0  0  0  0  0  0  0
   26.1250  -35.3813   -3.6681 C   0  0  2  0  0  0  0  0  0  0  0  0
   25.6495  -34.4789   -4.7180 N   0  0  0  0  0  0  0  0  0  0  0  0
   26.7284  -34.6294   -2.5620 C   0  0  0  0  0  0  0  0  0  0  0  0
   26.6073  -33.3971   -2.4953 O   0  0  0  0  0  0  0  0  0  0  0  0
   26.3908  -38.2756   -2.6689 C   0  0  0  0  0  0  0  0  0  0  0  0
   26.6893  -39.2571   -1.7444 C   0  0  0  0  0  0  0  0  0  0  0  0
   27.4323  -35.3046   -1.5952 O   0  0  0  0  0  0  0  0  0  0  0  0
  2  3  1  0
  2  1  1  0
  3  4  2  0
  5  6  1  0
  6  8  1  0
  6  7  2  0
  8  9  1  0
 10  9  1  6
 10 12  1  0
 11 10  1  0
 11  3  1  0
 12 21  1  0
 13 12  2  0
 15 14  1  0
 16 15  2  0
 17 16  1  0
 18 17  2  0
 18 24  1  0
 19 18  1  0
 20 19  1  6
 21 20  1  0
 22 20  1  0
 23 22  2  0
 24 25  2  0
 25 15  1  0
 26 22  1  0
M  END
$$$$
