GQY.pdb
     RDKit          3D

 26 26  0  0  1  0  0  0  0  0999 V2000
   28.1822  -17.4808  -15.5426 N   0  0  0  0  0  0  0  0  0  0  0  0
   28.2386  -18.8490  -15.0394 C   0  0  0  0  0  0  0  0  0  0  0  0
   27.1424  -19.0478  -14.0176 C   0  0  0  0  0  0  0  0  0  0  0  0
   26.4713  -18.0609  -13.6318 O   0  0  0  0  0  0  0  0  0  0  0  0
   23.7378  -20.2289  -15.1348 N   0  0  0  0  0  0  0  0  0  0  0  0
   22.9576  -20.4136  -13.9567 C   0  0  0  0  0  0  0  0  0  0  0  0
   21.7960  -19.9511  -13.9765 O   0  0  0  0  0  0  0  0  0  0  0  0
   23.4682  -21.1112  -12.7641 C   0  0  0  0  0  0  0  0  0  0  0  0
   24.8585  -21.6395  -12.9057 C   0  0  0  0  0  0  0  0  0  0  0  0
   25.8872  -20.6547  -12.4894 C   0  0  2  0  0  0  0  0  0  0  0  0
   26.8667  -20.3329  -13.4925 N   0  0  0  0  0  0  0  0  0  0  0  0
   26.4675  -20.9305  -11.1424 C   0  0  0  0  0  0  0  0  0  0  0  0
   27.6413  -21.2784  -11.0348 O   0  0  0  0  0  0  0  0  0  0  0  0
   29.6889  -19.6245   -3.2683 O   0  0  0  0  0  0  0  0  0  0  0  0
   29.1614  -19.7316   -4.5544 C   0  0  0  0  0  0  0  0  0  0  0  0
   29.5711  -20.7230   -5.4183 C   0  0  0  0  0  0  0  0  0  0  0  0
   29.0361  -20.8158   -6.6948 C   0  0  0  0  0  0  0  0  0  0  0  0
   28.0825  -19.9354   -7.1577 C   0  0  0  0  0  0  0  0  0  0  0  0
   27.4846  -19.9780   -8.4990 C   0  0  0  0  0  0  0  0  0  0  0  0
   26.3181  -20.9127   -8.6312 C   0  0  2  0  0  0  0  0  0  0  0  0
   25.6989  -20.8042   -9.9531 N   0  0  0  0  0  0  0  0  0  0  0  0
   25.3106  -20.8154   -7.5690 C   0  0  0  0  0  0  0  0  0  0  0  0
   24.2583  -20.1853   -7.7519 O   0  0  0  0  0  0  0  0  0  0  0  0
   27.6843  -18.9488   -6.2781 C   0  0  0  0  0  0  0  0  0  0  0  0
   28.2083  -18.8446   -5.0046 C   0  0  0  0  0  0  0  0  0  0  0  0
   25.5428  -21.4309   -6.3636 O   0  0  0  0  0  0  0  0  0  0  0  0
  2  3  1  0
  2  1  1  0
  3  4  2  0
  5  6  1  0
  6  8  1  0
  6  7  2  0
  8  9  1  0
 10  9  1  6
 10 12  1  0
 11 10  1  0
 11  3  1  0
 12 21  1  0
 13 12  2  0
 15 14  1  0
 16 15  2  0
 17 16  1  0
 18 17  2  0
 18 24  1  0
 19 18  1  0
 20 19  1  1
 21 20  1  0
 22 20  1  0
 23 22  2  0
 24 25  2  0
 25 15  1  0
 26 22  1  0
M  END
$$$$
