GQY.pdb
     RDKit          3D

 26 26  0  0  1  0  0  0  0  0999 V2000
   31.0162  -31.4657  -16.6346 N   0  0  0  0  0  0  0  0  0  0  0  0
   30.5795  -32.8302  -16.3593 C   0  0  0  0  0  0  0  0  0  0  0  0
   29.1484  -32.8048  -15.8729 C   0  0  0  0  0  0  0  0  0  0  0  0
   28.7049  -31.7745  -15.3118 O   0  0  0  0  0  0  0  0  0  0  0  0
   23.3353  -36.1560  -14.1325 N   0  0  0  0  0  0  0  0  0  0  0  0
   24.2488  -36.1609  -15.2262 C   0  0  0  0  0  0  0  0  0  0  0  0
   24.6943  -37.2749  -15.5784 O   0  0  0  0  0  0  0  0  0  0  0  0
   24.6622  -34.9316  -15.9246 C   0  0  0  0  0  0  0  0  0  0  0  0
   26.0810  -34.9350  -16.3930 C   0  0  0  0  0  0  0  0  0  0  0  0
   26.9552  -34.0658  -15.5675 C   0  0  2  0  0  0  0  0  0  0  0  0
   28.3060  -33.9294  -16.0431 N   0  0  0  0  0  0  0  0  0  0  0  0
   26.8528  -34.3342  -14.1030 C   0  0  0  0  0  0  0  0  0  0  0  0
   27.4578  -35.2808  -13.6045 O   0  0  0  0  0  0  0  0  0  0  0  0
   25.8575  -32.9833   -5.3937 O   0  0  0  0  0  0  0  0  0  0  0  0
   26.0282  -32.8857   -6.7739 C   0  0  0  0  0  0  0  0  0  0  0  0
   27.2363  -33.1721   -7.3702 C   0  0  0  0  0  0  0  0  0  0  0  0
   27.3895  -33.0702   -8.7451 C   0  0  0  0  0  0  0  0  0  0  0  0
   26.3578  -32.6835   -9.5727 C   0  0  0  0  0  0  0  0  0  0  0  0
   26.4604  -32.5505  -11.0322 C   0  0  0  0  0  0  0  0  0  0  0  0
   26.0174  -33.7611  -11.8003 C   0  0  2  0  0  0  0  0  0  0  0  0
   26.0657  -33.5204  -13.2434 N   0  0  0  0  0  0  0  0  0  0  0  0
   24.7192  -34.3176  -11.4031 C   0  0  0  0  0  0  0  0  0  0  0  0
   24.6558  -35.3715  -10.7528 O   0  0  0  0  0  0  0  0  0  0  0  0
   25.1549  -32.4007   -8.9575 C   0  0  0  0  0  0  0  0  0  0  0  0
   24.9882  -32.4979   -7.5900 C   0  0  0  0  0  0  0  0  0  0  0  0
   23.5680  -33.6588  -11.7590 O   0  0  0  0  0  0  0  0  0  0  0  0
  2  3  1  0
  2  1  1  0
  3  4  2  0
  5  6  1  0
  6  8  1  0
  6  7  2  0
  8  9  1  0
 10  9  1  6
 10 12  1  0
 11 10  1  0
 11  3  1  0
 12 21  1  0
 13 12  2  0
 15 14  1  0
 16 15  2  0
 17 16  1  0
 18 17  2  0
 18 24  1  0
 19 18  1  0
 20 19  1  1
 21 20  1  0
 22 20  1  0
 23 22  2  0
 24 25  2  0
 25 15  1  0
 26 22  1  0
M  END
$$$$
