GQY.pdb
     RDKit          3D

 26 26  0  0  1  0  0  0  0  0999 V2000
   26.2571  -22.5293  -15.4649 N   0  0  0  0  0  0  0  0  0  0  0  0
   25.5491  -23.2991  -14.4478 C   0  0  0  0  0  0  0  0  0  0  0  0
   24.0874  -22.9135  -14.4614 C   0  0  0  0  0  0  0  0  0  0  0  0
   23.6963  -22.0017  -15.2287 O   0  0  0  0  0  0  0  0  0  0  0  0
   21.5537  -26.7918  -11.5343 N   0  0  0  0  0  0  0  0  0  0  0  0
   21.2874  -26.8308  -12.9336 C   0  0  0  0  0  0  0  0  0  0  0  0
   21.3091  -27.9571  -13.4764 O   0  0  0  0  0  0  0  0  0  0  0  0
   20.9969  -25.6219  -13.7234 C   0  0  0  0  0  0  0  0  0  0  0  0
   20.9289  -24.3625  -12.9224 C   0  0  0  0  0  0  0  0  0  0  0  0
   21.7550  -23.2743  -13.5008 C   0  0  2  0  0  0  0  0  0  0  0  0
   23.1581  -23.5687  -13.6186 N   0  0  0  0  0  0  0  0  0  0  0  0
   21.4645  -21.9307  -12.9197 C   0  0  0  0  0  0  0  0  0  0  0  0
   21.9791  -21.5933  -11.8558 O   0  0  0  0  0  0  0  0  0  0  0  0
   21.6548  -17.7310  -19.0756 O   0  0  0  0  0  0  0  0  0  0  0  0
   21.5881  -17.9614  -17.7022 C   0  0  0  0  0  0  0  0  0  0  0  0
   20.5864  -17.4155  -16.9303 C   0  0  0  0  0  0  0  0  0  0  0  0
   20.5341  -17.6546  -15.5649 C   0  0  0  0  0  0  0  0  0  0  0  0
   21.4664  -18.4379  -14.9199 C   0  0  0  0  0  0  0  0  0  0  0  0
   21.4682  -18.7214  -13.4784 C   0  0  0  0  0  0  0  0  0  0  0  0
   20.3876  -19.6597  -13.0271 C   0  0  2  0  0  0  0  0  0  0  0  0
   20.5968  -21.0060  -13.5623 N   0  0  0  0  0  0  0  0  0  0  0  0
   19.0150  -19.2033  -13.2734 C   0  0  0  0  0  0  0  0  0  0  0  0
   18.2570  -19.8499  -14.0116 O   0  0  0  0  0  0  0  0  0  0  0  0
   22.4626  -18.9763  -15.7095 C   0  0  0  0  0  0  0  0  0  0  0  0
   22.5268  -18.7467  -17.0697 C   0  0  0  0  0  0  0  0  0  0  0  0
   18.5734  -18.0480  -12.6766 O   0  0  0  0  0  0  0  0  0  0  0  0
  2  3  1  0
  2  1  1  0
  3  4  2  0
  5  6  1  0
  6  8  1  0
  6  7  2  0
  8  9  1  0
 10  9  1  1
 10 12  1  0
 11 10  1  0
 11  3  1  0
 12 21  1  0
 13 12  2  0
 15 14  1  0
 16 15  2  0
 17 16  1  0
 18 17  2  0
 18 24  1  0
 19 18  1  0
 20 19  1  6
 21 20  1  0
 22 20  1  0
 23 22  2  0
 24 25  2  0
 25 15  1  0
 26 22  1  0
M  END
$$$$
