GQY.pdb
     RDKit          3D

 26 26  0  0  1  0  0  0  0  0999 V2000
   25.4077  -10.3335  -19.6114 N   0  0  0  0  0  0  0  0  0  0  0  0
   24.4383   -9.2566  -19.7812 C   0  0  0  0  0  0  0  0  0  0  0  0
   23.5586   -9.1823  -18.5542 C   0  0  0  0  0  0  0  0  0  0  0  0
   23.5802  -10.1196  -17.7210 O   0  0  0  0  0  0  0  0  0  0  0  0
   22.8136   -5.2287  -14.6041 N   0  0  0  0  0  0  0  0  0  0  0  0
   21.4885   -5.7379  -14.4802 C   0  0  0  0  0  0  0  0  0  0  0  0
   20.9618   -5.6582  -13.3489 O   0  0  0  0  0  0  0  0  0  0  0  0
   20.7537   -6.3309  -15.6107 C   0  0  0  0  0  0  0  0  0  0  0  0
   21.5536   -6.4633  -16.8657 C   0  0  0  0  0  0  0  0  0  0  0  0
   21.8189   -7.8780  -17.2254 C   0  0  2  0  0  0  0  0  0  0  0  0
   22.7121   -8.0690  -18.3367 N   0  0  0  0  0  0  0  0  0  0  0  0
   20.5881   -8.7198  -17.2857 C   0  0  0  0  0  0  0  0  0  0  0  0
   19.8981   -8.7334  -18.3027 O   0  0  0  0  0  0  0  0  0  0  0  0
   14.5931  -15.0704  -15.7595 O   0  0  0  0  0  0  0  0  0  0  0  0
   15.7167  -14.2450  -15.7463 C   0  0  0  0  0  0  0  0  0  0  0  0
   16.6380  -14.2699  -16.7698 C   0  0  0  0  0  0  0  0  0  0  0  0
   17.7507  -13.4420  -16.7417 C   0  0  0  0  0  0  0  0  0  0  0  0
   17.9886  -12.5658  -15.7051 C   0  0  0  0  0  0  0  0  0  0  0  0
   19.1501  -11.6708  -15.6154 C   0  0  0  0  0  0  0  0  0  0  0  0
   18.9513  -10.3270  -16.2530 C   0  0  2  0  0  0  0  0  0  0  0  0
   20.1733   -9.5238  -16.1891 N   0  0  0  0  0  0  0  0  0  0  0  0
   17.7952   -9.5652  -15.7671 C   0  0  0  0  0  0  0  0  0  0  0  0
   17.9322   -8.6999  -14.8895 O   0  0  0  0  0  0  0  0  0  0  0  0
   17.0546  -12.5548  -14.6886 C   0  0  0  0  0  0  0  0  0  0  0  0
   15.9425  -13.3733  -14.7037 C   0  0  0  0  0  0  0  0  0  0  0  0
   16.5530   -9.8189  -16.2947 O   0  0  0  0  0  0  0  0  0  0  0  0
  2  3  1  0
  2  1  1  0
  3  4  2  0
  5  6  1  0
  6  8  1  0
  6  7  2  0
  8  9  1  0
 10  9  1  6
 10 12  1  0
 11 10  1  0
 11  3  1  0
 12 21  1  0
 13 12  2  0
 15 14  1  0
 16 15  2  0
 17 16  1  0
 18 17  2  0
 18 24  1  0
 19 18  1  0
 20 19  1  1
 21 20  1  0
 22 20  1  0
 23 22  2  0
 24 25  2  0
 25 15  1  0
 26 22  1  0
M  END
$$$$
