GQY.pdb
     RDKit          3D

 26 26  0  0  1  0  0  0  0  0999 V2000
   27.7766  -16.5401  -14.6556 N   0  0  0  0  0  0  0  0  0  0  0  0
   27.5712  -17.9542  -14.9493 C   0  0  0  0  0  0  0  0  0  0  0  0
   26.6263  -18.5417  -13.9260 C   0  0  0  0  0  0  0  0  0  0  0  0
   25.7170  -17.8259  -13.4423 O   0  0  0  0  0  0  0  0  0  0  0  0
   22.8788  -21.4278  -11.5274 N   0  0  0  0  0  0  0  0  0  0  0  0
   22.7551  -21.1842  -12.9260 C   0  0  0  0  0  0  0  0  0  0  0  0
   21.6337  -20.8079  -13.3315 O   0  0  0  0  0  0  0  0  0  0  0  0
   23.8750  -21.3571  -13.8671 C   0  0  0  0  0  0  0  0  0  0  0  0
   25.1656  -21.7506  -13.2254 C   0  0  0  0  0  0  0  0  0  0  0  0
   25.8758  -20.5972  -12.6202 C   0  0  2  0  0  0  0  0  0  0  0  0
   26.7573  -19.8877  -13.5084 N   0  0  0  0  0  0  0  0  0  0  0  0
   26.4729  -20.8968  -11.2857 C   0  0  0  0  0  0  0  0  0  0  0  0
   27.4991  -21.5683  -11.2047 O   0  0  0  0  0  0  0  0  0  0  0  0
   29.2701  -19.8294   -2.9861 O   0  0  0  0  0  0  0  0  0  0  0  0
   28.8119  -19.7739   -4.3017 C   0  0  0  0  0  0  0  0  0  0  0  0
   29.3331  -20.5929   -5.2788 C   0  0  0  0  0  0  0  0  0  0  0  0
   28.8661  -20.5253   -6.5832 C   0  0  0  0  0  0  0  0  0  0  0  0
   27.8725  -19.6495   -6.9634 C   0  0  0  0  0  0  0  0  0  0  0  0
   27.3420  -19.5267   -8.3279 C   0  0  0  0  0  0  0  0  0  0  0  0
   26.5081  -20.6900   -8.7788 C   0  0  2  0  0  0  0  0  0  0  0  0
   25.8884  -20.4260  -10.0784 N   0  0  0  0  0  0  0  0  0  0  0  0
   25.5145  -21.1648   -7.8091 C   0  0  0  0  0  0  0  0  0  0  0  0
   25.8521  -21.4663   -6.6546 O   0  0  0  0  0  0  0  0  0  0  0  0
   27.3623  -18.8369   -5.9710 C   0  0  0  0  0  0  0  0  0  0  0  0
   27.8177  -18.8935   -4.6685 C   0  0  0  0  0  0  0  0  0  0  0  0
   24.2001  -21.2735   -8.1918 O   0  0  0  0  0  0  0  0  0  0  0  0
  2  3  1  0
  2  1  1  0
  3  4  2  0
  5  6  1  0
  6  8  1  0
  6  7  2  0
  8  9  1  0
 10  9  1  6
 10 12  1  0
 11 10  1  0
 11  3  1  0
 12 21  1  0
 13 12  2  0
 15 14  1  0
 16 15  2  0
 17 16  1  0
 18 17  2  0
 18 24  1  0
 19 18  1  0
 20 19  1  1
 21 20  1  0
 22 20  1  0
 23 22  2  0
 24 25  2  0
 25 15  1  0
 26 22  1  0
M  END
$$$$
