GQY.pdb
     RDKit          3D

 26 26  0  0  1  0  0  0  0  0999 V2000
   28.0157  -18.1088  -17.7486 N   0  0  0  0  0  0  0  0  0  0  0  0
   27.4615  -18.9798  -16.7178 C   0  0  0  0  0  0  0  0  0  0  0  0
   25.9523  -18.9454  -16.7974 C   0  0  0  0  0  0  0  0  0  0  0  0
   25.3937  -18.1531  -17.5932 O   0  0  0  0  0  0  0  0  0  0  0  0
   24.5978  -24.4822  -14.1860 N   0  0  0  0  0  0  0  0  0  0  0  0
   23.7169  -23.4113  -14.5145 C   0  0  0  0  0  0  0  0  0  0  0  0
   22.4923  -23.6602  -14.4695 O   0  0  0  0  0  0  0  0  0  0  0  0
   24.1977  -22.0704  -14.8892 C   0  0  0  0  0  0  0  0  0  0  0  0
   23.1974  -21.2389  -15.6243 C   0  0  0  0  0  0  0  0  0  0  0  0
   23.7309  -19.9067  -16.0008 C   0  0  2  0  0  0  0  0  0  0  0  0
   25.1650  -19.7956  -15.9847 N   0  0  0  0  0  0  0  0  0  0  0  0
   23.0278  -18.7716  -15.3341 C   0  0  0  0  0  0  0  0  0  0  0  0
   23.4324  -18.3418  -14.2561 O   0  0  0  0  0  0  0  0  0  0  0  0
   20.9081  -13.9629  -20.9327 O   0  0  0  0  0  0  0  0  0  0  0  0
   21.1722  -14.4047  -19.6369 C   0  0  0  0  0  0  0  0  0  0  0  0
   22.2914  -15.1536  -19.3477 C   0  0  0  0  0  0  0  0  0  0  0  0
   22.5397  -15.5852  -18.0530 C   0  0  0  0  0  0  0  0  0  0  0  0
   21.6936  -15.2920  -17.0056 C   0  0  0  0  0  0  0  0  0  0  0  0
   21.8987  -15.7258  -15.6171 C   0  0  0  0  0  0  0  0  0  0  0  0
   21.2246  -17.0189  -15.2628 C   0  0  2  0  0  0  0  0  0  0  0  0
   21.8834  -18.1548  -15.9094 N   0  0  0  0  0  0  0  0  0  0  0  0
   19.7749  -17.0544  -15.4869 C   0  0  0  0  0  0  0  0  0  0  0  0
   19.2782  -17.8653  -16.2828 O   0  0  0  0  0  0  0  0  0  0  0  0
   20.5775  -14.5406  -17.3145 C   0  0  0  0  0  0  0  0  0  0  0  0
   20.3179  -14.1043  -18.5988 C   0  0  0  0  0  0  0  0  0  0  0  0
   18.9675  -16.1780  -14.8045 O   0  0  0  0  0  0  0  0  0  0  0  0
  2  3  1  0
  2  1  1  0
  3  4  2  0
  5  6  1  0
  6  8  1  0
  6  7  2  0
  8  9  1  0
 10  9  1  1
 10 12  1  0
 11 10  1  0
 11  3  1  0
 12 21  1  0
 13 12  2  0
 15 14  1  0
 16 15  2  0
 17 16  1  0
 18 17  2  0
 18 24  1  0
 19 18  1  0
 20 19  1  6
 21 20  1  0
 22 20  1  0
 23 22  2  0
 24 25  2  0
 25 15  1  0
 26 22  1  0
M  END
$$$$
