GQY.pdb
     RDKit          3D

 26 26  0  0  1  0  0  0  0  0999 V2000
   16.8701  -11.4390  -11.4697 N   0  0  0  0  0  0  0  0  0  0  0  0
   16.7361  -10.7130  -10.2114 C   0  0  0  0  0  0  0  0  0  0  0  0
   16.6396   -9.2323  -10.5003 C   0  0  0  0  0  0  0  0  0  0  0  0
   16.7418   -8.8257  -11.6824 O   0  0  0  0  0  0  0  0  0  0  0  0
   14.2178   -2.9079   -7.5575 N   0  0  0  0  0  0  0  0  0  0  0  0
   14.0183   -4.1659   -8.1964 C   0  0  0  0  0  0  0  0  0  0  0  0
   12.9057   -4.7103   -8.0254 O   0  0  0  0  0  0  0  0  0  0  0  0
   15.0521   -4.8129   -9.0225 C   0  0  0  0  0  0  0  0  0  0  0  0
   15.2869   -6.2531   -8.7017 C   0  0  0  0  0  0  0  0  0  0  0  0
   16.2984   -6.8769   -9.5899 C   0  0  2  0  0  0  0  0  0  0  0  0
   16.4362   -8.3022   -9.4530 N   0  0  0  0  0  0  0  0  0  0  0  0
   17.5975   -6.1431   -9.6235 C   0  0  0  0  0  0  0  0  0  0  0  0
   18.2981   -6.0808   -8.6157 O   0  0  0  0  0  0  0  0  0  0  0  0
   21.5452   -8.9745  -15.5201 O   0  0  0  0  0  0  0  0  0  0  0  0
   21.2616   -8.2968  -14.3352 C   0  0  0  0  0  0  0  0  0  0  0  0
   20.5654   -8.9007  -13.3115 C   0  0  0  0  0  0  0  0  0  0  0  0
   20.2915   -8.2125  -12.1387 C   0  0  0  0  0  0  0  0  0  0  0  0
   20.6951   -6.9101  -11.9396 C   0  0  0  0  0  0  0  0  0  0  0  0
   20.4294   -6.1278  -10.7247 C   0  0  0  0  0  0  0  0  0  0  0  0
   19.4426   -5.0120  -10.9061 C   0  0  2  0  0  0  0  0  0  0  0  0
   18.0662   -5.4991  -10.8011 N   0  0  0  0  0  0  0  0  0  0  0  0
   19.6232   -4.2032  -12.1170 C   0  0  0  0  0  0  0  0  0  0  0  0
   18.7536   -4.1857  -13.0007 O   0  0  0  0  0  0  0  0  0  0  0  0
   21.3914   -6.3215  -12.9761 C   0  0  0  0  0  0  0  0  0  0  0  0
   21.6711   -6.9947  -14.1490 C   0  0  0  0  0  0  0  0  0  0  0  0
   20.7693   -3.4613  -12.2652 O   0  0  0  0  0  0  0  0  0  0  0  0
  2  3  1  0
  2  1  1  0
  3  4  2  0
  5  6  1  0
  6  8  1  0
  6  7  2  0
  8  9  1  0
 10  9  1  1
 10 12  1  0
 11 10  1  0
 11  3  1  0
 12 21  1  0
 13 12  2  0
 15 14  1  0
 16 15  2  0
 17 16  1  0
 18 17  2  0
 18 24  1  0
 19 18  1  0
 20 19  1  6
 21 20  1  0
 22 20  1  0
 23 22  2  0
 24 25  2  0
 25 15  1  0
 26 22  1  0
M  END
$$$$
