GQY.pdb
     RDKit          3D

 26 26  0  0  1  0  0  0  0  0999 V2000
   24.2117  -15.5360  -16.9367 N   0  0  0  0  0  0  0  0  0  0  0  0
   22.9019  -15.2387  -16.3671 C   0  0  0  0  0  0  0  0  0  0  0  0
   22.4922  -13.8399  -16.7677 C   0  0  0  0  0  0  0  0  0  0  0  0
   23.3071  -13.1091  -17.3802 O   0  0  0  0  0  0  0  0  0  0  0  0
   18.2917  -14.7185  -17.4317 N   0  0  0  0  0  0  0  0  0  0  0  0
   18.6748  -14.0719  -18.6424 C   0  0  0  0  0  0  0  0  0  0  0  0
   18.5226  -14.7248  -19.6979 O   0  0  0  0  0  0  0  0  0  0  0  0
   19.2228  -12.7051  -18.6770 C   0  0  0  0  0  0  0  0  0  0  0  0
   19.3062  -12.0393  -17.3421 C   0  0  0  0  0  0  0  0  0  0  0  0
   20.6820  -12.0465  -16.7869 C   0  0  2  0  0  0  0  0  0  0  0  0
   21.2019  -13.3470  -16.4587 N   0  0  0  0  0  0  0  0  0  0  0  0
   20.9034  -11.0202  -15.7263 C   0  0  0  0  0  0  0  0  0  0  0  0
   20.2469  -11.0533  -14.6878 O   0  0  0  0  0  0  0  0  0  0  0  0
   27.9208  -10.7430  -16.7278 O   0  0  0  0  0  0  0  0  0  0  0  0
   26.7615  -10.4088  -16.0292 C   0  0  0  0  0  0  0  0  0  0  0  0
   26.2135  -11.2620  -15.0971 C   0  0  0  0  0  0  0  0  0  0  0  0
   25.0595  -10.9143  -14.4104 C   0  0  0  0  0  0  0  0  0  0  0  0
   24.4116   -9.7166  -14.6214 C   0  0  0  0  0  0  0  0  0  0  0  0
   23.1847   -9.2957  -13.9316 C   0  0  0  0  0  0  0  0  0  0  0  0
   22.0422   -8.9578  -14.8440 C   0  0  2  0  0  0  0  0  0  0  0  0
   21.8646   -9.9832  -15.8734 N   0  0  0  0  0  0  0  0  0  0  0  0
   22.0879   -7.6174  -15.4392 C   0  0  0  0  0  0  0  0  0  0  0  0
   22.1380   -6.6082  -14.7204 O   0  0  0  0  0  0  0  0  0  0  0  0
   24.9753   -8.8745  -15.5588 C   0  0  0  0  0  0  0  0  0  0  0  0
   26.1236   -9.2077  -16.2497 C   0  0  0  0  0  0  0  0  0  0  0  0
   22.0748   -7.4880  -16.8063 O   0  0  0  0  0  0  0  0  0  0  0  0
  2  3  1  0
  2  1  1  0
  3  4  2  0
  5  6  1  0
  6  8  1  0
  6  7  2  0
  8  9  1  0
 10  9  1  1
 10 12  1  0
 11 10  1  0
 11  3  1  0
 12 21  1  0
 13 12  2  0
 15 14  1  0
 16 15  2  0
 17 16  1  0
 18 17  2  0
 18 24  1  0
 19 18  1  0
 20 19  1  6
 21 20  1  0
 22 20  1  0
 23 22  2  0
 24 25  2  0
 25 15  1  0
 26 22  1  0
M  END
$$$$
