GQY.pdb
     RDKit          3D

 26 26  0  0  1  0  0  0  0  0999 V2000
   29.0375  -17.4604  -18.8065 N   0  0  0  0  0  0  0  0  0  0  0  0
   29.6717  -18.5300  -18.0436 C   0  0  0  0  0  0  0  0  0  0  0  0
   28.6626  -19.6276  -17.7942 C   0  0  0  0  0  0  0  0  0  0  0  0
   27.4375  -19.3673  -17.8614 O   0  0  0  0  0  0  0  0  0  0  0  0
   29.6630  -26.0874  -17.9312 N   0  0  0  0  0  0  0  0  0  0  0  0
   28.3250  -25.8420  -17.5068 C   0  0  0  0  0  0  0  0  0  0  0  0
   27.6125  -26.8469  -17.2928 O   0  0  0  0  0  0  0  0  0  0  0  0
   27.7846  -24.4844  -17.3203 C   0  0  0  0  0  0  0  0  0  0  0  0
   28.7911  -23.3919  -17.4793 C   0  0  0  0  0  0  0  0  0  0  0  0
   28.2385  -22.0556  -17.1474 C   0  0  2  0  0  0  0  0  0  0  0  0
   29.0849  -20.9428  -17.4857 N   0  0  0  0  0  0  0  0  0  0  0  0
   27.6511  -21.9756  -15.7778 C   0  0  0  0  0  0  0  0  0  0  0  0
   28.3834  -21.9721  -14.7907 O   0  0  0  0  0  0  0  0  0  0  0  0
   24.2490  -20.2630   -8.1187 O   0  0  0  0  0  0  0  0  0  0  0  0
   24.7215  -20.3668   -9.4263 C   0  0  0  0  0  0  0  0  0  0  0  0
   23.9524  -19.9781  -10.5008 C   0  0  0  0  0  0  0  0  0  0  0  0
   24.4374  -20.0876  -11.7957 C   0  0  0  0  0  0  0  0  0  0  0  0
   25.6936  -20.5829  -12.0704 C   0  0  0  0  0  0  0  0  0  0  0  0
   26.2593  -20.7295  -13.4183 C   0  0  0  0  0  0  0  0  0  0  0  0
   25.6824  -21.8622  -14.2158 C   0  0  2  0  0  0  0  0  0  0  0  0
   26.2474  -21.9021  -15.5655 N   0  0  0  0  0  0  0  0  0  0  0  0
   24.2168  -21.9198  -14.2572 C   0  0  0  0  0  0  0  0  0  0  0  0
   23.5993  -22.7752  -13.6056 O   0  0  0  0  0  0  0  0  0  0  0  0
   26.4499  -20.9672  -10.9813 C   0  0  0  0  0  0  0  0  0  0  0  0
   25.9797  -20.8637   -9.6870 C   0  0  0  0  0  0  0  0  0  0  0  0
   23.5299  -21.0138  -15.0275 O   0  0  0  0  0  0  0  0  0  0  0  0
  2  3  1  0
  2  1  1  0
  3  4  2  0
  5  6  1  0
  6  8  1  0
  6  7  2  0
  8  9  1  0
 10  9  1  1
 10 12  1  0
 11 10  1  0
 11  3  1  0
 12 21  1  0
 13 12  2  0
 15 14  1  0
 16 15  2  0
 17 16  1  0
 18 17  2  0
 18 24  1  0
 19 18  1  0
 20 19  1  6
 21 20  1  0
 22 20  1  0
 23 22  2  0
 24 25  2  0
 25 15  1  0
 26 22  1  0
M  END
$$$$
