GQY.pdb
     RDKit          3D

 26 26  0  0  1  0  0  0  0  0999 V2000
   14.4648  -12.8459  -13.1861 N   0  0  0  0  0  0  0  0  0  0  0  0
   15.0572  -12.3963  -11.9310 C   0  0  0  0  0  0  0  0  0  0  0  0
   15.0192  -10.8861  -11.8769 C   0  0  0  0  0  0  0  0  0  0  0  0
   14.9320  -10.2318  -12.9434 O   0  0  0  0  0  0  0  0  0  0  0  0
   15.3800   -6.3684   -6.9462 N   0  0  0  0  0  0  0  0  0  0  0  0
   15.0613   -6.0728   -8.3033 C   0  0  0  0  0  0  0  0  0  0  0  0
   15.6130   -5.0674   -8.8015 O   0  0  0  0  0  0  0  0  0  0  0  0
   14.1345   -6.8939   -9.1012 C   0  0  0  0  0  0  0  0  0  0  0  0
   14.4690   -8.3497   -9.1316 C   0  0  0  0  0  0  0  0  0  0  0  0
   15.0171   -8.7808  -10.4412 C   0  0  2  0  0  0  0  0  0  0  0  0
   15.0814  -10.2043  -10.6381 N   0  0  0  0  0  0  0  0  0  0  0  0
   16.2619   -8.0579  -10.8348 C   0  0  0  0  0  0  0  0  0  0  0  0
   17.3520   -8.4225  -10.3998 O   0  0  0  0  0  0  0  0  0  0  0  0
   22.9465   -4.6837  -15.1066 O   0  0  0  0  0  0  0  0  0  0  0  0
   21.8398   -5.3083  -14.5332 C   0  0  0  0  0  0  0  0  0  0  0  0
   20.8197   -5.8148  -15.3077 C   0  0  0  0  0  0  0  0  0  0  0  0
   19.7254   -6.4336  -14.7214 C   0  0  0  0  0  0  0  0  0  0  0  0
   19.6036   -6.5716  -13.3557 C   0  0  0  0  0  0  0  0  0  0  0  0
   18.4677   -7.2096  -12.6768 C   0  0  0  0  0  0  0  0  0  0  0  0
   17.4660   -6.2502  -12.1042 C   0  0  2  0  0  0  0  0  0  0  0  0
   16.2356   -6.9395  -11.7120 N   0  0  0  0  0  0  0  0  0  0  0  0
   17.1699   -5.0787  -12.9366 C   0  0  0  0  0  0  0  0  0  0  0  0
   17.8931   -4.0723  -12.8913 O   0  0  0  0  0  0  0  0  0  0  0  0
   20.6354   -6.0581  -12.5959 C   0  0  0  0  0  0  0  0  0  0  0  0
   21.7306   -5.4397  -13.1661 C   0  0  0  0  0  0  0  0  0  0  0  0
   16.0797   -5.1051  -13.7712 O   0  0  0  0  0  0  0  0  0  0  0  0
  2  3  1  0
  2  1  1  0
  3  4  2  0
  5  6  1  0
  6  8  1  0
  6  7  2  0
  8  9  1  0
 10  9  1  1
 10 12  1  0
 11 10  1  0
 11  3  1  0
 12 21  1  0
 13 12  2  0
 15 14  1  0
 16 15  2  0
 17 16  1  0
 18 17  2  0
 18 24  1  0
 19 18  1  0
 20 19  1  6
 21 20  1  0
 22 20  1  0
 23 22  2  0
 24 25  2  0
 25 15  1  0
 26 22  1  0
M  END
$$$$
