YEF.pdb
     RDKit          3D

 33 34  0  0  1  0  0  0  0  0999 V2000
   41.4662  -12.9245  -11.6762 O   0  0  0  0  0  0  0  0  0  0  0  0
   41.4838  -12.2621  -10.4409 C   0  0  0  0  0  0  0  0  0  0  0  0
   41.0300  -10.9779  -10.2936 C   0  0  0  0  0  0  0  0  0  0  0  0
   41.0551  -10.3444   -9.0740 C   0  0  0  0  0  0  0  0  0  0  0  0
   41.5422  -10.9753   -7.9302 C   0  0  0  0  0  0  0  0  0  0  0  0
   41.5737  -10.2982   -6.6062 C   0  0  0  0  0  0  0  0  0  0  0  0
   42.9353   -9.6500   -6.4738 C   0  0  2  0  0  0  0  0  0  0  0  0
   43.7176  -10.4723   -5.5709 N   0  0  0  0  0  0  0  0  0  0  0  0
   42.8779   -8.2813   -5.9594 C   0  0  0  0  0  0  0  0  0  0  0  0
   42.8511   -8.0578   -4.7225 O   0  0  0  0  0  0  0  0  0  0  0  0
   41.9962  -12.2677   -8.0908 C   0  0  0  0  0  0  0  0  0  0  0  0
   41.9683  -12.8934   -9.3096 C   0  0  0  0  0  0  0  0  0  0  0  0
   42.8513   -7.1719   -6.8562 N   0  0  0  0  0  0  0  0  0  0  0  0
   42.7825   -5.8025   -6.4319 C   0  0  1  0  0  0  0  0  0  0  0  0
   43.4371   -4.8546   -7.3806 C   0  0  0  0  0  0  0  0  0  0  0  0
   43.5181   -3.4333   -6.9768 C   0  0  0  0  0  0  0  0  0  0  0  0
   43.3354   -2.4454   -8.0544 C   0  0  0  0  0  0  0  0  0  0  0  0
   42.8537   -2.7322   -9.1877 O   0  0  0  0  0  0  0  0  0  0  0  0
   41.4474   -5.3486   -6.0065 C   0  0  0  0  0  0  0  0  0  0  0  0
   40.4155   -5.6259   -6.7078 O   0  0  0  0  0  0  0  0  0  0  0  0
   43.6888   -1.1020   -7.8956 O   0  0  0  0  0  0  0  0  0  0  0  0
   41.2015   -4.6030   -4.8369 N   0  0  0  0  0  0  0  0  0  0  0  0
   39.8501   -4.1504   -4.4724 C   0  0  1  0  0  0  0  0  0  0  0  0
   39.5797   -4.6965   -3.0609 C   0  0  0  0  0  0  0  0  0  0  0  0
   38.2265   -4.3860   -2.5968 C   0  0  0  0  0  0  0  0  0  0  0  0
   37.1262   -5.1344   -3.0097 C   0  0  0  0  0  0  0  0  0  0  0  0
   35.8574   -4.8504   -2.5599 C   0  0  0  0  0  0  0  0  0  0  0  0
   35.6095   -3.8169   -1.6824 C   0  0  0  0  0  0  0  0  0  0  0  0
   36.6974   -3.0771   -1.2740 C   0  0  0  0  0  0  0  0  0  0  0  0
   37.9698   -3.3500   -1.7153 C   0  0  0  0  0  0  0  0  0  0  0  0
   39.8764   -2.6856   -4.3737 C   0  0  0  0  0  0  0  0  0  0  0  0
   38.7510   -1.8962   -4.6387 O   0  0  0  0  0  0  0  0  0  0  0  0
   40.9393   -2.1062   -4.0427 O   0  0  0  0  0  0  0  0  0  0  0  0
  2  1  1  0
  3  2  2  0
  4  3  1  0
  5 11  1  0
  5  4  2  0
  6  5  1  0
  7  9  1  0
  7  6  1  0
  7  8  1  1
  9 10  2  0
 11 12  2  0
 12  2  1  0
 13 14  1  0
 13  9  1  0
 14 15  1  6
 16 15  1  0
 17 16  1  0
 17 18  2  0
 19 14  1  0
 20 19  2  0
 21 17  1  0
 22 19  1  0
 23 24  1  1
 23 22  1  0
 24 25  1  0
 25 30  2  0
 26 27  2  0
 26 25  1  0
 27 28  1  0
 28 29  2  0
 30 29  1  0
 31 23  1  0
 31 32  1  0
 33 31  2  0
M  END
$$$$
