YEF.pdb
     RDKit          3D

 33 34  0  0  1  0  0  0  0  0999 V2000
   30.1561  -24.9889  -16.9832 O   0  0  0  0  0  0  0  0  0  0  0  0
   29.3585  -23.9195  -16.5528 C   0  0  0  0  0  0  0  0  0  0  0  0
   29.7986  -22.6224  -16.5793 C   0  0  0  0  0  0  0  0  0  0  0  0
   29.0019  -21.5866  -16.1531 C   0  0  0  0  0  0  0  0  0  0  0  0
   27.7108  -21.8039  -15.6744 C   0  0  0  0  0  0  0  0  0  0  0  0
   26.8412  -20.6896  -15.2109 C   0  0  0  0  0  0  0  0  0  0  0  0
   25.8286  -20.4342  -16.3068 C   0  0  2  0  0  0  0  0  0  0  0  0
   26.5356  -19.8116  -17.4095 N   0  0  0  0  0  0  0  0  0  0  0  0
   24.7251  -19.5702  -15.8863 C   0  0  0  0  0  0  0  0  0  0  0  0
   24.7551  -18.3326  -16.1058 O   0  0  0  0  0  0  0  0  0  0  0  0
   27.2788  -23.1135  -15.6524 C   0  0  0  0  0  0  0  0  0  0  0  0
   28.0782  -24.1416  -16.0788 C   0  0  0  0  0  0  0  0  0  0  0  0
   23.5910  -20.1193  -15.2169 N   0  0  0  0  0  0  0  0  0  0  0  0
   22.4232  -19.3606  -14.8692 C   0  0  1  0  0  0  0  0  0  0  0  0
   21.8288  -18.6254  -16.0238 C   0  0  0  0  0  0  0  0  0  0  0  0
   20.6772  -17.7384  -15.7469 C   0  0  0  0  0  0  0  0  0  0  0  0
   19.3438  -18.3238  -15.9709 C   0  0  0  0  0  0  0  0  0  0  0  0
   19.1319  -19.2944  -16.7531 O   0  0  0  0  0  0  0  0  0  0  0  0
   21.4159  -20.0932  -14.0832 C   0  0  0  0  0  0  0  0  0  0  0  0
   20.9528  -21.2081  -14.5028 O   0  0  0  0  0  0  0  0  0  0  0  0
   18.2033  -17.8379  -15.3246 O   0  0  0  0  0  0  0  0  0  0  0  0
   20.8988  -19.6490  -12.8505 N   0  0  0  0  0  0  0  0  0  0  0  0
   19.9869  -20.4763  -12.0455 C   0  0  1  0  0  0  0  0  0  0  0  0
   19.5600  -19.6081  -10.8507 C   0  0  0  0  0  0  0  0  0  0  0  0
   18.8679  -18.3887  -11.2716 C   0  0  0  0  0  0  0  0  0  0  0  0
   17.4917  -18.3714  -11.4885 C   0  0  0  0  0  0  0  0  0  0  0  0
   16.8411  -17.2204  -11.8688 C   0  0  0  0  0  0  0  0  0  0  0  0
   17.5124  -16.0310  -12.0541 C   0  0  0  0  0  0  0  0  0  0  0  0
   18.8730  -16.0481  -11.8394 C   0  0  0  0  0  0  0  0  0  0  0  0
   19.5352  -17.1905  -11.4592 C   0  0  0  0  0  0  0  0  0  0  0  0
   18.7841  -20.7328  -12.8477 C   0  0  0  0  0  0  0  0  0  0  0  0
   17.9302  -21.8128  -12.5941 O   0  0  0  0  0  0  0  0  0  0  0  0
   18.4993  -19.9659  -13.7994 O   0  0  0  0  0  0  0  0  0  0  0  0
  2  1  1  0
  3  2  2  0
  4  3  1  0
  5 11  1  0
  5  4  2  0
  6  5  1  0
  7  9  1  0
  7  6  1  0
  7  8  1  6
  9 10  2  0
 11 12  2  0
 12  2  1  0
 13 14  1  0
 13  9  1  0
 14 15  1  6
 16 15  1  0
 17 16  1  0
 17 18  2  0
 19 14  1  0
 20 19  2  0
 21 17  1  0
 22 19  1  0
 23 24  1  1
 23 22  1  0
 24 25  1  0
 25 30  2  0
 26 27  2  0
 26 25  1  0
 27 28  1  0
 28 29  2  0
 30 29  1  0
 31 23  1  0
 31 32  1  0
 33 31  2  0
M  END
$$$$
