YEF.pdb
     RDKit          3D

 33 34  0  0  1  0  0  0  0  0999 V2000
   24.5397  -15.5688  -21.5858 O   0  0  0  0  0  0  0  0  0  0  0  0
   23.8869  -15.7887  -20.3649 C   0  0  0  0  0  0  0  0  0  0  0  0
   24.4860  -16.4480  -19.3240 C   0  0  0  0  0  0  0  0  0  0  0  0
   23.8299  -16.6543  -18.1340 C   0  0  0  0  0  0  0  0  0  0  0  0
   22.5266  -16.2043  -17.9278 C   0  0  0  0  0  0  0  0  0  0  0  0
   21.8083  -16.4228  -16.6438 C   0  0  0  0  0  0  0  0  0  0  0  0
   21.2142  -17.8140  -16.7010 C   0  0  2  0  0  0  0  0  0  0  0  0
   19.8010  -17.6913  -16.3991 N   0  0  0  0  0  0  0  0  0  0  0  0
   21.8337  -18.7479  -15.7602 C   0  0  0  0  0  0  0  0  0  0  0  0
   21.6318  -18.6462  -14.5234 O   0  0  0  0  0  0  0  0  0  0  0  0
   21.9340  -15.5422  -18.9825 C   0  0  0  0  0  0  0  0  0  0  0  0
   22.5938  -15.3398  -20.1665 C   0  0  0  0  0  0  0  0  0  0  0  0
   22.6811  -19.7944  -16.2317 N   0  0  0  0  0  0  0  0  0  0  0  0
   23.5617  -20.5513  -15.3880 C   0  0  1  0  0  0  0  0  0  0  0  0
   23.6521  -21.9919  -15.7667 C   0  0  0  0  0  0  0  0  0  0  0  0
   24.4914  -22.8680  -14.9194 C   0  0  0  0  0  0  0  0  0  0  0  0
   24.5644  -24.2818  -15.3274 C   0  0  0  0  0  0  0  0  0  0  0  0
   25.1829  -25.1658  -14.6680 O   0  0  0  0  0  0  0  0  0  0  0  0
   24.8822  -19.9405  -15.1590 C   0  0  0  0  0  0  0  0  0  0  0  0
   25.4832  -19.3243  -16.1038 O   0  0  0  0  0  0  0  0  0  0  0  0
   23.9460  -24.7501  -16.4906 O   0  0  0  0  0  0  0  0  0  0  0  0
   25.5681  -19.9782  -13.9291 N   0  0  0  0  0  0  0  0  0  0  0  0
   26.9338  -19.4514  -13.7832 C   0  0  1  0  0  0  0  0  0  0  0  0
   26.9980  -18.8022  -12.3912 C   0  0  0  0  0  0  0  0  0  0  0  0
   26.4519  -19.6727  -11.3484 C   0  0  0  0  0  0  0  0  0  0  0  0
   27.2827  -20.4149  -10.5117 C   0  0  0  0  0  0  0  0  0  0  0  0
   26.7677  -21.2202   -9.5223 C   0  0  0  0  0  0  0  0  0  0  0  0
   25.4110  -21.3344   -9.3080 C   0  0  0  0  0  0  0  0  0  0  0  0
   24.5896  -20.6004  -10.1352 C   0  0  0  0  0  0  0  0  0  0  0  0
   25.0907  -19.7922  -11.1270 C   0  0  0  0  0  0  0  0  0  0  0  0
   27.8584  -20.5921  -13.7735 C   0  0  0  0  0  0  0  0  0  0  0  0
   29.2470  -20.4321  -13.8512 O   0  0  0  0  0  0  0  0  0  0  0  0
   27.4021  -21.7586  -13.6950 O   0  0  0  0  0  0  0  0  0  0  0  0
  2  1  1  0
  3  2  2  0
  4  3  1  0
  5 11  1  0
  5  4  2  0
  6  5  1  0
  7  9  1  0
  7  6  1  0
  7  8  1  1
  9 10  2  0
 11 12  2  0
 12  2  1  0
 13 14  1  0
 13  9  1  0
 14 15  1  6
 16 15  1  0
 17 16  1  0
 17 18  2  0
 19 14  1  0
 20 19  2  0
 21 17  1  0
 22 19  1  0
 23 24  1  1
 23 22  1  0
 24 25  1  0
 25 30  2  0
 26 27  2  0
 26 25  1  0
 27 28  1  0
 28 29  2  0
 30 29  1  0
 31 23  1  0
 31 32  1  0
 33 31  2  0
M  END
$$$$
