YEF.pdb
     RDKit          3D

 33 34  0  0  1  0  0  0  0  0999 V2000
   14.8386  -15.6507  -15.7199 O   0  0  0  0  0  0  0  0  0  0  0  0
   15.6194  -14.9050  -16.6139 C   0  0  0  0  0  0  0  0  0  0  0  0
   16.6172  -15.4724  -17.3618 C   0  0  0  0  0  0  0  0  0  0  0  0
   17.3727  -14.7249  -18.2335 C   0  0  0  0  0  0  0  0  0  0  0  0
   17.1618  -13.3569  -18.3992 C   0  0  0  0  0  0  0  0  0  0  0  0
   17.9741  -12.5396  -19.3397 C   0  0  0  0  0  0  0  0  0  0  0  0
   19.1234  -11.9606  -18.5427 C   0  0  2  0  0  0  0  0  0  0  0  0
   19.7891  -13.0665  -17.8816 N   0  0  0  0  0  0  0  0  0  0  0  0
   18.6993  -10.9799  -17.5429 C   0  0  0  0  0  0  0  0  0  0  0  0
   18.6078  -11.2946  -16.3291 O   0  0  0  0  0  0  0  0  0  0  0  0
   16.1548  -12.7970  -17.6411 C   0  0  0  0  0  0  0  0  0  0  0  0
   15.4052  -13.5479  -16.7738 C   0  0  0  0  0  0  0  0  0  0  0  0
   18.3809   -9.6439  -17.9296 N   0  0  0  0  0  0  0  0  0  0  0  0
   18.0873   -8.5910  -16.9993 C   0  0  1  0  0  0  0  0  0  0  0  0
   19.0530   -7.4552  -17.0659 C   0  0  0  0  0  0  0  0  0  0  0  0
   19.1006   -6.6738  -18.3217 C   0  0  0  0  0  0  0  0  0  0  0  0
   19.5701   -5.2828  -18.1981 C   0  0  0  0  0  0  0  0  0  0  0  0
   20.6648   -4.9632  -17.6520 O   0  0  0  0  0  0  0  0  0  0  0  0
   16.6842   -8.1432  -16.9881 C   0  0  0  0  0  0  0  0  0  0  0  0
   15.9457   -8.3018  -18.0191 O   0  0  0  0  0  0  0  0  0  0  0  0
   18.8252   -4.2037  -18.6831 O   0  0  0  0  0  0  0  0  0  0  0  0
   16.0591   -7.5295  -15.8849 N   0  0  0  0  0  0  0  0  0  0  0  0
   14.6863   -7.0063  -15.9602 C   0  0  1  0  0  0  0  0  0  0  0  0
   14.0855   -7.1711  -14.5547 C   0  0  0  0  0  0  0  0  0  0  0  0
   12.7228   -6.6430  -14.4695 C   0  0  0  0  0  0  0  0  0  0  0  0
   11.6300   -7.3711  -14.9354 C   0  0  0  0  0  0  0  0  0  0  0  0
   10.3487   -6.8794  -14.8400 C   0  0  0  0  0  0  0  0  0  0  0  0
   10.0802   -5.6481  -14.2820 C   0  0  0  0  0  0  0  0  0  0  0  0
   11.1606   -4.9283  -13.8213 C   0  0  0  0  0  0  0  0  0  0  0  0
   12.4453   -5.4076  -13.9101 C   0  0  0  0  0  0  0  0  0  0  0  0
   14.7671   -5.5656  -16.2319 C   0  0  0  0  0  0  0  0  0  0  0  0
   15.9884   -4.8869  -16.3203 O   0  0  0  0  0  0  0  0  0  0  0  0
   13.7119   -4.9051  -16.3910 O   0  0  0  0  0  0  0  0  0  0  0  0
  2  1  1  0
  3  2  2  0
  4  3  1  0
  5 11  1  0
  5  4  2  0
  6  5  1  0
  7  9  1  0
  7  6  1  0
  7  8  1  1
  9 10  2  0
 11 12  2  0
 12  2  1  0
 13 14  1  0
 13  9  1  0
 14 15  1  6
 16 15  1  0
 17 16  1  0
 17 18  2  0
 19 14  1  0
 20 19  2  0
 21 17  1  0
 22 19  1  0
 23 24  1  1
 23 22  1  0
 24 25  1  0
 25 30  2  0
 26 27  2  0
 26 25  1  0
 27 28  1  0
 28 29  2  0
 30 29  1  0
 31 23  1  0
 31 32  1  0
 33 31  2  0
M  END
$$$$
