YEF.pdb
     RDKit          3D

 33 34  0  0  1  0  0  0  0  0999 V2000
   14.5789  -10.9420  -23.6890 O   0  0  0  0  0  0  0  0  0  0  0  0
   15.3435  -10.4306  -22.6312 C   0  0  0  0  0  0  0  0  0  0  0  0
   16.6301  -10.8379  -22.3955 C   0  0  0  0  0  0  0  0  0  0  0  0
   17.3646  -10.3249  -21.3531 C   0  0  0  0  0  0  0  0  0  0  0  0
   16.8383   -9.3679  -20.4867 C   0  0  0  0  0  0  0  0  0  0  0  0
   17.6251   -8.8070  -19.3558 C   0  0  0  0  0  0  0  0  0  0  0  0
   17.8888   -9.9455  -18.3935 C   0  0  2  0  0  0  0  0  0  0  0  0
   16.6106  -10.3410  -17.8339 N   0  0  0  0  0  0  0  0  0  0  0  0
   18.8049   -9.5879  -17.3100 C   0  0  0  0  0  0  0  0  0  0  0  0
   18.3872   -9.0013  -16.2794 O   0  0  0  0  0  0  0  0  0  0  0  0
   15.5425   -8.9657  -20.7338 C   0  0  0  0  0  0  0  0  0  0  0  0
   14.8157   -9.4811  -21.7749 C   0  0  0  0  0  0  0  0  0  0  0  0
   20.1939   -9.9000  -17.4044 N   0  0  0  0  0  0  0  0  0  0  0  0
   21.1672   -9.5206  -16.4200 C   0  0  1  0  0  0  0  0  0  0  0  0
   22.3731  -10.3996  -16.4095 C   0  0  0  0  0  0  0  0  0  0  0  0
   23.4101  -10.1218  -15.3910 C   0  0  0  0  0  0  0  0  0  0  0  0
   24.6111  -10.9735  -15.4446 C   0  0  0  0  0  0  0  0  0  0  0  0
   24.6073  -12.2022  -15.1460 O   0  0  0  0  0  0  0  0  0  0  0  0
   21.5086   -8.0880  -16.4018 C   0  0  0  0  0  0  0  0  0  0  0  0
   22.0996   -7.5506  -17.3995 O   0  0  0  0  0  0  0  0  0  0  0  0
   25.8571  -10.4735  -15.8345 O   0  0  0  0  0  0  0  0  0  0  0  0
   21.2227   -7.2208  -15.3291 N   0  0  0  0  0  0  0  0  0  0  0  0
   21.5827   -5.7949  -15.3640 C   0  0  1  0  0  0  0  0  0  0  0  0
   20.2581   -5.0157  -15.3216 C   0  0  0  0  0  0  0  0  0  0  0  0
   19.6383   -4.9047  -16.6433 C   0  0  0  0  0  0  0  0  0  0  0  0
   19.9858   -3.8846  -17.5263 C   0  0  0  0  0  0  0  0  0  0  0  0
   19.4134   -3.7916  -18.7739 C   0  0  0  0  0  0  0  0  0  0  0  0
   18.4718   -4.6971  -19.2131 C   0  0  0  0  0  0  0  0  0  0  0  0
   18.1284   -5.7058  -18.3401 C   0  0  0  0  0  0  0  0  0  0  0  0
   18.6924   -5.8106  -17.0915 C   0  0  0  0  0  0  0  0  0  0  0  0
   22.3099   -5.4830  -14.1271 C   0  0  0  0  0  0  0  0  0  0  0  0
   22.7651   -4.1928  -13.8303 O   0  0  0  0  0  0  0  0  0  0  0  0
   22.5406   -6.3959  -13.2973 O   0  0  0  0  0  0  0  0  0  0  0  0
  2  1  1  0
  3  2  2  0
  4  3  1  0
  5 11  1  0
  5  4  2  0
  6  5  1  0
  7  9  1  0
  7  6  1  0
  7  8  1  1
  9 10  2  0
 11 12  2  0
 12  2  1  0
 13 14  1  0
 13  9  1  0
 14 15  1  6
 16 15  1  0
 17 16  1  0
 17 18  2  0
 19 14  1  0
 20 19  2  0
 21 17  1  0
 22 19  1  0
 23 24  1  1
 23 22  1  0
 24 25  1  0
 25 30  2  0
 26 27  2  0
 26 25  1  0
 27 28  1  0
 28 29  2  0
 30 29  1  0
 31 23  1  0
 31 32  1  0
 33 31  2  0
M  END
$$$$
