YEF.pdb
     RDKit          3D

 33 34  0  0  1  0  0  0  0  0999 V2000
   10.3426  -11.4127  -16.1836 O   0  0  0  0  0  0  0  0  0  0  0  0
   11.6462  -10.9886  -15.8907 C   0  0  0  0  0  0  0  0  0  0  0  0
   12.2268   -9.9208  -16.5227 C   0  0  0  0  0  0  0  0  0  0  0  0
   13.5066   -9.5194  -16.2221 C   0  0  0  0  0  0  0  0  0  0  0  0
   14.2747  -10.1769  -15.2623 C   0  0  0  0  0  0  0  0  0  0  0  0
   15.6603   -9.7502  -14.9301 C   0  0  0  0  0  0  0  0  0  0  0  0
   16.5709  -10.3493  -15.9807 C   0  0  2  0  0  0  0  0  0  0  0  0
   16.8404  -11.7188  -15.5865 N   0  0  0  0  0  0  0  0  0  0  0  0
   17.8352   -9.6283  -16.1311 C   0  0  0  0  0  0  0  0  0  0  0  0
   18.8691  -10.0055  -15.5231 O   0  0  0  0  0  0  0  0  0  0  0  0
   13.6796  -11.2501  -14.6328 C   0  0  0  0  0  0  0  0  0  0  0  0
   12.4032  -11.6451  -14.9373 C   0  0  0  0  0  0  0  0  0  0  0  0
   17.9174   -8.4798  -16.9737 N   0  0  0  0  0  0  0  0  0  0  0  0
   19.1284   -7.7464  -17.2095 C   0  0  1  0  0  0  0  0  0  0  0  0
   19.2212   -7.1835  -18.5885 C   0  0  0  0  0  0  0  0  0  0  0  0
   20.4757   -6.4919  -18.9593 C   0  0  0  0  0  0  0  0  0  0  0  0
   21.6532   -7.3548  -19.1585 C   0  0  0  0  0  0  0  0  0  0  0  0
   21.6763   -8.3252  -19.9689 O   0  0  0  0  0  0  0  0  0  0  0  0
   19.4725   -6.7614  -16.1699 C   0  0  0  0  0  0  0  0  0  0  0  0
   18.5618   -6.0463  -15.6289 O   0  0  0  0  0  0  0  0  0  0  0  0
   22.8441   -7.1576  -18.4532 O   0  0  0  0  0  0  0  0  0  0  0  0
   20.7803   -6.5335  -15.6988 N   0  0  0  0  0  0  0  0  0  0  0  0
   21.0583   -5.6024  -14.5943 C   0  0  1  0  0  0  0  0  0  0  0  0
   21.8943   -6.3873  -13.5702 C   0  0  0  0  0  0  0  0  0  0  0  0
   22.8655   -7.2750  -14.2121 C   0  0  0  0  0  0  0  0  0  0  0  0
   23.8666   -6.7779  -15.0438 C   0  0  0  0  0  0  0  0  0  0  0  0
   24.7878   -7.6125  -15.6334 C   0  0  0  0  0  0  0  0  0  0  0  0
   24.7689   -8.9761  -15.4334 C   0  0  0  0  0  0  0  0  0  0  0  0
   23.7792   -9.4675  -14.6108 C   0  0  0  0  0  0  0  0  0  0  0  0
   22.8531   -8.6452  -14.0156 C   0  0  0  0  0  0  0  0  0  0  0  0
   21.9095   -4.5256  -15.1158 C   0  0  0  0  0  0  0  0  0  0  0  0
   22.3602   -3.4710  -14.3129 O   0  0  0  0  0  0  0  0  0  0  0  0
   22.2521   -4.5364  -16.3231 O   0  0  0  0  0  0  0  0  0  0  0  0
  2  1  1  0
  3  2  2  0
  4  3  1  0
  5 11  1  0
  5  4  2  0
  6  5  1  0
  7  9  1  0
  7  6  1  0
  7  8  1  1
  9 10  2  0
 11 12  2  0
 12  2  1  0
 13 14  1  0
 13  9  1  0
 14 15  1  6
 16 15  1  0
 17 16  1  0
 17 18  2  0
 19 14  1  0
 20 19  2  0
 21 17  1  0
 22 19  1  0
 23 24  1  1
 23 22  1  0
 24 25  1  0
 25 30  2  0
 26 27  2  0
 26 25  1  0
 27 28  1  0
 28 29  2  0
 30 29  1  0
 31 23  1  0
 31 32  1  0
 33 31  2  0
M  END
$$$$
