YEF.pdb
     RDKit          3D

 33 34  0  0  1  0  0  0  0  0999 V2000
   16.8083  -15.5969  -17.0333 O   0  0  0  0  0  0  0  0  0  0  0  0
   17.6897  -14.5203  -16.8623 C   0  0  0  0  0  0  0  0  0  0  0  0
   18.9562  -14.6842  -16.3666 C   0  0  0  0  0  0  0  0  0  0  0  0
   19.8066  -13.6163  -16.2059 C   0  0  0  0  0  0  0  0  0  0  0  0
   19.4235  -12.3178  -16.5383 C   0  0  0  0  0  0  0  0  0  0  0  0
   20.3364  -11.1558  -16.3680 C   0  0  0  0  0  0  0  0  0  0  0  0
   20.8880  -10.8228  -17.7378 C   0  0  2  0  0  0  0  0  0  0  0  0
   21.9811  -11.7402  -17.9964 N   0  0  0  0  0  0  0  0  0  0  0  0
   21.3713   -9.4461  -17.8489 C   0  0  0  0  0  0  0  0  0  0  0  0
   22.5300   -9.1369  -17.4712 O   0  0  0  0  0  0  0  0  0  0  0  0
   18.1465  -12.1652  -17.0363 C   0  0  0  0  0  0  0  0  0  0  0  0
   17.3037  -13.2342  -17.1941 C   0  0  0  0  0  0  0  0  0  0  0  0
   20.5328   -8.4264  -18.3899 N   0  0  0  0  0  0  0  0  0  0  0  0
   20.8717   -7.0316  -18.3945 C   0  0  1  0  0  0  0  0  0  0  0  0
   20.1475   -6.2493  -19.4387 C   0  0  0  0  0  0  0  0  0  0  0  0
   20.5650   -4.8455  -19.6506 C   0  0  0  0  0  0  0  0  0  0  0  0
   19.8454   -4.1110  -20.7057 C   0  0  0  0  0  0  0  0  0  0  0  0
   20.2958   -3.9554  -21.8769 O   0  0  0  0  0  0  0  0  0  0  0  0
   20.8426   -6.3794  -17.0743 C   0  0  0  0  0  0  0  0  0  0  0  0
   19.8663   -6.5803  -16.2743 O   0  0  0  0  0  0  0  0  0  0  0  0
   18.5959   -3.5256  -20.4805 O   0  0  0  0  0  0  0  0  0  0  0  0
   21.8478   -5.5156  -16.5970 N   0  0  0  0  0  0  0  0  0  0  0  0
   21.7982   -4.9352  -15.2461 C   0  0  1  0  0  0  0  0  0  0  0  0
   23.1252   -5.3119  -14.5672 C   0  0  0  0  0  0  0  0  0  0  0  0
   23.1926   -6.7361  -14.2351 C   0  0  0  0  0  0  0  0  0  0  0  0
   22.4108   -7.2843  -13.2205 C   0  0  0  0  0  0  0  0  0  0  0  0
   22.4644   -8.6259  -12.9208 C   0  0  0  0  0  0  0  0  0  0  0  0
   23.2893   -9.4931  -13.6042 C   0  0  0  0  0  0  0  0  0  0  0  0
   24.0621   -8.9511  -14.6076 C   0  0  0  0  0  0  0  0  0  0  0  0
   24.0182   -7.6131  -14.9174 C   0  0  0  0  0  0  0  0  0  0  0  0
   21.7804   -3.4735  -15.3838 C   0  0  0  0  0  0  0  0  0  0  0  0
   21.8063   -2.8377  -16.6308 O   0  0  0  0  0  0  0  0  0  0  0  0
   21.7422   -2.7550  -14.3555 O   0  0  0  0  0  0  0  0  0  0  0  0
  2  1  1  0
  3  2  2  0
  4  3  1  0
  5 11  1  0
  5  4  2  0
  6  5  1  0
  7  9  1  0
  7  6  1  0
  7  8  1  1
  9 10  2  0
 11 12  2  0
 12  2  1  0
 13 14  1  0
 13  9  1  0
 14 15  1  6
 16 15  1  0
 17 16  1  0
 17 18  2  0
 19 14  1  0
 20 19  2  0
 21 17  1  0
 22 19  1  0
 23 24  1  1
 23 22  1  0
 24 25  1  0
 25 30  2  0
 26 27  2  0
 26 25  1  0
 27 28  1  0
 28 29  2  0
 30 29  1  0
 31 23  1  0
 31 32  1  0
 33 31  2  0
M  END
$$$$
