YEF.pdb
     RDKit          3D

 33 34  0  0  1  0  0  0  0  0999 V2000
   18.9763  -14.8653  -17.4276 O   0  0  0  0  0  0  0  0  0  0  0  0
   19.5579  -15.7286  -16.4888 C   0  0  0  0  0  0  0  0  0  0  0  0
   18.8203  -16.6350  -15.7737 C   0  0  0  0  0  0  0  0  0  0  0  0
   19.4085  -17.4736  -14.8571 C   0  0  0  0  0  0  0  0  0  0  0  0
   20.7802  -17.4436  -14.6105 C   0  0  0  0  0  0  0  0  0  0  0  0
   21.4258  -18.3468  -13.6207 C   0  0  0  0  0  0  0  0  0  0  0  0
   22.4066  -19.2105  -14.3847 C   0  0  2  0  0  0  0  0  0  0  0  0
   21.6333  -20.0608  -15.2692 N   0  0  0  0  0  0  0  0  0  0  0  0
   23.2433  -20.0420  -13.5188 C   0  0  0  0  0  0  0  0  0  0  0  0
   22.7269  -20.8180  -12.6751 O   0  0  0  0  0  0  0  0  0  0  0  0
   21.5123  -16.5273  -15.3363 C   0  0  0  0  0  0  0  0  0  0  0  0
   20.9197  -15.6940  -16.2486 C   0  0  0  0  0  0  0  0  0  0  0  0
   24.6656  -19.9864  -13.6172 N   0  0  0  0  0  0  0  0  0  0  0  0
   25.5531  -20.8052  -12.8412 C   0  0  1  0  0  0  0  0  0  0  0  0
   26.6861  -21.3668  -13.6337 C   0  0  0  0  0  0  0  0  0  0  0  0
   26.3572  -22.0424  -14.9085 C   0  0  0  0  0  0  0  0  0  0  0  0
   27.4911  -22.6472  -15.6290 C   0  0  0  0  0  0  0  0  0  0  0  0
   28.6921  -22.5485  -15.2457 O   0  0  0  0  0  0  0  0  0  0  0  0
   25.9909  -20.2134  -11.5655 C   0  0  0  0  0  0  0  0  0  0  0  0
   26.0077  -18.9447  -11.4124 O   0  0  0  0  0  0  0  0  0  0  0  0
   27.3144  -23.3823  -16.8050 O   0  0  0  0  0  0  0  0  0  0  0  0
   26.4089  -20.9631  -10.4485 N   0  0  0  0  0  0  0  0  0  0  0  0
   27.2014  -20.3656   -9.3627 C   0  0  1  0  0  0  0  0  0  0  0  0
   26.2121  -20.0597   -8.2263 C   0  0  0  0  0  0  0  0  0  0  0  0
   26.8852  -19.5621   -7.0253 C   0  0  0  0  0  0  0  0  0  0  0  0
   27.1258  -18.2028   -6.8366 C   0  0  0  0  0  0  0  0  0  0  0  0
   27.7445  -17.7361   -5.6999 C   0  0  0  0  0  0  0  0  0  0  0  0
   28.1563  -18.5835   -4.6940 C   0  0  0  0  0  0  0  0  0  0  0  0
   27.9181  -19.9275   -4.8804 C   0  0  0  0  0  0  0  0  0  0  0  0
   27.3011  -20.4069   -6.0107 C   0  0  0  0  0  0  0  0  0  0  0  0
   28.1299  -21.3891   -8.8664 C   0  0  0  0  0  0  0  0  0  0  0  0
   29.3806  -21.0676   -8.3259 O   0  0  0  0  0  0  0  0  0  0  0  0
   27.8053  -22.6001   -8.9239 O   0  0  0  0  0  0  0  0  0  0  0  0
  2  1  1  0
  3  2  2  0
  4  3  1  0
  5 11  1  0
  5  4  2  0
  6  5  1  0
  7  9  1  0
  7  6  1  0
  7  8  1  6
  9 10  2  0
 11 12  2  0
 12  2  1  0
 13 14  1  0
 13  9  1  0
 14 15  1  6
 16 15  1  0
 17 16  1  0
 17 18  2  0
 19 14  1  0
 20 19  2  0
 21 17  1  0
 22 19  1  0
 23 24  1  1
 23 22  1  0
 24 25  1  0
 25 30  2  0
 26 27  2  0
 26 25  1  0
 27 28  1  0
 28 29  2  0
 30 29  1  0
 31 23  1  0
 31 32  1  0
 33 31  2  0
M  END
$$$$
