RCQ.pdb
     RDKit          3D

 27 26  0  0  1  0  0  0  0  0999 V2000
    7.4327  -15.5834   16.1312 N   0  0  0  0  0  0  0  0  0  0  0  0
    7.5232  -14.1837   16.3542 C   0  0  0  0  0  0  0  0  0  0  0  0
    8.0408  -13.3998   15.4971 N   0  0  0  0  0  0  0  0  0  0  0  0
    7.0102  -13.6707   17.5798 N   0  0  0  0  0  0  0  0  0  0  0  0
    6.8752  -14.4975   18.7635 C   0  0  0  0  0  0  0  0  0  0  0  0
    8.2065  -15.1354   18.9992 C   0  0  0  0  0  0  0  0  0  0  0  0
    8.9026  -14.7919   20.2511 C   0  0  0  0  0  0  0  0  0  0  0  0
    8.4860  -15.5018   21.4929 C   0  0  2  0  0  0  0  0  0  0  0  0
    7.1202  -15.9579   21.4886 N   0  0  0  0  0  0  0  0  0  0  0  0
    8.7937  -14.7229   22.7338 C   0  0  0  0  0  0  0  0  0  0  0  0
    9.9414  -14.2187   22.8360 O   0  0  0  0  0  0  0  0  0  0  0  0
    8.1466  -12.4018   15.6884 N   0  0  0  0  0  0  0  0  0  0  0  0
    7.8911  -14.5202   23.7822 C   0  0  1  0  0  0  0  0  0  0  0  0
    8.2548  -13.9787   25.0892 C   0  0  0  0  0  0  0  0  0  0  0  0
    6.9878  -13.2206   25.5256 S   0  0  0  0  0  0  0  0  0  0  0  0
    7.1086  -12.6066   27.1941 C   0  0  0  0  0  0  0  0  0  0  0  0
    8.6188  -15.0508   26.0319 O   0  0  0  0  0  0  0  0  0  0  0  0
    7.7650  -15.9179   26.3355 N   0  0  0  0  0  0  0  0  0  0  0  0
   13.4453  -17.9660   25.2766 C   0  0  0  0  0  0  0  0  0  0  0  0
   12.3991  -18.7992   25.7828 O   0  0  0  0  0  0  0  0  0  0  0  0
   12.3938  -19.9847   25.3906 C   0  0  0  0  0  0  0  0  0  0  0  0
   11.4199  -18.2279   26.7070 C   0  0  0  0  0  0  0  0  0  0  0  0
   11.5942  -16.7982   27.0568 C   0  0  2  0  0  0  0  0  0  0  0  0
   10.3341  -16.1647   27.5280 N   0  0  0  0  0  0  0  0  0  0  0  0
    9.9028  -15.1184   26.5934 C   0  0  0  0  0  0  0  0  0  0  0  0
   10.3621  -15.6599   28.9076 O   0  0  0  0  0  0  0  0  0  0  0  0
   10.4992  -16.5536   29.9434 O   0  0  0  0  0  0  0  0  0  0  0  0
  2  1  1  0
  3  2  2  0
  4  2  1  0
  5  6  1  0
  5  4  1  0
  7  6  1  0
  8  7  1  0
  8  9  1  6
 10 11  2  0
 10  8  1  0
 12 10  1  0
 13 12  1  0
 14 15  1  0
 13 14  1  1
 16 13  1  0
 16 24  1  0
 17 16  2  0
 19 18  1  0
 19 20  2  0
 21 19  1  0
 22 21  1  0
 23 24  1  0
 23 22  1  6
 25 23  1  0
 26 25  1  0
 27 25  2  0
M  END
$$$$
