RCQ.pdb
     RDKit          3D

 27 26  0  0  1  0  0  0  0  0999 V2000
    9.2219  -14.7982   16.2016 N   0  0  0  0  0  0  0  0  0  0  0  0
    9.0112  -16.1850   16.4238 C   0  0  0  0  0  0  0  0  0  0  0  0
    9.8972  -17.0521   16.1408 N   0  0  0  0  0  0  0  0  0  0  0  0
    7.7643  -16.5875   16.9823 N   0  0  0  0  0  0  0  0  0  0  0  0
    6.9067  -15.6618   17.6968 C   0  0  0  0  0  0  0  0  0  0  0  0
    7.7641  -14.9714   18.7083 C   0  0  0  0  0  0  0  0  0  0  0  0
    7.1351  -14.6210   19.9934 C   0  0  0  0  0  0  0  0  0  0  0  0
    7.4539  -13.2894   20.5807 C   0  0  2  0  0  0  0  0  0  0  0  0
    8.3411  -12.4834   19.7827 N   0  0  0  0  0  0  0  0  0  0  0  0
    7.9316  -13.3825   21.9964 C   0  0  0  0  0  0  0  0  0  0  0  0
    9.1438  -13.6588   22.1856 O   0  0  0  0  0  0  0  0  0  0  0  0
    9.7511  -18.0432   16.3410 N   0  0  0  0  0  0  0  0  0  0  0  0
    7.1204  -13.1824   23.1175 C   0  0  2  0  0  0  0  0  0  0  0  0
    7.5515  -13.4014   24.4959 C   0  0  0  0  0  0  0  0  0  0  0  0
    6.4386  -12.7369   25.3268 S   0  0  0  0  0  0  0  0  0  0  0  0
    6.6544  -12.9974   27.0765 C   0  0  0  0  0  0  0  0  0  0  0  0
    7.6909  -14.8376   24.7930 O   0  0  0  0  0  0  0  0  0  0  0  0
    6.8699  -15.6489   24.3022 N   0  0  0  0  0  0  0  0  0  0  0  0
   11.0765  -18.0968   22.0603 C   0  0  0  0  0  0  0  0  0  0  0  0
   11.8564  -17.9167   23.2455 O   0  0  0  0  0  0  0  0  0  0  0  0
   13.0730  -18.1832   23.1560 C   0  0  0  0  0  0  0  0  0  0  0  0
   11.1993  -17.4435   24.4635 C   0  0  0  0  0  0  0  0  0  0  0  0
    9.7585  -17.1134   24.3539 C   0  0  1  0  0  0  0  0  0  0  0  0
    9.1606  -16.7132   25.6552 N   0  0  0  0  0  0  0  0  0  0  0  0
    8.7257  -15.3120   25.6131 C   0  0  0  0  0  0  0  0  0  0  0  0
    9.9962  -16.9702   26.8362 O   0  0  0  0  0  0  0  0  0  0  0  0
   10.2688  -18.2700   27.1917 O   0  0  0  0  0  0  0  0  0  0  0  0
  2  1  1  0
  3  2  2  0
  4  2  1  0
  5  6  1  0
  5  4  1  0
  7  6  1  0
  8  7  1  0
  8  9  1  6
 10 11  2  0
 10  8  1  0
 12 10  1  0
 13 12  1  0
 14 15  1  0
 13 14  1  6
 16 13  1  0
 16 24  1  0
 17 16  2  0
 19 18  1  0
 19 20  2  0
 21 19  1  0
 22 21  1  0
 23 24  1  0
 23 22  1  6
 25 23  1  0
 26 25  1  0
 27 25  2  0
M  END
$$$$
