RCQ.pdb
     RDKit          3D

 27 26  0  0  1  0  0  0  0  0999 V2000
    8.4171  -15.3117   16.7897 N   0  0  0  0  0  0  0  0  0  0  0  0
    8.1321  -13.9208   16.7557 C   0  0  0  0  0  0  0  0  0  0  0  0
    8.1957  -13.2491   15.6779 N   0  0  0  0  0  0  0  0  0  0  0  0
    7.7654  -13.2867   17.9772 N   0  0  0  0  0  0  0  0  0  0  0  0
    8.5231  -13.4746   19.1992 C   0  0  0  0  0  0  0  0  0  0  0  0
    8.7132  -14.9479   19.3676 C   0  0  0  0  0  0  0  0  0  0  0  0
    9.4637  -15.3961   20.5532 C   0  0  0  0  0  0  0  0  0  0  0  0
    8.7162  -16.1379   21.6070 C   0  0  2  0  0  0  0  0  0  0  0  0
    7.3057  -16.2754   21.3517 N   0  0  0  0  0  0  0  0  0  0  0  0
    8.9687  -15.5997   22.9809 C   0  0  0  0  0  0  0  0  0  0  0  0
   10.1652  -15.4334   23.3310 O   0  0  0  0  0  0  0  0  0  0  0  0
    8.0270  -12.2415   15.6714 N   0  0  0  0  0  0  0  0  0  0  0  0
    7.9643  -15.2707   23.8963 C   0  0  1  0  0  0  0  0  0  0  0  0
    8.2096  -14.8650   25.2779 C   0  0  0  0  0  0  0  0  0  0  0  0
    7.0545  -13.8910   25.5735 S   0  0  0  0  0  0  0  0  0  0  0  0
    7.2797  -12.3135   24.7758 C   0  0  0  0  0  0  0  0  0  0  0  0
    8.2104  -16.0252   26.1859 O   0  0  0  0  0  0  0  0  0  0  0  0
    7.3623  -16.9344   26.0216 N   0  0  0  0  0  0  0  0  0  0  0  0
   11.8586  -18.9959   24.0229 C   0  0  0  0  0  0  0  0  0  0  0  0
   12.1737  -19.5204   25.3155 O   0  0  0  0  0  0  0  0  0  0  0  0
   12.9935  -20.4617   25.3485 C   0  0  0  0  0  0  0  0  0  0  0  0
   11.5322  -18.9387   26.4941 C   0  0  0  0  0  0  0  0  0  0  0  0
   10.6276  -17.7888   26.2568 C   0  0  1  0  0  0  0  0  0  0  0  0
    9.9421  -17.3325   27.4949 N   0  0  0  0  0  0  0  0  0  0  0  0
    9.1435  -16.1303   27.2284 C   0  0  0  0  0  0  0  0  0  0  0  0
   10.8147  -17.1376   28.6609 O   0  0  0  0  0  0  0  0  0  0  0  0
   11.3911  -15.9063   28.8657 O   0  0  0  0  0  0  0  0  0  0  0  0
  2  1  1  0
  3  2  2  0
  4  2  1  0
  5  6  1  0
  5  4  1  0
  7  6  1  0
  8  7  1  0
  8  9  1  6
 10 11  2  0
 10  8  1  0
 12 10  1  0
 13 12  1  0
 14 15  1  0
 13 14  1  1
 16 13  1  0
 16 24  1  0
 17 16  2  0
 19 18  1  0
 19 20  2  0
 21 19  1  0
 22 21  1  0
 23 24  1  0
 23 22  1  6
 25 23  1  0
 26 25  1  0
 27 25  2  0
M  END
$$$$
