RCQ.pdb
     RDKit          3D

 27 26  0  0  1  0  0  0  0  0999 V2000
    7.4276  -13.2427   15.0766 N   0  0  0  0  0  0  0  0  0  0  0  0
    7.9980  -14.4949   14.7250 C   0  0  0  0  0  0  0  0  0  0  0  0
    8.5745  -14.6792   13.6066 N   0  0  0  0  0  0  0  0  0  0  0  0
    7.9093  -15.5556   15.6713 N   0  0  0  0  0  0  0  0  0  0  0  0
    7.8653  -15.3105   17.0998 C   0  0  0  0  0  0  0  0  0  0  0  0
    8.1547  -13.8573   17.2980 C   0  0  0  0  0  0  0  0  0  0  0  0
    8.2177  -13.3693   18.6865 C   0  0  0  0  0  0  0  0  0  0  0  0
    9.0634  -14.1281   19.6500 C   0  0  2  0  0  0  0  0  0  0  0  0
    9.2675  -15.5107   19.3030 N   0  0  0  0  0  0  0  0  0  0  0  0
    8.5943  -13.9876   21.0647 C   0  0  0  0  0  0  0  0  0  0  0  0
    7.9297  -12.9613   21.3593 O   0  0  0  0  0  0  0  0  0  0  0  0
    8.9898  -15.5815   13.3676 N   0  0  0  0  0  0  0  0  0  0  0  0
    8.8459  -14.9202   22.0756 C   0  0  1  0  0  0  0  0  0  0  0  0
    8.9563  -14.5882   23.4938 C   0  0  0  0  0  0  0  0  0  0  0  0
    7.5524  -14.0641   23.8471 S   0  0  0  0  0  0  0  0  0  0  0  0
    7.3121  -13.9079   25.6059 C   0  0  0  0  0  0  0  0  0  0  0  0
    9.3318  -15.7672   24.2935 O   0  0  0  0  0  0  0  0  0  0  0  0
    8.6154  -16.7955   24.2454 N   0  0  0  0  0  0  0  0  0  0  0  0
    9.2554  -13.4493   29.4637 C   0  0  0  0  0  0  0  0  0  0  0  0
    9.6174  -14.7745   29.8611 O   0  0  0  0  0  0  0  0  0  0  0  0
    9.5536  -15.0254   31.0826 C   0  0  0  0  0  0  0  0  0  0  0  0
   10.0322  -15.7346   28.8386 C   0  0  0  0  0  0  0  0  0  0  0  0
   10.0932  -15.2338   27.4449 C   0  0  1  0  0  0  0  0  0  0  0  0
   10.5117  -16.2815   26.4763 N   0  0  0  0  0  0  0  0  0  0  0  0
   10.4762  -15.7590   25.1051 C   0  0  0  0  0  0  0  0  0  0  0  0
    9.7843  -17.5544   26.5741 O   0  0  0  0  0  0  0  0  0  0  0  0
   10.3484  -18.5941   27.2749 O   0  0  0  0  0  0  0  0  0  0  0  0
  2  1  1  0
  3  2  2  0
  4  2  1  0
  5  6  1  0
  5  4  1  0
  7  6  1  0
  8  7  1  0
  8  9  1  6
 10 11  2  0
 10  8  1  0
 12 10  1  0
 13 12  1  0
 14 15  1  0
 13 14  1  6
 16 13  1  0
 16 24  1  0
 17 16  2  0
 19 18  1  0
 19 20  2  0
 21 19  1  0
 22 21  1  0
 23 24  1  0
 23 22  1  1
 25 23  1  0
 26 25  1  0
 27 25  2  0
M  END
$$$$
