RCQ.pdb
     RDKit          3D

 27 26  0  0  1  0  0  0  0  0999 V2000
    7.1645  -13.5564   14.6839 N   0  0  0  0  0  0  0  0  0  0  0  0
    8.1835  -14.2385   15.4004 C   0  0  0  0  0  0  0  0  0  0  0  0
    8.4318  -15.4702   15.2046 N   0  0  0  0  0  0  0  0  0  0  0  0
    8.9340  -13.4974   16.3575 N   0  0  0  0  0  0  0  0  0  0  0  0
    8.2966  -12.6430   17.3406 C   0  0  0  0  0  0  0  0  0  0  0  0
    7.3009  -13.4888   18.0674 C   0  0  0  0  0  0  0  0  0  0  0  0
    7.4902  -13.6494   19.5194 C   0  0  0  0  0  0  0  0  0  0  0  0
    8.4690  -14.6731   19.9816 C   0  0  2  0  0  0  0  0  0  0  0  0
    8.6602  -15.7696   19.0679 N   0  0  0  0  0  0  0  0  0  0  0  0
    8.1797  -15.1647   21.3657 C   0  0  0  0  0  0  0  0  0  0  0  0
    7.9863  -14.3035   22.2616 O   0  0  0  0  0  0  0  0  0  0  0  0
    9.1878  -15.9435   15.7028 N   0  0  0  0  0  0  0  0  0  0  0  0
    8.1104  -16.5141   21.7253 C   0  0  1  0  0  0  0  0  0  0  0  0
    7.8549  -16.9931   23.0814 C   0  0  0  0  0  0  0  0  0  0  0  0
    7.4495  -18.4632   22.8692 S   0  0  0  0  0  0  0  0  0  0  0  0
    8.7787  -19.5910   23.2390 C   0  0  0  0  0  0  0  0  0  0  0  0
    9.0501  -16.8588   23.9322 O   0  0  0  0  0  0  0  0  0  0  0  0
   10.1876  -16.9146   23.4068 N   0  0  0  0  0  0  0  0  0  0  0  0
   11.4540  -14.3405   30.4750 C   0  0  0  0  0  0  0  0  0  0  0  0
   10.5965  -14.3304   29.3305 O   0  0  0  0  0  0  0  0  0  0  0  0
    9.6779  -13.4845   29.3318 C   0  0  0  0  0  0  0  0  0  0  0  0
   10.8389  -15.2886   28.2524 C   0  0  0  0  0  0  0  0  0  0  0  0
    9.7490  -15.4631   27.2632 C   0  0  1  0  0  0  0  0  0  0  0  0
   10.0819  -16.4608   26.2122 N   0  0  0  0  0  0  0  0  0  0  0  0
    8.9370  -16.6683   25.3176 C   0  0  0  0  0  0  0  0  0  0  0  0
   10.6043  -17.7426   26.7053 O   0  0  0  0  0  0  0  0  0  0  0  0
   11.9556  -17.8745   26.9217 O   0  0  0  0  0  0  0  0  0  0  0  0
  2  1  1  0
  3  2  2  0
  4  2  1  0
  5  6  1  0
  5  4  1  0
  7  6  1  0
  8  7  1  0
  8  9  1  6
 10 11  2  0
 10  8  1  0
 12 10  1  0
 13 12  1  0
 14 15  1  0
 13 14  1  6
 16 13  1  0
 16 24  1  0
 17 16  2  0
 19 18  1  0
 19 20  2  0
 21 19  1  0
 22 21  1  0
 23 24  1  0
 23 22  1  6
 25 23  1  0
 26 25  1  0
 27 25  2  0
M  END
$$$$
