RCQ.pdb
     RDKit          3D

 27 26  0  0  1  0  0  0  0  0999 V2000
    8.9062  -19.9159   19.4747 N   0  0  0  0  0  0  0  0  0  0  0  0
    7.6573  -19.7652   18.8154 C   0  0  0  0  0  0  0  0  0  0  0  0
    7.0612  -20.7496   18.2744 N   0  0  0  0  0  0  0  0  0  0  0  0
    7.0784  -18.4645   18.7759 N   0  0  0  0  0  0  0  0  0  0  0  0
    7.8292  -17.2770   19.1350 C   0  0  0  0  0  0  0  0  0  0  0  0
    7.8016  -17.1830   20.6268 C   0  0  0  0  0  0  0  0  0  0  0  0
    8.5039  -16.0426   21.2401 C   0  0  0  0  0  0  0  0  0  0  0  0
    7.7776  -14.7444   21.3220 C   0  0  2  0  0  0  0  0  0  0  0  0
    7.8460  -13.9470   20.1249 N   0  0  0  0  0  0  0  0  0  0  0  0
    8.1591  -13.9448   22.5287 C   0  0  0  0  0  0  0  0  0  0  0  0
    9.2072  -13.2529   22.4620 O   0  0  0  0  0  0  0  0  0  0  0  0
    6.1548  -20.6334   17.8176 N   0  0  0  0  0  0  0  0  0  0  0  0
    7.4281  -13.9172   23.7203 C   0  0  2  0  0  0  0  0  0  0  0  0
    7.9080  -13.3277   24.9677 C   0  0  0  0  0  0  0  0  0  0  0  0
    6.7314  -12.4434   25.4193 S   0  0  0  0  0  0  0  0  0  0  0  0
    6.9660  -11.7937   27.0620 C   0  0  0  0  0  0  0  0  0  0  0  0
    8.2414  -14.3657   25.9585 O   0  0  0  0  0  0  0  0  0  0  0  0
    7.3705  -15.2082   26.2822 N   0  0  0  0  0  0  0  0  0  0  0  0
   13.5885  -16.6538   25.6165 C   0  0  0  0  0  0  0  0  0  0  0  0
   12.3586  -16.8327   24.9091 O   0  0  0  0  0  0  0  0  0  0  0  0
   12.4509  -17.1739   23.7114 C   0  0  0  0  0  0  0  0  0  0  0  0
   11.0955  -16.6101   25.6121 C   0  0  0  0  0  0  0  0  0  0  0  0
   11.1911  -16.1226   27.0086 C   0  0  2  0  0  0  0  0  0  0  0  0
    9.9364  -15.4780   27.4788 N   0  0  0  0  0  0  0  0  0  0  0  0
    9.5150  -14.4280   26.5438 C   0  0  0  0  0  0  0  0  0  0  0  0
    9.9679  -14.9733   28.8584 O   0  0  0  0  0  0  0  0  0  0  0  0
    9.6875  -13.6477   29.0915 O   0  0  0  0  0  0  0  0  0  0  0  0
  2  1  1  0
  3  2  2  0
  4  2  1  0
  5  6  1  0
  5  4  1  0
  7  6  1  0
  8  7  1  0
  8  9  1  6
 10 11  2  0
 10  8  1  0
 12 10  1  0
 13 12  1  0
 14 15  1  0
 13 14  1  6
 16 13  1  0
 16 24  1  0
 17 16  2  0
 19 18  1  0
 19 20  2  0
 21 19  1  0
 22 21  1  0
 23 24  1  0
 23 22  1  6
 25 23  1  0
 26 25  1  0
 27 25  2  0
M  END
$$$$
