RCQ.pdb
     RDKit          3D

 27 26  0  0  1  0  0  0  0  0999 V2000
    7.3646  -12.8918   15.3912 N   0  0  0  0  0  0  0  0  0  0  0  0
    8.0522  -14.0490   14.9382 C   0  0  0  0  0  0  0  0  0  0  0  0
    8.0253  -14.4115   13.7197 N   0  0  0  0  0  0  0  0  0  0  0  0
    8.7863  -14.8046   15.8967 N   0  0  0  0  0  0  0  0  0  0  0  0
    8.1313  -15.5452   16.9576 C   0  0  0  0  0  0  0  0  0  0  0  0
    7.4370  -14.5412   17.8206 C   0  0  0  0  0  0  0  0  0  0  0  0
    8.1648  -14.0592   19.0072 C   0  0  0  0  0  0  0  0  0  0  0  0
    8.5109  -15.0552   20.0597 C   0  0  2  0  0  0  0  0  0  0  0  0
    7.6594  -16.2162   20.0843 N   0  0  0  0  0  0  0  0  0  0  0  0
    8.6291  -14.4404   21.4195 C   0  0  0  0  0  0  0  0  0  0  0  0
    9.2845  -13.3719   21.5212 O   0  0  0  0  0  0  0  0  0  0  0  0
    8.5712  -15.2108   13.3930 N   0  0  0  0  0  0  0  0  0  0  0  0
    8.0597  -14.9750   22.5793 C   0  0  1  0  0  0  0  0  0  0  0  0
    8.1756  -14.3749   23.9060 C   0  0  0  0  0  0  0  0  0  0  0  0
    6.7228  -14.3532   24.4151 S   0  0  0  0  0  0  0  0  0  0  0  0
    6.5624  -13.4870   25.9642 C   0  0  0  0  0  0  0  0  0  0  0  0
    9.0628  -15.1653   24.7769 O   0  0  0  0  0  0  0  0  0  0  0  0
    9.4814  -16.2787   24.3792 N   0  0  0  0  0  0  0  0  0  0  0  0
   11.5414  -16.2108   31.4738 C   0  0  0  0  0  0  0  0  0  0  0  0
   11.0667  -15.2346   30.5427 O   0  0  0  0  0  0  0  0  0  0  0  0
   10.3163  -14.3481   31.0012 C   0  0  0  0  0  0  0  0  0  0  0  0
   11.4772  -15.3298   29.1421 C   0  0  0  0  0  0  0  0  0  0  0  0
   10.6391  -14.6083   28.1552 C   0  0  1  0  0  0  0  0  0  0  0  0
   10.3123  -15.4371   26.9647 N   0  0  0  0  0  0  0  0  0  0  0  0
    9.4475  -14.6934   26.0410 C   0  0  0  0  0  0  0  0  0  0  0  0
    9.7531  -16.7640   27.2570 O   0  0  0  0  0  0  0  0  0  0  0  0
    9.9558  -17.7867   26.3607 O   0  0  0  0  0  0  0  0  0  0  0  0
  2  1  1  0
  3  2  2  0
  4  2  1  0
  5  6  1  0
  5  4  1  0
  7  6  1  0
  8  7  1  0
  8  9  1  1
 10 11  2  0
 10  8  1  0
 12 10  1  0
 13 12  1  0
 14 15  1  0
 13 14  1  1
 16 13  1  0
 16 24  1  0
 17 16  2  0
 19 18  1  0
 19 20  2  0
 21 19  1  0
 22 21  1  0
 23 24  1  0
 23 22  1  6
 25 23  1  0
 26 25  1  0
 27 25  2  0
M  END
$$$$
