RCQ.pdb
     RDKit          3D

 27 26  0  0  1  0  0  0  0  0999 V2000
    8.2590  -12.5162   16.3943 N   0  0  0  0  0  0  0  0  0  0  0  0
    8.5052  -13.8946   16.1565 C   0  0  0  0  0  0  0  0  0  0  0  0
    8.9367  -14.3158   15.0370 N   0  0  0  0  0  0  0  0  0  0  0  0
    8.2549  -14.8082   17.2201 N   0  0  0  0  0  0  0  0  0  0  0  0
    7.3949  -14.4708   18.3379 C   0  0  0  0  0  0  0  0  0  0  0  0
    8.2901  -14.1789   19.4991 C   0  0  0  0  0  0  0  0  0  0  0  0
    8.9879  -15.3222   20.1120 C   0  0  0  0  0  0  0  0  0  0  0  0
    8.3583  -15.9619   21.3012 C   0  0  2  0  0  0  0  0  0  0  0  0
    6.9378  -16.1674   21.1849 N   0  0  0  0  0  0  0  0  0  0  0  0
    8.7025  -15.2655   22.5810 C   0  0  0  0  0  0  0  0  0  0  0  0
    9.9203  -15.1544   22.8749 O   0  0  0  0  0  0  0  0  0  0  0  0
    8.9959  -15.3154   14.8347 N   0  0  0  0  0  0  0  0  0  0  0  0
    7.7613  -14.7323   23.4668 C   0  0  1  0  0  0  0  0  0  0  0  0
    8.0946  -14.1011   24.7413 C   0  0  0  0  0  0  0  0  0  0  0  0
    6.8392  -13.2714   25.0668 S   0  0  0  0  0  0  0  0  0  0  0  0
    6.9225  -12.5253   26.6830 C   0  0  0  0  0  0  0  0  0  0  0  0
    8.3863  -15.1063   25.7780 O   0  0  0  0  0  0  0  0  0  0  0  0
    7.5495  -16.0116   26.0086 N   0  0  0  0  0  0  0  0  0  0  0  0
   13.4561  -18.5748   26.4989 C   0  0  0  0  0  0  0  0  0  0  0  0
   12.3773  -19.0551   27.3056 O   0  0  0  0  0  0  0  0  0  0  0  0
   12.3562  -20.2831   27.5312 C   0  0  0  0  0  0  0  0  0  0  0  0
   11.3857  -18.1035   27.8060 C   0  0  0  0  0  0  0  0  0  0  0  0
   10.9715  -17.0269   26.8753 C   0  0  2  0  0  0  0  0  0  0  0  0
    9.9831  -16.0946   27.4794 N   0  0  0  0  0  0  0  0  0  0  0  0
    9.5831  -15.0685   26.5093 C   0  0  0  0  0  0  0  0  0  0  0  0
   10.3907  -15.4854   28.7529 O   0  0  0  0  0  0  0  0  0  0  0  0
   10.5653  -16.2909   29.8533 O   0  0  0  0  0  0  0  0  0  0  0  0
  2  1  1  0
  3  2  2  0
  4  2  1  0
  5  6  1  0
  5  4  1  0
  7  6  1  0
  8  7  1  0
  8  9  1  6
 10 11  2  0
 10  8  1  0
 12 10  1  0
 13 12  1  0
 14 15  1  0
 13 14  1  1
 16 13  1  0
 16 24  1  0
 17 16  2  0
 19 18  1  0
 19 20  2  0
 21 19  1  0
 22 21  1  0
 23 24  1  0
 23 22  1  6
 25 23  1  0
 26 25  1  0
 27 25  2  0
M  END
$$$$
