RCQ.pdb
     RDKit          3D

 27 26  0  0  1  0  0  0  0  0999 V2000
    7.1252  -12.7429   17.1689 N   0  0  0  0  0  0  0  0  0  0  0  0
    7.7660  -14.0078   17.0882 C   0  0  0  0  0  0  0  0  0  0  0  0
    8.4719  -14.3395   16.0839 N   0  0  0  0  0  0  0  0  0  0  0  0
    7.5978  -14.9096   18.1777 N   0  0  0  0  0  0  0  0  0  0  0  0
    6.5338  -14.7514   19.1501 C   0  0  0  0  0  0  0  0  0  0  0  0
    7.0401  -13.8102   20.1955 C   0  0  0  0  0  0  0  0  0  0  0  0
    7.6061  -14.4068   21.4176 C   0  0  0  0  0  0  0  0  0  0  0  0
    8.9740  -13.9814   21.8269 C   0  0  2  0  0  0  0  0  0  0  0  0
   10.0079  -14.3078   20.8792 N   0  0  0  0  0  0  0  0  0  0  0  0
    9.3346  -14.4449   23.2039 C   0  0  0  0  0  0  0  0  0  0  0  0
   10.2075  -15.3445   23.3063 O   0  0  0  0  0  0  0  0  0  0  0  0
    8.9001  -15.2649   16.0202 N   0  0  0  0  0  0  0  0  0  0  0  0
    8.7663  -13.9439   24.3791 C   0  0  2  0  0  0  0  0  0  0  0  0
    9.0970  -14.4170   25.7209 C   0  0  0  0  0  0  0  0  0  0  0  0
    8.4618  -13.3568   26.6389 S   0  0  0  0  0  0  0  0  0  0  0  0
    6.9191  -12.7409   25.9937 C   0  0  0  0  0  0  0  0  0  0  0  0
    8.5550  -15.7653   25.9634 O   0  0  0  0  0  0  0  0  0  0  0  0
    7.7018  -16.2356   25.1735 N   0  0  0  0  0  0  0  0  0  0  0  0
   13.8157  -19.3045   25.1268 C   0  0  0  0  0  0  0  0  0  0  0  0
   12.4528  -19.1404   24.7259 O   0  0  0  0  0  0  0  0  0  0  0  0
   12.2410  -19.0560   23.4981 C   0  0  0  0  0  0  0  0  0  0  0  0
   11.4124  -19.0813   25.7521 C   0  0  0  0  0  0  0  0  0  0  0  0
   10.7001  -17.7900   25.9004 C   0  0  1  0  0  0  0  0  0  0  0  0
    9.6403  -17.8353   26.9424 N   0  0  0  0  0  0  0  0  0  0  0  0
    8.9778  -16.5309   27.0604 C   0  0  0  0  0  0  0  0  0  0  0  0
   10.0726  -18.3276   28.2576 O   0  0  0  0  0  0  0  0  0  0  0  0
    9.8452  -19.6431   28.5864 O   0  0  0  0  0  0  0  0  0  0  0  0
  2  1  1  0
  3  2  2  0
  4  2  1  0
  5  6  1  0
  5  4  1  0
  7  6  1  0
  8  7  1  0
  8  9  1  6
 10 11  2  0
 10  8  1  0
 12 10  1  0
 13 12  1  0
 14 15  1  0
 13 14  1  6
 16 13  1  0
 16 24  1  0
 17 16  2  0
 19 18  1  0
 19 20  2  0
 21 19  1  0
 22 21  1  0
 23 24  1  0
 23 22  1  6
 25 23  1  0
 26 25  1  0
 27 25  2  0
M  END
$$$$
