RCQ.pdb
     RDKit          3D

 27 26  0  0  1  0  0  0  0  0999 V2000
    9.3902  -13.5565   17.5586 N   0  0  0  0  0  0  0  0  0  0  0  0
    8.2285  -13.9785   16.8591 C   0  0  0  0  0  0  0  0  0  0  0  0
    8.1632  -13.9522   15.5894 N   0  0  0  0  0  0  0  0  0  0  0  0
    7.1212  -14.4414   17.6261 N   0  0  0  0  0  0  0  0  0  0  0  0
    7.1924  -14.5914   19.0667 C   0  0  0  0  0  0  0  0  0  0  0  0
    8.2377  -15.6241   19.3425 C   0  0  0  0  0  0  0  0  0  0  0  0
    8.8613  -15.6074   20.6769 C   0  0  0  0  0  0  0  0  0  0  0  0
    7.9979  -15.9234   21.8493 C   0  0  2  0  0  0  0  0  0  0  0  0
    6.5852  -15.9055   21.5708 N   0  0  0  0  0  0  0  0  0  0  0  0
    8.3249  -15.0888   23.0483 C   0  0  0  0  0  0  0  0  0  0  0  0
    9.5396  -14.9136   23.3230 O   0  0  0  0  0  0  0  0  0  0  0  0
    7.3269  -14.2692   15.0956 N   0  0  0  0  0  0  0  0  0  0  0  0
    7.3707  -14.4934   23.8791 C   0  0  1  0  0  0  0  0  0  0  0  0
    7.6863  -13.7592   25.1018 C   0  0  0  0  0  0  0  0  0  0  0  0
    6.4346  -12.8922   25.3296 S   0  0  0  0  0  0  0  0  0  0  0  0
    6.4982  -12.0062   26.8745 C   0  0  0  0  0  0  0  0  0  0  0  0
    7.9456  -14.6752   26.2262 O   0  0  0  0  0  0  0  0  0  0  0  0
    7.2585  -15.7182   26.3398 N   0  0  0  0  0  0  0  0  0  0  0  0
   10.5230  -18.7943   25.9190 C   0  0  0  0  0  0  0  0  0  0  0  0
   11.2668  -18.5988   27.1247 O   0  0  0  0  0  0  0  0  0  0  0  0
   11.8242  -19.6083   27.6037 C   0  0  0  0  0  0  0  0  0  0  0  0
   11.3288  -17.2609   27.7124 C   0  0  0  0  0  0  0  0  0  0  0  0
   10.5790  -16.1928   27.0096 C   0  0  2  0  0  0  0  0  0  0  0  0
    9.6753  -15.4348   27.9151 N   0  0  0  0  0  0  0  0  0  0  0  0
    8.9476  -14.4011   27.1693 C   0  0  0  0  0  0  0  0  0  0  0  0
   10.3141  -14.8698   29.1116 O   0  0  0  0  0  0  0  0  0  0  0  0
   10.6659  -15.7104   30.1411 O   0  0  0  0  0  0  0  0  0  0  0  0
  2  1  1  0
  3  2  2  0
  4  2  1  0
  5  6  1  0
  5  4  1  0
  7  6  1  0
  8  7  1  0
  8  9  1  6
 10 11  2  0
 10  8  1  0
 12 10  1  0
 13 12  1  0
 14 15  1  0
 13 14  1  1
 16 13  1  0
 16 24  1  0
 17 16  2  0
 19 18  1  0
 19 20  2  0
 21 19  1  0
 22 21  1  0
 23 24  1  0
 23 22  1  6
 25 23  1  0
 26 25  1  0
 27 25  2  0
M  END
$$$$
