RCQ.pdb
     RDKit          3D

 27 26  0  0  1  0  0  0  0  0999 V2000
    8.0586  -12.8237   20.0780 N   0  0  0  0  0  0  0  0  0  0  0  0
    8.7522  -13.2852   18.9278 C   0  0  0  0  0  0  0  0  0  0  0  0
    9.7273  -12.6397   18.4284 N   0  0  0  0  0  0  0  0  0  0  0  0
    8.3238  -14.5092   18.3390 N   0  0  0  0  0  0  0  0  0  0  0  0
    7.3931  -15.3993   19.0056 C   0  0  0  0  0  0  0  0  0  0  0  0
    8.1996  -16.5253   19.5683 C   0  0  0  0  0  0  0  0  0  0  0  0
    8.9688  -16.2520   20.7945 C   0  0  0  0  0  0  0  0  0  0  0  0
    8.3037  -16.5117   22.1021 C   0  0  2  0  0  0  0  0  0  0  0  0
    6.9054  -16.8413   22.0041 N   0  0  0  0  0  0  0  0  0  0  0  0
    8.5341  -15.4150   23.0947 C   0  0  0  0  0  0  0  0  0  0  0  0
    9.7174  -15.0268   23.2702 O   0  0  0  0  0  0  0  0  0  0  0  0
   10.2035  -12.9678   17.5861 N   0  0  0  0  0  0  0  0  0  0  0  0
    7.5227  -14.7964   23.8359 C   0  0  1  0  0  0  0  0  0  0  0  0
    7.7547  -13.9780   25.0234 C   0  0  0  0  0  0  0  0  0  0  0  0
    6.4695  -13.1375   25.1332 S   0  0  0  0  0  0  0  0  0  0  0  0
    6.4192  -12.1720   26.6301 C   0  0  0  0  0  0  0  0  0  0  0  0
    7.9812  -14.8137   26.2153 O   0  0  0  0  0  0  0  0  0  0  0  0
    7.3052  -15.8586   26.3704 N   0  0  0  0  0  0  0  0  0  0  0  0
   12.0396  -18.2341   25.7665 C   0  0  0  0  0  0  0  0  0  0  0  0
   12.0628  -18.2795   27.1957 O   0  0  0  0  0  0  0  0  0  0  0  0
   12.7907  -19.1527   27.7122 C   0  0  0  0  0  0  0  0  0  0  0  0
   11.2516  -17.3246   27.9502 C   0  0  0  0  0  0  0  0  0  0  0  0
   10.4500  -16.3631   27.1566 C   0  0  1  0  0  0  0  0  0  0  0  0
    9.6624  -15.4323   28.0077 N   0  0  0  0  0  0  0  0  0  0  0  0
    8.9400  -14.4614   27.1772 C   0  0  0  0  0  0  0  0  0  0  0  0
   10.4215  -14.7563   29.0688 O   0  0  0  0  0  0  0  0  0  0  0  0
   10.8172  -15.4775   30.1703 O   0  0  0  0  0  0  0  0  0  0  0  0
  2  1  1  0
  3  2  2  0
  4  2  1  0
  5  6  1  0
  5  4  1  0
  7  6  1  0
  8  7  1  0
  8  9  1  6
 10 11  2  0
 10  8  1  0
 12 10  1  0
 13 12  1  0
 14 15  1  0
 13 14  1  1
 16 13  1  0
 16 24  1  0
 17 16  2  0
 19 18  1  0
 19 20  2  0
 21 19  1  0
 22 21  1  0
 23 24  1  0
 23 22  1  6
 25 23  1  0
 26 25  1  0
 27 25  2  0
M  END
$$$$
