RCQ.pdb
     RDKit          3D

 27 26  0  0  1  0  0  0  0  0999 V2000
    9.5275  -14.0087   16.0948 N   0  0  0  0  0  0  0  0  0  0  0  0
    8.1962  -14.0212   15.6003 C   0  0  0  0  0  0  0  0  0  0  0  0
    7.9003  -14.5525   14.4835 N   0  0  0  0  0  0  0  0  0  0  0  0
    7.1839  -13.4166   16.3992 N   0  0  0  0  0  0  0  0  0  0  0  0
    7.4589  -12.8938   17.7236 C   0  0  0  0  0  0  0  0  0  0  0  0
    7.5711  -14.0711   18.6382 C   0  0  0  0  0  0  0  0  0  0  0  0
    8.8193  -14.2050   19.4089 C   0  0  0  0  0  0  0  0  0  0  0  0
    9.0353  -15.4714   20.1634 C   0  0  2  0  0  0  0  0  0  0  0  0
    8.0579  -16.4956   19.9004 N   0  0  0  0  0  0  0  0  0  0  0  0
    9.2023  -15.2457   21.6339 C   0  0  0  0  0  0  0  0  0  0  0  0
    9.9776  -14.3249   21.9980 O   0  0  0  0  0  0  0  0  0  0  0  0
    6.9467  -14.5206   14.1183 N   0  0  0  0  0  0  0  0  0  0  0  0
    8.5540  -15.9894   22.6248 C   0  0  1  0  0  0  0  0  0  0  0  0
    8.7310  -15.7806   24.0596 C   0  0  0  0  0  0  0  0  0  0  0  0
    7.2893  -15.7797   24.5998 S   0  0  0  0  0  0  0  0  0  0  0  0
    7.2183  -16.1704   26.3370 C   0  0  0  0  0  0  0  0  0  0  0  0
    9.5535  -16.8457   24.6595 O   0  0  0  0  0  0  0  0  0  0  0  0
    9.1117  -18.0191   24.6904 N   0  0  0  0  0  0  0  0  0  0  0  0
   10.0276  -13.7242   29.3268 C   0  0  0  0  0  0  0  0  0  0  0  0
   10.6707  -14.8979   29.8308 O   0  0  0  0  0  0  0  0  0  0  0  0
   10.8546  -14.9443   31.0650 C   0  0  0  0  0  0  0  0  0  0  0  0
   11.0665  -15.9492   28.8941 C   0  0  0  0  0  0  0  0  0  0  0  0
   10.8013  -15.6922   27.4586 C   0  0  1  0  0  0  0  0  0  0  0  0
   11.1962  -16.8317   26.5889 N   0  0  0  0  0  0  0  0  0  0  0  0
   10.8208  -16.5696   25.1944 C   0  0  0  0  0  0  0  0  0  0  0  0
   10.7166  -18.1505   27.0246 O   0  0  0  0  0  0  0  0  0  0  0  0
   11.5599  -18.9639   27.7440 O   0  0  0  0  0  0  0  0  0  0  0  0
  2  1  1  0
  3  2  2  0
  4  2  1  0
  5  6  1  0
  5  4  1  0
  7  6  1  0
  8  7  1  0
  8  9  1  1
 10 11  2  0
 10  8  1  0
 12 10  1  0
 13 12  1  0
 14 15  1  0
 13 14  1  1
 16 13  1  0
 16 24  1  0
 17 16  2  0
 19 18  1  0
 19 20  2  0
 21 19  1  0
 22 21  1  0
 23 24  1  0
 23 22  1  6
 25 23  1  0
 26 25  1  0
 27 25  2  0
M  END
$$$$
