TLF.pdb
     RDKit          3D

 27 27  0  0  1  0  0  0  0  0999 V2000
   11.2253  -20.0737   20.5156 C   0  0  0  0  0  0  0  0  0  0  0  0
   11.9952  -19.1758   19.5776 C   0  0  1  0  0  0  0  0  0  0  0  0
   12.4524  -19.9111   18.4855 O   0  0  0  0  0  0  0  0  0  0  0  0
   11.1790  -17.9841   19.1288 C   0  0  2  0  0  0  0  0  0  0  0  0
   11.9932  -17.2320   18.1925 N   0  0  0  0  0  0  0  0  0  0  0  0
   10.8806  -17.1364   20.3130 C   0  0  0  0  0  0  0  0  0  0  0  0
   11.8757  -16.6094   20.9169 O   0  0  0  0  0  0  0  0  0  0  0  0
    8.6327  -13.2167   20.6401 C   0  0  0  0  0  0  0  0  0  0  0  0
    7.6679  -14.3326   20.8847 C   0  0  2  0  0  0  0  0  0  0  0  0
    6.2360  -13.8352   21.0070 C   0  0  0  0  0  0  0  0  0  0  0  0
    8.0313  -15.3344   21.9000 C   0  0  0  0  0  0  0  0  0  0  0  0
    9.3188  -16.0235   21.8640 C   0  0  2  0  0  0  0  0  0  0  0  0
    9.5567  -16.9069   20.7729 N   0  0  0  0  0  0  0  0  0  0  0  0
    9.6744  -16.7133   23.1275 C   0  0  0  0  0  0  0  0  0  0  0  0
    9.5322  -17.9776   23.2557 O   0  0  0  0  0  0  0  0  0  0  0  0
   10.1914  -16.0281   24.2638 N   0  0  0  0  0  0  0  0  0  0  0  0
   10.7140  -16.7714   25.3905 C   0  0  1  0  0  0  0  0  0  0  0  0
   11.5271  -15.7993   26.2239 C   0  0  0  0  0  0  0  0  0  0  0  0
   10.6819  -14.9579   27.0919 C   0  0  0  0  0  0  0  0  0  0  0  0
    9.6624  -14.1510   26.6393 C   0  0  0  0  0  0  0  0  0  0  0  0
    8.8920  -13.3830   27.4653 C   0  0  0  0  0  0  0  0  0  0  0  0
    9.1356  -13.4037   28.8412 C   0  0  0  0  0  0  0  0  0  0  0  0
   10.1468  -14.1988   29.3273 C   0  0  0  0  0  0  0  0  0  0  0  0
   10.9026  -14.9586   28.4713 C   0  0  0  0  0  0  0  0  0  0  0  0
    9.6692  -17.4480   26.1582 C   0  0  0  0  0  0  0  0  0  0  0  0
    8.3473  -17.3184   25.7477 O   0  0  0  0  0  0  0  0  0  0  0  0
    9.8727  -18.1487   27.1765 O   0  0  0  0  0  0  0  0  0  0  0  0
  2  1  1  1
  2  4  1  0
  3  2  1  0
  4  5  1  6
  6  7  2  0
  6  4  1  0
  9 11  1  0
  9  8  1  1
 10  9  1  0
 12 11  1  1
 12 13  1  0
 13  6  1  0
 14 12  1  0
 15 14  2  0
 16 14  1  0
 17 16  1  0
 18 19  1  0
 17 18  1  1
 19 24  2  0
 20 21  2  0
 20 19  1  0
 21 22  1  0
 22 23  2  0
 24 23  1  0
 25 17  1  0
 25 26  1  0
 27 25  2  0
M  END
$$$$
