TLF.pdb
     RDKit          3D

 27 27  0  0  1  0  0  0  0  0999 V2000
    8.0978  -20.9059   20.7927 C   0  0  0  0  0  0  0  0  0  0  0  0
    8.6755  -19.5772   21.2166 C   0  0  1  0  0  0  0  0  0  0  0  0
    9.9184  -19.7701   21.8169 O   0  0  0  0  0  0  0  0  0  0  0  0
    8.7723  -18.6023   20.0643 C   0  0  2  0  0  0  0  0  0  0  0  0
    9.6443  -19.1972   19.0687 N   0  0  0  0  0  0  0  0  0  0  0  0
    9.3790  -17.3382   20.5578 C   0  0  0  0  0  0  0  0  0  0  0  0
   10.6061  -17.1300   20.2684 O   0  0  0  0  0  0  0  0  0  0  0  0
    8.7459  -13.1299   19.2400 C   0  0  0  0  0  0  0  0  0  0  0  0
    7.8098  -13.5017   20.3452 C   0  0  2  0  0  0  0  0  0  0  0  0
    6.6995  -12.4782   20.5238 C   0  0  0  0  0  0  0  0  0  0  0  0
    8.4027  -13.9540   21.6141 C   0  0  0  0  0  0  0  0  0  0  0  0
    9.2447  -15.1459   21.6799 C   0  0  2  0  0  0  0  0  0  0  0  0
    8.6485  -16.3877   21.3192 N   0  0  0  0  0  0  0  0  0  0  0  0
    9.9622  -15.3128   22.9668 C   0  0  0  0  0  0  0  0  0  0  0  0
   10.7277  -14.3958   23.4231 O   0  0  0  0  0  0  0  0  0  0  0  0
    9.8485  -16.4835   23.7696 N   0  0  0  0  0  0  0  0  0  0  0  0
   10.4349  -16.5227   25.0924 C   0  0  1  0  0  0  0  0  0  0  0  0
    9.2894  -16.4890   26.0860 C   0  0  0  0  0  0  0  0  0  0  0  0
    9.0319  -15.1316   26.6027 C   0  0  0  0  0  0  0  0  0  0  0  0
    7.9539  -14.3541   26.2440 C   0  0  0  0  0  0  0  0  0  0  0  0
    7.7367  -13.1000   26.7396 C   0  0  0  0  0  0  0  0  0  0  0  0
    8.6429  -12.5621   27.6575 C   0  0  0  0  0  0  0  0  0  0  0  0
    9.7311  -13.3118   28.0376 C   0  0  0  0  0  0  0  0  0  0  0  0
    9.9208  -14.5684   27.5213 C   0  0  0  0  0  0  0  0  0  0  0  0
   11.3257  -17.6664   25.2850 C   0  0  0  0  0  0  0  0  0  0  0  0
   11.4927  -18.5677   24.2397 O   0  0  0  0  0  0  0  0  0  0  0  0
   11.9630  -17.9051   26.3367 O   0  0  0  0  0  0  0  0  0  0  0  0
  2  1  1  6
  2  4  1  0
  3  2  1  0
  4  5  1  6
  6  7  2  0
  6  4  1  0
  9 11  1  0
  9  8  1  6
 10  9  1  0
 12 11  1  1
 12 13  1  0
 13  6  1  0
 14 12  1  0
 15 14  2  0
 16 14  1  0
 17 16  1  0
 18 19  1  0
 17 18  1  1
 19 24  2  0
 20 21  2  0
 20 19  1  0
 21 22  1  0
 22 23  2  0
 24 23  1  0
 25 17  1  0
 25 26  1  0
 27 25  2  0
M  END
$$$$
