TLF.pdb
     RDKit          3D

 27 27  0  0  1  0  0  0  0  0999 V2000
    9.7751  -21.0619   19.2619 C   0  0  0  0  0  0  0  0  0  0  0  0
    9.9528  -19.7955   20.0641 C   0  0  1  0  0  0  0  0  0  0  0  0
   11.0921  -19.8946   20.8607 O   0  0  0  0  0  0  0  0  0  0  0  0
   10.0072  -18.5655   19.1857 C   0  0  2  0  0  0  0  0  0  0  0  0
   11.1892  -18.6830   18.3524 N   0  0  0  0  0  0  0  0  0  0  0  0
   10.1336  -17.3646   20.0528 C   0  0  0  0  0  0  0  0  0  0  0  0
   11.3163  -16.9594   20.3167 O   0  0  0  0  0  0  0  0  0  0  0  0
    8.7940  -12.8265   19.6625 C   0  0  0  0  0  0  0  0  0  0  0  0
    7.7541  -13.7587   20.1970 C   0  0  2  0  0  0  0  0  0  0  0  0
    6.3822  -13.1063   20.2675 C   0  0  0  0  0  0  0  0  0  0  0  0
    8.0954  -14.5417   21.3956 C   0  0  0  0  0  0  0  0  0  0  0  0
    9.1804  -15.5196   21.3836 C   0  0  2  0  0  0  0  0  0  0  0  0
    9.0052  -16.6802   20.5773 N   0  0  0  0  0  0  0  0  0  0  0  0
    9.6391  -15.9350   22.7311 C   0  0  0  0  0  0  0  0  0  0  0  0
    9.0882  -16.9103   23.3478 O   0  0  0  0  0  0  0  0  0  0  0  0
   10.7068  -15.2897   23.4177 N   0  0  0  0  0  0  0  0  0  0  0  0
   10.8992  -15.5038   24.8363 C   0  0  1  0  0  0  0  0  0  0  0  0
    9.6816  -14.9348   25.5394 C   0  0  0  0  0  0  0  0  0  0  0  0
    9.8902  -14.7822   26.9916 C   0  0  0  0  0  0  0  0  0  0  0  0
   10.0482  -15.8309   27.8694 C   0  0  0  0  0  0  0  0  0  0  0  0
   10.2429  -15.6622   29.2108 C   0  0  0  0  0  0  0  0  0  0  0  0
   10.2867  -14.3684   29.7371 C   0  0  0  0  0  0  0  0  0  0  0  0
   10.1323  -13.2977   28.8883 C   0  0  0  0  0  0  0  0  0  0  0  0
    9.9384  -13.5007   27.5457 C   0  0  0  0  0  0  0  0  0  0  0  0
   11.1495  -16.9054   25.1702 C   0  0  0  0  0  0  0  0  0  0  0  0
   12.2636  -17.2211   25.9394 O   0  0  0  0  0  0  0  0  0  0  0  0
   10.4272  -17.8641   24.8118 O   0  0  0  0  0  0  0  0  0  0  0  0
  2  1  1  6
  2  4  1  0
  3  2  1  0
  4  5  1  6
  6  7  2  0
  6  4  1  0
  9 11  1  0
  9  8  1  1
 10  9  1  0
 12 11  1  1
 12 13  1  0
 13  6  1  0
 14 12  1  0
 15 14  2  0
 16 14  1  0
 17 16  1  0
 18 19  1  0
 17 18  1  1
 19 24  2  0
 20 21  2  0
 20 19  1  0
 21 22  1  0
 22 23  2  0
 24 23  1  0
 25 17  1  0
 25 26  1  0
 27 25  2  0
M  END
$$$$
