TLF.pdb
     RDKit          3D

 27 27  0  0  1  0  0  0  0  0999 V2000
   11.6168  -20.0403   19.3256 C   0  0  0  0  0  0  0  0  0  0  0  0
   11.1520  -19.0618   20.3770 C   0  0  1  0  0  0  0  0  0  0  0  0
   11.7953  -19.3228   21.5854 O   0  0  0  0  0  0  0  0  0  0  0  0
   11.3558  -17.6250   19.9504 C   0  0  2  0  0  0  0  0  0  0  0  0
   12.7863  -17.3847   19.9153 N   0  0  0  0  0  0  0  0  0  0  0  0
   10.7315  -16.7332   20.9627 C   0  0  0  0  0  0  0  0  0  0  0  0
   11.4949  -16.2614   21.8722 O   0  0  0  0  0  0  0  0  0  0  0  0
    8.7786  -12.6404   20.4172 C   0  0  0  0  0  0  0  0  0  0  0  0
    7.7726  -13.7427   20.3231 C   0  0  2  0  0  0  0  0  0  0  0  0
    6.4234  -13.2458   19.8279 C   0  0  0  0  0  0  0  0  0  0  0  0
    7.6759  -14.6729   21.4597 C   0  0  0  0  0  0  0  0  0  0  0  0
    8.8177  -15.4792   21.8838 C   0  0  2  0  0  0  0  0  0  0  0  0
    9.3500  -16.4047   20.9416 N   0  0  0  0  0  0  0  0  0  0  0  0
    8.6248  -16.1710   23.1810 C   0  0  0  0  0  0  0  0  0  0  0  0
    8.5226  -17.4440   23.2451 O   0  0  0  0  0  0  0  0  0  0  0  0
    8.5437  -15.4782   24.4226 N   0  0  0  0  0  0  0  0  0  0  0  0
    8.3483  -16.2093   25.6564 C   0  0  1  0  0  0  0  0  0  0  0  0
    8.5661  -15.2280   26.7922 C   0  0  0  0  0  0  0  0  0  0  0  0
    7.7593  -14.0025   26.6400 C   0  0  0  0  0  0  0  0  0  0  0  0
    6.3983  -13.9376   26.8367 C   0  0  0  0  0  0  0  0  0  0  0  0
    5.6744  -12.7884   26.6918 C   0  0  0  0  0  0  0  0  0  0  0  0
    6.3302  -11.6097   26.3261 C   0  0  0  0  0  0  0  0  0  0  0  0
    7.6896  -11.6390   26.1217 C   0  0  0  0  0  0  0  0  0  0  0  0
    8.3879  -12.8096   26.2753 C   0  0  0  0  0  0  0  0  0  0  0  0
    7.0497  -16.8789   25.7202 C   0  0  0  0  0  0  0  0  0  0  0  0
    6.7922  -17.7394   26.7812 O   0  0  0  0  0  0  0  0  0  0  0  0
    6.1321  -16.7375   24.8791 O   0  0  0  0  0  0  0  0  0  0  0  0
  2  1  1  6
  2  4  1  0
  3  2  1  0
  4  5  1  1
  6  7  2  0
  6  4  1  0
  9 11  1  0
  9  8  1  1
 10  9  1  0
 12 11  1  6
 12 13  1  0
 13  6  1  0
 14 12  1  0
 15 14  2  0
 16 14  1  0
 17 16  1  0
 18 19  1  0
 17 18  1  1
 19 24  2  0
 20 21  2  0
 20 19  1  0
 21 22  1  0
 22 23  2  0
 24 23  1  0
 25 17  1  0
 25 26  1  0
 27 25  2  0
M  END
$$$$
