TLF.pdb
     RDKit          3D

 27 27  0  0  1  0  0  0  0  0999 V2000
   11.1516  -20.1833   18.2832 C   0  0  0  0  0  0  0  0  0  0  0  0
   11.0688  -19.2392   19.4583 C   0  0  1  0  0  0  0  0  0  0  0  0
   12.1089  -19.4982   20.3491 O   0  0  0  0  0  0  0  0  0  0  0  0
   11.0686  -17.7894   19.0276 C   0  0  2  0  0  0  0  0  0  0  0  0
   12.3893  -17.4952   18.5037 N   0  0  0  0  0  0  0  0  0  0  0  0
   10.8103  -16.9375   20.2182 C   0  0  0  0  0  0  0  0  0  0  0  0
   11.8233  -16.3915   20.7736 O   0  0  0  0  0  0  0  0  0  0  0  0
    8.4587  -13.0282   20.6243 C   0  0  0  0  0  0  0  0  0  0  0  0
    7.5827  -14.2113   20.8870 C   0  0  2  0  0  0  0  0  0  0  0  0
    6.1156  -13.8252   20.9926 C   0  0  0  0  0  0  0  0  0  0  0  0
    8.0171  -15.1612   21.9239 C   0  0  0  0  0  0  0  0  0  0  0  0
    9.3041  -15.8468   21.8383 C   0  0  2  0  0  0  0  0  0  0  0  0
    9.5049  -16.7242   20.7350 N   0  0  0  0  0  0  0  0  0  0  0  0
    9.7063  -16.5419   23.0848 C   0  0  0  0  0  0  0  0  0  0  0  0
    9.5219  -17.7986   23.2326 O   0  0  0  0  0  0  0  0  0  0  0  0
   10.3168  -15.8706   24.1824 N   0  0  0  0  0  0  0  0  0  0  0  0
   10.8356  -16.6246   25.3037 C   0  0  1  0  0  0  0  0  0  0  0  0
   11.6401  -15.6590   26.1527 C   0  0  0  0  0  0  0  0  0  0  0  0
   10.7862  -14.8259   27.0203 C   0  0  0  0  0  0  0  0  0  0  0  0
    9.8839  -13.8936   26.5599 C   0  0  0  0  0  0  0  0  0  0  0  0
    9.1023  -13.1363   27.3852 C   0  0  0  0  0  0  0  0  0  0  0  0
    9.2096  -13.3014   28.7687 C   0  0  0  0  0  0  0  0  0  0  0  0
   10.1014  -14.2243   29.2628 C   0  0  0  0  0  0  0  0  0  0  0  0
   10.8721  -14.9695   28.4072 C   0  0  0  0  0  0  0  0  0  0  0  0
    9.7890  -17.3138   26.0576 C   0  0  0  0  0  0  0  0  0  0  0  0
    8.4625  -17.1231   25.6878 O   0  0  0  0  0  0  0  0  0  0  0  0
    9.9947  -18.0771   27.0293 O   0  0  0  0  0  0  0  0  0  0  0  0
  2  1  1  6
  2  4  1  0
  3  2  1  0
  4  5  1  1
  6  7  2  0
  6  4  1  0
  9 11  1  0
  9  8  1  1
 10  9  1  0
 12 11  1  1
 12 13  1  0
 13  6  1  0
 14 12  1  0
 15 14  2  0
 16 14  1  0
 17 16  1  0
 18 19  1  0
 17 18  1  1
 19 24  2  0
 20 21  2  0
 20 19  1  0
 21 22  1  0
 22 23  2  0
 24 23  1  0
 25 17  1  0
 25 26  1  0
 27 25  2  0
M  END
$$$$
