TLF.pdb
     RDKit          3D

 27 27  0  0  1  0  0  0  0  0999 V2000
    6.0872  -20.4432   21.3031 C   0  0  0  0  0  0  0  0  0  0  0  0
    7.0542  -19.3468   21.6793 C   0  0  1  0  0  0  0  0  0  0  0  0
    8.1179  -19.8807   22.4044 O   0  0  0  0  0  0  0  0  0  0  0  0
    7.5475  -18.5809   20.4720 C   0  0  2  0  0  0  0  0  0  0  0  0
    8.3051  -19.5087   19.6531 N   0  0  0  0  0  0  0  0  0  0  0  0
    8.4427  -17.4873   20.9332 C   0  0  0  0  0  0  0  0  0  0  0  0
    9.7009  -17.6780   20.8185 O   0  0  0  0  0  0  0  0  0  0  0  0
    8.7612  -13.8483   18.9582 C   0  0  0  0  0  0  0  0  0  0  0  0
    7.9157  -13.5648   20.1584 C   0  0  2  0  0  0  0  0  0  0  0  0
    7.2563  -12.1965   20.0840 C   0  0  0  0  0  0  0  0  0  0  0  0
    8.4874  -13.8712   21.4797 C   0  0  0  0  0  0  0  0  0  0  0  0
    8.8445  -15.2362   21.8575 C   0  0  2  0  0  0  0  0  0  0  0  0
    7.9461  -16.2747   21.4808 N   0  0  0  0  0  0  0  0  0  0  0  0
    9.1940  -15.3987   23.2894 C   0  0  0  0  0  0  0  0  0  0  0  0
   10.1643  -14.7511   23.8129 O   0  0  0  0  0  0  0  0  0  0  0  0
    8.4846  -16.2697   24.1647 N   0  0  0  0  0  0  0  0  0  0  0  0
    8.8588  -16.3682   25.5595 C   0  0  1  0  0  0  0  0  0  0  0  0
    7.6186  -16.0542   26.3742 C   0  0  0  0  0  0  0  0  0  0  0  0
    7.2331  -14.6330   26.2879 C   0  0  0  0  0  0  0  0  0  0  0  0
    6.0793  -14.1746   25.6931 C   0  0  0  0  0  0  0  0  0  0  0  0
    5.7440  -12.8521   25.6289 C   0  0  0  0  0  0  0  0  0  0  0  0
    6.6022  -11.9020   26.1890 C   0  0  0  0  0  0  0  0  0  0  0  0
    7.7636  -12.3254   26.7912 C   0  0  0  0  0  0  0  0  0  0  0  0
    8.0716  -13.6612   26.8391 C   0  0  0  0  0  0  0  0  0  0  0  0
    9.4534  -17.6608   25.8979 C   0  0  0  0  0  0  0  0  0  0  0  0
    9.9772  -17.8428   27.1727 O   0  0  0  0  0  0  0  0  0  0  0  0
    9.5310  -18.6368   25.1165 O   0  0  0  0  0  0  0  0  0  0  0  0
  2  1  1  6
  2  4  1  0
  3  2  1  0
  4  5  1  6
  6  7  2  0
  6  4  1  0
  9 11  1  0
  9  8  1  6
 10  9  1  0
 12 11  1  1
 12 13  1  0
 13  6  1  0
 14 12  1  0
 15 14  2  0
 16 14  1  0
 17 16  1  0
 18 19  1  0
 17 18  1  1
 19 24  2  0
 20 21  2  0
 20 19  1  0
 21 22  1  0
 22 23  2  0
 24 23  1  0
 25 17  1  0
 25 26  1  0
 27 25  2  0
M  END
$$$$
