TLF.pdb
     RDKit          3D

 27 27  0  0  1  0  0  0  0  0999 V2000
   11.0206  -20.3634   19.0513 C   0  0  0  0  0  0  0  0  0  0  0  0
   10.6726  -19.2697   20.0318 C   0  0  1  0  0  0  0  0  0  0  0  0
   11.3014  -19.5091   21.2523 O   0  0  0  0  0  0  0  0  0  0  0  0
   11.0174  -17.8958   19.5015 C   0  0  2  0  0  0  0  0  0  0  0  0
   12.4639  -17.8145   19.4236 N   0  0  0  0  0  0  0  0  0  0  0  0
   10.5178  -16.8749   20.4596 C   0  0  0  0  0  0  0  0  0  0  0  0
   11.3652  -16.3824   21.2794 O   0  0  0  0  0  0  0  0  0  0  0  0
    6.6789  -12.7035   19.7208 C   0  0  0  0  0  0  0  0  0  0  0  0
    7.8097  -13.3023   20.4945 C   0  0  2  0  0  0  0  0  0  0  0  0
    9.1395  -13.1546   19.7719 C   0  0  0  0  0  0  0  0  0  0  0  0
    7.6019  -14.6379   21.0771 C   0  0  0  0  0  0  0  0  0  0  0  0
    8.7280  -15.4927   21.4443 C   0  0  2  0  0  0  0  0  0  0  0  0
    9.1633  -16.4487   20.4829 N   0  0  0  0  0  0  0  0  0  0  0  0
    8.5776  -16.1654   22.7572 C   0  0  0  0  0  0  0  0  0  0  0  0
    8.3460  -17.4204   22.8368 O   0  0  0  0  0  0  0  0  0  0  0  0
    8.6809  -15.4730   23.9974 N   0  0  0  0  0  0  0  0  0  0  0  0
    8.4237  -16.1629   25.2435 C   0  0  1  0  0  0  0  0  0  0  0  0
    8.6363  -15.1573   26.3588 C   0  0  0  0  0  0  0  0  0  0  0  0
    7.7114  -14.0118   26.2681 C   0  0  0  0  0  0  0  0  0  0  0  0
    6.4050  -14.0304   26.7019 C   0  0  0  0  0  0  0  0  0  0  0  0
    5.5693  -12.9541   26.6088 C   0  0  0  0  0  0  0  0  0  0  0  0
    6.0457  -11.7660   26.0481 C   0  0  0  0  0  0  0  0  0  0  0  0
    7.3461  -11.7128   25.6043 C   0  0  0  0  0  0  0  0  0  0  0  0
    8.1602  -12.8115   25.7122 C   0  0  0  0  0  0  0  0  0  0  0  0
    7.1032  -16.7903   25.2832 C   0  0  0  0  0  0  0  0  0  0  0  0
    6.8187  -17.6857   26.3078 O   0  0  0  0  0  0  0  0  0  0  0  0
    6.1895  -16.5826   24.4518 O   0  0  0  0  0  0  0  0  0  0  0  0
  2  1  1  6
  2  4  1  0
  3  2  1  0
  4  5  1  1
  6  7  2  0
  6  4  1  0
  9 11  1  0
  9  8  1  6
 10  9  1  0
 12 11  1  6
 12 13  1  0
 13  6  1  0
 14 12  1  0
 15 14  2  0
 16 14  1  0
 17 16  1  0
 18 19  1  0
 17 18  1  1
 19 24  2  0
 20 21  2  0
 20 19  1  0
 21 22  1  0
 22 23  2  0
 24 23  1  0
 25 17  1  0
 25 26  1  0
 27 25  2  0
M  END
$$$$
