TLF.pdb
     RDKit          3D

 27 27  0  0  1  0  0  0  0  0999 V2000
   14.1099  -17.2058   19.0049 C   0  0  0  0  0  0  0  0  0  0  0  0
   13.1408  -16.7351   20.0623 C   0  0  1  0  0  0  0  0  0  0  0  0
   13.7355  -16.8151   21.3201 O   0  0  0  0  0  0  0  0  0  0  0  0
   12.6306  -15.3378   19.7885 C   0  0  2  0  0  0  0  0  0  0  0  0
   13.7635  -14.4373   19.8927 N   0  0  0  0  0  0  0  0  0  0  0  0
   11.6246  -14.9852   20.8246 C   0  0  0  0  0  0  0  0  0  0  0  0
   11.9983  -14.1883   21.7510 O   0  0  0  0  0  0  0  0  0  0  0  0
    8.1119  -12.4890   20.4917 C   0  0  0  0  0  0  0  0  0  0  0  0
    7.6618  -13.9020   20.2999 C   0  0  2  0  0  0  0  0  0  0  0  0
    6.2208  -13.9839   19.8209 C   0  0  0  0  0  0  0  0  0  0  0  0
    7.9841  -14.8677   21.3629 C   0  0  0  0  0  0  0  0  0  0  0  0
    9.3606  -15.0913   21.7975 C   0  0  2  0  0  0  0  0  0  0  0  0
   10.3004  -15.4980   20.8080 N   0  0  0  0  0  0  0  0  0  0  0  0
    9.4886  -15.9812   22.9767 C   0  0  0  0  0  0  0  0  0  0  0  0
   10.2895  -16.9780   22.9716 O   0  0  0  0  0  0  0  0  0  0  0  0
    8.7436  -15.7893   24.1751 N   0  0  0  0  0  0  0  0  0  0  0  0
    8.7567  -16.7975   25.2136 C   0  0  1  0  0  0  0  0  0  0  0  0
    8.1947  -16.1515   26.4654 C   0  0  0  0  0  0  0  0  0  0  0  0
    9.0225  -15.0260   26.9385 C   0  0  0  0  0  0  0  0  0  0  0  0
    8.7906  -13.7051   26.6276 C   0  0  0  0  0  0  0  0  0  0  0  0
    9.5715  -12.6805   27.0813 C   0  0  0  0  0  0  0  0  0  0  0  0
   10.6649  -12.9672   27.9031 C   0  0  0  0  0  0  0  0  0  0  0  0
   10.9254  -14.2764   28.2334 C   0  0  0  0  0  0  0  0  0  0  0  0
   10.1218  -15.2828   27.7613 C   0  0  0  0  0  0  0  0  0  0  0  0
    8.0456  -18.0167   24.8305 C   0  0  0  0  0  0  0  0  0  0  0  0
    7.3301  -18.0272   23.6385 O   0  0  0  0  0  0  0  0  0  0  0  0
    8.0282  -19.0735   25.5028 O   0  0  0  0  0  0  0  0  0  0  0  0
  2  1  1  6
  2  4  1  0
  3  2  1  0
  4  5  1  1
  6  7  2  0
  6  4  1  0
  9 11  1  0
  9  8  1  1
 10  9  1  0
 12 11  1  6
 12 13  1  0
 13  6  1  0
 14 12  1  0
 15 14  2  0
 16 14  1  0
 17 16  1  0
 18 19  1  0
 17 18  1  1
 19 24  2  0
 20 21  2  0
 20 19  1  0
 21 22  1  0
 22 23  2  0
 24 23  1  0
 25 17  1  0
 25 26  1  0
 27 25  2  0
M  END
$$$$
