TLF.pdb
     RDKit          3D

 27 27  0  0  1  0  0  0  0  0999 V2000
    7.8216  -19.2245   19.3596 C   0  0  0  0  0  0  0  0  0  0  0  0
    8.2641  -18.4001   20.5442 C   0  0  1  0  0  0  0  0  0  0  0  0
    9.4513  -18.9139   21.0628 O   0  0  0  0  0  0  0  0  0  0  0  0
    8.4097  -16.9349   20.1983 C   0  0  2  0  0  0  0  0  0  0  0  0
    9.5067  -16.8217   19.2553 N   0  0  0  0  0  0  0  0  0  0  0  0
    8.7449  -16.1830   21.4361 C   0  0  0  0  0  0  0  0  0  0  0  0
    9.9836  -15.9831   21.6779 O   0  0  0  0  0  0  0  0  0  0  0  0
    6.2587  -13.0954   26.2882 C   0  0  0  0  0  0  0  0  0  0  0  0
    7.3748  -13.3473   25.3255 C   0  0  2  0  0  0  0  0  0  0  0  0
    8.1446  -12.0778   24.9964 C   0  0  0  0  0  0  0  0  0  0  0  0
    7.0808  -14.1791   24.1474 C   0  0  0  0  0  0  0  0  0  0  0  0
    8.1241  -14.9574   23.4845 C   0  0  2  0  0  0  0  0  0  0  0  0
    7.7510  -15.6978   22.3268 N   0  0  0  0  0  0  0  0  0  0  0  0
    8.8929  -15.8414   24.3934 C   0  0  0  0  0  0  0  0  0  0  0  0
    8.3899  -16.9266   24.8455 O   0  0  0  0  0  0  0  0  0  0  0  0
   10.2212  -15.5494   24.8158 N   0  0  0  0  0  0  0  0  0  0  0  0
   10.9396  -16.4771   25.6632 C   0  0  1  0  0  0  0  0  0  0  0  0
   10.0336  -16.7984   26.8365 C   0  0  0  0  0  0  0  0  0  0  0  0
   10.0140  -15.7213   27.8442 C   0  0  0  0  0  0  0  0  0  0  0  0
   10.8383  -15.6713   28.9456 C   0  0  0  0  0  0  0  0  0  0  0  0
   10.8019  -14.6603   29.8633 C   0  0  0  0  0  0  0  0  0  0  0  0
    9.8892  -13.6158   29.6928 C   0  0  0  0  0  0  0  0  0  0  0  0
    9.0505  -13.6344   28.6032 C   0  0  0  0  0  0  0  0  0  0  0  0
    9.1121  -14.6645   27.6995 C   0  0  0  0  0  0  0  0  0  0  0  0
   11.3907  -17.6690   24.9458 C   0  0  0  0  0  0  0  0  0  0  0  0
   10.6176  -18.1501   23.8954 O   0  0  0  0  0  0  0  0  0  0  0  0
   12.4382  -18.3048   25.2065 O   0  0  0  0  0  0  0  0  0  0  0  0
  2  1  1  6
  2  4  1  0
  3  2  1  0
  4  5  1  6
  6  7  2  0
  6  4  1  0
  9 11  1  0
  9  8  1  6
 10  9  1  0
 12 11  1  1
 12 13  1  0
 13  6  1  0
 14 12  1  0
 15 14  2  0
 16 14  1  0
 17 16  1  0
 18 19  1  0
 17 18  1  1
 19 24  2  0
 20 21  2  0
 20 19  1  0
 21 22  1  0
 22 23  2  0
 24 23  1  0
 25 17  1  0
 25 26  1  0
 27 25  2  0
M  END
$$$$
