TLF.pdb
     RDKit          3D

 27 27  0  0  1  0  0  0  0  0999 V2000
    5.0928  -20.4551   23.4281 C   0  0  0  0  0  0  0  0  0  0  0  0
    6.0525  -19.3184   23.1719 C   0  0  1  0  0  0  0  0  0  0  0  0
    7.2552  -19.5542   23.8354 O   0  0  0  0  0  0  0  0  0  0  0  0
    6.2815  -19.0856   21.6950 C   0  0  2  0  0  0  0  0  0  0  0  0
    6.8736  -20.2952   21.1549 N   0  0  0  0  0  0  0  0  0  0  0  0
    7.2338  -17.9559   21.5316 C   0  0  0  0  0  0  0  0  0  0  0  0
    8.4507  -18.2528   21.2793 O   0  0  0  0  0  0  0  0  0  0  0  0
    7.6660  -11.8064   20.4992 C   0  0  0  0  0  0  0  0  0  0  0  0
    8.2123  -13.1957   20.5845 C   0  0  2  0  0  0  0  0  0  0  0  0
    9.0442  -13.5597   19.3647 C   0  0  0  0  0  0  0  0  0  0  0  0
    7.2915  -14.2628   21.0082 C   0  0  0  0  0  0  0  0  0  0  0  0
    7.7865  -15.5527   21.4825 C   0  0  2  0  0  0  0  0  0  0  0  0
    6.8336  -16.5982   21.6460 N   0  0  0  0  0  0  0  0  0  0  0  0
    8.6243  -15.4706   22.7031 C   0  0  0  0  0  0  0  0  0  0  0  0
    9.6995  -14.7788   22.7243 O   0  0  0  0  0  0  0  0  0  0  0  0
    8.2942  -16.1425   23.9146 N   0  0  0  0  0  0  0  0  0  0  0  0
    9.0672  -15.9068   25.1154 C   0  0  1  0  0  0  0  0  0  0  0  0
    8.0774  -15.6896   26.2440 C   0  0  0  0  0  0  0  0  0  0  0  0
    7.5543  -14.3108   26.2767 C   0  0  0  0  0  0  0  0  0  0  0  0
    6.2351  -13.9741   26.0725 C   0  0  0  0  0  0  0  0  0  0  0  0
    5.7756  -12.6884   26.1109 C   0  0  0  0  0  0  0  0  0  0  0  0
    6.6739  -11.6494   26.3687 C   0  0  0  0  0  0  0  0  0  0  0  0
    7.9994  -11.9505   26.5772 C   0  0  0  0  0  0  0  0  0  0  0  0
    8.4292  -13.2522   26.5320 C   0  0  0  0  0  0  0  0  0  0  0  0
   10.0255  -16.9760   25.3930 C   0  0  0  0  0  0  0  0  0  0  0  0
   10.9092  -16.8232   26.4552 O   0  0  0  0  0  0  0  0  0  0  0  0
   10.1169  -18.0399   24.7378 O   0  0  0  0  0  0  0  0  0  0  0  0
  2  1  1  6
  2  4  1  0
  3  2  1  0
  4  5  1  1
  6  7  2  0
  6  4  1  0
  9 11  1  0
  9  8  1  6
 10  9  1  0
 12 11  1  1
 12 13  1  0
 13  6  1  0
 14 12  1  0
 15 14  2  0
 16 14  1  0
 17 16  1  0
 18 19  1  0
 17 18  1  1
 19 24  2  0
 20 21  2  0
 20 19  1  0
 21 22  1  0
 22 23  2  0
 24 23  1  0
 25 17  1  0
 25 26  1  0
 27 25  2  0
M  END
$$$$
