TLF.pdb
     RDKit          3D

 27 27  0  0  1  0  0  0  0  0999 V2000
    7.1847  -17.7786   18.9142 C   0  0  0  0  0  0  0  0  0  0  0  0
    7.8083  -17.2787   20.1949 C   0  0  1  0  0  0  0  0  0  0  0  0
    9.1560  -17.6314   20.2355 O   0  0  0  0  0  0  0  0  0  0  0  0
    7.6297  -15.7875   20.3735 C   0  0  2  0  0  0  0  0  0  0  0  0
    8.3489  -15.1352   19.2953 N   0  0  0  0  0  0  0  0  0  0  0  0
    8.2255  -15.3876   21.6754 C   0  0  0  0  0  0  0  0  0  0  0  0
    9.4596  -15.0563   21.6731 O   0  0  0  0  0  0  0  0  0  0  0  0
    7.6633  -11.8777   24.7861 C   0  0  0  0  0  0  0  0  0  0  0  0
    6.6744  -12.9805   24.9903 C   0  0  2  0  0  0  0  0  0  0  0  0
    5.6388  -12.6325   26.0480 C   0  0  0  0  0  0  0  0  0  0  0  0
    7.1997  -14.3503   25.1095 C   0  0  0  0  0  0  0  0  0  0  0  0
    8.0802  -14.9201   24.0928 C   0  0  2  0  0  0  0  0  0  0  0  0
    7.4775  -15.3665   22.8824 N   0  0  0  0  0  0  0  0  0  0  0  0
    8.9862  -15.9796   24.5980 C   0  0  0  0  0  0  0  0  0  0  0  0
    8.7077  -17.2183   24.4463 O   0  0  0  0  0  0  0  0  0  0  0  0
   10.2078  -15.6958   25.2727 N   0  0  0  0  0  0  0  0  0  0  0  0
   11.0548  -16.7742   25.7359 C   0  0  1  0  0  0  0  0  0  0  0  0
   12.1960  -16.1407   26.5085 C   0  0  0  0  0  0  0  0  0  0  0  0
   11.7298  -15.4034   27.6980 C   0  0  0  0  0  0  0  0  0  0  0  0
   11.2442  -14.1154   27.6741 C   0  0  0  0  0  0  0  0  0  0  0  0
   10.8158  -13.4555   28.7906 C   0  0  0  0  0  0  0  0  0  0  0  0
   10.8652  -14.1033   30.0279 C   0  0  0  0  0  0  0  0  0  0  0  0
   11.3449  -15.3906   30.0878 C   0  0  0  0  0  0  0  0  0  0  0  0
   11.7676  -16.0258   28.9480 C   0  0  0  0  0  0  0  0  0  0  0  0
   10.3252  -17.7760   26.5123 C   0  0  0  0  0  0  0  0  0  0  0  0
    9.0278  -17.4903   26.9217 O   0  0  0  0  0  0  0  0  0  0  0  0
   10.7838  -18.8932   26.8454 O   0  0  0  0  0  0  0  0  0  0  0  0
  2  1  1  6
  2  4  1  0
  3  2  1  0
  4  5  1  6
  6  7  2  0
  6  4  1  0
  9 11  1  0
  9  8  1  1
 10  9  1  0
 12 11  1  1
 12 13  1  0
 13  6  1  0
 14 12  1  0
 15 14  2  0
 16 14  1  0
 17 16  1  0
 18 19  1  0
 17 18  1  1
 19 24  2  0
 20 21  2  0
 20 19  1  0
 21 22  1  0
 22 23  2  0
 24 23  1  0
 25 17  1  0
 25 26  1  0
 27 25  2  0
M  END
$$$$
