TLF.pdb
     RDKit          3D

 27 27  0  0  1  0  0  0  0  0999 V2000
    8.1759  -19.7876   20.9907 C   0  0  0  0  0  0  0  0  0  0  0  0
    8.4048  -18.5607   21.8399 C   0  0  1  0  0  0  0  0  0  0  0  0
    9.7458  -18.4848   22.2120 O   0  0  0  0  0  0  0  0  0  0  0  0
    7.9598  -17.2933   21.1446 C   0  0  2  0  0  0  0  0  0  0  0  0
    8.7258  -17.1833   19.9173 N   0  0  0  0  0  0  0  0  0  0  0  0
    8.2673  -16.1337   22.0225 C   0  0  0  0  0  0  0  0  0  0  0  0
    9.3090  -15.4500   21.7395 O   0  0  0  0  0  0  0  0  0  0  0  0
    6.0173  -12.5177   26.6028 C   0  0  0  0  0  0  0  0  0  0  0  0
    7.0388  -12.8515   25.5631 C   0  0  2  0  0  0  0  0  0  0  0  0
    7.5324  -11.6154   24.8276 C   0  0  0  0  0  0  0  0  0  0  0  0
    6.7568  -13.9909   24.6750 C   0  0  0  0  0  0  0  0  0  0  0  0
    7.8288  -14.6995   23.9805 C   0  0  2  0  0  0  0  0  0  0  0  0
    7.4552  -15.7808   23.1327 N   0  0  0  0  0  0  0  0  0  0  0  0
    8.9366  -15.1403   24.8621 C   0  0  0  0  0  0  0  0  0  0  0  0
    9.0454  -14.7041   26.0592 O   0  0  0  0  0  0  0  0  0  0  0  0
    9.9363  -16.0647   24.4448 N   0  0  0  0  0  0  0  0  0  0  0  0
   11.1271  -16.2637   25.2431 C   0  0  1  0  0  0  0  0  0  0  0  0
   10.6859  -16.9045   26.5450 C   0  0  0  0  0  0  0  0  0  0  0  0
   10.5759  -15.9275   27.6447 C   0  0  0  0  0  0  0  0  0  0  0  0
   10.7006  -16.2410   28.9794 C   0  0  0  0  0  0  0  0  0  0  0  0
   10.5971  -15.3161   29.9790 C   0  0  0  0  0  0  0  0  0  0  0  0
   10.3526  -13.9799   29.6505 C   0  0  0  0  0  0  0  0  0  0  0  0
   10.2226  -13.6319   28.3266 C   0  0  0  0  0  0  0  0  0  0  0  0
   10.3319  -14.5849   27.3461 C   0  0  0  0  0  0  0  0  0  0  0  0
   12.1559  -17.0346   24.5459 C   0  0  0  0  0  0  0  0  0  0  0  0
   11.8784  -17.5242   23.2747 O   0  0  0  0  0  0  0  0  0  0  0  0
   13.2896  -17.2953   25.0107 O   0  0  0  0  0  0  0  0  0  0  0  0
  2  1  1  6
  2  4  1  0
  3  2  1  0
  4  5  1  6
  6  7  2  0
  6  4  1  0
  9 11  1  0
  9  8  1  6
 10  9  1  0
 12 11  1  1
 12 13  1  0
 13  6  1  0
 14 12  1  0
 15 14  2  0
 16 14  1  0
 17 16  1  0
 18 19  1  0
 17 18  1  1
 19 24  2  0
 20 21  2  0
 20 19  1  0
 21 22  1  0
 22 23  2  0
 24 23  1  0
 25 17  1  0
 25 26  1  0
 27 25  2  0
M  END
$$$$
