SFL.pdb
     RDKit          3D

 26 26  0  0  1  0  0  0  0  0999 V2000
   26.6769  -19.7962  -19.5698 O   0  0  0  0  0  0  0  0  0  0  0  0
   26.9198  -19.3815  -18.2685 C   0  0  0  0  0  0  0  0  0  0  0  0
   27.9873  -20.2106  -17.5957 C   0  0  2  0  0  0  0  0  0  0  0  0
   28.3599  -21.2747  -18.4963 N   0  0  0  0  0  0  0  0  0  0  0  0
   27.3633  -20.7841  -16.3516 C   0  0  0  0  0  0  0  0  0  0  0  0
   27.1825  -22.0297  -16.3009 O   0  0  0  0  0  0  0  0  0  0  0  0
   26.9867  -19.9551  -15.2638 N   0  0  0  0  0  0  0  0  0  0  0  0
   26.3586  -20.4968  -14.0777 C   0  0  1  0  0  0  0  0  0  0  0  0
   26.8321  -19.7778  -12.8322 C   0  0  0  0  0  0  0  0  0  0  0  0
   26.1985  -20.2276  -11.5992 C   0  0  0  0  0  0  0  0  0  0  0  0
   25.1236  -19.5324  -11.0879 C   0  0  0  0  0  0  0  0  0  0  0  0
   24.4990  -19.9447   -9.9038 C   0  0  0  0  0  0  0  0  0  0  0  0
   24.9579  -21.0576   -9.2351 C   0  0  0  0  0  0  0  0  0  0  0  0
   26.0330  -21.7624   -9.7362 C   0  0  0  0  0  0  0  0  0  0  0  0
   26.6441  -21.3358  -10.9200 C   0  0  0  0  0  0  0  0  0  0  0  0
   24.9086  -20.4984  -14.2642 C   0  0  0  0  0  0  0  0  0  0  0  0
   24.3107  -19.4216  -14.5080 O   0  0  0  0  0  0  0  0  0  0  0  0
   20.3808  -24.6064  -14.5296 C   0  0  0  0  0  0  0  0  0  0  0  0
   20.7166  -23.1389  -14.8412 C   0  0  2  0  0  0  0  0  0  0  0  0
   20.1772  -22.8662  -16.2047 C   0  0  0  0  0  0  0  0  0  0  0  0
   22.1824  -23.0133  -14.6758 C   0  0  0  0  0  0  0  0  0  0  0  0
   22.6536  -21.6475  -14.1851 C   0  0  2  0  0  0  0  0  0  0  0  0
   24.0855  -21.6606  -14.1914 N   0  0  0  0  0  0  0  0  0  0  0  0
   22.0121  -21.2642  -12.9351 C   0  0  0  0  0  0  0  0  0  0  0  0
   21.0842  -20.2477  -12.9118 O   0  0  0  0  0  0  0  0  0  0  0  0
   22.2522  -21.8108  -11.8459 O   0  0  0  0  0  0  0  0  0  0  0  0
  2  1  1  0
  3  2  1  0
  3  5  1  0
  3  4  1  6
  5  6  2  0
  7  8  1  0
  7  5  1  0
  9 10  1  0
  8  9  1  1
 10 15  2  0
 11 12  2  0
 11 10  1  0
 12 13  1  0
 13 14  2  0
 15 14  1  0
 16  8  1  0
 16 17  2  0
 19 18  1  6
 19 21  1  0
 20 19  1  0
 22 21  1  1
 22 23  1  0
 22 24  1  0
 23 16  1  0
 24 25  1  0
 26 24  2  0
M  END
$$$$
