SFL.pdb
     RDKit          3D

 26 26  0  0  1  0  0  0  0  0999 V2000
   18.5028   -9.2937  -19.5058 O   0  0  0  0  0  0  0  0  0  0  0  0
   18.5173   -8.5741  -18.3199 C   0  0  0  0  0  0  0  0  0  0  0  0
   19.7076   -8.9196  -17.4577 C   0  0  2  0  0  0  0  0  0  0  0  0
   19.5303  -10.2665  -16.9710 N   0  0  0  0  0  0  0  0  0  0  0  0
   19.6975   -7.9506  -16.3057 C   0  0  0  0  0  0  0  0  0  0  0  0
   18.8816   -8.1551  -15.3681 O   0  0  0  0  0  0  0  0  0  0  0  0
   20.5765   -6.8377  -16.2681 N   0  0  0  0  0  0  0  0  0  0  0  0
   20.6539   -5.9697  -15.1126 C   0  0  1  0  0  0  0  0  0  0  0  0
   21.9764   -6.1339  -14.3939 C   0  0  0  0  0  0  0  0  0  0  0  0
   22.1174   -7.3918  -13.6714 C   0  0  0  0  0  0  0  0  0  0  0  0
   22.8760   -8.4095  -14.2089 C   0  0  0  0  0  0  0  0  0  0  0  0
   23.0251   -9.6279  -13.5338 C   0  0  0  0  0  0  0  0  0  0  0  0
   22.4095   -9.8202  -12.3171 C   0  0  0  0  0  0  0  0  0  0  0  0
   21.6474   -8.8096  -11.7681 C   0  0  0  0  0  0  0  0  0  0  0  0
   21.5098   -7.5998  -12.4567 C   0  0  0  0  0  0  0  0  0  0  0  0
   20.3519   -4.5997  -15.5241 C   0  0  0  0  0  0  0  0  0  0  0  0
   21.0235   -4.0615  -16.4383 O   0  0  0  0  0  0  0  0  0  0  0  0
   16.9811   -2.3858  -17.4852 C   0  0  0  0  0  0  0  0  0  0  0  0
   16.7389   -2.9738  -16.0856 C   0  0  2  0  0  0  0  0  0  0  0  0
   15.2660   -2.9192  -15.8574 C   0  0  0  0  0  0  0  0  0  0  0  0
   17.5784   -2.1796  -15.1602 C   0  0  0  0  0  0  0  0  0  0  0  0
   19.0788   -2.4231  -15.2929 C   0  0  2  0  0  0  0  0  0  0  0  0
   19.3219   -3.7936  -14.9562 N   0  0  0  0  0  0  0  0  0  0  0  0
   19.8603   -1.4277  -14.5723 C   0  0  0  0  0  0  0  0  0  0  0  0
   20.6867   -1.8062  -13.5385 O   0  0  0  0  0  0  0  0  0  0  0  0
   19.8329   -0.2139  -14.8344 O   0  0  0  0  0  0  0  0  0  0  0  0
  2  1  1  0
  3  2  1  0
  3  5  1  0
  3  4  1  1
  5  6  2  0
  7  8  1  0
  7  5  1  0
  9 10  1  0
  8  9  1  6
 10 15  2  0
 11 12  2  0
 11 10  1  0
 12 13  1  0
 13 14  2  0
 15 14  1  0
 16  8  1  0
 16 17  2  0
 19 18  1  6
 19 21  1  0
 20 19  1  0
 22 21  1  1
 22 23  1  0
 22 24  1  0
 23 16  1  0
 24 25  1  0
 26 24  2  0
M  END
$$$$
