SFL.pdb
     RDKit          3D

 26 26  0  0  1  0  0  0  0  0999 V2000
   26.8229  -21.5099  -19.2431 O   0  0  0  0  0  0  0  0  0  0  0  0
   26.2592  -22.1940  -18.1761 C   0  0  0  0  0  0  0  0  0  0  0  0
   27.2441  -22.4085  -17.0520 C   0  0  2  0  0  0  0  0  0  0  0  0
   27.9156  -23.6651  -17.2805 N   0  0  0  0  0  0  0  0  0  0  0  0
   26.4369  -22.4795  -15.7833 C   0  0  0  0  0  0  0  0  0  0  0  0
   25.9486  -23.5931  -15.4545 O   0  0  0  0  0  0  0  0  0  0  0  0
   26.2268  -21.3324  -14.9755 N   0  0  0  0  0  0  0  0  0  0  0  0
   25.4091  -21.3828  -13.7825 C   0  0  1  0  0  0  0  0  0  0  0  0
   25.8475  -20.3405  -12.7755 C   0  0  0  0  0  0  0  0  0  0  0  0
   25.1134  -20.3725  -11.5169 C   0  0  0  0  0  0  0  0  0  0  0  0
   25.6528  -21.0184  -10.4251 C   0  0  0  0  0  0  0  0  0  0  0  0
   24.9655  -21.0636   -9.2053 C   0  0  0  0  0  0  0  0  0  0  0  0
   23.7346  -20.4578   -9.0861 C   0  0  0  0  0  0  0  0  0  0  0  0
   23.1835  -19.8080  -10.1713 C   0  0  0  0  0  0  0  0  0  0  0  0
   23.8843  -19.7731  -11.3814 C   0  0  0  0  0  0  0  0  0  0  0  0
   24.0006  -21.3028  -14.1658 C   0  0  0  0  0  0  0  0  0  0  0  0
   23.6235  -20.4160  -14.9706 O   0  0  0  0  0  0  0  0  0  0  0  0
   21.0333  -22.9085  -16.7986 C   0  0  0  0  0  0  0  0  0  0  0  0
   21.6245  -23.8627  -15.7482 C   0  0  2  0  0  0  0  0  0  0  0  0
   21.2538  -25.2416  -16.1793 C   0  0  0  0  0  0  0  0  0  0  0  0
   21.0877  -23.4141  -14.4435 C   0  0  0  0  0  0  0  0  0  0  0  0
   21.5871  -22.0471  -13.9851 C   0  0  2  0  0  0  0  0  0  0  0  0
   22.9817  -22.1782  -13.6875 N   0  0  0  0  0  0  0  0  0  0  0  0
   20.7486  -21.4818  -12.9371 C   0  0  0  0  0  0  0  0  0  0  0  0
   19.7347  -20.6060  -13.2531 O   0  0  0  0  0  0  0  0  0  0  0  0
   20.8891  -21.7438  -11.7311 O   0  0  0  0  0  0  0  0  0  0  0  0
  2  1  1  0
  3  2  1  0
  3  5  1  0
  3  4  1  6
  5  6  2  0
  7  8  1  0
  7  5  1  0
  9 10  1  0
  8  9  1  1
 10 15  2  0
 11 12  2  0
 11 10  1  0
 12 13  1  0
 13 14  2  0
 15 14  1  0
 16  8  1  0
 16 17  2  0
 19 18  1  6
 19 21  1  0
 20 19  1  0
 22 21  1  1
 22 23  1  0
 22 24  1  0
 23 16  1  0
 24 25  1  0
 26 24  2  0
M  END
$$$$
