SFL.pdb
     RDKit          3D

 26 26  0  0  1  0  0  0  0  0999 V2000
   39.2828  -26.5907    6.5605 O   0  0  0  0  0  0  0  0  0  0  0  0
   38.8164  -25.4393    7.1777 C   0  0  0  0  0  0  0  0  0  0  0  0
   38.8769  -24.2384    6.2646 C   0  0  2  0  0  0  0  0  0  0  0  0
   40.0667  -23.4896    6.5899 N   0  0  0  0  0  0  0  0  0  0  0  0
   37.6528  -23.4135    6.5603 C   0  0  0  0  0  0  0  0  0  0  0  0
   37.7287  -22.5489    7.4732 O   0  0  0  0  0  0  0  0  0  0  0  0
   36.4455  -23.5970    5.8383 N   0  0  0  0  0  0  0  0  0  0  0  0
   35.2896  -22.7561    6.0649 C   0  0  1  0  0  0  0  0  0  0  0  0
   34.6700  -22.3151    4.7556 C   0  0  0  0  0  0  0  0  0  0  0  0
   33.5239  -21.4266    4.9005 C   0  0  0  0  0  0  0  0  0  0  0  0
   33.6764  -20.2077    5.5259 C   0  0  0  0  0  0  0  0  0  0  0  0
   32.5893  -19.3374    5.6781 C   0  0  0  0  0  0  0  0  0  0  0  0
   31.3486  -19.6958    5.1999 C   0  0  0  0  0  0  0  0  0  0  0  0
   31.1825  -20.9131    4.5720 C   0  0  0  0  0  0  0  0  0  0  0  0
   32.2794  -21.7692    4.4291 C   0  0  0  0  0  0  0  0  0  0  0  0
   34.3706  -23.4425    6.9713 C   0  0  0  0  0  0  0  0  0  0  0  0
   34.0941  -24.6522    6.7796 O   0  0  0  0  0  0  0  0  0  0  0  0
   29.9363  -20.9892    9.8289 C   0  0  0  0  0  0  0  0  0  0  0  0
   31.2306  -21.7798   10.0799 C   0  0  2  0  0  0  0  0  0  0  0  0
   32.2629  -20.7787   10.4757 C   0  0  0  0  0  0  0  0  0  0  0  0
   31.4918  -22.5377    8.8353 C   0  0  0  0  0  0  0  0  0  0  0  0
   32.7159  -23.4471    8.8880 C   0  0  2  0  0  0  0  0  0  0  0  0
   33.7394  -22.8341    8.0960 N   0  0  0  0  0  0  0  0  0  0  0  0
   32.3852  -24.8287    8.5676 C   0  0  0  0  0  0  0  0  0  0  0  0
   32.7769  -25.8502    9.4030 O   0  0  0  0  0  0  0  0  0  0  0  0
   31.7500  -25.1639    7.5542 O   0  0  0  0  0  0  0  0  0  0  0  0
  2  1  1  0
  3  2  1  0
  3  5  1  0
  3  4  1  1
  5  6  2  0
  7  8  1  0
  7  5  1  0
  9 10  1  0
  8  9  1  6
 10 15  2  0
 11 12  2  0
 11 10  1  0
 12 13  1  0
 13 14  2  0
 15 14  1  0
 16  8  1  0
 16 17  2  0
 19 18  1  6
 19 21  1  0
 20 19  1  0
 22 21  1  6
 22 23  1  0
 22 24  1  0
 23 16  1  0
 24 25  1  0
 26 24  2  0
M  END
$$$$
