SFL.pdb
     RDKit          3D

 26 26  0  0  1  0  0  0  0  0999 V2000
   25.7705  -19.0214  -19.0832 O   0  0  0  0  0  0  0  0  0  0  0  0
   25.7098  -20.1925  -18.3421 C   0  0  0  0  0  0  0  0  0  0  0  0
   26.9964  -20.4655  -17.6008 C   0  0  2  0  0  0  0  0  0  0  0  0
   27.6969  -21.5188  -18.2953 N   0  0  0  0  0  0  0  0  0  0  0  0
   26.6065  -20.9286  -16.2225 C   0  0  0  0  0  0  0  0  0  0  0  0
   26.3568  -22.1523  -16.0583 O   0  0  0  0  0  0  0  0  0  0  0  0
   26.5200  -20.0219  -15.1349 N   0  0  0  0  0  0  0  0  0  0  0  0
   26.0777  -20.4477  -13.8243 C   0  0  1  0  0  0  0  0  0  0  0  0
   26.7687  -19.6591  -12.7319 C   0  0  0  0  0  0  0  0  0  0  0  0
   26.3713  -20.0280  -11.3791 C   0  0  0  0  0  0  0  0  0  0  0  0
   26.9435  -21.1252  -10.7718 C   0  0  0  0  0  0  0  0  0  0  0  0
   26.5767  -21.5000   -9.4729 C   0  0  0  0  0  0  0  0  0  0  0  0
   25.6332  -20.7688   -8.7862 C   0  0  0  0  0  0  0  0  0  0  0  0
   25.0528  -19.6684   -9.3826 C   0  0  0  0  0  0  0  0  0  0  0  0
   25.4315  -19.3091  -10.6803 C   0  0  0  0  0  0  0  0  0  0  0  0
   24.6173  -20.4022  -13.7755 C   0  0  0  0  0  0  0  0  0  0  0  0
   24.0160  -19.3464  -14.0921 O   0  0  0  0  0  0  0  0  0  0  0  0
   21.3700  -22.3588  -15.8880 C   0  0  0  0  0  0  0  0  0  0  0  0
   22.1294  -23.2678  -14.9080 C   0  0  2  0  0  0  0  0  0  0  0  0
   21.7234  -24.6657  -15.2329 C   0  0  0  0  0  0  0  0  0  0  0  0
   21.7863  -22.7808  -13.5527 C   0  0  0  0  0  0  0  0  0  0  0  0
   22.3695  -21.4157  -13.1995 C   0  0  2  0  0  0  0  0  0  0  0  0
   23.7871  -21.4942  -13.3861 N   0  0  0  0  0  0  0  0  0  0  0  0
   21.9094  -20.9438  -11.9009 C   0  0  0  0  0  0  0  0  0  0  0  0
   20.6428  -20.4242  -11.7576 O   0  0  0  0  0  0  0  0  0  0  0  0
   22.6062  -20.9780  -10.8732 O   0  0  0  0  0  0  0  0  0  0  0  0
  2  1  1  0
  3  2  1  0
  3  5  1  0
  3  4  1  6
  5  6  2  0
  7  8  1  0
  7  5  1  0
  9 10  1  0
  8  9  1  1
 10 15  2  0
 11 12  2  0
 11 10  1  0
 12 13  1  0
 13 14  2  0
 15 14  1  0
 16  8  1  0
 16 17  2  0
 19 18  1  6
 19 21  1  0
 20 19  1  0
 22 21  1  1
 22 23  1  0
 22 24  1  0
 23 16  1  0
 24 25  1  0
 26 24  2  0
M  END
$$$$
