SFL.pdb
     RDKit          3D

 26 26  0  0  1  0  0  0  0  0999 V2000
   27.7784  -20.8472  -18.5463 O   0  0  0  0  0  0  0  0  0  0  0  0
   26.9942  -21.1595  -17.4454 C   0  0  0  0  0  0  0  0  0  0  0  0
   27.6748  -22.1393  -16.5200 C   0  0  2  0  0  0  0  0  0  0  0  0
   27.6008  -23.4482  -17.1230 N   0  0  0  0  0  0  0  0  0  0  0  0
   26.8973  -22.1217  -15.2311 C   0  0  0  0  0  0  0  0  0  0  0  0
   26.0308  -23.0180  -15.0508 O   0  0  0  0  0  0  0  0  0  0  0  0
   27.1263  -21.1298  -14.2430 N   0  0  0  0  0  0  0  0  0  0  0  0
   26.4033  -21.1254  -12.9893 C   0  0  1  0  0  0  0  0  0  0  0  0
   27.2589  -20.5757  -11.8675 C   0  0  0  0  0  0  0  0  0  0  0  0
   26.5735  -20.4642  -10.5862 C   0  0  0  0  0  0  0  0  0  0  0  0
   25.9016  -19.3037  -10.2670 C   0  0  0  0  0  0  0  0  0  0  0  0
   25.2366  -19.1726   -9.0411 C   0  0  0  0  0  0  0  0  0  0  0  0
   25.2489  -20.2112   -8.1370 C   0  0  0  0  0  0  0  0  0  0  0  0
   25.9178  -21.3782   -8.4441 C   0  0  0  0  0  0  0  0  0  0  0  0
   26.5762  -21.4910   -9.6731 C   0  0  0  0  0  0  0  0  0  0  0  0
   25.1287  -20.4341  -13.1760 C   0  0  0  0  0  0  0  0  0  0  0  0
   25.1052  -19.3123  -13.7395 O   0  0  0  0  0  0  0  0  0  0  0  0
   22.9286  -20.8581  -16.6834 C   0  0  0  0  0  0  0  0  0  0  0  0
   22.5074  -21.3018  -15.2730 C   0  0  2  0  0  0  0  0  0  0  0  0
   21.2313  -22.0567  -15.4351 C   0  0  0  0  0  0  0  0  0  0  0  0
   22.4425  -20.0660  -14.4605 C   0  0  0  0  0  0  0  0  0  0  0  0
   22.6105  -20.2810  -12.9592 C   0  0  2  0  0  0  0  0  0  0  0  0
   23.8640  -20.9439  -12.7589 N   0  0  0  0  0  0  0  0  0  0  0  0
   21.4399  -20.9089  -12.3622 C   0  0  0  0  0  0  0  0  0  0  0  0
   21.5574  -22.1053  -11.6916 O   0  0  0  0  0  0  0  0  0  0  0  0
   20.2984  -20.4226  -12.4176 O   0  0  0  0  0  0  0  0  0  0  0  0
  2  1  1  0
  3  2  1  0
  3  5  1  0
  3  4  1  6
  5  6  2  0
  7  8  1  0
  7  5  1  0
  9 10  1  0
  8  9  1  1
 10 15  2  0
 11 12  2  0
 11 10  1  0
 12 13  1  0
 13 14  2  0
 15 14  1  0
 16  8  1  0
 16 17  2  0
 19 18  1  6
 19 21  1  0
 20 19  1  0
 22 21  1  6
 22 23  1  0
 22 24  1  0
 23 16  1  0
 24 25  1  0
 26 24  2  0
M  END
$$$$
