SFL.pdb
     RDKit          3D

 26 26  0  0  1  0  0  0  0  0999 V2000
   23.9638  -20.3501  -13.9873 O   0  0  0  0  0  0  0  0  0  0  0  0
   24.6927  -21.4332  -13.5181 C   0  0  0  0  0  0  0  0  0  0  0  0
   26.1627  -21.1161  -13.3837 C   0  0  2  0  0  0  0  0  0  0  0  0
   26.8951  -22.0275  -14.2295 N   0  0  0  0  0  0  0  0  0  0  0  0
   26.5214  -21.3520  -11.9409 C   0  0  0  0  0  0  0  0  0  0  0  0
   26.6495  -22.5427  -11.5503 O   0  0  0  0  0  0  0  0  0  0  0  0
   26.7115  -20.2724  -11.0403 N   0  0  0  0  0  0  0  0  0  0  0  0
   27.1004  -20.4912   -9.6636 C   0  0  1  0  0  0  0  0  0  0  0  0
   28.0524  -19.4143   -9.1874 C   0  0  0  0  0  0  0  0  0  0  0  0
   28.4459  -19.5333   -7.7891 C   0  0  0  0  0  0  0  0  0  0  0  0
   27.9950  -18.6109   -6.8694 C   0  0  0  0  0  0  0  0  0  0  0  0
   28.3607  -18.7038   -5.5203 C   0  0  0  0  0  0  0  0  0  0  0  0
   29.1809  -19.7265   -5.0985 C   0  0  0  0  0  0  0  0  0  0  0  0
   29.6391  -20.6563   -6.0090 C   0  0  0  0  0  0  0  0  0  0  0  0
   29.2635  -20.5475   -7.3520 C   0  0  0  0  0  0  0  0  0  0  0  0
   25.8977  -20.6436   -8.8465 C   0  0  0  0  0  0  0  0  0  0  0  0
   24.8940  -19.9247   -9.0752 O   0  0  0  0  0  0  0  0  0  0  0  0
   24.8482  -21.3607   -3.0871 C   0  0  0  0  0  0  0  0  0  0  0  0
   24.1314  -21.6685   -4.4119 C   0  0  2  0  0  0  0  0  0  0  0  0
   23.4697  -22.9930   -4.2322 C   0  0  0  0  0  0  0  0  0  0  0  0
   25.1699  -21.5888   -5.4640 C   0  0  0  0  0  0  0  0  0  0  0  0
   24.6355  -21.6431   -6.8922 C   0  0  2  0  0  0  0  0  0  0  0  0
   25.7616  -21.5734   -7.7740 N   0  0  0  0  0  0  0  0  0  0  0  0
   23.5730  -20.6725   -7.1159 C   0  0  0  0  0  0  0  0  0  0  0  0
   22.2610  -21.0817   -7.1928 O   0  0  0  0  0  0  0  0  0  0  0  0
   23.7747  -19.4540   -7.2476 O   0  0  0  0  0  0  0  0  0  0  0  0
  2  1  1  0
  3  2  1  0
  3  5  1  0
  3  4  1  6
  5  6  2  0
  7  8  1  0
  7  5  1  0
  9 10  1  0
  8  9  1  1
 10 15  2  0
 11 12  2  0
 11 10  1  0
 12 13  1  0
 13 14  2  0
 15 14  1  0
 16  8  1  0
 16 17  2  0
 19 18  1  1
 19 21  1  0
 20 19  1  0
 22 21  1  1
 22 23  1  0
 22 24  1  0
 23 16  1  0
 24 25  1  0
 26 24  2  0
M  END
$$$$
