SFL.pdb
     RDKit          3D

 26 26  0  0  1  0  0  0  0  0999 V2000
   23.5175  -21.0347  -13.0272 O   0  0  0  0  0  0  0  0  0  0  0  0
   24.7246  -20.3953  -12.7858 C   0  0  0  0  0  0  0  0  0  0  0  0
   25.8852  -21.3606  -12.7562 C   0  0  2  0  0  0  0  0  0  0  0  0
   25.4082  -22.6462  -13.2055 N   0  0  0  0  0  0  0  0  0  0  0  0
   26.3311  -21.4500  -11.3211 C   0  0  0  0  0  0  0  0  0  0  0  0
   26.4581  -22.5949  -10.8115 O   0  0  0  0  0  0  0  0  0  0  0  0
   26.6027  -20.2857  -10.5574 N   0  0  0  0  0  0  0  0  0  0  0  0
   27.1011  -20.3661   -9.2010 C   0  0  1  0  0  0  0  0  0  0  0  0
   27.8706  -19.1168   -8.8271 C   0  0  0  0  0  0  0  0  0  0  0  0
   28.5224  -19.1779   -7.5250 C   0  0  0  0  0  0  0  0  0  0  0  0
   28.0167  -18.4482   -6.4705 C   0  0  0  0  0  0  0  0  0  0  0  0
   28.6266  -18.4898   -5.2101 C   0  0  0  0  0  0  0  0  0  0  0  0
   29.7463  -19.2668   -5.0128 C   0  0  0  0  0  0  0  0  0  0  0  0
   30.2626  -20.0020   -6.0599 C   0  0  0  0  0  0  0  0  0  0  0  0
   29.6402  -19.9481   -7.3115 C   0  0  0  0  0  0  0  0  0  0  0  0
   25.9927  -20.6883   -8.3038 C   0  0  0  0  0  0  0  0  0  0  0  0
   24.8252  -20.3381   -8.6052 O   0  0  0  0  0  0  0  0  0  0  0  0
   27.3729  -22.8374   -4.7408 C   0  0  0  0  0  0  0  0  0  0  0  0
   26.8941  -21.3907   -4.5378 C   0  0  2  0  0  0  0  0  0  0  0  0
   27.3258  -20.9952   -3.1661 C   0  0  0  0  0  0  0  0  0  0  0  0
   25.4353  -21.4062   -4.7900 C   0  0  0  0  0  0  0  0  0  0  0  0
   25.0396  -21.7647   -6.2194 C   0  0  2  0  0  0  0  0  0  0  0  0
   26.1288  -21.3928   -7.0716 N   0  0  0  0  0  0  0  0  0  0  0  0
   23.7285  -21.2383   -6.5723 C   0  0  0  0  0  0  0  0  0  0  0  0
   23.6115  -20.2176   -7.4885 O   0  0  0  0  0  0  0  0  0  0  0  0
   22.6667  -21.6614   -6.0862 O   0  0  0  0  0  0  0  0  0  0  0  0
  2  1  1  0
  3  2  1  0
  3  5  1  0
  3  4  1  1
  5  6  2  0
  7  8  1  0
  7  5  1  0
  9 10  1  0
  8  9  1  1
 10 15  2  0
 11 12  2  0
 11 10  1  0
 12 13  1  0
 13 14  2  0
 15 14  1  0
 16  8  1  0
 16 17  2  0
 19 18  1  1
 19 21  1  0
 20 19  1  0
 22 21  1  1
 22 23  1  0
 22 24  1  0
 23 16  1  0
 24 25  1  0
 26 24  2  0
M  END
$$$$
