SFL.pdb
     RDKit          3D

 26 26  0  0  1  0  0  0  0  0999 V2000
   15.0005   -9.4876  -20.9374 O   0  0  0  0  0  0  0  0  0  0  0  0
   16.3185   -9.7601  -20.6015 C   0  0  0  0  0  0  0  0  0  0  0  0
   17.2894   -9.2400  -21.6342 C   0  0  2  0  0  0  0  0  0  0  0  0
   17.3264  -10.1822  -22.7266 N   0  0  0  0  0  0  0  0  0  0  0  0
   18.6354   -9.1771  -20.9631 C   0  0  0  0  0  0  0  0  0  0  0  0
   19.3314  -10.2266  -20.9339 O   0  0  0  0  0  0  0  0  0  0  0  0
   19.1144   -7.9768  -20.3781 N   0  0  0  0  0  0  0  0  0  0  0  0
   20.4504   -7.8791  -19.8302 C   0  0  1  0  0  0  0  0  0  0  0  0
   21.1877   -6.6849  -20.3984 C   0  0  0  0  0  0  0  0  0  0  0  0
   20.5463   -5.4020  -20.1399 C   0  0  0  0  0  0  0  0  0  0  0  0
   19.5791   -4.9331  -21.0028 C   0  0  0  0  0  0  0  0  0  0  0  0
   18.9495   -3.7024  -20.7759 C   0  0  0  0  0  0  0  0  0  0  0  0
   19.2950   -2.9446  -19.6792 C   0  0  0  0  0  0  0  0  0  0  0  0
   20.2616   -3.4025  -18.8077 C   0  0  0  0  0  0  0  0  0  0  0  0
   20.8795   -4.6338  -19.0504 C   0  0  0  0  0  0  0  0  0  0  0  0
   20.3706   -7.9058  -18.3706 C   0  0  0  0  0  0  0  0  0  0  0  0
   19.4014   -7.3585  -17.7897 O   0  0  0  0  0  0  0  0  0  0  0  0
   23.3837  -10.6180  -13.7392 C   0  0  0  0  0  0  0  0  0  0  0  0
   22.3233   -9.5543  -14.0671 C   0  0  2  0  0  0  0  0  0  0  0  0
   21.0830   -9.9633  -13.3467 C   0  0  0  0  0  0  0  0  0  0  0  0
   22.2405   -9.5047  -15.5444 C   0  0  0  0  0  0  0  0  0  0  0  0
   21.3838   -8.3693  -16.0968 C   0  0  2  0  0  0  0  0  0  0  0  0
   21.3336   -8.5236  -17.5196 N   0  0  0  0  0  0  0  0  0  0  0  0
   21.8110   -7.0694  -15.5982 C   0  0  0  0  0  0  0  0  0  0  0  0
   21.1525   -6.4771  -14.5443 O   0  0  0  0  0  0  0  0  0  0  0  0
   22.7646   -6.4321  -16.0750 O   0  0  0  0  0  0  0  0  0  0  0  0
  2  1  1  0
  3  2  1  0
  3  5  1  0
  3  4  1  6
  5  6  2  0
  7  8  1  0
  7  5  1  0
  9 10  1  0
  8  9  1  1
 10 15  2  0
 11 12  2  0
 11 10  1  0
 12 13  1  0
 13 14  2  0
 15 14  1  0
 16  8  1  0
 16 17  2  0
 19 18  1  6
 19 21  1  0
 20 19  1  0
 22 21  1  1
 22 23  1  0
 22 24  1  0
 23 16  1  0
 24 25  1  0
 26 24  2  0
M  END
$$$$
