SFL.pdb
     RDKit          3D

 26 26  0  0  1  0  0  0  0  0999 V2000
   28.3047  -23.3900  -18.3674 O   0  0  0  0  0  0  0  0  0  0  0  0
   28.1323  -22.6308  -17.2193 C   0  0  0  0  0  0  0  0  0  0  0  0
   28.3010  -21.1536  -17.4818 C   0  0  2  0  0  0  0  0  0  0  0  0
   29.7138  -20.8599  -17.4887 N   0  0  0  0  0  0  0  0  0  0  0  0
   27.6320  -20.4366  -16.3397 C   0  0  0  0  0  0  0  0  0  0  0  0
   28.3633  -19.8314  -15.5116 O   0  0  0  0  0  0  0  0  0  0  0  0
   26.2211  -20.4366  -16.1917 N   0  0  0  0  0  0  0  0  0  0  0  0
   25.5531  -19.5344  -15.2783 C   0  0  1  0  0  0  0  0  0  0  0  0
   24.9183  -18.3772  -16.0203 C   0  0  0  0  0  0  0  0  0  0  0  0
   25.7905  -17.2227  -16.1953 C   0  0  0  0  0  0  0  0  0  0  0  0
   26.3635  -16.9767  -17.4246 C   0  0  0  0  0  0  0  0  0  0  0  0
   27.2062  -15.8742  -17.6167 C   0  0  0  0  0  0  0  0  0  0  0  0
   27.4711  -15.0199  -16.5697 C   0  0  0  0  0  0  0  0  0  0  0  0
   26.9039  -15.2548  -15.3341 C   0  0  0  0  0  0  0  0  0  0  0  0
   26.0650  -16.3607  -15.1610 C   0  0  0  0  0  0  0  0  0  0  0  0
   24.6298  -20.2995  -14.4419 C   0  0  0  0  0  0  0  0  0  0  0  0
   23.8406  -21.1186  -14.9735 O   0  0  0  0  0  0  0  0  0  0  0  0
   26.1293  -22.1566  -11.3237 C   0  0  0  0  0  0  0  0  0  0  0  0
   25.6134  -20.8514  -10.6963 C   0  0  2  0  0  0  0  0  0  0  0  0
   26.1919  -20.7896   -9.3229 C   0  0  0  0  0  0  0  0  0  0  0  0
   24.1370  -20.9127  -10.7865 C   0  0  0  0  0  0  0  0  0  0  0  0
   23.5831  -20.8690  -12.2076 C   0  0  2  0  0  0  0  0  0  0  0  0
   24.5468  -20.1921  -13.0224 N   0  0  0  0  0  0  0  0  0  0  0  0
   22.2211  -20.3551  -12.2483 C   0  0  0  0  0  0  0  0  0  0  0  0
   21.1952  -21.0538  -11.6533 O   0  0  0  0  0  0  0  0  0  0  0  0
   21.9072  -19.2894  -12.8036 O   0  0  0  0  0  0  0  0  0  0  0  0
  2  1  1  0
  3  2  1  0
  3  5  1  0
  3  4  1  1
  5  6  2  0
  7  8  1  0
  7  5  1  0
  9 10  1  0
  8  9  1  6
 10 15  2  0
 11 12  2  0
 11 10  1  0
 12 13  1  0
 13 14  2  0
 15 14  1  0
 16  8  1  0
 16 17  2  0
 19 18  1  1
 19 21  1  0
 20 19  1  0
 22 21  1  1
 22 23  1  0
 22 24  1  0
 23 16  1  0
 24 25  1  0
 26 24  2  0
M  END
$$$$
