SFL.pdb
     RDKit          3D

 26 26  0  0  1  0  0  0  0  0999 V2000
   12.1229  -15.9666    2.7441 O   0  0  0  0  0  0  0  0  0  0  0  0
   13.1622  -16.6002    3.4095 C   0  0  0  0  0  0  0  0  0  0  0  0
   13.1556  -18.0935    3.1868 C   0  0  2  0  0  0  0  0  0  0  0  0
   12.0040  -18.6405    3.8626 N   0  0  0  0  0  0  0  0  0  0  0  0
   14.4187  -18.6249    3.8102 C   0  0  0  0  0  0  0  0  0  0  0  0
   14.3241  -19.2414    4.9045 O   0  0  0  0  0  0  0  0  0  0  0  0
   15.6821  -18.4419    3.1915 N   0  0  0  0  0  0  0  0  0  0  0  0
   16.8989  -18.9567    3.7823 C   0  0  1  0  0  0  0  0  0  0  0  0
   17.7763  -19.6154    2.7388 C   0  0  0  0  0  0  0  0  0  0  0  0
   17.1997  -20.8091    2.1332 C   0  0  0  0  0  0  0  0  0  0  0  0
   16.5012  -20.7078    0.9492 C   0  0  0  0  0  0  0  0  0  0  0  0
   15.9369  -21.8408    0.3489 C   0  0  0  0  0  0  0  0  0  0  0  0
   16.0768  -23.0757    0.9421 C   0  0  0  0  0  0  0  0  0  0  0  0
   16.7736  -23.1908    2.1274 C   0  0  0  0  0  0  0  0  0  0  0  0
   17.3301  -22.0485    2.7122 C   0  0  0  0  0  0  0  0  0  0  0  0
   17.5511  -17.8889    4.5383 C   0  0  0  0  0  0  0  0  0  0  0  0
   18.6209  -18.1240    5.1521 O   0  0  0  0  0  0  0  0  0  0  0  0
   17.7861  -12.3567    5.1794 C   0  0  0  0  0  0  0  0  0  0  0  0
   18.9433  -13.3438    4.9555 C   0  0  2  0  0  0  0  0  0  0  0  0
   19.9457  -12.6298    4.1129 C   0  0  0  0  0  0  0  0  0  0  0  0
   18.3338  -14.5578    4.3669 C   0  0  0  0  0  0  0  0  0  0  0  0
   17.6949  -15.5046    5.3787 C   0  0  2  0  0  0  0  0  0  0  0  0
   17.0591  -16.5544    4.6410 N   0  0  0  0  0  0  0  0  0  0  0  0
   16.8678  -14.7953    6.3449 C   0  0  0  0  0  0  0  0  0  0  0  0
   17.4247  -14.2817    7.4942 O   0  0  0  0  0  0  0  0  0  0  0  0
   15.6476  -14.6139    6.2000 O   0  0  0  0  0  0  0  0  0  0  0  0
  2  1  1  0
  3  2  1  0
  3  5  1  0
  3  4  1  1
  5  6  2  0
  7  8  1  0
  7  5  1  0
  9 10  1  0
  8  9  1  6
 10 15  2  0
 11 12  2  0
 11 10  1  0
 12 13  1  0
 13 14  2  0
 15 14  1  0
 16  8  1  0
 16 17  2  0
 19 18  1  6
 19 21  1  0
 20 19  1  0
 22 21  1  6
 22 23  1  0
 22 24  1  0
 23 16  1  0
 24 25  1  0
 26 24  2  0
M  END
$$$$
