SFL.pdb
     RDKit          3D

 26 26  0  0  1  0  0  0  0  0999 V2000
   25.4939  -19.7509  -13.6608 O   0  0  0  0  0  0  0  0  0  0  0  0
   25.8365  -21.0059  -14.1424 C   0  0  0  0  0  0  0  0  0  0  0  0
   27.0862  -21.5456  -13.4892 C   0  0  2  0  0  0  0  0  0  0  0  0
   27.3467  -22.8547  -14.0376 N   0  0  0  0  0  0  0  0  0  0  0  0
   26.7876  -21.6541  -12.0178 C   0  0  0  0  0  0  0  0  0  0  0  0
   26.2010  -22.6909  -11.6082 O   0  0  0  0  0  0  0  0  0  0  0  0
   27.1517  -20.6251  -11.1117 N   0  0  0  0  0  0  0  0  0  0  0  0
   26.9018  -20.7405   -9.6908 C   0  0  1  0  0  0  0  0  0  0  0  0
   27.8870  -19.9117   -8.8940 C   0  0  0  0  0  0  0  0  0  0  0  0
   27.7019  -19.9795   -7.4499 C   0  0  0  0  0  0  0  0  0  0  0  0
   27.1468  -18.9108   -6.7792 C   0  0  0  0  0  0  0  0  0  0  0  0
   26.9602  -18.9522   -5.3914 C   0  0  0  0  0  0  0  0  0  0  0  0
   27.3333  -20.0706   -4.6799 C   0  0  0  0  0  0  0  0  0  0  0  0
   27.8901  -21.1472   -5.3392 C   0  0  0  0  0  0  0  0  0  0  0  0
   28.0688  -21.0879   -6.7253 C   0  0  0  0  0  0  0  0  0  0  0  0
   25.4968  -20.4339   -9.4272 C   0  0  0  0  0  0  0  0  0  0  0  0
   25.1238  -20.1805   -8.2554 O   0  0  0  0  0  0  0  0  0  0  0  0
   23.9743  -20.1009  -13.1260 C   0  0  0  0  0  0  0  0  0  0  0  0
   22.5469  -19.7953  -12.6437 C   0  0  2  0  0  0  0  0  0  0  0  0
   21.8927  -19.0192  -13.7365 C   0  0  0  0  0  0  0  0  0  0  0  0
   22.6967  -19.1034  -11.3435 C   0  0  0  0  0  0  0  0  0  0  0  0
   23.1199  -20.0045  -10.1872 C   0  0  2  0  0  0  0  0  0  0  0  0
   24.4772  -20.3954  -10.4233 N   0  0  0  0  0  0  0  0  0  0  0  0
   22.1649  -21.0788   -9.9531 C   0  0  0  0  0  0  0  0  0  0  0  0
   22.5692  -22.3936  -10.0058 O   0  0  0  0  0  0  0  0  0  0  0  0
   20.9645  -20.8854   -9.6996 O   0  0  0  0  0  0  0  0  0  0  0  0
  2  1  1  0
  3  2  1  0
  3  5  1  0
  3  4  1  6
  5  6  2  0
  7  8  1  0
  7  5  1  0
  9 10  1  0
  8  9  1  1
 10 15  2  0
 11 12  2  0
 11 10  1  0
 12 13  1  0
 13 14  2  0
 15 14  1  0
 16  8  1  0
 16 17  2  0
 19 18  1  6
 19 21  1  0
 20 19  1  0
 22 21  1  6
 22 23  1  0
 22 24  1  0
 23 16  1  0
 24 25  1  0
 26 24  2  0
M  END
$$$$
