SFL.pdb
     RDKit          3D

 26 26  0  0  1  0  0  0  0  0999 V2000
   28.5264  -29.1793  -20.6010 O   0  0  0  0  0  0  0  0  0  0  0  0
   29.2204  -28.3301  -19.7515 C   0  0  0  0  0  0  0  0  0  0  0  0
   30.4536  -28.9831  -19.1751 C   0  0  2  0  0  0  0  0  0  0  0  0
   31.4361  -29.0881  -20.2267 N   0  0  0  0  0  0  0  0  0  0  0  0
   30.0379  -30.3565  -18.7201 C   0  0  0  0  0  0  0  0  0  0  0  0
   30.1043  -31.3003  -19.5517 O   0  0  0  0  0  0  0  0  0  0  0  0
   29.5837  -30.5910  -17.3967 N   0  0  0  0  0  0  0  0  0  0  0  0
   29.2645  -31.9224  -16.9279 C   0  0  1  0  0  0  0  0  0  0  0  0
   30.2482  -32.3800  -15.8717 C   0  0  0  0  0  0  0  0  0  0  0  0
   31.5491  -32.7801  -16.3930 C   0  0  0  0  0  0  0  0  0  0  0  0
   31.7234  -34.0504  -16.8990 C   0  0  0  0  0  0  0  0  0  0  0  0
   32.9647  -34.4582  -17.4043 C   0  0  0  0  0  0  0  0  0  0  0  0
   34.0300  -33.5856  -17.3995 C   0  0  0  0  0  0  0  0  0  0  0  0
   33.8688  -32.3113  -16.8958 C   0  0  0  0  0  0  0  0  0  0  0  0
   32.6221  -31.9217  -16.3954 C   0  0  0  0  0  0  0  0  0  0  0  0
   27.8640  -31.9580  -16.5099 C   0  0  0  0  0  0  0  0  0  0  0  0
   27.4341  -31.1014  -15.6987 O   0  0  0  0  0  0  0  0  0  0  0  0
   24.1636  -31.0535  -18.4263 C   0  0  0  0  0  0  0  0  0  0  0  0
   24.8088  -32.3523  -18.9365 C   0  0  2  0  0  0  0  0  0  0  0  0
   24.0821  -32.7180  -20.1866 C   0  0  0  0  0  0  0  0  0  0  0  0
   24.7201  -33.3172  -17.8172 C   0  0  0  0  0  0  0  0  0  0  0  0
   25.5292  -32.9354  -16.5812 C   0  0  2  0  0  0  0  0  0  0  0  0
   26.9095  -32.9161  -16.9619 N   0  0  0  0  0  0  0  0  0  0  0  0
   25.1840  -33.7540  -15.4272 C   0  0  0  0  0  0  0  0  0  0  0  0
   24.2028  -33.3457  -14.5524 O   0  0  0  0  0  0  0  0  0  0  0  0
   25.7339  -34.8367  -15.1660 O   0  0  0  0  0  0  0  0  0  0  0  0
  2  1  1  0
  3  2  1  0
  3  5  1  0
  3  4  1  6
  5  6  2  0
  7  8  1  0
  7  5  1  0
  9 10  1  0
  8  9  1  1
 10 15  2  0
 11 12  2  0
 11 10  1  0
 12 13  1  0
 13 14  2  0
 15 14  1  0
 16  8  1  0
 16 17  2  0
 19 18  1  1
 19 21  1  0
 20 19  1  0
 22 21  1  6
 22 23  1  0
 22 24  1  0
 23 16  1  0
 24 25  1  0
 26 24  2  0
M  END
$$$$
