SFL.pdb
     RDKit          3D

 26 26  0  0  1  0  0  0  0  0999 V2000
   26.9263  -10.4660  -20.6252 O   0  0  0  0  0  0  0  0  0  0  0  0
   25.7415  -10.1731  -19.9659 C   0  0  0  0  0  0  0  0  0  0  0  0
   25.3392  -11.2649  -19.0039 C   0  0  2  0  0  0  0  0  0  0  0  0
   24.9113  -12.4058  -19.7769 N   0  0  0  0  0  0  0  0  0  0  0  0
   24.1856  -10.7250  -18.2015 C   0  0  0  0  0  0  0  0  0  0  0  0
   23.0713  -10.6030  -18.7760 O   0  0  0  0  0  0  0  0  0  0  0  0
   24.3388  -10.3616  -16.8387 N   0  0  0  0  0  0  0  0  0  0  0  0
   23.2265   -9.8704  -16.0539 C   0  0  1  0  0  0  0  0  0  0  0  0
   23.1361  -10.5901  -14.7248 C   0  0  0  0  0  0  0  0  0  0  0  0
   22.0010  -10.1936  -13.9010 C   0  0  0  0  0  0  0  0  0  0  0  0
   22.2175   -9.6015  -12.6751 C   0  0  0  0  0  0  0  0  0  0  0  0
   21.1425   -9.2131  -11.8652 C   0  0  0  0  0  0  0  0  0  0  0  0
   19.8496   -9.4215  -12.2909 C   0  0  0  0  0  0  0  0  0  0  0  0
   19.6192  -10.0132  -13.5158 C   0  0  0  0  0  0  0  0  0  0  0  0
   20.7050  -10.3945  -14.3110 C   0  0  0  0  0  0  0  0  0  0  0  0
   23.3205   -8.4151  -15.9517 C   0  0  0  0  0  0  0  0  0  0  0  0
   24.4359   -7.8757  -15.7479 O   0  0  0  0  0  0  0  0  0  0  0  0
   23.3833   -4.7509  -18.2971 C   0  0  0  0  0  0  0  0  0  0  0  0
   22.0834   -5.5698  -18.3513 C   0  0  2  0  0  0  0  0  0  0  0  0
   21.2878   -5.0179  -19.4858 C   0  0  0  0  0  0  0  0  0  0  0  0
   21.4762   -5.4582  -17.0058 C   0  0  0  0  0  0  0  0  0  0  0  0
   22.2859   -6.1049  -15.8857 C   0  0  2  0  0  0  0  0  0  0  0  0
   22.2140   -7.5233  -16.0692 N   0  0  0  0  0  0  0  0  0  0  0  0
   21.9065   -5.5986  -14.5740 C   0  0  0  0  0  0  0  0  0  0  0  0
   22.7473   -4.7555  -13.8833 O   0  0  0  0  0  0  0  0  0  0  0  0
   20.8364   -5.8849  -14.0122 O   0  0  0  0  0  0  0  0  0  0  0  0
  2  1  1  0
  3  2  1  0
  3  5  1  0
  3  4  1  6
  5  6  2  0
  7  8  1  0
  7  5  1  0
  9 10  1  0
  8  9  1  1
 10 15  2  0
 11 12  2  0
 11 10  1  0
 12 13  1  0
 13 14  2  0
 15 14  1  0
 16  8  1  0
 16 17  2  0
 19 18  1  1
 19 21  1  0
 20 19  1  0
 22 21  1  6
 22 23  1  0
 22 24  1  0
 23 16  1  0
 24 25  1  0
 26 24  2  0
M  END
$$$$
