VSG.pdb
     RDKit          3D

 18 17  0  0  1  0  0  0  0  0999 V2000
    2.7952  -24.5779   24.6549 C   0  0  0  0  0  0  0  0  0  0  0  0
    2.7053  -24.9176   23.1836 C   0  0  1  0  0  0  0  0  0  0  0  0
    1.3719  -25.5734   22.9137 C   0  0  0  0  0  0  0  0  0  0  0  0
    2.8621  -23.7038   22.3105 C   0  0  2  0  0  0  0  0  0  0  0  0
    2.7152  -24.1024   20.9216 N   0  0  0  0  0  0  0  0  0  0  0  0
    4.1894  -23.0519   22.4923 C   0  0  0  0  0  0  0  0  0  0  0  0
    5.2412  -23.6119   22.1091 O   0  0  0  0  0  0  0  0  0  0  0  0
    6.5052  -18.8563   23.2931 O   0  0  0  0  0  0  0  0  0  0  0  0
    5.3377  -19.5655   23.1545 C   0  0  0  0  0  0  0  0  0  0  0  0
    5.5080  -21.0521   23.3000 C   0  0  2  0  0  0  0  0  0  0  0  0
    4.2876  -21.7870   23.1016 N   0  0  0  0  0  0  0  0  0  0  0  0
    6.1903  -21.4339   24.5477 C   0  0  0  0  0  0  0  0  0  0  0  0
    5.5918  -21.3413   25.6346 O   0  0  0  0  0  0  0  0  0  0  0  0
    7.5239  -21.9081   24.5384 N   0  0  0  0  0  0  0  0  0  0  0  0
    8.2080  -22.2698   25.7659 C   0  0  0  0  0  0  0  0  0  0  0  0
    9.4139  -21.4481   25.9472 C   0  0  0  0  0  0  0  0  0  0  0  0
   10.1972  -21.6692   27.0833 O   0  0  0  0  0  0  0  0  0  0  0  0
    9.7483  -20.5621   25.1096 O   0  0  0  0  0  0  0  0  0  0  0  0
  2  1  1  1
  2  3  1  0
  4  2  1  0
  4  5  1  6
  6  4  1  0
  6 11  1  0
  7  6  2  0
  9  8  1  0
 10 11  1  0
 10  9  1  1
 12 10  1  0
 13 12  2  0
 14 12  1  0
 15 14  1  0
 15 16  1  0
 16 18  2  0
 16 17  1  0
M  END
$$$$
