VSG.pdb
     RDKit          3D

 18 17  0  0  1  0  0  0  0  0999 V2000
    8.1996  -19.8731   20.5675 C   0  0  0  0  0  0  0  0  0  0  0  0
    8.3474  -19.5738   19.0922 C   0  0  1  0  0  0  0  0  0  0  0  0
    7.6283  -20.6412   18.3021 C   0  0  0  0  0  0  0  0  0  0  0  0
    7.8039  -18.2194   18.7308 C   0  0  2  0  0  0  0  0  0  0  0  0
    7.8785  -18.0528   17.2899 N   0  0  0  0  0  0  0  0  0  0  0  0
    8.5628  -17.1187   19.3882 C   0  0  0  0  0  0  0  0  0  0  0  0
    9.7051  -16.7957   18.9912 O   0  0  0  0  0  0  0  0  0  0  0  0
    6.7041  -14.6948   22.4222 O   0  0  0  0  0  0  0  0  0  0  0  0
    7.7851  -14.2867   21.6804 C   0  0  0  0  0  0  0  0  0  0  0  0
    8.6851  -15.4104   21.2476 C   0  0  2  0  0  0  0  0  0  0  0  0
    8.0078  -16.4167   20.4744 N   0  0  0  0  0  0  0  0  0  0  0  0
    9.4577  -15.9897   22.3591 C   0  0  0  0  0  0  0  0  0  0  0  0
    8.8685  -16.5844   23.2796 O   0  0  0  0  0  0  0  0  0  0  0  0
   10.8685  -15.8845   22.4044 N   0  0  0  0  0  0  0  0  0  0  0  0
   11.6291  -16.3782   23.5372 C   0  0  0  0  0  0  0  0  0  0  0  0
   13.0631  -16.1090   23.3539 C   0  0  0  0  0  0  0  0  0  0  0  0
   13.4731  -15.5055   22.1619 O   0  0  0  0  0  0  0  0  0  0  0  0
   13.9154  -16.4081   24.2385 O   0  0  0  0  0  0  0  0  0  0  0  0
  2  1  1  1
  2  3  1  0
  4  2  1  0
  4  5  1  6
  6  4  1  0
  6 11  1  0
  7  6  2  0
  9  8  1  0
 10 11  1  0
 10  9  1  1
 12 10  1  0
 13 12  2  0
 14 12  1  0
 15 14  1  0
 15 16  1  0
 16 18  2  0
 16 17  1  0
M  END
$$$$
