VSG.pdb
     RDKit          3D

 18 17  0  0  1  0  0  0  0  0999 V2000
    6.2318  -10.8440   26.5174 C   0  0  0  0  0  0  0  0  0  0  0  0
    7.0100  -12.0306   25.9936 C   0  0  1  0  0  0  0  0  0  0  0  0
    7.9225  -12.5375   27.0851 C   0  0  0  0  0  0  0  0  0  0  0  0
    6.1082  -13.1396   25.5276 C   0  0  2  0  0  0  0  0  0  0  0  0
    5.3512  -13.6374   26.6628 N   0  0  0  0  0  0  0  0  0  0  0  0
    6.8733  -14.2650   24.9212 C   0  0  0  0  0  0  0  0  0  0  0  0
    7.2204  -15.2529   25.6069 O   0  0  0  0  0  0  0  0  0  0  0  0
    8.9392  -15.9143   20.7659 O   0  0  0  0  0  0  0  0  0  0  0  0
    8.1510  -14.9932   21.4106 C   0  0  0  0  0  0  0  0  0  0  0  0
    8.0611  -15.2034   22.8966 C   0  0  2  0  0  0  0  0  0  0  0  0
    7.2230  -14.2396   23.5581 N   0  0  0  0  0  0  0  0  0  0  0  0
    9.3791  -15.3291   23.5408 C   0  0  0  0  0  0  0  0  0  0  0  0
    9.9690  -14.3124   23.9487 O   0  0  0  0  0  0  0  0  0  0  0  0
    9.9958  -16.5921   23.7081 N   0  0  0  0  0  0  0  0  0  0  0  0
   11.3350  -16.7152   24.2530 C   0  0  0  0  0  0  0  0  0  0  0  0
   11.5333  -18.0481   24.8413 C   0  0  0  0  0  0  0  0  0  0  0  0
   12.7906  -18.3551   25.3688 O   0  0  0  0  0  0  0  0  0  0  0  0
   10.6045  -18.9050   24.8779 O   0  0  0  0  0  0  0  0  0  0  0  0
  2  1  1  1
  2  3  1  0
  4  2  1  0
  4  5  1  1
  6  4  1  0
  6 11  1  0
  7  6  2  0
  9  8  1  0
 10 11  1  0
 10  9  1  6
 12 10  1  0
 13 12  2  0
 14 12  1  0
 15 14  1  0
 15 16  1  0
 16 18  2  0
 16 17  1  0
M  END
$$$$
