VSG.pdb
     RDKit          3D

 18 17  0  0  1  0  0  0  0  0999 V2000
    9.1407  -15.5752   18.2672 C   0  0  0  0  0  0  0  0  0  0  0  0
    8.5062  -14.2391   18.5840 C   0  0  1  0  0  0  0  0  0  0  0  0
    7.4770  -13.9229   17.5249 C   0  0  0  0  0  0  0  0  0  0  0  0
    7.8609  -14.2252   19.9418 C   0  0  2  0  0  0  0  0  0  0  0  0
    7.1941  -12.9489   20.1316 N   0  0  0  0  0  0  0  0  0  0  0  0
    8.8537  -14.4233   21.0348 C   0  0  0  0  0  0  0  0  0  0  0  0
    9.6296  -13.5025   21.3765 O   0  0  0  0  0  0  0  0  0  0  0  0
    8.3761  -16.6420   24.4268 O   0  0  0  0  0  0  0  0  0  0  0  0
    9.4561  -17.0357   23.6758 C   0  0  0  0  0  0  0  0  0  0  0  0
    9.9274  -15.9966   22.6968 C   0  0  2  0  0  0  0  0  0  0  0  0
    8.9394  -15.6561   21.7084 N   0  0  0  0  0  0  0  0  0  0  0  0
   11.2292  -16.3244   22.0917 C   0  0  0  0  0  0  0  0  0  0  0  0
   11.2727  -16.9117   20.9957 O   0  0  0  0  0  0  0  0  0  0  0  0
   12.4431  -15.9834   22.7346 N   0  0  0  0  0  0  0  0  0  0  0  0
   13.7240  -16.4348   22.2237 C   0  0  0  0  0  0  0  0  0  0  0  0
   14.8218  -15.9308   23.0622 C   0  0  0  0  0  0  0  0  0  0  0  0
   16.1299  -16.2781   22.7137 O   0  0  0  0  0  0  0  0  0  0  0  0
   14.6075  -15.2028   24.0734 O   0  0  0  0  0  0  0  0  0  0  0  0
  2  1  1  6
  2  3  1  0
  4  2  1  0
  4  5  1  1
  6  4  1  0
  6 11  1  0
  7  6  2  0
  9  8  1  0
 10 11  1  0
 10  9  1  6
 12 10  1  0
 13 12  2  0
 14 12  1  0
 15 14  1  0
 15 16  1  0
 16 18  2  0
 16 17  1  0
M  END
$$$$
