VSG.pdb
     RDKit          3D

 18 17  0  0  1  0  0  0  0  0999 V2000
    8.3627  -16.5386   18.3604 C   0  0  0  0  0  0  0  0  0  0  0  0
    8.4283  -15.1409   17.7858 C   0  0  1  0  0  0  0  0  0  0  0  0
    7.6667  -15.1118   16.4820 C   0  0  0  0  0  0  0  0  0  0  0  0
    7.8652  -14.1132   18.7278 C   0  0  2  0  0  0  0  0  0  0  0  0
    7.9273  -12.8091   18.0915 N   0  0  0  0  0  0  0  0  0  0  0  0
    8.6148  -14.0637   20.0143 C   0  0  0  0  0  0  0  0  0  0  0  0
    9.7173  -13.4767   20.0965 O   0  0  0  0  0  0  0  0  0  0  0  0
    6.8282  -15.5837   23.6314 O   0  0  0  0  0  0  0  0  0  0  0  0
    7.7973  -14.6112   23.6074 C   0  0  0  0  0  0  0  0  0  0  0  0
    8.7488  -14.7291   22.4494 C   0  0  2  0  0  0  0  0  0  0  0  0
    8.0958  -14.6790   21.1688 N   0  0  0  0  0  0  0  0  0  0  0  0
    9.6570  -15.8822   22.5657 C   0  0  0  0  0  0  0  0  0  0  0  0
    9.2392  -17.0275   22.3173 O   0  0  0  0  0  0  0  0  0  0  0  0
   11.0069  -15.7155   22.9573 N   0  0  0  0  0  0  0  0  0  0  0  0
   11.8652  -16.8551   23.2222 C   0  0  0  0  0  0  0  0  0  0  0  0
   13.2471  -16.4158   23.4664 C   0  0  0  0  0  0  0  0  0  0  0  0
   14.2033  -17.3882   23.7720 O   0  0  0  0  0  0  0  0  0  0  0  0
   13.5794  -15.1975   23.4059 O   0  0  0  0  0  0  0  0  0  0  0  0
  2  1  1  1
  2  3  1  0
  4  2  1  0
  4  5  1  6
  6  4  1  0
  6 11  1  0
  7  6  2  0
  9  8  1  0
 10 11  1  0
 10  9  1  1
 12 10  1  0
 13 12  2  0
 14 12  1  0
 15 14  1  0
 15 16  1  0
 16 18  2  0
 16 17  1  0
M  END
$$$$
