VSG.pdb
     RDKit          3D

 18 17  0  0  1  0  0  0  0  0999 V2000
    9.2197  -12.2865   19.4861 C   0  0  0  0  0  0  0  0  0  0  0  0
    8.4904  -13.3663   20.2544 C   0  0  1  0  0  0  0  0  0  0  0  0
    7.0970  -12.8810   20.5767 C   0  0  0  0  0  0  0  0  0  0  0  0
    8.4156  -14.6568   19.4867 C   0  0  2  0  0  0  0  0  0  0  0  0
    7.5598  -15.5829   20.2075 N   0  0  0  0  0  0  0  0  0  0  0  0
    9.7578  -15.2765   19.3026 C   0  0  0  0  0  0  0  0  0  0  0  0
   10.2954  -15.9361   20.2206 O   0  0  0  0  0  0  0  0  0  0  0  0
   11.4169  -16.2491   15.5631 O   0  0  0  0  0  0  0  0  0  0  0  0
   12.1993  -15.4872   16.3954 C   0  0  0  0  0  0  0  0  0  0  0  0
   11.8018  -15.5644   17.8433 C   0  0  2  0  0  0  0  0  0  0  0  0
   10.4517  -15.1320   18.0867 N   0  0  0  0  0  0  0  0  0  0  0  0
   12.7664  -14.9072   18.7408 C   0  0  0  0  0  0  0  0  0  0  0  0
   12.9195  -13.6735   18.6896 O   0  0  0  0  0  0  0  0  0  0  0  0
   13.5305  -15.6542   19.6691 N   0  0  0  0  0  0  0  0  0  0  0  0
   14.4267  -15.0061   20.6084 C   0  0  0  0  0  0  0  0  0  0  0  0
   15.8188  -15.4055   20.3545 C   0  0  0  0  0  0  0  0  0  0  0  0
   16.0853  -16.1844   19.2251 O   0  0  0  0  0  0  0  0  0  0  0  0
   16.7611  -15.0635   21.1249 O   0  0  0  0  0  0  0  0  0  0  0  0
  2  1  1  6
  2  3  1  0
  4  2  1  0
  4  5  1  1
  6  4  1  0
  6 11  1  0
  7  6  2  0
  9  8  1  0
 10 11  1  0
 10  9  1  6
 12 10  1  0
 13 12  2  0
 14 12  1  0
 15 14  1  0
 15 16  1  0
 16 18  2  0
 16 17  1  0
M  END
$$$$
