VSG.pdb
     RDKit          3D

 18 17  0  0  1  0  0  0  0  0999 V2000
    7.1439  -16.7965   22.9421 C   0  0  0  0  0  0  0  0  0  0  0  0
    7.5812  -15.9502   21.7671 C   0  0  1  0  0  0  0  0  0  0  0  0
    7.0417  -16.5619   20.4961 C   0  0  0  0  0  0  0  0  0  0  0  0
    7.1115  -14.5270   21.8869 C   0  0  2  0  0  0  0  0  0  0  0  0
    7.4505  -13.8165   20.6664 N   0  0  0  0  0  0  0  0  0  0  0  0
    7.7342  -13.8285   23.0461 C   0  0  0  0  0  0  0  0  0  0  0  0
    8.9206  -13.4321   22.9994 O   0  0  0  0  0  0  0  0  0  0  0  0
    5.4649  -13.1715   26.6823 O   0  0  0  0  0  0  0  0  0  0  0  0
    6.4235  -12.2994   26.2286 C   0  0  0  0  0  0  0  0  0  0  0  0
    7.4991  -12.9521   25.4056 C   0  0  2  0  0  0  0  0  0  0  0  0
    6.9972  -13.5990   24.2230 N   0  0  0  0  0  0  0  0  0  0  0  0
    8.3713  -13.8369   26.1958 C   0  0  0  0  0  0  0  0  0  0  0  0
    8.9365  -13.4009   27.2149 O   0  0  0  0  0  0  0  0  0  0  0  0
    8.5834  -15.1846   25.8186 N   0  0  0  0  0  0  0  0  0  0  0  0
    9.3257  -16.1003   26.6647 C   0  0  0  0  0  0  0  0  0  0  0  0
   10.6270  -16.4228   26.0606 C   0  0  0  0  0  0  0  0  0  0  0  0
   11.4621  -17.3187   26.7338 O   0  0  0  0  0  0  0  0  0  0  0  0
   10.9968  -15.9137   24.9640 O   0  0  0  0  0  0  0  0  0  0  0  0
  2  1  1  1
  2  3  1  0
  4  2  1  0
  4  5  1  6
  6  4  1  0
  6 11  1  0
  7  6  2  0
  9  8  1  0
 10 11  1  0
 10  9  1  1
 12 10  1  0
 13 12  2  0
 14 12  1  0
 15 14  1  0
 15 16  1  0
 16 18  2  0
 16 17  1  0
M  END
$$$$
