VSG.pdb
     RDKit          3D

 18 17  0  0  1  0  0  0  0  0999 V2000
    1.2817  -23.2219   23.7783 C   0  0  0  0  0  0  0  0  0  0  0  0
    2.7413  -22.8253   23.7575 C   0  0  1  0  0  0  0  0  0  0  0  0
    3.5821  -24.0374   24.0814 C   0  0  0  0  0  0  0  0  0  0  0  0
    3.1562  -22.2579   22.4285 C   0  0  2  0  0  0  0  0  0  0  0  0
    2.9384  -23.2611   21.4011 N   0  0  0  0  0  0  0  0  0  0  0  0
    4.5896  -21.8519   22.4168 C   0  0  0  0  0  0  0  0  0  0  0  0
    5.4918  -22.6772   22.1491 O   0  0  0  0  0  0  0  0  0  0  0  0
    7.7963  -18.3049   21.9633 O   0  0  0  0  0  0  0  0  0  0  0  0
    6.4922  -18.7304   22.0232 C   0  0  0  0  0  0  0  0  0  0  0  0
    6.3094  -20.0304   22.7557 C   0  0  2  0  0  0  0  0  0  0  0  0
    4.9598  -20.5257   22.7081 N   0  0  0  0  0  0  0  0  0  0  0  0
    6.8415  -19.9975   24.1283 C   0  0  0  0  0  0  0  0  0  0  0  0
    6.2127  -19.4033   25.0225 O   0  0  0  0  0  0  0  0  0  0  0  0
    8.0633  -20.6322   24.4562 N   0  0  0  0  0  0  0  0  0  0  0  0
    8.6118  -20.5725   25.7983 C   0  0  0  0  0  0  0  0  0  0  0  0
    9.9884  -20.0561   25.7717 C   0  0  0  0  0  0  0  0  0  0  0  0
   10.6781  -19.9562   26.9831 O   0  0  0  0  0  0  0  0  0  0  0  0
   10.5483  -19.7075   24.6932 O   0  0  0  0  0  0  0  0  0  0  0  0
  2  1  1  6
  2  3  1  0
  4  2  1  0
  4  5  1  6
  6  4  1  0
  6 11  1  0
  7  6  2  0
  9  8  1  0
 10 11  1  0
 10  9  1  1
 12 10  1  0
 13 12  2  0
 14 12  1  0
 15 14  1  0
 15 16  1  0
 16 18  2  0
 16 17  1  0
M  END
$$$$
