VSG.pdb
     RDKit          3D

 18 17  0  0  1  0  0  0  0  0999 V2000
    6.1016  -21.5024   20.8728 C   0  0  0  0  0  0  0  0  0  0  0  0
    7.3242  -20.9233   21.5495 C   0  0  1  0  0  0  0  0  0  0  0  0
    8.2247  -22.0551   21.9845 C   0  0  0  0  0  0  0  0  0  0  0  0
    8.0813  -19.9872   20.6489 C   0  0  2  0  0  0  0  0  0  0  0  0
    8.4614  -20.7014   19.4426 N   0  0  0  0  0  0  0  0  0  0  0  0
    9.3070  -19.4504   21.3038 C   0  0  0  0  0  0  0  0  0  0  0  0
   10.3538  -20.1334   21.3725 O   0  0  0  0  0  0  0  0  0  0  0  0
   11.7522  -15.5924   22.8568 O   0  0  0  0  0  0  0  0  0  0  0  0
   10.6312  -16.1245   22.2689 C   0  0  0  0  0  0  0  0  0  0  0  0
   10.4026  -17.5740   22.5958 C   0  0  2  0  0  0  0  0  0  0  0  0
    9.3126  -18.1581   21.8612 N   0  0  0  0  0  0  0  0  0  0  0  0
   10.2978  -17.8283   24.0423 C   0  0  0  0  0  0  0  0  0  0  0  0
    9.2285  -17.5996   24.6358 O   0  0  0  0  0  0  0  0  0  0  0  0
   11.3962  -18.3318   24.7796 N   0  0  0  0  0  0  0  0  0  0  0  0
   11.2939  -18.6030   26.2013 C   0  0  0  0  0  0  0  0  0  0  0  0
   12.6029  -18.9875   26.7498 C   0  0  0  0  0  0  0  0  0  0  0  0
   12.6714  -19.3521   28.0973 O   0  0  0  0  0  0  0  0  0  0  0  0
   13.6476  -18.9941   26.0378 O   0  0  0  0  0  0  0  0  0  0  0  0
  2  1  1  6
  2  3  1  0
  4  2  1  0
  4  5  1  6
  6  4  1  0
  6 11  1  0
  7  6  2  0
  9  8  1  0
 10 11  1  0
 10  9  1  1
 12 10  1  0
 13 12  2  0
 14 12  1  0
 15 14  1  0
 15 16  1  0
 16 18  2  0
 16 17  1  0
M  END
$$$$
