VSG.pdb
     RDKit          3D

 18 17  0  0  1  0  0  0  0  0999 V2000
    2.7392  -23.4525   27.3132 C   0  0  0  0  0  0  0  0  0  0  0  0
    4.1494  -23.4198   27.8594 C   0  0  1  0  0  0  0  0  0  0  0  0
    4.1153  -22.8814   29.2700 C   0  0  0  0  0  0  0  0  0  0  0  0
    4.7940  -24.7780   27.8479 C   0  0  2  0  0  0  0  0  0  0  0  0
    4.0088  -25.6772   28.6752 N   0  0  0  0  0  0  0  0  0  0  0  0
    6.1915  -24.7380   28.3625 C   0  0  0  0  0  0  0  0  0  0  0  0
    6.4459  -24.9992   29.5599 O   0  0  0  0  0  0  0  0  0  0  0  0
    9.5243  -23.3398   25.8894 O   0  0  0  0  0  0  0  0  0  0  0  0
    9.5842  -24.4371   26.7127 C   0  0  0  0  0  0  0  0  0  0  0  0
    8.6465  -24.3693   27.8858 C   0  0  2  0  0  0  0  0  0  0  0  0
    7.2590  -24.4041   27.5083 N   0  0  0  0  0  0  0  0  0  0  0  0
    8.9465  -23.2536   28.7987 C   0  0  0  0  0  0  0  0  0  0  0  0
    8.2145  -22.2475   28.8091 O   0  0  0  0  0  0  0  0  0  0  0  0
   10.0589  -23.3003   29.6726 N   0  0  0  0  0  0  0  0  0  0  0  0
   10.3970  -22.1790   30.5293 C   0  0  0  0  0  0  0  0  0  0  0  0
   11.5556  -22.5047   31.3741 C   0  0  0  0  0  0  0  0  0  0  0  0
   11.9868  -21.5489   32.2981 O   0  0  0  0  0  0  0  0  0  0  0  0
   12.1572  -23.6128   31.2813 O   0  0  0  0  0  0  0  0  0  0  0  0
  2  1  1  1
  2  3  1  0
  4  2  1  0
  4  5  1  1
  6  4  1  0
  6 11  1  0
  7  6  2  0
  9  8  1  0
 10 11  1  0
 10  9  1  6
 12 10  1  0
 13 12  2  0
 14 12  1  0
 15 14  1  0
 15 16  1  0
 16 18  2  0
 16 17  1  0
M  END
$$$$
