DFP.pdb
     RDKit          3D

 27 28  0  0  1  0  0  0  0  0999 V2000
   11.5407  -16.4734   20.2519 N   0  0  0  0  0  0  0  0  0  0  0  0
   11.1207  -17.1326   21.4716 C   0  0  1  0  0  0  0  0  0  0  0  0
   12.1178  -18.1100   21.9763 C   0  0  0  0  0  0  0  0  0  0  0  0
   12.9340  -18.7352   20.9337 C   0  0  0  0  0  0  0  0  0  0  0  0
   14.1892  -18.5890   21.0059 O   0  0  0  0  0  0  0  0  0  0  0  0
   10.6970  -16.1865   22.5001 C   0  0  0  0  0  0  0  0  0  0  0  0
   11.5354  -15.2970   22.8438 O   0  0  0  0  0  0  0  0  0  0  0  0
   12.4498  -19.4697   19.8800 O   0  0  0  0  0  0  0  0  0  0  0  0
    9.3991  -16.2785   23.0662 N   0  0  0  0  0  0  0  0  0  0  0  0
    8.9382  -15.3696   24.0940 C   0  0  1  0  0  0  0  0  0  0  0  0
    7.5862  -14.8547   23.8240 C   0  0  0  0  0  0  0  0  0  0  0  0
    7.1997  -13.8811   24.9310 C   0  0  0  0  0  0  0  0  0  0  0  0
    6.5131  -14.2889   26.0468 C   0  0  0  0  0  0  0  0  0  0  0  0
    6.1647  -13.3771   27.0361 C   0  0  0  0  0  0  0  0  0  0  0  0
    6.4929  -12.0462   26.9333 C   0  0  0  0  0  0  0  0  0  0  0  0
    7.1809  -11.6654   25.8055 C   0  0  0  0  0  0  0  0  0  0  0  0
    7.5349  -12.5522   24.8149 C   0  0  0  0  0  0  0  0  0  0  0  0
    9.2379  -15.9245   25.4105 C   0  0  0  0  0  0  0  0  0  0  0  0
    9.0625  -17.2091   25.4999 O   0  0  0  0  0  0  0  0  0  0  0  0
    9.6794  -15.3210   26.5849 N   0  0  0  0  0  0  0  0  0  0  0  0
    9.6372  -13.8827   26.8111 C   0  0  0  0  0  0  0  0  0  0  0  0
   10.8521  -13.6409   27.6705 C   0  0  0  0  0  0  0  0  0  0  0  0
   10.6443  -14.7657   28.6978 C   0  0  0  0  0  0  0  0  0  0  0  0
   10.2399  -15.9140   27.7614 C   0  0  1  0  0  0  0  0  0  0  0  0
    9.3235  -16.7721   28.5262 C   0  0  0  0  0  0  0  0  0  0  0  0
    9.7363  -17.4912   29.6342 O   0  0  0  0  0  0  0  0  0  0  0  0
    8.1366  -16.8447   28.1502 O   0  0  0  0  0  0  0  0  0  0  0  0
  2  3  1  0
  2  1  1  6
  4  3  1  0
  5  4  2  0
  6  7  2  0
  6  2  1  0
  8  4  1  0
  9  6  1  0
 10 11  1  1
 10  9  1  0
 11 12  1  0
 12 17  2  0
 13 14  2  0
 13 12  1  0
 14 15  1  0
 15 16  2  0
 17 16  1  0
 18 10  1  0
 19 18  2  0
 20 18  1  0
 20 21  1  0
 21 22  1  0
 23 22  1  0
 24 23  1  0
 24 20  1  0
 24 25  1  1
 26 25  1  0
 27 25  2  0
M  END
$$$$
