DFP.pdb
     RDKit          3D

 27 28  0  0  1  0  0  0  0  0999 V2000
   11.6890  -16.4114   20.3296 N   0  0  0  0  0  0  0  0  0  0  0  0
   10.9786  -17.0364   21.4266 C   0  0  1  0  0  0  0  0  0  0  0  0
   11.6920  -18.2126   21.9851 C   0  0  0  0  0  0  0  0  0  0  0  0
   12.1224  -19.1908   20.9841 C   0  0  0  0  0  0  0  0  0  0  0  0
   11.2453  -19.6418   20.1908 O   0  0  0  0  0  0  0  0  0  0  0  0
   10.5900  -16.0784   22.4579 C   0  0  0  0  0  0  0  0  0  0  0  0
   11.4392  -15.1847   22.7621 O   0  0  0  0  0  0  0  0  0  0  0  0
   13.4029  -19.6618   20.8335 O   0  0  0  0  0  0  0  0  0  0  0  0
    9.3125  -16.1640   23.0694 N   0  0  0  0  0  0  0  0  0  0  0  0
    8.9005  -15.2664   24.1274 C   0  0  1  0  0  0  0  0  0  0  0  0
    7.5513  -14.7208   23.9083 C   0  0  0  0  0  0  0  0  0  0  0  0
    7.2110  -13.7736   25.0526 C   0  0  0  0  0  0  0  0  0  0  0  0
    7.5604  -12.4471   25.0228 C   0  0  0  0  0  0  0  0  0  0  0  0
    7.2460  -11.6081   26.0854 C   0  0  0  0  0  0  0  0  0  0  0  0
    6.5795  -12.0732   27.1940 C   0  0  0  0  0  0  0  0  0  0  0  0
    6.2413  -13.4059   27.1972 C   0  0  0  0  0  0  0  0  0  0  0  0
    6.5435  -14.2526   26.1557 C   0  0  0  0  0  0  0  0  0  0  0  0
    9.2286  -15.8521   25.4238 C   0  0  0  0  0  0  0  0  0  0  0  0
    9.0489  -17.1375   25.4886 O   0  0  0  0  0  0  0  0  0  0  0  0
    9.7009  -15.2770   26.6005 N   0  0  0  0  0  0  0  0  0  0  0  0
    9.6453  -13.8469   26.8715 C   0  0  0  0  0  0  0  0  0  0  0  0
   10.8851  -13.6118   27.6966 C   0  0  0  0  0  0  0  0  0  0  0  0
   10.7290  -14.7700   28.6957 C   0  0  0  0  0  0  0  0  0  0  0  0
   10.3098  -15.8959   27.7389 C   0  0  1  0  0  0  0  0  0  0  0  0
    9.4327  -16.7908   28.5076 C   0  0  0  0  0  0  0  0  0  0  0  0
    9.9007  -17.5609   29.5580 O   0  0  0  0  0  0  0  0  0  0  0  0
    8.2283  -16.8475   28.1893 O   0  0  0  0  0  0  0  0  0  0  0  0
  2  3  1  0
  2  1  1  6
  4  3  1  0
  5  4  2  0
  6  7  2  0
  6  2  1  0
  8  4  1  0
  9  6  1  0
 10 11  1  1
 10  9  1  0
 11 12  1  0
 12 17  2  0
 13 14  2  0
 13 12  1  0
 14 15  1  0
 15 16  2  0
 17 16  1  0
 18 10  1  0
 19 18  2  0
 20 18  1  0
 20 21  1  0
 21 22  1  0
 23 22  1  0
 24 23  1  0
 24 20  1  0
 24 25  1  1
 26 25  1  0
 27 25  2  0
M  END
$$$$
