DFP.pdb
     RDKit          3D

 27 28  0  0  1  0  0  0  0  0999 V2000
   11.4754  -16.5742   20.0695 N   0  0  0  0  0  0  0  0  0  0  0  0
   11.1450  -17.1765   21.3449 C   0  0  1  0  0  0  0  0  0  0  0  0
   12.2110  -18.0744   21.8565 C   0  0  0  0  0  0  0  0  0  0  0  0
   12.4308  -19.2750   21.0477 C   0  0  0  0  0  0  0  0  0  0  0  0
   13.2319  -19.1855   20.0719 O   0  0  0  0  0  0  0  0  0  0  0  0
   10.7237  -16.1899   22.3357 C   0  0  0  0  0  0  0  0  0  0  0  0
   11.4312  -15.1407   22.4395 O   0  0  0  0  0  0  0  0  0  0  0  0
   11.8382  -20.4949   21.2601 O   0  0  0  0  0  0  0  0  0  0  0  0
    9.5683  -16.4187   23.1270 N   0  0  0  0  0  0  0  0  0  0  0  0
    9.0857  -15.4500   24.0880 C   0  0  1  0  0  0  0  0  0  0  0  0
    7.7396  -14.9542   23.7590 C   0  0  0  0  0  0  0  0  0  0  0  0
    7.3094  -13.9528   24.8241 C   0  0  0  0  0  0  0  0  0  0  0  0
    7.6116  -12.6179   24.7272 C   0  0  0  0  0  0  0  0  0  0  0  0
    7.2152  -11.7284   25.7188 C   0  0  0  0  0  0  0  0  0  0  0  0
    6.5122  -12.1504   26.8220 C   0  0  0  0  0  0  0  0  0  0  0  0
    6.2227  -13.4926   26.8934 C   0  0  0  0  0  0  0  0  0  0  0  0
    6.6061  -14.3891   25.9227 C   0  0  0  0  0  0  0  0  0  0  0  0
    9.3576  -15.9238   25.4417 C   0  0  0  0  0  0  0  0  0  0  0  0
    9.1479  -17.1948   25.6136 O   0  0  0  0  0  0  0  0  0  0  0  0
    9.8029  -15.2552   26.5788 N   0  0  0  0  0  0  0  0  0  0  0  0
    9.7767  -13.8053   26.7171 C   0  0  0  0  0  0  0  0  0  0  0  0
   10.9920  -13.5257   27.5644 C   0  0  0  0  0  0  0  0  0  0  0  0
   10.7685  -14.5837   28.6574 C   0  0  0  0  0  0  0  0  0  0  0  0
   10.3533  -15.7819   27.7910 C   0  0  1  0  0  0  0  0  0  0  0  0
    9.4249  -16.5815   28.6033 C   0  0  0  0  0  0  0  0  0  0  0  0
    8.0870  -16.7181   28.2769 O   0  0  0  0  0  0  0  0  0  0  0  0
    9.8736  -17.1493   29.6190 O   0  0  0  0  0  0  0  0  0  0  0  0
  2  3  1  0
  2  1  1  6
  4  3  1  0
  5  4  2  0
  6  7  2  0
  6  2  1  0
  8  4  1  0
  9  6  1  0
 10 11  1  1
 10  9  1  0
 11 12  1  0
 12 17  2  0
 13 14  2  0
 13 12  1  0
 14 15  1  0
 15 16  2  0
 17 16  1  0
 18 10  1  0
 19 18  2  0
 20 18  1  0
 20 21  1  0
 21 22  1  0
 23 22  1  0
 24 23  1  0
 24 20  1  0
 24 25  1  1
 26 25  1  0
 27 25  2  0
M  END
$$$$
