DFP.pdb
     RDKit          3D

 27 28  0  0  1  0  0  0  0  0999 V2000
   10.5323  -17.2489   20.4661 N   0  0  0  0  0  0  0  0  0  0  0  0
   11.4307  -17.0749   21.5891 C   0  0  1  0  0  0  0  0  0  0  0  0
   12.8200  -16.7524   21.1766 C   0  0  0  0  0  0  0  0  0  0  0  0
   13.3895  -17.6763   20.1937 C   0  0  0  0  0  0  0  0  0  0  0  0
   12.8675  -17.7001   19.0409 O   0  0  0  0  0  0  0  0  0  0  0  0
   10.9109  -16.1364   22.5797 C   0  0  0  0  0  0  0  0  0  0  0  0
   11.6362  -15.1315   22.8560 O   0  0  0  0  0  0  0  0  0  0  0  0
   14.4468  -18.5224   20.4188 O   0  0  0  0  0  0  0  0  0  0  0  0
    9.6467  -16.3606   23.1837 N   0  0  0  0  0  0  0  0  0  0  0  0
    9.0947  -15.4637   24.1765 C   0  0  1  0  0  0  0  0  0  0  0  0
    7.7241  -15.0383   23.8498 C   0  0  0  0  0  0  0  0  0  0  0  0
    7.2244  -14.1030   24.9443 C   0  0  0  0  0  0  0  0  0  0  0  0
    6.4844  -14.5602   26.0054 C   0  0  0  0  0  0  0  0  0  0  0  0
    6.0330  -13.6828   26.9841 C   0  0  0  0  0  0  0  0  0  0  0  0
    6.3097  -12.3376   26.9248 C   0  0  0  0  0  0  0  0  0  0  0  0
    7.0531  -11.9069   25.8513 C   0  0  0  0  0  0  0  0  0  0  0  0
    7.5090  -12.7592   24.8722 C   0  0  0  0  0  0  0  0  0  0  0  0
    9.3806  -15.9752   25.5136 C   0  0  0  0  0  0  0  0  0  0  0  0
    9.2855  -17.2667   25.6216 O   0  0  0  0  0  0  0  0  0  0  0  0
    9.7383  -15.3241   26.6910 N   0  0  0  0  0  0  0  0  0  0  0  0
    9.6676  -13.8790   26.8604 C   0  0  0  0  0  0  0  0  0  0  0  0
   10.8211  -13.5916   27.7877 C   0  0  0  0  0  0  0  0  0  0  0  0
   10.5571  -14.6807   28.8404 C   0  0  0  0  0  0  0  0  0  0  0  0
   10.2259  -15.8670   27.9228 C   0  0  1  0  0  0  0  0  0  0  0  0
    9.2695  -16.7076   28.6575 C   0  0  0  0  0  0  0  0  0  0  0  0
    9.6383  -17.4518   29.7644 O   0  0  0  0  0  0  0  0  0  0  0  0
    8.0892  -16.7413   28.2563 O   0  0  0  0  0  0  0  0  0  0  0  0
  2  3  1  0
  2  1  1  6
  4  3  1  0
  5  4  2  0
  6  7  2  0
  6  2  1  0
  8  4  1  0
  9  6  1  0
 10 11  1  6
 10  9  1  0
 11 12  1  0
 12 17  2  0
 13 14  2  0
 13 12  1  0
 14 15  1  0
 15 16  2  0
 17 16  1  0
 18 10  1  0
 19 18  2  0
 20 18  1  0
 20 21  1  0
 21 22  1  0
 23 22  1  0
 24 23  1  0
 24 20  1  0
 24 25  1  1
 26 25  1  0
 27 25  2  0
M  END
$$$$
