DFP.pdb
     RDKit          3D

 27 28  0  0  1  0  0  0  0  0999 V2000
   11.7003  -16.6404   20.5730 N   0  0  0  0  0  0  0  0  0  0  0  0
   10.6658  -17.1262   21.4632 C   0  0  1  0  0  0  0  0  0  0  0  0
   10.9444  -18.4861   21.9896 C   0  0  0  0  0  0  0  0  0  0  0  0
   10.8103  -19.5573   21.0004 C   0  0  0  0  0  0  0  0  0  0  0  0
   10.8662  -19.2358   19.7775 O   0  0  0  0  0  0  0  0  0  0  0  0
   10.3476  -16.1725   22.5223 C   0  0  0  0  0  0  0  0  0  0  0  0
   11.2916  -15.4257   22.9265 O   0  0  0  0  0  0  0  0  0  0  0  0
   10.6283  -20.8869   21.2894 O   0  0  0  0  0  0  0  0  0  0  0  0
    9.0327  -16.1025   23.0510 N   0  0  0  0  0  0  0  0  0  0  0  0
    8.6807  -15.2054   24.1308 C   0  0  1  0  0  0  0  0  0  0  0  0
    7.3540  -14.5959   23.9456 C   0  0  0  0  0  0  0  0  0  0  0  0
    7.0885  -13.6341   25.0975 C   0  0  0  0  0  0  0  0  0  0  0  0
    6.4386  -14.0326   26.2383 C   0  0  0  0  0  0  0  0  0  0  0  0
    6.2009  -13.1312   27.2692 C   0  0  0  0  0  0  0  0  0  0  0  0
    6.6051  -11.8202   27.1836 C   0  0  0  0  0  0  0  0  0  0  0  0
    7.2541  -11.4483   26.0299 C   0  0  0  0  0  0  0  0  0  0  0  0
    7.4988  -12.3250   24.9982 C   0  0  0  0  0  0  0  0  0  0  0  0
    9.0050  -15.8271   25.4112 C   0  0  0  0  0  0  0  0  0  0  0  0
    8.7213  -17.0936   25.4757 O   0  0  0  0  0  0  0  0  0  0  0  0
    9.5655  -15.3031   26.5730 N   0  0  0  0  0  0  0  0  0  0  0  0
    9.6063  -13.8777   26.8702 C   0  0  0  0  0  0  0  0  0  0  0  0
   10.8955  -13.7304   27.6380 C   0  0  0  0  0  0  0  0  0  0  0  0
   10.7197  -14.8969   28.6240 C   0  0  0  0  0  0  0  0  0  0  0  0
   10.1906  -15.9780   27.6701 C   0  0  1  0  0  0  0  0  0  0  0  0
    9.3003  -16.8358   28.4654 C   0  0  0  0  0  0  0  0  0  0  0  0
    7.9441  -16.9336   28.2074 O   0  0  0  0  0  0  0  0  0  0  0  0
    9.7993  -17.4908   29.4021 O   0  0  0  0  0  0  0  0  0  0  0  0
  2  3  1  0
  2  1  1  1
  4  3  1  0
  5  4  2  0
  6  7  2  0
  6  2  1  0
  8  4  1  0
  9  6  1  0
 10 11  1  1
 10  9  1  0
 11 12  1  0
 12 17  2  0
 13 14  2  0
 13 12  1  0
 14 15  1  0
 15 16  2  0
 17 16  1  0
 18 10  1  0
 19 18  2  0
 20 18  1  0
 20 21  1  0
 21 22  1  0
 23 22  1  0
 24 23  1  0
 24 20  1  0
 24 25  1  1
 26 25  1  0
 27 25  2  0
M  END
$$$$
