DFP.pdb
     RDKit          3D

 27 28  0  0  1  0  0  0  0  0999 V2000
   11.7467  -16.4641   20.4170 N   0  0  0  0  0  0  0  0  0  0  0  0
   11.0398  -17.1098   21.5042 C   0  0  1  0  0  0  0  0  0  0  0  0
   11.7757  -18.2697   22.0676 C   0  0  0  0  0  0  0  0  0  0  0  0
   12.0538  -19.3362   21.1037 C   0  0  0  0  0  0  0  0  0  0  0  0
   13.2649  -19.6469   20.9069 O   0  0  0  0  0  0  0  0  0  0  0  0
   10.6158  -16.1648   22.5336 C   0  0  0  0  0  0  0  0  0  0  0  0
   11.4318  -15.2404   22.8369 O   0  0  0  0  0  0  0  0  0  0  0  0
   11.1069  -20.0304   20.3925 O   0  0  0  0  0  0  0  0  0  0  0  0
    9.3417  -16.2957   23.1443 N   0  0  0  0  0  0  0  0  0  0  0  0
    8.8754  -15.3796   24.1631 C   0  0  1  0  0  0  0  0  0  0  0  0
    7.5297  -14.8573   23.8762 C   0  0  0  0  0  0  0  0  0  0  0  0
    7.1208  -13.9075   24.9957 C   0  0  0  0  0  0  0  0  0  0  0  0
    7.4997  -12.5888   25.0009 C   0  0  0  0  0  0  0  0  0  0  0  0
    7.1207  -11.7474   26.0402 C   0  0  0  0  0  0  0  0  0  0  0  0
    6.3593  -12.2022   27.0904 C   0  0  0  0  0  0  0  0  0  0  0  0
    5.9935  -13.5272   27.0595 C   0  0  0  0  0  0  0  0  0  0  0  0
    6.3585  -14.3763   26.0402 C   0  0  0  0  0  0  0  0  0  0  0  0
    9.1571  -15.9307   25.4852 C   0  0  0  0  0  0  0  0  0  0  0  0
    9.0559  -17.2243   25.5559 O   0  0  0  0  0  0  0  0  0  0  0  0
    9.5163  -15.3154   26.6814 N   0  0  0  0  0  0  0  0  0  0  0  0
    9.2892  -13.9028   26.9551 C   0  0  0  0  0  0  0  0  0  0  0  0
   10.4622  -13.5361   27.8285 C   0  0  0  0  0  0  0  0  0  0  0  0
   10.3999  -14.7123   28.8167 C   0  0  0  0  0  0  0  0  0  0  0  0
   10.1473  -15.8707   27.8404 C   0  0  1  0  0  0  0  0  0  0  0  0
    9.3482  -16.8648   28.5713 C   0  0  0  0  0  0  0  0  0  0  0  0
    9.8472  -17.5578   29.6603 O   0  0  0  0  0  0  0  0  0  0  0  0
    8.1826  -17.0805   28.1836 O   0  0  0  0  0  0  0  0  0  0  0  0
  2  3  1  0
  2  1  1  6
  4  3  1  0
  5  4  2  0
  6  7  2  0
  6  2  1  0
  8  4  1  0
  9  6  1  0
 10 11  1  1
 10  9  1  0
 11 12  1  0
 12 17  2  0
 13 14  2  0
 13 12  1  0
 14 15  1  0
 15 16  2  0
 17 16  1  0
 18 10  1  0
 19 18  2  0
 20 18  1  0
 20 21  1  0
 21 22  1  0
 23 22  1  0
 24 23  1  0
 24 20  1  0
 24 25  1  1
 26 25  1  0
 27 25  2  0
M  END
$$$$
