DFP.pdb
     RDKit          3D

 27 28  0  0  1  0  0  0  0  0999 V2000
   10.4935  -17.3552   20.4123 N   0  0  0  0  0  0  0  0  0  0  0  0
   11.4101  -17.2256   21.5267 C   0  0  1  0  0  0  0  0  0  0  0  0
   12.8129  -16.9914   21.1004 C   0  0  0  0  0  0  0  0  0  0  0  0
   13.2679  -17.8596   20.0127 C   0  0  0  0  0  0  0  0  0  0  0  0
   13.0175  -19.0968   20.1068 O   0  0  0  0  0  0  0  0  0  0  0  0
   10.9562  -16.2484   22.5122 C   0  0  0  0  0  0  0  0  0  0  0  0
   11.7788  -15.3390   22.8416 O   0  0  0  0  0  0  0  0  0  0  0  0
   13.9463  -17.4424   18.8946 O   0  0  0  0  0  0  0  0  0  0  0  0
    9.6476  -16.3335   23.0542 N   0  0  0  0  0  0  0  0  0  0  0  0
    9.1662  -15.4106   24.0599 C   0  0  1  0  0  0  0  0  0  0  0  0
    7.7928  -14.9542   23.7929 C   0  0  0  0  0  0  0  0  0  0  0  0
    7.3996  -13.9299   24.8506 C   0  0  0  0  0  0  0  0  0  0  0  0
    7.7273  -12.6029   24.7306 C   0  0  0  0  0  0  0  0  0  0  0  0
    7.3644  -11.6923   25.7158 C   0  0  0  0  0  0  0  0  0  0  0  0
    6.6701  -12.0848   26.8354 C   0  0  0  0  0  0  0  0  0  0  0  0
    6.3546  -13.4198   26.9296 C   0  0  0  0  0  0  0  0  0  0  0  0
    6.7047  -14.3369   25.9656 C   0  0  0  0  0  0  0  0  0  0  0  0
    9.5028  -15.9130   25.3886 C   0  0  0  0  0  0  0  0  0  0  0  0
    9.5580  -17.2087   25.4702 O   0  0  0  0  0  0  0  0  0  0  0  0
    9.7761  -15.2492   26.5816 N   0  0  0  0  0  0  0  0  0  0  0  0
    9.5405  -13.8252   26.7779 C   0  0  0  0  0  0  0  0  0  0  0  0
   10.6475  -13.4274   27.7210 C   0  0  0  0  0  0  0  0  0  0  0  0
   10.5018  -14.5603   28.7501 C   0  0  0  0  0  0  0  0  0  0  0  0
   10.3139  -15.7579   27.8071 C   0  0  1  0  0  0  0  0  0  0  0  0
    9.4542  -16.7161   28.5168 C   0  0  0  0  0  0  0  0  0  0  0  0
    9.8186  -18.0380   28.7039 O   0  0  0  0  0  0  0  0  0  0  0  0
    8.3615  -16.3085   28.9587 O   0  0  0  0  0  0  0  0  0  0  0  0
  2  3  1  0
  2  1  1  6
  4  3  1  0
  5  4  2  0
  6  7  2  0
  6  2  1  0
  8  4  1  0
  9  6  1  0
 10 11  1  1
 10  9  1  0
 11 12  1  0
 12 17  2  0
 13 14  2  0
 13 12  1  0
 14 15  1  0
 15 16  2  0
 17 16  1  0
 18 10  1  0
 19 18  2  0
 20 18  1  0
 20 21  1  0
 21 22  1  0
 23 22  1  0
 24 23  1  0
 24 20  1  0
 24 25  1  1
 26 25  1  0
 27 25  2  0
M  END
$$$$
