DFP.pdb
     RDKit          3D

 27 28  0  0  1  0  0  0  0  0999 V2000
   11.3039  -16.1698   19.9586 N   0  0  0  0  0  0  0  0  0  0  0  0
   11.0859  -16.8615   21.2127 C   0  0  1  0  0  0  0  0  0  0  0  0
   12.2106  -17.7562   21.5853 C   0  0  0  0  0  0  0  0  0  0  0  0
   12.5809  -18.7256   20.5522 C   0  0  0  0  0  0  0  0  0  0  0  0
   13.8144  -18.9061   20.3334 O   0  0  0  0  0  0  0  0  0  0  0  0
   10.7139  -15.9532   22.2939 C   0  0  0  0  0  0  0  0  0  0  0  0
   11.4138  -14.9024   22.4286 O   0  0  0  0  0  0  0  0  0  0  0  0
   11.6984  -19.4581   19.7979 O   0  0  0  0  0  0  0  0  0  0  0  0
    9.6117  -16.2552   23.1349 N   0  0  0  0  0  0  0  0  0  0  0  0
    9.1275  -15.3293   24.1364 C   0  0  1  0  0  0  0  0  0  0  0  0
    7.7869  -14.8104   23.8210 C   0  0  0  0  0  0  0  0  0  0  0  0
    7.3656  -13.8364   24.9148 C   0  0  0  0  0  0  0  0  0  0  0  0
    6.6316  -14.2408   26.0012 C   0  0  0  0  0  0  0  0  0  0  0  0
    6.2526  -13.3285   26.9788 C   0  0  0  0  0  0  0  0  0  0  0  0
    6.5968  -12.0005   26.8932 C   0  0  0  0  0  0  0  0  0  0  0  0
    7.3324  -11.6229   25.7947 C   0  0  0  0  0  0  0  0  0  0  0  0
    7.7173  -12.5103   24.8162 C   0  0  0  0  0  0  0  0  0  0  0  0
    9.3864  -15.8672   25.4686 C   0  0  0  0  0  0  0  0  0  0  0  0
    9.2496  -17.1564   25.5585 O   0  0  0  0  0  0  0  0  0  0  0  0
    9.7550  -15.2434   26.6574 N   0  0  0  0  0  0  0  0  0  0  0  0
    9.5846  -13.8172   26.8998 C   0  0  0  0  0  0  0  0  0  0  0  0
   10.7601  -13.4827   27.7827 C   0  0  0  0  0  0  0  0  0  0  0  0
   10.6342  -14.6348   28.7930 C   0  0  0  0  0  0  0  0  0  0  0  0
   10.3459  -15.8012   27.8363 C   0  0  1  0  0  0  0  0  0  0  0  0
    9.4952  -16.7454   28.5751 C   0  0  0  0  0  0  0  0  0  0  0  0
    9.9548  -17.4498   29.6741 O   0  0  0  0  0  0  0  0  0  0  0  0
    8.3218  -16.9069   28.1849 O   0  0  0  0  0  0  0  0  0  0  0  0
  2  3  1  0
  2  1  1  6
  4  3  1  0
  5  4  2  0
  6  7  2  0
  6  2  1  0
  8  4  1  0
  9  6  1  0
 10 11  1  6
 10  9  1  0
 11 12  1  0
 12 17  2  0
 13 14  2  0
 13 12  1  0
 14 15  1  0
 15 16  2  0
 17 16  1  0
 18 10  1  0
 19 18  2  0
 20 18  1  0
 20 21  1  0
 21 22  1  0
 23 22  1  0
 24 23  1  0
 24 20  1  0
 24 25  1  1
 26 25  1  0
 27 25  2  0
M  END
$$$$
