DFP.pdb
     RDKit          3D

 27 28  0  0  1  0  0  0  0  0999 V2000
   11.7068  -16.4507   20.2920 N   0  0  0  0  0  0  0  0  0  0  0  0
   11.0325  -17.0856   21.4059 C   0  0  1  0  0  0  0  0  0  0  0  0
   11.7924  -18.2304   21.9685 C   0  0  0  0  0  0  0  0  0  0  0  0
   11.9575  -19.3578   21.0488 C   0  0  0  0  0  0  0  0  0  0  0  0
   10.9598  -20.1146   20.8648 O   0  0  0  0  0  0  0  0  0  0  0  0
   10.6256  -16.1286   22.4311 C   0  0  0  0  0  0  0  0  0  0  0  0
   11.4169  -15.1632   22.6632 O   0  0  0  0  0  0  0  0  0  0  0  0
   13.1087  -19.6639   20.3666 O   0  0  0  0  0  0  0  0  0  0  0  0
    9.3932  -16.2931   23.1148 N   0  0  0  0  0  0  0  0  0  0  0  0
    8.9436  -15.3659   24.1311 C   0  0  1  0  0  0  0  0  0  0  0  0
    7.6034  -14.8278   23.8480 C   0  0  0  0  0  0  0  0  0  0  0  0
    7.2273  -13.8395   24.9455 C   0  0  0  0  0  0  0  0  0  0  0  0
    7.5747  -12.5140   24.8763 C   0  0  0  0  0  0  0  0  0  0  0  0
    7.2271  -11.6368   25.8969 C   0  0  0  0  0  0  0  0  0  0  0  0
    6.5288  -12.0621   27.0019 C   0  0  0  0  0  0  0  0  0  0  0  0
    6.1934  -13.3948   27.0450 C   0  0  0  0  0  0  0  0  0  0  0  0
    6.5282  -14.2790   26.0455 C   0  0  0  0  0  0  0  0  0  0  0  0
    9.2248  -15.9138   25.4547 C   0  0  0  0  0  0  0  0  0  0  0  0
    9.1342  -17.2082   25.5258 O   0  0  0  0  0  0  0  0  0  0  0  0
    9.5739  -15.2948   26.6519 N   0  0  0  0  0  0  0  0  0  0  0  0
    9.3718  -13.8751   26.9082 C   0  0  0  0  0  0  0  0  0  0  0  0
   10.5353  -13.5249   27.8008 C   0  0  0  0  0  0  0  0  0  0  0  0
   10.4290  -14.6900   28.7983 C   0  0  0  0  0  0  0  0  0  0  0  0
   10.1706  -15.8522   27.8280 C   0  0  1  0  0  0  0  0  0  0  0  0
    9.3365  -16.8221   28.5524 C   0  0  0  0  0  0  0  0  0  0  0  0
    9.8018  -17.5197   29.6533 O   0  0  0  0  0  0  0  0  0  0  0  0
    8.1723  -17.0122   28.1479 O   0  0  0  0  0  0  0  0  0  0  0  0
  2  3  1  0
  2  1  1  6
  4  3  1  0
  5  4  2  0
  6  7  2  0
  6  2  1  0
  8  4  1  0
  9  6  1  0
 10 11  1  1
 10  9  1  0
 11 12  1  0
 12 17  2  0
 13 14  2  0
 13 12  1  0
 14 15  1  0
 15 16  2  0
 17 16  1  0
 18 10  1  0
 19 18  2  0
 20 18  1  0
 20 21  1  0
 21 22  1  0
 23 22  1  0
 24 23  1  0
 24 20  1  0
 24 25  1  1
 26 25  1  0
 27 25  2  0
M  END
$$$$
