DFP.pdb
     RDKit          3D

 27 28  0  0  1  0  0  0  0  0999 V2000
   10.2592  -18.0063   21.1740 N   0  0  0  0  0  0  0  0  0  0  0  0
   11.2276  -16.9654   21.4520 C   0  0  1  0  0  0  0  0  0  0  0  0
   11.7113  -16.2802   20.2270 C   0  0  0  0  0  0  0  0  0  0  0  0
   12.3899  -17.1572   19.2707 C   0  0  0  0  0  0  0  0  0  0  0  0
   11.6676  -17.8327   18.4807 O   0  0  0  0  0  0  0  0  0  0  0  0
   10.7618  -16.0268   22.4691 C   0  0  0  0  0  0  0  0  0  0  0  0
   11.5344  -15.0613   22.7576 O   0  0  0  0  0  0  0  0  0  0  0  0
   13.7496  -17.3088   19.1588 O   0  0  0  0  0  0  0  0  0  0  0  0
    9.4961  -16.2081   23.0843 N   0  0  0  0  0  0  0  0  0  0  0  0
    9.0051  -15.3215   24.1176 C   0  0  1  0  0  0  0  0  0  0  0  0
    7.6563  -14.8101   23.8253 C   0  0  0  0  0  0  0  0  0  0  0  0
    7.2494  -13.8368   24.9251 C   0  0  0  0  0  0  0  0  0  0  0  0
    7.5505  -12.4998   24.8566 C   0  0  0  0  0  0  0  0  0  0  0  0
    7.1757  -11.6365   25.8793 C   0  0  0  0  0  0  0  0  0  0  0  0
    6.4958  -12.0871   26.9857 C   0  0  0  0  0  0  0  0  0  0  0  0
    6.2070  -13.4306   27.0281 C   0  0  0  0  0  0  0  0  0  0  0  0
    6.5692  -14.3015   26.0265 C   0  0  0  0  0  0  0  0  0  0  0  0
    9.2774  -15.8990   25.4304 C   0  0  0  0  0  0  0  0  0  0  0  0
    9.1169  -17.1872   25.4895 O   0  0  0  0  0  0  0  0  0  0  0  0
    9.6797  -15.3136   26.6278 N   0  0  0  0  0  0  0  0  0  0  0  0
    9.5072  -13.8981   26.9250 C   0  0  0  0  0  0  0  0  0  0  0  0
   10.7081  -13.5847   27.7811 C   0  0  0  0  0  0  0  0  0  0  0  0
   10.6227  -14.7720   28.7541 C   0  0  0  0  0  0  0  0  0  0  0  0
   10.3120  -15.9070   27.7671 C   0  0  1  0  0  0  0  0  0  0  0  0
    9.4921  -16.8830   28.4993 C   0  0  0  0  0  0  0  0  0  0  0  0
    9.9925  -17.6235   29.5560 O   0  0  0  0  0  0  0  0  0  0  0  0
    8.3070  -17.0383   28.1433 O   0  0  0  0  0  0  0  0  0  0  0  0
  2  3  1  0
  2  1  1  6
  4  3  1  0
  5  4  2  0
  6  7  2  0
  6  2  1  0
  8  4  1  0
  9  6  1  0
 10 11  1  6
 10  9  1  0
 11 12  1  0
 12 17  2  0
 13 14  2  0
 13 12  1  0
 14 15  1  0
 15 16  2  0
 17 16  1  0
 18 10  1  0
 19 18  2  0
 20 18  1  0
 20 21  1  0
 21 22  1  0
 23 22  1  0
 24 23  1  0
 24 20  1  0
 24 25  1  1
 26 25  1  0
 27 25  2  0
M  END
$$$$
