DFP.pdb
     RDKit          3D

 27 28  0  0  1  0  0  0  0  0999 V2000
    9.9021  -18.2695   21.3307 N   0  0  0  0  0  0  0  0  0  0  0  0
   10.9802  -17.3634   21.6703 C   0  0  1  0  0  0  0  0  0  0  0  0
   11.6730  -16.8128   20.4782 C   0  0  0  0  0  0  0  0  0  0  0  0
   13.0171  -16.2964   20.7440 C   0  0  0  0  0  0  0  0  0  0  0  0
   13.4244  -15.3303   20.0348 O   0  0  0  0  0  0  0  0  0  0  0  0
   10.5604  -16.3207   22.6025 C   0  0  0  0  0  0  0  0  0  0  0  0
   11.4300  -15.4536   22.9251 O   0  0  0  0  0  0  0  0  0  0  0  0
   13.8763  -16.7745   21.7019 O   0  0  0  0  0  0  0  0  0  0  0  0
    9.2327  -16.3002   23.1027 N   0  0  0  0  0  0  0  0  0  0  0  0
    8.8167  -15.3958   24.1533 C   0  0  1  0  0  0  0  0  0  0  0  0
    7.4502  -14.8884   23.9500 C   0  0  0  0  0  0  0  0  0  0  0  0
    7.1107  -13.9216   25.0780 C   0  0  0  0  0  0  0  0  0  0  0  0
    7.4159  -12.5859   25.0033 C   0  0  0  0  0  0  0  0  0  0  0  0
    7.1035  -11.7286   26.0517 C   0  0  0  0  0  0  0  0  0  0  0  0
    6.4829  -12.1841   27.1905 C   0  0  0  0  0  0  0  0  0  0  0  0
    6.1884  -13.5262   27.2385 C   0  0  0  0  0  0  0  0  0  0  0  0
    6.4894  -14.3912   26.2117 C   0  0  0  0  0  0  0  0  0  0  0  0
    9.1828  -15.9510   25.4528 C   0  0  0  0  0  0  0  0  0  0  0  0
    9.0819  -17.2445   25.5272 O   0  0  0  0  0  0  0  0  0  0  0  0
    9.6220  -15.3399   26.6241 N   0  0  0  0  0  0  0  0  0  0  0  0
    9.5277  -13.9061   26.8633 C   0  0  0  0  0  0  0  0  0  0  0  0
   10.7479  -13.6235   27.7026 C   0  0  0  0  0  0  0  0  0  0  0  0
   10.6033  -14.7637   28.7239 C   0  0  0  0  0  0  0  0  0  0  0  0
   10.2269  -15.9195   27.7851 C   0  0  1  0  0  0  0  0  0  0  0  0
    9.3591  -16.8190   28.5590 C   0  0  0  0  0  0  0  0  0  0  0  0
    8.0245  -17.0086   28.2456 O   0  0  0  0  0  0  0  0  0  0  0  0
    9.8574  -17.4240   29.5291 O   0  0  0  0  0  0  0  0  0  0  0  0
  2  3  1  0
  2  1  1  6
  4  3  1  0
  5  4  2  0
  6  7  2  0
  6  2  1  0
  8  4  1  0
  9  6  1  0
 10 11  1  1
 10  9  1  0
 11 12  1  0
 12 17  2  0
 13 14  2  0
 13 12  1  0
 14 15  1  0
 15 16  2  0
 17 16  1  0
 18 10  1  0
 19 18  2  0
 20 18  1  0
 20 21  1  0
 21 22  1  0
 23 22  1  0
 24 23  1  0
 24 20  1  0
 24 25  1  1
 26 25  1  0
 27 25  2  0
M  END
$$$$
