DFP.pdb
     RDKit          3D

 27 28  0  0  1  0  0  0  0  0999 V2000
   11.6831  -16.4453   20.3138 N   0  0  0  0  0  0  0  0  0  0  0  0
   11.0453  -17.0902   21.4433 C   0  0  1  0  0  0  0  0  0  0  0  0
   11.8457  -18.2095   22.0008 C   0  0  0  0  0  0  0  0  0  0  0  0
   11.8075  -19.4370   21.2034 C   0  0  0  0  0  0  0  0  0  0  0  0
   10.7391  -20.1154   21.2231 O   0  0  0  0  0  0  0  0  0  0  0  0
   10.6293  -16.1372   22.4685 C   0  0  0  0  0  0  0  0  0  0  0  0
   11.4371  -15.1961   22.7407 O   0  0  0  0  0  0  0  0  0  0  0  0
   12.8378  -19.9156   20.4328 O   0  0  0  0  0  0  0  0  0  0  0  0
    9.3711  -16.2789   23.1091 N   0  0  0  0  0  0  0  0  0  0  0  0
    8.9106  -15.3525   24.1213 C   0  0  1  0  0  0  0  0  0  0  0  0
    7.5462  -14.8666   23.8598 C   0  0  0  0  0  0  0  0  0  0  0  0
    7.1386  -13.9165   24.9795 C   0  0  0  0  0  0  0  0  0  0  0  0
    7.4604  -12.5830   24.9507 C   0  0  0  0  0  0  0  0  0  0  0  0
    7.0843  -11.7414   25.9907 C   0  0  0  0  0  0  0  0  0  0  0  0
    6.3825  -12.2105   27.0755 C   0  0  0  0  0  0  0  0  0  0  0  0
    6.0731  -13.5502   27.0783 C   0  0  0  0  0  0  0  0  0  0  0  0
    6.4362  -14.3998   26.0589 C   0  0  0  0  0  0  0  0  0  0  0  0
    9.2395  -15.8696   25.4463 C   0  0  0  0  0  0  0  0  0  0  0  0
    9.0531  -17.1487   25.5804 O   0  0  0  0  0  0  0  0  0  0  0  0
    9.7185  -15.2349   26.5891 N   0  0  0  0  0  0  0  0  0  0  0  0
    9.7629  -13.7870   26.7420 C   0  0  0  0  0  0  0  0  0  0  0  0
   10.9917  -13.5753   27.5896 C   0  0  0  0  0  0  0  0  0  0  0  0
   10.7187  -14.6321   28.6724 C   0  0  0  0  0  0  0  0  0  0  0  0
   10.2444  -15.8000   27.7948 C   0  0  1  0  0  0  0  0  0  0  0  0
    9.2796  -16.5618   28.6010 C   0  0  0  0  0  0  0  0  0  0  0  0
    9.6538  -17.2624   29.7343 O   0  0  0  0  0  0  0  0  0  0  0  0
    8.0867  -16.5678   28.2374 O   0  0  0  0  0  0  0  0  0  0  0  0
  2  3  1  0
  2  1  1  6
  4  3  1  0
  5  4  2  0
  6  7  2  0
  6  2  1  0
  8  4  1  0
  9  6  1  0
 10 11  1  1
 10  9  1  0
 11 12  1  0
 12 17  2  0
 13 14  2  0
 13 12  1  0
 14 15  1  0
 15 16  2  0
 17 16  1  0
 18 10  1  0
 19 18  2  0
 20 18  1  0
 20 21  1  0
 21 22  1  0
 23 22  1  0
 24 23  1  0
 24 20  1  0
 24 25  1  1
 26 25  1  0
 27 25  2  0
M  END
$$$$
