YQE.pdb
     RDKit          3D

 31 31  0  0  1  0  0  0  0  0999 V2000
   19.4363  -14.8784  -24.3625 O   0  0  0  0  0  0  0  0  0  0  0  0
   19.5546  -14.1408  -23.1793 C   0  0  0  0  0  0  0  0  0  0  0  0
   18.4804  -14.0940  -22.3057 C   0  0  0  0  0  0  0  0  0  0  0  0
   18.6226  -13.3496  -21.1286 C   0  0  0  0  0  0  0  0  0  0  0  0
   19.7784  -12.6846  -20.8365 C   0  0  0  0  0  0  0  0  0  0  0  0
   19.8972  -11.9121  -19.5926 C   0  0  0  0  0  0  0  0  0  0  0  0
   20.7564  -12.7530  -18.6351 C   0  0  2  0  0  0  0  0  0  0  0  0
   19.9276  -13.7907  -18.0760 N   0  0  0  0  0  0  0  0  0  0  0  0
   21.1947  -11.8356  -17.5736 C   0  0  0  0  0  0  0  0  0  0  0  0
   20.6661  -11.9020  -16.4524 O   0  0  0  0  0  0  0  0  0  0  0  0
   20.8279  -12.7468  -21.7185 C   0  0  0  0  0  0  0  0  0  0  0  0
   20.7383  -13.4768  -22.9096 C   0  0  0  0  0  0  0  0  0  0  0  0
   26.8277  -11.0731  -15.9794 N   0  0  0  0  0  0  0  0  0  0  0  0
   26.2628   -9.9817  -15.3046 C   0  0  0  0  0  0  0  0  0  0  0  0
   26.9383   -9.3615  -14.4564 O   0  0  0  0  0  0  0  0  0  0  0  0
   24.8455   -9.4988  -15.5503 C   0  0  0  0  0  0  0  0  0  0  0  0
   24.1773  -10.4126  -16.5280 C   0  0  0  0  0  0  0  0  0  0  0  0
   22.7788  -10.0053  -16.8210 C   0  0  2  0  0  0  0  0  0  0  0  0
   22.2016  -10.8965  -17.8330 N   0  0  0  0  0  0  0  0  0  0  0  0
   22.7123   -8.6348  -17.3524 C   0  0  0  0  0  0  0  0  0  0  0  0
   23.1579   -8.4420  -18.5365 O   0  0  0  0  0  0  0  0  0  0  0  0
   22.1791   -7.5493  -16.6204 N   0  0  0  0  0  0  0  0  0  0  0  0
   22.2277   -6.2016  -17.2541 C   0  0  1  0  0  0  0  0  0  0  0  0
   21.1309   -5.4481  -16.5900 C   0  0  0  0  0  0  0  0  0  0  0  0
   19.7573   -5.9544  -16.8244 C   0  0  0  0  0  0  0  0  0  0  0  0
   18.6951   -5.0903  -16.2724 C   0  0  0  0  0  0  0  0  0  0  0  0
   18.4779   -5.0724  -15.0247 O   0  0  0  0  0  0  0  0  0  0  0  0
   23.5754   -5.6612  -17.1893 C   0  0  0  0  0  0  0  0  0  0  0  0
   24.3995   -6.1443  -16.3400 O   0  0  0  0  0  0  0  0  0  0  0  0
   17.9090   -4.2697  -17.1050 O   0  0  0  0  0  0  0  0  0  0  0  0
   24.0812   -4.6515  -17.9803 O   0  0  0  0  0  0  0  0  0  0  0  0
  2  3  2  0
  2  1  1  0
  4  3  1  0
  5  4  2  0
  6  5  1  0
  7  6  1  0
  7  8  1  1
  9  7  1  0
  9 10  2  0
 11  5  1  0
 11 12  2  0
 12  2  1  0
 13 14  1  0
 14 15  2  0
 14 16  1  0
 16 17  1  0
 18 17  1  6
 18 19  1  0
 19  9  1  0
 20 18  1  0
 21 20  2  0
 22 20  1  0
 23 22  1  0
 23 28  1  0
 23 24  1  1
 25 24  1  0
 26 25  1  0
 27 26  2  0
 28 31  1  0
 29 28  2  0
 30 26  1  0
M  END
$$$$
