YQE.pdb
     RDKit          3D

 31 31  0  0  1  0  0  0  0  0999 V2000
   31.8469  -23.1296   -9.6917 O   0  0  0  0  0  0  0  0  0  0  0  0
   31.0742  -22.1995  -10.3959 C   0  0  0  0  0  0  0  0  0  0  0  0
   29.6989  -22.2044  -10.2294 C   0  0  0  0  0  0  0  0  0  0  0  0
   28.9472  -21.2644  -10.9445 C   0  0  0  0  0  0  0  0  0  0  0  0
   29.5369  -20.3641  -11.7840 C   0  0  0  0  0  0  0  0  0  0  0  0
   28.7208  -19.3895  -12.5204 C   0  0  0  0  0  0  0  0  0  0  0  0
   27.3111  -19.9921  -12.6295 C   0  0  2  0  0  0  0  0  0  0  0  0
   27.4218  -21.2966  -13.2313 N   0  0  0  0  0  0  0  0  0  0  0  0
   26.5551  -19.0946  -13.5148 C   0  0  0  0  0  0  0  0  0  0  0  0
   26.5056  -17.8814  -13.2567 O   0  0  0  0  0  0  0  0  0  0  0  0
   30.9012  -20.3801  -11.9315 C   0  0  0  0  0  0  0  0  0  0  0  0
   31.6995  -21.2988  -11.2400 C   0  0  0  0  0  0  0  0  0  0  0  0
   24.7292  -17.5185  -19.1911 N   0  0  0  0  0  0  0  0  0  0  0  0
   25.8420  -17.0230  -18.4970 C   0  0  0  0  0  0  0  0  0  0  0  0
   26.3912  -15.9685  -18.8801 O   0  0  0  0  0  0  0  0  0  0  0  0
   26.4319  -17.7092  -17.2789 C   0  0  0  0  0  0  0  0  0  0  0  0
   25.5894  -18.8936  -16.9257 C   0  0  0  0  0  0  0  0  0  0  0  0
   25.0568  -18.8182  -15.5407 C   0  0  2  0  0  0  0  0  0  0  0  0
   25.8983  -19.6121  -14.6390 N   0  0  0  0  0  0  0  0  0  0  0  0
   23.6900  -19.3563  -15.4544 C   0  0  0  0  0  0  0  0  0  0  0  0
   23.5613  -20.5767  -15.0916 O   0  0  0  0  0  0  0  0  0  0  0  0
   22.5394  -18.5879  -15.7449 N   0  0  0  0  0  0  0  0  0  0  0  0
   21.2116  -19.2328  -15.5413 C   0  0  1  0  0  0  0  0  0  0  0  0
   20.2913  -18.0943  -15.2791 C   0  0  0  0  0  0  0  0  0  0  0  0
   18.8633  -18.4421  -15.0841 C   0  0  0  0  0  0  0  0  0  0  0  0
   17.9654  -17.2732  -14.9996 C   0  0  0  0  0  0  0  0  0  0  0  0
   18.4417  -16.1021  -15.0752 O   0  0  0  0  0  0  0  0  0  0  0  0
   20.9087  -20.1258  -16.6474 C   0  0  0  0  0  0  0  0  0  0  0  0
   21.2800  -19.8034  -17.8272 O   0  0  0  0  0  0  0  0  0  0  0  0
   16.5740  -17.4257  -14.8407 O   0  0  0  0  0  0  0  0  0  0  0  0
   20.2465  -21.3316  -16.5557 O   0  0  0  0  0  0  0  0  0  0  0  0
  2  3  2  0
  2  1  1  0
  4  3  1  0
  5  4  2  0
  6  5  1  0
  7  6  1  0
  7  8  1  6
  9  7  1  0
  9 10  2  0
 11  5  1  0
 11 12  2  0
 12  2  1  0
 13 14  1  0
 14 15  2  0
 14 16  1  0
 16 17  1  0
 18 17  1  6
 18 19  1  0
 19  9  1  0
 20 18  1  0
 21 20  2  0
 22 20  1  0
 23 22  1  0
 23 28  1  0
 23 24  1  6
 25 24  1  0
 26 25  1  0
 27 26  2  0
 28 31  1  0
 29 28  2  0
 30 26  1  0
M  END
$$$$
