YQE.pdb
     RDKit          3D

 31 31  0  0  1  0  0  0  0  0999 V2000
   28.2875  -15.6055  -19.6357 O   0  0  0  0  0  0  0  0  0  0  0  0
   27.3774  -16.5764  -19.2034 C   0  0  0  0  0  0  0  0  0  0  0  0
   27.2411  -17.7442  -19.9364 C   0  0  0  0  0  0  0  0  0  0  0  0
   26.3243  -18.7006  -19.4841 C   0  0  0  0  0  0  0  0  0  0  0  0
   25.5801  -18.5032  -18.3569 C   0  0  0  0  0  0  0  0  0  0  0  0
   24.6265  -19.5263  -17.9074 C   0  0  0  0  0  0  0  0  0  0  0  0
   25.1466  -20.0473  -16.5582 C   0  0  2  0  0  0  0  0  0  0  0  0
   26.2303  -20.9620  -16.8136 N   0  0  0  0  0  0  0  0  0  0  0  0
   24.0215  -20.7637  -15.9405 C   0  0  0  0  0  0  0  0  0  0  0  0
   23.9074  -21.9875  -16.1143 O   0  0  0  0  0  0  0  0  0  0  0  0
   25.7338  -17.3379  -17.6486 C   0  0  0  0  0  0  0  0  0  0  0  0
   26.6365  -16.3489  -18.0571 C   0  0  0  0  0  0  0  0  0  0  0  0
   21.0217  -18.6362  -10.8586 N   0  0  0  0  0  0  0  0  0  0  0  0
   20.2865  -19.7828  -11.1905 C   0  0  0  0  0  0  0  0  0  0  0  0
   19.3732  -20.1733  -10.4330 O   0  0  0  0  0  0  0  0  0  0  0  0
   20.5414  -20.5962  -12.4459 C   0  0  0  0  0  0  0  0  0  0  0  0
   21.6983  -20.0057  -13.1878 C   0  0  0  0  0  0  0  0  0  0  0  0
   21.9478  -20.6865  -14.4846 C   0  0  2  0  0  0  0  0  0  0  0  0
   23.0895  -20.0637  -15.1630 N   0  0  0  0  0  0  0  0  0  0  0  0
   20.7893  -20.5802  -15.3855 C   0  0  0  0  0  0  0  0  0  0  0  0
   20.6019  -19.4578  -15.9709 O   0  0  0  0  0  0  0  0  0  0  0  0
   19.9000  -21.6523  -15.6272 N   0  0  0  0  0  0  0  0  0  0  0  0
   18.7773  -21.4144  -16.5777 C   0  0  1  0  0  0  0  0  0  0  0  0
   18.3115  -22.7798  -16.9387 C   0  0  0  0  0  0  0  0  0  0  0  0
   19.2683  -23.6136  -17.7051 C   0  0  0  0  0  0  0  0  0  0  0  0
   18.7749  -24.9718  -18.0075 C   0  0  0  0  0  0  0  0  0  0  0  0
   19.4589  -25.7451  -18.7413 O   0  0  0  0  0  0  0  0  0  0  0  0
   17.8176  -20.4858  -16.0037 C   0  0  0  0  0  0  0  0  0  0  0  0
   17.6748  -20.4439  -14.7342 O   0  0  0  0  0  0  0  0  0  0  0  0
   17.5507  -25.4404  -17.4916 O   0  0  0  0  0  0  0  0  0  0  0  0
   17.0213  -19.6074  -16.7074 O   0  0  0  0  0  0  0  0  0  0  0  0
  2  3  2  0
  2  1  1  0
  4  3  1  0
  5  4  2  0
  6  5  1  0
  7  6  1  0
  7  8  1  6
  9  7  1  0
  9 10  2  0
 11  5  1  0
 11 12  2  0
 12  2  1  0
 13 14  1  0
 14 15  2  0
 14 16  1  0
 16 17  1  0
 18 17  1  1
 18 19  1  0
 19  9  1  0
 20 18  1  0
 21 20  2  0
 22 20  1  0
 23 22  1  0
 23 28  1  0
 23 24  1  1
 25 24  1  0
 26 25  1  0
 27 26  2  0
 28 31  1  0
 29 28  2  0
 30 26  1  0
M  END
$$$$
