YQE.pdb
     RDKit          3D

 31 31  0  0  1  0  0  0  0  0999 V2000
   19.3812  -13.7904  -16.6877 O   0  0  0  0  0  0  0  0  0  0  0  0
   18.8519  -12.7433  -15.9252 C   0  0  0  0  0  0  0  0  0  0  0  0
   18.7361  -12.9018  -14.5538 C   0  0  0  0  0  0  0  0  0  0  0  0
   18.2037  -11.8404  -13.8123 C   0  0  0  0  0  0  0  0  0  0  0  0
   17.8064  -10.6783  -14.4081 C   0  0  0  0  0  0  0  0  0  0  0  0
   17.2519   -9.5819  -13.6025 C   0  0  0  0  0  0  0  0  0  0  0  0
   15.9305  -10.0979  -13.0110 C   0  0  2  0  0  0  0  0  0  0  0  0
   15.0503  -10.4400  -14.0994 N   0  0  0  0  0  0  0  0  0  0  0  0
   15.3665   -8.9782  -12.2436 C   0  0  0  0  0  0  0  0  0  0  0  0
   14.6447   -8.1470  -12.8172 O   0  0  0  0  0  0  0  0  0  0  0  0
   17.9316  -10.5463  -15.7683 C   0  0  0  0  0  0  0  0  0  0  0  0
   18.4575  -11.5768  -16.5564 C   0  0  0  0  0  0  0  0  0  0  0  0
   12.2625   -8.3722   -8.2428 N   0  0  0  0  0  0  0  0  0  0  0  0
   13.0103   -7.4339   -7.5177 C   0  0  0  0  0  0  0  0  0  0  0  0
   12.4323   -6.6620   -6.7237 O   0  0  0  0  0  0  0  0  0  0  0  0
   14.5163   -7.2981   -7.6443 C   0  0  0  0  0  0  0  0  0  0  0  0
   15.0242   -8.3296   -8.6011 C   0  0  0  0  0  0  0  0  0  0  0  0
   15.0600   -7.8354  -10.0018 C   0  0  2  0  0  0  0  0  0  0  0  0
   15.6460   -8.8571  -10.8761 N   0  0  0  0  0  0  0  0  0  0  0  0
   15.8835   -6.6227  -10.1290 C   0  0  0  0  0  0  0  0  0  0  0  0
   17.1270   -6.7817  -10.3861 O   0  0  0  0  0  0  0  0  0  0  0  0
   15.3599   -5.3171   -9.9873 N   0  0  0  0  0  0  0  0  0  0  0  0
   16.2790   -4.1745  -10.2518 C   0  0  1  0  0  0  0  0  0  0  0  0
   16.2439   -4.0148  -11.7300 C   0  0  0  0  0  0  0  0  0  0  0  0
   17.5411   -4.1622  -12.4325 C   0  0  0  0  0  0  0  0  0  0  0  0
   17.4474   -4.0413  -13.9009 C   0  0  0  0  0  0  0  0  0  0  0  0
   16.3200   -3.8664  -14.4512 O   0  0  0  0  0  0  0  0  0  0  0  0
   15.9191   -3.0347   -9.4246 C   0  0  0  0  0  0  0  0  0  0  0  0
   16.5995   -1.9569   -9.5201 O   0  0  0  0  0  0  0  0  0  0  0  0
   18.5926   -4.1107  -14.7183 O   0  0  0  0  0  0  0  0  0  0  0  0
   14.8791   -2.9874   -8.5206 O   0  0  0  0  0  0  0  0  0  0  0  0
  2  3  2  0
  2  1  1  0
  4  3  1  0
  5  4  2  0
  6  5  1  0
  7  6  1  0
  7  8  1  6
  9  7  1  0
  9 10  2  0
 11  5  1  0
 11 12  2  0
 12  2  1  0
 13 14  1  0
 14 15  2  0
 14 16  1  0
 16 17  1  0
 18 17  1  1
 18 19  1  0
 19  9  1  0
 20 18  1  0
 21 20  2  0
 22 20  1  0
 23 22  1  0
 23 28  1  0
 23 24  1  6
 25 24  1  0
 26 25  1  0
 27 26  2  0
 28 31  1  0
 29 28  2  0
 30 26  1  0
M  END
$$$$
