YQE.pdb
     RDKit          3D

 31 31  0  0  1  0  0  0  0  0999 V2000
   14.8875  -12.5874  -21.2046 O   0  0  0  0  0  0  0  0  0  0  0  0
   15.7781  -11.9199  -20.3564 C   0  0  0  0  0  0  0  0  0  0  0  0
   15.2847  -11.2867  -19.2273 C   0  0  0  0  0  0  0  0  0  0  0  0
   16.1950  -10.6257  -18.3941 C   0  0  0  0  0  0  0  0  0  0  0  0
   17.5311  -10.5970  -18.6724 C   0  0  0  0  0  0  0  0  0  0  0  0
   18.4616   -9.8951  -17.7781 C   0  0  0  0  0  0  0  0  0  0  0  0
   19.2343  -10.9800  -17.0112 C   0  0  2  0  0  0  0  0  0  0  0  0
   18.3539  -11.5497  -16.0229 N   0  0  0  0  0  0  0  0  0  0  0  0
   20.3505  -10.2898  -16.3491 C   0  0  0  0  0  0  0  0  0  0  0  0
   20.2125   -9.8832  -15.1844 O   0  0  0  0  0  0  0  0  0  0  0  0
   17.9945  -11.2319  -19.7973 C   0  0  0  0  0  0  0  0  0  0  0  0
   17.1271  -11.9075  -20.6639 C   0  0  0  0  0  0  0  0  0  0  0  0
   25.5512  -12.0388  -16.0945 N   0  0  0  0  0  0  0  0  0  0  0  0
   26.0117  -10.7171  -16.0132 C   0  0  0  0  0  0  0  0  0  0  0  0
   27.0957  -10.4734  -15.4423 O   0  0  0  0  0  0  0  0  0  0  0  0
   25.2521   -9.5377  -16.5917 C   0  0  0  0  0  0  0  0  0  0  0  0
   23.9682  -10.0236  -17.1858 C   0  0  0  0  0  0  0  0  0  0  0  0
   22.7801   -9.5699  -16.4178 C   0  0  2  0  0  0  0  0  0  0  0  0
   21.5574  -10.0962  -17.0339 N   0  0  0  0  0  0  0  0  0  0  0  0
   22.6696   -8.1027  -16.4047 C   0  0  0  0  0  0  0  0  0  0  0  0
   22.4833   -7.5180  -17.5277 O   0  0  0  0  0  0  0  0  0  0  0  0
   22.7533   -7.3339  -15.2212 N   0  0  0  0  0  0  0  0  0  0  0  0
   22.4332   -5.8819  -15.3196 C   0  0  1  0  0  0  0  0  0  0  0  0
   21.0692   -5.8499  -15.9114 C   0  0  0  0  0  0  0  0  0  0  0  0
   20.3800   -4.5374  -15.8899 C   0  0  0  0  0  0  0  0  0  0  0  0
   19.0545   -4.5431  -16.5399 C   0  0  0  0  0  0  0  0  0  0  0  0
   18.0194   -4.8207  -15.8648 O   0  0  0  0  0  0  0  0  0  0  0  0
   22.6462   -5.2298  -14.0381 C   0  0  0  0  0  0  0  0  0  0  0  0
   22.7146   -5.9438  -12.9802 O   0  0  0  0  0  0  0  0  0  0  0  0
   18.9056   -4.2390  -17.9073 O   0  0  0  0  0  0  0  0  0  0  0  0
   22.7958   -3.8743  -13.8351 O   0  0  0  0  0  0  0  0  0  0  0  0
  2  3  2  0
  2  1  1  0
  4  3  1  0
  5  4  2  0
  6  5  1  0
  7  6  1  0
  7  8  1  1
  9  7  1  0
  9 10  2  0
 11  5  1  0
 11 12  2  0
 12  2  1  0
 13 14  1  0
 14 15  2  0
 14 16  1  0
 16 17  1  0
 18 17  1  6
 18 19  1  0
 19  9  1  0
 20 18  1  0
 21 20  2  0
 22 20  1  0
 23 22  1  0
 23 28  1  0
 23 24  1  1
 25 24  1  0
 26 25  1  0
 27 26  2  0
 28 31  1  0
 29 28  2  0
 30 26  1  0
M  END
$$$$
