YQE.pdb
     RDKit          3D

 31 31  0  0  1  0  0  0  0  0999 V2000
   28.8218  -14.8493  -17.0602 O   0  0  0  0  0  0  0  0  0  0  0  0
   27.8172  -13.8754  -17.0783 C   0  0  0  0  0  0  0  0  0  0  0  0
   27.2470  -13.5199  -18.2899 C   0  0  0  0  0  0  0  0  0  0  0  0
   26.2439  -12.5433  -18.2826 C   0  0  0  0  0  0  0  0  0  0  0  0
   25.8295  -11.9503  -17.1251 C   0  0  0  0  0  0  0  0  0  0  0  0
   24.7739  -10.9288  -17.1500 C   0  0  0  0  0  0  0  0  0  0  0  0
   23.4766  -11.6288  -16.7151 C   0  0  2  0  0  0  0  0  0  0  0  0
   23.1314  -12.6053  -17.7170 N   0  0  0  0  0  0  0  0  0  0  0  0
   22.4486  -10.5794  -16.6635 C   0  0  0  0  0  0  0  0  0  0  0  0
   21.8753  -10.2341  -17.7089 O   0  0  0  0  0  0  0  0  0  0  0  0
   26.4103  -12.3201  -15.9380 C   0  0  0  0  0  0  0  0  0  0  0  0
   27.4173  -13.2913  -15.8893 C   0  0  0  0  0  0  0  0  0  0  0  0
   17.8014  -10.0637  -12.8291 N   0  0  0  0  0  0  0  0  0  0  0  0
   18.0130  -10.7499  -14.0332 C   0  0  0  0  0  0  0  0  0  0  0  0
   17.2520  -11.6873  -14.3533 O   0  0  0  0  0  0  0  0  0  0  0  0
   19.1389  -10.4122  -14.9928 C   0  0  0  0  0  0  0  0  0  0  0  0
   20.0420   -9.4043  -14.3558 C   0  0  0  0  0  0  0  0  0  0  0  0
   21.1074   -8.9337  -15.2784 C   0  0  2  0  0  0  0  0  0  0  0  0
   22.1241   -9.9785  -15.4401 N   0  0  0  0  0  0  0  0  0  0  0  0
   21.7860   -7.7361  -14.7585 C   0  0  0  0  0  0  0  0  0  0  0  0
   23.0644   -7.7155  -14.8133 O   0  0  0  0  0  0  0  0  0  0  0  0
   21.0911   -6.6294  -14.2192 N   0  0  0  0  0  0  0  0  0  0  0  0
   21.8129   -5.3274  -14.1565 C   0  0  1  0  0  0  0  0  0  0  0  0
   22.3303   -5.1320  -15.5370 C   0  0  0  0  0  0  0  0  0  0  0  0
   23.0397   -3.8556  -15.7928 C   0  0  0  0  0  0  0  0  0  0  0  0
   22.6771   -3.2111  -17.0705 C   0  0  0  0  0  0  0  0  0  0  0  0
   21.9728   -3.8362  -17.9175 O   0  0  0  0  0  0  0  0  0  0  0  0
   20.9550   -4.3009  -13.5881 C   0  0  0  0  0  0  0  0  0  0  0  0
   19.6875   -4.4113  -13.7105 O   0  0  0  0  0  0  0  0  0  0  0  0
   23.0934   -1.9005  -17.3764 O   0  0  0  0  0  0  0  0  0  0  0  0
   21.3772   -3.1840  -12.8988 O   0  0  0  0  0  0  0  0  0  0  0  0
  2  3  2  0
  2  1  1  0
  4  3  1  0
  5  4  2  0
  6  5  1  0
  7  6  1  0
  7  8  1  6
  9  7  1  0
  9 10  2  0
 11  5  1  0
 11 12  2  0
 12  2  1  0
 13 14  1  0
 14 15  2  0
 14 16  1  0
 16 17  1  0
 18 17  1  1
 18 19  1  0
 19  9  1  0
 20 18  1  0
 21 20  2  0
 22 20  1  0
 23 22  1  0
 23 28  1  0
 23 24  1  6
 25 24  1  0
 26 25  1  0
 27 26  2  0
 28 31  1  0
 29 28  2  0
 30 26  1  0
M  END
$$$$
