YQE.pdb
     RDKit          3D

 31 31  0  0  1  0  0  0  0  0999 V2000
   31.1483  -12.5184  -16.3186 O   0  0  0  0  0  0  0  0  0  0  0  0
   29.9065  -11.8744  -16.3532 C   0  0  0  0  0  0  0  0  0  0  0  0
   29.7511  -10.7560  -17.1558 C   0  0  0  0  0  0  0  0  0  0  0  0
   28.4996  -10.1289  -17.1739 C   0  0  0  0  0  0  0  0  0  0  0  0
   27.4544  -10.5935  -16.4288 C   0  0  0  0  0  0  0  0  0  0  0  0
   26.1527   -9.9138  -16.4695 C   0  0  0  0  0  0  0  0  0  0  0  0
   25.1585  -10.9082  -17.0900 C   0  0  2  0  0  0  0  0  0  0  0  0
   25.7045  -11.3739  -18.3395 N   0  0  0  0  0  0  0  0  0  0  0  0
   23.9251  -10.1470  -17.3350 C   0  0  0  0  0  0  0  0  0  0  0  0
   23.7092   -9.6814  -18.4653 O   0  0  0  0  0  0  0  0  0  0  0  0
   27.6342  -11.7033  -15.6419 C   0  0  0  0  0  0  0  0  0  0  0  0
   28.8651  -12.3679  -15.5873 C   0  0  0  0  0  0  0  0  0  0  0  0
   18.6920  -11.8615  -14.7461 N   0  0  0  0  0  0  0  0  0  0  0  0
   19.0534  -12.0621  -16.0858 C   0  0  0  0  0  0  0  0  0  0  0  0
   18.5169  -12.9807  -16.7407 O   0  0  0  0  0  0  0  0  0  0  0  0
   20.0823  -11.2083  -16.8035 C   0  0  0  0  0  0  0  0  0  0  0  0
   20.6448  -10.2070  -15.8452 C   0  0  0  0  0  0  0  0  0  0  0  0
   21.6818   -9.3450  -16.4690 C   0  0  2  0  0  0  0  0  0  0  0  0
   23.0054   -9.9530  -16.2960 N   0  0  0  0  0  0  0  0  0  0  0  0
   21.7255   -8.0119  -15.8477 C   0  0  0  0  0  0  0  0  0  0  0  0
   22.4840   -7.8641  -14.8276 O   0  0  0  0  0  0  0  0  0  0  0  0
   20.9813   -6.9114  -16.3313 N   0  0  0  0  0  0  0  0  0  0  0  0
   21.1597   -5.6031  -15.6408 C   0  0  1  0  0  0  0  0  0  0  0  0
   21.2599   -4.6177  -16.7501 C   0  0  0  0  0  0  0  0  0  0  0  0
   21.3873   -3.1959  -16.3495 C   0  0  0  0  0  0  0  0  0  0  0  0
   21.3873   -2.2492  -17.4823 C   0  0  0  0  0  0  0  0  0  0  0  0
   21.4152   -1.0017  -17.2650 O   0  0  0  0  0  0  0  0  0  0  0  0
   20.1224   -5.4144  -14.6402 C   0  0  0  0  0  0  0  0  0  0  0  0
   20.2437   -4.4688  -13.7887 O   0  0  0  0  0  0  0  0  0  0  0  0
   21.3623   -2.7003  -18.8166 O   0  0  0  0  0  0  0  0  0  0  0  0
   18.9757   -6.1689  -14.5114 O   0  0  0  0  0  0  0  0  0  0  0  0
  2  3  2  0
  2  1  1  0
  4  3  1  0
  5  4  2  0
  6  5  1  0
  7  6  1  0
  7  8  1  6
  9  7  1  0
  9 10  2  0
 11  5  1  0
 11 12  2  0
 12  2  1  0
 13 14  1  0
 14 15  2  0
 14 16  1  0
 16 17  1  0
 18 17  1  1
 18 19  1  0
 19  9  1  0
 20 18  1  0
 21 20  2  0
 22 20  1  0
 23 22  1  0
 23 28  1  0
 23 24  1  6
 25 24  1  0
 26 25  1  0
 27 26  2  0
 28 31  1  0
 29 28  2  0
 30 26  1  0
M  END
$$$$
