YQE.pdb
     RDKit          3D

 31 31  0  0  1  0  0  0  0  0999 V2000
   27.6134  -31.7197  -17.8492 O   0  0  0  0  0  0  0  0  0  0  0  0
   27.4279  -30.4056  -17.4057 C   0  0  0  0  0  0  0  0  0  0  0  0
   28.4353  -29.7927  -16.6785 C   0  0  0  0  0  0  0  0  0  0  0  0
   28.2265  -28.4778  -16.2457 C   0  0  0  0  0  0  0  0  0  0  0  0
   27.0708  -27.8067  -16.5240 C   0  0  0  0  0  0  0  0  0  0  0  0
   26.8817  -26.4270  -16.0563 C   0  0  0  0  0  0  0  0  0  0  0  0
   27.3235  -25.5098  -17.2077 C   0  0  2  0  0  0  0  0  0  0  0  0
   28.7639  -25.4938  -17.2464 N   0  0  0  0  0  0  0  0  0  0  0  0
   26.8166  -24.1707  -16.8752 C   0  0  0  0  0  0  0  0  0  0  0  0
   27.4995  -23.4189  -16.1616 O   0  0  0  0  0  0  0  0  0  0  0  0
   26.0883  -28.4362  -17.2461 C   0  0  0  0  0  0  0  0  0  0  0  0
   26.2460  -29.7501  -17.7028 C   0  0  0  0  0  0  0  0  0  0  0  0
   27.7975  -19.7657  -19.3083 N   0  0  0  0  0  0  0  0  0  0  0  0
   28.0874  -20.1605  -17.9947 C   0  0  0  0  0  0  0  0  0  0  0  0
   29.1100  -19.7209  -17.4277 O   0  0  0  0  0  0  0  0  0  0  0  0
   27.2109  -21.1131  -17.2030 C   0  0  0  0  0  0  0  0  0  0  0  0
   26.0092  -21.4690  -18.0195 C   0  0  0  0  0  0  0  0  0  0  0  0
   25.0789  -22.3736  -17.2956 C   0  0  2  0  0  0  0  0  0  0  0  0
   25.5714  -23.7535  -17.3638 N   0  0  0  0  0  0  0  0  0  0  0  0
   23.7330  -22.3570  -17.8899 C   0  0  0  0  0  0  0  0  0  0  0  0
   23.5958  -22.8850  -19.0475 O   0  0  0  0  0  0  0  0  0  0  0  0
   22.6098  -21.7972  -17.2389 N   0  0  0  0  0  0  0  0  0  0  0  0
   21.3149  -21.7997  -17.9761 C   0  0  1  0  0  0  0  0  0  0  0  0
   20.2864  -21.7345  -16.9038 C   0  0  0  0  0  0  0  0  0  0  0  0
   20.1764  -22.9290  -16.0325 C   0  0  0  0  0  0  0  0  0  0  0  0
   20.6302  -22.7059  -14.6455 C   0  0  0  0  0  0  0  0  0  0  0  0
   21.0032  -21.5523  -14.2791 O   0  0  0  0  0  0  0  0  0  0  0  0
   21.3137  -20.7668  -18.9987 C   0  0  0  0  0  0  0  0  0  0  0  0
   22.1917  -19.8393  -18.9475 O   0  0  0  0  0  0  0  0  0  0  0  0
   20.6554  -23.7530  -13.7035 O   0  0  0  0  0  0  0  0  0  0  0  0
   20.4398  -20.6817  -20.0617 O   0  0  0  0  0  0  0  0  0  0  0  0
  2  3  2  0
  2  1  1  0
  4  3  1  0
  5  4  2  0
  6  5  1  0
  7  6  1  0
  7  8  1  1
  9  7  1  0
  9 10  2  0
 11  5  1  0
 11 12  2  0
 12  2  1  0
 13 14  1  0
 14 15  2  0
 14 16  1  0
 16 17  1  0
 18 17  1  6
 18 19  1  0
 19  9  1  0
 20 18  1  0
 21 20  2  0
 22 20  1  0
 23 22  1  0
 23 28  1  0
 23 24  1  1
 25 24  1  0
 26 25  1  0
 27 26  2  0
 28 31  1  0
 29 28  2  0
 30 26  1  0
M  END
$$$$
