YQE.pdb
     RDKit          3D

 31 31  0  0  1  0  0  0  0  0999 V2000
   26.5042  -15.7468  -21.0613 O   0  0  0  0  0  0  0  0  0  0  0  0
   25.9074  -16.5686  -20.0987 C   0  0  0  0  0  0  0  0  0  0  0  0
   26.3298  -16.4785  -18.7823 C   0  0  0  0  0  0  0  0  0  0  0  0
   25.7178  -17.3107  -17.8375 C   0  0  0  0  0  0  0  0  0  0  0  0
   24.7334  -18.1893  -18.1871 C   0  0  0  0  0  0  0  0  0  0  0  0
   24.1099  -19.0492  -17.1722 C   0  0  0  0  0  0  0  0  0  0  0  0
   25.2247  -19.9489  -16.6155 C   0  0  2  0  0  0  0  0  0  0  0  0
   25.6580  -20.8352  -17.6658 N   0  0  0  0  0  0  0  0  0  0  0  0
   24.6130  -20.7240  -15.5267 C   0  0  0  0  0  0  0  0  0  0  0  0
   24.0795  -21.8161  -15.7794 O   0  0  0  0  0  0  0  0  0  0  0  0
   24.3330  -18.2593  -19.4978 C   0  0  0  0  0  0  0  0  0  0  0  0
   24.9119  -17.4498  -20.4823 C   0  0  0  0  0  0  0  0  0  0  0  0
   26.1114  -19.8833   -9.4641 N   0  0  0  0  0  0  0  0  0  0  0  0
   25.0728  -20.8230   -9.4027 C   0  0  0  0  0  0  0  0  0  0  0  0
   24.7972  -21.3708   -8.3144 O   0  0  0  0  0  0  0  0  0  0  0  0
   24.2444  -21.2227  -10.6096 C   0  0  0  0  0  0  0  0  0  0  0  0
   24.8257  -20.5926  -11.8354 C   0  0  0  0  0  0  0  0  0  0  0  0
   24.0538  -20.9198  -13.0620 C   0  0  2  0  0  0  0  0  0  0  0  0
   24.6359  -20.2274  -14.2167 N   0  0  0  0  0  0  0  0  0  0  0  0
   22.6511  -20.4891  -12.9520 C   0  0  0  0  0  0  0  0  0  0  0  0
   22.4219  -19.2300  -12.9521 O   0  0  0  0  0  0  0  0  0  0  0  0
   21.5715  -21.3966  -12.8553 N   0  0  0  0  0  0  0  0  0  0  0  0
   20.2040  -20.8255  -12.7001 C   0  0  1  0  0  0  0  0  0  0  0  0
   19.9814  -20.0682  -13.9605 C   0  0  0  0  0  0  0  0  0  0  0  0
   19.7912  -20.8821  -15.1850 C   0  0  0  0  0  0  0  0  0  0  0  0
   19.5320  -20.0871  -16.4018 C   0  0  0  0  0  0  0  0  0  0  0  0
   19.4674  -20.6590  -17.5300 O   0  0  0  0  0  0  0  0  0  0  0  0
   19.2576  -21.8700  -12.3449 C   0  0  0  0  0  0  0  0  0  0  0  0
   18.0597  -21.5464  -12.0383 O   0  0  0  0  0  0  0  0  0  0  0  0
   19.3468  -18.6919  -16.3420 O   0  0  0  0  0  0  0  0  0  0  0  0
   19.5213  -23.2228  -12.3098 O   0  0  0  0  0  0  0  0  0  0  0  0
  2  3  2  0
  2  1  1  0
  4  3  1  0
  5  4  2  0
  6  5  1  0
  7  6  1  0
  7  8  1  6
  9  7  1  0
  9 10  2  0
 11  5  1  0
 11 12  2  0
 12  2  1  0
 13 14  1  0
 14 15  2  0
 14 16  1  0
 16 17  1  0
 18 17  1  1
 18 19  1  0
 19  9  1  0
 20 18  1  0
 21 20  2  0
 22 20  1  0
 23 22  1  0
 23 28  1  0
 23 24  1  6
 25 24  1  0
 26 25  1  0
 27 26  2  0
 28 31  1  0
 29 28  2  0
 30 26  1  0
M  END
$$$$
