YQE.pdb
     RDKit          3D

 31 31  0  0  1  0  0  0  0  0999 V2000
   28.8339  -18.8889   -4.4906 O   0  0  0  0  0  0  0  0  0  0  0  0
   28.6102  -19.1920   -5.8383 C   0  0  0  0  0  0  0  0  0  0  0  0
   27.7875  -18.3651   -6.5859 C   0  0  0  0  0  0  0  0  0  0  0  0
   27.5788  -18.6888   -7.9318 C   0  0  0  0  0  0  0  0  0  0  0  0
   28.1612  -19.7825   -8.5045 C   0  0  0  0  0  0  0  0  0  0  0  0
   27.9232  -20.0955   -9.9200 C   0  0  0  0  0  0  0  0  0  0  0  0
   26.5399  -20.7611   -9.9949 C   0  0  2  0  0  0  0  0  0  0  0  0
   26.6129  -22.0337   -9.3229 N   0  0  0  0  0  0  0  0  0  0  0  0
   26.2660  -20.9647  -11.4246 C   0  0  0  0  0  0  0  0  0  0  0  0
   27.0914  -21.5733  -12.1240 O   0  0  0  0  0  0  0  0  0  0  0  0
   28.9719  -20.5856   -7.7423 C   0  0  0  0  0  0  0  0  0  0  0  0
   29.2139  -20.3072   -6.3919 C   0  0  0  0  0  0  0  0  0  0  0  0
   25.6906  -24.3791  -14.1669 N   0  0  0  0  0  0  0  0  0  0  0  0
   24.4212  -24.1259  -14.7056 C   0  0  0  0  0  0  0  0  0  0  0  0
   24.0451  -24.7472  -15.7220 O   0  0  0  0  0  0  0  0  0  0  0  0
   23.4550  -23.1176  -14.1121 C   0  0  0  0  0  0  0  0  0  0  0  0
   24.0907  -22.4679  -12.9242 C   0  0  0  0  0  0  0  0  0  0  0  0
   24.4303  -21.0426  -13.1710 C   0  0  2  0  0  0  0  0  0  0  0  0
   25.0804  -20.4726  -11.9861 N   0  0  0  0  0  0  0  0  0  0  0  0
   23.2292  -20.2376  -13.4439 C   0  0  0  0  0  0  0  0  0  0  0  0
   22.3371  -20.1851  -12.5279 O   0  0  0  0  0  0  0  0  0  0  0  0
   23.0335  -19.5304  -14.6523 N   0  0  0  0  0  0  0  0  0  0  0  0
   21.8401  -18.6429  -14.7449 C   0  0  1  0  0  0  0  0  0  0  0  0
   22.1201  -17.7795  -15.9229 C   0  0  0  0  0  0  0  0  0  0  0  0
   23.5398  -17.4095  -16.1373 C   0  0  0  0  0  0  0  0  0  0  0  0
   23.7548  -16.4716  -17.2569 C   0  0  0  0  0  0  0  0  0  0  0  0
   23.7773  -16.9018  -18.4479 O   0  0  0  0  0  0  0  0  0  0  0  0
   20.6208  -19.4340  -14.7418 C   0  0  0  0  0  0  0  0  0  0  0  0
   19.5106  -18.8652  -14.4630 O   0  0  0  0  0  0  0  0  0  0  0  0
   23.9326  -15.0918  -17.0355 O   0  0  0  0  0  0  0  0  0  0  0  0
   20.5289  -20.7800  -15.0258 O   0  0  0  0  0  0  0  0  0  0  0  0
  2  3  2  0
  2  1  1  0
  4  3  1  0
  5  4  2  0
  6  5  1  0
  7  6  1  0
  7  8  1  1
  9  7  1  0
  9 10  2  0
 11  5  1  0
 11 12  2  0
 12  2  1  0
 13 14  1  0
 14 15  2  0
 14 16  1  0
 16 17  1  0
 18 17  1  1
 18 19  1  0
 19  9  1  0
 20 18  1  0
 21 20  2  0
 22 20  1  0
 23 22  1  0
 23 28  1  0
 23 24  1  6
 25 24  1  0
 26 25  1  0
 27 26  2  0
 28 31  1  0
 29 28  2  0
 30 26  1  0
M  END
$$$$
