YQE.pdb
     RDKit          3D

 31 31  0  0  1  0  0  0  0  0999 V2000
   29.1994  -19.7116   -5.7191 O   0  0  0  0  0  0  0  0  0  0  0  0
   28.6465  -19.8210   -6.9999 C   0  0  0  0  0  0  0  0  0  0  0  0
   27.3015  -19.5403   -7.1780 C   0  0  0  0  0  0  0  0  0  0  0  0
   26.7713  -19.6568   -8.4684 C   0  0  0  0  0  0  0  0  0  0  0  0
   27.5432  -20.0343   -9.5290 C   0  0  0  0  0  0  0  0  0  0  0  0
   26.9575  -20.1470  -10.8716 C   0  0  0  0  0  0  0  0  0  0  0  0
   26.0965  -21.4201  -10.8685 C   0  0  2  0  0  0  0  0  0  0  0  0
   26.9634  -22.5533  -11.0699 N   0  0  0  0  0  0  0  0  0  0  0  0
   25.1739  -21.2870  -12.0050 C   0  0  0  0  0  0  0  0  0  0  0  0
   25.5448  -21.6366  -13.1369 O   0  0  0  0  0  0  0  0  0  0  0  0
   28.8728  -20.3068   -9.3261 C   0  0  0  0  0  0  0  0  0  0  0  0
   29.4532  -20.2058   -8.0562 C   0  0  0  0  0  0  0  0  0  0  0  0
   19.6782  -18.6248  -11.9605 N   0  0  0  0  0  0  0  0  0  0  0  0
   19.5215  -19.5028  -13.0423 C   0  0  0  0  0  0  0  0  0  0  0  0
   18.5990  -19.3148  -13.8634 O   0  0  0  0  0  0  0  0  0  0  0  0
   20.4284  -20.6960  -13.2794 C   0  0  0  0  0  0  0  0  0  0  0  0
   21.5134  -20.7011  -12.2497 C   0  0  0  0  0  0  0  0  0  0  0  0
   22.8698  -20.6584  -12.8546 C   0  0  2  0  0  0  0  0  0  0  0  0
   23.8877  -20.7688  -11.8042 N   0  0  0  0  0  0  0  0  0  0  0  0
   23.1075  -19.3925  -13.5661 C   0  0  0  0  0  0  0  0  0  0  0  0
   23.8227  -18.5117  -12.9742 O   0  0  0  0  0  0  0  0  0  0  0  0
   22.5912  -19.1238  -14.8545 N   0  0  0  0  0  0  0  0  0  0  0  0
   23.5684  -18.8271  -15.9395 C   0  0  1  0  0  0  0  0  0  0  0  0
   24.6110  -19.8765  -15.7864 C   0  0  0  0  0  0  0  0  0  0  0  0
   25.9447  -19.5575  -16.3498 C   0  0  0  0  0  0  0  0  0  0  0  0
   26.6667  -20.7279  -16.8869 C   0  0  0  0  0  0  0  0  0  0  0  0
   26.1267  -21.8733  -16.8575 O   0  0  0  0  0  0  0  0  0  0  0  0
   22.8852  -18.7127  -17.2173 C   0  0  0  0  0  0  0  0  0  0  0  0
   21.9372  -19.5252  -17.4911 O   0  0  0  0  0  0  0  0  0  0  0  0
   27.9548  -20.6044  -17.4437 O   0  0  0  0  0  0  0  0  0  0  0  0
   23.1549  -17.7825  -18.1986 O   0  0  0  0  0  0  0  0  0  0  0  0
  2  3  2  0
  2  1  1  0
  4  3  1  0
  5  4  2  0
  6  5  1  0
  7  6  1  0
  7  8  1  6
  9  7  1  0
  9 10  2  0
 11  5  1  0
 11 12  2  0
 12  2  1  0
 13 14  1  0
 14 15  2  0
 14 16  1  0
 16 17  1  0
 18 17  1  1
 18 19  1  0
 19  9  1  0
 20 18  1  0
 21 20  2  0
 22 20  1  0
 23 22  1  0
 23 28  1  0
 23 24  1  6
 25 24  1  0
 26 25  1  0
 27 26  2  0
 28 31  1  0
 29 28  2  0
 30 26  1  0
M  END
$$$$
