LSQ.pdb
     RDKit          3D

 24 23  0  0  1  0  0  0  0  0999 V2000
   26.4008  -21.3647   -7.4813 C   0  0  0  0  0  0  0  0  0  0  0  0
   27.0277  -20.3755   -8.4036 C   0  0  2  0  0  0  0  0  0  0  0  0
   27.5660  -19.1881   -7.6081 C   0  0  0  0  0  0  0  0  0  0  0  0
   26.2326  -19.9314   -9.5729 C   0  0  0  0  0  0  0  0  0  0  0  0
   25.6071  -20.9396  -10.4471 C   0  0  2  0  0  0  0  0  0  0  0  0
   26.7399  -21.5959  -11.1442 N   0  0  0  0  0  0  0  0  0  0  0  0
   24.5928  -20.5289  -11.4035 C   0  0  0  0  0  0  0  0  0  0  0  0
   23.4932  -20.0188  -11.0788 O   0  0  0  0  0  0  0  0  0  0  0  0
   25.4881  -21.1247  -15.2871 O   0  0  0  0  0  0  0  0  0  0  0  0
   24.5777  -20.0712  -15.1254 C   0  0  0  0  0  0  0  0  0  0  0  0
   23.8176  -20.2253  -13.8001 C   0  0  2  0  0  0  0  0  0  0  0  0
   24.7674  -20.6756  -12.8329 N   0  0  0  0  0  0  0  0  0  0  0  0
   22.6711  -21.1336  -13.9706 C   0  0  0  0  0  0  0  0  0  0  0  0
   22.6668  -21.9139  -14.9552 O   0  0  0  0  0  0  0  0  0  0  0  0
   18.9469  -23.1944   -9.3694 N   0  0  0  0  0  0  0  0  0  0  0  0
   18.3647  -23.8270  -10.4839 C   0  0  0  0  0  0  0  0  0  0  0  0
   17.3683  -24.5668  -10.3072 O   0  0  0  0  0  0  0  0  0  0  0  0
   18.9291  -23.6166  -11.8530 C   0  0  0  0  0  0  0  0  0  0  0  0
   20.0335  -22.6100  -11.8432 C   0  0  0  0  0  0  0  0  0  0  0  0
   20.5413  -22.2385  -13.1945 C   0  0  2  0  0  0  0  0  0  0  0  0
   21.5653  -21.1782  -13.0822 N   0  0  0  0  0  0  0  0  0  0  0  0
   19.4380  -21.6875  -14.0078 C   0  0  0  0  0  0  0  0  0  0  0  0
   18.9284  -20.4189  -13.6713 O   0  0  0  0  0  0  0  0  0  0  0  0
   18.9105  -22.2765  -14.9951 O   0  0  0  0  0  0  0  0  0  0  0  0
  2  1  1  1
  2  3  1  0
  4  5  1  0
  4  2  1  0
  5  7  1  0
  5  6  1  6
  7  8  2  0
 10  9  1  0
 11 10  1  6
 12 11  1  0
 12  7  1  0
 13 11  1  0
 13 14  2  0
 16 15  1  0
 16 17  2  0
 18 16  1  0
 19 18  1  0
 20 21  1  0
 20 19  1  1
 21 13  1  0
 22 20  1  0
 23 22  1  0
 24 22  2  0
M  END
$$$$
