LSQ.pdb
     RDKit          3D

 24 23  0  0  1  0  0  0  0  0999 V2000
   19.9275  -12.5581  -20.1774 C   0  0  0  0  0  0  0  0  0  0  0  0
   18.6476  -12.8207  -19.4597 C   0  0  2  0  0  0  0  0  0  0  0  0
   17.5031  -12.9479  -20.4628 C   0  0  0  0  0  0  0  0  0  0  0  0
   18.2927  -11.9154  -18.3412 C   0  0  0  0  0  0  0  0  0  0  0  0
   19.3085  -11.5898  -17.3242 C   0  0  2  0  0  0  0  0  0  0  0  0
   19.4256  -12.8145  -16.4959 N   0  0  0  0  0  0  0  0  0  0  0  0
   19.1278  -10.4214  -16.4790 C   0  0  0  0  0  0  0  0  0  0  0  0
   18.1561  -10.2670  -15.7001 O   0  0  0  0  0  0  0  0  0  0  0  0
   22.3231   -8.0352  -15.7077 O   0  0  0  0  0  0  0  0  0  0  0  0
   21.2180   -8.0106  -14.8458 C   0  0  0  0  0  0  0  0  0  0  0  0
   19.9165   -8.1580  -15.6471 C   0  0  2  0  0  0  0  0  0  0  0  0
   20.0672   -9.3203  -16.4636 N   0  0  0  0  0  0  0  0  0  0  0  0
   19.6446   -6.9292  -16.4118 C   0  0  0  0  0  0  0  0  0  0  0  0
   19.9517   -6.9018  -17.6297 O   0  0  0  0  0  0  0  0  0  0  0  0
   17.1917   -4.7077  -19.8446 N   0  0  0  0  0  0  0  0  0  0  0  0
   17.0284   -3.4067  -19.3329 C   0  0  0  0  0  0  0  0  0  0  0  0
   16.7344   -2.4787  -20.1227 O   0  0  0  0  0  0  0  0  0  0  0  0
   17.2037   -3.1416  -17.8714 C   0  0  0  0  0  0  0  0  0  0  0  0
   17.4863   -4.3990  -17.1149 C   0  0  0  0  0  0  0  0  0  0  0  0
   18.8946   -4.5330  -16.6454 C   0  0  2  0  0  0  0  0  0  0  0  0
   19.0528   -5.7685  -15.8492 N   0  0  0  0  0  0  0  0  0  0  0  0
   19.2342   -3.4020  -15.7577 C   0  0  0  0  0  0  0  0  0  0  0  0
   19.6441   -2.1903  -16.3458 O   0  0  0  0  0  0  0  0  0  0  0  0
   19.1840   -3.4409  -14.4944 O   0  0  0  0  0  0  0  0  0  0  0  0
  2  1  1  6
  2  3  1  0
  4  5  1  0
  4  2  1  0
  5  7  1  0
  5  6  1  1
  7  8  2  0
 10  9  1  0
 11 10  1  6
 12 11  1  0
 12  7  1  0
 13 11  1  0
 13 14  2  0
 16 15  1  0
 16 17  2  0
 18 16  1  0
 19 18  1  0
 20 21  1  0
 20 19  1  1
 21 13  1  0
 22 20  1  0
 23 22  1  0
 24 22  2  0
M  END
$$$$
