LSQ.pdb
     RDKit          3D

 24 23  0  0  1  0  0  0  0  0999 V2000
   19.3621  -14.0597  -19.9105 C   0  0  0  0  0  0  0  0  0  0  0  0
   18.3507  -14.2798  -18.8377 C   0  0  2  0  0  0  0  0  0  0  0  0
   16.9636  -14.4474  -19.4543 C   0  0  0  0  0  0  0  0  0  0  0  0
   18.3318  -13.3202  -17.7085 C   0  0  0  0  0  0  0  0  0  0  0  0
   19.5935  -12.9813  -17.0263 C   0  0  2  0  0  0  0  0  0  0  0  0
   20.0034  -14.2301  -16.3392 N   0  0  0  0  0  0  0  0  0  0  0  0
   19.6304  -11.8592  -16.1033 C   0  0  0  0  0  0  0  0  0  0  0  0
   18.7333  -11.6202  -15.2591 O   0  0  0  0  0  0  0  0  0  0  0  0
   22.3191   -8.3755  -14.0448 O   0  0  0  0  0  0  0  0  0  0  0  0
   22.2085   -9.5180  -14.8493 C   0  0  0  0  0  0  0  0  0  0  0  0
   20.7437   -9.7451  -15.2501 C   0  0  2  0  0  0  0  0  0  0  0  0
   20.7213  -10.9081  -16.0791 N   0  0  0  0  0  0  0  0  0  0  0  0
   20.1998   -8.5426  -15.9033 C   0  0  0  0  0  0  0  0  0  0  0  0
   20.4515   -8.3565  -17.1200 O   0  0  0  0  0  0  0  0  0  0  0  0
   15.3146   -4.9236  -14.2770 N   0  0  0  0  0  0  0  0  0  0  0  0
   15.9608   -4.0927  -15.2115 C   0  0  0  0  0  0  0  0  0  0  0  0
   15.4622   -2.9722  -15.4708 O   0  0  0  0  0  0  0  0  0  0  0  0
   17.2201   -4.5437  -15.8805 C   0  0  0  0  0  0  0  0  0  0  0  0
   17.6662   -5.8758  -15.3708 C   0  0  0  0  0  0  0  0  0  0  0  0
   18.9728   -6.3395  -15.9183 C   0  0  2  0  0  0  0  0  0  0  0  0
   19.4035   -7.5771  -15.2340 N   0  0  0  0  0  0  0  0  0  0  0  0
   20.0114   -5.3210  -15.6606 C   0  0  0  0  0  0  0  0  0  0  0  0
   20.8263   -5.4704  -14.5223 O   0  0  0  0  0  0  0  0  0  0  0  0
   20.2259   -4.3131  -16.3941 O   0  0  0  0  0  0  0  0  0  0  0  0
  2  1  1  6
  2  3  1  0
  4  5  1  0
  4  2  1  0
  5  7  1  0
  5  6  1  1
  7  8  2  0
 10  9  1  0
 11 10  1  6
 12 11  1  0
 12  7  1  0
 13 11  1  0
 13 14  2  0
 16 15  1  0
 16 17  2  0
 18 16  1  0
 19 18  1  0
 20 21  1  0
 20 19  1  1
 21 13  1  0
 22 20  1  0
 23 22  1  0
 24 22  2  0
M  END
$$$$
