LSQ.pdb
     RDKit          3D

 24 23  0  0  1  0  0  0  0  0999 V2000
   17.8798  -13.4872  -20.6222 C   0  0  0  0  0  0  0  0  0  0  0  0
   18.9105  -12.9814  -19.6715 C   0  0  2  0  0  0  0  0  0  0  0  0
   19.4276  -14.1270  -18.8040 C   0  0  0  0  0  0  0  0  0  0  0  0
   18.5636  -11.7943  -18.8548 C   0  0  0  0  0  0  0  0  0  0  0  0
   19.6060  -11.1504  -18.0355 C   0  0  2  0  0  0  0  0  0  0  0  0
   19.9514  -12.1541  -16.9996 N   0  0  0  0  0  0  0  0  0  0  0  0
   19.3404   -9.8598  -17.4224 C   0  0  0  0  0  0  0  0  0  0  0  0
   18.9381   -8.8550  -18.0574 O   0  0  0  0  0  0  0  0  0  0  0  0
   18.1811   -7.5916  -13.3239 O   0  0  0  0  0  0  0  0  0  0  0  0
   18.4932   -8.7528  -14.0442 C   0  0  0  0  0  0  0  0  0  0  0  0
   19.1945   -8.3884  -15.3607 C   0  0  2  0  0  0  0  0  0  0  0  0
   19.5202   -9.6203  -16.0063 N   0  0  0  0  0  0  0  0  0  0  0  0
   20.3629   -7.5315  -15.0977 C   0  0  0  0  0  0  0  0  0  0  0  0
   21.4215   -8.0713  -14.6899 O   0  0  0  0  0  0  0  0  0  0  0  0
   21.2477   -1.4011  -16.5501 N   0  0  0  0  0  0  0  0  0  0  0  0
   22.4333   -1.7182  -15.8609 C   0  0  0  0  0  0  0  0  0  0  0  0
   23.3358   -0.8520  -15.7798 O   0  0  0  0  0  0  0  0  0  0  0  0
   22.6081   -3.0667  -15.2380 C   0  0  0  0  0  0  0  0  0  0  0  0
   21.4115   -3.9338  -15.4602 C   0  0  0  0  0  0  0  0  0  0  0  0
   21.5290   -5.3054  -14.8885 C   0  0  2  0  0  0  0  0  0  0  0  0
   20.3618   -6.1240  -15.2795 N   0  0  0  0  0  0  0  0  0  0  0  0
   21.5292   -5.2325  -13.4130 C   0  0  0  0  0  0  0  0  0  0  0  0
   20.3275   -5.5007  -12.7303 O   0  0  0  0  0  0  0  0  0  0  0  0
   22.5394   -4.9439  -12.7087 O   0  0  0  0  0  0  0  0  0  0  0  0
  2  1  1  1
  2  3  1  0
  4  5  1  0
  4  2  1  0
  5  7  1  0
  5  6  1  1
  7  8  2  0
 10  9  1  0
 11 10  1  1
 12 11  1  0
 12  7  1  0
 13 11  1  0
 13 14  2  0
 16 15  1  0
 16 17  2  0
 18 16  1  0
 19 18  1  0
 20 21  1  0
 20 19  1  6
 21 13  1  0
 22 20  1  0
 23 22  1  0
 24 22  2  0
M  END
$$$$
