LSQ.pdb
     RDKit          3D

 24 23  0  0  1  0  0  0  0  0999 V2000
   13.2709  -10.2050   -7.7312 C   0  0  0  0  0  0  0  0  0  0  0  0
   12.6220   -8.9040   -7.4018 C   0  0  2  0  0  0  0  0  0  0  0  0
   11.1185   -9.1016   -7.2201 C   0  0  0  0  0  0  0  0  0  0  0  0
   12.9162   -7.7503   -8.2844 C   0  0  0  0  0  0  0  0  0  0  0  0
   14.3185   -7.3898   -8.5599 C   0  0  2  0  0  0  0  0  0  0  0  0
   14.7918   -6.7242   -7.3219 N   0  0  0  0  0  0  0  0  0  0  0  0
   14.6347   -6.5791   -9.7240 C   0  0  0  0  0  0  0  0  0  0  0  0
   14.0077   -5.5397  -10.0418 O   0  0  0  0  0  0  0  0  0  0  0  0
   17.7605   -4.8861  -10.4978 O   0  0  0  0  0  0  0  0  0  0  0  0
   16.5422   -4.7448  -11.1762 C   0  0  0  0  0  0  0  0  0  0  0  0
   16.0913   -6.0980  -11.7449 C   0  0  2  0  0  0  0  0  0  0  0  0
   15.7158   -6.9069  -10.6290 N   0  0  0  0  0  0  0  0  0  0  0  0
   17.1592   -6.6876  -12.5699 C   0  0  0  0  0  0  0  0  0  0  0  0
   18.1873   -7.1248  -11.9953 O   0  0  0  0  0  0  0  0  0  0  0  0
   15.6444  -10.5565  -15.5757 N   0  0  0  0  0  0  0  0  0  0  0  0
   16.8371  -10.9169  -14.9209 C   0  0  0  0  0  0  0  0  0  0  0  0
   16.9230  -12.0558  -14.4043 O   0  0  0  0  0  0  0  0  0  0  0  0
   17.9791   -9.9539  -14.8456 C   0  0  0  0  0  0  0  0  0  0  0  0
   17.6333   -8.6417  -15.4716 C   0  0  0  0  0  0  0  0  0  0  0  0
   18.1703   -7.4534  -14.7495 C   0  0  2  0  0  0  0  0  0  0  0  0
   17.0933   -6.7906  -13.9838 N   0  0  0  0  0  0  0  0  0  0  0  0
   18.6775   -6.4651  -15.7233 C   0  0  0  0  0  0  0  0  0  0  0  0
   18.0284   -5.2188  -15.8107 O   0  0  0  0  0  0  0  0  0  0  0  0
   19.6625   -6.6565  -16.4934 O   0  0  0  0  0  0  0  0  0  0  0  0
  2  1  1  6
  2  3  1  0
  4  5  1  0
  4  2  1  0
  5  7  1  0
  5  6  1  1
  7  8  2  0
 10  9  1  0
 11 10  1  1
 12 11  1  0
 12  7  1  0
 13 11  1  0
 13 14  2  0
 16 15  1  0
 16 17  2  0
 18 16  1  0
 19 18  1  0
 20 21  1  0
 20 19  1  6
 21 13  1  0
 22 20  1  0
 23 22  1  0
 24 22  2  0
M  END
$$$$
