LSQ.pdb
     RDKit          3D

 24 23  0  0  1  0  0  0  0  0999 V2000
   19.2845  -11.5924  -17.8196 C   0  0  0  0  0  0  0  0  0  0  0  0
   18.8009  -11.7199  -16.4153 C   0  0  2  0  0  0  0  0  0  0  0  0
   17.4903  -12.5032  -16.3834 C   0  0  0  0  0  0  0  0  0  0  0  0
   18.7138  -10.4807  -15.6070 C   0  0  0  0  0  0  0  0  0  0  0  0
   19.8689   -9.5667  -15.5578 C   0  0  2  0  0  0  0  0  0  0  0  0
   20.9175  -10.3158  -14.8236 N   0  0  0  0  0  0  0  0  0  0  0  0
   19.7073   -8.2368  -14.9943 C   0  0  0  0  0  0  0  0  0  0  0  0
   18.5934   -7.7013  -14.7777 O   0  0  0  0  0  0  0  0  0  0  0  0
   22.0010   -4.4022  -12.9785 O   0  0  0  0  0  0  0  0  0  0  0  0
   22.0551   -5.6978  -13.5105 C   0  0  0  0  0  0  0  0  0  0  0  0
   20.7116   -6.0620  -14.1587 C   0  0  2  0  0  0  0  0  0  0  0  0
   20.8343   -7.4050  -14.6295 N   0  0  0  0  0  0  0  0  0  0  0  0
   20.3743   -5.0933  -15.2154 C   0  0  0  0  0  0  0  0  0  0  0  0
   20.8110   -5.2968  -16.3757 O   0  0  0  0  0  0  0  0  0  0  0  0
   18.6446   -2.2541  -20.5244 N   0  0  0  0  0  0  0  0  0  0  0  0
   18.6090   -3.1925  -19.4759 C   0  0  0  0  0  0  0  0  0  0  0  0
   19.2133   -4.2816  -19.6182 O   0  0  0  0  0  0  0  0  0  0  0  0
   17.8618   -2.8904  -18.2160 C   0  0  0  0  0  0  0  0  0  0  0  0
   18.3339   -3.7392  -17.0803 C   0  0  0  0  0  0  0  0  0  0  0  0
   19.2252   -3.0363  -16.1141 C   0  0  2  0  0  0  0  0  0  0  0  0
   19.5802   -3.9375  -14.9973 N   0  0  0  0  0  0  0  0  0  0  0  0
   18.5135   -1.8826  -15.5272 C   0  0  0  0  0  0  0  0  0  0  0  0
   18.6122   -0.6363  -16.1747 O   0  0  0  0  0  0  0  0  0  0  0  0
   17.8140   -1.9305  -14.4744 O   0  0  0  0  0  0  0  0  0  0  0  0
  2  1  1  6
  2  3  1  0
  4  5  1  0
  4  2  1  0
  5  7  1  0
  5  6  1  1
  7  8  2  0
 10  9  1  0
 11 10  1  6
 12 11  1  0
 12  7  1  0
 13 11  1  0
 13 14  2  0
 16 15  1  0
 16 17  2  0
 18 16  1  0
 19 18  1  0
 20 21  1  0
 20 19  1  6
 21 13  1  0
 22 20  1  0
 23 22  1  0
 24 22  2  0
M  END
$$$$
