LSQ.pdb
     RDKit          3D

 24 23  0  0  1  0  0  0  0  0999 V2000
   18.7396  -12.5919  -19.4326 C   0  0  0  0  0  0  0  0  0  0  0  0
   17.4680  -12.1243  -18.8107 C   0  0  2  0  0  0  0  0  0  0  0  0
   16.4653  -11.7415  -19.8972 C   0  0  0  0  0  0  0  0  0  0  0  0
   17.5624  -11.0787  -17.7647 C   0  0  0  0  0  0  0  0  0  0  0  0
   18.5261  -11.2440  -16.6619 C   0  0  2  0  0  0  0  0  0  0  0  0
   18.0339  -12.4157  -15.8974 N   0  0  0  0  0  0  0  0  0  0  0  0
   18.7898  -10.1293  -15.7673 C   0  0  0  0  0  0  0  0  0  0  0  0
   17.8930   -9.4884  -15.1677 O   0  0  0  0  0  0  0  0  0  0  0  0
   22.7426   -9.1592  -14.8526 O   0  0  0  0  0  0  0  0  0  0  0  0
   21.7379   -8.8887  -13.9135 C   0  0  0  0  0  0  0  0  0  0  0  0
   20.4201   -8.5547  -14.6273 C   0  0  2  0  0  0  0  0  0  0  0  0
   20.1292   -9.6570  -15.4879 N   0  0  0  0  0  0  0  0  0  0  0  0
   20.5327   -7.2670  -15.3330 C   0  0  0  0  0  0  0  0  0  0  0  0
   20.9345   -7.2699  -16.5233 O   0  0  0  0  0  0  0  0  0  0  0  0
   18.2984   -0.1897  -15.7586 N   0  0  0  0  0  0  0  0  0  0  0  0
   18.4874   -1.4418  -15.1439 C   0  0  0  0  0  0  0  0  0  0  0  0
   17.8249   -1.7168  -14.1158 O   0  0  0  0  0  0  0  0  0  0  0  0
   19.4628   -2.4232  -15.7116 C   0  0  0  0  0  0  0  0  0  0  0  0
   19.3912   -3.7392  -15.0070 C   0  0  0  0  0  0  0  0  0  0  0  0
   20.3622   -4.7567  -15.5007 C   0  0  2  0  0  0  0  0  0  0  0  0
   20.2118   -6.0169  -14.7428 N   0  0  0  0  0  0  0  0  0  0  0  0
   21.7422   -4.2801  -15.2747 C   0  0  0  0  0  0  0  0  0  0  0  0
   22.4278   -3.6835  -16.3499 O   0  0  0  0  0  0  0  0  0  0  0  0
   22.3613   -4.3690  -14.1753 O   0  0  0  0  0  0  0  0  0  0  0  0
  2  1  1  6
  2  3  1  0
  4  5  1  0
  4  2  1  0
  5  7  1  0
  5  6  1  1
  7  8  2  0
 10  9  1  0
 11 10  1  6
 12 11  1  0
 12  7  1  0
 13 11  1  0
 13 14  2  0
 16 15  1  0
 16 17  2  0
 18 16  1  0
 19 18  1  0
 20 21  1  0
 20 19  1  1
 21 13  1  0
 22 20  1  0
 23 22  1  0
 24 22  2  0
M  END
$$$$
