LSQ.pdb
     RDKit          3D

 24 23  0  0  1  0  0  0  0  0999 V2000
   27.7241  -17.3324  -14.4564 C   0  0  0  0  0  0  0  0  0  0  0  0
   27.9165  -18.0879  -15.7270 C   0  0  2  0  0  0  0  0  0  0  0  0
   27.5407  -17.2097  -16.9187 C   0  0  0  0  0  0  0  0  0  0  0  0
   27.2976  -19.4310  -15.8244 C   0  0  0  0  0  0  0  0  0  0  0  0
   27.5067  -20.4041  -14.7375 C   0  0  2  0  0  0  0  0  0  0  0  0
   28.3281  -21.4809  -15.3420 N   0  0  0  0  0  0  0  0  0  0  0  0
   26.3575  -20.9686  -14.0497 C   0  0  0  0  0  0  0  0  0  0  0  0
   25.5126  -21.7157  -14.5999 O   0  0  0  0  0  0  0  0  0  0  0  0
   25.4205  -19.8494  -10.0310 O   0  0  0  0  0  0  0  0  0  0  0  0
   25.2802  -21.1758  -10.4618 C   0  0  0  0  0  0  0  0  0  0  0  0
   24.9416  -21.2147  -11.9589 C   0  0  2  0  0  0  0  0  0  0  0  0
   26.0859  -20.7130  -12.6512 N   0  0  0  0  0  0  0  0  0  0  0  0
   23.7090  -20.4539  -12.2245 C   0  0  0  0  0  0  0  0  0  0  0  0
   23.7723  -19.1993  -12.2433 O   0  0  0  0  0  0  0  0  0  0  0  0
   19.5327  -23.8671  -15.5987 N   0  0  0  0  0  0  0  0  0  0  0  0
   20.1858  -22.6454  -15.3493 C   0  0  0  0  0  0  0  0  0  0  0  0
   20.9763  -22.1952  -16.2117 O   0  0  0  0  0  0  0  0  0  0  0  0
   19.9372  -21.9015  -14.0758 C   0  0  0  0  0  0  0  0  0  0  0  0
   20.6626  -20.5952  -14.0521 C   0  0  0  0  0  0  0  0  0  0  0  0
   21.2475  -20.2385  -12.7282 C   0  0  2  0  0  0  0  0  0  0  0  0
   22.4476  -21.0595  -12.4616 N   0  0  0  0  0  0  0  0  0  0  0  0
   20.2751  -20.5362  -11.6567 C   0  0  0  0  0  0  0  0  0  0  0  0
   19.2007  -19.6472  -11.4632 O   0  0  0  0  0  0  0  0  0  0  0  0
   20.3359  -21.5412  -10.8911 O   0  0  0  0  0  0  0  0  0  0  0  0
  2  1  1  1
  2  3  1  0
  4  5  1  0
  4  2  1  0
  5  7  1  0
  5  6  1  6
  7  8  2  0
 10  9  1  0
 11 10  1  1
 12 11  1  0
 12  7  1  0
 13 11  1  0
 13 14  2  0
 16 15  1  0
 16 17  2  0
 18 16  1  0
 19 18  1  0
 20 21  1  0
 20 19  1  6
 21 13  1  0
 22 20  1  0
 23 22  1  0
 24 22  2  0
M  END
$$$$
