LSQ.pdb
     RDKit          3D

 24 23  0  0  1  0  0  0  0  0999 V2000
   14.3818  -21.3030    2.7806 C   0  0  0  0  0  0  0  0  0  0  0  0
   15.0428  -20.3431    1.8511 C   0  0  2  0  0  0  0  0  0  0  0  0
   16.0103  -21.0873    0.9332 C   0  0  0  0  0  0  0  0  0  0  0  0
   15.6726  -19.1401    2.4448 C   0  0  0  0  0  0  0  0  0  0  0  0
   15.1550  -18.6062    3.7173 C   0  0  2  0  0  0  0  0  0  0  0  0
   14.3104  -17.4499    3.3307 N   0  0  0  0  0  0  0  0  0  0  0  0
   16.0858  -18.2257    4.7666 C   0  0  0  0  0  0  0  0  0  0  0  0
   17.0202  -17.4036    4.6063 O   0  0  0  0  0  0  0  0  0  0  0  0
   15.1397  -17.2545    8.4096 O   0  0  0  0  0  0  0  0  0  0  0  0
   16.3355  -17.0444    7.7092 C   0  0  0  0  0  0  0  0  0  0  0  0
   16.8773  -18.3771    7.1723 C   0  0  2  0  0  0  0  0  0  0  0  0
   16.0130  -18.7710    6.1054 N   0  0  0  0  0  0  0  0  0  0  0  0
   16.9660  -19.3679    8.2582 C   0  0  0  0  0  0  0  0  0  0  0  0
   16.0263  -20.1902    8.3965 O   0  0  0  0  0  0  0  0  0  0  0  0
   20.7765  -23.5673    9.2152 N   0  0  0  0  0  0  0  0  0  0  0  0
   19.4086  -23.8048    8.9833 C   0  0  0  0  0  0  0  0  0  0  0  0
   19.0610  -24.9028    8.4884 O   0  0  0  0  0  0  0  0  0  0  0  0
   18.3918  -22.7619    9.3231 C   0  0  0  0  0  0  0  0  0  0  0  0
   19.0278  -21.5486    9.9203 C   0  0  0  0  0  0  0  0  0  0  0  0
   18.0745  -20.4504   10.2477 C   0  0  2  0  0  0  0  0  0  0  0  0
   18.0574  -19.4475    9.1618 N   0  0  0  0  0  0  0  0  0  0  0  0
   18.5187  -19.7527   11.4717 C   0  0  0  0  0  0  0  0  0  0  0  0
   18.4899  -20.4569   12.6905 O   0  0  0  0  0  0  0  0  0  0  0  0
   18.9276  -18.5562   11.5076 O   0  0  0  0  0  0  0  0  0  0  0  0
  2  1  1  1
  2  3  1  0
  4  5  1  0
  4  2  1  0
  5  7  1  0
  5  6  1  6
  7  8  2  0
 10  9  1  0
 11 10  1  1
 12 11  1  0
 12  7  1  0
 13 11  1  0
 13 14  2  0
 16 15  1  0
 16 17  2  0
 18 16  1  0
 19 18  1  0
 20 21  1  0
 20 19  1  6
 21 13  1  0
 22 20  1  0
 23 22  1  0
 24 22  2  0
M  END
$$$$
