LSQ.pdb
     RDKit          3D

 24 23  0  0  1  0  0  0  0  0999 V2000
   16.4933  -13.5944  -16.8008 C   0  0  0  0  0  0  0  0  0  0  0  0
   17.5079  -13.9339  -15.7628 C   0  0  2  0  0  0  0  0  0  0  0  0
   16.9106  -14.9053  -14.7469 C   0  0  0  0  0  0  0  0  0  0  0  0
   18.2058  -12.8097  -15.0953 C   0  0  0  0  0  0  0  0  0  0  0  0
   18.8111  -11.7452  -15.9155 C   0  0  2  0  0  0  0  0  0  0  0  0
   19.9378  -12.4018  -16.6220 N   0  0  0  0  0  0  0  0  0  0  0  0
   19.2581  -10.5171  -15.2797 C   0  0  0  0  0  0  0  0  0  0  0  0
   18.6486   -9.9578  -14.3362 O   0  0  0  0  0  0  0  0  0  0  0  0
   22.7060   -8.5749  -16.7271 O   0  0  0  0  0  0  0  0  0  0  0  0
   22.3654   -8.4330  -15.3749 C   0  0  0  0  0  0  0  0  0  0  0  0
   20.8440   -8.5384  -15.1968 C   0  0  2  0  0  0  0  0  0  0  0  0
   20.4621   -9.8246  -15.6871 N   0  0  0  0  0  0  0  0  0  0  0  0
   20.1703   -7.4212  -15.8799 C   0  0  0  0  0  0  0  0  0  0  0  0
   19.8955   -7.5435  -17.0996 O   0  0  0  0  0  0  0  0  0  0  0  0
   15.6501   -3.7977  -14.0107 N   0  0  0  0  0  0  0  0  0  0  0  0
   16.0443   -3.0780  -15.1544 C   0  0  0  0  0  0  0  0  0  0  0  0
   15.3466   -2.1056  -15.5272 O   0  0  0  0  0  0  0  0  0  0  0  0
   17.2750   -3.4711  -15.9079 C   0  0  0  0  0  0  0  0  0  0  0  0
   17.9030   -4.6989  -15.3323 C   0  0  0  0  0  0  0  0  0  0  0  0
   19.1776   -5.1056  -15.9894 C   0  0  2  0  0  0  0  0  0  0  0  0
   19.8120   -6.2082  -15.2362 N   0  0  0  0  0  0  0  0  0  0  0  0
   20.1275   -3.9743  -15.9789 C   0  0  0  0  0  0  0  0  0  0  0  0
   19.9511   -2.9446  -16.9227 O   0  0  0  0  0  0  0  0  0  0  0  0
   21.0985   -3.8597  -15.1765 O   0  0  0  0  0  0  0  0  0  0  0  0
  2  1  1  1
  2  3  1  0
  4  5  1  0
  4  2  1  0
  5  7  1  0
  5  6  1  1
  7  8  2  0
 10  9  1  0
 11 10  1  6
 12 11  1  0
 12  7  1  0
 13 11  1  0
 13 14  2  0
 16 15  1  0
 16 17  2  0
 18 16  1  0
 19 18  1  0
 20 21  1  0
 20 19  1  1
 21 13  1  0
 22 20  1  0
 23 22  1  0
 24 22  2  0
M  END
$$$$
