LSQ.pdb
     RDKit          3D

 24 23  0  0  1  0  0  0  0  0999 V2000
   19.7205  -15.4916  -18.0247 C   0  0  0  0  0  0  0  0  0  0  0  0
   18.4816  -14.6873  -17.8237 C   0  0  2  0  0  0  0  0  0  0  0  0
   17.3489  -15.2506  -18.6793 C   0  0  0  0  0  0  0  0  0  0  0  0
   18.5908  -13.2161  -17.9659 C   0  0  0  0  0  0  0  0  0  0  0  0
   19.3724  -12.4503  -16.9786 C   0  0  2  0  0  0  0  0  0  0  0  0
   18.8906  -12.9255  -15.6588 N   0  0  0  0  0  0  0  0  0  0  0  0
   19.3639  -10.9978  -17.0285 C   0  0  0  0  0  0  0  0  0  0  0  0
   19.6378  -10.3331  -18.0570 O   0  0  0  0  0  0  0  0  0  0  0  0
   17.7664   -6.9070  -15.0011 O   0  0  0  0  0  0  0  0  0  0  0  0
   17.8464   -8.3061  -15.0267 C   0  0  0  0  0  0  0  0  0  0  0  0
   19.0339   -8.7541  -15.8909 C   0  0  2  0  0  0  0  0  0  0  0  0
   19.0338  -10.1825  -15.8789 N   0  0  0  0  0  0  0  0  0  0  0  0
   20.2843   -8.1586  -15.3903 C   0  0  0  0  0  0  0  0  0  0  0  0
   20.8066   -8.6443  -14.3561 O   0  0  0  0  0  0  0  0  0  0  0  0
   24.2884   -4.2015  -18.3147 N   0  0  0  0  0  0  0  0  0  0  0  0
   24.8228   -4.2406  -17.0131 C   0  0  0  0  0  0  0  0  0  0  0  0
   25.8838   -3.6165  -16.7760 O   0  0  0  0  0  0  0  0  0  0  0  0
   24.1328   -5.0149  -15.9354 C   0  0  0  0  0  0  0  0  0  0  0  0
   22.8860   -5.6666  -16.4395 C   0  0  0  0  0  0  0  0  0  0  0  0
   22.1473   -6.4593  -15.4159 C   0  0  2  0  0  0  0  0  0  0  0  0
   20.9364   -7.0622  -16.0122 N   0  0  0  0  0  0  0  0  0  0  0  0
   21.6941   -5.5693  -14.3273 C   0  0  0  0  0  0  0  0  0  0  0  0
   22.4748   -5.4920  -13.1583 O   0  0  0  0  0  0  0  0  0  0  0  0
   20.6453   -4.8634  -14.3670 O   0  0  0  0  0  0  0  0  0  0  0  0
  2  1  1  6
  2  3  1  0
  4  5  1  0
  4  2  1  0
  5  7  1  0
  5  6  1  1
  7  8  2  0
 10  9  1  0
 11 10  1  1
 12 11  1  0
 12  7  1  0
 13 11  1  0
 13 14  2  0
 16 15  1  0
 16 17  2  0
 18 16  1  0
 19 18  1  0
 20 21  1  0
 20 19  1  6
 21 13  1  0
 22 20  1  0
 23 22  1  0
 24 22  2  0
M  END
$$$$
