LSQ.pdb
     RDKit          3D

 24 23  0  0  1  0  0  0  0  0999 V2000
   17.0847  -12.1477  -15.6408 C   0  0  0  0  0  0  0  0  0  0  0  0
   15.8793  -11.5138  -15.0346 C   0  0  2  0  0  0  0  0  0  0  0  0
   14.6740  -11.6984  -15.9543 C   0  0  0  0  0  0  0  0  0  0  0  0
   16.0030  -10.1103  -14.5750 C   0  0  0  0  0  0  0  0  0  0  0  0
   17.0986   -9.7428  -13.6602 C   0  0  2  0  0  0  0  0  0  0  0  0
   16.7725  -10.4211  -12.3822 N   0  0  0  0  0  0  0  0  0  0  0  0
   17.3981   -8.3398  -13.4275 C   0  0  0  0  0  0  0  0  0  0  0  0
   17.5155   -7.4901  -14.3434 O   0  0  0  0  0  0  0  0  0  0  0  0
   18.8446   -7.0515   -9.7080 O   0  0  0  0  0  0  0  0  0  0  0  0
   17.8696   -6.2484  -10.3154 C   0  0  0  0  0  0  0  0  0  0  0  0
   17.9085   -6.4278  -11.8399 C   0  0  2  0  0  0  0  0  0  0  0  0
   17.5891   -7.7955  -12.1000 N   0  0  0  0  0  0  0  0  0  0  0  0
   19.2190   -6.0153  -12.3702 C   0  0  0  0  0  0  0  0  0  0  0  0
   20.1272   -6.8787  -12.4597 O   0  0  0  0  0  0  0  0  0  0  0  0
   23.0022   -5.3302  -17.8489 N   0  0  0  0  0  0  0  0  0  0  0  0
   22.1835   -5.7233  -16.7735 C   0  0  0  0  0  0  0  0  0  0  0  0
   21.4886   -6.7601  -16.8900 O   0  0  0  0  0  0  0  0  0  0  0  0
   22.1471   -4.9144  -15.5160 C   0  0  0  0  0  0  0  0  0  0  0  0
   20.8760   -5.1305  -14.7604 C   0  0  0  0  0  0  0  0  0  0  0  0
   20.7864   -4.3787  -13.4763 C   0  0  2  0  0  0  0  0  0  0  0  0
   19.5163   -4.6920  -12.7880 N   0  0  0  0  0  0  0  0  0  0  0  0
   20.7826   -2.9266  -13.7477 C   0  0  0  0  0  0  0  0  0  0  0  0
   19.5718   -2.2228  -13.6036 O   0  0  0  0  0  0  0  0  0  0  0  0
   21.7970   -2.2602  -14.1038 O   0  0  0  0  0  0  0  0  0  0  0  0
  2  1  1  6
  2  3  1  0
  4  5  1  0
  4  2  1  0
  5  7  1  0
  5  6  1  1
  7  8  2  0
 10  9  1  0
 11 10  1  1
 12 11  1  0
 12  7  1  0
 13 11  1  0
 13 14  2  0
 16 15  1  0
 16 17  2  0
 18 16  1  0
 19 18  1  0
 20 21  1  0
 20 19  1  6
 21 13  1  0
 22 20  1  0
 23 22  1  0
 24 22  2  0
M  END
$$$$
