LSQ.pdb
     RDKit          3D

 24 23  0  0  1  0  0  0  0  0999 V2000
   22.2785  -16.7120  -20.1316 C   0  0  0  0  0  0  0  0  0  0  0  0
   21.0137  -16.4282  -19.3955 C   0  0  2  0  0  0  0  0  0  0  0  0
   19.8896  -16.1289  -20.3850 C   0  0  0  0  0  0  0  0  0  0  0  0
   21.0657  -15.4204  -18.3101 C   0  0  0  0  0  0  0  0  0  0  0  0
   22.1088  -15.5262  -17.2743 C   0  0  2  0  0  0  0  0  0  0  0  0
   21.8302  -16.8077  -16.5815 N   0  0  0  0  0  0  0  0  0  0  0  0
   22.2715  -14.4526  -16.3084 C   0  0  0  0  0  0  0  0  0  0  0  0
   21.4551  -14.2144  -15.3857 O   0  0  0  0  0  0  0  0  0  0  0  0
   25.3141  -11.5995  -16.8596 O   0  0  0  0  0  0  0  0  0  0  0  0
   25.0210  -11.9930  -15.5467 C   0  0  0  0  0  0  0  0  0  0  0  0
   23.5570  -12.4442  -15.4421 C   0  0  2  0  0  0  0  0  0  0  0  0
   23.4057  -13.5536  -16.3290 N   0  0  0  0  0  0  0  0  0  0  0  0
   22.6529  -11.3207  -15.7406 C   0  0  0  0  0  0  0  0  0  0  0  0
   22.2580  -11.1681  -16.9235 O   0  0  0  0  0  0  0  0  0  0  0  0
   18.3233   -8.8449  -12.0631 N   0  0  0  0  0  0  0  0  0  0  0  0
   18.2615   -7.9551  -13.1520 C   0  0  0  0  0  0  0  0  0  0  0  0
   17.3524   -7.0924  -13.1771 O   0  0  0  0  0  0  0  0  0  0  0  0
   19.2655   -8.0419  -14.2572 C   0  0  0  0  0  0  0  0  0  0  0  0
   20.2397   -9.1518  -14.0285 C   0  0  0  0  0  0  0  0  0  0  0  0
   21.2442   -9.3246  -15.1163 C   0  0  2  0  0  0  0  0  0  0  0  0
   22.1999  -10.3960  -14.7641 N   0  0  0  0  0  0  0  0  0  0  0  0
   22.0281   -8.0824  -15.2733 C   0  0  0  0  0  0  0  0  0  0  0  0
   21.4586   -7.0199  -16.0005 O   0  0  0  0  0  0  0  0  0  0  0  0
   23.1860   -7.8994  -14.7981 O   0  0  0  0  0  0  0  0  0  0  0  0
  2  1  1  6
  2  3  1  0
  4  5  1  0
  4  2  1  0
  5  7  1  0
  5  6  1  1
  7  8  2  0
 10  9  1  0
 11 10  1  6
 12 11  1  0
 12  7  1  0
 13 11  1  0
 13 14  2  0
 16 15  1  0
 16 17  2  0
 18 16  1  0
 19 18  1  0
 20 21  1  0
 20 19  1  1
 21 13  1  0
 22 20  1  0
 23 22  1  0
 24 22  2  0
M  END
$$$$
