LSQ.pdb
     RDKit          3D

 24 23  0  0  1  0  0  0  0  0999 V2000
   32.4973  -25.9010  -15.7778 C   0  0  0  0  0  0  0  0  0  0  0  0
   31.4577  -25.4013  -16.7221 C   0  0  2  0  0  0  0  0  0  0  0  0
   31.9284  -25.5873  -18.1630 C   0  0  0  0  0  0  0  0  0  0  0  0
   30.9272  -24.0362  -16.4951 C   0  0  0  0  0  0  0  0  0  0  0  0
   29.8174  -23.5434  -17.3304 C   0  0  2  0  0  0  0  0  0  0  0  0
   30.3968  -23.3979  -18.6879 N   0  0  0  0  0  0  0  0  0  0  0  0
   29.1149  -22.3305  -16.9463 C   0  0  0  0  0  0  0  0  0  0  0  0
   29.6562  -21.2001  -16.8853 O   0  0  0  0  0  0  0  0  0  0  0  0
   26.3537  -19.0302  -17.2442 O   0  0  0  0  0  0  0  0  0  0  0  0
   27.0646  -20.2139  -17.4850 C   0  0  0  0  0  0  0  0  0  0  0  0
   26.9798  -21.1417  -16.2645 C   0  0  2  0  0  0  0  0  0  0  0  0
   27.7104  -22.3234  -16.5963 N   0  0  0  0  0  0  0  0  0  0  0  0
   25.5727  -21.3958  -15.9119 C   0  0  0  0  0  0  0  0  0  0  0  0
   24.9166  -22.2055  -16.6134 O   0  0  0  0  0  0  0  0  0  0  0  0
   22.4727  -19.7037  -10.6298 N   0  0  0  0  0  0  0  0  0  0  0  0
   21.4642  -20.3599  -11.3603 C   0  0  0  0  0  0  0  0  0  0  0  0
   20.3201  -20.4584  -10.8575 O   0  0  0  0  0  0  0  0  0  0  0  0
   21.7579  -20.9279  -12.7124 C   0  0  0  0  0  0  0  0  0  0  0  0
   23.1779  -20.6889  -13.1119 C   0  0  0  0  0  0  0  0  0  0  0  0
   23.4974  -21.0773  -14.5152 C   0  0  2  0  0  0  0  0  0  0  0  0
   24.9121  -20.7753  -14.8198 N   0  0  0  0  0  0  0  0  0  0  0  0
   22.6760  -20.2833  -15.4519 C   0  0  0  0  0  0  0  0  0  0  0  0
   21.4120  -20.7819  -15.8203 O   0  0  0  0  0  0  0  0  0  0  0  0
   23.0270  -19.1766  -15.9536 O   0  0  0  0  0  0  0  0  0  0  0  0
  2  1  1  1
  2  3  1  0
  4  5  1  0
  4  2  1  0
  5  7  1  0
  5  6  1  6
  7  8  2  0
 10  9  1  0
 11 10  1  6
 12 11  1  0
 12  7  1  0
 13 11  1  0
 13 14  2  0
 16 15  1  0
 16 17  2  0
 18 16  1  0
 19 18  1  0
 20 21  1  0
 20 19  1  1
 21 13  1  0
 22 20  1  0
 23 22  1  0
 24 22  2  0
M  END
$$$$
