LSQ.pdb
     RDKit          3D

 24 23  0  0  1  0  0  0  0  0999 V2000
   25.9791  -19.6697  -16.6530 C   0  0  0  0  0  0  0  0  0  0  0  0
   25.0371  -18.5372  -16.4240 C   0  0  2  0  0  0  0  0  0  0  0  0
   25.7972  -17.2129  -16.4471 C   0  0  0  0  0  0  0  0  0  0  0  0
   24.1336  -18.6256  -15.2525 C   0  0  0  0  0  0  0  0  0  0  0  0
   23.3487  -19.8540  -15.0356 C   0  0  2  0  0  0  0  0  0  0  0  0
   22.4949  -19.9794  -16.2419 N   0  0  0  0  0  0  0  0  0  0  0  0
   22.5471  -19.9892  -13.8309 C   0  0  0  0  0  0  0  0  0  0  0  0
   22.9944  -19.8139  -12.6716 O   0  0  0  0  0  0  0  0  0  0  0  0
   18.5308  -19.9790  -14.2202 O   0  0  0  0  0  0  0  0  0  0  0  0
   19.0500  -19.6813  -12.9528 C   0  0  0  0  0  0  0  0  0  0  0  0
   20.3312  -20.4893  -12.7009 C   0  0  2  0  0  0  0  0  0  0  0  0
   21.1439  -20.3427  -13.8664 N   0  0  0  0  0  0  0  0  0  0  0  0
   19.9995  -21.8884  -12.3833 C   0  0  0  0  0  0  0  0  0  0  0  0
   19.9695  -22.7242  -13.3207 O   0  0  0  0  0  0  0  0  0  0  0  0
   19.2802  -24.6693   -6.6968 N   0  0  0  0  0  0  0  0  0  0  0  0
   18.8405  -25.6771   -7.5756 C   0  0  0  0  0  0  0  0  0  0  0  0
   18.4569  -26.7708   -7.0981 O   0  0  0  0  0  0  0  0  0  0  0  0
   18.8332  -25.4419   -9.0527 C   0  0  0  0  0  0  0  0  0  0  0  0
   19.2979  -24.0626   -9.3915 C   0  0  0  0  0  0  0  0  0  0  0  0
   19.2157  -23.7228  -10.8406 C   0  0  2  0  0  0  0  0  0  0  0  0
   19.7103  -22.3492  -11.0724 N   0  0  0  0  0  0  0  0  0  0  0  0
   17.8058  -23.7531  -11.2808 C   0  0  0  0  0  0  0  0  0  0  0  0
   17.3106  -24.9386  -11.8565 O   0  0  0  0  0  0  0  0  0  0  0  0
   17.0009  -22.7828  -11.1784 O   0  0  0  0  0  0  0  0  0  0  0  0
  2  1  1  1
  2  3  1  0
  4  5  1  0
  4  2  1  0
  5  7  1  0
  5  6  1  6
  7  8  2  0
 10  9  1  0
 11 10  1  6
 12 11  1  0
 12  7  1  0
 13 11  1  0
 13 14  2  0
 16 15  1  0
 16 17  2  0
 18 16  1  0
 19 18  1  0
 20 21  1  0
 20 19  1  1
 21 13  1  0
 22 20  1  0
 23 22  1  0
 24 22  2  0
M  END
$$$$
