QTS.pdb
     RDKit          3D

 23 22  0  0  1  0  0  0  0  0999 V2000
   21.4425  -21.0128  -12.2294 N   0  0  0  0  0  0  0  0  0  0  0  0
   20.9449  -21.2569  -10.8991 C   0  0  0  0  0  0  0  0  0  0  0  0
   19.9137  -21.9624  -10.8213 O   0  0  0  0  0  0  0  0  0  0  0  0
   21.6896  -20.6620   -9.7918 C   0  0  0  0  0  0  0  0  0  0  0  0
   22.9116  -19.9188  -10.2563 C   0  0  0  0  0  0  0  0  0  0  0  0
   24.1155  -20.7949  -10.1633 C   0  0  2  0  0  0  0  0  0  0  0  0
   24.5097  -20.8080   -8.7445 N   0  0  0  0  0  0  0  0  0  0  0  0
   25.2854  -20.2075  -10.8977 C   0  0  0  0  0  0  0  0  0  0  0  0
   26.0274  -19.3533  -10.3629 O   0  0  0  0  0  0  0  0  0  0  0  0
   28.4830  -21.4295  -12.1427 C   0  0  0  0  0  0  0  0  0  0  0  0
   27.7550  -20.9501  -13.3699 C   0  0  1  0  0  0  0  0  0  0  0  0
   27.1592  -22.0424  -13.9934 O   0  0  0  0  0  0  0  0  0  0  0  0
   26.6256  -19.9826  -13.0199 C   0  0  2  0  0  0  0  0  0  0  0  0
   25.6032  -20.5941  -12.2316 N   0  0  0  0  0  0  0  0  0  0  0  0
   26.0589  -19.3742  -14.2797 C   0  0  0  0  0  0  0  0  0  0  0  0
   24.9441  -19.7448  -14.7226 O   0  0  0  0  0  0  0  0  0  0  0  0
   26.9719  -16.2983  -17.9764 O   0  0  0  0  0  0  0  0  0  0  0  0
   27.3535  -16.7436  -16.7359 C   0  0  0  0  0  0  0  0  0  0  0  0
   26.4062  -17.7871  -16.2116 C   0  0  2  0  0  0  0  0  0  0  0  0
   26.7969  -18.3759  -14.9642 N   0  0  0  0  0  0  0  0  0  0  0  0
   26.2396  -18.8250  -17.2716 C   0  0  0  0  0  0  0  0  0  0  0  0
   25.2045  -18.7652  -18.1877 O   0  0  0  0  0  0  0  0  0  0  0  0
   27.0336  -19.7715  -17.3535 O   0  0  0  0  0  0  0  0  0  0  0  0
  2  1  1  0
  2  3  2  0
  4  2  1  0
  5  6  1  0
  5  4  1  0
  6  7  1  1
  8  9  2  0
  8  6  1  0
 11 10  1  1
 11 13  1  0
 12 11  1  0
 13 15  1  0
 13 14  1  6
 14  8  1  0
 15 20  1  0
 16 15  2  0
 18 17  1  0
 19 18  1  6
 19 21  1  0
 20 19  1  0
 21 23  2  0
 21 22  1  0
M  END
$$$$
