QTS.pdb
     RDKit          3D

 23 22  0  0  1  0  0  0  0  0999 V2000
   15.8188  -12.8106  -13.3073 N   0  0  0  0  0  0  0  0  0  0  0  0
   15.7735  -12.8201  -14.7477 C   0  0  0  0  0  0  0  0  0  0  0  0
   15.9737  -13.9282  -15.2945 O   0  0  0  0  0  0  0  0  0  0  0  0
   15.5002  -11.5478  -15.4120 C   0  0  0  0  0  0  0  0  0  0  0  0
   15.3241  -10.4175  -14.4360 C   0  0  0  0  0  0  0  0  0  0  0  0
   15.0714   -9.1404  -15.1647 C   0  0  2  0  0  0  0  0  0  0  0  0
   14.4618   -9.5120  -16.4526 N   0  0  0  0  0  0  0  0  0  0  0  0
   16.3523   -8.4409  -15.5159 C   0  0  0  0  0  0  0  0  0  0  0  0
   17.1185   -8.8898  -16.3976 O   0  0  0  0  0  0  0  0  0  0  0  0
   16.5775   -4.9259  -16.7648 C   0  0  0  0  0  0  0  0  0  0  0  0
   17.5053   -5.0097  -15.5824 C   0  0  1  0  0  0  0  0  0  0  0  0
   16.8501   -4.5084  -14.4616 O   0  0  0  0  0  0  0  0  0  0  0  0
   17.8801   -6.4540  -15.2545 C   0  0  2  0  0  0  0  0  0  0  0  0
   16.7524   -7.2389  -14.8640 N   0  0  0  0  0  0  0  0  0  0  0  0
   18.9600   -6.4797  -14.2001 C   0  0  0  0  0  0  0  0  0  0  0  0
   18.6617   -6.5193  -12.9812 O   0  0  0  0  0  0  0  0  0  0  0  0
   22.9745   -7.0416  -15.4202 O   0  0  0  0  0  0  0  0  0  0  0  0
   22.5754   -7.3706  -14.1493 C   0  0  0  0  0  0  0  0  0  0  0  0
   21.4323   -6.5073  -13.6918 C   0  0  2  0  0  0  0  0  0  0  0  0
   20.3211   -6.4589  -14.5962 N   0  0  0  0  0  0  0  0  0  0  0  0
   21.9720   -5.1414  -13.4236 C   0  0  0  0  0  0  0  0  0  0  0  0
   22.8122   -4.8919  -12.3531 O   0  0  0  0  0  0  0  0  0  0  0  0
   21.6752   -4.1931  -14.1623 O   0  0  0  0  0  0  0  0  0  0  0  0
  2  1  1  0
  2  3  2  0
  4  2  1  0
  5  6  1  0
  5  4  1  0
  6  7  1  6
  8  9  2  0
  8  6  1  0
 11 10  1  6
 11 13  1  0
 12 11  1  0
 13 15  1  0
 13 14  1  1
 14  8  1  0
 15 20  1  0
 16 15  2  0
 18 17  1  0
 19 18  1  6
 19 21  1  0
 20 19  1  0
 21 23  2  0
 21 22  1  0
M  END
$$$$
