QTS.pdb
     RDKit          3D

 23 22  0  0  1  0  0  0  0  0999 V2000
   16.0629  -12.0642  -14.2122 N   0  0  0  0  0  0  0  0  0  0  0  0
   15.8719  -12.6880  -15.4972 C   0  0  0  0  0  0  0  0  0  0  0  0
   14.7763  -13.2697  -15.6660 O   0  0  0  0  0  0  0  0  0  0  0  0
   16.9659  -12.5760  -16.4591 C   0  0  0  0  0  0  0  0  0  0  0  0
   18.1564  -11.8532  -15.8919 C   0  0  0  0  0  0  0  0  0  0  0  0
   19.2903  -11.8856  -16.8610 C   0  0  2  0  0  0  0  0  0  0  0  0
   19.8067  -13.2645  -16.8483 N   0  0  0  0  0  0  0  0  0  0  0  0
   20.4333  -11.0265  -16.4042 C   0  0  0  0  0  0  0  0  0  0  0  0
   21.1364  -11.3479  -15.4201 O   0  0  0  0  0  0  0  0  0  0  0  0
   23.4395   -9.8745  -18.4346 C   0  0  0  0  0  0  0  0  0  0  0  0
   22.7767   -8.6432  -17.8772 C   0  0  1  0  0  0  0  0  0  0  0  0
   21.9639   -8.0872  -18.8604 O   0  0  0  0  0  0  0  0  0  0  0  0
   21.8644   -8.9731  -16.6970 C   0  0  2  0  0  0  0  0  0  0  0  0
   20.7684   -9.8109  -17.0675 N   0  0  0  0  0  0  0  0  0  0  0  0
   21.3865   -7.6993  -16.0430 C   0  0  0  0  0  0  0  0  0  0  0  0
   20.3020   -7.1709  -16.3906 O   0  0  0  0  0  0  0  0  0  0  0  0
   22.3676   -4.3658  -12.6006 O   0  0  0  0  0  0  0  0  0  0  0  0
   22.8214   -5.4580  -13.2963 C   0  0  0  0  0  0  0  0  0  0  0  0
   21.8505   -5.8681  -14.3688 C   0  0  2  0  0  0  0  0  0  0  0  0
   22.1738   -7.0994  -15.0281 N   0  0  0  0  0  0  0  0  0  0  0  0
   21.7470   -4.7426  -15.3442 C   0  0  0  0  0  0  0  0  0  0  0  0
   20.7048   -3.8341  -15.2940 O   0  0  0  0  0  0  0  0  0  0  0  0
   22.6017   -4.5976  -16.2282 O   0  0  0  0  0  0  0  0  0  0  0  0
  2  1  1  0
  2  3  2  0
  4  2  1  0
  5  6  1  0
  5  4  1  0
  6  7  1  1
  8  9  2  0
  8  6  1  0
 11 10  1  6
 11 13  1  0
 12 11  1  0
 13 15  1  0
 13 14  1  6
 14  8  1  0
 15 20  1  0
 16 15  2  0
 18 17  1  0
 19 18  1  1
 19 21  1  0
 20 19  1  0
 21 23  2  0
 21 22  1  0
M  END
$$$$
