QTS.pdb
     RDKit          3D

 23 22  0  0  1  0  0  0  0  0999 V2000
   15.2713  -11.5246  -14.0186 N   0  0  0  0  0  0  0  0  0  0  0  0
   15.0906  -12.4599  -15.1000 C   0  0  0  0  0  0  0  0  0  0  0  0
   13.9984  -13.0714  -15.1183 O   0  0  0  0  0  0  0  0  0  0  0  0
   16.1901  -12.5940  -16.0528 C   0  0  0  0  0  0  0  0  0  0  0  0
   17.3743  -11.7432  -15.6855 C   0  0  0  0  0  0  0  0  0  0  0  0
   18.4955  -11.9780  -16.6413 C   0  0  2  0  0  0  0  0  0  0  0  0
   18.8415  -13.4051  -16.5315 N   0  0  0  0  0  0  0  0  0  0  0  0
   19.7342  -11.2340  -16.2348 C   0  0  0  0  0  0  0  0  0  0  0  0
   20.4577  -11.6378  -15.2969 O   0  0  0  0  0  0  0  0  0  0  0  0
   22.7568  -10.2731  -18.3283 C   0  0  0  0  0  0  0  0  0  0  0  0
   22.2095   -9.0035  -17.7330 C   0  0  1  0  0  0  0  0  0  0  0  0
   21.4244   -8.3628  -18.6868 O   0  0  0  0  0  0  0  0  0  0  0  0
   21.2983   -9.2817  -16.5386 C   0  0  2  0  0  0  0  0  0  0  0  0
   20.1410  -10.0391  -16.8956 N   0  0  0  0  0  0  0  0  0  0  0  0
   20.9207   -7.9847  -15.8651 C   0  0  0  0  0  0  0  0  0  0  0  0
   19.8332   -7.4181  -16.1343 O   0  0  0  0  0  0  0  0  0  0  0  0
   22.1212   -4.6641  -12.5160 O   0  0  0  0  0  0  0  0  0  0  0  0
   22.4435   -5.8653  -13.0957 C   0  0  0  0  0  0  0  0  0  0  0  0
   21.6465   -6.1017  -14.3487 C   0  0  2  0  0  0  0  0  0  0  0  0
   21.8063   -7.4064  -14.9210 N   0  0  0  0  0  0  0  0  0  0  0  0
   22.0080   -5.0334  -15.3269 C   0  0  0  0  0  0  0  0  0  0  0  0
   21.2851   -3.8571  -15.4150 O   0  0  0  0  0  0  0  0  0  0  0  0
   22.9734   -5.1801  -16.0881 O   0  0  0  0  0  0  0  0  0  0  0  0
  2  1  1  0
  2  3  2  0
  4  2  1  0
  5  6  1  0
  5  4  1  0
  6  7  1  1
  8  9  2  0
  8  6  1  0
 11 10  1  6
 11 13  1  0
 12 11  1  0
 13 15  1  0
 13 14  1  6
 14  8  1  0
 15 20  1  0
 16 15  2  0
 18 17  1  0
 19 18  1  1
 19 21  1  0
 20 19  1  0
 21 23  2  0
 21 22  1  0
M  END
$$$$
