QTS.pdb
     RDKit          3D

 23 22  0  0  1  0  0  0  0  0999 V2000
   13.8037  -12.1659  -13.5610 N   0  0  0  0  0  0  0  0  0  0  0  0
   13.2276  -11.5689  -14.7394 C   0  0  0  0  0  0  0  0  0  0  0  0
   12.0642  -11.9327  -15.0244 O   0  0  0  0  0  0  0  0  0  0  0  0
   14.0535  -10.6103  -15.4699 C   0  0  0  0  0  0  0  0  0  0  0  0
   15.3788  -10.3690  -14.8016 C   0  0  0  0  0  0  0  0  0  0  0  0
   16.4915  -10.8446  -15.6743 C   0  0  2  0  0  0  0  0  0  0  0  0
   16.4622  -12.3157  -15.6182 N   0  0  0  0  0  0  0  0  0  0  0  0
   17.8321  -10.4503  -15.1260 C   0  0  0  0  0  0  0  0  0  0  0  0
   18.2960  -10.9850  -14.0940 O   0  0  0  0  0  0  0  0  0  0  0  0
   21.1367  -10.9831  -16.5037 C   0  0  0  0  0  0  0  0  0  0  0  0
   21.0200   -9.4900  -16.3515 C   0  0  1  0  0  0  0  0  0  0  0  0
   20.6166   -8.9454  -17.5669 O   0  0  0  0  0  0  0  0  0  0  0  0
   19.9526   -9.1041  -15.3289 C   0  0  2  0  0  0  0  0  0  0  0  0
   18.6341   -9.4535  -15.7529 N   0  0  0  0  0  0  0  0  0  0  0  0
   20.0552   -7.6329  -15.0069 C   0  0  0  0  0  0  0  0  0  0  0  0
   19.2068   -6.8211  -15.4513 O   0  0  0  0  0  0  0  0  0  0  0  0
   22.5239   -4.2161  -12.5482 O   0  0  0  0  0  0  0  0  0  0  0  0
   22.4155   -5.5509  -12.8475 C   0  0  0  0  0  0  0  0  0  0  0  0
   21.4076   -5.7892  -13.9376 C   0  0  2  0  0  0  0  0  0  0  0  0
   21.1212   -7.1701  -14.1950 N   0  0  0  0  0  0  0  0  0  0  0  0
   21.8957   -5.0990  -15.1682 C   0  0  0  0  0  0  0  0  0  0  0  0
   21.5276   -3.7985  -15.4636 O   0  0  0  0  0  0  0  0  0  0  0  0
   22.6486   -5.6833  -15.9586 O   0  0  0  0  0  0  0  0  0  0  0  0
  2  1  1  0
  2  3  2  0
  4  2  1  0
  5  6  1  0
  5  4  1  0
  6  7  1  1
  8  9  2  0
  8  6  1  0
 11 10  1  6
 11 13  1  0
 12 11  1  0
 13 15  1  0
 13 14  1  6
 14  8  1  0
 15 20  1  0
 16 15  2  0
 18 17  1  0
 19 18  1  1
 19 21  1  0
 20 19  1  0
 21 23  2  0
 21 22  1  0
M  END
$$$$
