QTS.pdb
     RDKit          3D

 23 22  0  0  1  0  0  0  0  0999 V2000
   28.6075  -10.7652  -16.4768 N   0  0  0  0  0  0  0  0  0  0  0  0
   28.1605  -12.1333  -16.4029 C   0  0  0  0  0  0  0  0  0  0  0  0
   29.0490  -12.9886  -16.1880 O   0  0  0  0  0  0  0  0  0  0  0  0
   26.7312  -12.3757  -16.5837 C   0  0  0  0  0  0  0  0  0  0  0  0
   25.9388  -11.1002  -16.6636 C   0  0  0  0  0  0  0  0  0  0  0  0
   24.4849  -11.4033  -16.8061 C   0  0  2  0  0  0  0  0  0  0  0  0
   24.3540  -12.2515  -18.0026 N   0  0  0  0  0  0  0  0  0  0  0  0
   23.6884  -10.1664  -17.1039 C   0  0  0  0  0  0  0  0  0  0  0  0
   23.7260   -9.6235  -18.2309 O   0  0  0  0  0  0  0  0  0  0  0  0
   20.0678   -9.6610  -17.2976 C   0  0  0  0  0  0  0  0  0  0  0  0
   20.5470   -8.7159  -16.2284 C   0  0  1  0  0  0  0  0  0  0  0  0
   20.3802   -9.3215  -14.9866 O   0  0  0  0  0  0  0  0  0  0  0  0
   22.0379   -8.4115  -16.3646 C   0  0  2  0  0  0  0  0  0  0  0  0
   22.8566   -9.5564  -16.1210 N   0  0  0  0  0  0  0  0  0  0  0  0
   22.4145   -7.2634  -15.4597 C   0  0  0  0  0  0  0  0  0  0  0  0
   22.9453   -7.4784  -14.3425 O   0  0  0  0  0  0  0  0  0  0  0  0
   23.1749   -2.4793  -15.1890 O   0  0  0  0  0  0  0  0  0  0  0  0
   22.8198   -3.5510  -15.9689 C   0  0  0  0  0  0  0  0  0  0  0  0
   22.5159   -4.7627  -15.1319 C   0  0  2  0  0  0  0  0  0  0  0  0
   22.1638   -5.9332  -15.8810 N   0  0  0  0  0  0  0  0  0  0  0  0
   21.4375   -4.3918  -14.1683 C   0  0  0  0  0  0  0  0  0  0  0  0
   21.7263   -3.8096  -12.9470 O   0  0  0  0  0  0  0  0  0  0  0  0
   20.2491   -4.6002  -14.4458 O   0  0  0  0  0  0  0  0  0  0  0  0
  2  1  1  0
  2  3  2  0
  4  2  1  0
  5  6  1  0
  5  4  1  0
  6  7  1  6
  8  9  2  0
  8  6  1  0
 11 10  1  6
 11 13  1  0
 12 11  1  0
 13 15  1  0
 13 14  1  1
 14  8  1  0
 15 20  1  0
 16 15  2  0
 18 17  1  0
 19 18  1  6
 19 21  1  0
 20 19  1  0
 21 23  2  0
 21 22  1  0
M  END
$$$$
