QTS.pdb
     RDKit          3D

 23 22  0  0  1  0  0  0  0  0999 V2000
   16.1532  -11.7046  -15.3088 N   0  0  0  0  0  0  0  0  0  0  0  0
   17.1989  -12.6855  -15.1627 C   0  0  0  0  0  0  0  0  0  0  0  0
   17.0003  -13.5733  -14.3028 O   0  0  0  0  0  0  0  0  0  0  0  0
   18.3689  -12.5427  -16.0260 C   0  0  0  0  0  0  0  0  0  0  0  0
   18.2623  -11.3571  -16.9448 C   0  0  0  0  0  0  0  0  0  0  0  0
   19.4409  -11.3037  -17.8580 C   0  0  2  0  0  0  0  0  0  0  0  0
   20.1592  -12.5770  -17.6821 N   0  0  0  0  0  0  0  0  0  0  0  0
   20.4125  -10.2364  -17.4457 C   0  0  0  0  0  0  0  0  0  0  0  0
   21.3925  -10.4966  -16.7122 O   0  0  0  0  0  0  0  0  0  0  0  0
   21.7193   -7.5531  -20.0385 C   0  0  0  0  0  0  0  0  0  0  0  0
   21.3531   -6.8627  -18.7520 C   0  0  1  0  0  0  0  0  0  0  0  0
   20.1098   -6.2568  -18.9061 O   0  0  0  0  0  0  0  0  0  0  0  0
   21.2122   -7.8514  -17.5958 C   0  0  2  0  0  0  0  0  0  0  0  0
   20.2639   -8.8841  -17.8689 N   0  0  0  0  0  0  0  0  0  0  0  0
   20.8704   -7.1128  -16.3245 C   0  0  0  0  0  0  0  0  0  0  0  0
   19.6769   -7.0043  -15.9501 O   0  0  0  0  0  0  0  0  0  0  0  0
   22.0764   -5.7149  -11.9852 O   0  0  0  0  0  0  0  0  0  0  0  0
   22.2156   -6.5059  -13.0978 C   0  0  0  0  0  0  0  0  0  0  0  0
   21.7114   -5.8109  -14.3323 C   0  0  2  0  0  0  0  0  0  0  0  0
   21.9107   -6.5388  -15.5511 N   0  0  0  0  0  0  0  0  0  0  0  0
   22.3563   -4.4658  -14.3933 C   0  0  0  0  0  0  0  0  0  0  0  0
   23.2495   -4.1357  -15.3969 O   0  0  0  0  0  0  0  0  0  0  0  0
   22.1019   -3.6084  -13.5371 O   0  0  0  0  0  0  0  0  0  0  0  0
  2  1  1  0
  2  3  2  0
  4  2  1  0
  5  6  1  0
  5  4  1  0
  6  7  1  1
  8  9  2  0
  8  6  1  0
 11 10  1  6
 11 13  1  0
 12 11  1  0
 13 15  1  0
 13 14  1  6
 14  8  1  0
 15 20  1  0
 16 15  2  0
 18 17  1  0
 19 18  1  1
 19 21  1  0
 20 19  1  0
 21 23  2  0
 21 22  1  0
M  END
$$$$
