QTS.pdb
     RDKit          3D

 23 22  0  0  1  0  0  0  0  0999 V2000
   24.3277  -31.6281   -8.0381 N   0  0  0  0  0  0  0  0  0  0  0  0
   25.7217  -31.6356   -8.4037 C   0  0  0  0  0  0  0  0  0  0  0  0
   26.0139  -31.0303   -9.4597 O   0  0  0  0  0  0  0  0  0  0  0  0
   26.6386  -32.3410   -7.5113 C   0  0  0  0  0  0  0  0  0  0  0  0
   25.9316  -32.9684   -6.3418 C   0  0  0  0  0  0  0  0  0  0  0  0
   26.4035  -34.3699   -6.1442 C   0  0  2  0  0  0  0  0  0  0  0  0
   25.8198  -35.1618   -7.2399 N   0  0  0  0  0  0  0  0  0  0  0  0
   25.8521  -34.9665   -4.8820 C   0  0  0  0  0  0  0  0  0  0  0  0
   24.6260  -35.1747   -4.7420 O   0  0  0  0  0  0  0  0  0  0  0  0
   26.1632  -38.2937   -3.5644 C   0  0  0  0  0  0  0  0  0  0  0  0
   26.7429  -37.4108   -2.4920 C   0  0  1  0  0  0  0  0  0  0  0  0
   28.1242  -37.3575   -2.6528 O   0  0  0  0  0  0  0  0  0  0  0  0
   26.2384  -35.9731   -2.6043 C   0  0  2  0  0  0  0  0  0  0  0  0
   26.6960  -35.3217   -3.7904 N   0  0  0  0  0  0  0  0  0  0  0  0
   26.6188  -35.1951   -1.3679 C   0  0  0  0  0  0  0  0  0  0  0  0
   27.5411  -34.3442   -1.4072 O   0  0  0  0  0  0  0  0  0  0  0  0
   24.0973  -34.0324    1.8642 O   0  0  0  0  0  0  0  0  0  0  0  0
   25.1313  -34.8961    2.1248 C   0  0  0  0  0  0  0  0  0  0  0  0
   26.2159  -34.7825    1.0895 C   0  0  2  0  0  0  0  0  0  0  0  0
   25.9245  -35.4320   -0.1548 N   0  0  0  0  0  0  0  0  0  0  0  0
   27.4773  -35.3070    1.6917 C   0  0  0  0  0  0  0  0  0  0  0  0
   28.0414  -34.7249    2.8128 O   0  0  0  0  0  0  0  0  0  0  0  0
   28.0508  -36.2851    1.1943 O   0  0  0  0  0  0  0  0  0  0  0  0
  2  1  1  0
  2  3  2  0
  4  2  1  0
  5  6  1  0
  5  4  1  0
  6  7  1  6
  8  9  2  0
  8  6  1  0
 11 10  1  6
 11 13  1  0
 12 11  1  0
 13 15  1  0
 13 14  1  6
 14  8  1  0
 15 20  1  0
 16 15  2  0
 18 17  1  0
 19 18  1  1
 19 21  1  0
 20 19  1  0
 21 23  2  0
 21 22  1  0
M  END
$$$$
