QTS.pdb
     RDKit          3D

 23 22  0  0  1  0  0  0  0  0999 V2000
   17.2819  -17.2274  -16.2032 N   0  0  0  0  0  0  0  0  0  0  0  0
   17.6234  -16.8689  -17.5566 C   0  0  0  0  0  0  0  0  0  0  0  0
   16.7830  -17.1747  -18.4325 O   0  0  0  0  0  0  0  0  0  0  0  0
   18.9016  -16.1917  -17.7620 C   0  0  0  0  0  0  0  0  0  0  0  0
   19.0721  -15.0022  -16.8580 C   0  0  0  0  0  0  0  0  0  0  0  0
   20.4288  -14.4078  -17.0368 C   0  0  2  0  0  0  0  0  0  0  0  0
   21.3917  -15.4392  -16.6157 N   0  0  0  0  0  0  0  0  0  0  0  0
   20.6522  -13.2496  -16.1084 C   0  0  0  0  0  0  0  0  0  0  0  0
   20.2980  -13.2990  -14.9092 O   0  0  0  0  0  0  0  0  0  0  0  0
   23.5391  -12.0800  -14.5860 C   0  0  0  0  0  0  0  0  0  0  0  0
   23.0756  -10.8706  -15.3531 C   0  0  1  0  0  0  0  0  0  0  0  0
   23.7537  -10.8226  -16.5674 O   0  0  0  0  0  0  0  0  0  0  0  0
   21.5877  -10.9472  -15.6912 C   0  0  2  0  0  0  0  0  0  0  0  0
   21.2752  -12.0463  -16.5485 N   0  0  0  0  0  0  0  0  0  0  0  0
   21.1258   -9.6382  -16.2844 C   0  0  0  0  0  0  0  0  0  0  0  0
   21.1879   -9.4409  -17.5227 O   0  0  0  0  0  0  0  0  0  0  0  0
   19.2537   -6.7829  -13.7289 O   0  0  0  0  0  0  0  0  0  0  0  0
   18.9169   -6.8725  -15.0561 C   0  0  0  0  0  0  0  0  0  0  0  0
   20.0658   -7.3832  -15.8809 C   0  0  2  0  0  0  0  0  0  0  0  0
   20.6183   -8.6269  -15.4303 N   0  0  0  0  0  0  0  0  0  0  0  0
   21.1058   -6.3131  -15.9254 C   0  0  0  0  0  0  0  0  0  0  0  0
   20.8477   -5.0750  -16.4861 O   0  0  0  0  0  0  0  0  0  0  0  0
   22.2337   -6.5143  -15.4559 O   0  0  0  0  0  0  0  0  0  0  0  0
  2  1  1  0
  2  3  2  0
  4  2  1  0
  5  6  1  0
  5  4  1  0
  6  7  1  1
  8  9  2  0
  8  6  1  0
 11 10  1  6
 11 13  1  0
 12 11  1  0
 13 15  1  0
 13 14  1  6
 14  8  1  0
 15 20  1  0
 16 15  2  0
 18 17  1  0
 19 18  1  1
 19 21  1  0
 20 19  1  0
 21 23  2  0
 21 22  1  0
M  END
$$$$
