QTS.pdb
     RDKit          3D

 23 22  0  0  1  0  0  0  0  0999 V2000
   17.0554   -9.9707  -11.3608 N   0  0  0  0  0  0  0  0  0  0  0  0
   16.3962  -11.2174  -11.6578 C   0  0  0  0  0  0  0  0  0  0  0  0
   15.7054  -11.7049  -10.7346 O   0  0  0  0  0  0  0  0  0  0  0  0
   16.6005  -11.7753  -12.9925 C   0  0  0  0  0  0  0  0  0  0  0  0
   17.5017  -10.9202  -13.8398 C   0  0  0  0  0  0  0  0  0  0  0  0
   16.6909  -10.0305  -14.7212 C   0  0  2  0  0  0  0  0  0  0  0  0
   16.0926  -10.8992  -15.7487 N   0  0  0  0  0  0  0  0  0  0  0  0
   17.5546   -9.0595  -15.4723 C   0  0  0  0  0  0  0  0  0  0  0  0
   18.0771   -9.3653  -16.5676 O   0  0  0  0  0  0  0  0  0  0  0  0
   16.6794   -5.8777  -17.0564 C   0  0  0  0  0  0  0  0  0  0  0  0
   17.7507   -5.5411  -16.0540 C   0  0  1  0  0  0  0  0  0  0  0  0
   17.1452   -5.0973  -14.8822 O   0  0  0  0  0  0  0  0  0  0  0  0
   18.5805   -6.7667  -15.6749 C   0  0  2  0  0  0  0  0  0  0  0  0
   17.8180   -7.7508  -14.9744 N   0  0  0  0  0  0  0  0  0  0  0  0
   19.7930   -6.3431  -14.8818 C   0  0  0  0  0  0  0  0  0  0  0  0
   19.7990   -6.4295  -13.6293 O   0  0  0  0  0  0  0  0  0  0  0  0
   24.4004   -4.7338  -15.2123 O   0  0  0  0  0  0  0  0  0  0  0  0
   23.2052   -4.9193  -15.8603 C   0  0  0  0  0  0  0  0  0  0  0  0
   22.1460   -5.4304  -14.9234 C   0  0  2  0  0  0  0  0  0  0  0  0
   20.9317   -5.8442  -15.5632 N   0  0  0  0  0  0  0  0  0  0  0  0
   21.8874   -4.3692  -13.9057 C   0  0  0  0  0  0  0  0  0  0  0  0
   22.5996   -4.3127  -12.7209 O   0  0  0  0  0  0  0  0  0  0  0  0
   21.0201   -3.5079  -14.1036 O   0  0  0  0  0  0  0  0  0  0  0  0
  2  1  1  0
  2  3  2  0
  4  2  1  0
  5  6  1  0
  5  4  1  0
  6  7  1  6
  8  9  2  0
  8  6  1  0
 11 10  1  6
 11 13  1  0
 12 11  1  0
 13 15  1  0
 13 14  1  1
 14  8  1  0
 15 20  1  0
 16 15  2  0
 18 17  1  0
 19 18  1  6
 19 21  1  0
 20 19  1  0
 21 23  2  0
 21 22  1  0
M  END
$$$$
