QTS.pdb
     RDKit          3D

 23 22  0  0  1  0  0  0  0  0999 V2000
   15.3012  -10.9101  -18.1269 N   0  0  0  0  0  0  0  0  0  0  0  0
   15.9088  -12.0542  -18.7583 C   0  0  0  0  0  0  0  0  0  0  0  0
   15.2018  -12.6557  -19.5982 O   0  0  0  0  0  0  0  0  0  0  0  0
   17.2733  -12.3878  -18.3566 C   0  0  0  0  0  0  0  0  0  0  0  0
   17.7944  -11.4742  -17.2819 C   0  0  0  0  0  0  0  0  0  0  0  0
   19.1613  -11.8986  -16.8610 C   0  0  2  0  0  0  0  0  0  0  0  0
   19.0039  -13.2040  -16.1981 N   0  0  0  0  0  0  0  0  0  0  0  0
   19.7267  -10.9841  -15.8136 C   0  0  0  0  0  0  0  0  0  0  0  0
   19.2697  -10.9673  -14.6487 O   0  0  0  0  0  0  0  0  0  0  0  0
   22.9476  -10.9020  -14.1466 C   0  0  0  0  0  0  0  0  0  0  0  0
   22.8319   -9.5565  -14.8115 C   0  0  1  0  0  0  0  0  0  0  0  0
   23.5121   -9.5957  -16.0249 O   0  0  0  0  0  0  0  0  0  0  0  0
   21.3813   -9.2069  -15.1397 C   0  0  2  0  0  0  0  0  0  0  0  0
   20.8050  -10.0970  -16.0968 N   0  0  0  0  0  0  0  0  0  0  0  0
   21.2879   -7.7715  -15.5974 C   0  0  0  0  0  0  0  0  0  0  0  0
   21.3959   -7.4806  -16.8139 O   0  0  0  0  0  0  0  0  0  0  0  0
   18.7300   -5.0308  -14.4296 O   0  0  0  0  0  0  0  0  0  0  0  0
   19.9973   -4.5728  -14.1712 C   0  0  0  0  0  0  0  0  0  0  0  0
   21.0293   -5.3472  -14.9436 C   0  0  2  0  0  0  0  0  0  0  0  0
   21.0762   -6.7475  -14.6400 N   0  0  0  0  0  0  0  0  0  0  0  0
   22.3536   -4.6982  -14.7117 C   0  0  0  0  0  0  0  0  0  0  0  0
   22.6577   -3.4603  -15.2493 O   0  0  0  0  0  0  0  0  0  0  0  0
   23.2168   -5.2613  -14.0255 O   0  0  0  0  0  0  0  0  0  0  0  0
  2  1  1  0
  2  3  2  0
  4  2  1  0
  5  6  1  0
  5  4  1  0
  6  7  1  1
  8  9  2  0
  8  6  1  0
 11 10  1  6
 11 13  1  0
 12 11  1  0
 13 15  1  0
 13 14  1  6
 14  8  1  0
 15 20  1  0
 16 15  2  0
 18 17  1  0
 19 18  1  1
 19 21  1  0
 20 19  1  0
 21 23  2  0
 21 22  1  0
M  END
$$$$
