YYW.pdb
     RDKit          3D

 39 42  0  0  1  0  0  0  0  0999 V2000
    8.8011  -11.8535   17.8547 O   0  0  0  0  0  0  0  0  0  0  0  0
    8.4264  -12.8904   18.6975 C   0  0  0  0  0  0  0  0  0  0  0  0
    9.2753  -13.9827   18.8301 C   0  0  0  0  0  0  0  0  0  0  0  0
    8.9194  -15.0175   19.6604 C   0  0  0  0  0  0  0  0  0  0  0  0
    7.7127  -14.9349   20.3443 C   0  0  0  0  0  0  0  0  0  0  0  0
    7.3087  -16.0295   21.2386 C   0  0  0  0  0  0  0  0  0  0  0  0
    8.1867  -17.2354   20.9764 C   0  0  2  0  0  0  0  0  0  0  0  0
    7.4205  -18.4645   21.0103 N   0  0  0  0  0  0  0  0  0  0  0  0
    9.2427  -17.2377   22.0185 C   0  0  0  0  0  0  0  0  0  0  0  0
    9.4830  -18.2509   22.7169 O   0  0  0  0  0  0  0  0  0  0  0  0
    6.8752  -13.8428   20.2049 C   0  0  0  0  0  0  0  0  0  0  0  0
    7.2421  -12.8178   19.3738 C   0  0  0  0  0  0  0  0  0  0  0  0
   13.7908  -15.1548   17.3641 O   0  0  0  0  0  0  0  0  0  0  0  0
   13.3761  -15.0908   18.6821 C   0  0  0  0  0  0  0  0  0  0  0  0
   13.8092  -16.0553   19.5730 C   0  0  0  0  0  0  0  0  0  0  0  0
   13.3798  -15.9710   20.8921 C   0  0  0  0  0  0  0  0  0  0  0  0
   12.5473  -14.9720   21.3388 C   0  0  0  0  0  0  0  0  0  0  0  0
   12.0911  -14.8865   22.7457 C   0  0  0  0  0  0  0  0  0  0  0  0
   11.1403  -16.0157   23.0779 C   0  0  2  0  0  0  0  0  0  0  0  0
    9.9943  -16.0484   22.2176 N   0  0  0  0  0  0  0  0  0  0  0  0
   10.7465  -15.8516   24.5170 C   0  0  0  0  0  0  0  0  0  0  0  0
   10.9398  -14.7629   25.1184 O   0  0  0  0  0  0  0  0  0  0  0  0
   12.1316  -14.0175   20.4109 C   0  0  0  0  0  0  0  0  0  0  0  0
   12.5431  -14.0831   19.1090 C   0  0  0  0  0  0  0  0  0  0  0  0
   10.1479  -16.9001   25.2526 N   0  0  0  0  0  0  0  0  0  0  0  0
    9.9440  -16.8849   26.6886 C   0  0  1  0  0  0  0  0  0  0  0  0
    8.4461  -17.0764   26.9057 C   0  0  0  0  0  0  0  0  0  0  0  0
    7.6522  -16.0549   26.2210 C   0  0  0  0  0  0  0  0  0  0  0  0
    6.7346  -16.2465   25.2202 C   0  0  0  0  0  0  0  0  0  0  0  0
    6.2291  -15.0506   24.8686 N   0  0  0  0  0  0  0  0  0  0  0  0
    6.7859  -14.0695   25.6085 C   0  0  0  0  0  0  0  0  0  0  0  0
    6.6575  -12.7120   25.6811 C   0  0  0  0  0  0  0  0  0  0  0  0
    7.4042  -11.9936   26.5819 C   0  0  0  0  0  0  0  0  0  0  0  0
    8.2994  -12.6035   27.4359 C   0  0  0  0  0  0  0  0  0  0  0  0
    8.4373  -13.9692   27.3721 C   0  0  0  0  0  0  0  0  0  0  0  0
    7.6830  -14.7018   26.4611 C   0  0  0  0  0  0  0  0  0  0  0  0
   10.7358  -17.8923   27.3873 C   0  0  0  0  0  0  0  0  0  0  0  0
   11.4150  -18.7237   26.7519 O   0  0  0  0  0  0  0  0  0  0  0  0
   10.7438  -17.9388   28.7652 O   0  0  0  0  0  0  0  0  0  0  0  0
  2 12  2  0
  2  1  1  0
  3  2  1  0
  4  5  1  0
  4  3  2  0
  5 11  2  0
  6  5  1  0
  6  7  1  0
  7  9  1  0
  7  8  1  1
  9 10  2  0
 11 12  1  0
 13 14  1  0
 14 15  2  0
 15 16  1  0
 17 18  1  0
 17 16  2  0
 19 18  1  6
 19 21  1  0
 20 19  1  0
 20  9  1  0
 21 22  2  0
 21 25  1  0
 23 17  1  0
 24 14  1  0
 24 23  2  0
 25 26  1  0
 26 27  1  6
 27 28  1  0
 28 29  2  0
 30 29  1  0
 31 30  1  0
 32 31  2  0
 33 32  1  0
 34 33  2  0
 34 35  1  0
 35 36  2  0
 36 31  1  0
 36 28  1  0
 37 26  1  0
 37 39  1  0
 38 37  2  0
M  END
$$$$
