YYW.pdb
     RDKit          3D

 39 42  0  0  1  0  0  0  0  0999 V2000
    6.8463  -12.0902   17.8197 O   0  0  0  0  0  0  0  0  0  0  0  0
    7.3064  -12.8345   18.8969 C   0  0  0  0  0  0  0  0  0  0  0  0
    6.4031  -13.6269   19.5951 C   0  0  0  0  0  0  0  0  0  0  0  0
    6.8422  -14.3700   20.6637 C   0  0  0  0  0  0  0  0  0  0  0  0
    8.1856  -14.3024   21.0119 C   0  0  0  0  0  0  0  0  0  0  0  0
    8.6804  -15.0876   22.1520 C   0  0  0  0  0  0  0  0  0  0  0  0
    9.3860  -16.3241   21.6351 C   0  0  2  0  0  0  0  0  0  0  0  0
    8.4718  -17.1978   20.9282 N   0  0  0  0  0  0  0  0  0  0  0  0
    9.9757  -17.0102   22.8110 C   0  0  0  0  0  0  0  0  0  0  0  0
    9.3552  -17.9001   23.4397 O   0  0  0  0  0  0  0  0  0  0  0  0
    9.0762  -13.5102   20.3099 C   0  0  0  0  0  0  0  0  0  0  0  0
    8.6252  -12.7743   19.2463 C   0  0  0  0  0  0  0  0  0  0  0  0
   13.9121  -20.2213   18.9066 O   0  0  0  0  0  0  0  0  0  0  0  0
   13.7974  -19.5764   20.1248 C   0  0  0  0  0  0  0  0  0  0  0  0
   14.0424  -18.2174   20.1943 C   0  0  0  0  0  0  0  0  0  0  0  0
   13.9212  -17.5905   21.4287 C   0  0  0  0  0  0  0  0  0  0  0  0
   13.5697  -18.2671   22.5729 C   0  0  0  0  0  0  0  0  0  0  0  0
   13.4426  -17.5950   23.8871 C   0  0  0  0  0  0  0  0  0  0  0  0
   11.9899  -17.3595   24.2384 C   0  0  2  0  0  0  0  0  0  0  0  0
   11.2829  -16.6357   23.2232 N   0  0  0  0  0  0  0  0  0  0  0  0
   11.9660  -16.6341   25.5523 C   0  0  0  0  0  0  0  0  0  0  0  0
   12.9650  -15.9761   25.9439 O   0  0  0  0  0  0  0  0  0  0  0  0
   13.3305  -19.6366   22.4632 C   0  0  0  0  0  0  0  0  0  0  0  0
   13.4445  -20.2714   21.2579 C   0  0  0  0  0  0  0  0  0  0  0  0
   10.8339  -16.6573   26.3987 N   0  0  0  0  0  0  0  0  0  0  0  0
   10.8617  -16.3570   27.8176 C   0  0  1  0  0  0  0  0  0  0  0  0
   10.0757  -15.0610   27.9916 C   0  0  0  0  0  0  0  0  0  0  0  0
    8.7444  -15.1355   27.3878 C   0  0  0  0  0  0  0  0  0  0  0  0
    8.0142  -16.2649   27.1201 C   0  0  0  0  0  0  0  0  0  0  0  0
    6.8452  -15.8969   26.5656 N   0  0  0  0  0  0  0  0  0  0  0  0
    6.7788  -14.5538   26.4576 C   0  0  0  0  0  0  0  0  0  0  0  0
    5.8611  -13.6586   25.9874 C   0  0  0  0  0  0  0  0  0  0  0  0
    6.1239  -12.3117   26.0294 C   0  0  0  0  0  0  0  0  0  0  0  0
    7.3057  -11.8161   26.5398 C   0  0  0  0  0  0  0  0  0  0  0  0
    8.2369  -12.7074   27.0160 C   0  0  0  0  0  0  0  0  0  0  0  0
    7.9756  -14.0733   26.9756 C   0  0  0  0  0  0  0  0  0  0  0  0
   10.3299  -17.4392   28.6397 C   0  0  0  0  0  0  0  0  0  0  0  0
    9.7069  -18.3875   28.1212 O   0  0  0  0  0  0  0  0  0  0  0  0
   10.5098  -17.4280   30.0065 O   0  0  0  0  0  0  0  0  0  0  0  0
  2 12  2  0
  2  1  1  0
  3  2  1  0
  4  5  1  0
  4  3  2  0
  5 11  2  0
  6  5  1  0
  6  7  1  0
  7  9  1  0
  7  8  1  1
  9 10  2  0
 11 12  1  0
 13 14  1  0
 14 15  2  0
 15 16  1  0
 17 18  1  0
 17 16  2  0
 19 18  1  6
 19 21  1  0
 20 19  1  0
 20  9  1  0
 21 22  2  0
 21 25  1  0
 23 17  1  0
 24 14  1  0
 24 23  2  0
 25 26  1  0
 26 27  1  6
 27 28  1  0
 28 29  2  0
 30 29  1  0
 31 30  1  0
 32 31  2  0
 33 32  1  0
 34 33  2  0
 34 35  1  0
 35 36  2  0
 36 31  1  0
 36 28  1  0
 37 26  1  0
 37 39  1  0
 38 37  2  0
M  END
$$$$
