YYW.pdb
     RDKit          3D

 39 42  0  0  1  0  0  0  0  0999 V2000
   12.7927  -24.0900   26.9433 O   0  0  0  0  0  0  0  0  0  0  0  0
   12.4113  -22.7787   26.6964 C   0  0  0  0  0  0  0  0  0  0  0  0
   11.8340  -22.4710   25.4703 C   0  0  0  0  0  0  0  0  0  0  0  0
   11.4508  -21.1778   25.2100 C   0  0  0  0  0  0  0  0  0  0  0  0
   11.6557  -20.2147   26.1903 C   0  0  0  0  0  0  0  0  0  0  0  0
   11.2548  -18.8233   25.9361 C   0  0  0  0  0  0  0  0  0  0  0  0
   12.3584  -18.1193   25.1743 C   0  0  2  0  0  0  0  0  0  0  0  0
   13.4796  -17.8065   26.0368 N   0  0  0  0  0  0  0  0  0  0  0  0
   11.7691  -16.8853   24.5990 C   0  0  0  0  0  0  0  0  0  0  0  0
   11.2449  -16.0026   25.3189 O   0  0  0  0  0  0  0  0  0  0  0  0
   12.2314  -20.5320   27.4074 C   0  0  0  0  0  0  0  0  0  0  0  0
   12.6089  -21.8253   27.6541 C   0  0  0  0  0  0  0  0  0  0  0  0
    6.9030  -13.0347   18.4502 O   0  0  0  0  0  0  0  0  0  0  0  0
    7.9250  -13.7268   19.0744 C   0  0  0  0  0  0  0  0  0  0  0  0
    8.9450  -14.2598   18.3080 C   0  0  0  0  0  0  0  0  0  0  0  0
    9.9612  -14.9512   18.9567 C   0  0  0  0  0  0  0  0  0  0  0  0
    9.9883  -15.1228   20.3206 C   0  0  0  0  0  0  0  0  0  0  0  0
   11.0731  -15.8616   21.0079 C   0  0  0  0  0  0  0  0  0  0  0  0
   10.7854  -15.9969   22.4872 C   0  0  2  0  0  0  0  0  0  0  0  0
   11.8085  -16.7147   23.1889 N   0  0  0  0  0  0  0  0  0  0  0  0
    9.4501  -16.6699   22.6169 C   0  0  0  0  0  0  0  0  0  0  0  0
    9.3380  -17.9146   22.4665 O   0  0  0  0  0  0  0  0  0  0  0  0
    8.9424  -14.5710   21.0598 C   0  0  0  0  0  0  0  0  0  0  0  0
    7.9337  -13.8873   20.4403 C   0  0  0  0  0  0  0  0  0  0  0  0
    8.2726  -15.9446   22.9103 N   0  0  0  0  0  0  0  0  0  0  0  0
    6.9896  -16.5485   23.2160 C   0  0  1  0  0  0  0  0  0  0  0  0
    6.1369  -15.4427   23.8306 C   0  0  0  0  0  0  0  0  0  0  0  0
    6.5204  -15.1513   25.2129 C   0  0  0  0  0  0  0  0  0  0  0  0
    6.4255  -15.9863   26.2964 C   0  0  0  0  0  0  0  0  0  0  0  0
    6.8844  -15.3348   27.3800 N   0  0  0  0  0  0  0  0  0  0  0  0
    7.2815  -14.0895   27.0461 C   0  0  0  0  0  0  0  0  0  0  0  0
    7.8120  -13.0240   27.7153 C   0  0  0  0  0  0  0  0  0  0  0  0
    8.1101  -11.8641   27.0440 C   0  0  0  0  0  0  0  0  0  0  0  0
    7.8897  -11.7300   25.6889 C   0  0  0  0  0  0  0  0  0  0  0  0
    7.3562  -12.7955   25.0047 C   0  0  0  0  0  0  0  0  0  0  0  0
    7.0523  -13.9732   25.6802 C   0  0  0  0  0  0  0  0  0  0  0  0
    6.3522  -17.1532   22.0507 C   0  0  0  0  0  0  0  0  0  0  0  0
    5.2444  -17.7182   22.1506 O   0  0  0  0  0  0  0  0  0  0  0  0
    6.9685  -17.1079   20.8184 O   0  0  0  0  0  0  0  0  0  0  0  0
  2 12  2  0
  2  1  1  0
  3  2  1  0
  4  5  1  0
  4  3  2  0
  5 11  2  0
  6  5  1  0
  6  7  1  0
  7  9  1  0
  7  8  1  1
  9 10  2  0
 11 12  1  0
 13 14  1  0
 14 15  2  0
 15 16  1  0
 17 18  1  0
 17 16  2  0
 19 18  1  6
 19 21  1  0
 20 19  1  0
 20  9  1  0
 21 22  2  0
 21 25  1  0
 23 17  1  0
 24 14  1  0
 24 23  2  0
 25 26  1  0
 26 27  1  6
 27 28  1  0
 28 29  2  0
 30 29  1  0
 31 30  1  0
 32 31  2  0
 33 32  1  0
 34 33  2  0
 34 35  1  0
 35 36  2  0
 36 31  1  0
 36 28  1  0
 37 26  1  0
 37 39  1  0
 38 37  2  0
M  END
$$$$
