YYW.pdb
     RDKit          3D

 39 42  0  0  1  0  0  0  0  0999 V2000
    8.2168  -24.4283   19.0999 O   0  0  0  0  0  0  0  0  0  0  0  0
    8.5828  -23.2253   19.6870 C   0  0  0  0  0  0  0  0  0  0  0  0
    8.8104  -23.1934   21.0576 C   0  0  0  0  0  0  0  0  0  0  0  0
    9.1736  -22.0107   21.6544 C   0  0  0  0  0  0  0  0  0  0  0  0
    9.3016  -20.8781   20.8597 C   0  0  0  0  0  0  0  0  0  0  0  0
    9.6886  -19.6000   21.4744 C   0  0  0  0  0  0  0  0  0  0  0  0
    9.6605  -18.5128   20.4203 C   0  0  2  0  0  0  0  0  0  0  0  0
   10.5734  -18.8059   19.3342 N   0  0  0  0  0  0  0  0  0  0  0  0
   10.0274  -17.2440   21.0961 C   0  0  0  0  0  0  0  0  0  0  0  0
   11.1783  -16.7542   21.0077 O   0  0  0  0  0  0  0  0  0  0  0  0
    9.0726  -20.9211   19.4962 C   0  0  0  0  0  0  0  0  0  0  0  0
    8.7111  -22.1069   18.9138 C   0  0  0  0  0  0  0  0  0  0  0  0
    7.0890  -13.7518   16.5373 O   0  0  0  0  0  0  0  0  0  0  0  0
    7.3159  -13.9008   17.8936 C   0  0  0  0  0  0  0  0  0  0  0  0
    6.7790  -14.9919   18.5514 C   0  0  0  0  0  0  0  0  0  0  0  0
    7.0200  -15.1211   19.9140 C   0  0  0  0  0  0  0  0  0  0  0  0
    7.7663  -14.2111   20.6249 C   0  0  0  0  0  0  0  0  0  0  0  0
    8.0198  -14.3522   22.0777 C   0  0  0  0  0  0  0  0  0  0  0  0
    9.2191  -15.2377   22.3363 C   0  0  2  0  0  0  0  0  0  0  0  0
    9.0333  -16.5774   21.8619 N   0  0  0  0  0  0  0  0  0  0  0  0
    9.4802  -15.2061   23.8140 C   0  0  0  0  0  0  0  0  0  0  0  0
    9.6948  -14.1172   24.4078 O   0  0  0  0  0  0  0  0  0  0  0  0
    8.2913  -13.1238   19.9270 C   0  0  0  0  0  0  0  0  0  0  0  0
    8.0655  -12.9791   18.5865 C   0  0  0  0  0  0  0  0  0  0  0  0
    9.4966  -16.3839   24.5958 N   0  0  0  0  0  0  0  0  0  0  0  0
    9.8514  -16.4330   26.0014 C   0  0  1  0  0  0  0  0  0  0  0  0
    8.5451  -16.6442   26.7607 C   0  0  0  0  0  0  0  0  0  0  0  0
    7.5289  -15.6541   26.4007 C   0  0  0  0  0  0  0  0  0  0  0  0
    6.3125  -15.8864   25.8119 C   0  0  0  0  0  0  0  0  0  0  0  0
    5.6826  -14.7086   25.6524 N   0  0  0  0  0  0  0  0  0  0  0  0
    6.4473  -13.7000   26.1192 C   0  0  0  0  0  0  0  0  0  0  0  0
    6.3199  -12.3437   26.2123 C   0  0  0  0  0  0  0  0  0  0  0  0
    7.3271  -11.5902   26.7627 C   0  0  0  0  0  0  0  0  0  0  0  0
    8.4892  -12.1631   27.2362 C   0  0  0  0  0  0  0  0  0  0  0  0
    8.6289  -13.5272   27.1479 C   0  0  0  0  0  0  0  0  0  0  0  0
    7.6113  -14.2952   26.5909 C   0  0  0  0  0  0  0  0  0  0  0  0
   10.8384  -17.4644   26.3044 C   0  0  0  0  0  0  0  0  0  0  0  0
   11.9769  -17.4274   25.7957 O   0  0  0  0  0  0  0  0  0  0  0  0
   10.5244  -18.4982   27.1607 O   0  0  0  0  0  0  0  0  0  0  0  0
  2 12  2  0
  2  1  1  0
  3  2  1  0
  4  5  1  0
  4  3  2  0
  5 11  2  0
  6  5  1  0
  6  7  1  0
  7  9  1  0
  7  8  1  6
  9 10  2  0
 11 12  1  0
 13 14  1  0
 14 15  2  0
 15 16  1  0
 17 18  1  0
 17 16  2  0
 19 18  1  1
 19 21  1  0
 20 19  1  0
 20  9  1  0
 21 22  2  0
 21 25  1  0
 23 17  1  0
 24 14  1  0
 24 23  2  0
 25 26  1  0
 26 27  1  1
 27 28  1  0
 28 29  2  0
 30 29  1  0
 31 30  1  0
 32 31  2  0
 33 32  1  0
 34 33  2  0
 34 35  1  0
 35 36  2  0
 36 31  1  0
 36 28  1  0
 37 26  1  0
 37 39  1  0
 38 37  2  0
M  END
$$$$
