YYW.pdb
     RDKit          3D

 39 42  0  0  1  0  0  0  0  0999 V2000
    8.0330  -24.1090   19.0208 O   0  0  0  0  0  0  0  0  0  0  0  0
    8.4025  -22.9107   19.6152 C   0  0  0  0  0  0  0  0  0  0  0  0
    7.4608  -21.8928   19.7068 C   0  0  0  0  0  0  0  0  0  0  0  0
    7.8103  -20.7004   20.2924 C   0  0  0  0  0  0  0  0  0  0  0  0
    9.1043  -20.5528   20.7767 C   0  0  0  0  0  0  0  0  0  0  0  0
    9.5034  -19.2862   21.4072 C   0  0  0  0  0  0  0  0  0  0  0  0
    9.7410  -18.2480   20.3304 C   0  0  2  0  0  0  0  0  0  0  0  0
   10.7937  -18.6584   19.4237 N   0  0  0  0  0  0  0  0  0  0  0  0
   10.0949  -16.9824   21.0189 C   0  0  0  0  0  0  0  0  0  0  0  0
   11.2839  -16.6027   21.1387 O   0  0  0  0  0  0  0  0  0  0  0  0
   10.0338  -21.5727   20.6802 C   0  0  0  0  0  0  0  0  0  0  0  0
    9.6722  -22.7566   20.0940 C   0  0  0  0  0  0  0  0  0  0  0  0
    8.1948  -14.3624   15.9436 O   0  0  0  0  0  0  0  0  0  0  0  0
    8.2575  -14.2244   17.3184 C   0  0  0  0  0  0  0  0  0  0  0  0
    7.7237  -13.0933   17.9078 C   0  0  0  0  0  0  0  0  0  0  0  0
    7.7982  -12.9760   19.2906 C   0  0  0  0  0  0  0  0  0  0  0  0
    8.3783  -13.9356   20.0863 C   0  0  0  0  0  0  0  0  0  0  0  0
    8.4565  -13.8060   21.5600 C   0  0  0  0  0  0  0  0  0  0  0  0
    9.2931  -14.9152   22.1592 C   0  0  2  0  0  0  0  0  0  0  0  0
    9.0434  -16.1894   21.5522 N   0  0  0  0  0  0  0  0  0  0  0  0
    9.0045  -14.9388   23.6320 C   0  0  0  0  0  0  0  0  0  0  0  0
    8.4973  -13.9399   24.2058 O   0  0  0  0  0  0  0  0  0  0  0  0
    8.9057  -15.0621   19.4556 C   0  0  0  0  0  0  0  0  0  0  0  0
    8.8422  -15.1959   18.0967 C   0  0  0  0  0  0  0  0  0  0  0  0
    9.2863  -16.0705   24.4311 N   0  0  0  0  0  0  0  0  0  0  0  0
   10.1956  -16.0733   25.5612 C   0  0  1  0  0  0  0  0  0  0  0  0
    9.6735  -15.0143   26.5275 C   0  0  0  0  0  0  0  0  0  0  0  0
    8.2408  -14.7676   26.3571 C   0  0  0  0  0  0  0  0  0  0  0  0
    7.2853  -15.6618   25.9476 C   0  0  0  0  0  0  0  0  0  0  0  0
    6.0951  -15.0356   25.9248 N   0  0  0  0  0  0  0  0  0  0  0  0
    6.2337  -13.7495   26.3081 C   0  0  0  0  0  0  0  0  0  0  0  0
    5.3939  -12.6845   26.4666 C   0  0  0  0  0  0  0  0  0  0  0  0
    5.8844  -11.4733   26.8877 C   0  0  0  0  0  0  0  0  0  0  0  0
    7.2231  -11.2859   27.1631 C   0  0  0  0  0  0  0  0  0  0  0  0
    8.0779  -12.3504   27.0071 C   0  0  0  0  0  0  0  0  0  0  0  0
    7.5859  -13.5799   26.5807 C   0  0  0  0  0  0  0  0  0  0  0  0
   10.3167  -17.3838   26.1920 C   0  0  0  0  0  0  0  0  0  0  0  0
   11.0925  -17.5603   27.1529 O   0  0  0  0  0  0  0  0  0  0  0  0
    9.5718  -18.4489   25.7325 O   0  0  0  0  0  0  0  0  0  0  0  0
  2 12  2  0
  2  1  1  0
  3  2  1  0
  4  5  1  0
  4  3  2  0
  5 11  2  0
  6  5  1  0
  6  7  1  0
  7  9  1  0
  7  8  1  6
  9 10  2  0
 11 12  1  0
 13 14  1  0
 14 15  2  0
 15 16  1  0
 17 18  1  0
 17 16  2  0
 19 18  1  6
 19 21  1  0
 20 19  1  0
 20  9  1  0
 21 22  2  0
 21 25  1  0
 23 17  1  0
 24 14  1  0
 24 23  2  0
 25 26  1  0
 26 27  1  1
 27 28  1  0
 28 29  2  0
 30 29  1  0
 31 30  1  0
 32 31  2  0
 33 32  1  0
 34 33  2  0
 34 35  1  0
 35 36  2  0
 36 31  1  0
 36 28  1  0
 37 26  1  0
 37 39  1  0
 38 37  2  0
M  END
$$$$
