YYW.pdb
     RDKit          3D

 39 42  0  0  1  0  0  0  0  0999 V2000
    9.2317  -12.2955   17.5523 O   0  0  0  0  0  0  0  0  0  0  0  0
    8.5678  -12.9913   18.5528 C   0  0  0  0  0  0  0  0  0  0  0  0
    9.2979  -13.4556   19.6403 C   0  0  0  0  0  0  0  0  0  0  0  0
    8.6560  -14.1460   20.6394 C   0  0  0  0  0  0  0  0  0  0  0  0
    7.2873  -14.3575   20.5264 C   0  0  0  0  0  0  0  0  0  0  0  0
    6.5771  -15.0941   21.5819 C   0  0  0  0  0  0  0  0  0  0  0  0
    6.8410  -16.5764   21.4176 C   0  0  2  0  0  0  0  0  0  0  0  0
    5.8048  -17.2137   20.6309 N   0  0  0  0  0  0  0  0  0  0  0  0
    6.9084  -17.1585   22.7805 C   0  0  0  0  0  0  0  0  0  0  0  0
    5.9229  -17.1478   23.5557 O   0  0  0  0  0  0  0  0  0  0  0  0
    6.5702  -13.8909   19.4394 C   0  0  0  0  0  0  0  0  0  0  0  0
    7.2227  -13.2039   18.4502 C   0  0  0  0  0  0  0  0  0  0  0  0
    4.4827  -23.2171   23.5377 O   0  0  0  0  0  0  0  0  0  0  0  0
    5.5334  -22.3524   23.7854 C   0  0  0  0  0  0  0  0  0  0  0  0
    6.3347  -21.9460   22.7345 C   0  0  0  0  0  0  0  0  0  0  0  0
    7.3844  -21.0770   23.0070 C   0  0  0  0  0  0  0  0  0  0  0  0
    7.6524  -20.6111   24.2725 C   0  0  0  0  0  0  0  0  0  0  0  0
    8.7732  -19.6855   24.5587 C   0  0  0  0  0  0  0  0  0  0  0  0
    8.3085  -18.2458   24.5338 C   0  0  2  0  0  0  0  0  0  0  0  0
    8.1332  -17.7413   23.2037 N   0  0  0  0  0  0  0  0  0  0  0  0
    9.3188  -17.4431   25.3005 C   0  0  0  0  0  0  0  0  0  0  0  0
   10.4436  -17.1768   24.8021 O   0  0  0  0  0  0  0  0  0  0  0  0
    6.8224  -21.0431   25.3066 C   0  0  0  0  0  0  0  0  0  0  0  0
    5.7846  -21.8978   25.0589 C   0  0  0  0  0  0  0  0  0  0  0  0
    9.0555  -16.9561   26.6013 N   0  0  0  0  0  0  0  0  0  0  0  0
    9.9936  -16.1874   27.3971 C   0  0  1  0  0  0  0  0  0  0  0  0
    9.1542  -15.2099   28.2142 C   0  0  0  0  0  0  0  0  0  0  0  0
    8.0373  -14.6608   27.4439 C   0  0  0  0  0  0  0  0  0  0  0  0
    6.9450  -15.3371   26.9645 C   0  0  0  0  0  0  0  0  0  0  0  0
    6.1550  -14.4658   26.3117 N   0  0  0  0  0  0  0  0  0  0  0  0
    6.6926  -13.2289   26.3443 C   0  0  0  0  0  0  0  0  0  0  0  0
    6.3397  -12.0004   25.8639 C   0  0  0  0  0  0  0  0  0  0  0  0
    7.1471  -10.9125   26.0859 C   0  0  0  0  0  0  0  0  0  0  0  0
    8.3280  -11.0142   26.7916 C   0  0  0  0  0  0  0  0  0  0  0  0
    8.6938  -12.2455   27.2800 C   0  0  0  0  0  0  0  0  0  0  0  0
    7.8791  -13.3511   27.0577 C   0  0  0  0  0  0  0  0  0  0  0  0
   10.8442  -17.0220   28.2395 C   0  0  0  0  0  0  0  0  0  0  0  0
   10.6011  -18.2367   28.3870 O   0  0  0  0  0  0  0  0  0  0  0  0
   11.9326  -16.4768   28.8865 O   0  0  0  0  0  0  0  0  0  0  0  0
  2 12  2  0
  2  1  1  0
  3  2  1  0
  4  5  1  0
  4  3  2  0
  5 11  2  0
  6  5  1  0
  6  7  1  0
  7  9  1  0
  7  8  1  6
  9 10  2  0
 11 12  1  0
 13 14  1  0
 14 15  2  0
 15 16  1  0
 17 18  1  0
 17 16  2  0
 19 18  1  6
 19 21  1  0
 20 19  1  0
 20  9  1  0
 21 22  2  0
 21 25  1  0
 23 17  1  0
 24 14  1  0
 24 23  2  0
 25 26  1  0
 26 27  1  1
 27 28  1  0
 28 29  2  0
 30 29  1  0
 31 30  1  0
 32 31  2  0
 33 32  1  0
 34 33  2  0
 34 35  1  0
 35 36  2  0
 36 31  1  0
 36 28  1  0
 37 26  1  0
 37 39  1  0
 38 37  2  0
M  END
$$$$
