YYW.pdb
     RDKit          3D

 39 42  0  0  1  0  0  0  0  0999 V2000
    9.6551 -123.2930   51.2946 O   0  0  0  0  0  0  0  0  0  0  0  0
    9.4396 -122.7247   52.5422 C   0  0  0  0  0  0  0  0  0  0  0  0
    9.4960 -121.3416   52.6645 C   0  0  0  0  0  0  0  0  0  0  0  0
    9.2849 -120.7632   53.8924 C   0  0  0  0  0  0  0  0  0  0  0  0
    9.0201 -121.5887   54.9783 C   0  0  0  0  0  0  0  0  0  0  0  0
    8.7911 -120.9943   56.3032 C   0  0  0  0  0  0  0  0  0  0  0  0
    7.3087 -120.7434   56.4861 C   0  0  2  0  0  0  0  0  0  0  0  0
    6.7944 -121.4388   57.6483 N   0  0  0  0  0  0  0  0  0  0  0  0
    6.6348 -121.2056   55.2479 C   0  0  0  0  0  0  0  0  0  0  0  0
    5.8284 -120.4785   54.6208 O   0  0  0  0  0  0  0  0  0  0  0  0
    8.9662 -122.9645   54.8453 C   0  0  0  0  0  0  0  0  0  0  0  0
    9.1786 -123.5283   53.6152 C   0  0  0  0  0  0  0  0  0  0  0  0
   12.8550 -120.7649   58.3571 O   0  0  0  0  0  0  0  0  0  0  0  0
   11.9618 -121.0259   57.3339 C   0  0  0  0  0  0  0  0  0  0  0  0
   11.2170 -119.9869   56.8073 C   0  0  0  0  0  0  0  0  0  0  0  0
   10.3258 -120.2727   55.7799 C   0  0  0  0  0  0  0  0  0  0  0  0
   10.1597 -121.5399   55.2730 C   0  0  0  0  0  0  0  0  0  0  0  0
    9.2077 -121.8402   54.1783 C   0  0  0  0  0  0  0  0  0  0  0  0
    8.2690 -122.9613   54.5673 C   0  0  2  0  0  0  0  0  0  0  0  0
    6.9231 -122.5132   54.7726 N   0  0  0  0  0  0  0  0  0  0  0  0
    8.8332 -123.6002   55.8028 C   0  0  0  0  0  0  0  0  0  0  0  0
    8.7265 -123.0397   56.9248 O   0  0  0  0  0  0  0  0  0  0  0  0
   10.9284 -122.5617   55.8296 C   0  0  0  0  0  0  0  0  0  0  0  0
   11.8105 -122.3008   56.8408 C   0  0  0  0  0  0  0  0  0  0  0  0
    9.5017 -124.8452   55.7621 N   0  0  0  0  0  0  0  0  0  0  0  0
    9.0873 -125.9749   54.9521 C   0  0  1  0  0  0  0  0  0  0  0  0
    8.4152 -125.3856   53.7157 C   0  0  0  0  0  0  0  0  0  0  0  0
    8.2401 -126.3784   52.6544 C   0  0  0  0  0  0  0  0  0  0  0  0
    9.2223 -127.0126   51.9380 C   0  0  0  0  0  0  0  0  0  0  0  0
    8.6393 -127.8490   51.0605 N   0  0  0  0  0  0  0  0  0  0  0  0
    7.2965 -127.7876   51.1743 C   0  0  0  0  0  0  0  0  0  0  0  0
    6.2382 -128.3944   50.5606 C   0  0  0  0  0  0  0  0  0  0  0  0
    4.9531 -128.0887   50.9349 C   0  0  0  0  0  0  0  0  0  0  0  0
    4.6831 -127.1718   51.9295 C   0  0  0  0  0  0  0  0  0  0  0  0
    5.7400 -126.5547   52.5543 C   0  0  0  0  0  0  0  0  0  0  0  0
    7.0441 -126.8609   52.1788 C   0  0  0  0  0  0  0  0  0  0  0  0
   10.1915 -126.8650   54.6081 C   0  0  0  0  0  0  0  0  0  0  0  0
   10.3104 -127.3169   53.4513 O   0  0  0  0  0  0  0  0  0  0  0  0
   11.1223 -127.2199   55.5611 O   0  0  0  0  0  0  0  0  0  0  0  0
  2 12  2  0
  2  1  1  0
  3  2  1  0
  4  5  1  0
  4  3  2  0
  5 11  2  0
  6  5  1  0
  6  7  1  0
  7  9  1  0
  7  8  1  1
  9 10  2  0
 11 12  1  0
 13 14  1  0
 14 15  2  0
 15 16  1  0
 17 18  1  0
 17 16  2  0
 19 18  1  1
 19 21  1  0
 20 19  1  0
 20  9  1  0
 21 22  2  0
 21 25  1  0
 23 17  1  0
 24 14  1  0
 24 23  2  0
 25 26  1  0
 26 27  1  6
 27 28  1  0
 28 29  2  0
 30 29  1  0
 31 30  1  0
 32 31  2  0
 33 32  1  0
 34 33  2  0
 34 35  1  0
 35 36  2  0
 36 31  1  0
 36 28  1  0
 37 26  1  0
 37 39  1  0
 38 37  2  0
M  END
$$$$
