YYW.pdb
     RDKit          3D

 39 42  0  0  1  0  0  0  0  0999 V2000
    9.2005  -13.0534   16.1360 O   0  0  0  0  0  0  0  0  0  0  0  0
    8.7565  -13.5354   17.3593 C   0  0  0  0  0  0  0  0  0  0  0  0
    9.4092  -14.6245   17.9243 C   0  0  0  0  0  0  0  0  0  0  0  0
    8.9824  -15.1138   19.1348 C   0  0  0  0  0  0  0  0  0  0  0  0
    7.9037  -14.4973   19.7570 C   0  0  0  0  0  0  0  0  0  0  0  0
    7.4273  -15.0023   21.0528 C   0  0  0  0  0  0  0  0  0  0  0  0
    7.1600  -16.4888   20.9391 C   0  0  2  0  0  0  0  0  0  0  0  0
    5.9330  -16.7512   20.2150 N   0  0  0  0  0  0  0  0  0  0  0  0
    7.0870  -17.0231   22.3212 C   0  0  0  0  0  0  0  0  0  0  0  0
    6.0526  -16.9124   23.0212 O   0  0  0  0  0  0  0  0  0  0  0  0
    7.2613  -13.4136   19.1855 C   0  0  0  0  0  0  0  0  0  0  0  0
    7.6971  -12.9357   17.9782 C   0  0  0  0  0  0  0  0  0  0  0  0
    8.1141  -21.8038   29.4259 O   0  0  0  0  0  0  0  0  0  0  0  0
    8.2214  -21.2886   28.1467 C   0  0  0  0  0  0  0  0  0  0  0  0
    7.0724  -21.0674   27.4101 C   0  0  0  0  0  0  0  0  0  0  0  0
    7.2044  -20.5493   26.1273 C   0  0  0  0  0  0  0  0  0  0  0  0
    8.4254  -20.2516   25.5695 C   0  0  0  0  0  0  0  0  0  0  0  0
    8.5615  -19.7004   24.2011 C   0  0  0  0  0  0  0  0  0  0  0  0
    8.2427  -18.2215   24.1772 C   0  0  2  0  0  0  0  0  0  0  0  0
    8.2317  -17.6768   22.8514 N   0  0  0  0  0  0  0  0  0  0  0  0
    9.2569  -17.5377   25.0471 C   0  0  0  0  0  0  0  0  0  0  0  0
   10.4263  -17.3277   24.6315 O   0  0  0  0  0  0  0  0  0  0  0  0
    9.5614  -20.4884   26.3430 C   0  0  0  0  0  0  0  0  0  0  0  0
    9.4524  -20.9975   27.6070 C   0  0  0  0  0  0  0  0  0  0  0  0
    8.9477  -17.1041   26.3567 N   0  0  0  0  0  0  0  0  0  0  0  0
    9.8530  -16.3602   27.2118 C   0  0  1  0  0  0  0  0  0  0  0  0
    8.9777  -15.6551   28.2435 C   0  0  0  0  0  0  0  0  0  0  0  0
    7.7897  -15.0490   27.6402 C   0  0  0  0  0  0  0  0  0  0  0  0
    6.6312  -15.6810   27.2679 C   0  0  0  0  0  0  0  0  0  0  0  0
    5.7898  -14.7650   26.7556 N   0  0  0  0  0  0  0  0  0  0  0  0
    6.3578  -13.5415   26.7775 C   0  0  0  0  0  0  0  0  0  0  0  0
    5.9798  -12.2852   26.3988 C   0  0  0  0  0  0  0  0  0  0  0  0
    6.8348  -11.2245   26.5692 C   0  0  0  0  0  0  0  0  0  0  0  0
    8.0894  -11.3820   27.1205 C   0  0  0  0  0  0  0  0  0  0  0  0
    8.4810  -12.6416   27.5053 C   0  0  0  0  0  0  0  0  0  0  0  0
    7.6184  -13.7198   27.3349 C   0  0  0  0  0  0  0  0  0  0  0  0
   10.8699  -17.2019   27.8343 C   0  0  0  0  0  0  0  0  0  0  0  0
   10.7950  -18.4456   27.7711 O   0  0  0  0  0  0  0  0  0  0  0  0
   11.9317  -16.6313   28.5033 O   0  0  0  0  0  0  0  0  0  0  0  0
  2 12  2  0
  2  1  1  0
  3  2  1  0
  4  5  1  0
  4  3  2  0
  5 11  2  0
  6  5  1  0
  6  7  1  0
  7  9  1  0
  7  8  1  1
  9 10  2  0
 11 12  1  0
 13 14  1  0
 14 15  2  0
 15 16  1  0
 17 18  1  0
 17 16  2  0
 19 18  1  6
 19 21  1  0
 20 19  1  0
 20  9  1  0
 21 22  2  0
 21 25  1  0
 23 17  1  0
 24 14  1  0
 24 23  2  0
 25 26  1  0
 26 27  1  1
 27 28  1  0
 28 29  2  0
 30 29  1  0
 31 30  1  0
 32 31  2  0
 33 32  1  0
 34 33  2  0
 34 35  1  0
 35 36  2  0
 36 31  1  0
 36 28  1  0
 37 26  1  0
 37 39  1  0
 38 37  2  0
M  END
$$$$
