YYW.pdb
     RDKit          3D

 39 42  0  0  1  0  0  0  0  0999 V2000
    7.9873  -11.8961   19.9968 O   0  0  0  0  0  0  0  0  0  0  0  0
    7.8402  -13.2709   20.1167 C   0  0  0  0  0  0  0  0  0  0  0  0
    7.1783  -13.7768   21.2291 C   0  0  0  0  0  0  0  0  0  0  0  0
    7.0241  -15.1352   21.3630 C   0  0  0  0  0  0  0  0  0  0  0  0
    7.5398  -15.9626   20.3729 C   0  0  0  0  0  0  0  0  0  0  0  0
    7.3883  -17.4199   20.4931 C   0  0  0  0  0  0  0  0  0  0  0  0
    8.6025  -18.0971   19.8924 C   0  0  2  0  0  0  0  0  0  0  0  0
    8.3510  -19.5001   19.6331 N   0  0  0  0  0  0  0  0  0  0  0  0
    9.7164  -17.9256   20.8572 C   0  0  0  0  0  0  0  0  0  0  0  0
   10.1425  -18.8769   21.5542 O   0  0  0  0  0  0  0  0  0  0  0  0
    8.1970  -15.4482   19.2697 C   0  0  0  0  0  0  0  0  0  0  0  0
    8.3438  -14.0919   19.1485 C   0  0  0  0  0  0  0  0  0  0  0  0
   15.5586  -14.1533   17.4822 O   0  0  0  0  0  0  0  0  0  0  0  0
   14.6733  -14.3553   18.5255 C   0  0  0  0  0  0  0  0  0  0  0  0
   13.4540  -13.7035   18.5112 C   0  0  0  0  0  0  0  0  0  0  0  0
   12.5804  -13.9215   19.5699 C   0  0  0  0  0  0  0  0  0  0  0  0
   12.8824  -14.7545   20.6213 C   0  0  0  0  0  0  0  0  0  0  0  0
   11.9485  -14.9831   21.7484 C   0  0  0  0  0  0  0  0  0  0  0  0
   11.4770  -16.4205   21.7800 C   0  0  2  0  0  0  0  0  0  0  0  0
   10.3064  -16.6391   20.9823 N   0  0  0  0  0  0  0  0  0  0  0  0
   11.2392  -16.7751   23.2190 C   0  0  0  0  0  0  0  0  0  0  0  0
   12.1230  -16.5634   24.0899 O   0  0  0  0  0  0  0  0  0  0  0  0
   14.1214  -15.3942   20.6006 C   0  0  0  0  0  0  0  0  0  0  0  0
   14.9945  -15.1927   19.5681 C   0  0  0  0  0  0  0  0  0  0  0  0
   10.0263  -17.3558   23.6553 N   0  0  0  0  0  0  0  0  0  0  0  0
    9.1919  -16.8196   24.7138 C   0  0  1  0  0  0  0  0  0  0  0  0
    8.5224  -15.5762   24.1364 C   0  0  0  0  0  0  0  0  0  0  0  0
    7.5911  -14.9590   25.0821 C   0  0  0  0  0  0  0  0  0  0  0  0
    6.4683  -15.5223   25.6318 C   0  0  0  0  0  0  0  0  0  0  0  0
    5.8949  -14.6218   26.4503 N   0  0  0  0  0  0  0  0  0  0  0  0
    6.6063  -13.4756   26.4593 C   0  0  0  0  0  0  0  0  0  0  0  0
    6.4974  -12.2666   27.0847 C   0  0  0  0  0  0  0  0  0  0  0  0
    7.4307  -11.2849   26.8602 C   0  0  0  0  0  0  0  0  0  0  0  0
    8.4985  -11.4768   26.0082 C   0  0  0  0  0  0  0  0  0  0  0  0
    8.6186  -12.6894   25.3731 C   0  0  0  0  0  0  0  0  0  0  0  0
    7.6755  -13.6874   25.5971 C   0  0  0  0  0  0  0  0  0  0  0  0
    8.2206  -17.7850   25.2182 C   0  0  0  0  0  0  0  0  0  0  0  0
    7.7356  -18.6546   24.4665 O   0  0  0  0  0  0  0  0  0  0  0  0
    7.8243  -17.7489   26.5381 O   0  0  0  0  0  0  0  0  0  0  0  0
  2 12  2  0
  2  1  1  0
  3  2  1  0
  4  5  1  0
  4  3  2  0
  5 11  2  0
  6  5  1  0
  6  7  1  0
  7  9  1  0
  7  8  1  1
  9 10  2  0
 11 12  1  0
 13 14  1  0
 14 15  2  0
 15 16  1  0
 17 18  1  0
 17 16  2  0
 19 18  1  1
 19 21  1  0
 20 19  1  0
 20  9  1  0
 21 22  2  0
 21 25  1  0
 23 17  1  0
 24 14  1  0
 24 23  2  0
 25 26  1  0
 26 27  1  6
 27 28  1  0
 28 29  2  0
 30 29  1  0
 31 30  1  0
 32 31  2  0
 33 32  1  0
 34 33  2  0
 34 35  1  0
 35 36  2  0
 36 31  1  0
 36 28  1  0
 37 26  1  0
 37 39  1  0
 38 37  2  0
M  END
$$$$
