YYW.pdb
     RDKit          3D

 39 42  0  0  1  0  0  0  0  0999 V2000
    7.3121  -11.6329   17.2542 O   0  0  0  0  0  0  0  0  0  0  0  0
    7.4451  -12.4960   18.3328 C   0  0  0  0  0  0  0  0  0  0  0  0
    8.6759  -12.5801   18.9726 C   0  0  0  0  0  0  0  0  0  0  0  0
    8.8244  -13.4295   20.0419 C   0  0  0  0  0  0  0  0  0  0  0  0
    7.7291  -14.1811   20.4496 C   0  0  0  0  0  0  0  0  0  0  0  0
    7.8623  -15.0979   21.5910 C   0  0  0  0  0  0  0  0  0  0  0  0
    8.5938  -16.3463   21.1433 C   0  0  2  0  0  0  0  0  0  0  0  0
    7.7530  -17.1813   20.3098 N   0  0  0  0  0  0  0  0  0  0  0  0
    9.0110  -17.0680   22.3705 C   0  0  0  0  0  0  0  0  0  0  0  0
    8.2130  -17.7805   23.0245 O   0  0  0  0  0  0  0  0  0  0  0  0
    6.5084  -14.0895   19.8055 C   0  0  0  0  0  0  0  0  0  0  0  0
    6.3740  -13.2387   18.7406 C   0  0  0  0  0  0  0  0  0  0  0  0
   13.7548  -21.2612   28.2841 O   0  0  0  0  0  0  0  0  0  0  0  0
   13.3769  -20.5122   27.1844 C   0  0  0  0  0  0  0  0  0  0  0  0
   12.3381  -20.9589   26.3888 C   0  0  0  0  0  0  0  0  0  0  0  0
   11.9756  -20.1902   25.2892 C   0  0  0  0  0  0  0  0  0  0  0  0
   12.6072  -19.0121   24.9671 C   0  0  0  0  0  0  0  0  0  0  0  0
   12.2182  -18.1962   23.7933 C   0  0  0  0  0  0  0  0  0  0  0  0
   10.8402  -17.5995   23.9792 C   0  0  2  0  0  0  0  0  0  0  0  0
   10.3581  -16.9371   22.8032 N   0  0  0  0  0  0  0  0  0  0  0  0
   10.9201  -16.6614   25.1483 C   0  0  0  0  0  0  0  0  0  0  0  0
   11.7046  -15.6773   25.1329 O   0  0  0  0  0  0  0  0  0  0  0  0
   13.6502  -18.5941   25.7931 C   0  0  0  0  0  0  0  0  0  0  0  0
   14.0216  -19.3363   26.8793 C   0  0  0  0  0  0  0  0  0  0  0  0
   10.1272  -16.8393   26.3051 N   0  0  0  0  0  0  0  0  0  0  0  0
   10.5373  -16.4728   27.6474 C   0  0  1  0  0  0  0  0  0  0  0  0
    9.5619  -15.3941   28.1085 C   0  0  0  0  0  0  0  0  0  0  0  0
    8.3872  -15.3018   27.2400 C   0  0  0  0  0  0  0  0  0  0  0  0
    7.5216  -16.3099   26.9013 C   0  0  0  0  0  0  0  0  0  0  0  0
    6.5781  -15.8072   26.0849 N   0  0  0  0  0  0  0  0  0  0  0  0
    6.7933  -14.4926   25.8718 C   0  0  0  0  0  0  0  0  0  0  0  0
    6.1759  -13.5082   25.1546 C   0  0  0  0  0  0  0  0  0  0  0  0
    6.6786  -12.2306   25.1580 C   0  0  0  0  0  0  0  0  0  0  0  0
    7.8088  -11.8949   25.8741 C   0  0  0  0  0  0  0  0  0  0  0  0
    8.4388  -12.8771   26.5997 C   0  0  0  0  0  0  0  0  0  0  0  0
    7.9335  -14.1734   26.5996 C   0  0  0  0  0  0  0  0  0  0  0  0
   10.5753  -17.6094   28.5620 C   0  0  0  0  0  0  0  0  0  0  0  0
   10.0480  -18.6965   28.2512 O   0  0  0  0  0  0  0  0  0  0  0  0
   11.1972  -17.4965   29.7872 O   0  0  0  0  0  0  0  0  0  0  0  0
  2 12  2  0
  2  1  1  0
  3  2  1  0
  4  5  1  0
  4  3  2  0
  5 11  2  0
  6  5  1  0
  6  7  1  0
  7  9  1  0
  7  8  1  6
  9 10  2  0
 11 12  1  0
 13 14  1  0
 14 15  2  0
 15 16  1  0
 17 18  1  0
 17 16  2  0
 19 18  1  6
 19 21  1  0
 20 19  1  0
 20  9  1  0
 21 22  2  0
 21 25  1  0
 23 17  1  0
 24 14  1  0
 24 23  2  0
 25 26  1  0
 26 27  1  1
 27 28  1  0
 28 29  2  0
 30 29  1  0
 31 30  1  0
 32 31  2  0
 33 32  1  0
 34 33  2  0
 34 35  1  0
 35 36  2  0
 36 31  1  0
 36 28  1  0
 37 26  1  0
 37 39  1  0
 38 37  2  0
M  END
$$$$
