YYW.pdb
     RDKit          3D

 39 42  0  0  1  0  0  0  0  0999 V2000
    8.9073  -13.0585   16.1820 O   0  0  0  0  0  0  0  0  0  0  0  0
    8.4126  -13.4741   17.4102 C   0  0  0  0  0  0  0  0  0  0  0  0
    8.2277  -12.5270   18.4103 C   0  0  0  0  0  0  0  0  0  0  0  0
    7.7387  -12.9216   19.6318 C   0  0  0  0  0  0  0  0  0  0  0  0
    7.4436  -14.2654   19.8260 C   0  0  0  0  0  0  0  0  0  0  0  0
    6.9196  -14.7133   21.1244 C   0  0  0  0  0  0  0  0  0  0  0  0
    6.6496  -16.2025   21.0646 C   0  0  2  0  0  0  0  0  0  0  0  0
    5.3426  -16.4805   20.5047 N   0  0  0  0  0  0  0  0  0  0  0  0
    6.7550  -16.7182   22.4516 C   0  0  0  0  0  0  0  0  0  0  0  0
    5.8727  -16.4903   23.3129 O   0  0  0  0  0  0  0  0  0  0  0  0
    7.6315  -15.1998   18.8234 C   0  0  0  0  0  0  0  0  0  0  0  0
    8.1197  -14.7929   17.6101 C   0  0  0  0  0  0  0  0  0  0  0  0
    8.8004  -21.4079   29.4411 O   0  0  0  0  0  0  0  0  0  0  0  0
    8.7136  -20.9317   28.1454 C   0  0  0  0  0  0  0  0  0  0  0  0
    7.4673  -20.6896   27.5979 C   0  0  0  0  0  0  0  0  0  0  0  0
    7.4044  -20.2114   26.2944 C   0  0  0  0  0  0  0  0  0  0  0  0
    8.5267  -19.9728   25.5368 C   0  0  0  0  0  0  0  0  0  0  0  0
    8.4549  -19.4640   24.1473 C   0  0  0  0  0  0  0  0  0  0  0  0
    8.0916  -17.9954   24.1247 C   0  0  2  0  0  0  0  0  0  0  0  0
    7.8959  -17.4916   22.7972 N   0  0  0  0  0  0  0  0  0  0  0  0
    9.1873  -17.2591   24.8392 C   0  0  0  0  0  0  0  0  0  0  0  0
   10.2882  -17.0329   24.2725 O   0  0  0  0  0  0  0  0  0  0  0  0
    9.7657  -20.2289   26.1233 C   0  0  0  0  0  0  0  0  0  0  0  0
    9.8485  -20.6994   27.4041 C   0  0  0  0  0  0  0  0  0  0  0  0
    9.0336  -16.7925   26.1648 N   0  0  0  0  0  0  0  0  0  0  0  0
   10.1139  -16.2821   26.9873 C   0  0  1  0  0  0  0  0  0  0  0  0
    9.6883  -14.8841   27.4256 C   0  0  0  0  0  0  0  0  0  0  0  0
    8.3676  -14.5201   26.9099 C   0  0  0  0  0  0  0  0  0  0  0  0
    7.3097  -15.3579   26.6662 C   0  0  0  0  0  0  0  0  0  0  0  0
    6.2829  -14.6253   26.1988 N   0  0  0  0  0  0  0  0  0  0  0  0
    6.6298  -13.3237   26.1253 C   0  0  0  0  0  0  0  0  0  0  0  0
    6.0095  -12.1708   25.7370 C   0  0  0  0  0  0  0  0  0  0  0  0
    6.6784  -10.9731   25.7914 C   0  0  0  0  0  0  0  0  0  0  0  0
    7.9824  -10.8868   26.2332 C   0  0  0  0  0  0  0  0  0  0  0  0
    8.6170  -12.0404   26.6266 C   0  0  0  0  0  0  0  0  0  0  0  0
    7.9437  -13.2567   26.5734 C   0  0  0  0  0  0  0  0  0  0  0  0
   10.4229  -17.1458   28.1225 C   0  0  0  0  0  0  0  0  0  0  0  0
   11.4274  -16.9334   28.8311 O   0  0  0  0  0  0  0  0  0  0  0  0
    9.6050  -18.2126   28.4282 O   0  0  0  0  0  0  0  0  0  0  0  0
  2 12  2  0
  2  1  1  0
  3  2  1  0
  4  5  1  0
  4  3  2  0
  5 11  2  0
  6  5  1  0
  6  7  1  0
  7  9  1  0
  7  8  1  1
  9 10  2  0
 11 12  1  0
 13 14  1  0
 14 15  2  0
 15 16  1  0
 17 18  1  0
 17 16  2  0
 19 18  1  6
 19 21  1  0
 20 19  1  0
 20  9  1  0
 21 22  2  0
 21 25  1  0
 23 17  1  0
 24 14  1  0
 24 23  2  0
 25 26  1  0
 26 27  1  1
 27 28  1  0
 28 29  2  0
 30 29  1  0
 31 30  1  0
 32 31  2  0
 33 32  1  0
 34 33  2  0
 34 35  1  0
 35 36  2  0
 36 31  1  0
 36 28  1  0
 37 26  1  0
 37 39  1  0
 38 37  2  0
M  END
$$$$
