YYW.pdb
     RDKit          3D

 39 42  0  0  1  0  0  0  0  0999 V2000
   11.2961  -23.8800   18.0548 O   0  0  0  0  0  0  0  0  0  0  0  0
   11.3186  -22.6713   18.7363 C   0  0  0  0  0  0  0  0  0  0  0  0
   12.1240  -21.6472   18.2526 C   0  0  0  0  0  0  0  0  0  0  0  0
   12.1576  -20.4445   18.9153 C   0  0  0  0  0  0  0  0  0  0  0  0
   11.3785  -20.2930   20.0558 C   0  0  0  0  0  0  0  0  0  0  0  0
   11.3974  -19.0157   20.7834 C   0  0  0  0  0  0  0  0  0  0  0  0
   10.3223  -18.1082   20.2227 C   0  0  2  0  0  0  0  0  0  0  0  0
   10.5826  -17.7738   18.8373 N   0  0  0  0  0  0  0  0  0  0  0  0
   10.2986  -16.8898   21.0688 C   0  0  0  0  0  0  0  0  0  0  0  0
   11.3462  -16.2682   21.3658 O   0  0  0  0  0  0  0  0  0  0  0  0
   10.5804  -21.3191   20.5286 C   0  0  0  0  0  0  0  0  0  0  0  0
   10.5560  -22.5133   19.8582 C   0  0  0  0  0  0  0  0  0  0  0  0
    8.8763  -14.1263   16.0773 O   0  0  0  0  0  0  0  0  0  0  0  0
    8.6919  -14.1355   17.4481 C   0  0  0  0  0  0  0  0  0  0  0  0
    9.4389  -15.0030   18.2234 C   0  0  0  0  0  0  0  0  0  0  0  0
    9.2368  -14.9949   19.5983 C   0  0  0  0  0  0  0  0  0  0  0  0
    8.3288  -14.1629   20.2098 C   0  0  0  0  0  0  0  0  0  0  0  0
    8.1158  -14.1584   21.6758 C   0  0  0  0  0  0  0  0  0  0  0  0
    8.9310  -15.2424   22.3464 C   0  0  2  0  0  0  0  0  0  0  0  0
    9.0434  -16.4274   21.5480 N   0  0  0  0  0  0  0  0  0  0  0  0
    8.2822  -15.5272   23.6697 C   0  0  0  0  0  0  0  0  0  0  0  0
    7.1658  -15.0247   23.9619 O   0  0  0  0  0  0  0  0  0  0  0  0
    7.5940  -13.3022   19.3949 C   0  0  0  0  0  0  0  0  0  0  0  0
    7.7783  -13.2952   18.0404 C   0  0  0  0  0  0  0  0  0  0  0  0
    8.8890  -16.3624   24.6355 N   0  0  0  0  0  0  0  0  0  0  0  0
    9.9521  -15.9469   25.5306 C   0  0  1  0  0  0  0  0  0  0  0  0
    9.5856  -14.5422   26.0000 C   0  0  0  0  0  0  0  0  0  0  0  0
    8.1386  -14.3220   26.0111 C   0  0  0  0  0  0  0  0  0  0  0  0
    7.1538  -15.2513   25.7942 C   0  0  0  0  0  0  0  0  0  0  0  0
    5.9597  -14.6402   25.8937 N   0  0  0  0  0  0  0  0  0  0  0  0
    6.1241  -13.3301   26.1707 C   0  0  0  0  0  0  0  0  0  0  0  0
    5.2933  -12.2656   26.3734 C   0  0  0  0  0  0  0  0  0  0  0  0
    5.8130  -11.0241   26.6445 C   0  0  0  0  0  0  0  0  0  0  0  0
    7.1727  -10.8051   26.7221 C   0  0  0  0  0  0  0  0  0  0  0  0
    8.0188  -11.8688   26.5200 C   0  0  0  0  0  0  0  0  0  0  0  0
    7.4973  -13.1289   26.2449 C   0  0  0  0  0  0  0  0  0  0  0  0
   10.1502  -16.8669   26.6460 C   0  0  0  0  0  0  0  0  0  0  0  0
   11.0924  -16.7047   27.4475 O   0  0  0  0  0  0  0  0  0  0  0  0
    9.2949  -17.9324   26.8298 O   0  0  0  0  0  0  0  0  0  0  0  0
  2 12  2  0
  2  1  1  0
  3  2  1  0
  4  5  1  0
  4  3  2  0
  5 11  2  0
  6  5  1  0
  6  7  1  0
  7  9  1  0
  7  8  1  6
  9 10  2  0
 11 12  1  0
 13 14  1  0
 14 15  2  0
 15 16  1  0
 17 18  1  0
 17 16  2  0
 19 18  1  6
 19 21  1  0
 20 19  1  0
 20  9  1  0
 21 22  2  0
 21 25  1  0
 23 17  1  0
 24 14  1  0
 24 23  2  0
 25 26  1  0
 26 27  1  1
 27 28  1  0
 28 29  2  0
 30 29  1  0
 31 30  1  0
 32 31  2  0
 33 32  1  0
 34 33  2  0
 34 35  1  0
 35 36  2  0
 36 31  1  0
 36 28  1  0
 37 26  1  0
 37 39  1  0
 38 37  2  0
M  END
$$$$
