YYW.pdb
     RDKit          3D

 39 42  0  0  1  0  0  0  0  0999 V2000
    7.6694  -12.4395   16.4559 O   0  0  0  0  0  0  0  0  0  0  0  0
    8.0135  -13.1764   17.5804 C   0  0  0  0  0  0  0  0  0  0  0  0
    8.9660  -12.6602   18.4508 C   0  0  0  0  0  0  0  0  0  0  0  0
    9.3179  -13.3769   19.5687 C   0  0  0  0  0  0  0  0  0  0  0  0
    8.7036  -14.6031   19.7916 C   0  0  0  0  0  0  0  0  0  0  0  0
    9.0632  -15.3897   20.9804 C   0  0  0  0  0  0  0  0  0  0  0  0
   10.3910  -16.0770   20.7387 C   0  0  2  0  0  0  0  0  0  0  0  0
   10.3122  -17.0032   19.6275 N   0  0  0  0  0  0  0  0  0  0  0  0
   10.7493  -16.7815   21.9943 C   0  0  0  0  0  0  0  0  0  0  0  0
   10.3956  -17.9640   22.2154 O   0  0  0  0  0  0  0  0  0  0  0  0
    7.7566  -15.1075   18.9185 C   0  0  0  0  0  0  0  0  0  0  0  0
    7.4149  -14.3827   17.8077 C   0  0  0  0  0  0  0  0  0  0  0  0
   11.5607  -16.5122   30.7177 O   0  0  0  0  0  0  0  0  0  0  0  0
   11.7162  -16.2376   29.3710 C   0  0  0  0  0  0  0  0  0  0  0  0
   12.4550  -17.1041   28.5868 C   0  0  0  0  0  0  0  0  0  0  0  0
   12.5978  -16.8081   27.2364 C   0  0  0  0  0  0  0  0  0  0  0  0
   12.0360  -15.6946   26.6577 C   0  0  0  0  0  0  0  0  0  0  0  0
   12.1917  -15.3823   25.2179 C   0  0  0  0  0  0  0  0  0  0  0  0
   11.3243  -16.2861   24.3692 C   0  0  2  0  0  0  0  0  0  0  0  0
   11.5164  -16.0811   22.9637 N   0  0  0  0  0  0  0  0  0  0  0  0
    9.9004  -16.0381   24.7742 C   0  0  0  0  0  0  0  0  0  0  0  0
    9.4876  -14.8702   24.9979 O   0  0  0  0  0  0  0  0  0  0  0  0
   11.2980  -14.8443   27.4806 C   0  0  0  0  0  0  0  0  0  0  0  0
   11.1460  -15.1182   28.8113 C   0  0  0  0  0  0  0  0  0  0  0  0
    8.9703  -17.0926   24.9209 N   0  0  0  0  0  0  0  0  0  0  0  0
    8.0057  -17.1942   25.9996 C   0  0  1  0  0  0  0  0  0  0  0  0
    6.6441  -16.8959   25.3794 C   0  0  0  0  0  0  0  0  0  0  0  0
    6.1190  -15.5946   25.7958 C   0  0  0  0  0  0  0  0  0  0  0  0
    4.9583  -15.3468   26.4827 C   0  0  0  0  0  0  0  0  0  0  0  0
    4.8452  -14.0192   26.6665 N   0  0  0  0  0  0  0  0  0  0  0  0
    5.8991  -13.3780   26.1205 C   0  0  0  0  0  0  0  0  0  0  0  0
    6.2967  -12.0763   26.0097 C   0  0  0  0  0  0  0  0  0  0  0  0
    7.4686  -11.7631   25.3667 C   0  0  0  0  0  0  0  0  0  0  0  0
    8.2787  -12.7342   24.8158 C   0  0  0  0  0  0  0  0  0  0  0  0
    7.8891  -14.0477   24.9210 C   0  0  0  0  0  0  0  0  0  0  0  0
    6.7024  -14.3704   25.5715 C   0  0  0  0  0  0  0  0  0  0  0  0
    8.0345  -18.4903   26.6697 C   0  0  0  0  0  0  0  0  0  0  0  0
    7.3941  -18.6781   27.7237 O   0  0  0  0  0  0  0  0  0  0  0  0
    8.7732  -19.5292   26.1446 O   0  0  0  0  0  0  0  0  0  0  0  0
  2 12  2  0
  2  1  1  0
  3  2  1  0
  4  5  1  0
  4  3  2  0
  5 11  2  0
  6  5  1  0
  6  7  1  0
  7  9  1  0
  7  8  1  6
  9 10  2  0
 11 12  1  0
 13 14  1  0
 14 15  2  0
 15 16  1  0
 17 18  1  0
 17 16  2  0
 19 18  1  1
 19 21  1  0
 20 19  1  0
 20  9  1  0
 21 22  2  0
 21 25  1  0
 23 17  1  0
 24 14  1  0
 24 23  2  0
 25 26  1  0
 26 27  1  6
 27 28  1  0
 28 29  2  0
 30 29  1  0
 31 30  1  0
 32 31  2  0
 33 32  1  0
 34 33  2  0
 34 35  1  0
 35 36  2  0
 36 31  1  0
 36 28  1  0
 37 26  1  0
 37 39  1  0
 38 37  2  0
M  END
$$$$
