YYW.pdb
     RDKit          3D

 39 42  0  0  1  0  0  0  0  0999 V2000
   11.9724  -21.6435   15.3823 O   0  0  0  0  0  0  0  0  0  0  0  0
   11.8764  -20.5318   16.2075 C   0  0  0  0  0  0  0  0  0  0  0  0
   12.8348  -20.3507   17.1975 C   0  0  0  0  0  0  0  0  0  0  0  0
   12.7543  -19.2555   18.0227 C   0  0  0  0  0  0  0  0  0  0  0  0
   11.7085  -18.3597   17.8369 C   0  0  0  0  0  0  0  0  0  0  0  0
   11.5999  -17.1800   18.7073 C   0  0  0  0  0  0  0  0  0  0  0  0
   11.1818  -17.6223   20.0942 C   0  0  2  0  0  0  0  0  0  0  0  0
    9.9028  -18.3023   20.0690 N   0  0  0  0  0  0  0  0  0  0  0  0
   11.1199  -16.4035   20.9378 C   0  0  0  0  0  0  0  0  0  0  0  0
   12.0652  -15.5811   20.9851 O   0  0  0  0  0  0  0  0  0  0  0  0
   10.7600  -18.5497   16.8482 C   0  0  0  0  0  0  0  0  0  0  0  0
   10.8519  -19.6460   16.0322 C   0  0  0  0  0  0  0  0  0  0  0  0
    6.8766  -13.4919   17.0566 O   0  0  0  0  0  0  0  0  0  0  0  0
    7.2440  -13.7228   18.3700 C   0  0  0  0  0  0  0  0  0  0  0  0
    6.7759  -14.8542   19.0123 C   0  0  0  0  0  0  0  0  0  0  0  0
    7.1581  -15.0657   20.3317 C   0  0  0  0  0  0  0  0  0  0  0  0
    7.9773  -14.1981   21.0149 C   0  0  0  0  0  0  0  0  0  0  0  0
    8.3812  -14.4269   22.4217 C   0  0  0  0  0  0  0  0  0  0  0  0
    9.7822  -14.9932   22.4992 C   0  0  2  0  0  0  0  0  0  0  0  0
    9.9477  -16.1769   21.7082 N   0  0  0  0  0  0  0  0  0  0  0  0
   10.0736  -15.2521   23.9488 C   0  0  0  0  0  0  0  0  0  0  0  0
   10.8886  -14.5312   24.5815 O   0  0  0  0  0  0  0  0  0  0  0  0
    8.4291  -13.0682   20.3337 C   0  0  0  0  0  0  0  0  0  0  0  0
    8.0645  -12.8425   19.0357 C   0  0  0  0  0  0  0  0  0  0  0  0
    9.4531  -16.3048   24.6597 N   0  0  0  0  0  0  0  0  0  0  0  0
    9.7018  -16.6132   26.0551 C   0  0  1  0  0  0  0  0  0  0  0  0
    8.3309  -16.7990   26.6985 C   0  0  0  0  0  0  0  0  0  0  0  0
    7.4159  -15.7022   26.3787 C   0  0  0  0  0  0  0  0  0  0  0  0
    6.1465  -15.7993   25.8693 C   0  0  0  0  0  0  0  0  0  0  0  0
    5.6484  -14.5584   25.7224 N   0  0  0  0  0  0  0  0  0  0  0  0
    6.5524  -13.6395   26.1204 C   0  0  0  0  0  0  0  0  0  0  0  0
    6.5889  -12.2763   26.1916 C   0  0  0  0  0  0  0  0  0  0  0  0
    7.7088  -11.6379   26.6640 C   0  0  0  0  0  0  0  0  0  0  0  0
    8.8240  -12.3357   27.0791 C   0  0  0  0  0  0  0  0  0  0  0  0
    8.7990  -13.7079   27.0122 C   0  0  0  0  0  0  0  0  0  0  0  0
    7.6667  -14.3597   26.5342 C   0  0  0  0  0  0  0  0  0  0  0  0
   10.5590  -17.7802   26.2368 C   0  0  0  0  0  0  0  0  0  0  0  0
   10.8999  -18.1502   27.3784 O   0  0  0  0  0  0  0  0  0  0  0  0
   11.0057  -18.4927   25.1443 O   0  0  0  0  0  0  0  0  0  0  0  0
  2 12  2  0
  2  1  1  0
  3  2  1  0
  4  5  1  0
  4  3  2  0
  5 11  2  0
  6  5  1  0
  6  7  1  0
  7  9  1  0
  7  8  1  6
  9 10  2  0
 11 12  1  0
 13 14  1  0
 14 15  2  0
 15 16  1  0
 17 18  1  0
 17 16  2  0
 19 18  1  1
 19 21  1  0
 20 19  1  0
 20  9  1  0
 21 22  2  0
 21 25  1  0
 23 17  1  0
 24 14  1  0
 24 23  2  0
 25 26  1  0
 26 27  1  1
 27 28  1  0
 28 29  2  0
 30 29  1  0
 31 30  1  0
 32 31  2  0
 33 32  1  0
 34 33  2  0
 34 35  1  0
 35 36  2  0
 36 31  1  0
 36 28  1  0
 37 26  1  0
 37 39  1  0
 38 37  2  0
M  END
$$$$
