VCE.pdb
     RDKit          3D

 23 22  0  0  1  0  0  0  0  0999 V2000
    6.4660  -15.3606   19.0153 C   0  0  0  0  0  0  0  0  0  0  0  0
    7.1910  -15.3540   20.3370 C   0  0  2  0  0  0  0  0  0  0  0  0
    6.5648  -16.3828   21.2603 C   0  0  0  0  0  0  0  0  0  0  0  0
    7.1292  -13.9871   20.9919 C   0  0  2  0  0  0  0  0  0  0  0  0
    7.6501  -13.0123   20.0531 N   0  0  0  0  0  0  0  0  0  0  0  0
    7.9888  -13.9646   22.1996 C   0  0  0  0  0  0  0  0  0  0  0  0
    9.2620  -14.0105   22.1006 O   0  0  0  0  0  0  0  0  0  0  0  0
    7.4642  -13.8930   23.4966 N   0  0  0  0  0  0  0  0  0  0  0  0
    8.3164  -13.9018   24.7014 C   0  0  1  0  0  0  0  0  0  0  0  0
    7.4216  -13.3997   25.8210 C   0  0  0  0  0  0  0  0  0  0  0  0
    5.7534  -14.0754   25.7586 S   0  0  0  0  0  0  0  0  0  0  0  0
    8.6881  -15.3000   24.9739 C   0  0  0  0  0  0  0  0  0  0  0  0
    7.8475  -16.2213   24.7703 O   0  0  0  0  0  0  0  0  0  0  0  0
    9.9519  -15.7330   25.4626 N   0  0  0  0  0  0  0  0  0  0  0  0
   10.2686  -17.1225   25.7310 C   0  0  1  0  0  0  0  0  0  0  0  0
   11.6414  -17.4115   25.1964 C   0  0  0  0  0  0  0  0  0  0  0  0
   12.1690  -18.7702   25.4705 C   0  0  0  0  0  0  0  0  0  0  0  0
   13.5023  -19.0270   24.9378 C   0  0  0  0  0  0  0  0  0  0  0  0
   13.7110  -19.2309   23.7210 O   0  0  0  0  0  0  0  0  0  0  0  0
   10.3036  -17.3741   27.2166 C   0  0  0  0  0  0  0  0  0  0  0  0
   10.3037  -16.4243   28.0365 O   0  0  0  0  0  0  0  0  0  0  0  0
   14.5603  -19.0360   25.8628 O   0  0  0  0  0  0  0  0  0  0  0  0
   10.3372  -18.6520   27.7527 O   0  0  0  0  0  0  0  0  0  0  0  0
  2  3  1  1
  2  1  1  0
  4  2  1  0
  4  5  1  6
  6  4  1  0
  7  6  2  0
  8  6  1  0
  9 12  1  0
  9  8  1  0
  9 10  1  1
 11 10  1  0
 12 14  1  0
 13 12  2  0
 14 15  1  0
 15 16  1  1
 15 20  1  0
 16 17  1  0
 17 18  1  0
 18 22  1  0
 19 18  2  0
 20 21  2  0
 20 23  1  0
M  END
$$$$
