VCE.pdb
     RDKit          3D

 23 22  0  0  1  0  0  0  0  0999 V2000
    7.1039  -14.7668   18.6920 C   0  0  0  0  0  0  0  0  0  0  0  0
    7.6788  -14.8063   20.0851 C   0  0  2  0  0  0  0  0  0  0  0  0
    7.0385  -15.9416   20.8622 C   0  0  0  0  0  0  0  0  0  0  0  0
    7.4396  -13.4990   20.8165 C   0  0  2  0  0  0  0  0  0  0  0  0
    7.9943  -12.4250   20.0152 N   0  0  0  0  0  0  0  0  0  0  0  0
    8.1469  -13.5106   22.1193 C   0  0  0  0  0  0  0  0  0  0  0  0
    9.4234  -13.4889   22.1740 O   0  0  0  0  0  0  0  0  0  0  0  0
    7.4686  -13.5455   23.3446 N   0  0  0  0  0  0  0  0  0  0  0  0
    8.1690  -13.6512   24.6393 C   0  0  1  0  0  0  0  0  0  0  0  0
    7.1511  -13.2082   25.6755 C   0  0  0  0  0  0  0  0  0  0  0  0
    5.6570  -14.2135   25.6834 S   0  0  0  0  0  0  0  0  0  0  0  0
    8.4898  -15.0714   24.8574 C   0  0  0  0  0  0  0  0  0  0  0  0
    7.8246  -15.9620   24.2566 O   0  0  0  0  0  0  0  0  0  0  0  0
    9.5173  -15.5589   25.7121 N   0  0  0  0  0  0  0  0  0  0  0  0
   10.0373  -16.9107   25.6416 C   0  0  1  0  0  0  0  0  0  0  0  0
   11.2518  -16.9100   24.7590 C   0  0  0  0  0  0  0  0  0  0  0  0
   11.9028  -18.2267   24.5543 C   0  0  0  0  0  0  0  0  0  0  0  0
   13.1431  -18.1827   23.7879 C   0  0  0  0  0  0  0  0  0  0  0  0
   13.7593  -17.1158   23.5694 O   0  0  0  0  0  0  0  0  0  0  0  0
   10.4754  -17.3751   27.0069 C   0  0  0  0  0  0  0  0  0  0  0  0
   10.8773  -18.5486   27.1958 O   0  0  0  0  0  0  0  0  0  0  0  0
   13.6253  -19.4081   23.2970 O   0  0  0  0  0  0  0  0  0  0  0  0
   10.4588  -16.5427   28.1152 O   0  0  0  0  0  0  0  0  0  0  0  0
  2  3  1  1
  2  1  1  0
  4  2  1  0
  4  5  1  6
  6  4  1  0
  7  6  2  0
  8  6  1  0
  9 12  1  0
  9  8  1  0
  9 10  1  1
 11 10  1  0
 12 14  1  0
 13 12  2  0
 14 15  1  0
 15 16  1  6
 15 20  1  0
 16 17  1  0
 17 18  1  0
 18 22  1  0
 19 18  2  0
 20 21  2  0
 20 23  1  0
M  END
$$$$
