VCE.pdb
     RDKit          3D

 23 22  0  0  1  0  0  0  0  0999 V2000
    6.0529  -23.1828   20.0407 C   0  0  0  0  0  0  0  0  0  0  0  0
    6.7961  -22.2748   20.9872 C   0  0  2  0  0  0  0  0  0  0  0  0
    7.1506  -23.0423   22.2474 C   0  0  0  0  0  0  0  0  0  0  0  0
    5.9624  -21.0621   21.3551 C   0  0  2  0  0  0  0  0  0  0  0  0
    5.6171  -20.3633   20.1321 N   0  0  0  0  0  0  0  0  0  0  0  0
    6.7563  -20.1393   22.2012 C   0  0  0  0  0  0  0  0  0  0  0  0
    7.7490  -19.4954   21.7185 O   0  0  0  0  0  0  0  0  0  0  0  0
    6.4692  -19.9234   23.5553 N   0  0  0  0  0  0  0  0  0  0  0  0
    7.2296  -18.9715   24.3881 C   0  0  1  0  0  0  0  0  0  0  0  0
    6.1906  -18.0076   24.9336 C   0  0  0  0  0  0  0  0  0  0  0  0
    6.8336  -16.9131   26.2110 S   0  0  0  0  0  0  0  0  0  0  0  0
    7.8166  -19.7283   25.5062 C   0  0  0  0  0  0  0  0  0  0  0  0
    7.0891  -20.5089   26.1830 O   0  0  0  0  0  0  0  0  0  0  0  0
    9.1777  -19.6650   25.9151 N   0  0  0  0  0  0  0  0  0  0  0  0
    9.6953  -20.3697   27.0720 C   0  0  1  0  0  0  0  0  0  0  0  0
   11.1260  -20.7388   26.8059 C   0  0  0  0  0  0  0  0  0  0  0  0
   11.3894  -21.4144   25.5121 C   0  0  0  0  0  0  0  0  0  0  0  0
   12.7895  -21.7418   25.2675 C   0  0  0  0  0  0  0  0  0  0  0  0
   13.4457  -21.2280   24.3341 O   0  0  0  0  0  0  0  0  0  0  0  0
    9.6816  -19.4710   28.2820 C   0  0  0  0  0  0  0  0  0  0  0  0
    9.4950  -18.2353   28.1711 O   0  0  0  0  0  0  0  0  0  0  0  0
   13.3810  -22.6734   26.1378 O   0  0  0  0  0  0  0  0  0  0  0  0
    9.8719  -19.9535   29.5674 O   0  0  0  0  0  0  0  0  0  0  0  0
  2  3  1  1
  2  1  1  0
  4  2  1  0
  4  5  1  6
  6  4  1  0
  7  6  2  0
  8  6  1  0
  9 12  1  0
  9  8  1  0
  9 10  1  1
 11 10  1  0
 12 14  1  0
 13 12  2  0
 14 15  1  0
 15 16  1  6
 15 20  1  0
 16 17  1  0
 17 18  1  0
 18 22  1  0
 19 18  2  0
 20 21  2  0
 20 23  1  0
M  END
$$$$
