VCE.pdb
     RDKit          3D

 23 22  0  0  1  0  0  0  0  0999 V2000
    6.7239  -14.4078   19.0093 C   0  0  0  0  0  0  0  0  0  0  0  0
    7.3749  -14.5378   20.3627 C   0  0  2  0  0  0  0  0  0  0  0  0
    6.6529  -15.6017   21.1689 C   0  0  0  0  0  0  0  0  0  0  0  0
    7.3392  -13.2234   21.1192 C   0  0  2  0  0  0  0  0  0  0  0  0
    8.0376  -12.2281   20.3288 N   0  0  0  0  0  0  0  0  0  0  0  0
    8.0511  -13.3634   22.4120 C   0  0  0  0  0  0  0  0  0  0  0  0
    9.3176  -13.5293   22.4499 O   0  0  0  0  0  0  0  0  0  0  0  0
    7.3882  -13.3228   23.6455 N   0  0  0  0  0  0  0  0  0  0  0  0
    8.0851  -13.5246   24.9306 C   0  0  1  0  0  0  0  0  0  0  0  0
    7.1706  -12.9104   25.9758 C   0  0  0  0  0  0  0  0  0  0  0  0
    5.4885  -13.5511   25.9174 S   0  0  0  0  0  0  0  0  0  0  0  0
    8.1762  -14.9753   25.1648 C   0  0  0  0  0  0  0  0  0  0  0  0
    7.1541  -15.7002   25.0015 O   0  0  0  0  0  0  0  0  0  0  0  0
    9.3494  -15.6688   25.5723 N   0  0  0  0  0  0  0  0  0  0  0  0
    9.3642  -17.0789   25.9101 C   0  0  1  0  0  0  0  0  0  0  0  0
   10.1844  -17.8073   24.8850 C   0  0  0  0  0  0  0  0  0  0  0  0
   11.3219  -17.0491   24.3098 C   0  0  0  0  0  0  0  0  0  0  0  0
   12.1316  -17.7946   23.3526 C   0  0  0  0  0  0  0  0  0  0  0  0
   13.3826  -17.7778   23.3751 O   0  0  0  0  0  0  0  0  0  0  0  0
   10.0269  -17.2902   27.2473 C   0  0  0  0  0  0  0  0  0  0  0  0
   10.5048  -16.3275   27.8946 O   0  0  0  0  0  0  0  0  0  0  0  0
   11.4372  -18.5449   22.3882 O   0  0  0  0  0  0  0  0  0  0  0  0
   10.1436  -18.5432   27.8285 O   0  0  0  0  0  0  0  0  0  0  0  0
  2  3  1  1
  2  1  1  0
  4  2  1  0
  4  5  1  6
  6  4  1  0
  7  6  2  0
  8  6  1  0
  9 12  1  0
  9  8  1  0
  9 10  1  1
 11 10  1  0
 12 14  1  0
 13 12  2  0
 14 15  1  0
 15 16  1  6
 15 20  1  0
 16 17  1  0
 17 18  1  0
 18 22  1  0
 19 18  2  0
 20 21  2  0
 20 23  1  0
M  END
$$$$
