VCE.pdb
     RDKit          3D

 23 22  0  0  1  0  0  0  0  0999 V2000
    7.0118  -16.2888   19.5222 C   0  0  0  0  0  0  0  0  0  0  0  0
    7.5481  -15.9408   20.8874 C   0  0  2  0  0  0  0  0  0  0  0  0
    6.8314  -16.7705   21.9367 C   0  0  0  0  0  0  0  0  0  0  0  0
    7.3570  -14.4676   21.1948 C   0  0  2  0  0  0  0  0  0  0  0  0
    8.0122  -13.7001   20.1532 N   0  0  0  0  0  0  0  0  0  0  0  0
    8.0028  -14.1316   22.4862 C   0  0  0  0  0  0  0  0  0  0  0  0
    9.2748  -14.1446   22.6076 O   0  0  0  0  0  0  0  0  0  0  0  0
    7.2688  -13.7864   23.6284 N   0  0  0  0  0  0  0  0  0  0  0  0
    7.9063  -13.5058   24.9294 C   0  0  1  0  0  0  0  0  0  0  0  0
    6.8187  -12.8609   25.7705 C   0  0  0  0  0  0  0  0  0  0  0  0
    7.3388  -12.5030   27.4571 S   0  0  0  0  0  0  0  0  0  0  0  0
    8.2770  -14.7971   25.5315 C   0  0  0  0  0  0  0  0  0  0  0  0
    7.4725  -15.7695   25.4699 O   0  0  0  0  0  0  0  0  0  0  0  0
    9.5020  -15.0686   26.2020 N   0  0  0  0  0  0  0  0  0  0  0  0
    9.8308  -16.3630   26.7670 C   0  0  1  0  0  0  0  0  0  0  0  0
   11.0530  -16.8907   26.0729 C   0  0  0  0  0  0  0  0  0  0  0  0
   10.8423  -18.0727   25.2023 C   0  0  0  0  0  0  0  0  0  0  0  0
   11.5073  -18.0032   23.9060 C   0  0  0  0  0  0  0  0  0  0  0  0
   12.2724  -17.0635   23.5938 O   0  0  0  0  0  0  0  0  0  0  0  0
   10.1696  -16.2253   28.2292 C   0  0  0  0  0  0  0  0  0  0  0  0
   10.4842  -17.2245   28.9198 O   0  0  0  0  0  0  0  0  0  0  0  0
   11.2492  -19.0525   23.0074 O   0  0  0  0  0  0  0  0  0  0  0  0
   10.1526  -15.0035   28.8835 O   0  0  0  0  0  0  0  0  0  0  0  0
  2  3  1  1
  2  1  1  0
  4  2  1  0
  4  5  1  6
  6  4  1  0
  7  6  2  0
  8  6  1  0
  9 12  1  0
  9  8  1  0
  9 10  1  1
 11 10  1  0
 12 14  1  0
 13 12  2  0
 14 15  1  0
 15 16  1  6
 15 20  1  0
 16 17  1  0
 17 18  1  0
 18 22  1  0
 19 18  2  0
 20 21  2  0
 20 23  1  0
M  END
$$$$
