VCE.pdb
     RDKit          3D

 23 22  0  0  1  0  0  0  0  0999 V2000
    8.7994  -19.1646   19.1681 C   0  0  0  0  0  0  0  0  0  0  0  0
    7.3867  -18.6402   19.1262 C   0  0  2  0  0  0  0  0  0  0  0  0
    6.5738  -19.4606   18.1418 C   0  0  0  0  0  0  0  0  0  0  0  0
    7.3532  -17.1811   18.7127 C   0  0  2  0  0  0  0  0  0  0  0  0
    8.0194  -17.0595   17.4303 N   0  0  0  0  0  0  0  0  0  0  0  0
    8.0985  -16.3588   19.6956 C   0  0  0  0  0  0  0  0  0  0  0  0
    9.3145  -16.0264   19.4864 O   0  0  0  0  0  0  0  0  0  0  0  0
    7.5229  -15.9063   20.8900 N   0  0  0  0  0  0  0  0  0  0  0  0
    8.2602  -15.0808   21.8662 C   0  0  1  0  0  0  0  0  0  0  0  0
    7.2084  -14.6009   22.8508 C   0  0  0  0  0  0  0  0  0  0  0  0
    7.9064  -13.8331   24.3228 S   0  0  0  0  0  0  0  0  0  0  0  0
    9.2088  -15.9614   22.5677 C   0  0  0  0  0  0  0  0  0  0  0  0
    8.8348  -17.1074   22.9467 O   0  0  0  0  0  0  0  0  0  0  0  0
   10.5597  -15.6359   22.8721 N   0  0  0  0  0  0  0  0  0  0  0  0
   11.4891  -16.5734   23.4722 C   0  0  1  0  0  0  0  0  0  0  0  0
   12.8872  -16.0883   23.2194 C   0  0  0  0  0  0  0  0  0  0  0  0
   13.9755  -16.9779   23.6925 C   0  0  0  0  0  0  0  0  0  0  0  0
   15.3236  -16.4764   23.4501 C   0  0  0  0  0  0  0  0  0  0  0  0
   15.8074  -15.5161   24.0901 O   0  0  0  0  0  0  0  0  0  0  0  0
   11.2939  -16.6207   24.9660 C   0  0  0  0  0  0  0  0  0  0  0  0
   10.6900  -15.7027   25.5715 O   0  0  0  0  0  0  0  0  0  0  0  0
   16.0688  -17.1269   22.4519 O   0  0  0  0  0  0  0  0  0  0  0  0
   11.7647  -17.6672   25.7436 O   0  0  0  0  0  0  0  0  0  0  0  0
  2  3  1  6
  2  1  1  0
  4  2  1  0
  4  5  1  6
  6  4  1  0
  7  6  2  0
  8  6  1  0
  9 12  1  0
  9  8  1  0
  9 10  1  1
 11 10  1  0
 12 14  1  0
 13 12  2  0
 14 15  1  0
 15 16  1  1
 15 20  1  0
 16 17  1  0
 17 18  1  0
 18 22  1  0
 19 18  2  0
 20 21  2  0
 20 23  1  0
M  END
$$$$
