VCE.pdb
     RDKit          3D

 23 22  0  0  1  0  0  0  0  0999 V2000
    7.3372  -12.2386   20.5385 C   0  0  0  0  0  0  0  0  0  0  0  0
    8.1877  -13.3179   19.9186 C   0  0  2  0  0  0  0  0  0  0  0  0
    7.6142  -13.6963   18.5655 C   0  0  0  0  0  0  0  0  0  0  0  0
    8.2447  -14.5494   20.8025 C   0  0  2  0  0  0  0  0  0  0  0  0
    6.9155  -15.1266   20.8595 N   0  0  0  0  0  0  0  0  0  0  0  0
    8.6372  -14.1667   22.1799 C   0  0  0  0  0  0  0  0  0  0  0  0
    9.8239  -13.7694   22.4384 O   0  0  0  0  0  0  0  0  0  0  0  0
    7.7454  -14.2175   23.2591 N   0  0  0  0  0  0  0  0  0  0  0  0
    8.1622  -13.9503   24.6493 C   0  0  1  0  0  0  0  0  0  0  0  0
    6.9321  -13.3707   25.3254 C   0  0  0  0  0  0  0  0  0  0  0  0
    7.1880  -12.9886   27.0665 S   0  0  0  0  0  0  0  0  0  0  0  0
    8.4886  -15.2434   25.2728 C   0  0  0  0  0  0  0  0  0  0  0  0
    7.6165  -16.1571   25.3104 O   0  0  0  0  0  0  0  0  0  0  0  0
    9.7402  -15.5790   25.8597 N   0  0  0  0  0  0  0  0  0  0  0  0
    9.9939  -16.8407   26.5279 C   0  0  1  0  0  0  0  0  0  0  0  0
   11.2542  -17.4334   25.9674 C   0  0  0  0  0  0  0  0  0  0  0  0
   11.2136  -17.7981   24.5304 C   0  0  0  0  0  0  0  0  0  0  0  0
   12.4759  -18.2881   23.9883 C   0  0  0  0  0  0  0  0  0  0  0  0
   13.5151  -18.3737   24.6802 O   0  0  0  0  0  0  0  0  0  0  0  0
   10.2201  -16.6169   28.0012 C   0  0  0  0  0  0  0  0  0  0  0  0
   10.3308  -15.4595   28.4729 O   0  0  0  0  0  0  0  0  0  0  0  0
   12.4770  -18.6662   22.6348 O   0  0  0  0  0  0  0  0  0  0  0  0
   10.3171  -17.6634   28.9050 O   0  0  0  0  0  0  0  0  0  0  0  0
  2  3  1  6
  2  1  1  0
  4  2  1  0
  4  5  1  1
  6  4  1  0
  7  6  2  0
  8  6  1  0
  9 12  1  0
  9  8  1  0
  9 10  1  1
 11 10  1  0
 12 14  1  0
 13 12  2  0
 14 15  1  0
 15 16  1  6
 15 20  1  0
 16 17  1  0
 17 18  1  0
 18 22  1  0
 19 18  2  0
 20 21  2  0
 20 23  1  0
M  END
$$$$
