VCE.pdb
     RDKit          3D

 23 22  0  0  1  0  0  0  0  0999 V2000
    7.0466  -14.5422   18.1736 C   0  0  0  0  0  0  0  0  0  0  0  0
    7.5886  -14.6439   19.5766 C   0  0  2  0  0  0  0  0  0  0  0  0
    6.8662  -15.7546   20.3164 C   0  0  0  0  0  0  0  0  0  0  0  0
    7.4116  -13.3397   20.3309 C   0  0  2  0  0  0  0  0  0  0  0  0
    8.1127  -12.2987   19.6043 N   0  0  0  0  0  0  0  0  0  0  0  0
    8.0203  -13.4471   21.6784 C   0  0  0  0  0  0  0  0  0  0  0  0
    9.2893  -13.4817   21.8250 O   0  0  0  0  0  0  0  0  0  0  0  0
    7.2531  -13.5156   22.8485 N   0  0  0  0  0  0  0  0  0  0  0  0
    7.8571  -13.6029   24.1922 C   0  0  1  0  0  0  0  0  0  0  0  0
    6.7751  -13.1214   25.1429 C   0  0  0  0  0  0  0  0  0  0  0  0
    7.2094  -13.3226   26.8790 S   0  0  0  0  0  0  0  0  0  0  0  0
    8.1376  -15.0225   24.4630 C   0  0  0  0  0  0  0  0  0  0  0  0
    7.2127  -15.8757   24.3472 O   0  0  0  0  0  0  0  0  0  0  0  0
    9.3989  -15.5493   24.8573 N   0  0  0  0  0  0  0  0  0  0  0  0
    9.6131  -16.9471   25.1784 C   0  0  1  0  0  0  0  0  0  0  0  0
   10.8702  -17.4064   24.4980 C   0  0  0  0  0  0  0  0  0  0  0  0
   10.8005  -17.5224   23.0211 C   0  0  0  0  0  0  0  0  0  0  0  0
   12.0881  -17.7066   22.3612 C   0  0  0  0  0  0  0  0  0  0  0  0
   13.1252  -18.0180   22.9884 O   0  0  0  0  0  0  0  0  0  0  0  0
    9.8177  -17.1182   26.6618 C   0  0  0  0  0  0  0  0  0  0  0  0
    9.8157  -16.1308   27.4359 O   0  0  0  0  0  0  0  0  0  0  0  0
   12.1164  -17.5168   20.9690 O   0  0  0  0  0  0  0  0  0  0  0  0
   10.0170  -18.3596   27.2455 O   0  0  0  0  0  0  0  0  0  0  0  0
  2  3  1  1
  2  1  1  0
  4  2  1  0
  4  5  1  6
  6  4  1  0
  7  6  2  0
  8  6  1  0
  9 12  1  0
  9  8  1  0
  9 10  1  1
 11 10  1  0
 12 14  1  0
 13 12  2  0
 14 15  1  0
 15 16  1  6
 15 20  1  0
 16 17  1  0
 17 18  1  0
 18 22  1  0
 19 18  2  0
 20 21  2  0
 20 23  1  0
M  END
$$$$
