VCE.pdb
     RDKit          3D

 23 22  0  0  1  0  0  0  0  0999 V2000
    8.3398  -17.4471   22.0330 C   0  0  0  0  0  0  0  0  0  0  0  0
    7.2758  -16.4649   21.6140 C   0  0  2  0  0  0  0  0  0  0  0  0
    6.6768  -16.9050   20.2909 C   0  0  0  0  0  0  0  0  0  0  0  0
    7.8447  -15.0662   21.4676 C   0  0  2  0  0  0  0  0  0  0  0  0
    8.9524  -15.1245   20.5334 N   0  0  0  0  0  0  0  0  0  0  0  0
    8.3694  -14.5938   22.7712 C   0  0  0  0  0  0  0  0  0  0  0  0
    9.5973  -14.7591   23.0839 O   0  0  0  0  0  0  0  0  0  0  0  0
    7.5635  -13.9501   23.7192 N   0  0  0  0  0  0  0  0  0  0  0  0
    8.0860  -13.4692   25.0129 C   0  0  1  0  0  0  0  0  0  0  0  0
    6.9407  -12.6902   25.6356 C   0  0  0  0  0  0  0  0  0  0  0  0
    7.2752  -12.1558   27.3226 S   0  0  0  0  0  0  0  0  0  0  0  0
    8.3720  -14.6499   25.8444 C   0  0  0  0  0  0  0  0  0  0  0  0
    7.4498  -15.4770   26.0940 O   0  0  0  0  0  0  0  0  0  0  0  0
    9.6359  -14.9641   26.4167 N   0  0  0  0  0  0  0  0  0  0  0  0
    9.8472  -16.0818   27.3161 C   0  0  1  0  0  0  0  0  0  0  0  0
   11.0487  -16.8510   26.8482 C   0  0  0  0  0  0  0  0  0  0  0  0
   10.9297  -17.4866   25.5136 C   0  0  0  0  0  0  0  0  0  0  0  0
   12.1319  -18.1731   25.0543 C   0  0  0  0  0  0  0  0  0  0  0  0
   13.2752  -17.6799   25.1786 O   0  0  0  0  0  0  0  0  0  0  0  0
   10.1465  -15.5851   28.7073 C   0  0  0  0  0  0  0  0  0  0  0  0
   10.3609  -16.3846   29.6503 O   0  0  0  0  0  0  0  0  0  0  0  0
   11.9503  -19.4320   24.4566 O   0  0  0  0  0  0  0  0  0  0  0  0
   10.2008  -14.2354   29.0183 O   0  0  0  0  0  0  0  0  0  0  0  0
  2  3  1  6
  2  1  1  0
  4  2  1  0
  4  5  1  6
  6  4  1  0
  7  6  2  0
  8  6  1  0
  9 12  1  0
  9  8  1  0
  9 10  1  1
 11 10  1  0
 12 14  1  0
 13 12  2  0
 14 15  1  0
 15 16  1  6
 15 20  1  0
 16 17  1  0
 17 18  1  0
 18 22  1  0
 19 18  2  0
 20 21  2  0
 20 23  1  0
M  END
$$$$
