VCE.pdb
     RDKit          3D

 23 22  0  0  1  0  0  0  0  0999 V2000
    8.0270  -19.2158   19.6268 C   0  0  0  0  0  0  0  0  0  0  0  0
    6.6805  -18.5381   19.6131 C   0  0  2  0  0  0  0  0  0  0  0  0
    5.7936  -19.2008   18.5752 C   0  0  0  0  0  0  0  0  0  0  0  0
    6.8111  -17.0610   19.2933 C   0  0  2  0  0  0  0  0  0  0  0  0
    7.4608  -16.9337   18.0030 N   0  0  0  0  0  0  0  0  0  0  0  0
    7.6679  -16.3974   20.3049 C   0  0  0  0  0  0  0  0  0  0  0  0
    8.9419  -16.4710   20.2368 O   0  0  0  0  0  0  0  0  0  0  0  0
    7.1399  -15.6641   21.3754 N   0  0  0  0  0  0  0  0  0  0  0  0
    7.9906  -15.0107   22.3890 C   0  0  1  0  0  0  0  0  0  0  0  0
    7.0205  -14.3267   23.3363 C   0  0  0  0  0  0  0  0  0  0  0  0
    7.8195  -13.6164   24.7855 S   0  0  0  0  0  0  0  0  0  0  0  0
    8.7079  -16.0697   23.1180 C   0  0  0  0  0  0  0  0  0  0  0  0
    8.1563  -17.1933   23.2911 O   0  0  0  0  0  0  0  0  0  0  0  0
   10.0142  -15.9473   23.6679 N   0  0  0  0  0  0  0  0  0  0  0  0
   10.8831  -17.0813   23.9168 C   0  0  1  0  0  0  0  0  0  0  0  0
   11.3202  -17.6471   22.5966 C   0  0  0  0  0  0  0  0  0  0  0  0
   12.1832  -18.8513   22.6634 C   0  0  0  0  0  0  0  0  0  0  0  0
   12.6809  -19.3187   21.3745 C   0  0  0  0  0  0  0  0  0  0  0  0
   12.4039  -18.7420   20.2990 O   0  0  0  0  0  0  0  0  0  0  0  0
   12.1245  -16.6392   24.6484 C   0  0  0  0  0  0  0  0  0  0  0  0
   12.9046  -17.4739   25.1671 O   0  0  0  0  0  0  0  0  0  0  0  0
   13.4979  -20.4621   21.3905 O   0  0  0  0  0  0  0  0  0  0  0  0
   12.4687  -15.3037   24.7871 O   0  0  0  0  0  0  0  0  0  0  0  0
  2  3  1  6
  2  1  1  0
  4  2  1  0
  4  5  1  6
  6  4  1  0
  7  6  2  0
  8  6  1  0
  9 12  1  0
  9  8  1  0
  9 10  1  1
 11 10  1  0
 12 14  1  0
 13 12  2  0
 14 15  1  0
 15 16  1  6
 15 20  1  0
 16 17  1  0
 17 18  1  0
 18 22  1  0
 19 18  2  0
 20 21  2  0
 20 23  1  0
M  END
$$$$
