VCE.pdb
     RDKit          3D

 23 22  0  0  1  0  0  0  0  0999 V2000
   10.0661  -18.0415   17.7836 C   0  0  0  0  0  0  0  0  0  0  0  0
    9.7565  -16.6017   17.4617 C   0  0  2  0  0  0  0  0  0  0  0  0
    8.4168  -16.5206   16.7535 C   0  0  0  0  0  0  0  0  0  0  0  0
   10.8292  -15.9921   16.5792 C   0  0  2  0  0  0  0  0  0  0  0  0
   10.9265  -16.7882   15.3709 N   0  0  0  0  0  0  0  0  0  0  0  0
   12.1410  -16.0428   17.2678 C   0  0  0  0  0  0  0  0  0  0  0  0
   12.8871  -17.0769   17.1846 O   0  0  0  0  0  0  0  0  0  0  0  0
   12.6302  -14.9786   18.0365 N   0  0  0  0  0  0  0  0  0  0  0  0
   13.9418  -15.0215   18.7117 C   0  0  1  0  0  0  0  0  0  0  0  0
   14.4790  -13.6040   18.6198 C   0  0  0  0  0  0  0  0  0  0  0  0
   16.0487  -13.3791   19.4734 S   0  0  0  0  0  0  0  0  0  0  0  0
   13.7039  -15.3543   20.1259 C   0  0  0  0  0  0  0  0  0  0  0  0
   12.7747  -14.7752   20.7567 O   0  0  0  0  0  0  0  0  0  0  0  0
   14.4470  -16.3028   20.8821 N   0  0  0  0  0  0  0  0  0  0  0  0
   14.2662  -16.5032   22.3068 C   0  0  1  0  0  0  0  0  0  0  0  0
   14.1217  -17.9746   22.5678 C   0  0  0  0  0  0  0  0  0  0  0  0
   14.0437  -18.3735   23.9941 C   0  0  0  0  0  0  0  0  0  0  0  0
   13.8917  -19.8064   24.2205 C   0  0  0  0  0  0  0  0  0  0  0  0
   13.1760  -20.5288   23.4913 O   0  0  0  0  0  0  0  0  0  0  0  0
   15.4831  -16.0314   23.0607 C   0  0  0  0  0  0  0  0  0  0  0  0
   16.5867  -15.8804   22.4832 O   0  0  0  0  0  0  0  0  0  0  0  0
   14.5938  -20.3511   25.3093 O   0  0  0  0  0  0  0  0  0  0  0  0
   15.4510  -15.7418   24.4159 O   0  0  0  0  0  0  0  0  0  0  0  0
  2  3  1  6
  2  1  1  0
  4  2  1  0
  4  5  1  6
  6  4  1  0
  7  6  2  0
  8  6  1  0
  9 12  1  0
  9  8  1  0
  9 10  1  1
 11 10  1  0
 12 14  1  0
 13 12  2  0
 14 15  1  0
 15 16  1  6
 15 20  1  0
 16 17  1  0
 17 18  1  0
 18 22  1  0
 19 18  2  0
 20 21  2  0
 20 23  1  0
M  END
$$$$
