VCE.pdb
     RDKit          3D

 23 22  0  0  1  0  0  0  0  0999 V2000
    7.8408  -16.5195   20.8621 C   0  0  0  0  0  0  0  0  0  0  0  0
    6.6800  -15.5578   20.8837 C   0  0  2  0  0  0  0  0  0  0  0  0
    5.9020  -15.6780   19.5864 C   0  0  0  0  0  0  0  0  0  0  0  0
    7.1538  -14.1270   21.0550 C   0  0  2  0  0  0  0  0  0  0  0  0
    8.0773  -13.8249   19.9784 N   0  0  0  0  0  0  0  0  0  0  0  0
    7.8834  -13.9850   22.3376 C   0  0  0  0  0  0  0  0  0  0  0  0
    9.1438  -14.1859   22.4021 O   0  0  0  0  0  0  0  0  0  0  0  0
    7.2447  -13.6286   23.5325 N   0  0  0  0  0  0  0  0  0  0  0  0
    7.9692  -13.4853   24.8101 C   0  0  1  0  0  0  0  0  0  0  0  0
    6.9676  -12.8566   25.7629 C   0  0  0  0  0  0  0  0  0  0  0  0
    7.5618  -12.7583   27.4601 S   0  0  0  0  0  0  0  0  0  0  0  0
    8.3025  -14.8376   25.2872 C   0  0  0  0  0  0  0  0  0  0  0  0
    7.3997  -15.7198   25.3466 O   0  0  0  0  0  0  0  0  0  0  0  0
    9.5935  -15.2660   25.7038 N   0  0  0  0  0  0  0  0  0  0  0  0
    9.8805  -16.6174   26.1446 C   0  0  1  0  0  0  0  0  0  0  0  0
   11.1721  -17.0595   25.5198 C   0  0  0  0  0  0  0  0  0  0  0  0
   11.6782  -18.3852   25.9512 C   0  0  0  0  0  0  0  0  0  0  0  0
   12.9732  -18.7564   25.3921 C   0  0  0  0  0  0  0  0  0  0  0  0
   13.9943  -18.0474   25.5358 O   0  0  0  0  0  0  0  0  0  0  0  0
   10.0705  -16.6514   27.6394 C   0  0  0  0  0  0  0  0  0  0  0  0
   10.2389  -15.5961   28.2969 O   0  0  0  0  0  0  0  0  0  0  0  0
   13.0279  -19.9629   24.6736 O   0  0  0  0  0  0  0  0  0  0  0  0
   10.0699  -17.8347   28.3613 O   0  0  0  0  0  0  0  0  0  0  0  0
  2  3  1  6
  2  1  1  0
  4  2  1  0
  4  5  1  6
  6  4  1  0
  7  6  2  0
  8  6  1  0
  9 12  1  0
  9  8  1  0
  9 10  1  1
 11 10  1  0
 12 14  1  0
 13 12  2  0
 14 15  1  0
 15 16  1  6
 15 20  1  0
 16 17  1  0
 17 18  1  0
 18 22  1  0
 19 18  2  0
 20 21  2  0
 20 23  1  0
M  END
$$$$
