CFE.pdb
     RDKit          3D

 27 27  0  0  1  0  0  0  0  0999 V2000
   25.3710  -12.4462  -17.7572 N   0  0  0  0  0  0  0  0  0  0  0  0
   25.3752  -11.6804  -16.5349 C   0  0  1  0  0  0  0  0  0  0  0  0
   26.7263  -11.0367  -16.3401 C   0  0  0  0  0  0  0  0  0  0  0  0
   27.9275  -12.3632  -16.0323 S   0  0  0  0  0  0  0  0  0  0  0  0
   24.2681  -10.7189  -16.5203 C   0  0  0  0  0  0  0  0  0  0  0  0
   23.9619  -10.1167  -17.5770 O   0  0  0  0  0  0  0  0  0  0  0  0
   23.4923  -10.4073  -15.3671 N   0  0  0  0  0  0  0  0  0  0  0  0
   22.3388   -9.5569  -15.3872 C   0  0  1  0  0  0  0  0  0  0  0  0
   21.1465  -10.1510  -14.6798 C   0  0  0  0  0  0  0  0  0  0  0  0
   20.5181  -11.2547  -15.4240 C   0  0  0  0  0  0  0  0  0  0  0  0
   20.7889  -12.5713  -15.1226 C   0  0  0  0  0  0  0  0  0  0  0  0
   20.1920  -13.6158  -15.8234 C   0  0  0  0  0  0  0  0  0  0  0  0
   19.3087  -13.3501  -16.8439 C   0  0  0  0  0  0  0  0  0  0  0  0
   19.0277  -12.0405  -17.1570 C   0  0  0  0  0  0  0  0  0  0  0  0
   19.6299  -11.0271  -16.4504 C   0  0  0  0  0  0  0  0  0  0  0  0
   22.5868   -8.2128  -14.8236 C   0  0  0  0  0  0  0  0  0  0  0  0
   23.2458   -8.1376  -13.7610 O   0  0  0  0  0  0  0  0  0  0  0  0
   22.1385   -7.0010  -15.3905 N   0  0  0  0  0  0  0  0  0  0  0  0
   22.4787   -5.6713  -14.8653 C   0  0  1  0  0  0  0  0  0  0  0  0
   22.2314   -4.7137  -15.9734 C   0  0  0  0  0  0  0  0  0  0  0  0
   22.4410   -3.2759  -15.7281 C   0  0  0  0  0  0  0  0  0  0  0  0
   22.0308   -2.3898  -16.7997 C   0  0  0  0  0  0  0  0  0  0  0  0
   21.2237   -1.4760  -16.6740 O   0  0  0  0  0  0  0  0  0  0  0  0
   21.9883   -5.3890  -13.5423 C   0  0  0  0  0  0  0  0  0  0  0  0
   22.6558   -4.7013  -12.7280 O   0  0  0  0  0  0  0  0  0  0  0  0
   22.6031   -2.5881  -18.0976 O   0  0  0  0  0  0  0  0  0  0  0  0
   20.7526   -5.8605  -13.1121 O   0  0  0  0  0  0  0  0  0  0  0  0
  2  1  1  6
  2  3  1  0
  3  4  1  0
  5  6  2  0
  5  2  1  0
  7  5  1  0
  8  7  1  0
  8  9  1  1
  9 10  1  0
 10 11  2  0
 10 15  1  0
 11 12  1  0
 12 13  2  0
 14 13  1  0
 15 14  2  0
 16 17  2  0
 16  8  1  0
 18 16  1  0
 19 18  1  0
 19 20  1  6
 21 20  1  0
 22 21  1  0
 23 22  2  0
 24 19  1  0
 25 24  2  0
 26 22  1  0
 27 24  1  0
M  END
$$$$
