CFE.pdb
     RDKit          3D

 27 27  0  0  1  0  0  0  0  0999 V2000
   39.4234  -24.0106    4.2930 N   0  0  0  0  0  0  0  0  0  0  0  0
   38.2870  -24.8898    4.1653 C   0  0  1  0  0  0  0  0  0  0  0  0
   38.7568  -26.3207    4.0677 C   0  0  0  0  0  0  0  0  0  0  0  0
   39.4076  -26.5721    2.3912 S   0  0  0  0  0  0  0  0  0  0  0  0
   37.3323  -24.6668    5.2556 C   0  0  0  0  0  0  0  0  0  0  0  0
   37.7601  -24.3841    6.4003 O   0  0  0  0  0  0  0  0  0  0  0  0
   35.9175  -24.7486    5.1115 N   0  0  0  0  0  0  0  0  0  0  0  0
   34.9958  -24.6252    6.2021 C   0  0  1  0  0  0  0  0  0  0  0  0
   33.5711  -24.4063    5.7579 C   0  0  0  0  0  0  0  0  0  0  0  0
   33.2683  -23.0003    5.4444 C   0  0  0  0  0  0  0  0  0  0  0  0
   33.2504  -22.0327    6.4246 C   0  0  0  0  0  0  0  0  0  0  0  0
   32.9680  -20.7019    6.1283 C   0  0  0  0  0  0  0  0  0  0  0  0
   32.6977  -20.3224    4.8340 C   0  0  0  0  0  0  0  0  0  0  0  0
   32.7118  -21.2768    3.8437 C   0  0  0  0  0  0  0  0  0  0  0  0
   32.9934  -22.5840    4.1617 C   0  0  0  0  0  0  0  0  0  0  0  0
   35.0185  -25.7783    7.1271 C   0  0  0  0  0  0  0  0  0  0  0  0
   35.0638  -26.9264    6.6282 O   0  0  0  0  0  0  0  0  0  0  0  0
   34.9935  -25.6883    8.5350 N   0  0  0  0  0  0  0  0  0  0  0  0
   35.0479  -26.8490    9.4348 C   0  0  1  0  0  0  0  0  0  0  0  0
   35.5180  -26.3336   10.7460 C   0  0  0  0  0  0  0  0  0  0  0  0
   35.7410  -27.2895   11.8450 C   0  0  0  0  0  0  0  0  0  0  0  0
   36.1136  -26.7060   13.1188 C   0  0  0  0  0  0  0  0  0  0  0  0
   36.9432  -25.8145   13.2576 O   0  0  0  0  0  0  0  0  0  0  0  0
   33.9133  -27.7314    9.3690 C   0  0  0  0  0  0  0  0  0  0  0  0
   32.7457  -27.2889    9.2200 O   0  0  0  0  0  0  0  0  0  0  0  0
   35.4733  -27.1987   14.3015 O   0  0  0  0  0  0  0  0  0  0  0  0
   34.0626  -29.1112    9.4615 O   0  0  0  0  0  0  0  0  0  0  0  0
  2  1  1  1
  2  3  1  0
  3  4  1  0
  5  6  2  0
  5  2  1  0
  7  5  1  0
  8  7  1  0
  8  9  1  6
  9 10  1  0
 10 11  2  0
 10 15  1  0
 11 12  1  0
 12 13  2  0
 14 13  1  0
 15 14  2  0
 16 17  2  0
 16  8  1  0
 18 16  1  0
 19 18  1  0
 19 20  1  1
 21 20  1  0
 22 21  1  0
 23 22  2  0
 24 19  1  0
 25 24  2  0
 26 22  1  0
 27 24  1  0
M  END
$$$$
