CFE.pdb
     RDKit          3D

 27 27  0  0  1  0  0  0  0  0999 V2000
   21.8475  -21.6010   -6.5721 N   0  0  0  0  0  0  0  0  0  0  0  0
   22.0272  -22.1410   -7.8975 C   0  0  1  0  0  0  0  0  0  0  0  0
   20.6900  -22.5401   -8.4721 C   0  0  0  0  0  0  0  0  0  0  0  0
   20.1284  -24.0191   -7.5807 S   0  0  0  0  0  0  0  0  0  0  0  0
   22.7647  -21.1999   -8.7465 C   0  0  0  0  0  0  0  0  0  0  0  0
   22.3968  -20.0021   -8.8015 O   0  0  0  0  0  0  0  0  0  0  0  0
   23.8978  -21.5506   -9.5352 N   0  0  0  0  0  0  0  0  0  0  0  0
   24.5601  -20.6452  -10.4273 C   0  0  1  0  0  0  0  0  0  0  0  0
   26.0626  -20.7757  -10.4036 C   0  0  0  0  0  0  0  0  0  0  0  0
   26.6754  -20.2290   -9.1819 C   0  0  0  0  0  0  0  0  0  0  0  0
   26.2867  -19.0130   -8.6646 C   0  0  0  0  0  0  0  0  0  0  0  0
   26.8631  -18.4970   -7.5069 C   0  0  0  0  0  0  0  0  0  0  0  0
   27.8449  -19.2006   -6.8487 C   0  0  0  0  0  0  0  0  0  0  0  0
   28.2440  -20.4166   -7.3525 C   0  0  0  0  0  0  0  0  0  0  0  0
   27.6597  -20.9044   -8.4970 C   0  0  0  0  0  0  0  0  0  0  0  0
   24.1090  -20.7636  -11.8303 C   0  0  0  0  0  0  0  0  0  0  0  0
   24.2374  -21.8752  -12.3932 O   0  0  0  0  0  0  0  0  0  0  0  0
   23.5418  -19.7186  -12.5900 N   0  0  0  0  0  0  0  0  0  0  0  0
   22.9635  -19.8953  -13.9295 C   0  0  1  0  0  0  0  0  0  0  0  0
   21.9779  -18.7977  -14.1020 C   0  0  0  0  0  0  0  0  0  0  0  0
   21.2534  -18.6898  -15.3806 C   0  0  0  0  0  0  0  0  0  0  0  0
   20.3613  -17.5535  -15.5028 C   0  0  0  0  0  0  0  0  0  0  0  0
   20.1281  -16.7545  -14.6031 O   0  0  0  0  0  0  0  0  0  0  0  0
   23.9091  -20.1891  -14.9734 C   0  0  0  0  0  0  0  0  0  0  0  0
   23.6461  -21.0163  -15.8833 O   0  0  0  0  0  0  0  0  0  0  0  0
   19.7033  -17.3421  -16.7573 O   0  0  0  0  0  0  0  0  0  0  0  0
   25.1512  -19.5650  -15.0221 O   0  0  0  0  0  0  0  0  0  0  0  0
  2  1  1  1
  2  3  1  0
  3  4  1  0
  5  6  2  0
  5  2  1  0
  7  5  1  0
  8  7  1  0
  8  9  1  6
  9 10  1  0
 10 11  2  0
 10 15  1  0
 11 12  1  0
 12 13  2  0
 14 13  1  0
 15 14  2  0
 16 17  2  0
 16  8  1  0
 18 16  1  0
 19 18  1  0
 19 20  1  6
 21 20  1  0
 22 21  1  0
 23 22  2  0
 24 19  1  0
 25 24  2  0
 26 22  1  0
 27 24  1  0
M  END
$$$$
