CFE.pdb
     RDKit          3D

 27 27  0  0  1  0  0  0  0  0999 V2000
   28.6749  -22.9792  -17.2364 N   0  0  0  0  0  0  0  0  0  0  0  0
   27.9395  -21.7581  -17.0164 C   0  0  1  0  0  0  0  0  0  0  0  0
   27.1233  -21.4256  -18.2415 C   0  0  0  0  0  0  0  0  0  0  0  0
   26.4651  -19.7472  -18.0243 S   0  0  0  0  0  0  0  0  0  0  0  0
   27.1366  -21.8484  -15.7927 C   0  0  0  0  0  0  0  0  0  0  0  0
   26.3498  -22.8135  -15.6425 O   0  0  0  0  0  0  0  0  0  0  0  0
   27.1823  -20.8986  -14.7321 N   0  0  0  0  0  0  0  0  0  0  0  0
   26.3049  -20.9246  -13.5991 C   0  0  1  0  0  0  0  0  0  0  0  0
   26.7787  -20.0608  -12.4570 C   0  0  0  0  0  0  0  0  0  0  0  0
   25.9701  -20.2141  -11.2365 C   0  0  0  0  0  0  0  0  0  0  0  0
   24.7644  -19.5650  -11.0865 C   0  0  0  0  0  0  0  0  0  0  0  0
   23.9971  -19.7126   -9.9341 C   0  0  0  0  0  0  0  0  0  0  0  0
   24.4338  -20.5199   -8.9094 C   0  0  0  0  0  0  0  0  0  0  0  0
   25.6357  -21.1750   -9.0441 C   0  0  0  0  0  0  0  0  0  0  0  0
   26.3748  -21.0130  -10.1915 C   0  0  0  0  0  0  0  0  0  0  0  0
   24.9139  -20.5410  -13.9213 C   0  0  0  0  0  0  0  0  0  0  0  0
   24.7316  -19.4597  -14.5269 O   0  0  0  0  0  0  0  0  0  0  0  0
   23.7688  -21.3000  -13.5996 N   0  0  0  0  0  0  0  0  0  0  0  0
   22.3898  -20.8458  -13.8274 C   0  0  1  0  0  0  0  0  0  0  0  0
   21.8769  -21.6406  -14.9726 C   0  0  0  0  0  0  0  0  0  0  0  0
   20.4992  -21.4047  -15.4389 C   0  0  0  0  0  0  0  0  0  0  0  0
   20.0771  -22.1976  -16.5768 C   0  0  0  0  0  0  0  0  0  0  0  0
   19.1478  -21.9046  -17.3204 O   0  0  0  0  0  0  0  0  0  0  0  0
   21.5909  -20.6875  -12.6413 C   0  0  0  0  0  0  0  0  0  0  0  0
   21.7043  -21.4713  -11.6644 O   0  0  0  0  0  0  0  0  0  0  0  0
   20.7893  -23.4078  -16.8594 O   0  0  0  0  0  0  0  0  0  0  0  0
   20.6644  -19.6567  -12.5243 O   0  0  0  0  0  0  0  0  0  0  0  0
  2  1  1  6
  2  3  1  0
  3  4  1  0
  5  6  2  0
  5  2  1  0
  7  5  1  0
  8  7  1  0
  8  9  1  1
  9 10  1  0
 10 11  2  0
 10 15  1  0
 11 12  1  0
 12 13  2  0
 14 13  1  0
 15 14  2  0
 16 17  2  0
 16  8  1  0
 18 16  1  0
 19 18  1  0
 19 20  1  6
 21 20  1  0
 22 21  1  0
 23 22  2  0
 24 19  1  0
 25 24  2  0
 26 22  1  0
 27 24  1  0
M  END
$$$$
