CFE.pdb
     RDKit          3D

 27 27  0  0  1  0  0  0  0  0999 V2000
   30.0005  -36.4299   -7.9711 N   0  0  0  0  0  0  0  0  0  0  0  0
   29.8856  -35.4831   -6.8891 C   0  0  1  0  0  0  0  0  0  0  0  0
   28.4657  -34.9795   -6.7996 C   0  0  0  0  0  0  0  0  0  0  0  0
   28.4192  -33.6913   -5.5206 S   0  0  0  0  0  0  0  0  0  0  0  0
   30.3736  -36.0654   -5.6349 C   0  0  0  0  0  0  0  0  0  0  0  0
   30.1175  -37.2648   -5.3724 O   0  0  0  0  0  0  0  0  0  0  0  0
   31.1373  -35.3547   -4.6650 N   0  0  0  0  0  0  0  0  0  0  0  0
   31.6112  -35.9332   -3.4423 C   0  0  1  0  0  0  0  0  0  0  0  0
   32.8390  -35.2493   -2.8947 C   0  0  0  0  0  0  0  0  0  0  0  0
   34.0966  -35.7863   -3.4397 C   0  0  0  0  0  0  0  0  0  0  0  0
   35.3209  -35.3853   -2.9521 C   0  0  0  0  0  0  0  0  0  0  0  0
   36.5107  -35.8957   -3.4643 C   0  0  0  0  0  0  0  0  0  0  0  0
   36.4866  -36.8224   -4.4806 C   0  0  0  0  0  0  0  0  0  0  0  0
   35.2719  -37.2332   -4.9783 C   0  0  0  0  0  0  0  0  0  0  0  0
   34.1113  -36.7145   -4.4558 C   0  0  0  0  0  0  0  0  0  0  0  0
   30.5902  -35.9728   -2.3737 C   0  0  0  0  0  0  0  0  0  0  0  0
   29.7541  -35.0411   -2.3300 O   0  0  0  0  0  0  0  0  0  0  0  0
   30.4814  -36.9823   -1.3940 N   0  0  0  0  0  0  0  0  0  0  0  0
   29.4212  -37.0316   -0.3774 C   0  0  1  0  0  0  0  0  0  0  0  0
   29.4490  -38.4071    0.1822 C   0  0  0  0  0  0  0  0  0  0  0  0
   28.4673  -38.7707    1.2191 C   0  0  0  0  0  0  0  0  0  0  0  0
   28.9166  -39.7435    2.1957 C   0  0  0  0  0  0  0  0  0  0  0  0
   30.0137  -40.2898    2.1769 O   0  0  0  0  0  0  0  0  0  0  0  0
   29.3592  -35.8942    0.5016 C   0  0  0  0  0  0  0  0  0  0  0  0
   28.2591  -35.4074    0.8681 O   0  0  0  0  0  0  0  0  0  0  0  0
   28.0244  -40.0960    3.2592 O   0  0  0  0  0  0  0  0  0  0  0  0
   30.5142  -35.2901    0.9870 O   0  0  0  0  0  0  0  0  0  0  0  0
  2  1  1  6
  2  3  1  0
  3  4  1  0
  5  6  2  0
  5  2  1  0
  7  5  1  0
  8  7  1  0
  8  9  1  1
  9 10  1  0
 10 11  2  0
 10 15  1  0
 11 12  1  0
 12 13  2  0
 14 13  1  0
 15 14  2  0
 16 17  2  0
 16  8  1  0
 18 16  1  0
 19 18  1  0
 19 20  1  1
 21 20  1  0
 22 21  1  0
 23 22  2  0
 24 19  1  0
 25 24  2  0
 26 22  1  0
 27 24  1  0
M  END
$$$$
