CFE.pdb
     RDKit          3D

 27 27  0  0  1  0  0  0  0  0999 V2000
   26.9488  -23.1538  -17.6627 N   0  0  0  0  0  0  0  0  0  0  0  0
   26.1826  -21.9709  -17.3559 C   0  0  1  0  0  0  0  0  0  0  0  0
   25.2665  -21.6423  -18.5093 C   0  0  0  0  0  0  0  0  0  0  0  0
   26.3082  -21.2084  -19.9319 S   0  0  0  0  0  0  0  0  0  0  0  0
   25.4755  -22.1260  -16.0807 C   0  0  0  0  0  0  0  0  0  0  0  0
   25.1094  -23.2684  -15.7148 O   0  0  0  0  0  0  0  0  0  0  0  0
   25.1636  -21.0499  -15.2010 N   0  0  0  0  0  0  0  0  0  0  0  0
   24.4333  -21.2053  -13.9776 C   0  0  1  0  0  0  0  0  0  0  0  0
   24.8022  -20.1863  -12.9285 C   0  0  0  0  0  0  0  0  0  0  0  0
   24.1218  -20.4033  -11.6413 C   0  0  0  0  0  0  0  0  0  0  0  0
   22.8575  -19.9107  -11.4042 C   0  0  0  0  0  0  0  0  0  0  0  0
   22.2117  -20.1188  -10.1884 C   0  0  0  0  0  0  0  0  0  0  0  0
   22.8317  -20.8296   -9.1871 C   0  0  0  0  0  0  0  0  0  0  0  0
   24.0944  -21.3282   -9.4084 C   0  0  0  0  0  0  0  0  0  0  0  0
   24.7108  -21.1092  -10.6172 C   0  0  0  0  0  0  0  0  0  0  0  0
   22.9663  -21.1713  -14.1579 C   0  0  0  0  0  0  0  0  0  0  0  0
   22.4837  -20.2413  -14.8445 O   0  0  0  0  0  0  0  0  0  0  0  0
   22.0613  -22.1082  -13.6157 N   0  0  0  0  0  0  0  0  0  0  0  0
   20.6023  -22.0303  -13.7749 C   0  0  1  0  0  0  0  0  0  0  0  0
   20.0968  -23.4198  -13.6350 C   0  0  0  0  0  0  0  0  0  0  0  0
   18.6513  -23.6664  -13.7804 C   0  0  0  0  0  0  0  0  0  0  0  0
   18.2434  -25.0567  -13.7300 C   0  0  0  0  0  0  0  0  0  0  0  0
   18.2066  -25.8047  -14.7003 O   0  0  0  0  0  0  0  0  0  0  0  0
   19.9634  -20.9533  -13.0664 C   0  0  0  0  0  0  0  0  0  0  0  0
   20.2183  -20.7210  -11.8571 O   0  0  0  0  0  0  0  0  0  0  0  0
   17.8554  -25.6022  -12.4638 O   0  0  0  0  0  0  0  0  0  0  0  0
   19.0416  -20.1208  -13.6925 O   0  0  0  0  0  0  0  0  0  0  0  0
  2  1  1  6
  2  3  1  0
  3  4  1  0
  5  6  2  0
  5  2  1  0
  7  5  1  0
  8  7  1  0
  8  9  1  1
  9 10  1  0
 10 11  2  0
 10 15  1  0
 11 12  1  0
 12 13  2  0
 14 13  1  0
 15 14  2  0
 16 17  2  0
 16  8  1  0
 18 16  1  0
 19 18  1  0
 19 20  1  1
 21 20  1  0
 22 21  1  0
 23 22  2  0
 24 19  1  0
 25 24  2  0
 26 22  1  0
 27 24  1  0
M  END
$$$$
