CFE.pdb
     RDKit          3D

 27 27  0  0  1  0  0  0  0  0999 V2000
   23.0119  -17.8425  -19.6076 N   0  0  0  0  0  0  0  0  0  0  0  0
   23.2843  -16.5544  -20.1968 C   0  0  1  0  0  0  0  0  0  0  0  0
   22.2839  -16.2712  -21.2907 C   0  0  0  0  0  0  0  0  0  0  0  0
   22.6385  -17.4027  -22.6659 S   0  0  0  0  0  0  0  0  0  0  0  0
   23.3278  -15.5109  -19.1675 C   0  0  0  0  0  0  0  0  0  0  0  0
   22.5338  -15.5688  -18.1983 O   0  0  0  0  0  0  0  0  0  0  0  0
   24.2269  -14.4062  -19.1836 N   0  0  0  0  0  0  0  0  0  0  0  0
   24.1974  -13.3392  -18.2270 C   0  0  1  0  0  0  0  0  0  0  0  0
   25.5367  -13.0753  -17.5854 C   0  0  0  0  0  0  0  0  0  0  0  0
   26.0795  -14.2414  -16.8697 C   0  0  0  0  0  0  0  0  0  0  0  0
   26.8479  -15.1864  -17.5131 C   0  0  0  0  0  0  0  0  0  0  0  0
   27.3650  -16.2876  -16.8360 C   0  0  0  0  0  0  0  0  0  0  0  0
   27.1153  -16.4557  -15.4937 C   0  0  0  0  0  0  0  0  0  0  0  0
   26.3498  -15.5206  -14.8368 C   0  0  0  0  0  0  0  0  0  0  0  0
   25.8507  -14.4423  -15.5275 C   0  0  0  0  0  0  0  0  0  0  0  0
   23.6918  -12.0647  -18.7802 C   0  0  0  0  0  0  0  0  0  0  0  0
   23.8129  -11.8740  -20.0123 O   0  0  0  0  0  0  0  0  0  0  0  0
   23.0799  -11.0405  -18.0270 N   0  0  0  0  0  0  0  0  0  0  0  0
   22.3392   -9.9162  -18.6161 C   0  0  1  0  0  0  0  0  0  0  0  0
   21.3467  -10.5162  -19.5439 C   0  0  0  0  0  0  0  0  0  0  0  0
   20.0216  -10.8908  -19.0193 C   0  0  0  0  0  0  0  0  0  0  0  0
   18.8871  -10.2874  -19.6906 C   0  0  0  0  0  0  0  0  0  0  0  0
   18.3738  -10.7242  -20.7144 O   0  0  0  0  0  0  0  0  0  0  0  0
   21.9360   -8.8925  -17.6888 C   0  0  0  0  0  0  0  0  0  0  0  0
   21.9826   -9.0778  -16.4458 O   0  0  0  0  0  0  0  0  0  0  0  0
   18.3204   -9.0995  -19.1257 O   0  0  0  0  0  0  0  0  0  0  0  0
   21.4837   -7.6533  -18.1296 O   0  0  0  0  0  0  0  0  0  0  0  0
  2  1  1  1
  2  3  1  0
  3  4  1  0
  5  6  2  0
  5  2  1  0
  7  5  1  0
  8  7  1  0
  8  9  1  6
  9 10  1  0
 10 11  2  0
 10 15  1  0
 11 12  1  0
 12 13  2  0
 14 13  1  0
 15 14  2  0
 16 17  2  0
 16  8  1  0
 18 16  1  0
 19 18  1  0
 19 20  1  1
 21 20  1  0
 22 21  1  0
 23 22  2  0
 24 19  1  0
 25 24  2  0
 26 22  1  0
 27 24  1  0
M  END
$$$$
