CFE.pdb
     RDKit          3D

 27 27  0  0  1  0  0  0  0  0999 V2000
   16.4326  -19.1263    1.9807 N   0  0  0  0  0  0  0  0  0  0  0  0
   15.8455  -18.4397    3.1051 C   0  0  1  0  0  0  0  0  0  0  0  0
   15.2173  -19.4408    4.0436 C   0  0  0  0  0  0  0  0  0  0  0  0
   14.3855  -18.5105    5.3626 S   0  0  0  0  0  0  0  0  0  0  0  0
   16.8322  -17.5736    3.7582 C   0  0  0  0  0  0  0  0  0  0  0  0
   17.9753  -18.0241    4.0105 O   0  0  0  0  0  0  0  0  0  0  0  0
   16.5863  -16.2232    4.1387 N   0  0  0  0  0  0  0  0  0  0  0  0
   17.5168  -15.4195    4.8751 C   0  0  1  0  0  0  0  0  0  0  0  0
   17.1890  -13.9475    4.8450 C   0  0  0  0  0  0  0  0  0  0  0  0
   18.2136  -13.1093    5.4888 C   0  0  0  0  0  0  0  0  0  0  0  0
   19.3503  -12.7191    4.8157 C   0  0  0  0  0  0  0  0  0  0  0  0
   20.3181  -11.9230    5.4225 C   0  0  0  0  0  0  0  0  0  0  0  0
   20.1560  -11.5053    6.7231 C   0  0  0  0  0  0  0  0  0  0  0  0
   19.0262  -11.8865    7.4088 C   0  0  0  0  0  0  0  0  0  0  0  0
   18.0854  -12.6727    6.7876 C   0  0  0  0  0  0  0  0  0  0  0  0
   17.6628  -15.8307    6.2877 C   0  0  0  0  0  0  0  0  0  0  0  0
   16.6302  -16.1828    6.9031 O   0  0  0  0  0  0  0  0  0  0  0  0
   18.8794  -15.8589    7.0019 N   0  0  0  0  0  0  0  0  0  0  0  0
   18.9915  -16.2184    8.4224 C   0  0  1  0  0  0  0  0  0  0  0  0
   19.5621  -17.5892    8.4578 C   0  0  0  0  0  0  0  0  0  0  0  0
   19.7677  -18.2381    9.7647 C   0  0  0  0  0  0  0  0  0  0  0  0
   20.2863  -19.5912    9.7192 C   0  0  0  0  0  0  0  0  0  0  0  0
   19.7279  -20.5653   10.2107 O   0  0  0  0  0  0  0  0  0  0  0  0
   19.5248  -15.1905    9.2764 C   0  0  0  0  0  0  0  0  0  0  0  0
   19.1312  -15.0535   10.4628 O   0  0  0  0  0  0  0  0  0  0  0  0
   21.5362  -19.8145    9.0562 O   0  0  0  0  0  0  0  0  0  0  0  0
   20.5027  -14.3099    8.8260 O   0  0  0  0  0  0  0  0  0  0  0  0
  2  1  1  6
  2  3  1  0
  3  4  1  0
  5  6  2  0
  5  2  1  0
  7  5  1  0
  8  7  1  0
  8  9  1  1
  9 10  1  0
 10 11  2  0
 10 15  1  0
 11 12  1  0
 12 13  2  0
 14 13  1  0
 15 14  2  0
 16 17  2  0
 16  8  1  0
 18 16  1  0
 19 18  1  0
 19 20  1  6
 21 20  1  0
 22 21  1  0
 23 22  2  0
 24 19  1  0
 25 24  2  0
 26 22  1  0
 27 24  1  0
M  END
$$$$
