CFE.pdb
     RDKit          3D

 27 27  0  0  1  0  0  0  0  0999 V2000
   26.8434  -17.0673  -13.8624 N   0  0  0  0  0  0  0  0  0  0  0  0
   27.2184  -18.0232  -14.8754 C   0  0  1  0  0  0  0  0  0  0  0  0
   28.5227  -17.6083  -15.5112 C   0  0  0  0  0  0  0  0  0  0  0  0
   28.7166  -18.5656  -17.0420 S   0  0  0  0  0  0  0  0  0  0  0  0
   27.2498  -19.3810  -14.3225 C   0  0  0  0  0  0  0  0  0  0  0  0
   27.3854  -20.3580  -15.0972 O   0  0  0  0  0  0  0  0  0  0  0  0
   27.1351  -19.6845  -12.9355 N   0  0  0  0  0  0  0  0  0  0  0  0
   26.9702  -21.0117  -12.4201 C   0  0  1  0  0  0  0  0  0  0  0  0
   27.8566  -21.3067  -11.2359 C   0  0  0  0  0  0  0  0  0  0  0  0
   27.2764  -20.8777   -9.9529 C   0  0  0  0  0  0  0  0  0  0  0  0
   25.9209  -20.6807   -9.8067 C   0  0  0  0  0  0  0  0  0  0  0  0
   25.3708  -20.2787   -8.5924 C   0  0  0  0  0  0  0  0  0  0  0  0
   26.1808  -20.0675   -7.5008 C   0  0  0  0  0  0  0  0  0  0  0  0
   27.5365  -20.2601   -7.6306 C   0  0  0  0  0  0  0  0  0  0  0  0
   28.0553  -20.6571   -8.8399 C   0  0  0  0  0  0  0  0  0  0  0  0
   25.5763  -21.3292  -12.0432 C   0  0  0  0  0  0  0  0  0  0  0  0
   25.1459  -20.8726  -10.9591 O   0  0  0  0  0  0  0  0  0  0  0  0
   24.6867  -22.1095  -12.8118 N   0  0  0  0  0  0  0  0  0  0  0  0
   23.3357  -21.6780  -13.1969 C   0  0  1  0  0  0  0  0  0  0  0  0
   23.4574  -20.2557  -13.6068 C   0  0  0  0  0  0  0  0  0  0  0  0
   22.5261  -19.2696  -13.0308 C   0  0  0  0  0  0  0  0  0  0  0  0
   21.3551  -18.9698  -13.8312 C   0  0  0  0  0  0  0  0  0  0  0  0
   21.3821  -18.3886  -14.9100 O   0  0  0  0  0  0  0  0  0  0  0  0
   22.6040  -22.6070  -14.0166 C   0  0  0  0  0  0  0  0  0  0  0  0
   21.3557  -22.7252  -13.9202 O   0  0  0  0  0  0  0  0  0  0  0  0
   20.0746  -19.3773  -13.3355 O   0  0  0  0  0  0  0  0  0  0  0  0
   23.2473  -23.4084  -14.9539 O   0  0  0  0  0  0  0  0  0  0  0  0
  2  1  1  1
  2  3  1  0
  3  4  1  0
  5  6  2  0
  5  2  1  0
  7  5  1  0
  8  7  1  0
  8  9  1  1
  9 10  1  0
 10 11  2  0
 10 15  1  0
 11 12  1  0
 12 13  2  0
 14 13  1  0
 15 14  2  0
 16 17  2  0
 16  8  1  0
 18 16  1  0
 19 18  1  0
 19 20  1  6
 21 20  1  0
 22 21  1  0
 23 22  2  0
 24 19  1  0
 25 24  2  0
 26 22  1  0
 27 24  1  0
M  END
$$$$
