CFE.pdb
     RDKit          3D

 27 27  0  0  1  0  0  0  0  0999 V2000
   19.5128  -12.8092  -18.8869 N   0  0  0  0  0  0  0  0  0  0  0  0
   20.0842  -11.5194  -19.1876 C   0  0  1  0  0  0  0  0  0  0  0  0
   19.4573  -10.9631  -20.4427 C   0  0  0  0  0  0  0  0  0  0  0  0
   20.0860  -11.9295  -21.8456 S   0  0  0  0  0  0  0  0  0  0  0  0
   19.9706  -10.6193  -18.0355 C   0  0  0  0  0  0  0  0  0  0  0  0
   18.8614  -10.4864  -17.4653 O   0  0  0  0  0  0  0  0  0  0  0  0
   21.0522   -9.8634  -17.4992 N   0  0  0  0  0  0  0  0  0  0  0  0
   20.9051   -8.8847  -16.4625 C   0  0  1  0  0  0  0  0  0  0  0  0
   22.1450   -8.7162  -15.6203 C   0  0  0  0  0  0  0  0  0  0  0  0
   21.9961   -7.7055  -14.5604 C   0  0  0  0  0  0  0  0  0  0  0  0
   22.4407   -6.4131  -14.7316 C   0  0  0  0  0  0  0  0  0  0  0  0
   22.2967   -5.4555  -13.7311 C   0  0  0  0  0  0  0  0  0  0  0  0
   21.6999   -5.7858  -12.5365 C   0  0  0  0  0  0  0  0  0  0  0  0
   21.2505   -7.0724  -12.3501 C   0  0  0  0  0  0  0  0  0  0  0  0
   21.4044   -7.9994  -13.3531 C   0  0  0  0  0  0  0  0  0  0  0  0
   20.5020   -7.5527  -16.9616 C   0  0  0  0  0  0  0  0  0  0  0  0
   21.1579   -7.0609  -17.9087 O   0  0  0  0  0  0  0  0  0  0  0  0
   19.4312   -6.7871  -16.4537 N   0  0  0  0  0  0  0  0  0  0  0  0
   19.0812   -5.4424  -16.9325 C   0  0  1  0  0  0  0  0  0  0  0  0
   17.6115   -5.4495  -17.1464 C   0  0  0  0  0  0  0  0  0  0  0  0
   16.9592   -4.2195  -17.6290 C   0  0  0  0  0  0  0  0  0  0  0  0
   15.5175   -4.2858  -17.7665 C   0  0  0  0  0  0  0  0  0  0  0  0
   14.9328   -4.6227  -18.7897 O   0  0  0  0  0  0  0  0  0  0  0  0
   19.7039   -4.3561  -16.2235 C   0  0  0  0  0  0  0  0  0  0  0  0
   19.3872   -4.0790  -15.0384 O   0  0  0  0  0  0  0  0  0  0  0  0
   14.7134   -3.9358  -16.6341 O   0  0  0  0  0  0  0  0  0  0  0  0
   20.6863   -3.5717  -16.8184 O   0  0  0  0  0  0  0  0  0  0  0  0
  2  1  1  1
  2  3  1  0
  3  4  1  0
  5  6  2  0
  5  2  1  0
  7  5  1  0
  8  7  1  0
  8  9  1  6
  9 10  1  0
 10 11  2  0
 10 15  1  0
 11 12  1  0
 12 13  2  0
 14 13  1  0
 15 14  2  0
 16 17  2  0
 16  8  1  0
 18 16  1  0
 19 18  1  0
 19 20  1  1
 21 20  1  0
 22 21  1  0
 23 22  2  0
 24 19  1  0
 25 24  2  0
 26 22  1  0
 27 24  1  0
M  END
$$$$
