CFE.pdb
     RDKit          3D

 27 27  0  0  1  0  0  0  0  0999 V2000
   22.2450  -12.8043  -19.6876 N   0  0  0  0  0  0  0  0  0  0  0  0
   22.7713  -11.4633  -19.7585 C   0  0  1  0  0  0  0  0  0  0  0  0
   22.5453  -10.8983  -21.1396 C   0  0  0  0  0  0  0  0  0  0  0  0
   23.7346  -11.6918  -22.2592 S   0  0  0  0  0  0  0  0  0  0  0  0
   22.2102  -10.6277  -18.6921 C   0  0  0  0  0  0  0  0  0  0  0  0
   20.9739  -10.6468  -18.4812 O   0  0  0  0  0  0  0  0  0  0  0  0
   22.9818   -9.7726  -17.8540 N   0  0  0  0  0  0  0  0  0  0  0  0
   22.4178   -8.9146  -16.8540 C   0  0  1  0  0  0  0  0  0  0  0  0
   23.3918   -8.5505  -15.7614 C   0  0  0  0  0  0  0  0  0  0  0  0
   22.8188   -7.6518  -14.7461 C   0  0  0  0  0  0  0  0  0  0  0  0
   22.1265   -8.1418  -13.6606 C   0  0  0  0  0  0  0  0  0  0  0  0
   21.5876   -7.2928  -12.6977 C   0  0  0  0  0  0  0  0  0  0  0  0
   21.7377   -5.9302  -12.8130 C   0  0  0  0  0  0  0  0  0  0  0  0
   22.4266   -5.4253  -13.8912 C   0  0  0  0  0  0  0  0  0  0  0  0
   22.9491   -6.2843  -14.8283 C   0  0  0  0  0  0  0  0  0  0  0  0
   21.8502   -7.6640  -17.4015 C   0  0  0  0  0  0  0  0  0  0  0  0
   22.5212   -7.0444  -18.2588 O   0  0  0  0  0  0  0  0  0  0  0  0
   20.6059   -7.1098  -17.0337 N   0  0  0  0  0  0  0  0  0  0  0  0
   20.1142   -5.8070  -17.5036 C   0  0  1  0  0  0  0  0  0  0  0  0
   19.0762   -6.1009  -18.5245 C   0  0  0  0  0  0  0  0  0  0  0  0
   18.3569   -4.9763  -19.1484 C   0  0  0  0  0  0  0  0  0  0  0  0
   17.3343   -5.3408  -20.1092 C   0  0  0  0  0  0  0  0  0  0  0  0
   16.6530   -4.5375  -20.7360 O   0  0  0  0  0  0  0  0  0  0  0  0
   19.8596   -4.8374  -16.4714 C   0  0  0  0  0  0  0  0  0  0  0  0
   19.5033   -5.1863  -15.3169 O   0  0  0  0  0  0  0  0  0  0  0  0
   17.0971   -6.7328  -20.3492 O   0  0  0  0  0  0  0  0  0  0  0  0
   20.0033   -3.4742  -16.7069 O   0  0  0  0  0  0  0  0  0  0  0  0
  2  1  1  6
  2  3  1  0
  3  4  1  0
  5  6  2  0
  5  2  1  0
  7  5  1  0
  8  7  1  0
  8  9  1  1
  9 10  1  0
 10 11  2  0
 10 15  1  0
 11 12  1  0
 12 13  2  0
 14 13  1  0
 15 14  2  0
 16 17  2  0
 16  8  1  0
 18 16  1  0
 19 18  1  0
 19 20  1  1
 21 20  1  0
 22 21  1  0
 23 22  2  0
 24 19  1  0
 25 24  2  0
 26 22  1  0
 27 24  1  0
M  END
$$$$
