CFE.pdb
     RDKit          3D

 27 27  0  0  1  0  0  0  0  0999 V2000
   17.3192  -13.3828  -16.3816 N   0  0  0  0  0  0  0  0  0  0  0  0
   17.7356  -12.2759  -17.2073 C   0  0  1  0  0  0  0  0  0  0  0  0
   16.6722  -11.9776  -18.2358 C   0  0  0  0  0  0  0  0  0  0  0  0
   16.8159  -13.2210  -19.5513 S   0  0  0  0  0  0  0  0  0  0  0  0
   18.0855  -11.1151  -16.3826 C   0  0  0  0  0  0  0  0  0  0  0  0
   17.2373  -10.6484  -15.5852 O   0  0  0  0  0  0  0  0  0  0  0  0
   19.3490  -10.4584  -16.4178 N   0  0  0  0  0  0  0  0  0  0  0  0
   19.6735   -9.3093  -15.6251 C   0  0  1  0  0  0  0  0  0  0  0  0
   21.1542   -9.1458  -15.3886 C   0  0  0  0  0  0  0  0  0  0  0  0
   21.4856   -7.9777  -14.5564 C   0  0  0  0  0  0  0  0  0  0  0  0
   21.9659   -6.8122  -15.1116 C   0  0  0  0  0  0  0  0  0  0  0  0
   22.2759   -5.7056  -14.3256 C   0  0  0  0  0  0  0  0  0  0  0  0
   22.1064   -5.7552  -12.9614 C   0  0  0  0  0  0  0  0  0  0  0  0
   21.6275   -6.9119  -12.3917 C   0  0  0  0  0  0  0  0  0  0  0  0
   21.3288   -7.9907  -13.1891 C   0  0  0  0  0  0  0  0  0  0  0  0
   19.1529   -8.0424  -16.1818 C   0  0  0  0  0  0  0  0  0  0  0  0
   19.3641   -7.8066  -17.3938 O   0  0  0  0  0  0  0  0  0  0  0  0
   18.4325   -7.0726  -15.4530 N   0  0  0  0  0  0  0  0  0  0  0  0
   18.0162   -5.7736  -16.0000 C   0  0  1  0  0  0  0  0  0  0  0  0
   16.5375   -5.8330  -16.1258 C   0  0  0  0  0  0  0  0  0  0  0  0
   15.8162   -4.6332  -16.5856 C   0  0  0  0  0  0  0  0  0  0  0  0
   15.6798   -4.4948  -18.0223 C   0  0  0  0  0  0  0  0  0  0  0  0
   16.6062   -4.5878  -18.8195 O   0  0  0  0  0  0  0  0  0  0  0  0
   18.6459   -4.6254  -15.4039 C   0  0  0  0  0  0  0  0  0  0  0  0
   18.6598   -3.5096  -15.9840 O   0  0  0  0  0  0  0  0  0  0  0  0
   14.3769   -4.2315  -18.5558 O   0  0  0  0  0  0  0  0  0  0  0  0
   19.2600   -4.7012  -14.1582 O   0  0  0  0  0  0  0  0  0  0  0  0
  2  1  1  1
  2  3  1  0
  3  4  1  0
  5  6  2  0
  5  2  1  0
  7  5  1  0
  8  7  1  0
  8  9  1  6
  9 10  1  0
 10 11  2  0
 10 15  1  0
 11 12  1  0
 12 13  2  0
 14 13  1  0
 15 14  2  0
 16 17  2  0
 16  8  1  0
 18 16  1  0
 19 18  1  0
 19 20  1  1
 21 20  1  0
 22 21  1  0
 23 22  2  0
 24 19  1  0
 25 24  2  0
 26 22  1  0
 27 24  1  0
M  END
$$$$
