CFE.pdb
     RDKit          3D

 27 27  0  0  1  0  0  0  0  0999 V2000
   18.6686  -15.6507   10.9439 N   0  0  0  0  0  0  0  0  0  0  0  0
   19.3023  -16.6015   10.0637 C   0  0  1  0  0  0  0  0  0  0  0  0
   19.3380  -17.9601   10.7199 C   0  0  0  0  0  0  0  0  0  0  0  0
   20.4198  -19.0239    9.7222 S   0  0  0  0  0  0  0  0  0  0  0  0
   18.6494  -16.6096    8.7507 C   0  0  0  0  0  0  0  0  0  0  0  0
   17.3969  -16.6224    8.6862 O   0  0  0  0  0  0  0  0  0  0  0  0
   19.3469  -16.6037    7.5087 N   0  0  0  0  0  0  0  0  0  0  0  0
   18.7000  -16.6357    6.2301 C   0  0  1  0  0  0  0  0  0  0  0  0
   19.5587  -16.0975    5.1130 C   0  0  0  0  0  0  0  0  0  0  0  0
   18.8003  -15.8004    3.8868 C   0  0  0  0  0  0  0  0  0  0  0  0
   18.8916  -16.6046    2.7722 C   0  0  0  0  0  0  0  0  0  0  0  0
   18.1715  -16.3266    1.6134 C   0  0  0  0  0  0  0  0  0  0  0  0
   17.3442  -15.2290    1.5582 C   0  0  0  0  0  0  0  0  0  0  0  0
   17.2420  -14.4161    2.6631 C   0  0  0  0  0  0  0  0  0  0  0  0
   17.9631  -14.7119    3.7952 C   0  0  0  0  0  0  0  0  0  0  0  0
   18.2278  -17.9817    5.8414 C   0  0  0  0  0  0  0  0  0  0  0  0
   19.0346  -18.9348    5.9401 O   0  0  0  0  0  0  0  0  0  0  0  0
   16.9333  -18.2803    5.3659 N   0  0  0  0  0  0  0  0  0  0  0  0
   16.4851  -19.6287    4.9911 C   0  0  1  0  0  0  0  0  0  0  0  0
   15.2766  -19.9047    5.8093 C   0  0  0  0  0  0  0  0  0  0  0  0
   15.3721  -20.8824    6.9076 C   0  0  0  0  0  0  0  0  0  0  0  0
   14.1542  -21.0979    7.6640 C   0  0  0  0  0  0  0  0  0  0  0  0
   14.1011  -21.6739    8.7446 O   0  0  0  0  0  0  0  0  0  0  0  0
   16.4811  -19.9048    3.5790 C   0  0  0  0  0  0  0  0  0  0  0  0
   16.3543  -18.9849    2.7309 O   0  0  0  0  0  0  0  0  0  0  0  0
   12.9238  -20.6071    7.1191 O   0  0  0  0  0  0  0  0  0  0  0  0
   16.6236  -21.2006    3.0939 O   0  0  0  0  0  0  0  0  0  0  0  0
  2  1  1  1
  2  3  1  0
  3  4  1  0
  5  6  2  0
  5  2  1  0
  7  5  1  0
  8  7  1  0
  8  9  1  6
  9 10  1  0
 10 11  2  0
 10 15  1  0
 11 12  1  0
 12 13  2  0
 14 13  1  0
 15 14  2  0
 16 17  2  0
 16  8  1  0
 18 16  1  0
 19 18  1  0
 19 20  1  6
 21 20  1  0
 22 21  1  0
 23 22  2  0
 24 19  1  0
 25 24  2  0
 26 22  1  0
 27 24  1  0
M  END
$$$$
