CFE.pdb
     RDKit          3D

 27 27  0  0  1  0  0  0  0  0999 V2000
   28.5091  -22.4204  -14.4482 N   0  0  0  0  0  0  0  0  0  0  0  0
   28.1114  -21.1540  -13.8838 C   0  0  1  0  0  0  0  0  0  0  0  0
   27.0294  -20.5334  -14.7335 C   0  0  0  0  0  0  0  0  0  0  0  0
   26.7890  -18.8282  -14.1577 S   0  0  0  0  0  0  0  0  0  0  0  0
   27.7256  -21.3099  -12.4777 C   0  0  0  0  0  0  0  0  0  0  0  0
   26.8503  -22.1536  -12.1695 O   0  0  0  0  0  0  0  0  0  0  0  0
   28.2834  -20.5564  -11.4053 N   0  0  0  0  0  0  0  0  0  0  0  0
   27.8222  -20.6347  -10.0505 C   0  0  1  0  0  0  0  0  0  0  0  0
   28.7061  -19.8980   -9.0753 C   0  0  0  0  0  0  0  0  0  0  0  0
   28.2165  -19.9542   -7.6882 C   0  0  0  0  0  0  0  0  0  0  0  0
   27.1167  -19.2300   -7.2840 C   0  0  0  0  0  0  0  0  0  0  0  0
   26.6505  -19.2857   -5.9732 C   0  0  0  0  0  0  0  0  0  0  0  0
   27.2876  -20.0752   -5.0441 C   0  0  0  0  0  0  0  0  0  0  0  0
   28.3872  -20.8046   -5.4322 C   0  0  0  0  0  0  0  0  0  0  0  0
   28.8279  -20.7326   -6.7321 C   0  0  0  0  0  0  0  0  0  0  0  0
   26.4358  -20.1536   -9.8706 C   0  0  0  0  0  0  0  0  0  0  0  0
   26.1609  -19.0000  -10.2741 O   0  0  0  0  0  0  0  0  0  0  0  0
   25.3915  -20.8945   -9.2778 N   0  0  0  0  0  0  0  0  0  0  0  0
   23.9673  -20.5539   -9.4023 C   0  0  1  0  0  0  0  0  0  0  0  0
   23.5499  -21.0104  -10.7525 C   0  0  0  0  0  0  0  0  0  0  0  0
   22.1469  -20.8226  -11.1623 C   0  0  0  0  0  0  0  0  0  0  0  0
   21.9296  -19.8847  -12.2462 C   0  0  0  0  0  0  0  0  0  0  0  0
   22.5475  -19.8921  -13.3047 O   0  0  0  0  0  0  0  0  0  0  0  0
   23.1589  -20.8617   -8.2525 C   0  0  0  0  0  0  0  0  0  0  0  0
   21.9413  -20.5508   -8.2042 O   0  0  0  0  0  0  0  0  0  0  0  0
   20.9256  -18.8771  -12.0776 O   0  0  0  0  0  0  0  0  0  0  0  0
   23.6901  -21.5217   -7.1494 O   0  0  0  0  0  0  0  0  0  0  0  0
  2  1  1  6
  2  3  1  0
  3  4  1  0
  5  6  2  0
  5  2  1  0
  7  5  1  0
  8  7  1  0
  8  9  1  1
  9 10  1  0
 10 11  2  0
 10 15  1  0
 11 12  1  0
 12 13  2  0
 14 13  1  0
 15 14  2  0
 16 17  2  0
 16  8  1  0
 18 16  1  0
 19 18  1  0
 19 20  1  6
 21 20  1  0
 22 21  1  0
 23 22  2  0
 24 19  1  0
 25 24  2  0
 26 22  1  0
 27 24  1  0
M  END
$$$$
