CFE.pdb
     RDKit          3D

 27 27  0  0  1  0  0  0  0  0999 V2000
   37.1004    0.6546   -4.8298 N   0  0  0  0  0  0  0  0  0  0  0  0
   36.3970    1.8249   -5.2947 C   0  0  1  0  0  0  0  0  0  0  0  0
   36.9674    2.2712   -6.6188 C   0  0  0  0  0  0  0  0  0  0  0  0
   38.3385    3.4097   -6.2705 S   0  0  0  0  0  0  0  0  0  0  0  0
   34.9521    1.5790   -5.3400 C   0  0  0  0  0  0  0  0  0  0  0  0
   34.5265    0.4956   -5.8069 O   0  0  0  0  0  0  0  0  0  0  0  0
   33.9675    2.5008   -4.8821 N   0  0  0  0  0  0  0  0  0  0  0  0
   32.5566    2.2548   -4.9383 C   0  0  1  0  0  0  0  0  0  0  0  0
   31.8836    2.3276   -3.5904 C   0  0  0  0  0  0  0  0  0  0  0  0
   32.1889    1.1773   -2.7241 C   0  0  0  0  0  0  0  0  0  0  0  0
   33.2601    1.1935   -1.8582 C   0  0  0  0  0  0  0  0  0  0  0  0
   33.5473    0.1074   -1.0357 C   0  0  0  0  0  0  0  0  0  0  0  0
   32.7567   -1.0177   -1.0722 C   0  0  0  0  0  0  0  0  0  0  0  0
   31.6831   -1.0494   -1.9315 C   0  0  0  0  0  0  0  0  0  0  0  0
   31.4205    0.0356   -2.7334 C   0  0  0  0  0  0  0  0  0  0  0  0
   31.8368    3.1569   -5.8624 C   0  0  0  0  0  0  0  0  0  0  0  0
   32.0726    4.3845   -5.7821 O   0  0  0  0  0  0  0  0  0  0  0  0
   30.9006    2.7431   -6.8336 N   0  0  0  0  0  0  0  0  0  0  0  0
   30.1422    3.6649   -7.6908 C   0  0  1  0  0  0  0  0  0  0  0  0
   30.0907    3.0325   -9.0337 C   0  0  0  0  0  0  0  0  0  0  0  0
   29.4650    3.7736  -10.1429 C   0  0  0  0  0  0  0  0  0  0  0  0
   29.2569    3.0194  -11.3635 C   0  0  0  0  0  0  0  0  0  0  0  0
   29.5711    1.8445  -11.5153 O   0  0  0  0  0  0  0  0  0  0  0  0
   28.9480    4.2101   -7.1017 C   0  0  0  0  0  0  0  0  0  0  0  0
   28.3274    3.6009   -6.1933 O   0  0  0  0  0  0  0  0  0  0  0  0
   28.6423    3.6847  -12.4731 O   0  0  0  0  0  0  0  0  0  0  0  0
   28.4345    5.4369   -7.5090 O   0  0  0  0  0  0  0  0  0  0  0  0
  2  1  1  6
  2  3  1  0
  3  4  1  0
  5  6  2  0
  5  2  1  0
  7  5  1  0
  8  7  1  0
  8  9  1  1
  9 10  1  0
 10 11  2  0
 10 15  1  0
 11 12  1  0
 12 13  2  0
 14 13  1  0
 15 14  2  0
 16 17  2  0
 16  8  1  0
 18 16  1  0
 19 18  1  0
 19 20  1  6
 21 20  1  0
 22 21  1  0
 23 22  2  0
 24 19  1  0
 25 24  2  0
 26 22  1  0
 27 24  1  0
M  END
$$$$
