CFE.pdb
     RDKit          3D

 27 27  0  0  1  0  0  0  0  0999 V2000
   28.4477  -22.0064  -13.9911 N   0  0  0  0  0  0  0  0  0  0  0  0
   28.8545  -20.9381  -13.1115 C   0  0  1  0  0  0  0  0  0  0  0  0
   28.4005  -19.6130  -13.6733 C   0  0  0  0  0  0  0  0  0  0  0  0
   26.6245  -19.7458  -14.0275 S   0  0  0  0  0  0  0  0  0  0  0  0
   28.3803  -21.1808  -11.7453 C   0  0  0  0  0  0  0  0  0  0  0  0
   27.4209  -21.9665  -11.5572 O   0  0  0  0  0  0  0  0  0  0  0  0
   28.9405  -20.5768  -10.5833 N   0  0  0  0  0  0  0  0  0  0  0  0
   28.3547  -20.6626   -9.2780 C   0  0  1  0  0  0  0  0  0  0  0  0
   29.1592  -19.9573   -8.2149 C   0  0  0  0  0  0  0  0  0  0  0  0
   28.5657  -20.0593   -6.8717 C   0  0  0  0  0  0  0  0  0  0  0  0
   27.7055  -19.0969   -6.3906 C   0  0  0  0  0  0  0  0  0  0  0  0
   27.1406  -19.1947   -5.1218 C   0  0  0  0  0  0  0  0  0  0  0  0
   27.4342  -20.2682   -4.3133 C   0  0  0  0  0  0  0  0  0  0  0  0
   28.2914  -21.2378   -4.7793 C   0  0  0  0  0  0  0  0  0  0  0  0
   28.8362  -21.1184   -6.0355 C   0  0  0  0  0  0  0  0  0  0  0  0
   26.9674  -20.1548   -9.2194 C   0  0  0  0  0  0  0  0  0  0  0  0
   26.7330  -19.0358   -9.7314 O   0  0  0  0  0  0  0  0  0  0  0  0
   25.8801  -20.8339   -8.6300 N   0  0  0  0  0  0  0  0  0  0  0  0
   24.4704  -20.4964   -8.8719 C   0  0  1  0  0  0  0  0  0  0  0  0
   24.2582  -20.6328  -10.3356 C   0  0  0  0  0  0  0  0  0  0  0  0
   22.9354  -20.3016  -10.8942 C   0  0  0  0  0  0  0  0  0  0  0  0
   22.7827  -20.5213  -12.3190 C   0  0  0  0  0  0  0  0  0  0  0  0
   23.6842  -20.8850  -13.0657 O   0  0  0  0  0  0  0  0  0  0  0  0
   23.5322  -21.0762   -7.9478 C   0  0  0  0  0  0  0  0  0  0  0  0
   23.9043  -21.8715   -7.0475 O   0  0  0  0  0  0  0  0  0  0  0  0
   21.4935  -20.3011  -12.9029 O   0  0  0  0  0  0  0  0  0  0  0  0
   22.1756  -20.7758   -8.0088 O   0  0  0  0  0  0  0  0  0  0  0  0
  2  1  1  6
  2  3  1  0
  3  4  1  0
  5  6  2  0
  5  2  1  0
  7  5  1  0
  8  7  1  0
  8  9  1  1
  9 10  1  0
 10 11  2  0
 10 15  1  0
 11 12  1  0
 12 13  2  0
 14 13  1  0
 15 14  2  0
 16 17  2  0
 16  8  1  0
 18 16  1  0
 19 18  1  0
 19 20  1  6
 21 20  1  0
 22 21  1  0
 23 22  2  0
 24 19  1  0
 25 24  2  0
 26 22  1  0
 27 24  1  0
M  END
$$$$
