CFE.pdb
     RDKit          3D

 27 27  0  0  1  0  0  0  0  0999 V2000
   28.2653  -23.2522  -17.6712 N   0  0  0  0  0  0  0  0  0  0  0  0
   27.7371  -21.9726  -17.2661 C   0  0  1  0  0  0  0  0  0  0  0  0
   26.9043  -21.3878  -18.3805 C   0  0  0  0  0  0  0  0  0  0  0  0
   28.0437  -20.6853  -19.6074 S   0  0  0  0  0  0  0  0  0  0  0  0
   27.0089  -22.0887  -15.9986 C   0  0  0  0  0  0  0  0  0  0  0  0
   26.2954  -23.0986  -15.7889 O   0  0  0  0  0  0  0  0  0  0  0  0
   27.0505  -21.1165  -14.9584 N   0  0  0  0  0  0  0  0  0  0  0  0
   26.2599  -21.1903  -13.7651 C   0  0  1  0  0  0  0  0  0  0  0  0
   26.7854  -20.3258  -12.6464 C   0  0  0  0  0  0  0  0  0  0  0  0
   26.0770  -20.5283  -11.3720 C   0  0  0  0  0  0  0  0  0  0  0  0
   24.9702  -19.7795  -11.0376 C   0  0  0  0  0  0  0  0  0  0  0  0
   24.2972  -19.9730   -9.8342 C   0  0  0  0  0  0  0  0  0  0  0  0
   24.7301  -20.9282   -8.9440 C   0  0  0  0  0  0  0  0  0  0  0  0
   25.8339  -21.6843   -9.2633 C   0  0  0  0  0  0  0  0  0  0  0  0
   26.4810  -21.4741  -10.4575 C   0  0  0  0  0  0  0  0  0  0  0  0
   24.8364  -20.8532  -13.9787 C   0  0  0  0  0  0  0  0  0  0  0  0
   24.5713  -19.7577  -14.5253 O   0  0  0  0  0  0  0  0  0  0  0  0
   23.7463  -21.6716  -13.6145 N   0  0  0  0  0  0  0  0  0  0  0  0
   22.3375  -21.2844  -13.7730 C   0  0  1  0  0  0  0  0  0  0  0  0
   21.7401  -22.2723  -14.7074 C   0  0  0  0  0  0  0  0  0  0  0  0
   21.1615  -21.7904  -15.9740 C   0  0  0  0  0  0  0  0  0  0  0  0
   22.1077  -21.2550  -16.9330 C   0  0  0  0  0  0  0  0  0  0  0  0
   22.4380  -20.0765  -16.9982 O   0  0  0  0  0  0  0  0  0  0  0  0
   21.6550  -20.9361  -12.5551 C   0  0  0  0  0  0  0  0  0  0  0  0
   22.0075  -21.4129  -11.4461 O   0  0  0  0  0  0  0  0  0  0  0  0
   22.7028  -22.1579  -17.8723 O   0  0  0  0  0  0  0  0  0  0  0  0
   20.5808  -20.0526  -12.5540 O   0  0  0  0  0  0  0  0  0  0  0  0
  2  1  1  6
  2  3  1  0
  3  4  1  0
  5  6  2  0
  5  2  1  0
  7  5  1  0
  8  7  1  0
  8  9  1  1
  9 10  1  0
 10 11  2  0
 10 15  1  0
 11 12  1  0
 12 13  2  0
 14 13  1  0
 15 14  2  0
 16 17  2  0
 16  8  1  0
 18 16  1  0
 19 18  1  0
 19 20  1  1
 21 20  1  0
 22 21  1  0
 23 22  2  0
 24 19  1  0
 25 24  2  0
 26 22  1  0
 27 24  1  0
M  END
$$$$
