RIG.pdb
     RDKit          3D

 24 23  0  0  1  0  0  0  0  0999 V2000
    8.3638  -12.7388   18.1950 N   0  0  0  0  0  0  0  0  0  0  0  0
    7.6104  -13.7078   17.4883 C   0  0  0  0  0  0  0  0  0  0  0  0
    6.8528  -13.4110   16.5096 N   0  0  0  0  0  0  0  0  0  0  0  0
    7.7020  -15.0857   17.8902 N   0  0  0  0  0  0  0  0  0  0  0  0
    8.6324  -15.4692   18.8878 C   0  0  0  0  0  0  0  0  0  0  0  0
    8.6690  -14.5738   20.0589 C   0  0  0  0  0  0  0  0  0  0  0  0
    8.7130  -15.1855   21.3915 C   0  0  0  0  0  0  0  0  0  0  0  0
    9.9933  -15.3874   22.1038 C   0  0  2  0  0  0  0  0  0  0  0  0
   10.6470  -16.6188   21.7090 N   0  0  0  0  0  0  0  0  0  0  0  0
    9.6305  -15.4699   23.5824 C   0  0  0  0  0  0  0  0  0  0  0  0
   10.3394  -16.2059   24.3004 O   0  0  0  0  0  0  0  0  0  0  0  0
    6.3371  -14.1385   15.9809 C   0  0  0  0  0  0  0  0  0  0  0  0
    6.3883  -11.7439   27.4495 C   0  0  0  0  0  0  0  0  0  0  0  0
    7.5207  -12.6875   27.1625 C   0  0  2  0  0  0  0  0  0  0  0  0
    7.5611  -13.2226   25.7766 C   0  0  0  0  0  0  0  0  0  0  0  0
    6.1776  -13.7175   25.3804 C   0  0  2  0  0  0  0  0  0  0  0  0
    8.5251  -14.3470   25.5470 N   0  0  0  0  0  0  0  0  0  0  0  0
    8.5510  -14.7609   24.1391 C   0  0  0  0  0  0  0  0  0  0  0  0
    8.4013  -15.4917   26.4608 O   0  0  0  0  0  0  0  0  0  0  0  0
    8.5694  -15.3014   27.6976 N   0  0  0  0  0  0  0  0  0  0  0  0
    8.0974  -16.8096   26.0414 C   0  0  0  0  0  0  0  0  0  0  0  0
    7.8020  -17.9184   26.8857 C   0  0  0  0  0  0  0  0  0  0  0  0
    7.4549  -19.1768   26.2382 O   0  0  0  0  0  0  0  0  0  0  0  0
    7.3987  -19.4123   25.0142 O   0  0  0  0  0  0  0  0  0  0  0  0
  2  1  1  0
  2  3  2  0
  4  5  1  0
  4  2  1  0
  6  7  1  0
  6  5  1  0
  7  8  1  0
  8  9  1  6
 10  8  1  0
 10 17  1  0
 11 10  2  0
 13 12  1  0
 14 16  1  0
 14 13  1  0
 14 15  1  6
 16 17  1  1
 18 20  1  0
 18 16  1  0
 19 18  2  0
 21 22  1  0
 21 20  1  0
 22 24  1  0
 23 22  2  0
M  END
$$$$
