RIG.pdb
     RDKit          3D

 24 23  0  0  1  0  0  0  0  0999 V2000
    7.9419  -13.4994   14.4346 N   0  0  0  0  0  0  0  0  0  0  0  0
    8.3134  -13.7331   15.7811 C   0  0  0  0  0  0  0  0  0  0  0  0
    9.4080  -13.3128   16.2761 N   0  0  0  0  0  0  0  0  0  0  0  0
    7.4197  -14.4765   16.6280 N   0  0  0  0  0  0  0  0  0  0  0  0
    7.7427  -14.6739   17.9936 C   0  0  0  0  0  0  0  0  0  0  0  0
    7.4118  -13.5320   18.8659 C   0  0  0  0  0  0  0  0  0  0  0  0
    7.7398  -13.6378   20.2918 C   0  0  0  0  0  0  0  0  0  0  0  0
    7.8626  -14.9526   20.9577 C   0  0  2  0  0  0  0  0  0  0  0  0
    6.5757  -15.5942   21.1362 N   0  0  0  0  0  0  0  0  0  0  0  0
    8.4670  -14.6630   22.3272 C   0  0  0  0  0  0  0  0  0  0  0  0
    9.6114  -14.1633   22.3483 O   0  0  0  0  0  0  0  0  0  0  0  0
    9.6255  -13.4192   17.2842 C   0  0  0  0  0  0  0  0  0  0  0  0
    8.0051  -11.7140   27.1393 C   0  0  0  0  0  0  0  0  0  0  0  0
    8.1257  -13.1905   26.8929 C   0  0  2  0  0  0  0  0  0  0  0  0
    7.5360  -13.6676   25.6149 C   0  0  0  0  0  0  0  0  0  0  0  0
    6.1932  -14.3295   25.8886 C   0  0  2  0  0  0  0  0  0  0  0  0
    8.3713  -14.6442   24.8438 N   0  0  0  0  0  0  0  0  0  0  0  0
    7.7891  -14.9369   23.5287 C   0  0  0  0  0  0  0  0  0  0  0  0
    8.7566  -15.8655   25.5656 O   0  0  0  0  0  0  0  0  0  0  0  0
    7.8663  -16.7216   25.8275 N   0  0  0  0  0  0  0  0  0  0  0  0
   10.0775  -16.1515   25.9878 C   0  0  0  0  0  0  0  0  0  0  0  0
   10.5240  -17.3511   26.6133 C   0  0  0  0  0  0  0  0  0  0  0  0
   10.3606  -17.4517   28.0577 O   0  0  0  0  0  0  0  0  0  0  0  0
    9.8484  -16.6123   28.8256 O   0  0  0  0  0  0  0  0  0  0  0  0
  2  1  1  0
  2  3  2  0
  4  5  1  0
  4  2  1  0
  6  7  1  0
  6  5  1  0
  7  8  1  0
  8  9  1  1
 10  8  1  0
 10 17  1  0
 11 10  2  0
 13 12  1  0
 14 16  1  0
 14 13  1  0
 14 15  1  6
 16 17  1  1
 18 20  1  0
 18 16  1  0
 19 18  2  0
 21 22  1  0
 21 20  1  0
 22 24  1  0
 23 22  2  0
M  END
$$$$
