RIG.pdb
     RDKit          3D

 24 23  0  0  1  0  0  0  0  0999 V2000
    8.4511  -12.4623   18.0919 N   0  0  0  0  0  0  0  0  0  0  0  0
    8.3235  -13.6105   17.2726 C   0  0  0  0  0  0  0  0  0  0  0  0
    7.6186  -13.6252   16.2130 N   0  0  0  0  0  0  0  0  0  0  0  0
    9.0173  -14.8123   17.6502 N   0  0  0  0  0  0  0  0  0  0  0  0
    8.3378  -15.8197   18.3793 C   0  0  0  0  0  0  0  0  0  0  0  0
    7.6391  -15.3305   19.5822 C   0  0  0  0  0  0  0  0  0  0  0  0
    8.3940  -15.2676   20.8385 C   0  0  0  0  0  0  0  0  0  0  0  0
    8.0407  -16.1226   21.9923 C   0  0  2  0  0  0  0  0  0  0  0  0
    6.6076  -16.2867   22.1291 N   0  0  0  0  0  0  0  0  0  0  0  0
    8.5765  -15.3949   23.2203 C   0  0  0  0  0  0  0  0  0  0  0  0
    9.7298  -14.9222   23.1416 O   0  0  0  0  0  0  0  0  0  0  0  0
    7.5293  -14.4784   15.6309 C   0  0  0  0  0  0  0  0  0  0  0  0
    5.7204  -11.7433   25.8315 C   0  0  0  0  0  0  0  0  0  0  0  0
    6.8908  -12.5286   25.3132 C   0  0  2  0  0  0  0  0  0  0  0  0
    7.3454  -13.6381   26.1911 C   0  0  0  0  0  0  0  0  0  0  0  0
    7.9509  -13.0655   27.4645 C   0  0  2  0  0  0  0  0  0  0  0  0
    8.3570  -14.5650   25.5880 N   0  0  0  0  0  0  0  0  0  0  0  0
    7.8277  -15.2486   24.4019 C   0  0  0  0  0  0  0  0  0  0  0  0
    9.0082  -15.4952   26.5215 O   0  0  0  0  0  0  0  0  0  0  0  0
    9.6770  -15.0216   27.4820 N   0  0  0  0  0  0  0  0  0  0  0  0
    8.9304  -16.9052   26.4166 C   0  0  0  0  0  0  0  0  0  0  0  0
    9.4648  -17.8521   27.3371 C   0  0  0  0  0  0  0  0  0  0  0  0
   10.8950  -18.1207   27.2639 O   0  0  0  0  0  0  0  0  0  0  0  0
   11.7310  -17.5889   26.5056 O   0  0  0  0  0  0  0  0  0  0  0  0
  2  1  1  0
  2  3  2  0
  4  5  1  0
  4  2  1  0
  6  7  1  0
  6  5  1  0
  7  8  1  0
  8  9  1  1
 10  8  1  0
 10 17  1  0
 11 10  2  0
 13 12  1  0
 14 16  1  0
 14 13  1  0
 14 15  1  1
 16 17  1  6
 18 20  1  0
 18 16  1  0
 19 18  2  0
 21 22  1  0
 21 20  1  0
 22 24  1  0
 23 22  2  0
M  END
$$$$
