RIG.pdb
     RDKit          3D

 24 23  0  0  1  0  0  0  0  0999 V2000
    6.3587  -17.6323   14.2347 N   0  0  0  0  0  0  0  0  0  0  0  0
    7.3631  -18.0467   13.3262 C   0  0  0  0  0  0  0  0  0  0  0  0
    7.5203  -17.5108   12.1825 N   0  0  0  0  0  0  0  0  0  0  0  0
    8.2439  -19.1177   13.7076 N   0  0  0  0  0  0  0  0  0  0  0  0
    8.1187  -19.7121   14.9879 C   0  0  0  0  0  0  0  0  0  0  0  0
    9.0189  -19.1462   16.0095 C   0  0  0  0  0  0  0  0  0  0  0  0
    8.7250  -17.8013   16.5165 C   0  0  0  0  0  0  0  0  0  0  0  0
    9.7241  -16.7138   16.4377 C   0  0  2  0  0  0  0  0  0  0  0  0
   10.9953  -17.1793   15.9210 N   0  0  0  0  0  0  0  0  0  0  0  0
    9.9176  -16.2310   17.8709 C   0  0  0  0  0  0  0  0  0  0  0  0
   11.0572  -16.3621   18.3649 O   0  0  0  0  0  0  0  0  0  0  0  0
    8.1956  -17.8891   11.4928 C   0  0  0  0  0  0  0  0  0  0  0  0
    6.9541  -12.0421   19.4268 C   0  0  0  0  0  0  0  0  0  0  0  0
    8.2205  -12.8385   19.5583 C   0  0  2  0  0  0  0  0  0  0  0  0
    8.0991  -14.0921   20.3470 C   0  0  0  0  0  0  0  0  0  0  0  0
    8.2712  -13.7823   21.8270 C   0  0  2  0  0  0  0  0  0  0  0  0
    9.0766  -15.1725   19.9958 N   0  0  0  0  0  0  0  0  0  0  0  0
    8.8771  -15.6609   18.6261 C   0  0  0  0  0  0  0  0  0  0  0  0
    9.1916  -16.2706   20.9663 O   0  0  0  0  0  0  0  0  0  0  0  0
    8.1937  -17.0208   21.1544 N   0  0  0  0  0  0  0  0  0  0  0  0
   10.3638  -16.5494   21.7102 C   0  0  0  0  0  0  0  0  0  0  0  0
   10.5217  -17.5755   22.6858 C   0  0  0  0  0  0  0  0  0  0  0  0
   11.1034  -17.1952   23.9665 O   0  0  0  0  0  0  0  0  0  0  0  0
   11.6049  -16.0960   24.2778 O   0  0  0  0  0  0  0  0  0  0  0  0
  2  1  1  0
  2  3  2  0
  4  5  1  0
  4  2  1  0
  6  7  1  0
  6  5  1  0
  7  8  1  0
  8  9  1  1
 10  8  1  0
 10 17  1  0
 11 10  2  0
 13 12  1  0
 14 16  1  0
 14 13  1  0
 14 15  1  6
 16 17  1  1
 18 20  1  0
 18 16  1  0
 19 18  2  0
 21 22  1  0
 21 20  1  0
 22 24  1  0
 23 22  2  0
M  END
$$$$
