RIG.pdb
     RDKit          3D

 24 23  0  0  1  0  0  0  0  0999 V2000
    7.6802  -12.9189   16.7618 N   0  0  0  0  0  0  0  0  0  0  0  0
    8.2545  -14.0996   17.2928 C   0  0  0  0  0  0  0  0  0  0  0  0
    9.5036  -14.2229   17.5037 N   0  0  0  0  0  0  0  0  0  0  0  0
    7.3941  -15.2082   17.6078 N   0  0  0  0  0  0  0  0  0  0  0  0
    6.8819  -15.3527   18.9211 C   0  0  0  0  0  0  0  0  0  0  0  0
    7.6900  -16.2238   19.7944 C   0  0  0  0  0  0  0  0  0  0  0  0
    7.8248  -15.8481   21.2061 C   0  0  0  0  0  0  0  0  0  0  0  0
    8.8469  -14.8753   21.6493 C   0  0  2  0  0  0  0  0  0  0  0  0
   10.1668  -15.2094   21.1537 N   0  0  0  0  0  0  0  0  0  0  0  0
    8.8537  -14.9541   23.1719 C   0  0  0  0  0  0  0  0  0  0  0  0
    9.7890  -15.5887   23.7032 O   0  0  0  0  0  0  0  0  0  0  0  0
    9.9309  -15.1430   17.7174 C   0  0  0  0  0  0  0  0  0  0  0  0
    6.5186  -11.1077   27.4884 C   0  0  0  0  0  0  0  0  0  0  0  0
    7.3656  -12.2966   27.1361 C   0  0  2  0  0  0  0  0  0  0  0  0
    7.1579  -12.8367   25.7673 C   0  0  0  0  0  0  0  0  0  0  0  0
    5.7568  -13.4203   25.6565 C   0  0  2  0  0  0  0  0  0  0  0  0
    8.1242  -13.8994   25.3395 N   0  0  0  0  0  0  0  0  0  0  0  0
    7.8635  -14.3495   23.9670 C   0  0  0  0  0  0  0  0  0  0  0  0
    8.2912  -15.0241   26.2712 O   0  0  0  0  0  0  0  0  0  0  0  0
    8.6487  -14.7810   27.4575 N   0  0  0  0  0  0  0  0  0  0  0  0
    8.0702  -16.3788   25.9236 C   0  0  0  0  0  0  0  0  0  0  0  0
    8.0807  -17.4921   26.8126 C   0  0  0  0  0  0  0  0  0  0  0  0
    7.8229  -18.8067   26.2393 O   0  0  0  0  0  0  0  0  0  0  0  0
    7.6642  -19.0938   25.0355 O   0  0  0  0  0  0  0  0  0  0  0  0
  2  1  1  0
  2  3  2  0
  4  5  1  0
  4  2  1  0
  6  7  1  0
  6  5  1  0
  7  8  1  0
  8  9  1  6
 10  8  1  0
 10 17  1  0
 11 10  2  0
 13 12  1  0
 14 16  1  0
 14 13  1  0
 14 15  1  6
 16 17  1  1
 18 20  1  0
 18 16  1  0
 19 18  2  0
 21 22  1  0
 21 20  1  0
 22 24  1  0
 23 22  2  0
M  END
$$$$
