RIG.pdb
     RDKit          3D

 24 23  0  0  1  0  0  0  0  0999 V2000
    8.7909  -14.3047   18.6202 N   0  0  0  0  0  0  0  0  0  0  0  0
    7.5760  -13.6643   18.9664 C   0  0  0  0  0  0  0  0  0  0  0  0
    7.4508  -12.3982   19.0013 N   0  0  0  0  0  0  0  0  0  0  0  0
    6.4337  -14.4747   19.2934 N   0  0  0  0  0  0  0  0  0  0  0  0
    6.6202  -15.7749   19.8253 C   0  0  0  0  0  0  0  0  0  0  0  0
    7.0221  -15.7976   21.2439 C   0  0  0  0  0  0  0  0  0  0  0  0
    8.3792  -16.2512   21.5672 C   0  0  0  0  0  0  0  0  0  0  0  0
    9.4559  -15.2897   21.8887 C   0  0  2  0  0  0  0  0  0  0  0  0
   10.5791  -15.4074   20.9810 N   0  0  0  0  0  0  0  0  0  0  0  0
    9.9167  -15.6470   23.2975 C   0  0  0  0  0  0  0  0  0  0  0  0
   10.9755  -16.3014   23.3994 O   0  0  0  0  0  0  0  0  0  0  0  0
    6.5494  -11.9472   19.2439 C   0  0  0  0  0  0  0  0  0  0  0  0
    9.6209  -13.1817   28.9452 C   0  0  0  0  0  0  0  0  0  0  0  0
    9.9934  -14.3299   28.0518 C   0  0  2  0  0  0  0  0  0  0  0  0
    9.4237  -14.2735   26.6804 C   0  0  0  0  0  0  0  0  0  0  0  0
    7.9084  -14.1579   26.7618 C   0  0  2  0  0  0  0  0  0  0  0  0
    9.7399  -15.4457   25.8017 N   0  0  0  0  0  0  0  0  0  0  0  0
    9.2005  -15.2705   24.4479 C   0  0  0  0  0  0  0  0  0  0  0  0
    9.4215  -16.7676   26.3603 O   0  0  0  0  0  0  0  0  0  0  0  0
    8.2149  -17.0485   26.6038 N   0  0  0  0  0  0  0  0  0  0  0  0
   10.3899  -17.7613   26.6427 C   0  0  0  0  0  0  0  0  0  0  0  0
   10.1453  -19.0396   27.2220 C   0  0  0  0  0  0  0  0  0  0  0  0
   10.4713  -19.2069   28.6323 O   0  0  0  0  0  0  0  0  0  0  0  0
   10.9829  -18.3666   29.3997 O   0  0  0  0  0  0  0  0  0  0  0  0
  2  1  1  0
  2  3  2  0
  4  5  1  0
  4  2  1  0
  6  7  1  0
  6  5  1  0
  7  8  1  0
  8  9  1  6
 10  8  1  0
 10 17  1  0
 11 10  2  0
 13 12  1  0
 14 16  1  0
 14 13  1  0
 14 15  1  6
 16 17  1  1
 18 20  1  0
 18 16  1  0
 19 18  2  0
 21 22  1  0
 21 20  1  0
 22 24  1  0
 23 22  2  0
M  END
$$$$
