RIG.pdb
     RDKit          3D

 24 23  0  0  1  0  0  0  0  0999 V2000
    9.3912  -13.1906   16.2493 N   0  0  0  0  0  0  0  0  0  0  0  0
    8.1093  -13.7166   15.9561 C   0  0  0  0  0  0  0  0  0  0  0  0
    7.3935  -13.2896   14.9943 N   0  0  0  0  0  0  0  0  0  0  0  0
    7.5907  -14.7775   16.7773 N   0  0  0  0  0  0  0  0  0  0  0  0
    7.4009  -14.5664   18.1656 C   0  0  0  0  0  0  0  0  0  0  0  0
    8.5815  -14.0241   18.8632 C   0  0  0  0  0  0  0  0  0  0  0  0
    8.4894  -13.8176   20.3127 C   0  0  0  0  0  0  0  0  0  0  0  0
    8.3652  -14.9579   21.2462 C   0  0  2  0  0  0  0  0  0  0  0  0
    7.0993  -15.6469   21.0979 N   0  0  0  0  0  0  0  0  0  0  0  0
    8.4404  -14.3528   22.6437 C   0  0  0  0  0  0  0  0  0  0  0  0
    8.6446  -13.1231   22.7194 O   0  0  0  0  0  0  0  0  0  0  0  0
    6.5008  -13.7487   14.7350 C   0  0  0  0  0  0  0  0  0  0  0  0
    6.8831  -11.4729   26.8889 C   0  0  0  0  0  0  0  0  0  0  0  0
    7.7227  -12.7034   26.6989 C   0  0  2  0  0  0  0  0  0  0  0  0
    7.6366  -13.3247   25.3516 C   0  0  0  0  0  0  0  0  0  0  0  0
    6.1917  -13.6976   25.0533 C   0  0  2  0  0  0  0  0  0  0  0  0
    8.4699  -14.5546   25.1539 N   0  0  0  0  0  0  0  0  0  0  0  0
    8.2911  -15.1216   23.8120 C   0  0  0  0  0  0  0  0  0  0  0  0
    8.3637  -15.5747   26.2071 O   0  0  0  0  0  0  0  0  0  0  0  0
    7.2469  -15.7528   26.7685 N   0  0  0  0  0  0  0  0  0  0  0  0
    9.4433  -16.3844   26.6359 C   0  0  0  0  0  0  0  0  0  0  0  0
    9.3833  -17.4324   27.5991 C   0  0  0  0  0  0  0  0  0  0  0  0
   10.6247  -18.1327   27.9018 O   0  0  0  0  0  0  0  0  0  0  0  0
   11.7321  -17.9936   27.3441 O   0  0  0  0  0  0  0  0  0  0  0  0
  2  1  1  0
  2  3  2  0
  4  5  1  0
  4  2  1  0
  6  7  1  0
  6  5  1  0
  7  8  1  0
  8  9  1  1
 10  8  1  0
 10 17  1  0
 11 10  2  0
 13 12  1  0
 14 16  1  0
 14 13  1  0
 14 15  1  6
 16 17  1  1
 18 20  1  0
 18 16  1  0
 19 18  2  0
 21 22  1  0
 21 20  1  0
 22 24  1  0
 23 22  2  0
M  END
$$$$
