RIG.pdb
     RDKit          3D

 24 23  0  0  1  0  0  0  0  0999 V2000
    8.7851  -12.8792   17.3635 N   0  0  0  0  0  0  0  0  0  0  0  0
    9.7615  -13.4263   18.2314 C   0  0  0  0  0  0  0  0  0  0  0  0
   10.8922  -12.8765   18.4292 N   0  0  0  0  0  0  0  0  0  0  0  0
    9.4674  -14.6544   18.9197 N   0  0  0  0  0  0  0  0  0  0  0  0
    8.3275  -15.4127   18.5537 C   0  0  0  0  0  0  0  0  0  0  0  0
    7.4135  -15.7110   19.6717 C   0  0  0  0  0  0  0  0  0  0  0  0
    7.8195  -15.3011   21.0204 C   0  0  0  0  0  0  0  0  0  0  0  0
    6.9804  -15.6000   22.2010 C   0  0  2  0  0  0  0  0  0  0  0  0
    5.6417  -15.0621   22.0671 N   0  0  0  0  0  0  0  0  0  0  0  0
    7.6727  -14.9213   23.3777 C   0  0  0  0  0  0  0  0  0  0  0  0
    8.3737  -13.9195   23.1228 O   0  0  0  0  0  0  0  0  0  0  0  0
   11.5751  -13.2651   19.1055 C   0  0  0  0  0  0  0  0  0  0  0  0
    5.7290  -12.1752   26.4905 C   0  0  0  0  0  0  0  0  0  0  0  0
    6.9716  -12.7456   25.8694 C   0  0  2  0  0  0  0  0  0  0  0  0
    7.6016  -13.8591   26.6256 C   0  0  0  0  0  0  0  0  0  0  0  0
    8.5628  -13.2929   27.6608 C   0  0  2  0  0  0  0  0  0  0  0  0
    8.3622  -14.8512   25.7990 N   0  0  0  0  0  0  0  0  0  0  0  0
    7.5460  -15.3818   24.7006 C   0  0  0  0  0  0  0  0  0  0  0  0
    9.0468  -15.9153   26.5472 O   0  0  0  0  0  0  0  0  0  0  0  0
    8.3496  -16.7935   27.1277 N   0  0  0  0  0  0  0  0  0  0  0  0
   10.4541  -16.0251   26.6577 C   0  0  0  0  0  0  0  0  0  0  0  0
   11.1752  -17.1172   27.2208 C   0  0  0  0  0  0  0  0  0  0  0  0
   11.0899  -17.3004   28.6638 O   0  0  0  0  0  0  0  0  0  0  0  0
   10.4854  -16.5839   29.4872 O   0  0  0  0  0  0  0  0  0  0  0  0
  2  1  1  0
  2  3  2  0
  4  5  1  0
  4  2  1  0
  6  7  1  0
  6  5  1  0
  7  8  1  0
  8  9  1  6
 10  8  1  0
 10 17  1  0
 11 10  2  0
 13 12  1  0
 14 16  1  0
 14 13  1  0
 14 15  1  1
 16 17  1  6
 18 20  1  0
 18 16  1  0
 19 18  2  0
 21 22  1  0
 21 20  1  0
 22 24  1  0
 23 22  2  0
M  END
$$$$
