RIG.pdb
     RDKit          3D

 24 23  0  0  1  0  0  0  0  0999 V2000
    9.4105  -14.7811   16.3677 N   0  0  0  0  0  0  0  0  0  0  0  0
    8.2382  -13.9961   16.2426 C   0  0  0  0  0  0  0  0  0  0  0  0
    7.5679  -13.9271   15.1629 N   0  0  0  0  0  0  0  0  0  0  0  0
    7.7830  -13.2436   17.3806 N   0  0  0  0  0  0  0  0  0  0  0  0
    8.5368  -13.2537   18.5804 C   0  0  0  0  0  0  0  0  0  0  0  0
    8.2762  -14.4156   19.4502 C   0  0  0  0  0  0  0  0  0  0  0  0
    9.0264  -14.5162   20.7069 C   0  0  0  0  0  0  0  0  0  0  0  0
    8.7696  -15.6078   21.6712 C   0  0  2  0  0  0  0  0  0  0  0  0
    7.4233  -16.1306   21.5552 N   0  0  0  0  0  0  0  0  0  0  0  0
    8.9426  -14.9837   23.0515 C   0  0  0  0  0  0  0  0  0  0  0  0
   10.0672  -14.5145   23.3253 O   0  0  0  0  0  0  0  0  0  0  0  0
    6.7614  -13.2834   15.0636 C   0  0  0  0  0  0  0  0  0  0  0  0
    7.6784  -11.3244   26.5094 C   0  0  0  0  0  0  0  0  0  0  0  0
    6.9049  -12.5766   26.8071 C   0  0  2  0  0  0  0  0  0  0  0  0
    6.7799  -13.5268   25.6713 C   0  0  0  0  0  0  0  0  0  0  0  0
    5.7431  -14.5892   26.0069 C   0  0  2  0  0  0  0  0  0  0  0  0
    8.0415  -14.2353   25.2810 N   0  0  0  0  0  0  0  0  0  0  0  0
    7.9001  -14.9264   23.9939 C   0  0  0  0  0  0  0  0  0  0  0  0
    8.6358  -15.0975   26.3126 O   0  0  0  0  0  0  0  0  0  0  0  0
    8.9822  -14.5792   27.4105 N   0  0  0  0  0  0  0  0  0  0  0  0
    8.8437  -16.4895   26.1567 C   0  0  0  0  0  0  0  0  0  0  0  0
    9.2489  -17.4026   27.1725 C   0  0  0  0  0  0  0  0  0  0  0  0
   10.6804  -17.5750   27.3829 O   0  0  0  0  0  0  0  0  0  0  0  0
   11.6123  -17.0305   26.7570 O   0  0  0  0  0  0  0  0  0  0  0  0
  2  1  1  0
  2  3  2  0
  4  5  1  0
  4  2  1  0
  6  7  1  0
  6  5  1  0
  7  8  1  0
  8  9  1  1
 10  8  1  0
 10 17  1  0
 11 10  2  0
 13 12  1  0
 14 16  1  0
 14 13  1  0
 14 15  1  1
 16 17  1  1
 18 20  1  0
 18 16  1  0
 19 18  2  0
 21 22  1  0
 21 20  1  0
 22 24  1  0
 23 22  2  0
M  END
$$$$
