RIG.pdb
     RDKit          3D

 24 23  0  0  1  0  0  0  0  0999 V2000
    7.9825  -13.0908   17.0675 N   0  0  0  0  0  0  0  0  0  0  0  0
    7.6291  -14.2601   16.3507 C   0  0  0  0  0  0  0  0  0  0  0  0
    7.8232  -14.3851   15.0990 N   0  0  0  0  0  0  0  0  0  0  0  0
    7.0252  -15.3540   17.0627 N   0  0  0  0  0  0  0  0  0  0  0  0
    6.8725  -15.2813   18.4697 C   0  0  0  0  0  0  0  0  0  0  0  0
    8.1088  -14.9389   19.1968 C   0  0  0  0  0  0  0  0  0  0  0  0
    8.0263  -14.7669   20.6513 C   0  0  0  0  0  0  0  0  0  0  0  0
    8.3224  -13.4666   21.2906 C   0  0  2  0  0  0  0  0  0  0  0  0
    9.4859  -12.8274   20.7099 N   0  0  0  0  0  0  0  0  0  0  0  0
    8.6098  -13.7858   22.7536 C   0  0  0  0  0  0  0  0  0  0  0  0
    9.7874  -14.0775   23.0501 O   0  0  0  0  0  0  0  0  0  0  0  0
    7.5469  -15.2444   14.5890 C   0  0  0  0  0  0  0  0  0  0  0  0
    8.1643  -11.4192   27.5581 C   0  0  0  0  0  0  0  0  0  0  0  0
    7.1776  -12.5260   27.3197 C   0  0  2  0  0  0  0  0  0  0  0  0
    6.8868  -12.8161   25.8915 C   0  0  0  0  0  0  0  0  0  0  0  0
    5.5686  -13.5686   25.7821 C   0  0  2  0  0  0  0  0  0  0  0  0
    7.9265  -13.6207   25.1720 N   0  0  0  0  0  0  0  0  0  0  0  0
    7.6126  -13.7615   23.7451 C   0  0  0  0  0  0  0  0  0  0  0  0
    8.2832  -14.9049   25.7921 O   0  0  0  0  0  0  0  0  0  0  0  0
    8.6055  -14.9202   27.0127 N   0  0  0  0  0  0  0  0  0  0  0  0
    8.2847  -16.1424   25.1039 C   0  0  0  0  0  0  0  0  0  0  0  0
    8.4735  -17.4308   25.6818 C   0  0  0  0  0  0  0  0  0  0  0  0
    9.8232  -17.7821   26.1037 O   0  0  0  0  0  0  0  0  0  0  0  0
   10.5257  -17.2090   26.9609 O   0  0  0  0  0  0  0  0  0  0  0  0
  2  1  1  0
  2  3  2  0
  4  5  1  0
  4  2  1  0
  6  7  1  0
  6  5  1  0
  7  8  1  0
  8  9  1  6
 10  8  1  0
 10 17  1  0
 11 10  2  0
 13 12  1  0
 14 16  1  0
 14 13  1  0
 14 15  1  6
 16 17  1  1
 18 20  1  0
 18 16  1  0
 19 18  2  0
 21 22  1  0
 21 20  1  0
 22 24  1  0
 23 22  2  0
M  END
$$$$
