RIG.pdb
     RDKit          3D

 24 23  0  0  1  0  0  0  0  0999 V2000
    8.1821  -14.3628   15.4358 N   0  0  0  0  0  0  0  0  0  0  0  0
    8.0250  -14.1103   16.8205 C   0  0  0  0  0  0  0  0  0  0  0  0
    8.5594  -13.1130   17.4033 N   0  0  0  0  0  0  0  0  0  0  0  0
    7.2297  -15.0163   17.6048 N   0  0  0  0  0  0  0  0  0  0  0  0
    7.8606  -16.0353   18.3610 C   0  0  0  0  0  0  0  0  0  0  0  0
    8.5650  -15.5506   19.5623 C   0  0  0  0  0  0  0  0  0  0  0  0
    8.0778  -15.9964   20.8723 C   0  0  0  0  0  0  0  0  0  0  0  0
    7.1080  -15.1924   21.6471 C   0  0  2  0  0  0  0  0  0  0  0  0
    6.6476  -14.0345   20.9076 N   0  0  0  0  0  0  0  0  0  0  0  0
    7.8628  -14.7225   22.8857 C   0  0  0  0  0  0  0  0  0  0  0  0
    9.0762  -14.4619   22.7459 O   0  0  0  0  0  0  0  0  0  0  0  0
    8.5537  -13.0191   18.4358 C   0  0  0  0  0  0  0  0  0  0  0  0
    5.7003  -11.1767   26.2086 C   0  0  0  0  0  0  0  0  0  0  0  0
    6.7468  -11.9721   25.4824 C   0  0  2  0  0  0  0  0  0  0  0  0
    7.1953  -13.2076   26.1760 C   0  0  0  0  0  0  0  0  0  0  0  0
    8.0509  -12.8356   27.3784 C   0  0  2  0  0  0  0  0  0  0  0  0
    7.9865  -14.1664   25.3389 N   0  0  0  0  0  0  0  0  0  0  0  0
    7.2457  -14.5810   24.1416 C   0  0  0  0  0  0  0  0  0  0  0  0
    8.5699  -15.3097   26.0554 O   0  0  0  0  0  0  0  0  0  0  0  0
    7.8019  -16.0780   26.6989 N   0  0  0  0  0  0  0  0  0  0  0  0
    9.9528  -15.6134   26.0680 C   0  0  0  0  0  0  0  0  0  0  0  0
   10.5825  -16.6568   26.8060 C   0  0  0  0  0  0  0  0  0  0  0  0
   10.7449  -17.9420   26.1390 O   0  0  0  0  0  0  0  0  0  0  0  0
   10.0115  -18.4422   25.2623 O   0  0  0  0  0  0  0  0  0  0  0  0
  2  1  1  0
  2  3  2  0
  4  5  1  0
  4  2  1  0
  6  7  1  0
  6  5  1  0
  7  8  1  0
  8  9  1  6
 10  8  1  0
 10 17  1  0
 11 10  2  0
 13 12  1  0
 14 16  1  0
 14 13  1  0
 14 15  1  1
 16 17  1  6
 18 20  1  0
 18 16  1  0
 19 18  2  0
 21 22  1  0
 21 20  1  0
 22 24  1  0
 23 22  2  0
M  END
$$$$
