RIG.pdb
     RDKit          3D

 24 23  0  0  1  0  0  0  0  0999 V2000
    9.7402  -14.5669   16.9487 N   0  0  0  0  0  0  0  0  0  0  0  0
    8.7653  -13.8131   16.2506 C   0  0  0  0  0  0  0  0  0  0  0  0
    8.6437  -13.8498   14.9842 N   0  0  0  0  0  0  0  0  0  0  0  0
    7.8738  -12.9692   16.9999 N   0  0  0  0  0  0  0  0  0  0  0  0
    8.0436  -12.8308   18.4000 C   0  0  0  0  0  0  0  0  0  0  0  0
    7.5386  -13.9706   19.1875 C   0  0  0  0  0  0  0  0  0  0  0  0
    7.6474  -13.8993   20.6487 C   0  0  0  0  0  0  0  0  0  0  0  0
    8.0989  -15.0613   21.4444 C   0  0  2  0  0  0  0  0  0  0  0  0
    7.0690  -16.0737   21.5613 N   0  0  0  0  0  0  0  0  0  0  0  0
    8.4133  -14.5105   22.8310 C   0  0  0  0  0  0  0  0  0  0  0  0
    8.5102  -13.2702   22.9404 O   0  0  0  0  0  0  0  0  0  0  0  0
    7.8851  -13.3394   14.4955 C   0  0  0  0  0  0  0  0  0  0  0  0
    6.8863  -12.2244   27.4381 C   0  0  0  0  0  0  0  0  0  0  0  0
    7.9820  -13.1599   27.0145 C   0  0  2  0  0  0  0  0  0  0  0  0
    7.7552  -13.8529   25.7195 C   0  0  0  0  0  0  0  0  0  0  0  0
    6.4551  -14.6414   25.7840 C   0  0  2  0  0  0  0  0  0  0  0  0
    8.8367  -14.8003   25.2967 N   0  0  0  0  0  0  0  0  0  0  0  0
    8.5920  -15.3389   23.9535 C   0  0  0  0  0  0  0  0  0  0  0  0
    9.1786  -15.8530   26.2640 O   0  0  0  0  0  0  0  0  0  0  0  0
    8.3167  -16.7370   26.5282 N   0  0  0  0  0  0  0  0  0  0  0  0
   10.4278  -15.9455   26.9241 C   0  0  0  0  0  0  0  0  0  0  0  0
   11.0776  -17.1432   27.3398 C   0  0  0  0  0  0  0  0  0  0  0  0
   10.5622  -17.8030   28.5324 O   0  0  0  0  0  0  0  0  0  0  0  0
    9.5582  -17.4874   29.2026 O   0  0  0  0  0  0  0  0  0  0  0  0
  2  1  1  0
  2  3  2  0
  4  5  1  0
  4  2  1  0
  6  7  1  0
  6  5  1  0
  7  8  1  0
  8  9  1  1
 10  8  1  0
 10 17  1  0
 11 10  2  0
 13 12  1  0
 14 16  1  0
 14 13  1  0
 14 15  1  6
 16 17  1  1
 18 20  1  0
 18 16  1  0
 19 18  2  0
 21 22  1  0
 21 20  1  0
 22 24  1  0
 23 22  2  0
M  END
$$$$
