RIG.pdb
     RDKit          3D

 24 23  0  0  1  0  0  0  0  0999 V2000
    6.9275  -15.2869   16.7730 N   0  0  0  0  0  0  0  0  0  0  0  0
    7.9365  -14.3806   16.3649 C   0  0  0  0  0  0  0  0  0  0  0  0
    8.5861  -14.5171   15.2790 N   0  0  0  0  0  0  0  0  0  0  0  0
    8.2433  -13.2580   17.2099 N   0  0  0  0  0  0  0  0  0  0  0  0
    7.5132  -13.0562   18.4075 C   0  0  0  0  0  0  0  0  0  0  0  0
    7.4746  -14.2301   19.2991 C   0  0  0  0  0  0  0  0  0  0  0  0
    7.8549  -14.0403   20.7032 C   0  0  0  0  0  0  0  0  0  0  0  0
    8.2749  -15.1796   21.5475 C   0  0  2  0  0  0  0  0  0  0  0  0
    7.1848  -16.0999   21.8007 N   0  0  0  0  0  0  0  0  0  0  0  0
    8.7238  -14.5661   22.8691 C   0  0  0  0  0  0  0  0  0  0  0  0
    9.7581  -13.8664   22.8476 O   0  0  0  0  0  0  0  0  0  0  0  0
    9.4066  -13.9233   15.0576 C   0  0  0  0  0  0  0  0  0  0  0  0
    6.3440  -11.3285   27.2281 C   0  0  0  0  0  0  0  0  0  0  0  0
    7.4510  -12.2908   26.9061 C   0  0  2  0  0  0  0  0  0  0  0  0
    7.1699  -13.2245   25.7846 C   0  0  0  0  0  0  0  0  0  0  0  0
    6.0885  -14.2109   26.2011 C   0  0  2  0  0  0  0  0  0  0  0  0
    8.3430  -14.0202   25.2980 N   0  0  0  0  0  0  0  0  0  0  0  0
    8.0243  -14.7635   24.0732 C   0  0  0  0  0  0  0  0  0  0  0  0
    9.0047  -14.8635   26.3039 O   0  0  0  0  0  0  0  0  0  0  0  0
    9.3943  -14.3311   27.3804 N   0  0  0  0  0  0  0  0  0  0  0  0
    9.2330  -16.2520   26.1458 C   0  0  0  0  0  0  0  0  0  0  0  0
    9.7816  -17.1348   27.1201 C   0  0  0  0  0  0  0  0  0  0  0  0
    9.9351  -18.5337   26.7424 O   0  0  0  0  0  0  0  0  0  0  0  0
    9.6711  -19.0577   25.6413 O   0  0  0  0  0  0  0  0  0  0  0  0
  2  1  1  0
  2  3  2  0
  4  5  1  0
  4  2  1  0
  6  7  1  0
  6  5  1  0
  7  8  1  0
  8  9  1  1
 10  8  1  0
 10 17  1  0
 11 10  2  0
 13 12  1  0
 14 16  1  0
 14 13  1  0
 14 15  1  6
 16 17  1  1
 18 20  1  0
 18 16  1  0
 19 18  2  0
 21 22  1  0
 21 20  1  0
 22 24  1  0
 23 22  2  0
M  END
$$$$
