RIG.pdb
     RDKit          3D

 24 23  0  0  1  0  0  0  0  0999 V2000
    7.8883  -12.8762   17.9786 N   0  0  0  0  0  0  0  0  0  0  0  0
    7.7953  -13.6993   16.8298 C   0  0  0  0  0  0  0  0  0  0  0  0
    8.2116  -13.3322   15.6844 N   0  0  0  0  0  0  0  0  0  0  0  0
    7.2063  -15.0050   16.9581 N   0  0  0  0  0  0  0  0  0  0  0  0
    7.3140  -15.7102   18.1826 C   0  0  0  0  0  0  0  0  0  0  0  0
    8.6789  -15.7539   18.7389 C   0  0  0  0  0  0  0  0  0  0  0  0
    8.8729  -15.3042   20.1218 C   0  0  0  0  0  0  0  0  0  0  0  0
    8.7541  -16.2414   21.2597 C   0  0  2  0  0  0  0  0  0  0  0  0
    7.4178  -16.7894   21.3758 N   0  0  0  0  0  0  0  0  0  0  0  0
    9.0618  -15.4157   22.5039 C   0  0  0  0  0  0  0  0  0  0  0  0
   10.0310  -14.6306   22.4385 O   0  0  0  0  0  0  0  0  0  0  0  0
    8.0688  -13.9172   14.8406 C   0  0  0  0  0  0  0  0  0  0  0  0
    7.1296  -12.0681   27.0769 C   0  0  0  0  0  0  0  0  0  0  0  0
    8.1119  -13.1156   26.6373 C   0  0  2  0  0  0  0  0  0  0  0  0
    7.7415  -13.8485   25.3987 C   0  0  0  0  0  0  0  0  0  0  0  0
    6.4040  -14.5462   25.5995 C   0  0  2  0  0  0  0  0  0  0  0  0
    8.7256  -14.8826   24.9422 N   0  0  0  0  0  0  0  0  0  0  0  0
    8.3057  -15.5143   23.6857 C   0  0  0  0  0  0  0  0  0  0  0  0
    9.1299  -15.8703   25.9530 O   0  0  0  0  0  0  0  0  0  0  0  0
    8.3307  -16.8038   26.2427 N   0  0  0  0  0  0  0  0  0  0  0  0
   10.3741  -15.8468   26.6287 C   0  0  0  0  0  0  0  0  0  0  0  0
   10.9127  -16.8833   27.4445 C   0  0  0  0  0  0  0  0  0  0  0  0
   10.2980  -17.0939   28.7487 O   0  0  0  0  0  0  0  0  0  0  0  0
    9.2879  -16.5281   29.2139 O   0  0  0  0  0  0  0  0  0  0  0  0
  2  1  1  0
  2  3  2  0
  4  5  1  0
  4  2  1  0
  6  7  1  0
  6  5  1  0
  7  8  1  0
  8  9  1  1
 10  8  1  0
 10 17  1  0
 11 10  2  0
 13 12  1  0
 14 16  1  0
 14 13  1  0
 14 15  1  6
 16 17  1  1
 18 20  1  0
 18 16  1  0
 19 18  2  0
 21 22  1  0
 21 20  1  0
 22 24  1  0
 23 22  2  0
M  END
$$$$
