RIG.pdb
     RDKit          3D

 24 23  0  0  1  0  0  0  0  0999 V2000
    6.8741  -15.4630   16.1014 N   0  0  0  0  0  0  0  0  0  0  0  0
    7.7850  -14.3811   16.0256 C   0  0  0  0  0  0  0  0  0  0  0  0
    8.5922  -14.2277   15.0537 N   0  0  0  0  0  0  0  0  0  0  0  0
    7.8021  -13.4133   17.0894 N   0  0  0  0  0  0  0  0  0  0  0  0
    6.9683  -13.5940   18.2209 C   0  0  0  0  0  0  0  0  0  0  0  0
    7.2752  -14.7988   19.0138 C   0  0  0  0  0  0  0  0  0  0  0  0
    7.9722  -14.6217   20.2924 C   0  0  0  0  0  0  0  0  0  0  0  0
    8.1742  -13.2794   20.8795 C   0  0  2  0  0  0  0  0  0  0  0  0
    9.2259  -12.5441   20.2066 N   0  0  0  0  0  0  0  0  0  0  0  0
    8.5870  -13.5235   22.3268 C   0  0  0  0  0  0  0  0  0  0  0  0
    9.8116  -13.5596   22.5693 O   0  0  0  0  0  0  0  0  0  0  0  0
    9.2262  -13.4093   14.9971 C   0  0  0  0  0  0  0  0  0  0  0  0
    6.3106  -11.6314   27.6736 C   0  0  0  0  0  0  0  0  0  0  0  0
    7.2482  -12.5750   26.9766 C   0  0  2  0  0  0  0  0  0  0  0  0
    6.9525  -12.8125   25.5397 C   0  0  0  0  0  0  0  0  0  0  0  0
    5.6559  -13.5985   25.4089 C   0  0  2  0  0  0  0  0  0  0  0  0
    8.0084  -13.5544   24.7777 N   0  0  0  0  0  0  0  0  0  0  0  0
    7.6520  -13.7042   23.3619 C   0  0  0  0  0  0  0  0  0  0  0  0
    8.4571  -14.8204   25.3751 O   0  0  0  0  0  0  0  0  0  0  0  0
    8.8205  -14.8253   26.5842 N   0  0  0  0  0  0  0  0  0  0  0  0
    8.5049  -16.0514   24.6770 C   0  0  0  0  0  0  0  0  0  0  0  0
    8.7218  -17.3388   25.2474 C   0  0  0  0  0  0  0  0  0  0  0  0
   10.0500  -17.6193   25.7767 O   0  0  0  0  0  0  0  0  0  0  0  0
   11.0381  -16.8577   25.7951 O   0  0  0  0  0  0  0  0  0  0  0  0
  2  1  1  0
  2  3  2  0
  4  5  1  0
  4  2  1  0
  6  7  1  0
  6  5  1  0
  7  8  1  0
  8  9  1  6
 10  8  1  0
 10 17  1  0
 11 10  2  0
 13 12  1  0
 14 16  1  0
 14 13  1  0
 14 15  1  6
 16 17  1  1
 18 20  1  0
 18 16  1  0
 19 18  2  0
 21 22  1  0
 21 20  1  0
 22 24  1  0
 23 22  2  0
M  END
$$$$
