RIG.pdb
     RDKit          3D

 24 23  0  0  1  0  0  0  0  0999 V2000
   12.1746  -18.9538   17.6692 N   0  0  0  0  0  0  0  0  0  0  0  0
   12.7737  -20.2335   17.7655 C   0  0  0  0  0  0  0  0  0  0  0  0
   14.0324  -20.4109   17.7016 N   0  0  0  0  0  0  0  0  0  0  0  0
   11.9282  -21.3834   17.9425 N   0  0  0  0  0  0  0  0  0  0  0  0
   10.5549  -21.2093   18.2455 C   0  0  0  0  0  0  0  0  0  0  0  0
   10.2891  -20.2224   19.3084 C   0  0  0  0  0  0  0  0  0  0  0  0
    8.8913  -19.9496   19.6600 C   0  0  0  0  0  0  0  0  0  0  0  0
    8.1287  -18.8677   19.0002 C   0  0  2  0  0  0  0  0  0  0  0  0
    8.1475  -18.9912   17.5567 N   0  0  0  0  0  0  0  0  0  0  0  0
    8.8291  -17.5727   19.3968 C   0  0  0  0  0  0  0  0  0  0  0  0
    9.8176  -17.2303   18.7147 O   0  0  0  0  0  0  0  0  0  0  0  0
   14.4556  -21.3509   17.8123 C   0  0  0  0  0  0  0  0  0  0  0  0
    7.1898  -12.0457   19.9749 C   0  0  0  0  0  0  0  0  0  0  0  0
    8.2605  -13.0978   20.0185 C   0  0  2  0  0  0  0  0  0  0  0  0
    7.8491  -14.3929   20.6200 C   0  0  0  0  0  0  0  0  0  0  0  0
    7.3137  -14.1557   22.0247 C   0  0  2  0  0  0  0  0  0  0  0  0
    8.9264  -15.4303   20.7172 N   0  0  0  0  0  0  0  0  0  0  0  0
    8.4031  -16.7805   20.4781 C   0  0  0  0  0  0  0  0  0  0  0  0
    9.7693  -15.3656   21.9197 O   0  0  0  0  0  0  0  0  0  0  0  0
   10.4019  -14.2998   22.1604 N   0  0  0  0  0  0  0  0  0  0  0  0
    9.9172  -16.4312   22.8404 C   0  0  0  0  0  0  0  0  0  0  0  0
   10.6568  -16.4001   24.0577 C   0  0  0  0  0  0  0  0  0  0  0  0
   10.6067  -17.5881   24.8999 O   0  0  0  0  0  0  0  0  0  0  0  0
   10.0762  -18.6860   24.6357 O   0  0  0  0  0  0  0  0  0  0  0  0
  2  1  1  0
  2  3  2  0
  4  5  1  0
  4  2  1  0
  6  7  1  0
  6  5  1  0
  7  8  1  0
  8  9  1  6
 10  8  1  0
 10 17  1  0
 11 10  2  0
 13 12  1  0
 14 16  1  0
 14 13  1  0
 14 15  1  6
 16 17  1  1
 18 20  1  0
 18 16  1  0
 19 18  2  0
 21 22  1  0
 21 20  1  0
 22 24  1  0
 23 22  2  0
M  END
$$$$
