ETK.pdb
     RDKit          3D

 26 25  0  0  1  0  0  0  0  0999 V2000
   20.9196  -21.5252  -13.2242 N   0  0  0  0  0  0  0  0  0  0  0  0
   21.1410  -22.4816  -14.2550 C   0  0  1  0  0  0  0  0  0  0  0  0
   19.8882  -23.2777  -14.4847 C   0  0  0  0  0  0  0  0  0  0  0  0
   18.7340  -22.7756  -13.6775 C   0  0  0  0  0  0  0  0  0  0  0  0
   18.8272  -23.0565  -12.2330 C   0  0  0  0  0  0  0  0  0  0  0  0
   19.0319  -24.2123  -11.7890 O   0  0  0  0  0  0  0  0  0  0  0  0
   21.5405  -21.8727  -15.5466 C   0  0  0  0  0  0  0  0  0  0  0  0
   21.8021  -22.6367  -16.5115 O   0  0  0  0  0  0  0  0  0  0  0  0
   18.6855  -22.0160  -11.3305 O   0  0  0  0  0  0  0  0  0  0  0  0
   19.9132  -19.7943  -18.1004 C   0  0  0  0  0  0  0  0  0  0  0  0
   21.0887  -18.9617  -17.6155 C   0  0  1  0  0  0  0  0  0  0  0  0
   20.5766  -18.0884  -16.6571 O   0  0  0  0  0  0  0  0  0  0  0  0
   22.1014  -19.9108  -17.0247 C   0  0  2  0  0  0  0  0  0  0  0  0
   21.6485  -20.4767  -15.7689 N   0  0  0  0  0  0  0  0  0  0  0  0
   23.3696  -19.1686  -16.8137 C   0  0  0  0  0  0  0  0  0  0  0  0
   23.5907  -18.5866  -15.7258 O   0  0  0  0  0  0  0  0  0  0  0  0
   24.3804  -19.0774  -17.8064 N   0  0  0  0  0  0  0  0  0  0  0  0
   25.6495  -18.3671  -17.5710 C   0  0  1  0  0  0  0  0  0  0  0  0
   26.7136  -19.0305  -18.4086 C   0  0  0  0  0  0  0  0  0  0  0  0
   28.0588  -18.4051  -18.3326 C   0  0  0  0  0  0  0  0  0  0  0  0
   29.0949  -19.1398  -19.1586 C   0  0  0  0  0  0  0  0  0  0  0  0
   30.4314  -18.4382  -19.1181 C   0  0  0  0  0  0  0  0  0  0  0  0
   31.3018  -19.1551  -20.0381 N   0  0  0  0  0  0  0  0  0  0  0  0
   25.5038  -16.9336  -17.8457 C   0  0  0  0  0  0  0  0  0  0  0  0
   24.6692  -16.5275  -18.6680 O   0  0  0  0  0  0  0  0  0  0  0  0
   26.3062  -16.0279  -17.1799 O   0  0  0  0  0  0  0  0  0  0  0  0
  2  1  1  1
  2  7  1  0
  3  2  1  0
  4  3  1  0
  5  4  1  0
  6  5  2  0
  7  8  2  0
  9  5  1  0
 11 12  1  0
 11 10  1  1
 13 11  1  0
 14  7  1  0
 13 14  1  1
 15 13  1  0
 15 16  2  0
 17 15  1  0
 18 17  1  0
 18 19  1  6
 20 19  1  0
 21 20  1  0
 22 21  1  0
 23 22  1  0
 24 18  1  0
 25 24  2  0
 26 24  1  0
M  END
$$$$
