ETK.pdb
     RDKit          3D

 26 25  0  0  1  0  0  0  0  0999 V2000
   26.6021  -21.2519   -9.9829 N   0  0  0  0  0  0  0  0  0  0  0  0
   25.4620  -20.9687  -10.7868 C   0  0  1  0  0  0  0  0  0  0  0  0
   24.5251  -20.0658  -10.0366 C   0  0  0  0  0  0  0  0  0  0  0  0
   23.3848  -20.8096   -9.4180 C   0  0  0  0  0  0  0  0  0  0  0  0
   22.2348  -21.0259  -10.3153 C   0  0  0  0  0  0  0  0  0  0  0  0
   22.2540  -20.6795  -11.5213 O   0  0  0  0  0  0  0  0  0  0  0  0
   25.7977  -20.3135  -12.0739 C   0  0  0  0  0  0  0  0  0  0  0  0
   26.5280  -19.2892  -12.0501 O   0  0  0  0  0  0  0  0  0  0  0  0
   21.0926  -21.6305   -9.8181 O   0  0  0  0  0  0  0  0  0  0  0  0
   27.9163  -21.2280  -14.5878 C   0  0  0  0  0  0  0  0  0  0  0  0
   26.6518  -21.0107  -15.4027 C   0  0  1  0  0  0  0  0  0  0  0  0
   26.1068  -22.2756  -15.6180 O   0  0  0  0  0  0  0  0  0  0  0  0
   25.7329  -20.1361  -14.5864 C   0  0  2  0  0  0  0  0  0  0  0  0
   25.3473  -20.7672  -13.3393 N   0  0  0  0  0  0  0  0  0  0  0  0
   24.5243  -19.8437  -15.3971 C   0  0  0  0  0  0  0  0  0  0  0  0
   23.4344  -20.4054  -15.1367 O   0  0  0  0  0  0  0  0  0  0  0  0
   24.5320  -18.9338  -16.4868 N   0  0  0  0  0  0  0  0  0  0  0  0
   23.3150  -18.6198  -17.2555 C   0  0  1  0  0  0  0  0  0  0  0  0
   23.5881  -17.3794  -18.0685 C   0  0  0  0  0  0  0  0  0  0  0  0
   22.4395  -16.8831  -18.8690 C   0  0  0  0  0  0  0  0  0  0  0  0
   22.7619  -15.6162  -19.6349 C   0  0  0  0  0  0  0  0  0  0  0  0
   21.5668  -15.1243  -20.4159 C   0  0  0  0  0  0  0  0  0  0  0  0
   22.0056  -13.9402  -21.1393 N   0  0  0  0  0  0  0  0  0  0  0  0
   22.9010  -19.7680  -18.0690 C   0  0  0  0  0  0  0  0  0  0  0  0
   23.7442  -20.5264  -18.5705 O   0  0  0  0  0  0  0  0  0  0  0  0
   21.5565  -20.0053  -18.2774 O   0  0  0  0  0  0  0  0  0  0  0  0
  2  1  1  1
  2  7  1  0
  3  2  1  0
  4  3  1  0
  5  4  1  0
  6  5  2  0
  7  8  2  0
  9  5  1  0
 11 12  1  0
 11 10  1  1
 13 11  1  0
 14  7  1  0
 13 14  1  1
 15 13  1  0
 15 16  2  0
 17 15  1  0
 18 17  1  0
 18 19  1  6
 20 19  1  0
 21 20  1  0
 22 21  1  0
 23 22  1  0
 24 18  1  0
 25 24  2  0
 26 24  1  0
M  END
$$$$
