ETK.pdb
     RDKit          3D

 26 25  0  0  1  0  0  0  0  0999 V2000
   26.2263  -13.7129  -19.5817 N   0  0  0  0  0  0  0  0  0  0  0  0
   25.3051  -14.7207  -19.9840 C   0  0  1  0  0  0  0  0  0  0  0  0
   25.9514  -15.6225  -20.9963 C   0  0  0  0  0  0  0  0  0  0  0  0
   26.4050  -14.8841  -22.2150 C   0  0  0  0  0  0  0  0  0  0  0  0
   27.0339  -15.7299  -23.2461 C   0  0  0  0  0  0  0  0  0  0  0  0
   27.2232  -16.9591  -23.0778 O   0  0  0  0  0  0  0  0  0  0  0  0
   24.8256  -15.5617  -18.8608 C   0  0  0  0  0  0  0  0  0  0  0  0
   25.6713  -15.9975  -18.0375 O   0  0  0  0  0  0  0  0  0  0  0  0
   27.4313  -15.1564  -24.4421 O   0  0  0  0  0  0  0  0  0  0  0  0
   22.8405  -14.4624  -16.2892 C   0  0  0  0  0  0  0  0  0  0  0  0
   23.4003  -15.8726  -16.1988 C   0  0  1  0  0  0  0  0  0  0  0  0
   22.8222  -16.4479  -15.0682 O   0  0  0  0  0  0  0  0  0  0  0  0
   23.0046  -16.5976  -17.4610 C   0  0  2  0  0  0  0  0  0  0  0  0
   23.4675  -15.9103  -18.6508 N   0  0  0  0  0  0  0  0  0  0  0  0
   21.5249  -16.7119  -17.4897 C   0  0  0  0  0  0  0  0  0  0  0  0
   20.8189  -15.7309  -17.8222 O   0  0  0  0  0  0  0  0  0  0  0  0
   20.8402  -17.9086  -17.1511 N   0  0  0  0  0  0  0  0  0  0  0  0
   19.3758  -18.0313  -17.2556 C   0  0  1  0  0  0  0  0  0  0  0  0
   19.0578  -19.4483  -17.6620 C   0  0  0  0  0  0  0  0  0  0  0  0
   17.6149  -19.7400  -17.8605 C   0  0  0  0  0  0  0  0  0  0  0  0
   17.3642  -21.1486  -18.3588 C   0  0  0  0  0  0  0  0  0  0  0  0
   15.8895  -21.4127  -18.5480 C   0  0  0  0  0  0  0  0  0  0  0  0
   15.7831  -22.7061  -19.2066 N   0  0  0  0  0  0  0  0  0  0  0  0
   18.7276  -17.6267  -16.0036 C   0  0  0  0  0  0  0  0  0  0  0  0
   19.3692  -17.5820  -14.9434 O   0  0  0  0  0  0  0  0  0  0  0  0
   17.3876  -17.2923  -16.0078 O   0  0  0  0  0  0  0  0  0  0  0  0
  2  1  1  1
  2  7  1  0
  3  2  1  0
  4  3  1  0
  5  4  1  0
  6  5  2  0
  7  8  2  0
  9  5  1  0
 11 12  1  0
 11 10  1  6
 13 11  1  0
 14  7  1  0
 13 14  1  6
 15 13  1  0
 15 16  2  0
 17 15  1  0
 18 17  1  0
 18 19  1  1
 20 19  1  0
 21 20  1  0
 22 21  1  0
 23 22  1  0
 24 18  1  0
 25 24  2  0
 26 24  1  0
M  END
$$$$
