ETK.pdb
     RDKit          3D

 26 25  0  0  1  0  0  0  0  0999 V2000
   23.3524  -18.0781  -15.3373 N   0  0  0  0  0  0  0  0  0  0  0  0
   22.8063  -17.0106  -16.1042 C   0  0  1  0  0  0  0  0  0  0  0  0
   21.3111  -17.1409  -16.1608 C   0  0  0  0  0  0  0  0  0  0  0  0
   20.8711  -18.4554  -16.7217 C   0  0  0  0  0  0  0  0  0  0  0  0
   20.3642  -19.4111  -15.7198 C   0  0  0  0  0  0  0  0  0  0  0  0
   19.2794  -19.2321  -15.1147 O   0  0  0  0  0  0  0  0  0  0  0  0
   23.1293  -15.6697  -15.5597 C   0  0  0  0  0  0  0  0  0  0  0  0
   23.0268  -15.4883  -14.3189 O   0  0  0  0  0  0  0  0  0  0  0  0
   21.1038  -20.5456  -15.4317 O   0  0  0  0  0  0  0  0  0  0  0  0
   26.2377  -14.0776  -15.3483 C   0  0  0  0  0  0  0  0  0  0  0  0
   25.4179  -13.0086  -16.0521 C   0  0  1  0  0  0  0  0  0  0  0  0
   25.7232  -13.1156  -17.4081 O   0  0  0  0  0  0  0  0  0  0  0  0
   23.9636  -13.3025  -15.7802 C   0  0  2  0  0  0  0  0  0  0  0  0
   23.5491  -14.5699  -16.3497 N   0  0  0  0  0  0  0  0  0  0  0  0
   23.1494  -12.2024  -16.3550 C   0  0  0  0  0  0  0  0  0  0  0  0
   22.5052  -12.3773  -17.4160 O   0  0  0  0  0  0  0  0  0  0  0  0
   23.0549  -10.9207  -15.7518 N   0  0  0  0  0  0  0  0  0  0  0  0
   22.2362   -9.8403  -16.3288 C   0  0  1  0  0  0  0  0  0  0  0  0
   22.0856   -8.7645  -15.2829 C   0  0  0  0  0  0  0  0  0  0  0  0
   21.3805   -7.5378  -15.7352 C   0  0  0  0  0  0  0  0  0  0  0  0
   21.4198   -6.4257  -14.7070 C   0  0  0  0  0  0  0  0  0  0  0  0
   20.7271   -5.1826  -15.2121 C   0  0  0  0  0  0  0  0  0  0  0  0
   20.9101   -4.1637  -14.1891 N   0  0  0  0  0  0  0  0  0  0  0  0
   22.8226   -9.3539  -17.5822 C   0  0  0  0  0  0  0  0  0  0  0  0
   22.0991   -9.0036  -18.5264 O   0  0  0  0  0  0  0  0  0  0  0  0
   24.1961   -9.2862  -17.7101 O   0  0  0  0  0  0  0  0  0  0  0  0
  2  1  1  1
  2  7  1  0
  3  2  1  0
  4  3  1  0
  5  4  1  0
  6  5  2  0
  7  8  2  0
  9  5  1  0
 11 12  1  0
 11 10  1  1
 13 11  1  0
 14  7  1  0
 13 14  1  6
 15 13  1  0
 15 16  2  0
 17 15  1  0
 18 17  1  0
 18 19  1  1
 20 19  1  0
 21 20  1  0
 22 21  1  0
 23 22  1  0
 24 18  1  0
 25 24  2  0
 26 24  1  0
M  END
$$$$
