ETK.pdb
     RDKit          3D

 26 25  0  0  1  0  0  0  0  0999 V2000
   18.6160   -8.9821  -16.2853 N   0  0  0  0  0  0  0  0  0  0  0  0
   18.9838   -9.9615  -15.3201 C   0  0  1  0  0  0  0  0  0  0  0  0
   20.2516  -10.6435  -15.7485 C   0  0  0  0  0  0  0  0  0  0  0  0
   20.2175  -11.0689  -17.1816 C   0  0  0  0  0  0  0  0  0  0  0  0
   19.5004  -12.3333  -17.4293 C   0  0  0  0  0  0  0  0  0  0  0  0
   19.0243  -13.0251  -16.4967 O   0  0  0  0  0  0  0  0  0  0  0  0
   19.2006   -9.3998  -13.9651 C   0  0  0  0  0  0  0  0  0  0  0  0
   19.5472  -10.1822  -13.0426 O   0  0  0  0  0  0  0  0  0  0  0  0
   19.3430  -12.7785  -18.7309 O   0  0  0  0  0  0  0  0  0  0  0  0
   21.4824   -6.7600  -12.7663 C   0  0  0  0  0  0  0  0  0  0  0  0
   20.1224   -6.3156  -12.2533 C   0  0  1  0  0  0  0  0  0  0  0  0
   19.6910   -5.3107  -13.1178 O   0  0  0  0  0  0  0  0  0  0  0  0
   19.2108   -7.5168  -12.2910 C   0  0  2  0  0  0  0  0  0  0  0  0
   19.0424   -8.0298  -13.6366 N   0  0  0  0  0  0  0  0  0  0  0  0
   17.8927   -7.1205  -11.7351 C   0  0  0  0  0  0  0  0  0  0  0  0
   17.0060   -6.6444  -12.4823 O   0  0  0  0  0  0  0  0  0  0  0  0
   17.5675   -7.2544  -10.3596 N   0  0  0  0  0  0  0  0  0  0  0  0
   16.3722   -6.6257   -9.7711 C   0  0  1  0  0  0  0  0  0  0  0  0
   15.4224   -7.7250   -9.3669 C   0  0  0  0  0  0  0  0  0  0  0  0
   14.1346   -7.2657   -8.7862 C   0  0  0  0  0  0  0  0  0  0  0  0
   13.2144   -8.4121   -8.4193 C   0  0  0  0  0  0  0  0  0  0  0  0
   11.8981   -7.9105   -7.8755 C   0  0  0  0  0  0  0  0  0  0  0  0
   11.0660   -9.0851   -7.6605 N   0  0  0  0  0  0  0  0  0  0  0  0
   16.7412   -5.7398   -8.6618 C   0  0  0  0  0  0  0  0  0  0  0  0
   17.7987   -5.9125   -8.0376 O   0  0  0  0  0  0  0  0  0  0  0  0
   15.9000   -4.7024   -8.3101 O   0  0  0  0  0  0  0  0  0  0  0  0
  2  1  1  6
  2  7  1  0
  3  2  1  0
  4  3  1  0
  5  4  1  0
  6  5  2  0
  7  8  2  0
  9  5  1  0
 11 12  1  0
 11 10  1  6
 13 11  1  0
 14  7  1  0
 13 14  1  6
 15 13  1  0
 15 16  2  0
 17 15  1  0
 18 17  1  0
 18 19  1  1
 20 19  1  0
 21 20  1  0
 22 21  1  0
 23 22  1  0
 24 18  1  0
 25 24  2  0
 26 24  1  0
M  END
$$$$
