ETK.pdb
     RDKit          3D

 26 25  0  0  1  0  0  0  0  0999 V2000
   25.8420  -37.3075   -7.4824 N   0  0  0  0  0  0  0  0  0  0  0  0
   27.2167  -37.6762   -7.5021 C   0  0  1  0  0  0  0  0  0  0  0  0
   27.8333  -37.2625   -8.8076 C   0  0  0  0  0  0  0  0  0  0  0  0
   27.0710  -37.7724   -9.9887 C   0  0  0  0  0  0  0  0  0  0  0  0
   27.5398  -37.2597  -11.2893 C   0  0  0  0  0  0  0  0  0  0  0  0
   28.5436  -36.5133  -11.3907 O   0  0  0  0  0  0  0  0  0  0  0  0
   28.0062  -37.0625   -6.4073 C   0  0  0  0  0  0  0  0  0  0  0  0
   29.2334  -37.3303   -6.3332 O   0  0  0  0  0  0  0  0  0  0  0  0
   26.8554  -37.6090  -12.4411 O   0  0  0  0  0  0  0  0  0  0  0  0
   28.3526  -33.4237   -5.5961 C   0  0  0  0  0  0  0  0  0  0  0  0
   27.9742  -34.0816   -4.2792 C   0  0  1  0  0  0  0  0  0  0  0  0
   26.6116  -33.8447   -4.1044 O   0  0  0  0  0  0  0  0  0  0  0  0
   28.2750  -35.5542   -4.4070 C   0  0  2  0  0  0  0  0  0  0  0  0
   27.4670  -36.1876   -5.4308 N   0  0  0  0  0  0  0  0  0  0  0  0
   28.0198  -36.1987   -3.0943 C   0  0  0  0  0  0  0  0  0  0  0  0
   26.9571  -36.8327   -2.8947 O   0  0  0  0  0  0  0  0  0  0  0  0
   28.9412  -36.1365   -2.0160 N   0  0  0  0  0  0  0  0  0  0  0  0
   28.6258  -36.6771   -0.6823 C   0  0  1  0  0  0  0  0  0  0  0  0
   29.9100  -36.7445    0.1054 C   0  0  0  0  0  0  0  0  0  0  0  0
   29.7765  -37.2727    1.4873 C   0  0  0  0  0  0  0  0  0  0  0  0
   31.0516  -37.1345    2.2939 C   0  0  0  0  0  0  0  0  0  0  0  0
   30.8945  -37.7165    3.6784 C   0  0  0  0  0  0  0  0  0  0  0  0
   32.1807  -37.5587    4.3408 N   0  0  0  0  0  0  0  0  0  0  0  0
   27.5844  -35.8776   -0.0282 C   0  0  0  0  0  0  0  0  0  0  0  0
   27.6232  -34.6386   -0.0594 O   0  0  0  0  0  0  0  0  0  0  0  0
   26.5499  -36.5140    0.6294 O   0  0  0  0  0  0  0  0  0  0  0  0
  2  1  1  6
  2  7  1  0
  3  2  1  0
  4  3  1  0
  5  4  1  0
  6  5  2  0
  7  8  2  0
  9  5  1  0
 11 12  1  0
 11 10  1  6
 13 11  1  0
 14  7  1  0
 13 14  1  6
 15 13  1  0
 15 16  2  0
 17 15  1  0
 18 17  1  0
 18 19  1  1
 20 19  1  0
 21 20  1  0
 22 21  1  0
 23 22  1  0
 24 18  1  0
 25 24  2  0
 26 24  1  0
M  END
$$$$
