ETK.pdb
     RDKit          3D

 26 25  0  0  1  0  0  0  0  0999 V2000
   25.6891  -15.3371  -18.3117 N   0  0  0  0  0  0  0  0  0  0  0  0
   25.2579  -14.0549  -18.7544 C   0  0  1  0  0  0  0  0  0  0  0  0
   24.0448  -14.2022  -19.6276 C   0  0  0  0  0  0  0  0  0  0  0  0
   24.3857  -14.6594  -21.0099 C   0  0  0  0  0  0  0  0  0  0  0  0
   23.2272  -14.8091  -21.9097 C   0  0  0  0  0  0  0  0  0  0  0  0
   22.0494  -14.6211  -21.5193 O   0  0  0  0  0  0  0  0  0  0  0  0
   24.9145  -13.1339  -17.6442 C   0  0  0  0  0  0  0  0  0  0  0  0
   24.3952  -13.6181  -16.6055 O   0  0  0  0  0  0  0  0  0  0  0  0
   23.4377  -15.1686  -23.2302 O   0  0  0  0  0  0  0  0  0  0  0  0
   27.0027  -11.1662  -15.5540 C   0  0  0  0  0  0  0  0  0  0  0  0
   26.0124  -10.1234  -16.0459 C   0  0  1  0  0  0  0  0  0  0  0  0
   26.6631   -9.4163  -17.0559 O   0  0  0  0  0  0  0  0  0  0  0  0
   24.8029  -10.8590  -16.5668 C   0  0  2  0  0  0  0  0  0  0  0  0
   25.1338  -11.7336  -17.6749 N   0  0  0  0  0  0  0  0  0  0  0  0
   23.7972   -9.8568  -16.9998 C   0  0  0  0  0  0  0  0  0  0  0  0
   23.7733   -9.4536  -18.1864 O   0  0  0  0  0  0  0  0  0  0  0  0
   22.8281   -9.3104  -16.1177 N   0  0  0  0  0  0  0  0  0  0  0  0
   21.8827   -8.2633  -16.5420 C   0  0  1  0  0  0  0  0  0  0  0  0
   20.4897   -8.7342  -16.2079 C   0  0  0  0  0  0  0  0  0  0  0  0
   19.4087   -7.7520  -16.4786 C   0  0  0  0  0  0  0  0  0  0  0  0
   18.0414   -8.2551  -16.0628 C   0  0  0  0  0  0  0  0  0  0  0  0
   16.9571   -7.2683  -16.4245 C   0  0  0  0  0  0  0  0  0  0  0  0
   15.7231   -7.7817  -15.8487 N   0  0  0  0  0  0  0  0  0  0  0  0
   22.2226   -6.9743  -15.9298 C   0  0  0  0  0  0  0  0  0  0  0  0
   22.8970   -6.9246  -14.8904 O   0  0  0  0  0  0  0  0  0  0  0  0
   21.7855   -5.8043  -16.5193 O   0  0  0  0  0  0  0  0  0  0  0  0
  2  1  1  1
  2  7  1  0
  3  2  1  0
  4  3  1  0
  5  4  1  0
  6  5  2  0
  7  8  2  0
  9  5  1  0
 11 12  1  0
 11 10  1  6
 13 11  1  0
 14  7  1  0
 13 14  1  6
 15 13  1  0
 15 16  2  0
 17 15  1  0
 18 17  1  0
 18 19  1  1
 20 19  1  0
 21 20  1  0
 22 21  1  0
 23 22  1  0
 24 18  1  0
 25 24  2  0
 26 24  1  0
M  END
$$$$
