ETK.pdb
     RDKit          3D

 26 25  0  0  1  0  0  0  0  0999 V2000
   22.3248  -15.2409  -19.4882 N   0  0  0  0  0  0  0  0  0  0  0  0
   22.4968  -15.5202  -18.1031 C   0  0  1  0  0  0  0  0  0  0  0  0
   21.1553  -15.6039  -17.4330 C   0  0  0  0  0  0  0  0  0  0  0  0
   20.3326  -16.7459  -17.9380 C   0  0  0  0  0  0  0  0  0  0  0  0
   19.0445  -16.9281  -17.2438 C   0  0  0  0  0  0  0  0  0  0  0  0
   18.2302  -17.8251  -17.5711 O   0  0  0  0  0  0  0  0  0  0  0  0
   23.2187  -16.7891  -17.8440 C   0  0  0  0  0  0  0  0  0  0  0  0
   23.3233  -17.6194  -18.7835 O   0  0  0  0  0  0  0  0  0  0  0  0
   18.7156  -16.0857  -16.1952 O   0  0  0  0  0  0  0  0  0  0  0  0
   26.7355  -17.0461  -16.5428 C   0  0  0  0  0  0  0  0  0  0  0  0
   25.9105  -17.9731  -15.6652 C   0  0  1  0  0  0  0  0  0  0  0  0
   25.6486  -17.2661  -14.4926 O   0  0  0  0  0  0  0  0  0  0  0  0
   24.6445  -18.2994  -16.4175 C   0  0  2  0  0  0  0  0  0  0  0  0
   23.8035  -17.1323  -16.5989 N   0  0  0  0  0  0  0  0  0  0  0  0
   23.9051  -19.3393  -15.6588 C   0  0  0  0  0  0  0  0  0  0  0  0
   22.7940  -19.0775  -15.1412 O   0  0  0  0  0  0  0  0  0  0  0  0
   24.4007  -20.6577  -15.4800 N   0  0  0  0  0  0  0  0  0  0  0  0
   23.7462  -21.6272  -14.5845 C   0  0  1  0  0  0  0  0  0  0  0  0
   24.4712  -22.9428  -14.7173 C   0  0  0  0  0  0  0  0  0  0  0  0
   23.9237  -24.0518  -13.8946 C   0  0  0  0  0  0  0  0  0  0  0  0
   22.9077  -24.8908  -14.6425 C   0  0  0  0  0  0  0  0  0  0  0  0
   22.4526  -26.0711  -13.8179 C   0  0  0  0  0  0  0  0  0  0  0  0
   21.3529  -26.6847  -14.5474 N   0  0  0  0  0  0  0  0  0  0  0  0
   23.7068  -21.1220  -13.2080 C   0  0  0  0  0  0  0  0  0  0  0  0
   24.6203  -20.4076  -12.7687 O   0  0  0  0  0  0  0  0  0  0  0  0
   22.6396  -21.4468  -12.3938 O   0  0  0  0  0  0  0  0  0  0  0  0
  2  1  1  6
  2  7  1  0
  3  2  1  0
  4  3  1  0
  5  4  1  0
  6  5  2  0
  7  8  2  0
  9  5  1  0
 11 12  1  0
 11 10  1  6
 13 11  1  0
 14  7  1  0
 13 14  1  1
 15 13  1  0
 15 16  2  0
 17 15  1  0
 18 17  1  0
 18 19  1  1
 20 19  1  0
 21 20  1  0
 22 21  1  0
 23 22  1  0
 24 18  1  0
 25 24  2  0
 26 24  1  0
M  END
$$$$
