ETK.pdb
     RDKit          3D

 26 25  0  0  1  0  0  0  0  0999 V2000
   19.7316  -10.9853  -16.5056 N   0  0  0  0  0  0  0  0  0  0  0  0
   18.7569  -10.0719  -16.0138 C   0  0  1  0  0  0  0  0  0  0  0  0
   17.3840  -10.6573  -16.1818 C   0  0  0  0  0  0  0  0  0  0  0  0
   17.0155  -10.8516  -17.6179 C   0  0  0  0  0  0  0  0  0  0  0  0
   15.7076  -11.4975  -17.8337 C   0  0  0  0  0  0  0  0  0  0  0  0
   15.2549  -11.7222  -18.9823 O   0  0  0  0  0  0  0  0  0  0  0  0
   18.9384   -9.7323  -14.5819 C   0  0  0  0  0  0  0  0  0  0  0  0
   19.2412  -10.6558  -13.7827 O   0  0  0  0  0  0  0  0  0  0  0  0
   14.9484  -11.8714  -16.7378 O   0  0  0  0  0  0  0  0  0  0  0  0
   21.4203   -7.8263  -13.0249 C   0  0  0  0  0  0  0  0  0  0  0  0
   20.1745   -7.1548  -12.4706 C   0  0  1  0  0  0  0  0  0  0  0  0
   19.9984   -5.9892  -13.2147 O   0  0  0  0  0  0  0  0  0  0  0  0
   19.0251   -8.1147  -12.6521 C   0  0  2  0  0  0  0  0  0  0  0  0
   18.7926   -8.4267  -14.0488 N   0  0  0  0  0  0  0  0  0  0  0  0
   17.8076   -7.5020  -12.0640 C   0  0  0  0  0  0  0  0  0  0  0  0
   17.0699   -6.7640  -12.7585 O   0  0  0  0  0  0  0  0  0  0  0  0
   17.4175   -7.7111  -10.7150 N   0  0  0  0  0  0  0  0  0  0  0  0
   16.3384   -6.9341  -10.0809 C   0  0  1  0  0  0  0  0  0  0  0  0
   15.2518   -7.8973   -9.6741 C   0  0  0  0  0  0  0  0  0  0  0  0
   14.0478   -7.2726   -9.0687 C   0  0  0  0  0  0  0  0  0  0  0  0
   12.9920   -8.2880   -8.6814 C   0  0  0  0  0  0  0  0  0  0  0  0
   11.7774   -7.6198   -8.0825 C   0  0  0  0  0  0  0  0  0  0  0  0
   10.8439   -8.6848   -7.7473 N   0  0  0  0  0  0  0  0  0  0  0  0
   16.8564   -6.1372   -8.9637 C   0  0  0  0  0  0  0  0  0  0  0  0
   16.1677   -5.2430   -8.4501 O   0  0  0  0  0  0  0  0  0  0  0  0
   18.1257   -6.3872   -8.4800 O   0  0  0  0  0  0  0  0  0  0  0  0
  2  1  1  1
  2  7  1  0
  3  2  1  0
  4  3  1  0
  5  4  1  0
  6  5  2  0
  7  8  2  0
  9  5  1  0
 11 12  1  0
 11 10  1  6
 13 11  1  0
 14  7  1  0
 13 14  1  6
 15 13  1  0
 15 16  2  0
 17 15  1  0
 18 17  1  0
 18 19  1  1
 20 19  1  0
 21 20  1  0
 22 21  1  0
 23 22  1  0
 24 18  1  0
 25 24  2  0
 26 24  1  0
M  END
$$$$
