ETK.pdb
     RDKit          3D

 26 25  0  0  1  0  0  0  0  0999 V2000
   20.1380  -13.7790  -17.8686 N   0  0  0  0  0  0  0  0  0  0  0  0
   19.2055  -13.4363  -16.8492 C   0  0  1  0  0  0  0  0  0  0  0  0
   19.0423  -14.5913  -15.9031 C   0  0  0  0  0  0  0  0  0  0  0  0
   19.9822  -15.7150  -16.2029 C   0  0  0  0  0  0  0  0  0  0  0  0
   19.8625  -16.8728  -15.2977 C   0  0  0  0  0  0  0  0  0  0  0  0
   18.9406  -17.7168  -15.4107 O   0  0  0  0  0  0  0  0  0  0  0  0
   19.6089  -12.2490  -16.0578 C   0  0  0  0  0  0  0  0  0  0  0  0
   18.8934  -11.9122  -15.0792 O   0  0  0  0  0  0  0  0  0  0  0  0
   20.7943  -17.0412  -14.2873 O   0  0  0  0  0  0  0  0  0  0  0  0
   22.9719  -11.3720  -14.4350 C   0  0  0  0  0  0  0  0  0  0  0  0
   22.5872  -10.1898  -15.3093 C   0  0  1  0  0  0  0  0  0  0  0  0
   23.3247  -10.3205  -16.4851 O   0  0  0  0  0  0  0  0  0  0  0  0
   21.1035  -10.2811  -15.5655 C   0  0  2  0  0  0  0  0  0  0  0  0
   20.7556  -11.4616  -16.3321 N   0  0  0  0  0  0  0  0  0  0  0  0
   20.6802   -9.0621  -16.2991 C   0  0  0  0  0  0  0  0  0  0  0  0
   20.5850   -9.0745  -17.5489 O   0  0  0  0  0  0  0  0  0  0  0  0
   20.3661   -7.8419  -15.6446 N   0  0  0  0  0  0  0  0  0  0  0  0
   20.0540   -6.6097  -16.3894 C   0  0  1  0  0  0  0  0  0  0  0  0
   18.5580   -6.4219  -16.3674 C   0  0  0  0  0  0  0  0  0  0  0  0
   18.0718   -5.1517  -16.9649 C   0  0  0  0  0  0  0  0  0  0  0  0
   16.5614   -5.0345  -16.9451 C   0  0  0  0  0  0  0  0  0  0  0  0
   16.1029   -3.7152  -17.5192 C   0  0  0  0  0  0  0  0  0  0  0  0
   14.6555   -3.6812  -17.3706 N   0  0  0  0  0  0  0  0  0  0  0  0
   20.7912   -5.4670  -15.8397 C   0  0  0  0  0  0  0  0  0  0  0  0
   21.2611   -5.5083  -14.6928 O   0  0  0  0  0  0  0  0  0  0  0  0
   20.9626   -4.3332  -16.6096 O   0  0  0  0  0  0  0  0  0  0  0  0
  2  1  1  6
  2  7  1  0
  3  2  1  0
  4  3  1  0
  5  4  1  0
  6  5  2  0
  7  8  2  0
  9  5  1  0
 11 12  1  0
 11 10  1  1
 13 11  1  0
 14  7  1  0
 13 14  1  6
 15 13  1  0
 15 16  2  0
 17 15  1  0
 18 17  1  0
 18 19  1  1
 20 19  1  0
 21 20  1  0
 22 21  1  0
 23 22  1  0
 24 18  1  0
 25 24  2  0
 26 24  1  0
M  END
$$$$
