WGW.pdb
     RDKit          3D

 33 36  0  0  1  0  0  0  0  0999 V2000
    8.7681  -17.5139   22.7059 N   0  0  0  0  0  0  0  0  0  0  0  0
    9.3685  -16.2214   22.7015 C   0  0  1  0  0  0  0  0  0  0  0  0
    8.4887  -15.0822   23.0854 C   0  0  0  0  0  0  0  0  0  0  0  0
    7.5705  -14.6022   22.0439 C   0  0  0  0  0  0  0  0  0  0  0  0
    6.2257  -14.9069   21.8897 C   0  0  0  0  0  0  0  0  0  0  0  0
    5.7270  -14.2928   20.8116 N   0  0  0  0  0  0  0  0  0  0  0  0
    6.7467  -13.5877   20.2634 C   0  0  0  0  0  0  0  0  0  0  0  0
    6.7491  -12.7706   19.1243 C   0  0  0  0  0  0  0  0  0  0  0  0
    7.9116  -12.1359   18.7448 C   0  0  0  0  0  0  0  0  0  0  0  0
    9.0725  -12.3117   19.4961 C   0  0  0  0  0  0  0  0  0  0  0  0
    9.0669  -13.1154   20.6153 C   0  0  0  0  0  0  0  0  0  0  0  0
    7.8933  -13.7609   21.0033 C   0  0  0  0  0  0  0  0  0  0  0  0
   10.6476  -16.2722   23.4532 C   0  0  0  0  0  0  0  0  0  0  0  0
   11.3587  -15.2634   23.5145 O   0  0  0  0  0  0  0  0  0  0  0  0
   11.0484  -17.4722   24.0968 N   0  0  0  0  0  0  0  0  0  0  0  0
   12.3980  -17.5188   24.6535 C   0  0  0  0  0  0  0  0  0  0  0  0
   12.3040  -17.2166   26.0836 C   0  0  0  0  0  0  0  0  0  0  0  0
   13.2955  -17.3528   26.8819 O   0  0  0  0  0  0  0  0  0  0  0  0
   11.1035  -16.7514   26.6808 N   0  0  0  0  0  0  0  0  0  0  0  0
   11.0304  -16.3501   28.0887 C   0  0  1  0  0  0  0  0  0  0  0  0
   10.2611  -15.0985   28.2511 C   0  0  0  0  0  0  0  0  0  0  0  0
    9.0009  -15.1004   27.4933 C   0  0  0  0  0  0  0  0  0  0  0  0
    8.2283  -16.2335   27.1711 C   0  0  0  0  0  0  0  0  0  0  0  0
    7.1790  -15.8607   26.4345 N   0  0  0  0  0  0  0  0  0  0  0  0
    7.1905  -14.5109   26.2323 C   0  0  0  0  0  0  0  0  0  0  0  0
    6.3315  -13.6631   25.5690 C   0  0  0  0  0  0  0  0  0  0  0  0
    6.5721  -12.3179   25.5433 C   0  0  0  0  0  0  0  0  0  0  0  0
    7.6804  -11.8243   26.1867 C   0  0  0  0  0  0  0  0  0  0  0  0
    8.5275  -12.6851   26.8428 C   0  0  0  0  0  0  0  0  0  0  0  0
    8.3165  -14.0648   26.8908 C   0  0  0  0  0  0  0  0  0  0  0  0
   10.5096  -17.4694   28.8579 C   0  0  0  0  0  0  0  0  0  0  0  0
   10.3321  -17.5224   30.0987 O   0  0  0  0  0  0  0  0  0  0  0  0
   10.1505  -18.6489   28.1737 O   0  0  0  0  0  0  0  0  0  0  0  0
  2  1  1  1
  2 13  1  0
  3  4  1  0
  3  2  1  0
  4  5  2  0
  6  5  1  0
  7  6  1  0
  8  7  2  0
  9  8  1  0
 10  9  2  0
 10 11  1  0
 11 12  2  0
 12  7  1  0
 12  4  1  0
 13 15  1  0
 14 13  2  0
 15 16  1  0
 17 18  2  0
 17 16  1  0
 19 17  1  0
 20 21  1  6
 20 19  1  0
 22 21  1  0
 23 22  2  0
 24 23  1  0
 25 24  1  0
 25 30  2  0
 26 25  1  0
 27 26  2  0
 27 28  1  0
 28 29  2  0
 29 30  1  0
 30 22  1  0
 31 20  1  0
 31 33  1  0
 32 31  2  0
M  END
$$$$
