WGW.pdb
     RDKit          3D

 33 36  0  0  1  0  0  0  0  0999 V2000
    5.7524  -17.9329   24.2067 N   0  0  0  0  0  0  0  0  0  0  0  0
    7.0917  -17.6420   23.8160 C   0  0  1  0  0  0  0  0  0  0  0  0
    7.9336  -16.9314   24.8188 C   0  0  0  0  0  0  0  0  0  0  0  0
    7.2451  -15.9208   25.6330 C   0  0  0  0  0  0  0  0  0  0  0  0
    6.1986  -16.1150   26.5231 C   0  0  0  0  0  0  0  0  0  0  0  0
    5.8232  -14.9518   27.0654 N   0  0  0  0  0  0  0  0  0  0  0  0
    6.6252  -13.9997   26.5290 C   0  0  0  0  0  0  0  0  0  0  0  0
    6.6446  -12.6183   26.7671 C   0  0  0  0  0  0  0  0  0  0  0  0
    7.5598  -11.8271   26.1076 C   0  0  0  0  0  0  0  0  0  0  0  0
    8.4565  -12.4068   25.2116 C   0  0  0  0  0  0  0  0  0  0  0  0
    8.4350  -13.7649   24.9798 C   0  0  0  0  0  0  0  0  0  0  0  0
    7.5102  -14.5701   25.6437 C   0  0  0  0  0  0  0  0  0  0  0  0
    7.7200  -18.8695   23.2663 C   0  0  0  0  0  0  0  0  0  0  0  0
    7.0043  -19.8017   22.8846 O   0  0  0  0  0  0  0  0  0  0  0  0
    9.1334  -18.9689   23.1801 N   0  0  0  0  0  0  0  0  0  0  0  0
    9.7036  -19.3534   21.8915 C   0  0  0  0  0  0  0  0  0  0  0  0
   10.6699  -18.3234   21.5034 C   0  0  0  0  0  0  0  0  0  0  0  0
   11.4125  -18.4330   20.4664 O   0  0  0  0  0  0  0  0  0  0  0  0
   10.8477  -17.1321   22.2539 N   0  0  0  0  0  0  0  0  0  0  0  0
   11.9818  -16.2290   22.0378 C   0  0  1  0  0  0  0  0  0  0  0  0
   11.5603  -14.9940   21.3436 C   0  0  0  0  0  0  0  0  0  0  0  0
   10.1252  -14.7133   21.4988 C   0  0  0  0  0  0  0  0  0  0  0  0
    9.2990  -15.1689   22.5449 C   0  0  0  0  0  0  0  0  0  0  0  0
    8.0461  -14.7597   22.3317 N   0  0  0  0  0  0  0  0  0  0  0  0
    7.9683  -14.0352   21.1776 C   0  0  0  0  0  0  0  0  0  0  0  0
    6.9225  -13.3947   20.5510 C   0  0  0  0  0  0  0  0  0  0  0  0
    7.1319  -12.7031   19.3909 C   0  0  0  0  0  0  0  0  0  0  0  0
    8.3974  -12.6558   18.8596 C   0  0  0  0  0  0  0  0  0  0  0  0
    9.4291  -13.3017   19.4977 C   0  0  0  0  0  0  0  0  0  0  0  0
    9.2551  -14.0190   20.6833 C   0  0  0  0  0  0  0  0  0  0  0  0
   12.6327  -15.9962   23.3177 C   0  0  0  0  0  0  0  0  0  0  0  0
   12.2427  -16.3732   24.4489 O   0  0  0  0  0  0  0  0  0  0  0  0
   13.8409  -15.2695   23.3374 O   0  0  0  0  0  0  0  0  0  0  0  0
  2  1  1  1
  2 13  1  0
  3  4  1  0
  3  2  1  0
  4  5  2  0
  6  5  1  0
  7  6  1  0
  8  7  2  0
  9  8  1  0
 10  9  2  0
 10 11  1  0
 11 12  2  0
 12  7  1  0
 12  4  1  0
 13 15  1  0
 14 13  2  0
 15 16  1  0
 17 18  2  0
 17 16  1  0
 19 17  1  0
 20 21  1  1
 20 19  1  0
 22 21  1  0
 23 22  2  0
 24 23  1  0
 25 24  1  0
 25 30  2  0
 26 25  1  0
 27 26  2  0
 27 28  1  0
 28 29  2  0
 29 30  1  0
 30 22  1  0
 31 20  1  0
 31 33  1  0
 32 31  2  0
M  END
$$$$
