WGW.pdb
     RDKit          3D

 33 36  0  0  1  0  0  0  0  0999 V2000
    9.8148  -16.3381   20.9571 N   0  0  0  0  0  0  0  0  0  0  0  0
    8.6752  -16.1644   21.7950 C   0  0  1  0  0  0  0  0  0  0  0  0
    7.3518  -16.1271   21.1120 C   0  0  0  0  0  0  0  0  0  0  0  0
    7.2901  -15.3345   19.8766 C   0  0  0  0  0  0  0  0  0  0  0  0
    6.8379  -15.7388   18.6287 C   0  0  0  0  0  0  0  0  0  0  0  0
    6.9519  -14.7425   17.7441 N   0  0  0  0  0  0  0  0  0  0  0  0
    7.4782  -13.6891   18.4154 C   0  0  0  0  0  0  0  0  0  0  0  0
    7.7907  -12.4050   17.9476 C   0  0  0  0  0  0  0  0  0  0  0  0
    8.3199  -11.4749   18.8155 C   0  0  0  0  0  0  0  0  0  0  0  0
    8.5387  -11.8187   20.1485 C   0  0  0  0  0  0  0  0  0  0  0  0
    8.2304  -13.0816   20.6053 C   0  0  0  0  0  0  0  0  0  0  0  0
    7.6956  -14.0271   19.7310 C   0  0  0  0  0  0  0  0  0  0  0  0
    8.7427  -17.1289   22.9213 C   0  0  0  0  0  0  0  0  0  0  0  0
    7.8053  -17.1953   23.7237 O   0  0  0  0  0  0  0  0  0  0  0  0
    9.8772  -17.9686   23.0731 N   0  0  0  0  0  0  0  0  0  0  0  0
    9.9551  -18.7822   24.2836 C   0  0  0  0  0  0  0  0  0  0  0  0
   10.6598  -18.0024   25.3036 C   0  0  0  0  0  0  0  0  0  0  0  0
   11.7891  -17.4415   25.0820 O   0  0  0  0  0  0  0  0  0  0  0  0
   10.1357  -17.8165   26.6093 N   0  0  0  0  0  0  0  0  0  0  0  0
   10.8623  -17.0844   27.6508 C   0  0  1  0  0  0  0  0  0  0  0  0
   10.4870  -15.6548   27.6635 C   0  0  0  0  0  0  0  0  0  0  0  0
    9.0319  -15.4460   27.6252 C   0  0  0  0  0  0  0  0  0  0  0  0
    8.0496  -16.4552   27.5908 C   0  0  0  0  0  0  0  0  0  0  0  0
    6.8401  -15.8952   27.5120 N   0  0  0  0  0  0  0  0  0  0  0  0
    6.9424  -14.5343   27.4914 C   0  0  0  0  0  0  0  0  0  0  0  0
    5.9994  -13.5320   27.4391 C   0  0  0  0  0  0  0  0  0  0  0  0
    6.3838  -12.2206   27.4583 C   0  0  0  0  0  0  0  0  0  0  0  0
    7.7211  -11.9167   27.5303 C   0  0  0  0  0  0  0  0  0  0  0  0
    8.6486  -12.9296   27.5807 C   0  0  0  0  0  0  0  0  0  0  0  0
    8.2956  -14.2807   27.5621 C   0  0  0  0  0  0  0  0  0  0  0  0
   10.6517  -17.7632   28.9200 C   0  0  0  0  0  0  0  0  0  0  0  0
    9.8977  -18.7406   29.1437 O   0  0  0  0  0  0  0  0  0  0  0  0
   11.3532  -17.3053   30.0542 O   0  0  0  0  0  0  0  0  0  0  0  0
  2  1  1  6
  2 13  1  0
  3  4  1  0
  3  2  1  0
  4  5  2  0
  6  5  1  0
  7  6  1  0
  8  7  2  0
  9  8  1  0
 10  9  2  0
 10 11  1  0
 11 12  2  0
 12  7  1  0
 12  4  1  0
 13 15  1  0
 14 13  2  0
 15 16  1  0
 17 18  2  0
 17 16  1  0
 19 17  1  0
 20 21  1  1
 20 19  1  0
 22 21  1  0
 23 22  2  0
 24 23  1  0
 25 24  1  0
 25 30  2  0
 26 25  1  0
 27 26  2  0
 27 28  1  0
 28 29  2  0
 29 30  1  0
 30 22  1  0
 31 20  1  0
 31 33  1  0
 32 31  2  0
M  END
$$$$
