WGW.pdb
     RDKit          3D

 33 36  0  0  1  0  0  0  0  0999 V2000
    8.0562  -17.3770   22.2715 N   0  0  0  0  0  0  0  0  0  0  0  0
    8.1085  -18.0889   21.0381 C   0  0  1  0  0  0  0  0  0  0  0  0
    7.5500  -17.3899   19.8469 C   0  0  0  0  0  0  0  0  0  0  0  0
    7.9874  -16.0006   19.6554 C   0  0  0  0  0  0  0  0  0  0  0  0
    8.5732  -15.4413   18.5288 C   0  0  0  0  0  0  0  0  0  0  0  0
    8.8491  -14.1496   18.7369 N   0  0  0  0  0  0  0  0  0  0  0  0
    8.4431  -13.8670   19.9989 C   0  0  0  0  0  0  0  0  0  0  0  0
    8.5037  -12.6547   20.7003 C   0  0  0  0  0  0  0  0  0  0  0  0
    8.0222  -12.5898   21.9896 C   0  0  0  0  0  0  0  0  0  0  0  0
    7.4797  -13.7283   22.5833 C   0  0  0  0  0  0  0  0  0  0  0  0
    7.4214  -14.9184   21.8913 C   0  0  0  0  0  0  0  0  0  0  0  0
    7.9083  -14.9899   20.5866 C   0  0  0  0  0  0  0  0  0  0  0  0
    9.4804  -18.6184   20.8351 C   0  0  0  0  0  0  0  0  0  0  0  0
    9.8096  -19.0474   19.7240 O   0  0  0  0  0  0  0  0  0  0  0  0
   10.4058  -18.6303   21.9113 N   0  0  0  0  0  0  0  0  0  0  0  0
   11.5422  -17.7161   21.8318 C   0  0  0  0  0  0  0  0  0  0  0  0
   11.5624  -16.9178   23.0597 C   0  0  0  0  0  0  0  0  0  0  0  0
   12.2643  -15.8536   23.1765 O   0  0  0  0  0  0  0  0  0  0  0  0
   10.8029  -17.2727   24.2048 N   0  0  0  0  0  0  0  0  0  0  0  0
   10.4677  -16.3072   25.2556 C   0  0  1  0  0  0  0  0  0  0  0  0
    9.9537  -15.0457   24.6817 C   0  0  0  0  0  0  0  0  0  0  0  0
    8.5600  -14.7715   25.0622 C   0  0  0  0  0  0  0  0  0  0  0  0
    7.5222  -15.7202   25.1510 C   0  0  0  0  0  0  0  0  0  0  0  0
    6.3835  -15.1035   25.4762 N   0  0  0  0  0  0  0  0  0  0  0  0
    6.5887  -13.7616   25.6185 C   0  0  0  0  0  0  0  0  0  0  0  0
    5.7498  -12.7241   25.9594 C   0  0  0  0  0  0  0  0  0  0  0  0
    6.2328  -11.4493   26.0576 C   0  0  0  0  0  0  0  0  0  0  0  0
    7.5640  -11.2178   25.8119 C   0  0  0  0  0  0  0  0  0  0  0  0
    8.3866  -12.2649   25.4718 C   0  0  0  0  0  0  0  0  0  0  0  0
    7.9307  -13.5802   25.3604 C   0  0  0  0  0  0  0  0  0  0  0  0
    9.5563  -16.9466   26.1918 C   0  0  0  0  0  0  0  0  0  0  0  0
    9.2441  -16.5500   27.3402 O   0  0  0  0  0  0  0  0  0  0  0  0
    8.9299  -18.1501   25.8077 O   0  0  0  0  0  0  0  0  0  0  0  0
  2  1  1  1
  2 13  1  0
  3  4  1  0
  3  2  1  0
  4  5  2  0
  6  5  1  0
  7  6  1  0
  8  7  2  0
  9  8  1  0
 10  9  2  0
 10 11  1  0
 11 12  2  0
 12  7  1  0
 12  4  1  0
 13 15  1  0
 14 13  2  0
 15 16  1  0
 17 18  2  0
 17 16  1  0
 19 17  1  0
 20 21  1  6
 20 19  1  0
 22 21  1  0
 23 22  2  0
 24 23  1  0
 25 24  1  0
 25 30  2  0
 26 25  1  0
 27 26  2  0
 27 28  1  0
 28 29  2  0
 29 30  1  0
 30 22  1  0
 31 20  1  0
 31 33  1  0
 32 31  2  0
M  END
$$$$
