WGW.pdb
     RDKit          3D

 33 36  0  0  1  0  0  0  0  0999 V2000
    9.5460  -17.1915   20.6677 N   0  0  0  0  0  0  0  0  0  0  0  0
    9.4647  -16.8306   22.0440 C   0  0  1  0  0  0  0  0  0  0  0  0
    8.1634  -16.2711   22.5052 C   0  0  0  0  0  0  0  0  0  0  0  0
    7.4984  -15.3464   21.5773 C   0  0  0  0  0  0  0  0  0  0  0  0
    6.1969  -15.4100   21.1006 C   0  0  0  0  0  0  0  0  0  0  0  0
    5.9568  -14.3994   20.2585 N   0  0  0  0  0  0  0  0  0  0  0  0
    7.1016  -13.6772   20.1866 C   0  0  0  0  0  0  0  0  0  0  0  0
    7.3748  -12.5181   19.4468 C   0  0  0  0  0  0  0  0  0  0  0  0
    8.6221  -11.9381   19.5270 C   0  0  0  0  0  0  0  0  0  0  0  0
    9.5987  -12.5080   20.3421 C   0  0  0  0  0  0  0  0  0  0  0  0
    9.3270  -13.6472   21.0681 C   0  0  0  0  0  0  0  0  0  0  0  0
    8.0668  -14.2389   20.9898 C   0  0  0  0  0  0  0  0  0  0  0  0
    9.9640  -17.9541   22.8760 C   0  0  0  0  0  0  0  0  0  0  0  0
   10.2419  -19.0324   22.3402 O   0  0  0  0  0  0  0  0  0  0  0  0
   10.1207  -17.7881   24.2770 N   0  0  0  0  0  0  0  0  0  0  0  0
   11.3717  -18.2493   24.8735 C   0  0  0  0  0  0  0  0  0  0  0  0
   11.6730  -17.3792   26.0125 C   0  0  0  0  0  0  0  0  0  0  0  0
   12.8712  -17.1098   26.3740 O   0  0  0  0  0  0  0  0  0  0  0  0
   10.6533  -16.7754   26.7934 N   0  0  0  0  0  0  0  0  0  0  0  0
   10.9181  -16.1778   28.1054 C   0  0  1  0  0  0  0  0  0  0  0  0
    9.9953  -15.0566   28.3811 C   0  0  0  0  0  0  0  0  0  0  0  0
    8.8030  -15.0736   27.5206 C   0  0  0  0  0  0  0  0  0  0  0  0
    7.9233  -16.1596   27.3432 C   0  0  0  0  0  0  0  0  0  0  0  0
    6.9839  -15.8294   26.4537 N   0  0  0  0  0  0  0  0  0  0  0  0
    7.1750  -14.5545   26.0055 C   0  0  0  0  0  0  0  0  0  0  0  0
    6.4767  -13.7670   25.1174 C   0  0  0  0  0  0  0  0  0  0  0  0
    6.8810  -12.4862   24.8644 C   0  0  0  0  0  0  0  0  0  0  0  0
    7.9914  -11.9962   25.5070 C   0  0  0  0  0  0  0  0  0  0  0  0
    8.6769  -12.7964   26.3894 C   0  0  0  0  0  0  0  0  0  0  0  0
    8.2960  -14.1096   26.6734 C   0  0  0  0  0  0  0  0  0  0  0  0
   10.8826  -17.2336   29.1055 C   0  0  0  0  0  0  0  0  0  0  0  0
   11.1846  -17.1414   30.3196 O   0  0  0  0  0  0  0  0  0  0  0  0
   10.4683  -18.5224   28.7110 O   0  0  0  0  0  0  0  0  0  0  0  0
  2  1  1  6
  2 13  1  0
  3  4  1  0
  3  2  1  0
  4  5  2  0
  6  5  1  0
  7  6  1  0
  8  7  2  0
  9  8  1  0
 10  9  2  0
 10 11  1  0
 11 12  2  0
 12  7  1  0
 12  4  1  0
 13 15  1  0
 14 13  2  0
 15 16  1  0
 17 18  2  0
 17 16  1  0
 19 17  1  0
 20 21  1  1
 20 19  1  0
 22 21  1  0
 23 22  2  0
 24 23  1  0
 25 24  1  0
 25 30  2  0
 26 25  1  0
 27 26  2  0
 27 28  1  0
 28 29  2  0
 29 30  1  0
 30 22  1  0
 31 20  1  0
 31 33  1  0
 32 31  2  0
M  END
$$$$
