WGW.pdb
     RDKit          3D

 33 36  0  0  1  0  0  0  0  0999 V2000
    5.6936  -18.4593   24.8437 N   0  0  0  0  0  0  0  0  0  0  0  0
    6.9183  -18.1692   24.1751 C   0  0  1  0  0  0  0  0  0  0  0  0
    8.1150  -17.9769   25.0412 C   0  0  0  0  0  0  0  0  0  0  0  0
    7.9274  -17.1067   26.2098 C   0  0  0  0  0  0  0  0  0  0  0  0
    7.3902  -17.4443   27.4438 C   0  0  0  0  0  0  0  0  0  0  0  0
    7.3660  -16.3786   28.2512 N   0  0  0  0  0  0  0  0  0  0  0  0
    7.8875  -15.3468   27.5436 C   0  0  0  0  0  0  0  0  0  0  0  0
    8.0881  -14.0151   27.9332 C   0  0  0  0  0  0  0  0  0  0  0  0
    8.6457  -13.1227   27.0437 C   0  0  0  0  0  0  0  0  0  0  0  0
    9.0048  -13.5519   25.7670 C   0  0  0  0  0  0  0  0  0  0  0  0
    8.8064  -14.8614   25.3872 C   0  0  0  0  0  0  0  0  0  0  0  0
    8.2416  -15.7685   26.2831 C   0  0  0  0  0  0  0  0  0  0  0  0
    7.1221  -19.1481   23.0779 C   0  0  0  0  0  0  0  0  0  0  0  0
    6.1478  -19.5557   22.4363 O   0  0  0  0  0  0  0  0  0  0  0  0
    8.4281  -19.6109   22.7696 N   0  0  0  0  0  0  0  0  0  0  0  0
    8.8771  -19.4856   21.3853 C   0  0  0  0  0  0  0  0  0  0  0  0
   10.0781  -18.6473   21.3774 C   0  0  0  0  0  0  0  0  0  0  0  0
   10.8922  -18.6216   20.3898 O   0  0  0  0  0  0  0  0  0  0  0  0
   10.4199  -17.8055   22.4677 N   0  0  0  0  0  0  0  0  0  0  0  0
   11.3522  -16.6827   22.3314 C   0  0  1  0  0  0  0  0  0  0  0  0
   10.9717  -15.8020   21.2070 C   0  0  0  0  0  0  0  0  0  0  0  0
    9.6910  -15.1143   21.4285 C   0  0  0  0  0  0  0  0  0  0  0  0
    8.8309  -15.2965   22.5294 C   0  0  0  0  0  0  0  0  0  0  0  0
    7.7399  -14.5435   22.3699 N   0  0  0  0  0  0  0  0  0  0  0  0
    7.8078  -13.8427   21.2007 C   0  0  0  0  0  0  0  0  0  0  0  0
    6.9574  -12.9340   20.6111 C   0  0  0  0  0  0  0  0  0  0  0  0
    7.2898  -12.3481   19.4219 C   0  0  0  0  0  0  0  0  0  0  0  0
    8.4815  -12.6776   18.8240 C   0  0  0  0  0  0  0  0  0  0  0  0
    9.3175  -13.5872   19.4261 C   0  0  0  0  0  0  0  0  0  0  0  0
    9.0130  -14.2076   20.6396 C   0  0  0  0  0  0  0  0  0  0  0  0
   11.4400  -16.0016   23.6137 C   0  0  0  0  0  0  0  0  0  0  0  0
   11.4868  -14.7644   23.8159 O   0  0  0  0  0  0  0  0  0  0  0  0
   11.4794  -16.7794   24.7892 O   0  0  0  0  0  0  0  0  0  0  0  0
  2  1  1  1
  2 13  1  0
  3  4  1  0
  3  2  1  0
  4  5  2  0
  6  5  1  0
  7  6  1  0
  8  7  2  0
  9  8  1  0
 10  9  2  0
 10 11  1  0
 11 12  2  0
 12  7  1  0
 12  4  1  0
 13 15  1  0
 14 13  2  0
 15 16  1  0
 17 18  2  0
 17 16  1  0
 19 17  1  0
 20 21  1  6
 20 19  1  0
 22 21  1  0
 23 22  2  0
 24 23  1  0
 25 24  1  0
 25 30  2  0
 26 25  1  0
 27 26  2  0
 27 28  1  0
 28 29  2  0
 29 30  1  0
 30 22  1  0
 31 20  1  0
 31 33  1  0
 32 31  2  0
M  END
$$$$
