WGW.pdb
     RDKit          3D

 33 36  0  0  1  0  0  0  0  0999 V2000
    9.7580  -17.2594   20.5014 N   0  0  0  0  0  0  0  0  0  0  0  0
    9.9089  -16.5749   21.7422 C   0  0  1  0  0  0  0  0  0  0  0  0
    8.6691  -16.3796   22.5447 C   0  0  0  0  0  0  0  0  0  0  0  0
    7.5836  -15.6467   21.8792 C   0  0  0  0  0  0  0  0  0  0  0  0
    6.2630  -16.0420   21.7210 C   0  0  0  0  0  0  0  0  0  0  0  0
    5.5749  -15.1161   21.0448 N   0  0  0  0  0  0  0  0  0  0  0  0
    6.4469  -14.1174   20.7626 C   0  0  0  0  0  0  0  0  0  0  0  0
    6.2273  -12.9151   20.0757 C   0  0  0  0  0  0  0  0  0  0  0  0
    7.2687  -12.0293   19.9049 C   0  0  0  0  0  0  0  0  0  0  0  0
    8.5287  -12.3362   20.4162 C   0  0  0  0  0  0  0  0  0  0  0  0
    8.7413  -13.5186   21.0909 C   0  0  0  0  0  0  0  0  0  0  0  0
    7.6911  -14.4191   21.2657 C   0  0  0  0  0  0  0  0  0  0  0  0
   11.0283  -17.1825   22.5047 C   0  0  0  0  0  0  0  0  0  0  0  0
   11.7998  -17.9628   21.9365 O   0  0  0  0  0  0  0  0  0  0  0  0
   11.2093  -16.8673   23.8769 N   0  0  0  0  0  0  0  0  0  0  0  0
   12.4086  -17.3817   24.5329 C   0  0  0  0  0  0  0  0  0  0  0  0
   12.3982  -16.9108   25.9198 C   0  0  0  0  0  0  0  0  0  0  0  0
   13.3546  -17.1532   26.7355 O   0  0  0  0  0  0  0  0  0  0  0  0
   11.3236  -16.1523   26.4528 N   0  0  0  0  0  0  0  0  0  0  0  0
   11.2721  -15.7434   27.8594 C   0  0  1  0  0  0  0  0  0  0  0  0
   10.4051  -14.5605   28.0434 C   0  0  0  0  0  0  0  0  0  0  0  0
    9.0638  -14.7406   27.4680 C   0  0  0  0  0  0  0  0  0  0  0  0
    8.3848  -15.9653   27.3138 C   0  0  0  0  0  0  0  0  0  0  0  0
    7.2129  -15.7504   26.7112 N   0  0  0  0  0  0  0  0  0  0  0  0
    7.0491  -14.4226   26.4410 C   0  0  0  0  0  0  0  0  0  0  0  0
    6.0220  -13.7120   25.8606 C   0  0  0  0  0  0  0  0  0  0  0  0
    6.1077  -12.3539   25.7335 C   0  0  0  0  0  0  0  0  0  0  0  0
    7.2301  -11.7087   26.1917 C   0  0  0  0  0  0  0  0  0  0  0  0
    8.2459  -12.4338   26.7673 C   0  0  0  0  0  0  0  0  0  0  0  0
    8.1961  -13.8217   26.9141 C   0  0  0  0  0  0  0  0  0  0  0  0
   10.8802  -16.8947   28.6574 C   0  0  0  0  0  0  0  0  0  0  0  0
   10.8206  -16.9681   29.9084 O   0  0  0  0  0  0  0  0  0  0  0  0
   10.5182  -18.0844   27.9925 O   0  0  0  0  0  0  0  0  0  0  0  0
  2  1  1  6
  2 13  1  0
  3  4  1  0
  3  2  1  0
  4  5  2  0
  6  5  1  0
  7  6  1  0
  8  7  2  0
  9  8  1  0
 10  9  2  0
 10 11  1  0
 11 12  2  0
 12  7  1  0
 12  4  1  0
 13 15  1  0
 14 13  2  0
 15 16  1  0
 17 18  2  0
 17 16  1  0
 19 17  1  0
 20 21  1  6
 20 19  1  0
 22 21  1  0
 23 22  2  0
 24 23  1  0
 25 24  1  0
 25 30  2  0
 26 25  1  0
 27 26  2  0
 27 28  1  0
 28 29  2  0
 29 30  1  0
 30 22  1  0
 31 20  1  0
 31 33  1  0
 32 31  2  0
M  END
$$$$
