WGW.pdb
     RDKit          3D

 33 36  0  0  1  0  0  0  0  0999 V2000
    7.8902  -17.0683   22.7117 N   0  0  0  0  0  0  0  0  0  0  0  0
    8.7682  -15.9812   22.9915 C   0  0  1  0  0  0  0  0  0  0  0  0
    8.8502  -15.5466   24.4141 C   0  0  0  0  0  0  0  0  0  0  0  0
    7.6125  -15.0047   24.9910 C   0  0  0  0  0  0  0  0  0  0  0  0
    6.5609  -15.7080   25.5608 C   0  0  0  0  0  0  0  0  0  0  0  0
    5.5990  -14.8695   25.9604 N   0  0  0  0  0  0  0  0  0  0  0  0
    6.0237  -13.6199   25.6513 C   0  0  0  0  0  0  0  0  0  0  0  0
    5.3884  -12.3885   25.8642 C   0  0  0  0  0  0  0  0  0  0  0  0
    6.0116  -11.2244   25.4705 C   0  0  0  0  0  0  0  0  0  0  0  0
    7.2661  -11.2821   24.8657 C   0  0  0  0  0  0  0  0  0  0  0  0
    7.8881  -12.4939   24.6580 C   0  0  0  0  0  0  0  0  0  0  0  0
    7.2614  -13.6751   25.0535 C   0  0  0  0  0  0  0  0  0  0  0  0
   10.0890  -16.2440   22.3669 C   0  0  0  0  0  0  0  0  0  0  0  0
   10.7181  -15.3109   21.8565 O   0  0  0  0  0  0  0  0  0  0  0  0
   10.6237  -17.5590   22.3578 N   0  0  0  0  0  0  0  0  0  0  0  0
   11.9921  -17.7256   21.8751 C   0  0  0  0  0  0  0  0  0  0  0  0
   12.8784  -17.7553   23.0409 C   0  0  0  0  0  0  0  0  0  0  0  0
   14.1538  -17.7176   22.9362 O   0  0  0  0  0  0  0  0  0  0  0  0
   12.3803  -17.8283   24.3677 N   0  0  0  0  0  0  0  0  0  0  0  0
   13.2601  -17.9821   25.5300 C   0  0  1  0  0  0  0  0  0  0  0  0
   13.0788  -16.8740   26.4913 C   0  0  0  0  0  0  0  0  0  0  0  0
   11.6985  -16.7684   26.9872 C   0  0  0  0  0  0  0  0  0  0  0  0
   10.7031  -17.7604   26.8880 C   0  0  0  0  0  0  0  0  0  0  0  0
    9.5614  -17.2970   27.4024 N   0  0  0  0  0  0  0  0  0  0  0  0
    9.7240  -16.0205   27.8573 C   0  0  0  0  0  0  0  0  0  0  0  0
    8.8666  -15.1381   28.4762 C   0  0  0  0  0  0  0  0  0  0  0  0
    9.3065  -13.9023   28.8600 C   0  0  0  0  0  0  0  0  0  0  0  0
   10.6128  -13.5531   28.6203 C   0  0  0  0  0  0  0  0  0  0  0  0
   11.4542  -14.4458   28.0006 C   0  0  0  0  0  0  0  0  0  0  0  0
   11.0423  -15.7164   27.5929 C   0  0  0  0  0  0  0  0  0  0  0  0
   13.0402  -19.3023   26.0998 C   0  0  0  0  0  0  0  0  0  0  0  0
   13.5809  -19.7892   27.1218 O   0  0  0  0  0  0  0  0  0  0  0  0
   12.1244  -20.1666   25.4653 O   0  0  0  0  0  0  0  0  0  0  0  0
  2  1  1  1
  2 13  1  0
  3  4  1  0
  3  2  1  0
  4  5  2  0
  6  5  1  0
  7  6  1  0
  8  7  2  0
  9  8  1  0
 10  9  2  0
 10 11  1  0
 11 12  2  0
 12  7  1  0
 12  4  1  0
 13 15  1  0
 14 13  2  0
 15 16  1  0
 17 18  2  0
 17 16  1  0
 19 17  1  0
 20 21  1  1
 20 19  1  0
 22 21  1  0
 23 22  2  0
 24 23  1  0
 25 24  1  0
 25 30  2  0
 26 25  1  0
 27 26  2  0
 27 28  1  0
 28 29  2  0
 29 30  1  0
 30 22  1  0
 31 20  1  0
 31 33  1  0
 32 31  2  0
M  END
$$$$
