WGW.pdb
     RDKit          3D

 33 36  0  0  1  0  0  0  0  0999 V2000
    8.0073  -17.5204   23.3745 N   0  0  0  0  0  0  0  0  0  0  0  0
    7.9366  -16.5437   22.3391 C   0  0  1  0  0  0  0  0  0  0  0  0
    7.2822  -15.2526   22.6915 C   0  0  0  0  0  0  0  0  0  0  0  0
    6.6140  -15.2086   23.9991 C   0  0  0  0  0  0  0  0  0  0  0  0
    5.8957  -16.2196   24.6213 C   0  0  0  0  0  0  0  0  0  0  0  0
    5.4201  -15.7998   25.7984 N   0  0  0  0  0  0  0  0  0  0  0  0
    5.8286  -14.5155   25.9435 C   0  0  0  0  0  0  0  0  0  0  0  0
    5.5998  -13.6255   27.0022 C   0  0  0  0  0  0  0  0  0  0  0  0
    6.1197  -12.3508   26.9439 C   0  0  0  0  0  0  0  0  0  0  0  0
    6.8676  -11.9591   25.8348 C   0  0  0  0  0  0  0  0  0  0  0  0
    7.0909  -12.8362   24.7958 C   0  0  0  0  0  0  0  0  0  0  0  0
    6.5661  -14.1270   24.8492 C   0  0  0  0  0  0  0  0  0  0  0  0
    9.2764  -16.3883   21.7190 C   0  0  0  0  0  0  0  0  0  0  0  0
    9.3740  -15.8709   20.6011 O   0  0  0  0  0  0  0  0  0  0  0  0
   10.4358  -16.8313   22.4078 N   0  0  0  0  0  0  0  0  0  0  0  0
   11.7282  -16.6005   21.7675 C   0  0  0  0  0  0  0  0  0  0  0  0
   12.6871  -16.2335   22.8121 C   0  0  0  0  0  0  0  0  0  0  0  0
   13.9374  -16.0893   22.5778 O   0  0  0  0  0  0  0  0  0  0  0  0
   12.2923  -16.0131   24.1573 N   0  0  0  0  0  0  0  0  0  0  0  0
   13.0533  -16.5366   25.2954 C   0  0  1  0  0  0  0  0  0  0  0  0
   12.2101  -17.3912   26.1578 C   0  0  0  0  0  0  0  0  0  0  0  0
   11.0432  -16.6798   26.7005 C   0  0  0  0  0  0  0  0  0  0  0  0
    9.7097  -17.1336   26.6761 C   0  0  0  0  0  0  0  0  0  0  0  0
    8.9150  -16.2057   27.2148 N   0  0  0  0  0  0  0  0  0  0  0  0
    9.6441  -15.1235   27.6147 C   0  0  0  0  0  0  0  0  0  0  0  0
    9.2936  -13.9430   28.2313 C   0  0  0  0  0  0  0  0  0  0  0  0
   10.2501  -13.0207   28.5514 C   0  0  0  0  0  0  0  0  0  0  0  0
   11.5632  -13.2868   28.2501 C   0  0  0  0  0  0  0  0  0  0  0  0
   11.8949  -14.4696   27.6337 C   0  0  0  0  0  0  0  0  0  0  0  0
   10.9470  -15.4359   27.2900 C   0  0  0  0  0  0  0  0  0  0  0  0
   14.2426  -17.2007   24.7851 C   0  0  0  0  0  0  0  0  0  0  0  0
   15.4325  -16.8180   24.8925 O   0  0  0  0  0  0  0  0  0  0  0  0
   14.0888  -18.4145   24.0842 O   0  0  0  0  0  0  0  0  0  0  0  0
  2  1  1  1
  2 13  1  0
  3  4  1  0
  3  2  1  0
  4  5  2  0
  6  5  1  0
  7  6  1  0
  8  7  2  0
  9  8  1  0
 10  9  2  0
 10 11  1  0
 11 12  2  0
 12  7  1  0
 12  4  1  0
 13 15  1  0
 14 13  2  0
 15 16  1  0
 17 18  2  0
 17 16  1  0
 19 17  1  0
 20 21  1  6
 20 19  1  0
 22 21  1  0
 23 22  2  0
 24 23  1  0
 25 24  1  0
 25 30  2  0
 26 25  1  0
 27 26  2  0
 27 28  1  0
 28 29  2  0
 29 30  1  0
 30 22  1  0
 31 20  1  0
 31 33  1  0
 32 31  2  0
M  END
$$$$
