WGW.pdb
     RDKit          3D

 33 36  0  0  1  0  0  0  0  0999 V2000
    9.9979  -16.1374   21.3566 N   0  0  0  0  0  0  0  0  0  0  0  0
    8.8623  -16.3360   22.1944 C   0  0  1  0  0  0  0  0  0  0  0  0
    7.5497  -16.4828   21.5052 C   0  0  0  0  0  0  0  0  0  0  0  0
    7.3193  -15.5834   20.3667 C   0  0  0  0  0  0  0  0  0  0  0  0
    6.7908  -15.9028   19.1242 C   0  0  0  0  0  0  0  0  0  0  0  0
    6.7505  -14.8203   18.3402 N   0  0  0  0  0  0  0  0  0  0  0  0
    7.2525  -13.7955   19.0718 C   0  0  0  0  0  0  0  0  0  0  0  0
    7.4242  -12.4508   18.7147 C   0  0  0  0  0  0  0  0  0  0  0  0
    7.9558  -11.5669   19.6282 C   0  0  0  0  0  0  0  0  0  0  0  0
    8.3168  -12.0173   20.8970 C   0  0  0  0  0  0  0  0  0  0  0  0
    8.1467  -13.3396   21.2450 C   0  0  0  0  0  0  0  0  0  0  0  0
    7.6101  -14.2386   20.3240 C   0  0  0  0  0  0  0  0  0  0  0  0
    9.1539  -17.4182   23.1677 C   0  0  0  0  0  0  0  0  0  0  0  0
    8.2369  -17.8865   23.8510 O   0  0  0  0  0  0  0  0  0  0  0  0
   10.4777  -17.9104   23.3102 N   0  0  0  0  0  0  0  0  0  0  0  0
   10.7948  -18.6440   24.5328 C   0  0  0  0  0  0  0  0  0  0  0  0
   11.2327  -17.6726   25.5378 C   0  0  0  0  0  0  0  0  0  0  0  0
   12.3412  -17.0390   25.4447 O   0  0  0  0  0  0  0  0  0  0  0  0
   10.4546  -17.3688   26.6852 N   0  0  0  0  0  0  0  0  0  0  0  0
   10.9342  -16.4792   27.7468 C   0  0  1  0  0  0  0  0  0  0  0  0
   10.4279  -15.1026   27.5636 C   0  0  0  0  0  0  0  0  0  0  0  0
    8.9678  -15.0487   27.3975 C   0  0  0  0  0  0  0  0  0  0  0  0
    8.0997  -16.1558   27.3233 C   0  0  0  0  0  0  0  0  0  0  0  0
    6.8509  -15.7282   27.1228 N   0  0  0  0  0  0  0  0  0  0  0  0
    6.8156  -14.3654   27.0560 C   0  0  0  0  0  0  0  0  0  0  0  0
    5.7835  -13.4696   26.8861 C   0  0  0  0  0  0  0  0  0  0  0  0
    6.0295  -12.1252   26.8841 C   0  0  0  0  0  0  0  0  0  0  0  0
    7.3178  -11.6807   27.0534 C   0  0  0  0  0  0  0  0  0  0  0  0
    8.3358  -12.5889   27.2205 C   0  0  0  0  0  0  0  0  0  0  0  0
    8.1249  -13.9694   27.2274 C   0  0  0  0  0  0  0  0  0  0  0  0
   10.5904  -17.0706   29.0306 C   0  0  0  0  0  0  0  0  0  0  0  0
   10.7882  -16.5835   30.1696 O   0  0  0  0  0  0  0  0  0  0  0  0
    9.9626  -18.3331   29.0449 O   0  0  0  0  0  0  0  0  0  0  0  0
  2  1  1  6
  2 13  1  0
  3  4  1  0
  3  2  1  0
  4  5  2  0
  6  5  1  0
  7  6  1  0
  8  7  2  0
  9  8  1  0
 10  9  2  0
 10 11  1  0
 11 12  2  0
 12  7  1  0
 12  4  1  0
 13 15  1  0
 14 13  2  0
 15 16  1  0
 17 18  2  0
 17 16  1  0
 19 17  1  0
 20 21  1  6
 20 19  1  0
 22 21  1  0
 23 22  2  0
 24 23  1  0
 25 24  1  0
 25 30  2  0
 26 25  1  0
 27 26  2  0
 27 28  1  0
 28 29  2  0
 29 30  1  0
 30 22  1  0
 31 20  1  0
 31 33  1  0
 32 31  2  0
M  END
$$$$
