WGW.pdb
     RDKit          3D

 33 36  0  0  1  0  0  0  0  0999 V2000
    8.9145  -17.7565   22.2621 N   0  0  0  0  0  0  0  0  0  0  0  0
    9.9902  -16.8729   21.9569 C   0  0  1  0  0  0  0  0  0  0  0  0
    9.6639  -15.4197   21.9263 C   0  0  0  0  0  0  0  0  0  0  0  0
    8.3403  -15.0710   21.3925 C   0  0  0  0  0  0  0  0  0  0  0  0
    7.1482  -15.7614   21.5577 C   0  0  0  0  0  0  0  0  0  0  0  0
    6.1560  -15.1446   20.9071 N   0  0  0  0  0  0  0  0  0  0  0  0
    6.7014  -14.0523   20.3183 C   0  0  0  0  0  0  0  0  0  0  0  0
    6.0883  -13.0723   19.5252 C   0  0  0  0  0  0  0  0  0  0  0  0
    6.8411  -12.0315   19.0267 C   0  0  0  0  0  0  0  0  0  0  0  0
    8.2030  -11.9627   19.3158 C   0  0  0  0  0  0  0  0  0  0  0  0
    8.8027  -12.9274   20.0958 C   0  0  0  0  0  0  0  0  0  0  0  0
    8.0457  -13.9834   20.6018 C   0  0  0  0  0  0  0  0  0  0  0  0
   11.1578  -17.2084   22.8099 C   0  0  0  0  0  0  0  0  0  0  0  0
   12.2180  -16.5912   22.6617 O   0  0  0  0  0  0  0  0  0  0  0  0
   11.0543  -18.2311   23.7889 N   0  0  0  0  0  0  0  0  0  0  0  0
   12.2355  -18.5049   24.6033 C   0  0  0  0  0  0  0  0  0  0  0  0
   12.1876  -17.6248   25.7731 C   0  0  0  0  0  0  0  0  0  0  0  0
   13.0263  -16.6746   25.9535 O   0  0  0  0  0  0  0  0  0  0  0  0
   11.2051  -17.7678   26.7873 N   0  0  0  0  0  0  0  0  0  0  0  0
   11.0296  -16.7802   27.8561 C   0  0  1  0  0  0  0  0  0  0  0  0
   10.6620  -15.4569   27.3097 C   0  0  0  0  0  0  0  0  0  0  0  0
    9.2297  -15.3468   26.9954 C   0  0  0  0  0  0  0  0  0  0  0  0
    8.3687  -16.4115   26.6642 C   0  0  0  0  0  0  0  0  0  0  0  0
    7.1524  -15.9315   26.3944 N   0  0  0  0  0  0  0  0  0  0  0  0
    7.1329  -14.5732   26.5263 C   0  0  0  0  0  0  0  0  0  0  0  0
    6.1314  -13.6394   26.3793 C   0  0  0  0  0  0  0  0  0  0  0  0
    6.3841  -12.3149   26.6028 C   0  0  0  0  0  0  0  0  0  0  0  0
    7.6483  -11.9288   26.9752 C   0  0  0  0  0  0  0  0  0  0  0  0
    8.6360  -12.8741   27.1161 C   0  0  0  0  0  0  0  0  0  0  0  0
    8.4174  -14.2358   26.8959 C   0  0  0  0  0  0  0  0  0  0  0  0
   10.0750  -17.3100   28.8174 C   0  0  0  0  0  0  0  0  0  0  0  0
    9.3245  -18.3050   28.6745 O   0  0  0  0  0  0  0  0  0  0  0  0
    9.9445  -16.6642   30.0641 O   0  0  0  0  0  0  0  0  0  0  0  0
  2  1  1  1
  2 13  1  0
  3  4  1  0
  3  2  1  0
  4  5  2  0
  6  5  1  0
  7  6  1  0
  8  7  2  0
  9  8  1  0
 10  9  2  0
 10 11  1  0
 11 12  2  0
 12  7  1  0
 12  4  1  0
 13 15  1  0
 14 13  2  0
 15 16  1  0
 17 18  2  0
 17 16  1  0
 19 17  1  0
 20 21  1  6
 20 19  1  0
 22 21  1  0
 23 22  2  0
 24 23  1  0
 25 24  1  0
 25 30  2  0
 26 25  1  0
 27 26  2  0
 27 28  1  0
 28 29  2  0
 29 30  1  0
 30 22  1  0
 31 20  1  0
 31 33  1  0
 32 31  2  0
M  END
$$$$
