WGW.pdb
     RDKit          3D

 33 36  0  0  1  0  0  0  0  0999 V2000
    8.9398  -16.5203   24.5492 N   0  0  0  0  0  0  0  0  0  0  0  0
    7.6287  -16.7174   25.0716 C   0  0  1  0  0  0  0  0  0  0  0  0
    6.4972  -16.3751   24.1650 C   0  0  0  0  0  0  0  0  0  0  0  0
    6.5228  -15.0233   23.5902 C   0  0  0  0  0  0  0  0  0  0  0  0
    6.6926  -14.6683   22.2597 C   0  0  0  0  0  0  0  0  0  0  0  0
    6.6765  -13.3380   22.1244 N   0  0  0  0  0  0  0  0  0  0  0  0
    6.4960  -12.8263   23.3666 C   0  0  0  0  0  0  0  0  0  0  0  0
    6.4032  -11.4868   23.7698 C   0  0  0  0  0  0  0  0  0  0  0  0
    6.2116  -11.1889   25.1014 C   0  0  0  0  0  0  0  0  0  0  0  0
    6.1115  -12.2206   26.0334 C   0  0  0  0  0  0  0  0  0  0  0  0
    6.2030  -13.5361   25.6339 C   0  0  0  0  0  0  0  0  0  0  0  0
    6.3980  -13.8432   24.2877 C   0  0  0  0  0  0  0  0  0  0  0  0
    7.5350  -18.0761   25.6623 C   0  0  0  0  0  0  0  0  0  0  0  0
    6.5058  -18.4117   26.2582 O   0  0  0  0  0  0  0  0  0  0  0  0
    8.6213  -18.9818   25.5415 N   0  0  0  0  0  0  0  0  0  0  0  0
    8.4951  -20.2764   26.2059 C   0  0  0  0  0  0  0  0  0  0  0  0
    9.5739  -20.3820   27.1910 C   0  0  0  0  0  0  0  0  0  0  0  0
    9.8543  -21.4787   27.7888 O   0  0  0  0  0  0  0  0  0  0  0  0
   10.3821  -19.2718   27.5492 N   0  0  0  0  0  0  0  0  0  0  0  0
   11.6518  -19.4228   28.2658 C   0  0  1  0  0  0  0  0  0  0  0  0
   12.4492  -18.1793   28.2136 C   0  0  0  0  0  0  0  0  0  0  0  0
   11.7168  -17.0096   28.7212 C   0  0  0  0  0  0  0  0  0  0  0  0
   11.4501  -16.7207   30.0740 C   0  0  0  0  0  0  0  0  0  0  0  0
   10.7214  -15.6047   30.1544 N   0  0  0  0  0  0  0  0  0  0  0  0
   10.4716  -15.1045   28.9094 C   0  0  0  0  0  0  0  0  0  0  0  0
    9.7959  -13.9857   28.4755 C   0  0  0  0  0  0  0  0  0  0  0  0
    9.7180  -13.7002   27.1412 C   0  0  0  0  0  0  0  0  0  0  0  0
   10.3217  -14.5430   26.2406 C   0  0  0  0  0  0  0  0  0  0  0  0
   10.9909  -15.6557   26.6911 C   0  0  0  0  0  0  0  0  0  0  0  0
   11.0917  -15.9817   28.0454 C   0  0  0  0  0  0  0  0  0  0  0  0
   11.3647  -19.8860   29.6146 C   0  0  0  0  0  0  0  0  0  0  0  0
   10.2391  -19.9945   30.1578 O   0  0  0  0  0  0  0  0  0  0  0  0
   12.4423  -20.2665   30.4406 O   0  0  0  0  0  0  0  0  0  0  0  0
  2  1  1  6
  2 13  1  0
  3  4  1  0
  3  2  1  0
  4  5  2  0
  6  5  1  0
  7  6  1  0
  8  7  2  0
  9  8  1  0
 10  9  2  0
 10 11  1  0
 11 12  2  0
 12  7  1  0
 12  4  1  0
 13 15  1  0
 14 13  2  0
 15 16  1  0
 17 18  2  0
 17 16  1  0
 19 17  1  0
 20 21  1  1
 20 19  1  0
 22 21  1  0
 23 22  2  0
 24 23  1  0
 25 24  1  0
 25 30  2  0
 26 25  1  0
 27 26  2  0
 27 28  1  0
 28 29  2  0
 29 30  1  0
 30 22  1  0
 31 20  1  0
 31 33  1  0
 32 31  2  0
M  END
$$$$
