VWA.pdb
     RDKit          3D

 27 28  0  0  1  0  0  0  0  0999 V2000
   15.3882  -32.0675   -5.7231 C   0  0  0  0  0  0  0  0  0  0  0  0
   15.8340  -31.3281   -6.9399 C   0  0  1  0  0  0  0  0  0  0  0  0
   15.0295  -31.5451   -8.1697 C   0  0  0  0  0  0  0  0  0  0  0  0
   16.0691  -29.8502   -6.7134 C   0  0  2  0  0  0  0  0  0  0  0  0
   16.7252  -29.2689   -7.9068 N   0  0  0  0  0  0  0  0  0  0  0  0
   16.9919  -29.5655   -5.5877 C   0  0  0  0  0  0  0  0  0  0  0  0
   18.2542  -29.5524   -5.7795 O   0  0  0  0  0  0  0  0  0  0  0  0
   16.6138  -29.2920   -4.2589 N   0  0  0  0  0  0  0  0  0  0  0  0
   17.6024  -28.9635   -3.2087 C   0  0  1  0  0  0  0  0  0  0  0  0
   17.2006  -27.6198   -2.7232 C   0  0  0  0  0  0  0  0  0  0  0  0
   17.3378  -26.4786   -3.6151 C   0  0  0  0  0  0  0  0  0  0  0  0
   18.4070  -26.1149   -4.4175 C   0  0  0  0  0  0  0  0  0  0  0  0
   18.0802  -24.9840   -5.0186 N   0  0  0  0  0  0  0  0  0  0  0  0
   16.8456  -24.5772   -4.6565 C   0  0  0  0  0  0  0  0  0  0  0  0
   16.0581  -23.4913   -5.0096 C   0  0  0  0  0  0  0  0  0  0  0  0
   14.7987  -23.3450   -4.4797 C   0  0  0  0  0  0  0  0  0  0  0  0
   14.2922  -24.2720   -3.5881 C   0  0  0  0  0  0  0  0  0  0  0  0
   15.0647  -25.3464   -3.2341 C   0  0  0  0  0  0  0  0  0  0  0  0
   16.3454  -25.5035   -3.7661 C   0  0  0  0  0  0  0  0  0  0  0  0
   17.6377  -29.9477   -2.1281 C   0  0  0  0  0  0  0  0  0  0  0  0
   16.5583  -30.1126   -1.4717 O   0  0  0  0  0  0  0  0  0  0  0  0
   19.8324  -32.5920   -0.5925 C   0  0  0  0  0  0  0  0  0  0  0  0
   18.6104  -31.7145   -0.6865 C   0  0  2  0  0  0  0  0  0  0  0  0
   18.7465  -30.7330   -1.7393 N   0  0  0  0  0  0  0  0  0  0  0  0
   18.3919  -31.0768    0.6365 C   0  0  0  0  0  0  0  0  0  0  0  0
   18.4936  -29.8407    0.8131 O   0  0  0  0  0  0  0  0  0  0  0  0
   18.0627  -31.8697    1.7231 O   0  0  0  0  0  0  0  0  0  0  0  0
  2  4  1  0
  2  1  1  1
  2  3  1  0
  4  5  1  6
  6  4  1  0
  6  7  2  0
  8  6  1  0
  9  8  1  0
  9 10  1  1
 11 19  1  0
 11 10  1  0
 12 11  2  0
 13 12  1  0
 13 14  1  0
 14 15  1  0
 14 19  2  0
 15 16  2  0
 16 17  1  0
 18 17  2  0
 19 18  1  0
 20 24  1  0
 20  9  1  0
 21 20  2  0
 23 22  1  1
 23 24  1  0
 23 25  1  0
 25 27  1  0
 26 25  2  0
M  END
$$$$
