VWA.pdb
     RDKit          3D

 27 28  0  0  1  0  0  0  0  0999 V2000
   28.8368  -17.4753  -14.3438 C   0  0  0  0  0  0  0  0  0  0  0  0
   27.9343  -18.4526  -13.6682 C   0  0  1  0  0  0  0  0  0  0  0  0
   27.1319  -19.3284  -14.5605 C   0  0  0  0  0  0  0  0  0  0  0  0
   28.6075  -19.2705  -12.5873 C   0  0  2  0  0  0  0  0  0  0  0  0
   29.6234  -20.1552  -13.2019 N   0  0  0  0  0  0  0  0  0  0  0  0
   27.6805  -20.1830  -11.8747 C   0  0  0  0  0  0  0  0  0  0  0  0
   27.7294  -21.4414  -12.0856 O   0  0  0  0  0  0  0  0  0  0  0  0
   26.6996  -19.7989  -10.9399 N   0  0  0  0  0  0  0  0  0  0  0  0
   25.7512  -20.7674  -10.3479 C   0  0  1  0  0  0  0  0  0  0  0  0
   25.3455  -20.1543   -9.0586 C   0  0  0  0  0  0  0  0  0  0  0  0
   26.3709  -19.5946   -8.1914 C   0  0  0  0  0  0  0  0  0  0  0  0
   26.9972  -18.3605   -8.2555 C   0  0  0  0  0  0  0  0  0  0  0  0
   27.8829  -18.3182   -7.2753 N   0  0  0  0  0  0  0  0  0  0  0  0
   27.8765  -19.4630   -6.5611 C   0  0  0  0  0  0  0  0  0  0  0  0
   28.5871  -19.8988   -5.4524 C   0  0  0  0  0  0  0  0  0  0  0  0
   28.3453  -21.1409   -4.9166 C   0  0  0  0  0  0  0  0  0  0  0  0
   27.3938  -21.9783   -5.4681 C   0  0  0  0  0  0  0  0  0  0  0  0
   26.6890  -21.5549   -6.5637 C   0  0  0  0  0  0  0  0  0  0  0  0
   26.9277  -20.2956   -7.1158 C   0  0  0  0  0  0  0  0  0  0  0  0
   24.6018  -21.0419  -11.2088 C   0  0  0  0  0  0  0  0  0  0  0  0
   24.0670  -20.0382  -11.7831 O   0  0  0  0  0  0  0  0  0  0  0  0
   22.7980  -23.8340  -12.9197 C   0  0  0  0  0  0  0  0  0  0  0  0
   22.9206  -22.4273  -12.3922 C   0  0  2  0  0  0  0  0  0  0  0  0
   24.0255  -22.3061  -11.4676 N   0  0  0  0  0  0  0  0  0  0  0  0
   21.6302  -22.0523  -11.7609 C   0  0  0  0  0  0  0  0  0  0  0  0
   21.5539  -21.6311  -10.5835 O   0  0  0  0  0  0  0  0  0  0  0  0
   20.4603  -22.1687  -12.4929 O   0  0  0  0  0  0  0  0  0  0  0  0
  2  4  1  0
  2  1  1  6
  2  3  1  0
  4  5  1  6
  6  4  1  0
  6  7  2  0
  8  6  1  0
  9  8  1  0
  9 10  1  1
 11 19  1  0
 11 10  1  0
 12 11  2  0
 13 12  1  0
 13 14  1  0
 14 15  1  0
 14 19  2  0
 15 16  2  0
 16 17  1  0
 18 17  2  0
 19 18  1  0
 20 24  1  0
 20  9  1  0
 21 20  2  0
 23 22  1  1
 23 24  1  0
 23 25  1  0
 25 27  1  0
 26 25  2  0
M  END
$$$$
