VWA.pdb
     RDKit          3D

 27 28  0  0  1  0  0  0  0  0999 V2000
   17.0335  -28.6914   -5.4191 C   0  0  0  0  0  0  0  0  0  0  0  0
   16.9884  -27.3319   -6.0323 C   0  0  1  0  0  0  0  0  0  0  0  0
   15.6386  -26.8072   -6.3636 C   0  0  0  0  0  0  0  0  0  0  0  0
   17.7943  -26.2905   -5.2863 C   0  0  2  0  0  0  0  0  0  0  0  0
   17.1458  -26.0068   -3.9857 N   0  0  0  0  0  0  0  0  0  0  0  0
   17.8546  -24.9819   -5.9818 C   0  0  0  0  0  0  0  0  0  0  0  0
   17.1780  -23.9908   -5.5457 O   0  0  0  0  0  0  0  0  0  0  0  0
   18.6158  -24.6916   -7.1308 N   0  0  0  0  0  0  0  0  0  0  0  0
   18.5746  -23.3689   -7.7914 C   0  0  1  0  0  0  0  0  0  0  0  0
   19.9032  -23.2316   -8.4384 C   0  0  0  0  0  0  0  0  0  0  0  0
   20.3291  -21.9197   -8.9011 C   0  0  0  0  0  0  0  0  0  0  0  0
   20.8980  -20.8785   -8.1859 C   0  0  0  0  0  0  0  0  0  0  0  0
   21.0789  -19.8761   -9.0283 N   0  0  0  0  0  0  0  0  0  0  0  0
   20.6593  -20.1990  -10.2694 C   0  0  0  0  0  0  0  0  0  0  0  0
   20.6472  -19.5192  -11.4785 C   0  0  0  0  0  0  0  0  0  0  0  0
   20.1634  -20.1267  -12.6122 C   0  0  0  0  0  0  0  0  0  0  0  0
   19.6810  -21.4215  -12.5722 C   0  0  0  0  0  0  0  0  0  0  0  0
   19.6889  -22.0985  -11.3815 C   0  0  0  0  0  0  0  0  0  0  0  0
   20.1774  -21.4900  -10.2243 C   0  0  0  0  0  0  0  0  0  0  0  0
   17.4815  -23.2439   -8.7544 C   0  0  0  0  0  0  0  0  0  0  0  0
   17.0977  -24.3172   -9.3236 O   0  0  0  0  0  0  0  0  0  0  0  0
   15.2513  -23.5317  -10.2748 C   0  0  0  0  0  0  0  0  0  0  0  0
   15.5832  -22.1152   -9.8805 C   0  0  2  0  0  0  0  0  0  0  0  0
   16.8092  -22.0548   -9.1166 N   0  0  0  0  0  0  0  0  0  0  0  0
   14.4334  -21.5612   -9.1219 C   0  0  0  0  0  0  0  0  0  0  0  0
   14.5297  -21.1897   -7.9293 O   0  0  0  0  0  0  0  0  0  0  0  0
   13.2031  -21.4463   -9.7473 O   0  0  0  0  0  0  0  0  0  0  0  0
  2  4  1  0
  2  1  1  1
  2  3  1  0
  4  5  1  1
  6  4  1  0
  6  7  2  0
  8  6  1  0
  9  8  1  0
  9 10  1  6
 11 19  1  0
 11 10  1  0
 12 11  2  0
 13 12  1  0
 13 14  1  0
 14 15  1  0
 14 19  2  0
 15 16  2  0
 16 17  1  0
 18 17  2  0
 19 18  1  0
 20 24  1  0
 20  9  1  0
 21 20  2  0
 23 22  1  1
 23 24  1  0
 23 25  1  0
 25 27  1  0
 26 25  2  0
M  END
$$$$
