VWA.pdb
     RDKit          3D

 27 28  0  0  1  0  0  0  0  0999 V2000
   16.6769  -10.7864  -19.7634 C   0  0  0  0  0  0  0  0  0  0  0  0
   16.7187  -12.2073  -19.3103 C   0  0  1  0  0  0  0  0  0  0  0  0
   16.6079  -13.2378  -20.3746 C   0  0  0  0  0  0  0  0  0  0  0  0
   17.8699  -12.5260  -18.3809 C   0  0  2  0  0  0  0  0  0  0  0  0
   17.7023  -13.8954  -17.8432 N   0  0  0  0  0  0  0  0  0  0  0  0
   17.9256  -11.6464  -17.1879 C   0  0  0  0  0  0  0  0  0  0  0  0
   17.0986  -11.8113  -16.2291 O   0  0  0  0  0  0  0  0  0  0  0  0
   18.8373  -10.5932  -16.9802 N   0  0  0  0  0  0  0  0  0  0  0  0
   18.7081   -9.6489  -15.8491 C   0  0  1  0  0  0  0  0  0  0  0  0
   20.0620   -9.6030  -15.2428 C   0  0  0  0  0  0  0  0  0  0  0  0
   20.3189   -8.6616  -14.1637 C   0  0  0  0  0  0  0  0  0  0  0  0
   19.8440   -8.6669  -12.8623 C   0  0  0  0  0  0  0  0  0  0  0  0
   20.3227   -7.5892  -12.2651 N   0  0  0  0  0  0  0  0  0  0  0  0
   21.0937   -6.8671  -13.1046 C   0  0  0  0  0  0  0  0  0  0  0  0
   21.8191   -5.6935  -12.9611 C   0  0  0  0  0  0  0  0  0  0  0  0
   22.5460   -5.1929  -14.0143 C   0  0  0  0  0  0  0  0  0  0  0  0
   22.5698   -5.8447  -15.2330 C   0  0  0  0  0  0  0  0  0  0  0  0
   21.8551   -7.0037  -15.3824 C   0  0  0  0  0  0  0  0  0  0  0  0
   21.1130   -7.5198  -14.3190 C   0  0  0  0  0  0  0  0  0  0  0  0
   18.2473   -8.3235  -16.2598 C   0  0  0  0  0  0  0  0  0  0  0  0
   18.7613   -7.8455  -17.3230 O   0  0  0  0  0  0  0  0  0  0  0  0
   15.5589   -5.9012  -16.1685 C   0  0  0  0  0  0  0  0  0  0  0  0
   17.0370   -6.1705  -16.0467 C   0  0  2  0  0  0  0  0  0  0  0  0
   17.2910   -7.5210  -15.5974 N   0  0  0  0  0  0  0  0  0  0  0  0
   17.6194   -5.1640  -15.1235 C   0  0  0  0  0  0  0  0  0  0  0  0
   18.1306   -5.4759  -14.0230 O   0  0  0  0  0  0  0  0  0  0  0  0
   17.6020   -3.8267  -15.4831 O   0  0  0  0  0  0  0  0  0  0  0  0
  2  4  1  0
  2  1  1  6
  2  3  1  0
  4  5  1  1
  6  4  1  0
  6  7  2  0
  8  6  1  0
  9  8  1  0
  9 10  1  6
 11 19  1  0
 11 10  1  0
 12 11  2  0
 13 12  1  0
 13 14  1  0
 14 15  1  0
 14 19  2  0
 15 16  2  0
 16 17  1  0
 18 17  2  0
 19 18  1  0
 20 24  1  0
 20  9  1  0
 21 20  2  0
 23 22  1  1
 23 24  1  0
 23 25  1  0
 25 27  1  0
 26 25  2  0
M  END
$$$$
