VWA.pdb
     RDKit          3D

 27 28  0  0  1  0  0  0  0  0999 V2000
   28.1192  -16.3713  -18.2193 C   0  0  0  0  0  0  0  0  0  0  0  0
   27.8022  -17.5313  -17.3363 C   0  0  1  0  0  0  0  0  0  0  0  0
   28.7418  -17.7744  -16.2115 C   0  0  0  0  0  0  0  0  0  0  0  0
   26.3701  -17.5629  -16.8477 C   0  0  2  0  0  0  0  0  0  0  0  0
   26.0795  -16.3193  -16.0983 N   0  0  0  0  0  0  0  0  0  0  0  0
   26.0974  -18.6633  -15.8913 C   0  0  0  0  0  0  0  0  0  0  0  0
   26.0000  -19.8665  -16.3073 O   0  0  0  0  0  0  0  0  0  0  0  0
   25.9253  -18.5248  -14.5003 N   0  0  0  0  0  0  0  0  0  0  0  0
   25.6328  -19.6788  -13.6225 C   0  0  1  0  0  0  0  0  0  0  0  0
   26.3695  -19.3907  -12.3668 C   0  0  0  0  0  0  0  0  0  0  0  0
   26.3385  -20.3701  -11.2914 C   0  0  0  0  0  0  0  0  0  0  0  0
   26.1728  -21.7438  -11.3596 C   0  0  0  0  0  0  0  0  0  0  0  0
   26.1784  -22.2021  -10.1198 N   0  0  0  0  0  0  0  0  0  0  0  0
   26.3406  -21.2012   -9.2296 C   0  0  0  0  0  0  0  0  0  0  0  0
   26.4286  -21.1611   -7.8458 C   0  0  0  0  0  0  0  0  0  0  0  0
   26.6195  -19.9654   -7.1962 C   0  0  0  0  0  0  0  0  0  0  0  0
   26.7274  -18.7830   -7.9040 C   0  0  0  0  0  0  0  0  0  0  0  0
   26.6404  -18.8148   -9.2706 C   0  0  0  0  0  0  0  0  0  0  0  0
   26.4458  -20.0240   -9.9397 C   0  0  0  0  0  0  0  0  0  0  0  0
   24.2026  -19.8700  -13.3862 C   0  0  0  0  0  0  0  0  0  0  0  0
   23.5025  -18.8153  -13.2429 O   0  0  0  0  0  0  0  0  0  0  0  0
   21.8104  -20.4380  -11.6940 C   0  0  0  0  0  0  0  0  0  0  0  0
   22.1071  -21.1360  -12.9967 C   0  0  2  0  0  0  0  0  0  0  0  0
   23.5201  -21.1046  -13.3010 N   0  0  0  0  0  0  0  0  0  0  0  0
   21.2991  -20.4935  -14.0639 C   0  0  0  0  0  0  0  0  0  0  0  0
   20.0509  -20.4054  -14.0026 O   0  0  0  0  0  0  0  0  0  0  0  0
   21.9400  -19.9683  -15.1735 O   0  0  0  0  0  0  0  0  0  0  0  0
  2  4  1  0
  2  1  1  1
  2  3  1  0
  4  5  1  1
  6  4  1  0
  6  7  2  0
  8  6  1  0
  9  8  1  0
  9 10  1  1
 11 19  1  0
 11 10  1  0
 12 11  2  0
 13 12  1  0
 13 14  1  0
 14 15  1  0
 14 19  2  0
 15 16  2  0
 16 17  1  0
 18 17  2  0
 19 18  1  0
 20 24  1  0
 20  9  1  0
 21 20  2  0
 23 22  1  1
 23 24  1  0
 23 25  1  0
 25 27  1  0
 26 25  2  0
M  END
$$$$
