VWA.pdb
     RDKit          3D

 27 28  0  0  1  0  0  0  0  0999 V2000
   18.6121  -13.6033    6.9358 C   0  0  0  0  0  0  0  0  0  0  0  0
   17.8108  -12.6088    6.1644 C   0  0  1  0  0  0  0  0  0  0  0  0
   17.9374  -11.1919    6.5927 C   0  0  0  0  0  0  0  0  0  0  0  0
   17.9615  -12.7248    4.6630 C   0  0  2  0  0  0  0  0  0  0  0  0
   16.8757  -11.9667    4.0005 N   0  0  0  0  0  0  0  0  0  0  0  0
   17.8243  -14.1141    4.1621 C   0  0  0  0  0  0  0  0  0  0  0  0
   16.6676  -14.6394    4.0336 O   0  0  0  0  0  0  0  0  0  0  0  0
   18.8823  -14.9663    3.7906 N   0  0  0  0  0  0  0  0  0  0  0  0
   18.6547  -16.3558    3.3375 C   0  0  1  0  0  0  0  0  0  0  0  0
   19.9119  -16.7351    2.6459 C   0  0  0  0  0  0  0  0  0  0  0  0
   19.8628  -17.7433    1.5982 C   0  0  0  0  0  0  0  0  0  0  0  0
   18.8176  -18.5733    1.2267 C   0  0  0  0  0  0  0  0  0  0  0  0
   19.2576  -19.3449    0.2478 N   0  0  0  0  0  0  0  0  0  0  0  0
   20.5441  -19.0688   -0.0514 C   0  0  0  0  0  0  0  0  0  0  0  0
   21.4346  -19.5739   -0.9872 C   0  0  0  0  0  0  0  0  0  0  0  0
   22.7098  -19.0696   -1.0757 C   0  0  0  0  0  0  0  0  0  0  0  0
   23.1302  -18.0532   -0.2384 C   0  0  0  0  0  0  0  0  0  0  0  0
   22.2565  -17.5502    0.6889 C   0  0  0  0  0  0  0  0  0  0  0  0
   20.9595  -18.0563    0.7872 C   0  0  0  0  0  0  0  0  0  0  0  0
   18.3357  -17.2700    4.4331 C   0  0  0  0  0  0  0  0  0  0  0  0
   19.0842  -17.2094    5.4623 O   0  0  0  0  0  0  0  0  0  0  0  0
   15.7361  -18.9745    6.1905 C   0  0  0  0  0  0  0  0  0  0  0  0
   17.1212  -19.0851    5.6063 C   0  0  2  0  0  0  0  0  0  0  0  0
   17.2827  -18.2120    4.4652 N   0  0  0  0  0  0  0  0  0  0  0  0
   17.3653  -20.5061    5.2518 C   0  0  0  0  0  0  0  0  0  0  0  0
   17.5336  -20.8858    4.0698 O   0  0  0  0  0  0  0  0  0  0  0  0
   17.4108  -21.4559    6.2586 O   0  0  0  0  0  0  0  0  0  0  0  0
  2  4  1  0
  2  1  1  1
  2  3  1  0
  4  5  1  6
  6  4  1  0
  6  7  2  0
  8  6  1  0
  9  8  1  0
  9 10  1  1
 11 19  1  0
 11 10  1  0
 12 11  2  0
 13 12  1  0
 13 14  1  0
 14 15  1  0
 14 19  2  0
 15 16  2  0
 16 17  1  0
 18 17  2  0
 19 18  1  0
 20 24  1  0
 20  9  1  0
 21 20  2  0
 23 22  1  6
 23 24  1  0
 23 25  1  0
 25 27  1  0
 26 25  2  0
M  END
$$$$
