VWA.pdb
     RDKit          3D

 27 28  0  0  1  0  0  0  0  0999 V2000
   28.6053  -17.7886  -15.2229 C   0  0  0  0  0  0  0  0  0  0  0  0
   27.6144  -18.6856  -14.5600 C   0  0  1  0  0  0  0  0  0  0  0  0
   26.4716  -19.1318  -15.3977 C   0  0  0  0  0  0  0  0  0  0  0  0
   28.2331  -19.8621  -13.8363 C   0  0  2  0  0  0  0  0  0  0  0  0
   28.6858  -20.8651  -14.8271 N   0  0  0  0  0  0  0  0  0  0  0  0
   27.2778  -20.5857  -12.9625 C   0  0  0  0  0  0  0  0  0  0  0  0
   26.7393  -21.6727  -13.3611 O   0  0  0  0  0  0  0  0  0  0  0  0
   26.8758  -20.1895  -11.6721 N   0  0  0  0  0  0  0  0  0  0  0  0
   25.8912  -20.9592  -10.8811 C   0  0  1  0  0  0  0  0  0  0  0  0
   26.1129  -20.5230   -9.4799 C   0  0  0  0  0  0  0  0  0  0  0  0
   27.3870  -20.8195   -8.8432 C   0  0  0  0  0  0  0  0  0  0  0  0
   28.4356  -21.6015   -9.2996 C   0  0  0  0  0  0  0  0  0  0  0  0
   29.3640  -21.6016   -8.3587 N   0  0  0  0  0  0  0  0  0  0  0  0
   28.9855  -20.8573   -7.2987 C   0  0  0  0  0  0  0  0  0  0  0  0
   29.5939  -20.5345   -6.0947 C   0  0  0  0  0  0  0  0  0  0  0  0
   28.9581  -19.7160   -5.1925 C   0  0  0  0  0  0  0  0  0  0  0  0
   27.7051  -19.1993   -5.4641 C   0  0  0  0  0  0  0  0  0  0  0  0
   27.0977  -19.5145   -6.6507 C   0  0  0  0  0  0  0  0  0  0  0  0
   27.7349  -20.3458   -7.5732 C   0  0  0  0  0  0  0  0  0  0  0  0
   24.5117  -20.7367  -11.3115 C   0  0  0  0  0  0  0  0  0  0  0  0
   24.0597  -19.5521  -11.1870 O   0  0  0  0  0  0  0  0  0  0  0  0
   21.7503  -22.3261  -13.2730 C   0  0  0  0  0  0  0  0  0  0  0  0
   22.3185  -21.3110  -12.3145 C   0  0  2  0  0  0  0  0  0  0  0  0
   23.6311  -21.7015  -11.8509 N   0  0  0  0  0  0  0  0  0  0  0  0
   21.3633  -21.1466  -11.1898 C   0  0  0  0  0  0  0  0  0  0  0  0
   21.5921  -21.5920  -10.0414 O   0  0  0  0  0  0  0  0  0  0  0  0
   20.1709  -20.4766  -11.4078 O   0  0  0  0  0  0  0  0  0  0  0  0
  2  4  1  0
  2  1  1  6
  2  3  1  0
  4  5  1  6
  6  4  1  0
  6  7  2  0
  8  6  1  0
  9  8  1  0
  9 10  1  1
 11 19  1  0
 11 10  1  0
 12 11  2  0
 13 12  1  0
 13 14  1  0
 14 15  1  0
 14 19  2  0
 15 16  2  0
 16 17  1  0
 18 17  2  0
 19 18  1  0
 20 24  1  0
 20  9  1  0
 21 20  2  0
 23 22  1  6
 23 24  1  0
 23 25  1  0
 25 27  1  0
 26 25  2  0
M  END
$$$$
