VWA.pdb
     RDKit          3D

 27 28  0  0  1  0  0  0  0  0999 V2000
   27.7422  -17.8509  -15.6777 C   0  0  0  0  0  0  0  0  0  0  0  0
   27.0671  -18.9491  -16.4288 C   0  0  1  0  0  0  0  0  0  0  0  0
   27.7933  -19.4753  -17.6132 C   0  0  0  0  0  0  0  0  0  0  0  0
   26.5804  -20.0861  -15.5565 C   0  0  2  0  0  0  0  0  0  0  0  0
   25.8955  -21.0929  -16.3989 N   0  0  0  0  0  0  0  0  0  0  0  0
   25.5702  -19.6693  -14.5537 C   0  0  0  0  0  0  0  0  0  0  0  0
   25.9327  -19.0609  -13.4913 O   0  0  0  0  0  0  0  0  0  0  0  0
   24.1805  -19.8787  -14.6453 N   0  0  0  0  0  0  0  0  0  0  0  0
   23.2396  -19.3951  -13.6114 C   0  0  1  0  0  0  0  0  0  0  0  0
   21.9464  -19.2426  -14.3235 C   0  0  0  0  0  0  0  0  0  0  0  0
   20.8068  -18.6941  -13.6044 C   0  0  0  0  0  0  0  0  0  0  0  0
   20.7307  -18.2338  -12.2999 C   0  0  0  0  0  0  0  0  0  0  0  0
   19.4794  -17.8656  -12.0858 N   0  0  0  0  0  0  0  0  0  0  0  0
   18.7189  -18.0572  -13.1838 C   0  0  0  0  0  0  0  0  0  0  0  0
   17.3825  -17.8210  -13.4708 C   0  0  0  0  0  0  0  0  0  0  0  0
   16.8789  -18.1052  -14.7174 C   0  0  0  0  0  0  0  0  0  0  0  0
   17.6891  -18.6298  -15.7069 C   0  0  0  0  0  0  0  0  0  0  0  0
   19.0096  -18.8665  -15.4304 C   0  0  0  0  0  0  0  0  0  0  0  0
   19.5304  -18.5821  -14.1671 C   0  0  0  0  0  0  0  0  0  0  0  0
   23.1312  -20.3000  -12.4681 C   0  0  0  0  0  0  0  0  0  0  0  0
   23.0535  -21.5442  -12.7312 O   0  0  0  0  0  0  0  0  0  0  0  0
   23.8177  -20.7463   -8.9167 C   0  0  0  0  0  0  0  0  0  0  0  0
   22.8843  -20.9366  -10.0849 C   0  0  2  0  0  0  0  0  0  0  0  0
   23.1041  -19.9342  -11.1033 N   0  0  0  0  0  0  0  0  0  0  0  0
   21.4896  -20.9088   -9.5762 C   0  0  0  0  0  0  0  0  0  0  0  0
   20.6700  -20.0209   -9.9067 O   0  0  0  0  0  0  0  0  0  0  0  0
   21.0687  -21.8977   -8.7028 O   0  0  0  0  0  0  0  0  0  0  0  0
  2  4  1  0
  2  1  1  1
  2  3  1  0
  4  5  1  6
  6  4  1  0
  6  7  2  0
  8  6  1  0
  9  8  1  0
  9 10  1  6
 11 19  1  0
 11 10  1  0
 12 11  2  0
 13 12  1  0
 13 14  1  0
 14 15  1  0
 14 19  2  0
 15 16  2  0
 16 17  1  0
 18 17  2  0
 19 18  1  0
 20 24  1  0
 20  9  1  0
 21 20  2  0
 23 22  1  1
 23 24  1  0
 23 25  1  0
 25 27  1  0
 26 25  2  0
M  END
$$$$
