VWA.pdb
     RDKit          3D

 27 28  0  0  1  0  0  0  0  0999 V2000
   27.0664  -21.7764  -10.5770 C   0  0  0  0  0  0  0  0  0  0  0  0
   27.9565  -20.7842  -11.2472 C   0  0  1  0  0  0  0  0  0  0  0  0
   29.4174  -21.0053  -11.0925 C   0  0  0  0  0  0  0  0  0  0  0  0
   27.6099  -20.5232  -12.6971 C   0  0  2  0  0  0  0  0  0  0  0  0
   28.5384  -19.5107  -13.2494 N   0  0  0  0  0  0  0  0  0  0  0  0
   26.2553  -19.9492  -12.8855 C   0  0  0  0  0  0  0  0  0  0  0  0
   25.9653  -18.8101  -12.3868 O   0  0  0  0  0  0  0  0  0  0  0  0
   25.1948  -20.5497  -13.5915 N   0  0  0  0  0  0  0  0  0  0  0  0
   23.8565  -19.9267  -13.6855 C   0  0  1  0  0  0  0  0  0  0  0  0
   23.6917  -19.6086  -15.1258 C   0  0  0  0  0  0  0  0  0  0  0  0
   22.5096  -18.8769  -15.5547 C   0  0  0  0  0  0  0  0  0  0  0  0
   21.5031  -18.3094  -14.7905 C   0  0  0  0  0  0  0  0  0  0  0  0
   20.6247  -17.7831  -15.6263 N   0  0  0  0  0  0  0  0  0  0  0  0
   20.9973  -17.9715  -16.9094 C   0  0  0  0  0  0  0  0  0  0  0  0
   20.4421  -17.6057  -18.1268 C   0  0  0  0  0  0  0  0  0  0  0  0
   21.0748  -17.9272  -19.3035 C   0  0  0  0  0  0  0  0  0  0  0  0
   22.2718  -18.6185  -19.2992 C   0  0  0  0  0  0  0  0  0  0  0  0
   22.8255  -18.9839  -18.1008 C   0  0  0  0  0  0  0  0  0  0  0  0
   22.1902  -18.6628  -16.9003 C   0  0  0  0  0  0  0  0  0  0  0  0
   22.7867  -20.7915  -13.1903 C   0  0  0  0  0  0  0  0  0  0  0  0
   22.9095  -22.0387  -13.4197 O   0  0  0  0  0  0  0  0  0  0  0  0
   20.0109  -20.8994  -10.7362 C   0  0  0  0  0  0  0  0  0  0  0  0
   20.6914  -21.3676  -11.9971 C   0  0  2  0  0  0  0  0  0  0  0  0
   21.6323  -20.3839  -12.4841 N   0  0  0  0  0  0  0  0  0  0  0  0
   19.6450  -21.6753  -13.0045 C   0  0  0  0  0  0  0  0  0  0  0  0
   19.4871  -20.9910  -14.0419 O   0  0  0  0  0  0  0  0  0  0  0  0
   18.8063  -22.7581  -12.7991 O   0  0  0  0  0  0  0  0  0  0  0  0
  2  4  1  0
  2  1  1  6
  2  3  1  0
  4  5  1  1
  6  4  1  0
  6  7  2  0
  8  6  1  0
  9  8  1  0
  9 10  1  6
 11 19  1  0
 11 10  1  0
 12 11  2  0
 13 12  1  0
 13 14  1  0
 14 15  1  0
 14 19  2  0
 15 16  2  0
 16 17  1  0
 18 17  2  0
 19 18  1  0
 20 24  1  0
 20  9  1  0
 21 20  2  0
 23 22  1  1
 23 24  1  0
 23 25  1  0
 25 27  1  0
 26 25  2  0
M  END
$$$$
