VWA.pdb
     RDKit          3D

 27 28  0  0  1  0  0  0  0  0999 V2000
   34.4033  -37.8928   -6.5262 C   0  0  0  0  0  0  0  0  0  0  0  0
   33.3907  -37.0623   -5.8115 C   0  0  1  0  0  0  0  0  0  0  0  0
   33.8865  -36.2817   -4.6488 C   0  0  0  0  0  0  0  0  0  0  0  0
   32.5559  -36.1870   -6.7212 C   0  0  2  0  0  0  0  0  0  0  0  0
   33.3953  -35.0883   -7.2512 N   0  0  0  0  0  0  0  0  0  0  0  0
   31.4329  -35.5140   -6.0244 C   0  0  0  0  0  0  0  0  0  0  0  0
   31.5747  -34.3273   -5.5749 O   0  0  0  0  0  0  0  0  0  0  0  0
   30.1578  -36.0642   -5.7901 N   0  0  0  0  0  0  0  0  0  0  0  0
   29.1119  -35.3396   -5.0358 C   0  0  1  0  0  0  0  0  0  0  0  0
   27.8802  -35.5088   -5.8464 C   0  0  0  0  0  0  0  0  0  0  0  0
   27.6764  -34.6528   -7.0050 C   0  0  0  0  0  0  0  0  0  0  0  0
   28.3188  -34.6690   -8.2323 C   0  0  0  0  0  0  0  0  0  0  0  0
   27.8184  -33.6786   -8.9506 N   0  0  0  0  0  0  0  0  0  0  0  0
   26.8739  -33.0043   -8.2621 C   0  0  0  0  0  0  0  0  0  0  0  0
   26.0601  -31.9236   -8.5687 C   0  0  0  0  0  0  0  0  0  0  0  0
   25.1528  -31.4544   -7.6495 C   0  0  0  0  0  0  0  0  0  0  0  0
   25.0321  -32.0463   -6.4062 C   0  0  0  0  0  0  0  0  0  0  0  0
   25.8331  -33.1134   -6.0962 C   0  0  0  0  0  0  0  0  0  0  0  0
   26.7583  -33.5968   -7.0225 C   0  0  0  0  0  0  0  0  0  0  0  0
   28.9417  -35.8371   -3.6715 C   0  0  0  0  0  0  0  0  0  0  0  0
   28.3646  -36.9658   -3.5442 O   0  0  0  0  0  0  0  0  0  0  0  0
   30.4145  -35.9357   -0.4157 C   0  0  0  0  0  0  0  0  0  0  0  0
   29.1320  -35.8235   -1.1998 C   0  0  2  0  0  0  0  0  0  0  0  0
   29.3523  -35.1934   -2.4823 N   0  0  0  0  0  0  0  0  0  0  0  0
   28.1483  -35.0732   -0.3790 C   0  0  0  0  0  0  0  0  0  0  0  0
   27.7617  -35.4750    0.7429 O   0  0  0  0  0  0  0  0  0  0  0  0
   27.6324  -33.8824   -0.8627 O   0  0  0  0  0  0  0  0  0  0  0  0
  2  4  1  0
  2  1  1  6
  2  3  1  0
  4  5  1  1
  6  4  1  0
  6  7  2  0
  8  6  1  0
  9  8  1  0
  9 10  1  6
 11 19  1  0
 11 10  1  0
 12 11  2  0
 13 12  1  0
 13 14  1  0
 14 15  1  0
 14 19  2  0
 15 16  2  0
 16 17  1  0
 18 17  2  0
 19 18  1  0
 20 24  1  0
 20  9  1  0
 21 20  2  0
 23 22  1  1
 23 24  1  0
 23 25  1  0
 25 27  1  0
 26 25  2  0
M  END
$$$$
