VWA.pdb
     RDKit          3D

 27 28  0  0  1  0  0  0  0  0999 V2000
   14.0941   -7.5635  -18.6118 C   0  0  0  0  0  0  0  0  0  0  0  0
   15.3854   -7.7959  -17.9014 C   0  0  1  0  0  0  0  0  0  0  0  0
   15.3031   -8.5447  -16.6210 C   0  0  0  0  0  0  0  0  0  0  0  0
   16.4799   -8.3639  -18.7789 C   0  0  2  0  0  0  0  0  0  0  0  0
   16.1604   -9.7704  -19.1139 N   0  0  0  0  0  0  0  0  0  0  0  0
   17.8033   -8.4165  -18.1114 C   0  0  0  0  0  0  0  0  0  0  0  0
   18.2087   -9.5012  -17.5734 O   0  0  0  0  0  0  0  0  0  0  0  0
   18.7141   -7.3483  -17.9981 N   0  0  0  0  0  0  0  0  0  0  0  0
   20.0281   -7.4984  -17.3356 C   0  0  1  0  0  0  0  0  0  0  0  0
   20.9203   -6.5554  -18.0550 C   0  0  0  0  0  0  0  0  0  0  0  0
   22.3011   -6.4195  -17.6174 C   0  0  0  0  0  0  0  0  0  0  0  0
   23.2255   -7.4043  -17.3095 C   0  0  0  0  0  0  0  0  0  0  0  0
   24.3347   -6.7959  -16.9263 N   0  0  0  0  0  0  0  0  0  0  0  0
   24.1946   -5.4544  -16.9649 C   0  0  0  0  0  0  0  0  0  0  0  0
   25.0485   -4.3983  -16.6828 C   0  0  0  0  0  0  0  0  0  0  0  0
   24.6231   -3.1008  -16.8371 C   0  0  0  0  0  0  0  0  0  0  0  0
   23.3419   -2.8217  -17.2744 C   0  0  0  0  0  0  0  0  0  0  0  0
   22.4928   -3.8596  -17.5539 C   0  0  0  0  0  0  0  0  0  0  0  0
   22.9151   -5.1809  -17.3996 C   0  0  0  0  0  0  0  0  0  0  0  0
   19.9808   -7.2202  -15.9010 C   0  0  0  0  0  0  0  0  0  0  0  0
   19.3705   -6.1598  -15.5457 O   0  0  0  0  0  0  0  0  0  0  0  0
   20.4929   -8.8136  -12.5691 C   0  0  0  0  0  0  0  0  0  0  0  0
   20.3754   -7.6238  -13.4870 C   0  0  2  0  0  0  0  0  0  0  0  0
   20.5428   -8.0077  -14.8708 N   0  0  0  0  0  0  0  0  0  0  0  0
   21.3800   -6.6129  -13.0703 C   0  0  0  0  0  0  0  0  0  0  0  0
   21.3415   -6.0459  -11.9538 O   0  0  0  0  0  0  0  0  0  0  0  0
   22.4027   -6.2770  -13.9416 O   0  0  0  0  0  0  0  0  0  0  0  0
  2  4  1  0
  2  1  1  6
  2  3  1  0
  4  5  1  1
  6  4  1  0
  6  7  2  0
  8  6  1  0
  9  8  1  0
  9 10  1  6
 11 19  1  0
 11 10  1  0
 12 11  2  0
 13 12  1  0
 13 14  1  0
 14 15  1  0
 14 19  2  0
 15 16  2  0
 16 17  1  0
 18 17  2  0
 19 18  1  0
 20 24  1  0
 20  9  1  0
 21 20  2  0
 23 22  1  1
 23 24  1  0
 23 25  1  0
 25 27  1  0
 26 25  2  0
M  END
$$$$
