VWA.pdb
     RDKit          3D

 27 28  0  0  1  0  0  0  0  0999 V2000
   26.7474  -17.8596  -14.4284 C   0  0  0  0  0  0  0  0  0  0  0  0
   27.5521  -18.8526  -15.1981 C   0  0  1  0  0  0  0  0  0  0  0  0
   28.3821  -18.3078  -16.3031 C   0  0  0  0  0  0  0  0  0  0  0  0
   28.3679  -19.7898  -14.3339 C   0  0  2  0  0  0  0  0  0  0  0  0
   28.8085  -20.9474  -15.1453 N   0  0  0  0  0  0  0  0  0  0  0  0
   27.5981  -20.3761  -13.2100 C   0  0  0  0  0  0  0  0  0  0  0  0
   26.7684  -21.3227  -13.4244 O   0  0  0  0  0  0  0  0  0  0  0  0
   27.6832  -19.9873  -11.8590 N   0  0  0  0  0  0  0  0  0  0  0  0
   26.8765  -20.6317  -10.7998 C   0  0  1  0  0  0  0  0  0  0  0  0
   27.4208  -20.0875   -9.5309 C   0  0  0  0  0  0  0  0  0  0  0  0
   26.7815  -20.4530   -8.2761 C   0  0  0  0  0  0  0  0  0  0  0  0
   25.5643  -21.0784   -8.0605 C   0  0  0  0  0  0  0  0  0  0  0  0
   25.3941  -21.1662   -6.7527 N   0  0  0  0  0  0  0  0  0  0  0  0
   26.4385  -20.6309   -6.0869 C   0  0  0  0  0  0  0  0  0  0  0  0
   26.7415  -20.4941   -4.7402 C   0  0  0  0  0  0  0  0  0  0  0  0
   27.9215  -19.9082   -4.3496 C   0  0  0  0  0  0  0  0  0  0  0  0
   28.8273  -19.4451   -5.2855 C   0  0  0  0  0  0  0  0  0  0  0  0
   28.5343  -19.5759   -6.6172 C   0  0  0  0  0  0  0  0  0  0  0  0
   27.3381  -20.1687   -7.0240 C   0  0  0  0  0  0  0  0  0  0  0  0
   25.4436  -20.3743  -10.9354 C   0  0  0  0  0  0  0  0  0  0  0  0
   25.0831  -19.1525  -10.9532 O   0  0  0  0  0  0  0  0  0  0  0  0
   22.4915  -21.9272  -12.4226 C   0  0  0  0  0  0  0  0  0  0  0  0
   23.0858  -20.9491  -11.4417 C   0  0  2  0  0  0  0  0  0  0  0  0
   24.4204  -21.3426  -11.0488 N   0  0  0  0  0  0  0  0  0  0  0  0
   22.1746  -20.8488  -10.2737 C   0  0  0  0  0  0  0  0  0  0  0  0
   22.5254  -21.1749   -9.1161 O   0  0  0  0  0  0  0  0  0  0  0  0
   20.8857  -20.3779  -10.4603 O   0  0  0  0  0  0  0  0  0  0  0  0
  2  4  1  0
  2  1  1  1
  2  3  1  0
  4  5  1  6
  6  4  1  0
  6  7  2  0
  8  6  1  0
  9  8  1  0
  9 10  1  1
 11 19  1  0
 11 10  1  0
 12 11  2  0
 13 12  1  0
 13 14  1  0
 14 15  1  0
 14 19  2  0
 15 16  2  0
 16 17  1  0
 18 17  2  0
 19 18  1  0
 20 24  1  0
 20  9  1  0
 21 20  2  0
 23 22  1  6
 23 24  1  0
 23 25  1  0
 25 27  1  0
 26 25  2  0
M  END
$$$$
