VWA.pdb
     RDKit          3D

 27 28  0  0  1  0  0  0  0  0999 V2000
   14.2919  -13.8070    6.7325 C   0  0  0  0  0  0  0  0  0  0  0  0
   13.0734  -13.7487    5.8735 C   0  0  1  0  0  0  0  0  0  0  0  0
   12.1405  -12.6226    6.1354 C   0  0  0  0  0  0  0  0  0  0  0  0
   13.3556  -13.8704    4.3916 C   0  0  2  0  0  0  0  0  0  0  0  0
   12.0822  -14.0759    3.6645 N   0  0  0  0  0  0  0  0  0  0  0  0
   14.1926  -15.0448    4.0450 C   0  0  0  0  0  0  0  0  0  0  0  0
   13.6644  -16.2030    3.9453 O   0  0  0  0  0  0  0  0  0  0  0  0
   15.5792  -15.0270    3.7989 N   0  0  0  0  0  0  0  0  0  0  0  0
   16.3318  -16.2471    3.4344 C   0  0  1  0  0  0  0  0  0  0  0  0
   17.4894  -15.7524    2.6483 C   0  0  0  0  0  0  0  0  0  0  0  0
   18.2559  -16.6984    1.8520 C   0  0  0  0  0  0  0  0  0  0  0  0
   17.8770  -17.9326    1.3494 C   0  0  0  0  0  0  0  0  0  0  0  0
   18.9234  -18.4384    0.7199 N   0  0  0  0  0  0  0  0  0  0  0  0
   19.9802  -17.6014    0.7778 C   0  0  0  0  0  0  0  0  0  0  0  0
   21.2711  -17.6595    0.2735 C   0  0  0  0  0  0  0  0  0  0  0  0
   22.1452  -16.6196    0.4803 C   0  0  0  0  0  0  0  0  0  0  0  0
   21.7588  -15.4990    1.1915 C   0  0  0  0  0  0  0  0  0  0  0  0
   20.4858  -15.4350    1.6933 C   0  0  0  0  0  0  0  0  0  0  0  0
   19.5909  -16.4864    1.4895 C   0  0  0  0  0  0  0  0  0  0  0  0
   16.7532  -17.0281    4.5963 C   0  0  0  0  0  0  0  0  0  0  0  0
   17.4206  -16.4091    5.4877 O   0  0  0  0  0  0  0  0  0  0  0  0
   15.8808  -19.5568    6.8865 C   0  0  0  0  0  0  0  0  0  0  0  0
   17.0022  -19.0417    6.0208 C   0  0  2  0  0  0  0  0  0  0  0  0
   16.4949  -18.3978    4.8299 N   0  0  0  0  0  0  0  0  0  0  0  0
   17.8979  -20.1796    5.6929 C   0  0  0  0  0  0  0  0  0  0  0  0
   18.0740  -20.5815    4.5195 O   0  0  0  0  0  0  0  0  0  0  0  0
   18.5691  -20.8282    6.7160 O   0  0  0  0  0  0  0  0  0  0  0  0
  2  4  1  0
  2  1  1  1
  2  3  1  0
  4  5  1  6
  6  4  1  0
  6  7  2  0
  8  6  1  0
  9  8  1  0
  9 10  1  1
 11 19  1  0
 11 10  1  0
 12 11  2  0
 13 12  1  0
 13 14  1  0
 14 15  1  0
 14 19  2  0
 15 16  2  0
 16 17  1  0
 18 17  2  0
 19 18  1  0
 20 24  1  0
 20  9  1  0
 21 20  2  0
 23 22  1  1
 23 24  1  0
 23 25  1  0
 25 27  1  0
 26 25  2  0
M  END
$$$$
