VWA.pdb
     RDKit          3D

 27 28  0  0  1  0  0  0  0  0999 V2000
   26.4799  -15.9831  -15.1228 C   0  0  0  0  0  0  0  0  0  0  0  0
   26.2616  -17.4233  -14.8002 C   0  0  1  0  0  0  0  0  0  0  0  0
   25.8466  -18.2924  -15.9314 C   0  0  0  0  0  0  0  0  0  0  0  0
   27.3957  -18.0625  -14.0283 C   0  0  2  0  0  0  0  0  0  0  0  0
   28.5936  -18.1459  -14.8946 N   0  0  0  0  0  0  0  0  0  0  0  0
   27.1164  -19.4604  -13.6191 C   0  0  0  0  0  0  0  0  0  0  0  0
   27.7574  -20.4266  -14.1539 O   0  0  0  0  0  0  0  0  0  0  0  0
   26.1739  -19.8659  -12.6543 N   0  0  0  0  0  0  0  0  0  0  0  0
   25.9676  -21.2873  -12.3010 C   0  0  1  0  0  0  0  0  0  0  0  0
   25.4009  -21.2542  -10.9297 C   0  0  0  0  0  0  0  0  0  0  0  0
   25.8959  -20.2629   -9.9868 C   0  0  0  0  0  0  0  0  0  0  0  0
   25.6455  -18.9014   -9.9320 C   0  0  0  0  0  0  0  0  0  0  0  0
   26.3451  -18.4137   -8.9221 N   0  0  0  0  0  0  0  0  0  0  0  0
   27.0483  -19.3836   -8.3013 C   0  0  0  0  0  0  0  0  0  0  0  0
   27.9008  -19.3913   -7.2071 C   0  0  0  0  0  0  0  0  0  0  0  0
   28.4720  -20.5657   -6.7796 C   0  0  0  0  0  0  0  0  0  0  0  0
   28.2105  -21.7586   -7.4274 C   0  0  0  0  0  0  0  0  0  0  0  0
   27.3703  -21.7585   -8.5093 C   0  0  0  0  0  0  0  0  0  0  0  0
   26.7860  -20.5707   -8.9517 C   0  0  0  0  0  0  0  0  0  0  0  0
   25.0915  -21.9886  -13.2382 C   0  0  0  0  0  0  0  0  0  0  0  0
   23.9918  -21.4148  -13.5289 O   0  0  0  0  0  0  0  0  0  0  0  0
   24.9528  -24.9760  -15.5180 C   0  0  0  0  0  0  0  0  0  0  0  0
   24.3742  -23.8060  -14.7641 C   0  0  2  0  0  0  0  0  0  0  0  0
   25.3414  -23.2364  -13.8529 N   0  0  0  0  0  0  0  0  0  0  0  0
   23.1536  -24.2663  -14.0551 C   0  0  0  0  0  0  0  0  0  0  0  0
   23.0515  -24.2443  -12.8066 O   0  0  0  0  0  0  0  0  0  0  0  0
   22.0813  -24.7397  -14.7926 O   0  0  0  0  0  0  0  0  0  0  0  0
  2  4  1  0
  2  1  1  6
  2  3  1  0
  4  5  1  6
  6  4  1  0
  6  7  2  0
  8  6  1  0
  9  8  1  0
  9 10  1  1
 11 19  1  0
 11 10  1  0
 12 11  2  0
 13 12  1  0
 13 14  1  0
 14 15  1  0
 14 19  2  0
 15 16  2  0
 16 17  1  0
 18 17  2  0
 19 18  1  0
 20 24  1  0
 20  9  1  0
 21 20  2  0
 23 22  1  1
 23 24  1  0
 23 25  1  0
 25 27  1  0
 26 25  2  0
M  END
$$$$
