NNV.pdb
     RDKit          3D

 24 23  0  0  1  0  0  0  0  0999 V2000
   16.0784  -26.7419   -4.0488 N   0  0  0  0  0  0  0  0  0  0  0  0
   16.8367  -25.5662   -3.7934 C   0  0  0  0  0  0  0  0  0  0  0  0
   17.8882  -25.4181   -4.4761 O   0  0  0  0  0  0  0  0  0  0  0  0
   16.4564  -24.5415   -2.7925 C   0  0  0  0  0  0  0  0  0  0  0  0
   15.1672  -24.9424   -2.1598 C   0  0  2  0  0  0  0  0  0  0  0  0
   14.0756  -24.6823   -3.0756 N   0  0  0  0  0  0  0  0  0  0  0  0
   14.9208  -24.2540   -0.8562 C   0  0  0  0  0  0  0  0  0  0  0  0
   14.3240  -23.1331   -0.8921 O   0  0  0  0  0  0  0  0  0  0  0  0
   13.6234  -27.6329    2.1105 N   0  0  0  0  0  0  0  0  0  0  0  0
   13.5020  -26.2208    2.3264 C   0  0  0  0  0  0  0  0  0  0  0  0
   12.3339  -25.7591    2.2345 O   0  0  0  0  0  0  0  0  0  0  0  0
   14.6988  -25.4163    2.6315 C   0  0  0  0  0  0  0  0  0  0  0  0
   14.9536  -24.3241    1.6329 C   0  0  2  0  0  0  0  0  0  0  0  0
   15.3458  -24.8517    0.3414 N   0  0  0  0  0  0  0  0  0  0  0  0
   15.9278  -23.3074    2.0991 C   0  0  0  0  0  0  0  0  0  0  0  0
   17.1683  -23.4458    1.9765 O   0  0  0  0  0  0  0  0  0  0  0  0
   17.1851  -18.7650    3.2093 C   0  0  0  0  0  0  0  0  0  0  0  0
   16.2669  -19.7616    2.5370 C   0  0  1  0  0  0  0  0  0  0  0  0
   16.6954  -19.8439    1.0844 C   0  0  0  0  0  0  0  0  0  0  0  0
   16.4009  -21.0761    3.2219 C   0  0  2  0  0  0  0  0  0  0  0  0
   15.4933  -22.0864    2.7282 N   0  0  0  0  0  0  0  0  0  0  0  0
   16.3324  -20.9174    4.6822 C   0  0  0  0  0  0  0  0  0  0  0  0
   17.3697  -20.2909    5.3454 O   0  0  0  0  0  0  0  0  0  0  0  0
   15.3570  -21.3348    5.3414 O   0  0  0  0  0  0  0  0  0  0  0  0
  1  2  1  0
  2  3  2  0
  4  5  1  0
  4  2  1  0
  5  6  1  6
  7  5  1  0
  8  7  2  0
  9 10  1  0
 10 11  2  0
 10 12  1  0
 13 12  1  1
 13 15  1  0
 13 14  1  0
 14  7  1  0
 15 21  1  0
 16 15  2  0
 18 17  1  1
 19 18  1  0
 20 18  1  0
 20 22  1  0
 20 21  1  6
 22 24  2  0
 22 23  1  0
M  END
$$$$
