NNV.pdb
     RDKit          3D

 24 23  0  0  1  0  0  0  0  0999 V2000
   12.5890   -9.5439   -8.9674 N   0  0  0  0  0  0  0  0  0  0  0  0
   12.8660   -9.2899  -10.3391 C   0  0  0  0  0  0  0  0  0  0  0  0
   11.9652   -8.6929  -10.9916 O   0  0  0  0  0  0  0  0  0  0  0  0
   14.1264   -9.6838  -11.0119 C   0  0  0  0  0  0  0  0  0  0  0  0
   13.7992  -10.2559  -12.3493 C   0  0  2  0  0  0  0  0  0  0  0  0
   13.2650  -11.5925  -12.1879 N   0  0  0  0  0  0  0  0  0  0  0  0
   14.9729  -10.2787  -13.2745 C   0  0  0  0  0  0  0  0  0  0  0  0
   15.6698  -11.3404  -13.3066 O   0  0  0  0  0  0  0  0  0  0  0  0
   17.3418   -9.6840  -18.1615 N   0  0  0  0  0  0  0  0  0  0  0  0
   17.1280   -8.5717  -17.2826 C   0  0  0  0  0  0  0  0  0  0  0  0
   17.9477   -7.6231  -17.4033 O   0  0  0  0  0  0  0  0  0  0  0  0
   16.0086   -8.5943  -16.3240 C   0  0  0  0  0  0  0  0  0  0  0  0
   16.3882   -9.1382  -14.9767 C   0  0  2  0  0  0  0  0  0  0  0  0
   15.2641   -9.1532  -14.0623 N   0  0  0  0  0  0  0  0  0  0  0  0
   17.5506   -8.4504  -14.3636 C   0  0  0  0  0  0  0  0  0  0  0  0
   17.4324   -7.4659  -13.5957 O   0  0  0  0  0  0  0  0  0  0  0  0
   21.7493   -9.5386  -15.2442 C   0  0  0  0  0  0  0  0  0  0  0  0
   21.2104   -9.2370  -13.8632 C   0  0  1  0  0  0  0  0  0  0  0  0
   22.3479   -8.6191  -13.0727 C   0  0  0  0  0  0  0  0  0  0  0  0
   20.0609   -8.3002  -13.9904 C   0  0  2  0  0  0  0  0  0  0  0  0
   18.8999   -8.8841  -14.6224 N   0  0  0  0  0  0  0  0  0  0  0  0
   20.4772   -7.0400  -14.6234 C   0  0  0  0  0  0  0  0  0  0  0  0
   21.1876   -6.1131  -13.8855 O   0  0  0  0  0  0  0  0  0  0  0  0
   20.2053   -6.7847  -15.8155 O   0  0  0  0  0  0  0  0  0  0  0  0
  1  2  1  0
  2  3  2  0
  4  5  1  0
  4  2  1  0
  5  6  1  1
  7  5  1  0
  8  7  2  0
  9 10  1  0
 10 11  2  0
 10 12  1  0
 13 12  1  6
 13 15  1  0
 13 14  1  0
 14  7  1  0
 15 21  1  0
 16 15  2  0
 18 17  1  6
 19 18  1  0
 20 18  1  0
 20 22  1  0
 20 21  1  6
 22 24  2  0
 22 23  1  0
M  END
$$$$
