NNV.pdb
     RDKit          3D

 24 23  0  0  1  0  0  0  0  0999 V2000
   11.8768  -11.3001  -16.3136 N   0  0  0  0  0  0  0  0  0  0  0  0
   12.8710  -12.2197  -15.8793 C   0  0  0  0  0  0  0  0  0  0  0  0
   13.0569  -13.2313  -16.6112 O   0  0  0  0  0  0  0  0  0  0  0  0
   13.6713  -12.0455  -14.6441 C   0  0  0  0  0  0  0  0  0  0  0  0
   15.1075  -11.9012  -15.0179 C   0  0  2  0  0  0  0  0  0  0  0  0
   15.7010  -13.2125  -15.1798 N   0  0  0  0  0  0  0  0  0  0  0  0
   15.8886  -11.1013  -14.0260 C   0  0  0  0  0  0  0  0  0  0  0  0
   16.1849  -11.6644  -12.9264 O   0  0  0  0  0  0  0  0  0  0  0  0
   20.0955   -8.0059  -12.3028 N   0  0  0  0  0  0  0  0  0  0  0  0
   18.9926   -7.5135  -13.0752 C   0  0  0  0  0  0  0  0  0  0  0  0
   18.7215   -6.2944  -12.9128 O   0  0  0  0  0  0  0  0  0  0  0  0
   18.2638   -8.4201  -13.9805 C   0  0  0  0  0  0  0  0  0  0  0  0
   16.9973   -8.9654  -13.3857 C   0  0  2  0  0  0  0  0  0  0  0  0
   16.2632   -9.7826  -14.3308 N   0  0  0  0  0  0  0  0  0  0  0  0
   16.1173   -7.9234  -12.8028 C   0  0  0  0  0  0  0  0  0  0  0  0
   15.3897   -7.1775  -13.5008 O   0  0  0  0  0  0  0  0  0  0  0  0
   13.8782   -8.3328   -9.6085 C   0  0  0  0  0  0  0  0  0  0  0  0
   14.6829   -7.0626   -9.4430 C   0  0  1  0  0  0  0  0  0  0  0  0
   15.7762   -7.3629   -8.4355 C   0  0  0  0  0  0  0  0  0  0  0  0
   15.2483   -6.6768  -10.7646 C   0  0  2  0  0  0  0  0  0  0  0  0
   16.0508   -7.7093  -11.3796 N   0  0  0  0  0  0  0  0  0  0  0  0
   15.9510   -5.3879  -10.6797 C   0  0  0  0  0  0  0  0  0  0  0  0
   17.3082   -5.3378  -10.9322 O   0  0  0  0  0  0  0  0  0  0  0  0
   15.3508   -4.3329  -10.3849 O   0  0  0  0  0  0  0  0  0  0  0  0
  1  2  1  0
  2  3  2  0
  4  5  1  0
  4  2  1  0
  5  6  1  1
  7  5  1  0
  8  7  2  0
  9 10  1  0
 10 11  2  0
 10 12  1  0
 13 12  1  6
 13 15  1  0
 13 14  1  0
 14  7  1  0
 15 21  1  0
 16 15  2  0
 18 17  1  6
 19 18  1  0
 20 18  1  0
 20 22  1  0
 20 21  1  1
 22 24  2  0
 22 23  1  0
M  END
$$$$
