NNV.pdb
     RDKit          3D

 24 23  0  0  1  0  0  0  0  0999 V2000
   14.5585  -22.9031   -4.7126 N   0  0  0  0  0  0  0  0  0  0  0  0
   13.5194  -23.5160   -3.9594 C   0  0  0  0  0  0  0  0  0  0  0  0
   12.7544  -24.2964   -4.5913 O   0  0  0  0  0  0  0  0  0  0  0  0
   13.3044  -23.2844   -2.5114 C   0  0  0  0  0  0  0  0  0  0  0  0
   14.3071  -22.2918   -2.0291 C   0  0  2  0  0  0  0  0  0  0  0  0
   15.6435  -22.7971   -2.2671 N   0  0  0  0  0  0  0  0  0  0  0  0
   14.1363  -21.9483   -0.5845 C   0  0  0  0  0  0  0  0  0  0  0  0
   13.0378  -21.4120   -0.2385 O   0  0  0  0  0  0  0  0  0  0  0  0
   16.5896  -24.7515    3.6709 N   0  0  0  0  0  0  0  0  0  0  0  0
   16.1320  -24.1021    2.4774 C   0  0  0  0  0  0  0  0  0  0  0  0
   16.8556  -24.2700    1.4603 O   0  0  0  0  0  0  0  0  0  0  0  0
   14.8920  -23.3057    2.5008 C   0  0  0  0  0  0  0  0  0  0  0  0
   15.0013  -22.0099    1.7498 C   0  0  2  0  0  0  0  0  0  0  0  0
   15.1697  -22.2215    0.3262 N   0  0  0  0  0  0  0  0  0  0  0  0
   16.0561  -21.1072    2.2718 C   0  0  0  0  0  0  0  0  0  0  0  0
   17.2768  -21.2816    2.0427 O   0  0  0  0  0  0  0  0  0  0  0  0
   17.3259  -18.0205    1.5640 C   0  0  0  0  0  0  0  0  0  0  0  0
   16.8533  -17.7801    2.9808 C   0  0  1  0  0  0  0  0  0  0  0  0
   15.5200  -17.0637    2.8839 C   0  0  0  0  0  0  0  0  0  0  0  0
   16.7204  -19.0916    3.6717 C   0  0  2  0  0  0  0  0  0  0  0  0
   15.7288  -19.9628    3.0836 N   0  0  0  0  0  0  0  0  0  0  0  0
   16.5265  -18.9068    5.1176 C   0  0  0  0  0  0  0  0  0  0  0  0
   15.4034  -19.4353    5.7239 O   0  0  0  0  0  0  0  0  0  0  0  0
   17.3539  -18.2829    5.8149 O   0  0  0  0  0  0  0  0  0  0  0  0
  1  2  1  0
  2  3  2  0
  4  5  1  0
  4  2  1  0
  5  6  1  1
  7  5  1  0
  8  7  2  0
  9 10  1  0
 10 11  2  0
 10 12  1  0
 13 12  1  1
 13 15  1  0
 13 14  1  0
 14  7  1  0
 15 21  1  0
 16 15  2  0
 18 17  1  6
 19 18  1  0
 20 18  1  0
 20 22  1  0
 20 21  1  6
 22 24  2  0
 22 23  1  0
M  END
$$$$
