NNV.pdb
     RDKit          3D

 24 23  0  0  1  0  0  0  0  0999 V2000
   20.4922  -12.0945  -15.3208 N   0  0  0  0  0  0  0  0  0  0  0  0
   19.1702  -11.7902  -15.7477 C   0  0  0  0  0  0  0  0  0  0  0  0
   18.7308  -12.4540  -16.7275 O   0  0  0  0  0  0  0  0  0  0  0  0
   18.3153  -10.7604  -15.1113 C   0  0  0  0  0  0  0  0  0  0  0  0
   17.0624  -11.4076  -14.6270 C   0  0  2  0  0  0  0  0  0  0  0  0
   16.2472  -11.7951  -15.7598 N   0  0  0  0  0  0  0  0  0  0  0  0
   16.2773  -10.5346  -13.7022 C   0  0  0  0  0  0  0  0  0  0  0  0
   15.8393   -9.4366  -14.1678 O   0  0  0  0  0  0  0  0  0  0  0  0
   13.6989   -8.7758   -9.5951 N   0  0  0  0  0  0  0  0  0  0  0  0
   13.5176  -10.1945   -9.6950 C   0  0  0  0  0  0  0  0  0  0  0  0
   12.6110  -10.6755   -8.9651 O   0  0  0  0  0  0  0  0  0  0  0  0
   14.3650  -10.9833  -10.6073 C   0  0  0  0  0  0  0  0  0  0  0  0
   15.2697  -10.1403  -11.4593 C   0  0  2  0  0  0  0  0  0  0  0  0
   16.0519  -10.9432  -12.3777 N   0  0  0  0  0  0  0  0  0  0  0  0
   16.1481   -9.2351  -10.6789 C   0  0  0  0  0  0  0  0  0  0  0  0
   17.0654   -9.6524   -9.9323 O   0  0  0  0  0  0  0  0  0  0  0  0
   18.3966   -6.9117  -12.0500 C   0  0  0  0  0  0  0  0  0  0  0  0
   17.6451   -6.0199  -11.0866 C   0  0  1  0  0  0  0  0  0  0  0  0
   16.6987   -5.1744  -11.9171 C   0  0  0  0  0  0  0  0  0  0  0  0
   16.9070   -6.8746  -10.1171 C   0  0  2  0  0  0  0  0  0  0  0  0
   15.9914   -7.8041  -10.7383 N   0  0  0  0  0  0  0  0  0  0  0  0
   16.2655   -6.0565   -9.0772 C   0  0  0  0  0  0  0  0  0  0  0  0
   17.0514   -5.4031   -8.1478 O   0  0  0  0  0  0  0  0  0  0  0  0
   15.0240   -5.9355   -9.0120 O   0  0  0  0  0  0  0  0  0  0  0  0
  1  2  1  0
  2  3  2  0
  4  5  1  0
  4  2  1  0
  5  6  1  6
  7  5  1  0
  8  7  2  0
  9 10  1  0
 10 11  2  0
 10 12  1  0
 13 12  1  1
 13 15  1  0
 13 14  1  0
 14  7  1  0
 15 21  1  0
 16 15  2  0
 18 17  1  6
 19 18  1  0
 20 18  1  0
 20 22  1  0
 20 21  1  6
 22 24  2  0
 22 23  1  0
M  END
$$$$
