NNV.pdb
     RDKit          3D

 24 23  0  0  1  0  0  0  0  0999 V2000
   27.7229  -23.0944  -15.1239 N   0  0  0  0  0  0  0  0  0  0  0  0
   27.2090  -21.8230  -15.5008 C   0  0  0  0  0  0  0  0  0  0  0  0
   28.0610  -20.9236  -15.7436 O   0  0  0  0  0  0  0  0  0  0  0  0
   25.7629  -21.5200  -15.6166 C   0  0  0  0  0  0  0  0  0  0  0  0
   24.9902  -22.7797  -15.4185 C   0  0  2  0  0  0  0  0  0  0  0  0
   25.4182  -23.7688  -16.3861 N   0  0  0  0  0  0  0  0  0  0  0  0
   23.5124  -22.5755  -15.5101 C   0  0  0  0  0  0  0  0  0  0  0  0
   23.0881  -21.7778  -16.4033 O   0  0  0  0  0  0  0  0  0  0  0  0
   21.3302  -26.7566  -14.8886 N   0  0  0  0  0  0  0  0  0  0  0  0
   20.7782  -25.5127  -15.3398 C   0  0  0  0  0  0  0  0  0  0  0  0
   20.5437  -25.4428  -16.5753 O   0  0  0  0  0  0  0  0  0  0  0  0
   20.5246  -24.4263  -14.3765 C   0  0  0  0  0  0  0  0  0  0  0  0
   21.2157  -23.1412  -14.7314 C   0  0  2  0  0  0  0  0  0  0  0  0
   22.6567  -23.2547  -14.6278 N   0  0  0  0  0  0  0  0  0  0  0  0
   20.7276  -21.9711  -13.9617 C   0  0  0  0  0  0  0  0  0  0  0  0
   20.9554  -21.8174  -12.7379 O   0  0  0  0  0  0  0  0  0  0  0  0
   21.8303  -18.8238  -14.0403 C   0  0  0  0  0  0  0  0  0  0  0  0
   20.3713  -18.5264  -14.3074 C   0  0  1  0  0  0  0  0  0  0  0  0
   20.2476  -18.2276  -15.7892 C   0  0  0  0  0  0  0  0  0  0  0  0
   19.5607  -19.7127  -13.9193 C   0  0  2  0  0  0  0  0  0  0  0  0
   19.9525  -20.9315  -14.5896 N   0  0  0  0  0  0  0  0  0  0  0  0
   18.1230  -19.4320  -14.0482 C   0  0  0  0  0  0  0  0  0  0  0  0
   17.3621  -20.1808  -14.9249 O   0  0  0  0  0  0  0  0  0  0  0  0
   17.5693  -18.5315  -13.3829 O   0  0  0  0  0  0  0  0  0  0  0  0
  1  2  1  0
  2  3  2  0
  4  5  1  0
  4  2  1  0
  5  6  1  6
  7  5  1  0
  8  7  2  0
  9 10  1  0
 10 11  2  0
 10 12  1  0
 13 12  1  1
 13 15  1  0
 13 14  1  0
 14  7  1  0
 15 21  1  0
 16 15  2  0
 18 17  1  6
 19 18  1  0
 20 18  1  0
 20 22  1  0
 20 21  1  6
 22 24  2  0
 22 23  1  0
M  END
$$$$
