NNV.pdb
     RDKit          3D

 24 23  0  0  1  0  0  0  0  0999 V2000
   16.4191  -14.3664  -16.3525 N   0  0  0  0  0  0  0  0  0  0  0  0
   16.3518  -12.9532  -16.4974 C   0  0  0  0  0  0  0  0  0  0  0  0
   15.2718  -12.4041  -16.1427 O   0  0  0  0  0  0  0  0  0  0  0  0
   17.4601  -12.1257  -17.0297 C   0  0  0  0  0  0  0  0  0  0  0  0
   18.2041  -11.5247  -15.8858 C   0  0  2  0  0  0  0  0  0  0  0  0
   17.5719  -11.9085  -14.6405 N   0  0  0  0  0  0  0  0  0  0  0  0
   18.3039  -10.0361  -15.9754 C   0  0  0  0  0  0  0  0  0  0  0  0
   18.7511   -9.5456  -17.0586 O   0  0  0  0  0  0  0  0  0  0  0  0
   15.3319   -6.2076  -15.9269 N   0  0  0  0  0  0  0  0  0  0  0  0
   15.6396   -7.1844  -14.9236 C   0  0  0  0  0  0  0  0  0  0  0  0
   14.7555   -8.0613  -14.7349 O   0  0  0  0  0  0  0  0  0  0  0  0
   16.9194   -7.1152  -14.1956 C   0  0  0  0  0  0  0  0  0  0  0  0
   18.0492   -7.8000  -14.9095 C   0  0  2  0  0  0  0  0  0  0  0  0
   17.9099   -9.2422  -14.8861 N   0  0  0  0  0  0  0  0  0  0  0  0
   19.3912   -7.3972  -14.4229 C   0  0  0  0  0  0  0  0  0  0  0  0
   19.8389   -7.7351  -13.3011 O   0  0  0  0  0  0  0  0  0  0  0  0
   23.9515   -5.8493  -15.3440 C   0  0  0  0  0  0  0  0  0  0  0  0
   22.5972   -6.2120  -15.9119 C   0  0  1  0  0  0  0  0  0  0  0  0
   22.7304   -7.5970  -16.5158 C   0  0  0  0  0  0  0  0  0  0  0  0
   21.5938   -6.1889  -14.8130 C   0  0  2  0  0  0  0  0  0  0  0  0
   20.2664   -6.5825  -15.2267 N   0  0  0  0  0  0  0  0  0  0  0  0
   21.6094   -4.8952  -14.1140 C   0  0  0  0  0  0  0  0  0  0  0  0
   22.5296   -4.6802  -13.1064 O   0  0  0  0  0  0  0  0  0  0  0  0
   20.8101   -3.9818  -14.4089 O   0  0  0  0  0  0  0  0  0  0  0  0
  1  2  1  0
  2  3  2  0
  4  5  1  0
  4  2  1  0
  5  6  1  1
  7  5  1  0
  8  7  2  0
  9 10  1  0
 10 11  2  0
 10 12  1  0
 13 12  1  1
 13 15  1  0
 13 14  1  0
 14  7  1  0
 15 21  1  0
 16 15  2  0
 18 17  1  1
 19 18  1  0
 20 18  1  0
 20 22  1  0
 20 21  1  6
 22 24  2  0
 22 23  1  0
M  END
$$$$
