NNV.pdb
     RDKit          3D

 24 23  0  0  1  0  0  0  0  0999 V2000
   14.9674  -13.1205  -19.1600 N   0  0  0  0  0  0  0  0  0  0  0  0
   15.5012  -13.7625  -18.0087 C   0  0  0  0  0  0  0  0  0  0  0  0
   15.3000  -15.0054  -17.9161 O   0  0  0  0  0  0  0  0  0  0  0  0
   16.2586  -13.0567  -16.9483 C   0  0  0  0  0  0  0  0  0  0  0  0
   17.7024  -13.0375  -17.3202 C   0  0  2  0  0  0  0  0  0  0  0  0
   18.2369  -14.3824  -17.2604 N   0  0  0  0  0  0  0  0  0  0  0  0
   18.5122  -12.1228  -16.4590 C   0  0  0  0  0  0  0  0  0  0  0  0
   18.0459  -11.8364  -15.3125 O   0  0  0  0  0  0  0  0  0  0  0  0
   24.1676  -10.6103  -15.0981 N   0  0  0  0  0  0  0  0  0  0  0  0
   22.7447  -10.5595  -14.9300 C   0  0  0  0  0  0  0  0  0  0  0  0
   22.3336   -9.7605  -14.0475 O   0  0  0  0  0  0  0  0  0  0  0  0
   21.8734  -11.4084  -15.7624 C   0  0  0  0  0  0  0  0  0  0  0  0
   20.5662  -10.7580  -16.1133 C   0  0  2  0  0  0  0  0  0  0  0  0
   19.7352  -11.6189  -16.9307 N   0  0  0  0  0  0  0  0  0  0  0  0
   20.7161   -9.4244  -16.7449 C   0  0  0  0  0  0  0  0  0  0  0  0
   21.2154   -9.2622  -17.8840 O   0  0  0  0  0  0  0  0  0  0  0  0
   18.1497   -6.2640  -16.3514 C   0  0  0  0  0  0  0  0  0  0  0  0
   19.3101   -6.3460  -17.3183 C   0  0  1  0  0  0  0  0  0  0  0  0
   19.5662   -4.9372  -17.8183 C   0  0  0  0  0  0  0  0  0  0  0  0
   20.4935   -6.8958  -16.6026 C   0  0  2  0  0  0  0  0  0  0  0  0
   20.2890   -8.2242  -16.0719 N   0  0  0  0  0  0  0  0  0  0  0  0
   20.9811   -5.9492  -15.5885 C   0  0  0  0  0  0  0  0  0  0  0  0
   21.6810   -4.8276  -15.9890 O   0  0  0  0  0  0  0  0  0  0  0  0
   20.7777   -6.1326  -14.3698 O   0  0  0  0  0  0  0  0  0  0  0  0
  1  2  1  0
  2  3  2  0
  4  5  1  0
  4  2  1  0
  5  6  1  1
  7  5  1  0
  8  7  2  0
  9 10  1  0
 10 11  2  0
 10 12  1  0
 13 12  1  6
 13 15  1  0
 13 14  1  0
 14  7  1  0
 15 21  1  0
 16 15  2  0
 18 17  1  1
 19 18  1  0
 20 18  1  0
 20 22  1  0
 20 21  1  1
 22 24  2  0
 22 23  1  0
M  END
$$$$
