NNV.pdb
     RDKit          3D

 24 23  0  0  1  0  0  0  0  0999 V2000
   14.0971  -12.6268   -9.4893 N   0  0  0  0  0  0  0  0  0  0  0  0
   15.3037  -12.5415  -10.2373 C   0  0  0  0  0  0  0  0  0  0  0  0
   15.9278  -13.6237  -10.4196 O   0  0  0  0  0  0  0  0  0  0  0  0
   15.8411  -11.2772  -10.7932 C   0  0  0  0  0  0  0  0  0  0  0  0
   14.9737  -10.1491  -10.3483 C   0  0  2  0  0  0  0  0  0  0  0  0
   13.6375  -10.3258  -10.8787 N   0  0  0  0  0  0  0  0  0  0  0  0
   15.5117   -8.8116  -10.7430 C   0  0  0  0  0  0  0  0  0  0  0  0
   15.3982   -8.4740  -11.9624 O   0  0  0  0  0  0  0  0  0  0  0  0
   16.1472   -3.3721  -10.1100 N   0  0  0  0  0  0  0  0  0  0  0  0
   16.9031   -4.3296   -9.3568 C   0  0  0  0  0  0  0  0  0  0  0  0
   18.0438   -3.9456   -8.9860 O   0  0  0  0  0  0  0  0  0  0  0  0
   16.3313   -5.6570   -9.0676 C   0  0  0  0  0  0  0  0  0  0  0  0
   16.6428   -6.6825  -10.1195 C   0  0  2  0  0  0  0  0  0  0  0  0
   16.1125   -7.9871   -9.7779 N   0  0  0  0  0  0  0  0  0  0  0  0
   18.0856   -6.7758  -10.4504 C   0  0  0  0  0  0  0  0  0  0  0  0
   18.9388   -7.2360   -9.6545 O   0  0  0  0  0  0  0  0  0  0  0  0
   21.6239   -7.5391  -13.5943 C   0  0  0  0  0  0  0  0  0  0  0  0
   20.1557   -7.4829  -13.2341 C   0  0  1  0  0  0  0  0  0  0  0  0
   19.7553   -8.8804  -12.8017 C   0  0  0  0  0  0  0  0  0  0  0  0
   19.9682   -6.4960  -12.1360 C   0  0  2  0  0  0  0  0  0  0  0  0
   18.5921   -6.3351  -11.7251 N   0  0  0  0  0  0  0  0  0  0  0  0
   20.6154   -5.2167  -12.4627 C   0  0  0  0  0  0  0  0  0  0  0  0
   21.9918   -5.1174  -12.3982 O   0  0  0  0  0  0  0  0  0  0  0  0
   19.9514   -4.2137  -12.7990 O   0  0  0  0  0  0  0  0  0  0  0  0
  1  2  1  0
  2  3  2  0
  4  5  1  0
  4  2  1  0
  5  6  1  6
  7  5  1  0
  8  7  2  0
  9 10  1  0
 10 11  2  0
 10 12  1  0
 13 12  1  1
 13 15  1  0
 13 14  1  0
 14  7  1  0
 15 21  1  0
 16 15  2  0
 18 17  1  1
 19 18  1  0
 20 18  1  0
 20 22  1  0
 20 21  1  6
 22 24  2  0
 22 23  1  0
M  END
$$$$
