NNV.pdb
     RDKit          3D

 24 23  0  0  1  0  0  0  0  0999 V2000
   25.7060  -18.2293  -20.5196 N   0  0  0  0  0  0  0  0  0  0  0  0
   26.7450  -18.4818  -19.5818 C   0  0  0  0  0  0  0  0  0  0  0  0
   26.9961  -19.6944  -19.3365 O   0  0  0  0  0  0  0  0  0  0  0  0
   27.5196  -17.4160  -18.9033 C   0  0  0  0  0  0  0  0  0  0  0  0
   26.8712  -16.1016  -19.1772 C   0  0  2  0  0  0  0  0  0  0  0  0
   26.7770  -15.8956  -20.6077 N   0  0  0  0  0  0  0  0  0  0  0  0
   27.5873  -14.9559  -18.5380 C   0  0  0  0  0  0  0  0  0  0  0  0
   27.7182  -14.9816  -17.2746 O   0  0  0  0  0  0  0  0  0  0  0  0
   32.2967  -13.0882  -18.9737 N   0  0  0  0  0  0  0  0  0  0  0  0
   31.0346  -13.3694  -19.5931 C   0  0  0  0  0  0  0  0  0  0  0  0
   30.9388  -14.5035  -20.1324 O   0  0  0  0  0  0  0  0  0  0  0  0
   29.9604  -12.3604  -19.5683 C   0  0  0  0  0  0  0  0  0  0  0  0
   28.7712  -12.7754  -18.7506 C   0  0  2  0  0  0  0  0  0  0  0  0
   28.0827  -13.9097  -19.3331 N   0  0  0  0  0  0  0  0  0  0  0  0
   27.8200  -11.6698  -18.4806 C   0  0  0  0  0  0  0  0  0  0  0  0
   26.9724  -11.2803  -19.3189 O   0  0  0  0  0  0  0  0  0  0  0  0
   25.2411   -9.1700  -15.1858 C   0  0  0  0  0  0  0  0  0  0  0  0
   26.4987   -9.9833  -15.3987 C   0  0  1  0  0  0  0  0  0  0  0  0
   26.2107  -11.3809  -14.8848 C   0  0  0  0  0  0  0  0  0  0  0  0
   26.8253   -9.9913  -16.8507 C   0  0  2  0  0  0  0  0  0  0  0  0
   27.8195  -10.9730  -17.2196 N   0  0  0  0  0  0  0  0  0  0  0  0
   27.1619   -8.6394  -17.3213 C   0  0  0  0  0  0  0  0  0  0  0  0
   26.1484   -7.7853  -17.7107 O   0  0  0  0  0  0  0  0  0  0  0  0
   28.3443   -8.2409  -17.3777 O   0  0  0  0  0  0  0  0  0  0  0  0
  1  2  1  0
  2  3  2  0
  4  5  1  0
  4  2  1  0
  5  6  1  6
  7  5  1  0
  8  7  2  0
  9 10  1  0
 10 11  2  0
 10 12  1  0
 13 12  1  6
 13 15  1  0
 13 14  1  0
 14  7  1  0
 15 21  1  0
 16 15  2  0
 18 17  1  6
 19 18  1  0
 20 18  1  0
 20 22  1  0
 20 21  1  1
 22 24  2  0
 22 23  1  0
M  END
$$$$
