NNV.pdb
     RDKit          3D

 24 23  0  0  1  0  0  0  0  0999 V2000
   25.5259  -33.5166   -9.2982 N   0  0  0  0  0  0  0  0  0  0  0  0
   24.9713  -34.2935   -8.2439 C   0  0  0  0  0  0  0  0  0  0  0  0
   24.1245  -35.1683   -8.5779 O   0  0  0  0  0  0  0  0  0  0  0  0
   25.3341  -34.1247   -6.8170 C   0  0  0  0  0  0  0  0  0  0  0  0
   26.3096  -33.0033   -6.6981 C   0  0  2  0  0  0  0  0  0  0  0  0
   26.9187  -32.7512   -7.9878 N   0  0  0  0  0  0  0  0  0  0  0  0
   27.3651  -33.2577   -5.6710 C   0  0  0  0  0  0  0  0  0  0  0  0
   27.7527  -32.2678   -4.9753 O   0  0  0  0  0  0  0  0  0  0  0  0
   27.8999  -33.4355   -2.1976 N   0  0  0  0  0  0  0  0  0  0  0  0
   27.6690  -34.8505   -2.1943 C   0  0  0  0  0  0  0  0  0  0  0  0
   27.0965  -35.3015   -1.1672 O   0  0  0  0  0  0  0  0  0  0  0  0
   28.0952  -35.6695   -3.3432 C   0  0  0  0  0  0  0  0  0  0  0  0
   28.7824  -34.8772   -4.4180 C   0  0  2  0  0  0  0  0  0  0  0  0
   27.8853  -34.5520   -5.5086 N   0  0  0  0  0  0  0  0  0  0  0  0
   30.0176  -35.5180   -4.9316 C   0  0  0  0  0  0  0  0  0  0  0  0
   30.0027  -36.5268   -5.6767 O   0  0  0  0  0  0  0  0  0  0  0  0
   32.8925  -33.5796   -6.4794 C   0  0  0  0  0  0  0  0  0  0  0  0
   33.5522  -34.5444   -5.5190 C   0  0  1  0  0  0  0  0  0  0  0  0
   34.0363  -33.7262   -4.3372 C   0  0  0  0  0  0  0  0  0  0  0  0
   32.5536  -35.5669   -5.1038 C   0  0  2  0  0  0  0  0  0  0  0  0
   31.3221  -35.0068   -4.5959 N   0  0  0  0  0  0  0  0  0  0  0  0
   33.1537  -36.5444   -4.1837 C   0  0  0  0  0  0  0  0  0  0  0  0
   32.7058  -36.6106   -2.8786 O   0  0  0  0  0  0  0  0  0  0  0  0
   34.0605  -37.3202   -4.5525 O   0  0  0  0  0  0  0  0  0  0  0  0
  1  2  1  0
  2  3  2  0
  4  5  1  0
  4  2  1  0
  5  6  1  6
  7  5  1  0
  8  7  2  0
  9 10  1  0
 10 11  2  0
 10 12  1  0
 13 12  1  1
 13 15  1  0
 13 14  1  0
 14  7  1  0
 15 21  1  0
 16 15  2  0
 18 17  1  6
 19 18  1  0
 20 18  1  0
 20 22  1  0
 20 21  1  1
 22 24  2  0
 22 23  1  0
M  END
$$$$
