NNV.pdb
     RDKit          3D

 24 23  0  0  1  0  0  0  0  0999 V2000
   31.7087  -21.9391  -10.8371 N   0  0  0  0  0  0  0  0  0  0  0  0
   30.5915  -21.3406  -10.1919 C   0  0  0  0  0  0  0  0  0  0  0  0
   30.4592  -21.5834   -8.9602 O   0  0  0  0  0  0  0  0  0  0  0  0
   29.6087  -20.4725  -10.8825 C   0  0  0  0  0  0  0  0  0  0  0  0
   28.5526  -21.3311  -11.4912 C   0  0  2  0  0  0  0  0  0  0  0  0
   29.1285  -22.1287  -12.5542 N   0  0  0  0  0  0  0  0  0  0  0  0
   27.3913  -20.5451  -12.0085 C   0  0  0  0  0  0  0  0  0  0  0  0
   26.8025  -19.7691  -11.1930 O   0  0  0  0  0  0  0  0  0  0  0  0
   27.9009  -18.3848  -14.7769 N   0  0  0  0  0  0  0  0  0  0  0  0
   27.0474  -18.9754  -15.7660 C   0  0  0  0  0  0  0  0  0  0  0  0
   27.3573  -18.7308  -16.9619 O   0  0  0  0  0  0  0  0  0  0  0  0
   25.9004  -19.8027  -15.3505 C   0  0  0  0  0  0  0  0  0  0  0  0
   25.8208  -20.0088  -13.8652 C   0  0  2  0  0  0  0  0  0  0  0  0
   26.9944  -20.6838  -13.3484 N   0  0  0  0  0  0  0  0  0  0  0  0
   24.5848  -20.7013  -13.4262 C   0  0  0  0  0  0  0  0  0  0  0  0
   24.3831  -21.9239  -13.6205 O   0  0  0  0  0  0  0  0  0  0  0  0
   23.2292  -20.3231   -9.9341 C   0  0  0  0  0  0  0  0  0  0  0  0
   22.0116  -20.1839  -10.8209 C   0  0  1  0  0  0  0  0  0  0  0  0
   21.6208  -18.7184  -10.8042 C   0  0  0  0  0  0  0  0  0  0  0  0
   22.3622  -20.6406  -12.1932 C   0  0  2  0  0  0  0  0  0  0  0  0
   23.5325  -19.9942  -12.7419 N   0  0  0  0  0  0  0  0  0  0  0  0
   21.1980  -20.5595  -13.0879 C   0  0  0  0  0  0  0  0  0  0  0  0
   21.2309  -19.6972  -14.1666 O   0  0  0  0  0  0  0  0  0  0  0  0
   20.1766  -21.2528  -12.8980 O   0  0  0  0  0  0  0  0  0  0  0  0
  1  2  1  0
  2  3  2  0
  4  5  1  0
  4  2  1  0
  5  6  1  6
  7  5  1  0
  8  7  2  0
  9 10  1  0
 10 11  2  0
 10 12  1  0
 13 12  1  6
 13 15  1  0
 13 14  1  0
 14  7  1  0
 15 21  1  0
 16 15  2  0
 18 17  1  1
 19 18  1  0
 20 18  1  0
 20 22  1  0
 20 21  1  6
 22 24  2  0
 22 23  1  0
M  END
$$$$
