NNV.pdb
     RDKit          3D

 24 23  0  0  1  0  0  0  0  0999 V2000
   15.0652  -15.5065  -16.3903 N   0  0  0  0  0  0  0  0  0  0  0  0
   15.4894  -14.7537  -15.2607 C   0  0  0  0  0  0  0  0  0  0  0  0
   14.7688  -14.8388  -14.2277 O   0  0  0  0  0  0  0  0  0  0  0  0
   16.7022  -13.9020  -15.2463 C   0  0  0  0  0  0  0  0  0  0  0  0
   17.2909  -13.8800  -16.6160 C   0  0  2  0  0  0  0  0  0  0  0  0
   17.9823  -15.1278  -16.8671 N   0  0  0  0  0  0  0  0  0  0  0  0
   18.2158  -12.7261  -16.8325 C   0  0  0  0  0  0  0  0  0  0  0  0
   19.4025  -12.9909  -17.2007 O   0  0  0  0  0  0  0  0  0  0  0  0
   17.9494   -6.6860  -17.8802 N   0  0  0  0  0  0  0  0  0  0  0  0
   18.5279   -7.9925  -17.9982 C   0  0  0  0  0  0  0  0  0  0  0  0
   19.7119   -8.0218  -18.4265 O   0  0  0  0  0  0  0  0  0  0  0  0
   17.7414   -9.1830  -17.6284 C   0  0  0  0  0  0  0  0  0  0  0  0
   18.5627  -10.2651  -16.9885 C   0  0  2  0  0  0  0  0  0  0  0  0
   17.7573  -11.4146  -16.6278 N   0  0  0  0  0  0  0  0  0  0  0  0
   19.3579   -9.7995  -15.8262 C   0  0  0  0  0  0  0  0  0  0  0  0
   18.8838   -9.7089  -14.6686 O   0  0  0  0  0  0  0  0  0  0  0  0
   22.7634  -11.0200  -14.6745 C   0  0  0  0  0  0  0  0  0  0  0  0
   22.9033   -9.5194  -14.8052 C   0  0  1  0  0  0  0  0  0  0  0  0
   23.6979   -9.2605  -16.0710 C   0  0  0  0  0  0  0  0  0  0  0  0
   21.5452   -8.9152  -14.8790 C   0  0  2  0  0  0  0  0  0  0  0  0
   20.7405   -9.4202  -15.9679 N   0  0  0  0  0  0  0  0  0  0  0  0
   21.6216   -7.4468  -14.8643 C   0  0  0  0  0  0  0  0  0  0  0  0
   22.1231   -6.8053  -13.7484 O   0  0  0  0  0  0  0  0  0  0  0  0
   21.2443   -6.7614  -15.8380 O   0  0  0  0  0  0  0  0  0  0  0  0
  1  2  1  0
  2  3  2  0
  4  5  1  0
  4  2  1  0
  5  6  1  1
  7  5  1  0
  8  7  2  0
  9 10  1  0
 10 11  2  0
 10 12  1  0
 13 12  1  1
 13 15  1  0
 13 14  1  0
 14  7  1  0
 15 21  1  0
 16 15  2  0
 18 17  1  6
 19 18  1  0
 20 18  1  0
 20 22  1  0
 20 21  1  6
 22 24  2  0
 22 23  1  0
M  END
$$$$
