NNV.pdb
     RDKit          3D

 24 23  0  0  1  0  0  0  0  0999 V2000
   12.3631  -13.4158  -13.3303 N   0  0  0  0  0  0  0  0  0  0  0  0
   13.1565  -12.2486  -13.5057 C   0  0  0  0  0  0  0  0  0  0  0  0
   13.0641  -11.6709  -14.6243 O   0  0  0  0  0  0  0  0  0  0  0  0
   14.0575  -11.7005  -12.4644 C   0  0  0  0  0  0  0  0  0  0  0  0
   15.2163  -11.0395  -13.1304 C   0  0  2  0  0  0  0  0  0  0  0  0
   16.2351  -12.0264  -13.4238 N   0  0  0  0  0  0  0  0  0  0  0  0
   15.7959   -9.9267  -12.3183 C   0  0  0  0  0  0  0  0  0  0  0  0
   16.2661  -10.2220  -11.1757 O   0  0  0  0  0  0  0  0  0  0  0  0
   18.9351   -8.4246  -12.8648 N   0  0  0  0  0  0  0  0  0  0  0  0
   18.4951   -7.1699  -13.4012 C   0  0  0  0  0  0  0  0  0  0  0  0
   19.2897   -6.6199  -14.2088 O   0  0  0  0  0  0  0  0  0  0  0  0
   17.1920   -6.6120  -12.9974 C   0  0  0  0  0  0  0  0  0  0  0  0
   16.4065   -7.5225  -12.0979 C   0  0  2  0  0  0  0  0  0  0  0  0
   15.8039   -8.6187  -12.8295 N   0  0  0  0  0  0  0  0  0  0  0  0
   15.3884   -6.8180  -11.2810 C   0  0  0  0  0  0  0  0  0  0  0  0
   14.3209   -6.3684  -11.7619 O   0  0  0  0  0  0  0  0  0  0  0  0
   13.7286   -7.9410   -8.0466 C   0  0  0  0  0  0  0  0  0  0  0  0
   14.3321   -6.5864   -7.7480 C   0  0  1  0  0  0  0  0  0  0  0  0
   15.5928   -6.8347   -6.9422 C   0  0  0  0  0  0  0  0  0  0  0  0
   14.6315   -5.9001   -9.0342 C   0  0  2  0  0  0  0  0  0  0  0  0
   15.5752   -6.6092   -9.8678 N   0  0  0  0  0  0  0  0  0  0  0  0
   15.0178   -4.4998   -8.8054 C   0  0  0  0  0  0  0  0  0  0  0  0
   16.3178   -4.1056   -9.0565 O   0  0  0  0  0  0  0  0  0  0  0  0
   14.1984   -3.6540   -8.3892 O   0  0  0  0  0  0  0  0  0  0  0  0
  1  2  1  0
  2  3  2  0
  4  5  1  0
  4  2  1  0
  5  6  1  1
  7  5  1  0
  8  7  2  0
  9 10  1  0
 10 11  2  0
 10 12  1  0
 13 12  1  6
 13 15  1  0
 13 14  1  0
 14  7  1  0
 15 21  1  0
 16 15  2  0
 18 17  1  6
 19 18  1  0
 20 18  1  0
 20 22  1  0
 20 21  1  1
 22 24  2  0
 22 23  1  0
M  END
$$$$
