NNV.pdb
     RDKit          3D

 24 23  0  0  1  0  0  0  0  0999 V2000
   23.1554  -17.8810  -19.8722 N   0  0  0  0  0  0  0  0  0  0  0  0
   24.1231  -18.4377  -18.9911 C   0  0  0  0  0  0  0  0  0  0  0  0
   24.9305  -19.2661  -19.4966 O   0  0  0  0  0  0  0  0  0  0  0  0
   24.2201  -18.0969  -17.5521 C   0  0  0  0  0  0  0  0  0  0  0  0
   24.4350  -19.3506  -16.7743 C   0  0  2  0  0  0  0  0  0  0  0  0
   23.4357  -20.3305  -17.1473 N   0  0  0  0  0  0  0  0  0  0  0  0
   24.4121  -19.1287  -15.2964 C   0  0  0  0  0  0  0  0  0  0  0  0
   25.1987  -18.2487  -14.8264 O   0  0  0  0  0  0  0  0  0  0  0  0
   20.5702  -21.2616  -11.5995 N   0  0  0  0  0  0  0  0  0  0  0  0
   21.2006  -20.7015  -12.7591 C   0  0  0  0  0  0  0  0  0  0  0  0
   21.0176  -21.3352  -13.8320 O   0  0  0  0  0  0  0  0  0  0  0  0
   21.9962  -19.4663  -12.6412 C   0  0  0  0  0  0  0  0  0  0  0  0
   23.4265  -19.6355  -13.0664 C   0  0  2  0  0  0  0  0  0  0  0  0
   23.5430  -19.8811  -14.4897 N   0  0  0  0  0  0  0  0  0  0  0  0
   24.1572  -20.6714  -12.2963 C   0  0  0  0  0  0  0  0  0  0  0  0
   23.8881  -21.8940  -12.3733 O   0  0  0  0  0  0  0  0  0  0  0  0
   27.9471  -20.7916  -10.8393 C   0  0  0  0  0  0  0  0  0  0  0  0
   26.9466  -20.7858   -9.7046 C   0  0  1  0  0  0  0  0  0  0  0  0
   26.9811  -19.3973   -9.0951 C   0  0  0  0  0  0  0  0  0  0  0  0
   25.6003  -21.1103  -10.2498 C   0  0  2  0  0  0  0  0  0  0  0  0
   25.2330  -20.3221  -11.4040 N   0  0  0  0  0  0  0  0  0  0  0  0
   24.5812  -21.0731   -9.1904 C   0  0  0  0  0  0  0  0  0  0  0  0
   24.5730  -22.0591   -8.2228 O   0  0  0  0  0  0  0  0  0  0  0  0
   23.7199  -20.1699   -9.1415 O   0  0  0  0  0  0  0  0  0  0  0  0
  1  2  1  0
  2  3  2  0
  4  5  1  0
  4  2  1  0
  5  6  1  1
  7  5  1  0
  8  7  2  0
  9 10  1  0
 10 11  2  0
 10 12  1  0
 13 12  1  1
 13 15  1  0
 13 14  1  0
 14  7  1  0
 15 21  1  0
 16 15  2  0
 18 17  1  6
 19 18  1  0
 20 18  1  0
 20 22  1  0
 20 21  1  6
 22 24  2  0
 22 23  1  0
M  END
$$$$
