NNV.pdb
     RDKit          3D

 24 23  0  0  1  0  0  0  0  0999 V2000
   18.7988  -14.2803  -16.2081 N   0  0  0  0  0  0  0  0  0  0  0  0
   18.4969  -13.5043  -17.3610 C   0  0  0  0  0  0  0  0  0  0  0  0
   18.3137  -14.1430  -18.4344 O   0  0  0  0  0  0  0  0  0  0  0  0
   18.3916  -12.0260  -17.3550 C   0  0  0  0  0  0  0  0  0  0  0  0
   18.6219  -11.5330  -15.9669 C   0  0  2  0  0  0  0  0  0  0  0  0
   17.5291  -11.9544  -15.1147 N   0  0  0  0  0  0  0  0  0  0  0  0
   18.7868  -10.0491  -15.8970 C   0  0  0  0  0  0  0  0  0  0  0  0
   19.6917   -9.5281  -16.6207 O   0  0  0  0  0  0  0  0  0  0  0  0
   15.8527   -7.8758  -16.6954 N   0  0  0  0  0  0  0  0  0  0  0  0
   15.6747   -7.2772  -15.4049 C   0  0  0  0  0  0  0  0  0  0  0  0
   14.5213   -6.8277  -15.1729 O   0  0  0  0  0  0  0  0  0  0  0  0
   16.8019   -7.2209  -14.4568 C   0  0  0  0  0  0  0  0  0  0  0  0
   18.0590   -7.8483  -14.9870 C   0  0  2  0  0  0  0  0  0  0  0  0
   17.9569   -9.2923  -15.0540 N   0  0  0  0  0  0  0  0  0  0  0  0
   19.2815   -7.4450  -14.2503 C   0  0  0  0  0  0  0  0  0  0  0  0
   19.5213   -7.8125  -13.0753 O   0  0  0  0  0  0  0  0  0  0  0  0
   22.6966   -8.0494  -15.4414 C   0  0  0  0  0  0  0  0  0  0  0  0
   22.7223   -6.5808  -15.0796 C   0  0  1  0  0  0  0  0  0  0  0  0
   22.6892   -5.8062  -16.3832 C   0  0  0  0  0  0  0  0  0  0  0  0
   21.5383   -6.2745  -14.2314 C   0  0  2  0  0  0  0  0  0  0  0  0
   20.2750   -6.5952  -14.8556 N   0  0  0  0  0  0  0  0  0  0  0  0
   21.5906   -4.8912  -13.7356 C   0  0  0  0  0  0  0  0  0  0  0  0
   22.5387   -4.5444  -12.7927 O   0  0  0  0  0  0  0  0  0  0  0  0
   20.7978   -4.0177  -14.1464 O   0  0  0  0  0  0  0  0  0  0  0  0
  1  2  1  0
  2  3  2  0
  4  5  1  0
  4  2  1  0
  5  6  1  1
  7  5  1  0
  8  7  2  0
  9 10  1  0
 10 11  2  0
 10 12  1  0
 13 12  1  1
 13 15  1  0
 13 14  1  0
 14  7  1  0
 15 21  1  0
 16 15  2  0
 18 17  1  6
 19 18  1  0
 20 18  1  0
 20 22  1  0
 20 21  1  6
 22 24  2  0
 22 23  1  0
M  END
$$$$
