CHC.pdb
     RDKit          3D

 23 23  0  0  1  0  0  0  0  0999 V2000
    8.0562  -15.7556   18.4191 N   0  0  0  0  0  0  0  0  0  0  0  0
    8.2531  -14.7196   19.4064 C   0  0  1  0  0  0  0  0  0  0  0  0
    7.6896  -13.4435   18.8502 C   0  0  0  0  0  0  0  0  0  0  0  0
    7.9791  -12.0829   20.0160 S   0  0  0  0  0  0  0  0  0  0  0  0
    7.6695  -15.1130   20.7003 C   0  0  0  0  0  0  0  0  0  0  0  0
    6.4840  -15.5212   20.6832 O   0  0  0  0  0  0  0  0  0  0  0  0
    8.3639  -15.0541   21.9308 N   0  0  0  0  0  0  0  0  0  0  0  0
    8.0545  -15.6410   23.1737 C   0  0  1  0  0  0  0  0  0  0  0  0
    8.2731  -17.1266   23.3228 C   0  0  0  0  0  0  0  0  0  0  0  0
    7.8023  -17.6592   24.6269 C   0  0  0  0  0  0  0  0  0  0  0  0
    6.4404  -17.7574   24.9537 C   0  0  0  0  0  0  0  0  0  0  0  0
    6.3538  -18.2669   26.1723 N   0  0  0  0  0  0  0  0  0  0  0  0
    7.5983  -18.4999   26.6418 C   0  0  0  0  0  0  0  0  0  0  0  0
    8.4534  -18.1228   25.6859 N   0  0  0  0  0  0  0  0  0  0  0  0
    8.4718  -14.9028   24.3667 C   0  0  0  0  0  0  0  0  0  0  0  0
    9.7031  -14.6112   24.5841 O   0  0  0  0  0  0  0  0  0  0  0  0
    7.5489  -14.4684   25.3437 N   0  0  0  0  0  0  0  0  0  0  0  0
    8.0312  -13.6327   26.4322 C   0  0  1  0  0  0  0  0  0  0  0  0
    6.8612  -13.0338   27.1954 C   0  0  0  0  0  0  0  0  0  0  0  0
    5.7759  -12.2337   26.0107 S   0  0  0  0  0  0  0  0  0  0  0  0
    8.7671  -14.4876   27.3778 C   0  0  0  0  0  0  0  0  0  0  0  0
    8.8733  -15.7226   27.2043 O   0  0  0  0  0  0  0  0  0  0  0  0
    9.3632  -13.9308   28.4920 O   0  0  0  0  0  0  0  0  0  0  0  0
  2  3  1  0
  2  1  1  6
  3  4  1  0
  5  6  2  0
  5  2  1  0
  7  5  1  0
  8  7  1  0
  8  9  1  6
 10  9  1  0
 11 10  2  0
 12 11  1  0
 13 14  2  0
 13 12  1  0
 14 10  1  0
 15  8  1  0
 15 17  1  0
 16 15  2  0
 18 17  1  0
 18 21  1  0
 18 19  1  1
 20 19  1  0
 21 23  1  0
 22 21  2  0
M  END
$$$$
