CHC.pdb
     RDKit          3D

 23 23  0  0  1  0  0  0  0  0999 V2000
    4.3215  -20.0997   20.9688 N   0  0  0  0  0  0  0  0  0  0  0  0
    4.1668  -18.7306   21.4024 C   0  0  1  0  0  0  0  0  0  0  0  0
    3.6739  -18.7520   22.8209 C   0  0  0  0  0  0  0  0  0  0  0  0
    1.8633  -18.8747   22.8418 S   0  0  0  0  0  0  0  0  0  0  0  0
    5.4208  -17.9796   21.2201 C   0  0  0  0  0  0  0  0  0  0  0  0
    6.4882  -18.6150   21.3912 O   0  0  0  0  0  0  0  0  0  0  0  0
    5.4782  -16.6108   20.8702 N   0  0  0  0  0  0  0  0  0  0  0  0
    6.5938  -15.7773   20.6557 C   0  0  1  0  0  0  0  0  0  0  0  0
    6.3840  -14.5149   19.8562 C   0  0  0  0  0  0  0  0  0  0  0  0
    7.6546  -13.8712   19.4351 C   0  0  0  0  0  0  0  0  0  0  0  0
    8.0424  -12.6005   19.8889 C   0  0  0  0  0  0  0  0  0  0  0  0
    9.2114  -12.3148   19.3375 N   0  0  0  0  0  0  0  0  0  0  0  0
    9.5907  -13.3446   18.5507 C   0  0  0  0  0  0  0  0  0  0  0  0
    8.6300  -14.2709   18.6294 N   0  0  0  0  0  0  0  0  0  0  0  0
    7.4768  -15.5598   21.8025 C   0  0  0  0  0  0  0  0  0  0  0  0
    7.0324  -15.1163   22.9225 O   0  0  0  0  0  0  0  0  0  0  0  0
    8.8630  -15.8251   21.7456 N   0  0  0  0  0  0  0  0  0  0  0  0
    9.6581  -15.6279   22.9477 C   0  0  1  0  0  0  0  0  0  0  0  0
    9.2244  -16.6006   24.0320 C   0  0  0  0  0  0  0  0  0  0  0  0
   10.3753  -16.4556   25.4016 S   0  0  0  0  0  0  0  0  0  0  0  0
   11.0607  -15.9395   22.6283 C   0  0  0  0  0  0  0  0  0  0  0  0
   11.9758  -15.7955   23.4699 O   0  0  0  0  0  0  0  0  0  0  0  0
   11.3958  -16.4045   21.3720 O   0  0  0  0  0  0  0  0  0  0  0  0
  2  3  1  0
  2  1  1  1
  3  4  1  0
  5  6  2  0
  5  2  1  0
  7  5  1  0
  8  7  1  0
  8  9  1  1
 10  9  1  0
 11 10  2  0
 12 11  1  0
 13 14  2  0
 13 12  1  0
 14 10  1  0
 15  8  1  0
 15 17  1  0
 16 15  2  0
 18 17  1  0
 18 21  1  0
 18 19  1  1
 20 19  1  0
 21 23  1  0
 22 21  2  0
M  END
$$$$
