CHC.pdb
     RDKit          3D

 23 23  0  0  1  0  0  0  0  0999 V2000
   14.4279  -14.0076   17.3418 N   0  0  0  0  0  0  0  0  0  0  0  0
   13.6787  -15.1900   17.6983 C   0  0  1  0  0  0  0  0  0  0  0  0
   14.6066  -16.3668   17.6021 C   0  0  0  0  0  0  0  0  0  0  0  0
   13.7202  -17.8877   18.0442 S   0  0  0  0  0  0  0  0  0  0  0  0
   13.0530  -15.0330   19.0224 C   0  0  0  0  0  0  0  0  0  0  0  0
   13.7438  -14.4786   19.9101 O   0  0  0  0  0  0  0  0  0  0  0  0
   11.7435  -15.4662   19.3340 N   0  0  0  0  0  0  0  0  0  0  0  0
   11.0697  -15.4946   20.5711 C   0  0  1  0  0  0  0  0  0  0  0  0
    9.5638  -15.5875   20.5486 C   0  0  0  0  0  0  0  0  0  0  0  0
    8.9204  -14.4777   19.7999 C   0  0  0  0  0  0  0  0  0  0  0  0
    9.6594  -13.4494   19.1936 C   0  0  0  0  0  0  0  0  0  0  0  0
    8.8020  -12.6261   18.6112 N   0  0  0  0  0  0  0  0  0  0  0  0
    7.5468  -13.0797   18.8165 C   0  0  0  0  0  0  0  0  0  0  0  0
    7.6496  -14.2004   19.5380 N   0  0  0  0  0  0  0  0  0  0  0  0
   11.6556  -16.3367   21.6149 C   0  0  0  0  0  0  0  0  0  0  0  0
   11.7764  -17.6067   21.4695 O   0  0  0  0  0  0  0  0  0  0  0  0
   12.1218  -15.8045   22.8374 N   0  0  0  0  0  0  0  0  0  0  0  0
   12.8003  -16.6929   23.7682 C   0  0  1  0  0  0  0  0  0  0  0  0
   13.8108  -15.9165   24.5965 C   0  0  0  0  0  0  0  0  0  0  0  0
   15.0768  -15.2929   23.4876 S   0  0  0  0  0  0  0  0  0  0  0  0
   11.7999  -17.2293   24.7051 C   0  0  0  0  0  0  0  0  0  0  0  0
   10.6055  -16.8562   24.6786 O   0  0  0  0  0  0  0  0  0  0  0  0
   12.1695  -18.1702   25.6458 O   0  0  0  0  0  0  0  0  0  0  0  0
  2  3  1  0
  2  1  1  1
  3  4  1  0
  5  6  2  0
  5  2  1  0
  7  5  1  0
  8  7  1  0
  8  9  1  6
 10  9  1  0
 11 10  2  0
 12 11  1  0
 13 14  2  0
 13 12  1  0
 14 10  1  0
 15  8  1  0
 15 17  1  0
 16 15  2  0
 18 17  1  0
 18 21  1  0
 18 19  1  1
 20 19  1  0
 21 23  1  0
 22 21  2  0
M  END
$$$$
