CHC.pdb
     RDKit          3D

 23 23  0  0  1  0  0  0  0  0999 V2000
    8.1245  -15.4790   18.2235 N   0  0  0  0  0  0  0  0  0  0  0  0
    8.5173  -14.5899   19.2921 C   0  0  1  0  0  0  0  0  0  0  0  0
    8.0852  -13.2018   18.9154 C   0  0  0  0  0  0  0  0  0  0  0  0
    8.5075  -12.0428   20.2467 S   0  0  0  0  0  0  0  0  0  0  0  0
    7.9759  -15.0515   20.5818 C   0  0  0  0  0  0  0  0  0  0  0  0
    6.7430  -15.2758   20.6278 O   0  0  0  0  0  0  0  0  0  0  0  0
    8.7594  -15.2493   21.7422 N   0  0  0  0  0  0  0  0  0  0  0  0
    8.3739  -15.6469   23.0378 C   0  0  1  0  0  0  0  0  0  0  0  0
    8.6267  -17.0799   23.4370 C   0  0  0  0  0  0  0  0  0  0  0  0
    8.0444  -18.0630   22.4880 C   0  0  0  0  0  0  0  0  0  0  0  0
    6.7335  -18.5491   22.6161 C   0  0  0  0  0  0  0  0  0  0  0  0
    6.5198  -19.3987   21.6238 N   0  0  0  0  0  0  0  0  0  0  0  0
    7.6340  -19.4795   20.8653 C   0  0  0  0  0  0  0  0  0  0  0  0
    8.5388  -18.6612   21.4119 N   0  0  0  0  0  0  0  0  0  0  0  0
    8.6751  -14.7136   24.1243 C   0  0  0  0  0  0  0  0  0  0  0  0
    9.8549  -14.2378   24.2983 O   0  0  0  0  0  0  0  0  0  0  0  0
    7.6902  -14.2821   25.0401 N   0  0  0  0  0  0  0  0  0  0  0  0
    8.0714  -13.3334   26.0748 C   0  0  1  0  0  0  0  0  0  0  0  0
    6.9291  -12.3705   26.3540 C   0  0  0  0  0  0  0  0  0  0  0  0
    5.4467  -13.3378   26.6510 S   0  0  0  0  0  0  0  0  0  0  0  0
    8.3150  -14.0817   27.3186 C   0  0  0  0  0  0  0  0  0  0  0  0
    8.7032  -13.5136   28.3641 O   0  0  0  0  0  0  0  0  0  0  0  0
    8.1153  -15.4476   27.3529 O   0  0  0  0  0  0  0  0  0  0  0  0
  2  3  1  0
  2  1  1  6
  3  4  1  0
  5  6  2  0
  5  2  1  0
  7  5  1  0
  8  7  1  0
  8  9  1  1
 10  9  1  0
 11 10  2  0
 12 11  1  0
 13 14  2  0
 13 12  1  0
 14 10  1  0
 15  8  1  0
 15 17  1  0
 16 15  2  0
 18 17  1  0
 18 21  1  0
 18 19  1  1
 20 19  1  0
 21 23  1  0
 22 21  2  0
M  END
$$$$
