CHC.pdb
     RDKit          3D

 23 23  0  0  1  0  0  0  0  0999 V2000
    8.1857  -15.4722   18.1600 N   0  0  0  0  0  0  0  0  0  0  0  0
    9.1381  -15.0109   19.1433 C   0  0  1  0  0  0  0  0  0  0  0  0
    9.2572  -13.5206   19.0020 C   0  0  0  0  0  0  0  0  0  0  0  0
    7.7245  -12.7246   19.5600 S   0  0  0  0  0  0  0  0  0  0  0  0
    8.7492  -15.4507   20.4942 C   0  0  0  0  0  0  0  0  0  0  0  0
    7.5379  -15.7220   20.6718 O   0  0  0  0  0  0  0  0  0  0  0  0
    9.6530  -15.5788   21.5742 N   0  0  0  0  0  0  0  0  0  0  0  0
    9.4202  -15.9682   22.9081 C   0  0  1  0  0  0  0  0  0  0  0  0
   10.2751  -17.0743   23.4762 C   0  0  0  0  0  0  0  0  0  0  0  0
    9.5933  -18.3938   23.4868 C   0  0  0  0  0  0  0  0  0  0  0  0
    9.7725  -19.3431   22.4680 C   0  0  0  0  0  0  0  0  0  0  0  0
    9.0369  -20.4015   22.7692 N   0  0  0  0  0  0  0  0  0  0  0  0
    8.3942  -20.1741   23.9348 C   0  0  0  0  0  0  0  0  0  0  0  0
    8.7499  -18.9525   24.3451 N   0  0  0  0  0  0  0  0  0  0  0  0
    9.2036  -14.8909   23.8748 C   0  0  0  0  0  0  0  0  0  0  0  0
   10.0266  -13.9122   23.9911 O   0  0  0  0  0  0  0  0  0  0  0  0
    8.0811  -14.8635   24.7317 N   0  0  0  0  0  0  0  0  0  0  0  0
    7.9279  -13.7379   25.6404 C   0  0  1  0  0  0  0  0  0  0  0  0
    6.4605  -13.3662   25.7765 C   0  0  0  0  0  0  0  0  0  0  0  0
    6.3164  -12.1384   27.0777 S   0  0  0  0  0  0  0  0  0  0  0  0
    8.3895  -14.1565   26.9739 C   0  0  0  0  0  0  0  0  0  0  0  0
    8.8742  -13.3404   27.7897 O   0  0  0  0  0  0  0  0  0  0  0  0
    8.2934  -15.4807   27.3535 O   0  0  0  0  0  0  0  0  0  0  0  0
  2  3  1  0
  2  1  1  6
  3  4  1  0
  5  6  2  0
  5  2  1  0
  7  5  1  0
  8  7  1  0
  8  9  1  1
 10  9  1  0
 11 10  2  0
 12 11  1  0
 13 14  2  0
 13 12  1  0
 14 10  1  0
 15  8  1  0
 15 17  1  0
 16 15  2  0
 18 17  1  0
 18 21  1  0
 18 19  1  1
 20 19  1  0
 21 23  1  0
 22 21  2  0
M  END
$$$$
