CHC.pdb
     RDKit          3D

 23 23  0  0  1  0  0  0  0  0999 V2000
    9.9622  -15.6355   18.8469 N   0  0  0  0  0  0  0  0  0  0  0  0
   10.7002  -16.0774   20.0074 C   0  0  1  0  0  0  0  0  0  0  0  0
   11.9113  -15.1997   20.1418 C   0  0  0  0  0  0  0  0  0  0  0  0
   11.4042  -13.5142   20.5846 S   0  0  0  0  0  0  0  0  0  0  0  0
    9.8384  -16.0884   21.2019 C   0  0  0  0  0  0  0  0  0  0  0  0
    8.8250  -15.3505   21.1726 O   0  0  0  0  0  0  0  0  0  0  0  0
   10.0920  -16.8711   22.3519 N   0  0  0  0  0  0  0  0  0  0  0  0
    9.3414  -17.0095   23.5363 C   0  0  1  0  0  0  0  0  0  0  0  0
    9.6146  -18.2133   24.4042 C   0  0  0  0  0  0  0  0  0  0  0  0
    8.6639  -18.3449   25.5378 C   0  0  0  0  0  0  0  0  0  0  0  0
    8.2156  -17.2394   26.2780 C   0  0  0  0  0  0  0  0  0  0  0  0
    7.3852  -17.6860   27.2070 N   0  0  0  0  0  0  0  0  0  0  0  0
    7.2806  -19.0277   27.0961 C   0  0  0  0  0  0  0  0  0  0  0  0
    8.0646  -19.3979   26.0786 N   0  0  0  0  0  0  0  0  0  0  0  0
    9.1423  -15.7955   24.3291 C   0  0  0  0  0  0  0  0  0  0  0  0
   10.0941  -14.9580   24.5324 O   0  0  0  0  0  0  0  0  0  0  0  0
    7.8971  -15.4743   24.9134 N   0  0  0  0  0  0  0  0  0  0  0  0
    7.7457  -14.1793   25.5586 C   0  0  1  0  0  0  0  0  0  0  0  0
    6.2788  -13.7853   25.6120 C   0  0  0  0  0  0  0  0  0  0  0  0
    6.1460  -12.2632   26.5538 S   0  0  0  0  0  0  0  0  0  0  0  0
    8.2077  -14.3017   26.9507 C   0  0  0  0  0  0  0  0  0  0  0  0
    8.2424  -13.3169   27.7225 O   0  0  0  0  0  0  0  0  0  0  0  0
    8.6178  -15.5274   27.4368 O   0  0  0  0  0  0  0  0  0  0  0  0
  2  3  1  0
  2  1  1  6
  3  4  1  0
  5  6  2  0
  5  2  1  0
  7  5  1  0
  8  7  1  0
  8  9  1  1
 10  9  1  0
 11 10  2  0
 12 11  1  0
 13 14  2  0
 13 12  1  0
 14 10  1  0
 15  8  1  0
 15 17  1  0
 16 15  2  0
 18 17  1  0
 18 21  1  0
 18 19  1  1
 20 19  1  0
 21 23  1  0
 22 21  2  0
M  END
$$$$
