CHC.pdb
     RDKit          3D

 23 23  0  0  1  0  0  0  0  0999 V2000
    8.2106  -14.9248   16.3329 N   0  0  0  0  0  0  0  0  0  0  0  0
    8.5070  -14.3294   17.6152 C   0  0  1  0  0  0  0  0  0  0  0  0
    7.6175  -13.1307   17.7805 C   0  0  0  0  0  0  0  0  0  0  0  0
    7.8444  -12.4191   19.4346 S   0  0  0  0  0  0  0  0  0  0  0  0
    8.3742  -15.3218   18.6955 C   0  0  0  0  0  0  0  0  0  0  0  0
    7.4871  -16.1963   18.5516 O   0  0  0  0  0  0  0  0  0  0  0  0
    9.1785  -15.3361   19.8585 N   0  0  0  0  0  0  0  0  0  0  0  0
    9.4099  -16.3709   20.7863 C   0  0  1  0  0  0  0  0  0  0  0  0
   10.2135  -17.5616   20.3243 C   0  0  0  0  0  0  0  0  0  0  0  0
   10.2563  -18.6611   21.3220 C   0  0  0  0  0  0  0  0  0  0  0  0
   11.4297  -19.0098   22.0095 C   0  0  0  0  0  0  0  0  0  0  0  0
   11.1388  -20.0158   22.8191 N   0  0  0  0  0  0  0  0  0  0  0  0
    9.8322  -20.3280   22.6820 C   0  0  0  0  0  0  0  0  0  0  0  0
    9.3246  -19.4925   21.7702 N   0  0  0  0  0  0  0  0  0  0  0  0
    9.7675  -15.9619   22.1453 C   0  0  0  0  0  0  0  0  0  0  0  0
   10.7586  -15.1789   22.3762 O   0  0  0  0  0  0  0  0  0  0  0  0
    9.0461  -16.4009   23.2775 N   0  0  0  0  0  0  0  0  0  0  0  0
    9.4733  -15.9481   24.5922 C   0  0  1  0  0  0  0  0  0  0  0  0
    8.4239  -15.0329   25.2013 C   0  0  0  0  0  0  0  0  0  0  0  0
    6.8179  -15.8025   24.9778 S   0  0  0  0  0  0  0  0  0  0  0  0
    9.5797  -17.1234   25.4719 C   0  0  0  0  0  0  0  0  0  0  0  0
    9.1597  -18.2491   25.1212 O   0  0  0  0  0  0  0  0  0  0  0  0
   10.1549  -17.0009   26.7212 O   0  0  0  0  0  0  0  0  0  0  0  0
  2  3  1  0
  2  1  1  6
  3  4  1  0
  5  6  2  0
  5  2  1  0
  7  5  1  0
  8  7  1  0
  8  9  1  6
 10  9  1  0
 11 10  2  0
 12 11  1  0
 13 14  2  0
 13 12  1  0
 14 10  1  0
 15  8  1  0
 15 17  1  0
 16 15  2  0
 18 17  1  0
 18 21  1  0
 18 19  1  1
 20 19  1  0
 21 23  1  0
 22 21  2  0
M  END
$$$$
