CHC.pdb
     RDKit          3D

 23 23  0  0  1  0  0  0  0  0999 V2000
    7.4450  -15.2515   18.7088 N   0  0  0  0  0  0  0  0  0  0  0  0
    7.9105  -14.4943   19.8474 C   0  0  1  0  0  0  0  0  0  0  0  0
    7.4108  -13.0861   19.6965 C   0  0  0  0  0  0  0  0  0  0  0  0
    8.5098  -12.1580   18.5897 S   0  0  0  0  0  0  0  0  0  0  0  0
    7.5006  -15.1388   21.1068 C   0  0  0  0  0  0  0  0  0  0  0  0
    6.3249  -15.5713   21.1620 O   0  0  0  0  0  0  0  0  0  0  0  0
    8.3475  -15.2899   22.2291 N   0  0  0  0  0  0  0  0  0  0  0  0
    8.0859  -15.8617   23.4900 C   0  0  1  0  0  0  0  0  0  0  0  0
    8.4481  -17.3126   23.6920 C   0  0  0  0  0  0  0  0  0  0  0  0
    8.0766  -17.8268   25.0350 C   0  0  0  0  0  0  0  0  0  0  0  0
    7.3760  -17.0507   25.9720 C   0  0  0  0  0  0  0  0  0  0  0  0
    7.1999  -17.7893   27.0563 N   0  0  0  0  0  0  0  0  0  0  0  0
    7.7558  -19.0037   26.8571 C   0  0  0  0  0  0  0  0  0  0  0  0
    8.2781  -18.9971   25.6266 N   0  0  0  0  0  0  0  0  0  0  0  0
    8.4177  -15.0458   24.6589 C   0  0  0  0  0  0  0  0  0  0  0  0
    9.6266  -14.7019   24.9213 O   0  0  0  0  0  0  0  0  0  0  0  0
    7.4323  -14.5894   25.5620 N   0  0  0  0  0  0  0  0  0  0  0  0
    7.8281  -13.6658   26.6139 C   0  0  1  0  0  0  0  0  0  0  0  0
    6.6006  -13.0390   27.2544 C   0  0  0  0  0  0  0  0  0  0  0  0
    6.0410  -11.7033   26.1941 S   0  0  0  0  0  0  0  0  0  0  0  0
    8.5157  -14.4328   27.6652 C   0  0  0  0  0  0  0  0  0  0  0  0
    8.6319  -15.6775   27.6038 O   0  0  0  0  0  0  0  0  0  0  0  0
    9.0537  -13.7796   28.7564 O   0  0  0  0  0  0  0  0  0  0  0  0
  2  3  1  0
  2  1  1  6
  3  4  1  0
  5  6  2  0
  5  2  1  0
  7  5  1  0
  8  7  1  0
  8  9  1  1
 10  9  1  0
 11 10  2  0
 12 11  1  0
 13 14  2  0
 13 12  1  0
 14 10  1  0
 15  8  1  0
 15 17  1  0
 16 15  2  0
 18 17  1  0
 18 21  1  0
 18 19  1  1
 20 19  1  0
 21 23  1  0
 22 21  2  0
M  END
$$$$
