CHC.pdb
     RDKit          3D

 23 23  0  0  1  0  0  0  0  0999 V2000
    7.3467  -13.4113   18.4595 N   0  0  0  0  0  0  0  0  0  0  0  0
    8.3301  -14.2901   19.0489 C   0  0  1  0  0  0  0  0  0  0  0  0
    9.6701  -13.6221   18.9323 C   0  0  0  0  0  0  0  0  0  0  0  0
    9.7316  -12.1712   20.0210 S   0  0  0  0  0  0  0  0  0  0  0  0
    7.9580  -14.6390   20.4307 C   0  0  0  0  0  0  0  0  0  0  0  0
    7.3701  -13.7540   21.0967 O   0  0  0  0  0  0  0  0  0  0  0  0
    8.2247  -15.8926   21.0282 N   0  0  0  0  0  0  0  0  0  0  0  0
    7.9878  -16.3368   22.3441 C   0  0  1  0  0  0  0  0  0  0  0  0
    8.1693  -17.8069   22.6324 C   0  0  0  0  0  0  0  0  0  0  0  0
    7.6107  -18.2187   23.9456 C   0  0  0  0  0  0  0  0  0  0  0  0
    6.9286  -17.3263   24.7879 C   0  0  0  0  0  0  0  0  0  0  0  0
    6.5591  -17.9948   25.8690 N   0  0  0  0  0  0  0  0  0  0  0  0
    6.9732  -19.2753   25.7582 C   0  0  0  0  0  0  0  0  0  0  0  0
    7.6060  -19.3811   24.5853 N   0  0  0  0  0  0  0  0  0  0  0  0
    8.5140  -15.4976   23.4216 C   0  0  0  0  0  0  0  0  0  0  0  0
    9.7367  -15.1057   23.4367 O   0  0  0  0  0  0  0  0  0  0  0  0
    7.7115  -15.0700   24.5024 N   0  0  0  0  0  0  0  0  0  0  0  0
    8.3327  -14.2950   25.5651 C   0  0  1  0  0  0  0  0  0  0  0  0
    7.4976  -13.0641   25.8772 C   0  0  0  0  0  0  0  0  0  0  0  0
    5.8149  -13.6003   26.1969 S   0  0  0  0  0  0  0  0  0  0  0  0
    8.3534  -15.1193   26.7843 C   0  0  0  0  0  0  0  0  0  0  0  0
    7.8118  -16.2469   26.8267 O   0  0  0  0  0  0  0  0  0  0  0  0
    8.9822  -14.6535   27.9221 O   0  0  0  0  0  0  0  0  0  0  0  0
  2  3  1  0
  2  1  1  1
  3  4  1  0
  5  6  2  0
  5  2  1  0
  7  5  1  0
  8  7  1  0
  8  9  1  6
 10  9  1  0
 11 10  2  0
 12 11  1  0
 13 14  2  0
 13 12  1  0
 14 10  1  0
 15  8  1  0
 15 17  1  0
 16 15  2  0
 18 17  1  0
 18 21  1  0
 18 19  1  1
 20 19  1  0
 21 23  1  0
 22 21  2  0
M  END
$$$$
