CHC.pdb
     RDKit          3D

 23 23  0  0  1  0  0  0  0  0999 V2000
    8.7104  -16.9820   19.8386 N   0  0  0  0  0  0  0  0  0  0  0  0
    9.0623  -15.5812   19.8605 C   0  0  1  0  0  0  0  0  0  0  0  0
    8.0832  -14.8490   18.9884 C   0  0  0  0  0  0  0  0  0  0  0  0
    8.5590  -13.1022   18.8605 S   0  0  0  0  0  0  0  0  0  0  0  0
    9.1185  -15.0779   21.2436 C   0  0  0  0  0  0  0  0  0  0  0  0
    9.9950  -14.2172   21.4951 O   0  0  0  0  0  0  0  0  0  0  0  0
    8.2533  -15.5073   22.2764 N   0  0  0  0  0  0  0  0  0  0  0  0
    8.1310  -15.0500   23.6035 C   0  0  1  0  0  0  0  0  0  0  0  0
    6.7491  -15.0112   24.2084 C   0  0  0  0  0  0  0  0  0  0  0  0
    6.6882  -14.2451   25.4794 C   0  0  0  0  0  0  0  0  0  0  0  0
    6.7055  -12.8417   25.5152 C   0  0  0  0  0  0  0  0  0  0  0  0
    6.6377  -12.4699   26.7838 N   0  0  0  0  0  0  0  0  0  0  0  0
    6.5776  -13.5711   27.5630 C   0  0  0  0  0  0  0  0  0  0  0  0
    6.6100  -14.6294   26.7469 N   0  0  0  0  0  0  0  0  0  0  0  0
    9.1331  -15.5315   24.5554 C   0  0  0  0  0  0  0  0  0  0  0  0
    9.6581  -16.6986   24.4507 O   0  0  0  0  0  0  0  0  0  0  0  0
    9.5806  -14.7442   25.6393 N   0  0  0  0  0  0  0  0  0  0  0  0
   10.6186  -15.2806   26.5058 C   0  0  1  0  0  0  0  0  0  0  0  0
   11.1368  -14.1992   27.4395 C   0  0  0  0  0  0  0  0  0  0  0  0
    9.7251  -13.2949   28.0805 S   0  0  0  0  0  0  0  0  0  0  0  0
   10.0184  -16.3253   27.3512 C   0  0  0  0  0  0  0  0  0  0  0  0
    8.7971  -16.5942   27.2990 O   0  0  0  0  0  0  0  0  0  0  0  0
   10.8073  -17.0387   28.2318 O   0  0  0  0  0  0  0  0  0  0  0  0
  2  3  1  0
  2  1  1  1
  3  4  1  0
  5  6  2  0
  5  2  1  0
  7  5  1  0
  8  7  1  0
  8  9  1  1
 10  9  1  0
 11 10  2  0
 12 11  1  0
 13 14  2  0
 13 12  1  0
 14 10  1  0
 15  8  1  0
 15 17  1  0
 16 15  2  0
 18 17  1  0
 18 21  1  0
 18 19  1  1
 20 19  1  0
 21 23  1  0
 22 21  2  0
M  END
$$$$
