CHC.pdb
     RDKit          3D

 23 23  0  0  1  0  0  0  0  0999 V2000
   -2.2852  -20.6157   19.4043 N   0  0  0  0  0  0  0  0  0  0  0  0
   -0.9478  -21.1469   19.5292 C   0  0  1  0  0  0  0  0  0  0  0  0
   -0.2213  -20.3232   20.5535 C   0  0  0  0  0  0  0  0  0  0  0  0
   -1.0312  -20.4950   22.1687 S   0  0  0  0  0  0  0  0  0  0  0  0
   -0.9839  -22.5861   19.8406 C   0  0  0  0  0  0  0  0  0  0  0  0
   -2.0025  -23.2173   19.4711 O   0  0  0  0  0  0  0  0  0  0  0  0
    0.0486  -23.2739   20.5192 N   0  0  0  0  0  0  0  0  0  0  0  0
    0.1715  -24.6422   20.8315 C   0  0  1  0  0  0  0  0  0  0  0  0
    1.3408  -25.3943   20.2448 C   0  0  0  0  0  0  0  0  0  0  0  0
    1.6074  -25.0461   18.8257 C   0  0  0  0  0  0  0  0  0  0  0  0
    2.7780  -24.3866   18.4185 C   0  0  0  0  0  0  0  0  0  0  0  0
    2.7142  -24.2253   17.1062 N   0  0  0  0  0  0  0  0  0  0  0  0
    1.5560  -24.7515   16.6534 C   0  0  0  0  0  0  0  0  0  0  0  0
    0.9076  -25.2404   17.7153 N   0  0  0  0  0  0  0  0  0  0  0  0
   -0.0810  -25.0200   22.2228 C   0  0  0  0  0  0  0  0  0  0  0  0
   -0.1351  -26.2492   22.5898 O   0  0  0  0  0  0  0  0  0  0  0  0
   -0.2776  -24.0592   23.2394 N   0  0  0  0  0  0  0  0  0  0  0  0
   -0.6705  -24.5182   24.5626 C   0  0  1  0  0  0  0  0  0  0  0  0
   -1.9711  -25.3007   24.4846 C   0  0  0  0  0  0  0  0  0  0  0  0
   -2.4348  -25.7762   26.1520 S   0  0  0  0  0  0  0  0  0  0  0  0
    0.3602  -25.4478   25.0524 C   0  0  0  0  0  0  0  0  0  0  0  0
    0.8287  -26.3539   24.3271 O   0  0  0  0  0  0  0  0  0  0  0  0
    0.8359  -25.3332   26.3437 O   0  0  0  0  0  0  0  0  0  0  0  0
  2  3  1  0
  2  1  1  1
  3  4  1  0
  5  6  2  0
  5  2  1  0
  7  5  1  0
  8  7  1  0
  8  9  1  1
 10  9  1  0
 11 10  2  0
 12 11  1  0
 13 14  2  0
 13 12  1  0
 14 10  1  0
 15  8  1  0
 15 17  1  0
 16 15  2  0
 18 17  1  0
 18 21  1  0
 18 19  1  6
 20 19  1  0
 21 23  1  0
 22 21  2  0
M  END
$$$$
