CHC.pdb
     RDKit          3D

 23 23  0  0  1  0  0  0  0  0999 V2000
   12.3086  -16.2700   14.3520 N   0  0  0  0  0  0  0  0  0  0  0  0
   13.0915  -16.9209   15.3767 C   0  0  1  0  0  0  0  0  0  0  0  0
   14.3037  -16.0729   15.6352 C   0  0  0  0  0  0  0  0  0  0  0  0
   15.6332  -16.5332   14.4886 S   0  0  0  0  0  0  0  0  0  0  0  0
   12.2756  -17.1731   16.5767 C   0  0  0  0  0  0  0  0  0  0  0  0
   11.3905  -16.3263   16.8449 O   0  0  0  0  0  0  0  0  0  0  0  0
   12.4376  -18.2962   17.4206 N   0  0  0  0  0  0  0  0  0  0  0  0
   11.7676  -18.6373   18.6122 C   0  0  1  0  0  0  0  0  0  0  0  0
   11.5976  -20.1031   18.9275 C   0  0  0  0  0  0  0  0  0  0  0  0
   10.8034  -20.8328   17.9062 C   0  0  0  0  0  0  0  0  0  0  0  0
    9.5996  -20.3304   17.3870 C   0  0  0  0  0  0  0  0  0  0  0  0
    9.1437  -21.2067   16.5059 N   0  0  0  0  0  0  0  0  0  0  0  0
   10.0004  -22.2481   16.4365 C   0  0  0  0  0  0  0  0  0  0  0  0
   10.9940  -21.9943   17.2940 N   0  0  0  0  0  0  0  0  0  0  0  0
   12.1118  -17.8568   19.8016 C   0  0  0  0  0  0  0  0  0  0  0  0
   13.2833  -17.3577   19.9661 O   0  0  0  0  0  0  0  0  0  0  0  0
   11.1798  -17.6065   20.8329 N   0  0  0  0  0  0  0  0  0  0  0  0
   11.6118  -16.8344   21.9875 C   0  0  1  0  0  0  0  0  0  0  0  0
   10.4134  -16.4336   22.8320 C   0  0  0  0  0  0  0  0  0  0  0  0
   11.0143  -15.5003   24.2424 S   0  0  0  0  0  0  0  0  0  0  0  0
   12.4587  -17.6968   22.8274 C   0  0  0  0  0  0  0  0  0  0  0  0
   12.1874  -18.9040   23.0163 O   0  0  0  0  0  0  0  0  0  0  0  0
   13.5870  -17.1786   23.4317 O   0  0  0  0  0  0  0  0  0  0  0  0
  2  3  1  0
  2  1  1  6
  3  4  1  0
  5  6  2  0
  5  2  1  0
  7  5  1  0
  8  7  1  0
  8  9  1  1
 10  9  1  0
 11 10  2  0
 12 11  1  0
 13 14  2  0
 13 12  1  0
 14 10  1  0
 15  8  1  0
 15 17  1  0
 16 15  2  0
 18 17  1  0
 18 21  1  0
 18 19  1  1
 20 19  1  0
 21 23  1  0
 22 21  2  0
M  END
$$$$
