CHC.pdb
     RDKit          3D

 23 23  0  0  1  0  0  0  0  0999 V2000
    7.5605  -20.3524   19.9249 N   0  0  0  0  0  0  0  0  0  0  0  0
    7.6957  -19.0320   20.4948 C   0  0  1  0  0  0  0  0  0  0  0  0
    6.7148  -18.9185   21.6263 C   0  0  0  0  0  0  0  0  0  0  0  0
    5.0761  -19.4742   21.0786 S   0  0  0  0  0  0  0  0  0  0  0  0
    9.0910  -18.7734   20.8895 C   0  0  0  0  0  0  0  0  0  0  0  0
    9.6881  -19.6991   21.4886 O   0  0  0  0  0  0  0  0  0  0  0  0
    9.7734  -17.5619   20.6322 N   0  0  0  0  0  0  0  0  0  0  0  0
   11.0629  -17.1489   21.0218 C   0  0  1  0  0  0  0  0  0  0  0  0
   11.8109  -16.2182   20.0992 C   0  0  0  0  0  0  0  0  0  0  0  0
   12.0842  -16.8116   18.7653 C   0  0  0  0  0  0  0  0  0  0  0  0
   12.1715  -18.1978   18.5606 C   0  0  0  0  0  0  0  0  0  0  0  0
   12.4200  -18.4009   17.2764 N   0  0  0  0  0  0  0  0  0  0  0  0
   12.4961  -17.2079   16.6484 C   0  0  0  0  0  0  0  0  0  0  0  0
   12.2890  -16.2655   17.5736 N   0  0  0  0  0  0  0  0  0  0  0  0
   11.2341  -16.7817   22.4282 C   0  0  0  0  0  0  0  0  0  0  0  0
   12.3791  -16.4493   22.9048 O   0  0  0  0  0  0  0  0  0  0  0  0
   10.1550  -16.7697   23.3394 N   0  0  0  0  0  0  0  0  0  0  0  0
   10.4240  -16.4415   24.7307 C   0  0  1  0  0  0  0  0  0  0  0  0
    9.2005  -15.8034   25.3679 C   0  0  0  0  0  0  0  0  0  0  0  0
    8.7751  -14.3432   24.4148 S   0  0  0  0  0  0  0  0  0  0  0  0
   10.6814  -17.6950   25.4581 C   0  0  0  0  0  0  0  0  0  0  0  0
   10.5636  -18.8126   24.9072 O   0  0  0  0  0  0  0  0  0  0  0  0
   11.0642  -17.6575   26.7843 O   0  0  0  0  0  0  0  0  0  0  0  0
  2  3  1  0
  2  1  1  1
  3  4  1  0
  5  6  2  0
  5  2  1  0
  7  5  1  0
  8  7  1  0
  8  9  1  6
 10  9  1  0
 11 10  2  0
 12 11  1  0
 13 14  2  0
 13 12  1  0
 14 10  1  0
 15  8  1  0
 15 17  1  0
 16 15  2  0
 18 17  1  0
 18 21  1  0
 18 19  1  1
 20 19  1  0
 21 23  1  0
 22 21  2  0
M  END
$$$$
