CHC.pdb
     RDKit          3D

 23 23  0  0  1  0  0  0  0  0999 V2000
    7.5956  -15.5141   18.1922 N   0  0  0  0  0  0  0  0  0  0  0  0
    8.1112  -14.7459   19.3015 C   0  0  1  0  0  0  0  0  0  0  0  0
    7.6873  -13.3184   19.1067 C   0  0  0  0  0  0  0  0  0  0  0  0
    8.7822  -12.5093   17.9065 S   0  0  0  0  0  0  0  0  0  0  0  0
    7.6776  -15.3250   20.5846 C   0  0  0  0  0  0  0  0  0  0  0  0
    6.4509  -15.5494   20.7159 O   0  0  0  0  0  0  0  0  0  0  0  0
    8.5557  -15.6326   21.6495 N   0  0  0  0  0  0  0  0  0  0  0  0
    8.2729  -16.0772   22.9562 C   0  0  1  0  0  0  0  0  0  0  0  0
    8.7735  -17.4431   23.3570 C   0  0  0  0  0  0  0  0  0  0  0  0
    8.4172  -17.8108   24.7513 C   0  0  0  0  0  0  0  0  0  0  0  0
    9.3860  -18.0515   25.7385 C   0  0  0  0  0  0  0  0  0  0  0  0
    8.7519  -18.3514   26.8611 N   0  0  0  0  0  0  0  0  0  0  0  0
    7.4206  -18.3139   26.6386 C   0  0  0  0  0  0  0  0  0  0  0  0
    7.2482  -17.9844   25.3545 N   0  0  0  0  0  0  0  0  0  0  0  0
    8.4370  -15.0961   24.0299 C   0  0  0  0  0  0  0  0  0  0  0  0
    9.5582  -14.5073   24.2412 O   0  0  0  0  0  0  0  0  0  0  0  0
    7.3763  -14.7397   24.8919 N   0  0  0  0  0  0  0  0  0  0  0  0
    7.5967  -13.6798   25.8635 C   0  0  1  0  0  0  0  0  0  0  0  0
    6.2802  -13.0092   26.2198 C   0  0  0  0  0  0  0  0  0  0  0  0
    6.6133  -11.7530   27.4577 S   0  0  0  0  0  0  0  0  0  0  0  0
    8.1160  -14.2884   27.0989 C   0  0  0  0  0  0  0  0  0  0  0  0
    7.6979  -15.3918   27.5162 O   0  0  0  0  0  0  0  0  0  0  0  0
    9.0907  -13.6399   27.8312 O   0  0  0  0  0  0  0  0  0  0  0  0
  2  3  1  0
  2  1  1  6
  3  4  1  0
  5  6  2  0
  5  2  1  0
  7  5  1  0
  8  7  1  0
  8  9  1  1
 10  9  1  0
 11 10  2  0
 12 11  1  0
 13 14  2  0
 13 12  1  0
 14 10  1  0
 15  8  1  0
 15 17  1  0
 16 15  2  0
 18 17  1  0
 18 21  1  0
 18 19  1  1
 20 19  1  0
 21 23  1  0
 22 21  2  0
M  END
$$$$
