IVM.pdb
     RDKit          3D

 24 23  0  0  1  0  0  0  0  0999 V2000
   16.4574  -14.9244  -15.1697 C   0  0  0  0  0  0  0  0  0  0  0  0
   16.2822  -14.3354  -16.5470 C   0  0  0  0  0  0  0  0  0  0  0  0
   17.2448  -13.1949  -16.7648 C   0  0  2  0  0  0  0  0  0  0  0  0
   16.9517  -12.1153  -15.7234 C   0  0  0  0  0  0  0  0  0  0  0  0
   17.1424  -12.5823  -18.1221 C   0  0  2  0  0  0  0  0  0  0  0  0
   17.3034  -13.5349  -19.1945 N   0  0  0  0  0  0  0  0  0  0  0  0
   18.1544  -11.5229  -18.2577 C   0  0  0  0  0  0  0  0  0  0  0  0
   19.3803  -11.7869  -18.3618 O   0  0  0  0  0  0  0  0  0  0  0  0
   18.0602   -8.5407  -20.6029 C   0  0  0  0  0  0  0  0  0  0  0  0
   18.2974   -7.9910  -19.2271 C   0  0  1  0  0  0  0  0  0  0  0  0
   16.9849   -7.5209  -18.5870 C   0  0  0  0  0  0  0  0  0  0  0  0
   18.8338   -9.0852  -18.3283 C   0  0  2  0  0  0  0  0  0  0  0  0
   17.8273  -10.1284  -18.2813 N   0  0  0  0  0  0  0  0  0  0  0  0
   19.1420   -8.5564  -16.9731 C   0  0  0  0  0  0  0  0  0  0  0  0
   18.2307   -8.5494  -16.0931 O   0  0  0  0  0  0  0  0  0  0  0  0
   23.3715  -11.0014  -13.8510 C   0  0  0  0  0  0  0  0  0  0  0  0
   23.1475   -9.6502  -12.6514 S   0  0  0  0  0  0  0  0  0  0  0  0
   22.0911   -8.3450  -13.3600 C   0  0  0  0  0  0  0  0  0  0  0  0
   21.6135   -8.6904  -14.7271 C   0  0  0  0  0  0  0  0  0  0  0  0
   20.8264   -7.6306  -15.4181 C   0  0  2  0  0  0  0  0  0  0  0  0
   20.4559   -8.0827  -16.7365 N   0  0  0  0  0  0  0  0  0  0  0  0
   21.4736   -6.3201  -15.4866 C   0  0  0  0  0  0  0  0  0  0  0  0
   21.9534   -5.8073  -16.5237 O   0  0  0  0  0  0  0  0  0  0  0  0
   21.5749   -5.5691  -14.3246 O   0  0  0  0  0  0  0  0  0  0  0  0
  2  1  1  0
  3  5  1  0
  3  2  1  0
  3  4  1  1
  5  6  1  6
  7  5  1  0
  8  7  2  0
 10 11  1  1
 10  9  1  0
 12 10  1  0
 12 13  1  1
 13  7  1  0
 14 12  1  0
 15 14  2  0
 17 16  1  0
 17 18  1  0
 19 18  1  0
 20 19  1  6
 20 22  1  0
 20 21  1  0
 21 14  1  0
 22 24  1  0
 23 22  2  0
M  END
$$$$
