IVM.pdb
     RDKit          3D

 24 23  0  0  1  0  0  0  0  0999 V2000
   21.9025  -32.6107   -9.4396 C   0  0  0  0  0  0  0  0  0  0  0  0
   23.3146  -32.1139   -9.2555 C   0  0  0  0  0  0  0  0  0  0  0  0
   24.0970  -33.0499   -8.3687 C   0  0  2  0  0  0  0  0  0  0  0  0
   23.3937  -33.1259   -7.0138 C   0  0  0  0  0  0  0  0  0  0  0  0
   25.5075  -32.6160   -8.1451 C   0  0  2  0  0  0  0  0  0  0  0  0
   26.2839  -32.5425   -9.3597 N   0  0  0  0  0  0  0  0  0  0  0  0
   26.1607  -33.5420   -7.2065 C   0  0  0  0  0  0  0  0  0  0  0  0
   26.5021  -34.7031   -7.5508 O   0  0  0  0  0  0  0  0  0  0  0  0
   28.1098  -32.0703   -3.9564 C   0  0  0  0  0  0  0  0  0  0  0  0
   28.4111  -33.4337   -4.5054 C   0  0  1  0  0  0  0  0  0  0  0  0
   29.0243  -34.3388   -3.4292 C   0  0  0  0  0  0  0  0  0  0  0  0
   27.1232  -34.1050   -4.9337 C   0  0  2  0  0  0  0  0  0  0  0  0
   26.4546  -33.1984   -5.8472 N   0  0  0  0  0  0  0  0  0  0  0  0
   26.2737  -34.4254   -3.7561 C   0  0  0  0  0  0  0  0  0  0  0  0
   25.5814  -33.5052   -3.2279 O   0  0  0  0  0  0  0  0  0  0  0  0
   25.3465  -40.6274   -0.9676 C   0  0  0  0  0  0  0  0  0  0  0  0
   23.8025  -39.8285   -1.5087 S   0  0  0  0  0  0  0  0  0  0  0  0
   23.9907  -38.0158   -1.4949 C   0  0  0  0  0  0  0  0  0  0  0  0
   25.2867  -37.5819   -2.0853 C   0  0  0  0  0  0  0  0  0  0  0  0
   25.5183  -36.1102   -2.1120 C   0  0  2  0  0  0  0  0  0  0  0  0
   26.2849  -35.7603   -3.2824 N   0  0  0  0  0  0  0  0  0  0  0  0
   26.1369  -35.5560   -0.9073 C   0  0  0  0  0  0  0  0  0  0  0  0
   27.3700  -35.4743   -0.7035 O   0  0  0  0  0  0  0  0  0  0  0  0
   25.3130  -35.0775    0.1010 O   0  0  0  0  0  0  0  0  0  0  0  0
  2  1  1  0
  3  5  1  0
  3  2  1  0
  3  4  1  1
  5  6  1  6
  7  5  1  0
  8  7  2  0
 10 11  1  1
 10  9  1  0
 12 10  1  0
 12 13  1  6
 13  7  1  0
 14 12  1  0
 15 14  2  0
 17 16  1  0
 17 18  1  0
 19 18  1  0
 20 19  1  1
 20 22  1  0
 20 21  1  0
 21 14  1  0
 22 24  1  0
 23 22  2  0
M  END
$$$$
