IVM.pdb
     RDKit          3D

 24 23  0  0  1  0  0  0  0  0999 V2000
   19.9940  -17.3061  -16.9745 C   0  0  0  0  0  0  0  0  0  0  0  0
   21.3613  -17.5595  -17.5583 C   0  0  0  0  0  0  0  0  0  0  0  0
   22.1424  -18.5140  -16.6903 C   0  0  2  0  0  0  0  0  0  0  0  0
   22.2218  -17.9254  -15.2821 C   0  0  0  0  0  0  0  0  0  0  0  0
   23.5313  -18.7599  -17.1786 C   0  0  2  0  0  0  0  0  0  0  0  0
   23.5801  -19.3491  -18.4953 N   0  0  0  0  0  0  0  0  0  0  0  0
   24.2355  -19.6354  -16.2285 C   0  0  0  0  0  0  0  0  0  0  0  0
   23.8774  -20.8258  -16.0337 O   0  0  0  0  0  0  0  0  0  0  0  0
   27.6788  -20.5040  -16.3530 C   0  0  0  0  0  0  0  0  0  0  0  0
   27.5306  -20.0550  -14.9290 C   0  0  1  0  0  0  0  0  0  0  0  0
   27.9931  -18.6024  -14.7575 C   0  0  0  0  0  0  0  0  0  0  0  0
   26.0678  -20.0781  -14.5386 C   0  0  2  0  0  0  0  0  0  0  0  0
   25.3674  -19.2065  -15.4623 N   0  0  0  0  0  0  0  0  0  0  0  0
   25.8873  -19.6440  -13.1279 C   0  0  0  0  0  0  0  0  0  0  0  0
   25.9093  -18.4066  -12.8570 O   0  0  0  0  0  0  0  0  0  0  0  0
   21.6099  -22.0956   -9.1725 C   0  0  0  0  0  0  0  0  0  0  0  0
   22.1555  -20.5234   -8.4338 S   0  0  0  0  0  0  0  0  0  0  0  0
   23.8861  -20.1784   -8.8895 C   0  0  0  0  0  0  0  0  0  0  0  0
   24.1523  -20.4506  -10.3287 C   0  0  0  0  0  0  0  0  0  0  0  0
   25.5684  -20.2847  -10.7615 C   0  0  2  0  0  0  0  0  0  0  0  0
   25.6980  -20.6514  -12.1502 N   0  0  0  0  0  0  0  0  0  0  0  0
   26.5549  -20.9954   -9.9474 C   0  0  0  0  0  0  0  0  0  0  0  0
   27.1030  -22.0770  -10.2617 O   0  0  0  0  0  0  0  0  0  0  0  0
   26.9276  -20.4474   -8.7287 O   0  0  0  0  0  0  0  0  0  0  0  0
  2  1  1  0
  3  5  1  0
  3  2  1  0
  3  4  1  1
  5  6  1  6
  7  5  1  0
  8  7  2  0
 10 11  1  6
 10  9  1  0
 12 10  1  0
 12 13  1  6
 13  7  1  0
 14 12  1  0
 15 14  2  0
 17 16  1  0
 17 18  1  0
 19 18  1  0
 20 19  1  1
 20 22  1  0
 20 21  1  0
 21 14  1  0
 22 24  1  0
 23 22  2  0
M  END
$$$$
