IVM.pdb
     RDKit          3D

 24 23  0  0  1  0  0  0  0  0999 V2000
   26.8652  -27.4610  -19.3554 C   0  0  0  0  0  0  0  0  0  0  0  0
   25.9575  -27.1584  -18.1895 C   0  0  0  0  0  0  0  0  0  0  0  0
   26.2769  -25.8062  -17.6029 C   0  0  2  0  0  0  0  0  0  0  0  0
   27.7378  -25.8118  -17.1539 C   0  0  0  0  0  0  0  0  0  0  0  0
   25.4237  -25.4508  -16.4308 C   0  0  2  0  0  0  0  0  0  0  0  0
   24.0198  -25.3547  -16.7519 N   0  0  0  0  0  0  0  0  0  0  0  0
   25.8807  -24.1724  -15.8634 C   0  0  0  0  0  0  0  0  0  0  0  0
   27.0437  -24.0289  -15.4052 O   0  0  0  0  0  0  0  0  0  0  0  0
   25.7712  -20.5641  -17.1332 C   0  0  0  0  0  0  0  0  0  0  0  0
   24.9776  -20.6266  -15.8614 C   0  0  1  0  0  0  0  0  0  0  0  0
   23.4864  -20.8401  -16.1514 C   0  0  0  0  0  0  0  0  0  0  0  0
   25.4210  -21.8217  -15.0440 C   0  0  2  0  0  0  0  0  0  0  0  0
   25.0488  -23.0085  -15.7898 N   0  0  0  0  0  0  0  0  0  0  0  0
   24.7987  -21.8024  -13.6937 C   0  0  0  0  0  0  0  0  0  0  0  0
   23.6993  -22.4059  -13.5139 O   0  0  0  0  0  0  0  0  0  0  0  0
   26.6617  -21.3138   -6.7400 C   0  0  0  0  0  0  0  0  0  0  0  0
   26.6066  -19.8508   -7.8224 S   0  0  0  0  0  0  0  0  0  0  0  0
   25.2884  -20.0354   -9.0673 C   0  0  0  0  0  0  0  0  0  0  0  0
   25.8310  -20.3607  -10.4149 C   0  0  0  0  0  0  0  0  0  0  0  0
   24.8501  -20.9312  -11.3806 C   0  0  2  0  0  0  0  0  0  0  0  0
   25.4781  -21.1008  -12.6677 N   0  0  0  0  0  0  0  0  0  0  0  0
   23.5999  -20.1825  -11.5127 C   0  0  0  0  0  0  0  0  0  0  0  0
   22.5820  -20.3497  -10.8022 O   0  0  0  0  0  0  0  0  0  0  0  0
   23.5122  -19.2064  -12.4945 O   0  0  0  0  0  0  0  0  0  0  0  0
  2  1  1  0
  3  5  1  0
  3  2  1  0
  3  4  1  1
  5  6  1  6
  7  5  1  0
  8  7  2  0
 10 11  1  6
 10  9  1  0
 12 10  1  0
 12 13  1  6
 13  7  1  0
 14 12  1  0
 15 14  2  0
 17 16  1  0
 17 18  1  0
 19 18  1  0
 20 19  1  1
 20 22  1  0
 20 21  1  0
 21 14  1  0
 22 24  1  0
 23 22  2  0
M  END
$$$$
