IVM.pdb
     RDKit          3D

 24 23  0  0  1  0  0  0  0  0999 V2000
   24.3428  -16.9657  -18.8443 C   0  0  0  0  0  0  0  0  0  0  0  0
   25.3732  -17.7944  -18.1189 C   0  0  0  0  0  0  0  0  0  0  0  0
   24.7141  -18.6964  -17.1057 C   0  0  2  0  0  0  0  0  0  0  0  0
   23.8795  -17.8292  -16.1637 C   0  0  0  0  0  0  0  0  0  0  0  0
   25.6856  -19.4816  -16.2886 C   0  0  2  0  0  0  0  0  0  0  0  0
   26.5694  -20.3024  -17.0814 N   0  0  0  0  0  0  0  0  0  0  0  0
   24.9504  -20.3343  -15.3413 C   0  0  0  0  0  0  0  0  0  0  0  0
   24.2095  -21.2732  -15.7321 O   0  0  0  0  0  0  0  0  0  0  0  0
   25.0838  -19.4957  -11.2157 C   0  0  0  0  0  0  0  0  0  0  0  0
   25.0262  -20.9271  -11.6619 C   0  0  1  0  0  0  0  0  0  0  0  0
   24.2131  -21.7792  -10.6790 C   0  0  0  0  0  0  0  0  0  0  0  0
   24.3051  -21.0166  -12.9904 C   0  0  2  0  0  0  0  0  0  0  0  0
   25.0201  -20.1641  -13.9206 N   0  0  0  0  0  0  0  0  0  0  0  0
   22.8822  -20.6077  -12.8513 C   0  0  0  0  0  0  0  0  0  0  0  0
   22.6067  -19.3811  -12.6944 O   0  0  0  0  0  0  0  0  0  0  0  0
   18.6241  -21.9474  -16.8912 C   0  0  0  0  0  0  0  0  0  0  0  0
   17.4753  -22.0484  -15.4823 S   0  0  0  0  0  0  0  0  0  0  0  0
   18.2928  -21.4740  -13.9581 C   0  0  0  0  0  0  0  0  0  0  0  0
   19.7639  -21.7007  -13.9909 C   0  0  0  0  0  0  0  0  0  0  0  0
   20.5048  -21.2808  -12.7682 C   0  0  2  0  0  0  0  0  0  0  0  0
   21.8986  -21.6258  -12.9025 N   0  0  0  0  0  0  0  0  0  0  0  0
   19.9668  -21.7941  -11.5079 C   0  0  0  0  0  0  0  0  0  0  0  0
   20.3424  -22.8452  -10.9397 O   0  0  0  0  0  0  0  0  0  0  0  0
   18.9618  -21.0771  -10.8751 O   0  0  0  0  0  0  0  0  0  0  0  0
  2  1  1  0
  3  5  1  0
  3  2  1  0
  3  4  1  1
  5  6  1  6
  7  5  1  0
  8  7  2  0
 10 11  1  1
 10  9  1  0
 12 10  1  0
 12 13  1  6
 13  7  1  0
 14 12  1  0
 15 14  2  0
 17 16  1  0
 17 18  1  0
 19 18  1  0
 20 19  1  6
 20 22  1  0
 20 21  1  0
 21 14  1  0
 22 24  1  0
 23 22  2  0
M  END
$$$$
