IVM.pdb
     RDKit          3D

 24 23  0  0  1  0  0  0  0  0999 V2000
   14.9985  -13.5436  -13.4447 C   0  0  0  0  0  0  0  0  0  0  0  0
   14.5976  -13.0638  -12.0722 C   0  0  0  0  0  0  0  0  0  0  0  0
   14.8071  -11.5756  -11.9461 C   0  0  2  0  0  0  0  0  0  0  0  0
   16.2977  -11.2854  -12.1188 C   0  0  0  0  0  0  0  0  0  0  0  0
   14.3676  -11.0233  -10.6309 C   0  0  2  0  0  0  0  0  0  0  0  0
   12.9966  -11.3375  -10.3067 N   0  0  0  0  0  0  0  0  0  0  0  0
   14.5441   -9.5625  -10.6308 C   0  0  0  0  0  0  0  0  0  0  0  0
   13.9861   -8.8275  -11.4862 O   0  0  0  0  0  0  0  0  0  0  0  0
   15.6486   -5.4955   -8.1690 C   0  0  0  0  0  0  0  0  0  0  0  0
   15.2498   -6.9375   -8.2829 C   0  0  1  0  0  0  0  0  0  0  0  0
   13.7402   -7.1107   -8.0717 C   0  0  0  0  0  0  0  0  0  0  0  0
   15.5368   -7.4349   -9.6840 C   0  0  2  0  0  0  0  0  0  0  0  0
   15.3533   -8.8735   -9.6703 N   0  0  0  0  0  0  0  0  0  0  0  0
   16.9111   -7.0593  -10.1101 C   0  0  0  0  0  0  0  0  0  0  0  0
   17.9027   -7.6080   -9.5438 O   0  0  0  0  0  0  0  0  0  0  0  0
   22.3903   -8.6046  -14.2711 C   0  0  0  0  0  0  0  0  0  0  0  0
   20.6780   -8.7052  -13.6608 S   0  0  0  0  0  0  0  0  0  0  0  0
   20.1345   -7.0827  -13.0335 C   0  0  0  0  0  0  0  0  0  0  0  0
   18.8198   -7.1613  -12.3393 C   0  0  0  0  0  0  0  0  0  0  0  0
   18.3209   -5.8806  -11.7639 C   0  0  2  0  0  0  0  0  0  0  0  0
   17.0385   -6.0953  -11.1402 N   0  0  0  0  0  0  0  0  0  0  0  0
   18.2552   -4.7605  -12.7032 C   0  0  0  0  0  0  0  0  0  0  0  0
   17.2312   -4.4076  -13.3323 O   0  0  0  0  0  0  0  0  0  0  0  0
   19.4042   -4.0172  -12.9302 O   0  0  0  0  0  0  0  0  0  0  0  0
  2  1  1  0
  3  5  1  0
  3  2  1  0
  3  4  1  1
  5  6  1  6
  7  5  1  0
  8  7  2  0
 10 11  1  6
 10  9  1  0
 12 10  1  0
 12 13  1  1
 13  7  1  0
 14 12  1  0
 15 14  2  0
 17 16  1  0
 17 18  1  0
 19 18  1  0
 20 19  1  6
 20 22  1  0
 20 21  1  0
 21 14  1  0
 22 24  1  0
 23 22  2  0
M  END
$$$$
