IVM.pdb
     RDKit          3D

 24 23  0  0  1  0  0  0  0  0999 V2000
   16.8266  -23.1094  -11.6785 C   0  0  0  0  0  0  0  0  0  0  0  0
   17.6899  -21.9178  -12.0099 C   0  0  0  0  0  0  0  0  0  0  0  0
   19.1022  -22.3513  -12.3130 C   0  0  2  0  0  0  0  0  0  0  0  0
   19.6469  -23.0953  -11.0941 C   0  0  0  0  0  0  0  0  0  0  0  0
   20.0192  -21.2145  -12.6212 C   0  0  2  0  0  0  0  0  0  0  0  0
   19.5938  -20.4256  -13.7525 N   0  0  0  0  0  0  0  0  0  0  0  0
   21.3731  -21.7330  -12.8724 C   0  0  0  0  0  0  0  0  0  0  0  0
   22.0266  -22.3377  -11.9832 O   0  0  0  0  0  0  0  0  0  0  0  0
   22.3244  -23.7211  -15.9314 C   0  0  0  0  0  0  0  0  0  0  0  0
   23.3763  -22.6601  -15.7934 C   0  0  1  0  0  0  0  0  0  0  0  0
   23.0765  -21.4640  -16.7061 C   0  0  0  0  0  0  0  0  0  0  0  0
   23.3705  -22.1198  -14.3788 C   0  0  2  0  0  0  0  0  0  0  0  0
   22.0428  -21.5917  -14.1308 N   0  0  0  0  0  0  0  0  0  0  0  0
   24.4185  -21.0796  -14.2029 C   0  0  0  0  0  0  0  0  0  0  0  0
   24.1215  -19.8655  -14.4100 O   0  0  0  0  0  0  0  0  0  0  0  0
   29.4336  -22.5174  -10.5294 C   0  0  0  0  0  0  0  0  0  0  0  0
   29.8666  -20.7842  -10.8808 S   0  0  0  0  0  0  0  0  0  0  0  0
   28.8385  -20.1395  -12.2407 C   0  0  0  0  0  0  0  0  0  0  0  0
   27.6292  -20.9756  -12.4747 C   0  0  0  0  0  0  0  0  0  0  0  0
   26.7525  -20.5354  -13.5962 C   0  0  2  0  0  0  0  0  0  0  0  0
   25.7094  -21.5085  -13.8080 N   0  0  0  0  0  0  0  0  0  0  0  0
   27.4468  -20.2440  -14.8509 C   0  0  0  0  0  0  0  0  0  0  0  0
   27.5696  -21.0425  -15.8081 O   0  0  0  0  0  0  0  0  0  0  0  0
   28.0213  -18.9921  -15.0155 O   0  0  0  0  0  0  0  0  0  0  0  0
  2  1  1  0
  3  5  1  0
  3  2  1  0
  3  4  1  1
  5  6  1  6
  7  5  1  0
  8  7  2  0
 10 11  1  6
 10  9  1  0
 12 10  1  0
 12 13  1  6
 13  7  1  0
 14 12  1  0
 15 14  2  0
 17 16  1  0
 17 18  1  0
 19 18  1  0
 20 19  1  1
 20 22  1  0
 20 21  1  0
 21 14  1  0
 22 24  1  0
 23 22  2  0
M  END
$$$$
