IVM.pdb
     RDKit          3D

 24 23  0  0  1  0  0  0  0  0999 V2000
   20.7081  -18.3912  -14.1378 C   0  0  0  0  0  0  0  0  0  0  0  0
   20.1245  -19.6895  -13.6392 C   0  0  0  0  0  0  0  0  0  0  0  0
   21.1049  -20.4049  -12.7438 C   0  0  2  0  0  0  0  0  0  0  0  0
   21.2930  -19.5711  -11.4768 C   0  0  0  0  0  0  0  0  0  0  0  0
   22.4415  -20.6146  -13.3743 C   0  0  2  0  0  0  0  0  0  0  0  0
   22.3989  -21.4673  -14.5381 N   0  0  0  0  0  0  0  0  0  0  0  0
   23.3642  -21.1909  -12.3836 C   0  0  0  0  0  0  0  0  0  0  0  0
   23.0684  -22.2198  -11.7225 O   0  0  0  0  0  0  0  0  0  0  0  0
   26.4873  -22.4932  -13.0231 C   0  0  0  0  0  0  0  0  0  0  0  0
   26.8277  -21.5841  -11.8790 C   0  0  1  0  0  0  0  0  0  0  0  0
   27.4263  -20.2642  -12.3823 C   0  0  0  0  0  0  0  0  0  0  0  0
   25.5642  -21.2132  -11.1314 C   0  0  2  0  0  0  0  0  0  0  0  0
   24.6526  -20.6331  -12.0987 N   0  0  0  0  0  0  0  0  0  0  0  0
   25.8613  -20.2703  -10.0206 C   0  0  0  0  0  0  0  0  0  0  0  0
   25.5872  -19.0420  -10.1660 O   0  0  0  0  0  0  0  0  0  0  0  0
   26.5065  -21.6206   -3.2983 C   0  0  0  0  0  0  0  0  0  0  0  0
   28.0672  -20.9677   -3.9711 S   0  0  0  0  0  0  0  0  0  0  0  0
   27.7388  -19.9210   -5.4266 C   0  0  0  0  0  0  0  0  0  0  0  0
   27.2207  -20.7088   -6.5787 C   0  0  0  0  0  0  0  0  0  0  0  0
   26.8656  -19.9162   -7.7894 C   0  0  2  0  0  0  0  0  0  0  0  0
   26.4425  -20.8041   -8.8442 N   0  0  0  0  0  0  0  0  0  0  0  0
   27.9099  -19.0097   -8.2678 C   0  0  0  0  0  0  0  0  0  0  0  0
   28.7575  -19.2880   -9.1470 O   0  0  0  0  0  0  0  0  0  0  0  0
   27.9862  -17.7378   -7.7193 O   0  0  0  0  0  0  0  0  0  0  0  0
  2  1  1  0
  3  5  1  0
  3  2  1  0
  3  4  1  1
  5  6  1  6
  7  5  1  0
  8  7  2  0
 10 11  1  6
 10  9  1  0
 12 10  1  0
 12 13  1  6
 13  7  1  0
 14 12  1  0
 15 14  2  0
 17 16  1  0
 17 18  1  0
 19 18  1  0
 20 19  1  1
 20 22  1  0
 20 21  1  0
 21 14  1  0
 22 24  1  0
 23 22  2  0
M  END
$$$$
