IVM.pdb
     RDKit          3D

 24 23  0  0  1  0  0  0  0  0999 V2000
   26.7102  -16.1520  -18.5034 C   0  0  0  0  0  0  0  0  0  0  0  0
   27.5469  -16.9440  -17.5300 C   0  0  0  0  0  0  0  0  0  0  0  0
   26.8532  -17.0502  -16.1950 C   0  0  2  0  0  0  0  0  0  0  0  0
   27.8574  -16.6832  -15.1029 C   0  0  0  0  0  0  0  0  0  0  0  0
   26.3219  -18.4154  -15.9087 C   0  0  2  0  0  0  0  0  0  0  0  0
   25.3810  -18.8833  -16.8982 N   0  0  0  0  0  0  0  0  0  0  0  0
   25.6784  -18.4218  -14.5855 C   0  0  0  0  0  0  0  0  0  0  0  0
   25.2970  -17.3597  -14.0290 O   0  0  0  0  0  0  0  0  0  0  0  0
   22.6562  -19.4598  -13.8946 C   0  0  0  0  0  0  0  0  0  0  0  0
   23.3698  -20.2460  -12.8345 C   0  0  1  0  0  0  0  0  0  0  0  0
   23.6356  -21.6838  -13.2989 C   0  0  0  0  0  0  0  0  0  0  0  0
   24.7290  -19.6314  -12.5745 C   0  0  2  0  0  0  0  0  0  0  0  0
   25.4396  -19.6207  -13.8387 N   0  0  0  0  0  0  0  0  0  0  0  0
   25.4675  -20.3954  -11.5343 C   0  0  0  0  0  0  0  0  0  0  0  0
   26.0212  -21.4899  -11.8514 O   0  0  0  0  0  0  0  0  0  0  0  0
   29.4873  -18.6234   -6.8553 C   0  0  0  0  0  0  0  0  0  0  0  0
   28.2105  -19.4692   -5.8708 S   0  0  0  0  0  0  0  0  0  0  0  0
   27.1974  -20.5433   -6.9392 C   0  0  0  0  0  0  0  0  0  0  0  0
   26.7659  -19.8500   -8.1840 C   0  0  0  0  0  0  0  0  0  0  0  0
   25.9531  -20.6701   -9.1258 C   0  0  2  0  0  0  0  0  0  0  0  0
   25.5125  -19.8504  -10.2276 N   0  0  0  0  0  0  0  0  0  0  0  0
   24.8202  -21.3717   -8.5213 C   0  0  0  0  0  0  0  0  0  0  0  0
   23.6220  -21.0189   -8.6144 O   0  0  0  0  0  0  0  0  0  0  0  0
   25.0687  -22.5197   -7.7831 O   0  0  0  0  0  0  0  0  0  0  0  0
  2  1  1  0
  3  5  1  0
  3  2  1  0
  3  4  1  1
  5  6  1  6
  7  5  1  0
  8  7  2  0
 10 11  1  6
 10  9  1  0
 12 10  1  0
 12 13  1  6
 13  7  1  0
 14 12  1  0
 15 14  2  0
 17 16  1  0
 17 18  1  0
 19 18  1  0
 20 19  1  1
 20 22  1  0
 20 21  1  0
 21 14  1  0
 22 24  1  0
 23 22  2  0
M  END
$$$$
