IVM.pdb
     RDKit          3D

 24 23  0  0  1  0  0  0  0  0999 V2000
   27.3054  -16.3371  -17.7951 C   0  0  0  0  0  0  0  0  0  0  0  0
   27.9256  -17.3955  -16.9176 C   0  0  0  0  0  0  0  0  0  0  0  0
   27.1518  -17.5414  -15.6313 C   0  0  2  0  0  0  0  0  0  0  0  0
   27.2073  -16.2087  -14.8852 C   0  0  0  0  0  0  0  0  0  0  0  0
   27.6866  -18.6078  -14.7342 C   0  0  2  0  0  0  0  0  0  0  0  0
   27.8914  -19.8702  -15.4033 N   0  0  0  0  0  0  0  0  0  0  0  0
   26.7662  -18.8016  -13.6027 C   0  0  0  0  0  0  0  0  0  0  0  0
   26.3168  -17.8307  -12.9403 O   0  0  0  0  0  0  0  0  0  0  0  0
   23.7555  -21.0031  -13.7357 C   0  0  0  0  0  0  0  0  0  0  0  0
   24.4397  -21.3734  -12.4528 C   0  0  1  0  0  0  0  0  0  0  0  0
   25.2826  -22.6438  -12.6236 C   0  0  0  0  0  0  0  0  0  0  0  0
   25.4078  -20.2778  -12.0587 C   0  0  2  0  0  0  0  0  0  0  0  0
   26.3166  -20.0922  -13.1735 N   0  0  0  0  0  0  0  0  0  0  0  0
   26.1334  -20.6335  -10.8104 C   0  0  0  0  0  0  0  0  0  0  0  0
   27.1608  -21.3711  -10.8845 O   0  0  0  0  0  0  0  0  0  0  0  0
   30.0231  -18.9338   -6.1905 C   0  0  0  0  0  0  0  0  0  0  0  0
   28.3885  -19.0306   -5.3945 S   0  0  0  0  0  0  0  0  0  0  0  0
   27.3433  -20.2575   -6.2453 C   0  0  0  0  0  0  0  0  0  0  0  0
   26.9109  -19.7894   -7.5908 C   0  0  0  0  0  0  0  0  0  0  0  0
   26.0278  -20.7253   -8.3421 C   0  0  2  0  0  0  0  0  0  0  0  0
   25.6295  -20.1213   -9.5896 N   0  0  0  0  0  0  0  0  0  0  0  0
   24.8575  -21.2031   -7.6050 C   0  0  0  0  0  0  0  0  0  0  0  0
   23.6664  -20.9976   -7.9336 O   0  0  0  0  0  0  0  0  0  0  0  0
   25.0587  -21.9435   -6.4492 O   0  0  0  0  0  0  0  0  0  0  0  0
  2  1  1  0
  3  5  1  0
  3  2  1  0
  3  4  1  1
  5  6  1  6
  7  5  1  0
  8  7  2  0
 10 11  1  6
 10  9  1  0
 12 10  1  0
 12 13  1  6
 13  7  1  0
 14 12  1  0
 15 14  2  0
 17 16  1  0
 17 18  1  0
 19 18  1  0
 20 19  1  1
 20 22  1  0
 20 21  1  0
 21 14  1  0
 22 24  1  0
 23 22  2  0
M  END
$$$$
