IVM.pdb
     RDKit          3D

 24 23  0  0  1  0  0  0  0  0999 V2000
   19.2337  -18.7426  -11.6958 C   0  0  0  0  0  0  0  0  0  0  0  0
   20.3965  -19.2598  -12.5052 C   0  0  0  0  0  0  0  0  0  0  0  0
   21.3851  -19.9759  -11.6196 C   0  0  2  0  0  0  0  0  0  0  0  0
   21.8790  -18.9920  -10.5595 C   0  0  0  0  0  0  0  0  0  0  0  0
   22.5682  -20.5073  -12.3585 C   0  0  2  0  0  0  0  0  0  0  0  0
   22.2273  -21.5049  -13.3445 N   0  0  0  0  0  0  0  0  0  0  0  0
   23.5265  -21.0797  -11.3998 C   0  0  0  0  0  0  0  0  0  0  0  0
   23.2488  -22.0961  -10.7121 O   0  0  0  0  0  0  0  0  0  0  0  0
   26.5620  -22.4657  -12.0843 C   0  0  0  0  0  0  0  0  0  0  0  0
   26.9818  -21.5418  -10.9791 C   0  0  1  0  0  0  0  0  0  0  0  0
   27.6344  -20.2717  -11.5399 C   0  0  0  0  0  0  0  0  0  0  0  0
   25.7612  -21.0816  -10.2103 C   0  0  2  0  0  0  0  0  0  0  0  0
   24.8314  -20.5318  -11.1781 N   0  0  0  0  0  0  0  0  0  0  0  0
   26.1317  -20.0821   -9.1736 C   0  0  0  0  0  0  0  0  0  0  0  0
   25.9631  -18.8504   -9.4180 O   0  0  0  0  0  0  0  0  0  0  0  0
   26.5548  -21.6557   -2.8843 C   0  0  0  0  0  0  0  0  0  0  0  0
   27.9031  -20.4351   -2.9679 S   0  0  0  0  0  0  0  0  0  0  0  0
   27.8224  -19.5111   -4.5367 C   0  0  0  0  0  0  0  0  0  0  0  0
   27.2554  -20.3312   -5.6423 C   0  0  0  0  0  0  0  0  0  0  0  0
   27.1264  -19.6371   -6.9545 C   0  0  2  0  0  0  0  0  0  0  0  0
   26.6602  -20.5680   -7.9525 N   0  0  0  0  0  0  0  0  0  0  0  0
   28.3329  -18.9496   -7.4157 C   0  0  0  0  0  0  0  0  0  0  0  0
   29.1726  -19.4262   -8.2137 O   0  0  0  0  0  0  0  0  0  0  0  0
   28.5871  -17.6693   -6.9460 O   0  0  0  0  0  0  0  0  0  0  0  0
  2  1  1  0
  3  5  1  0
  3  2  1  0
  3  4  1  1
  5  6  1  6
  7  5  1  0
  8  7  2  0
 10 11  1  6
 10  9  1  0
 12 10  1  0
 12 13  1  6
 13  7  1  0
 14 12  1  0
 15 14  2  0
 17 16  1  0
 17 18  1  0
 19 18  1  0
 20 19  1  1
 20 22  1  0
 20 21  1  0
 21 14  1  0
 22 24  1  0
 23 22  2  0
M  END
$$$$
