IVM.pdb
     RDKit          3D

 24 23  0  0  1  0  0  0  0  0999 V2000
   20.9254  -24.2649  -15.8019 C   0  0  0  0  0  0  0  0  0  0  0  0
   22.1474  -23.5754  -16.3550 C   0  0  0  0  0  0  0  0  0  0  0  0
   23.1845  -23.3838  -15.2770 C   0  0  2  0  0  0  0  0  0  0  0  0
   22.5460  -22.5980  -14.1321 C   0  0  0  0  0  0  0  0  0  0  0  0
   24.3942  -22.6429  -15.7415 C   0  0  2  0  0  0  0  0  0  0  0  0
   25.0359  -23.2511  -16.8824 N   0  0  0  0  0  0  0  0  0  0  0  0
   25.3607  -22.5436  -14.6365 C   0  0  0  0  0  0  0  0  0  0  0  0
   25.9360  -23.5590  -14.1661 O   0  0  0  0  0  0  0  0  0  0  0  0
   28.3339  -20.1642  -14.2478 C   0  0  0  0  0  0  0  0  0  0  0  0
   27.4524  -19.9873  -13.0467 C   0  0  1  0  0  0  0  0  0  0  0  0
   26.4831  -18.8143  -13.2416 C   0  0  0  0  0  0  0  0  0  0  0  0
   26.5896  -21.2181  -12.8640 C   0  0  2  0  0  0  0  0  0  0  0  0
   25.7168  -21.3008  -14.0193 N   0  0  0  0  0  0  0  0  0  0  0  0
   25.8177  -21.1425  -11.5952 C   0  0  0  0  0  0  0  0  0  0  0  0
   24.5559  -21.0420  -11.6475 O   0  0  0  0  0  0  0  0  0  0  0  0
   28.8240  -18.9897   -6.2187 C   0  0  0  0  0  0  0  0  0  0  0  0
   27.5159  -20.0131   -5.4726 S   0  0  0  0  0  0  0  0  0  0  0  0
   26.2421  -20.4134   -6.7131 C   0  0  0  0  0  0  0  0  0  0  0  0
   26.8287  -20.6667   -8.0578 C   0  0  0  0  0  0  0  0  0  0  0  0
   25.8530  -21.0230   -9.1261 C   0  0  2  0  0  0  0  0  0  0  0  0
   26.5451  -21.1877  -10.3806 N   0  0  0  0  0  0  0  0  0  0  0  0
   24.7294  -20.0977   -9.2761 C   0  0  0  0  0  0  0  0  0  0  0  0
   24.7757  -19.0005   -9.8784 O   0  0  0  0  0  0  0  0  0  0  0  0
   23.5079  -20.4417   -8.7157 O   0  0  0  0  0  0  0  0  0  0  0  0
  2  1  1  0
  3  5  1  0
  3  2  1  0
  3  4  1  1
  5  6  1  6
  7  5  1  0
  8  7  2  0
 10 11  1  6
 10  9  1  0
 12 10  1  0
 12 13  1  6
 13  7  1  0
 14 12  1  0
 15 14  2  0
 17 16  1  0
 17 18  1  0
 19 18  1  0
 20 19  1  1
 20 22  1  0
 20 21  1  0
 21 14  1  0
 22 24  1  0
 23 22  2  0
M  END
$$$$
