IVM.pdb
     RDKit          3D

 24 23  0  0  1  0  0  0  0  0999 V2000
   15.6262  -12.2921  -19.9387 C   0  0  0  0  0  0  0  0  0  0  0  0
   16.7228  -13.0586  -19.2426 C   0  0  0  0  0  0  0  0  0  0  0  0
   17.4333  -12.1816  -18.2423 C   0  0  2  0  0  0  0  0  0  0  0  0
   18.1148  -11.0438  -19.0018 C   0  0  0  0  0  0  0  0  0  0  0  0
   18.4685  -12.9056  -17.4473 C   0  0  2  0  0  0  0  0  0  0  0  0
   17.9493  -14.0502  -16.7376 N   0  0  0  0  0  0  0  0  0  0  0  0
   19.0848  -11.9770  -16.4866 C   0  0  0  0  0  0  0  0  0  0  0  0
   18.4706  -11.5780  -15.4635 O   0  0  0  0  0  0  0  0  0  0  0  0
   23.1846  -11.2343  -16.6586 C   0  0  0  0  0  0  0  0  0  0  0  0
   22.4075  -11.1144  -15.3807 C   0  0  1  0  0  0  0  0  0  0  0  0
   23.0662  -10.1096  -14.4268 C   0  0  0  0  0  0  0  0  0  0  0  0
   21.0260  -10.5691  -15.6754 C   0  0  2  0  0  0  0  0  0  0  0  0
   20.4130  -11.4625  -16.6394 N   0  0  0  0  0  0  0  0  0  0  0  0
   21.1029   -9.1753  -16.1879 C   0  0  0  0  0  0  0  0  0  0  0  0
   21.6992   -8.9545  -17.2837 O   0  0  0  0  0  0  0  0  0  0  0  0
   16.4038   -3.9482  -15.6210 C   0  0  0  0  0  0  0  0  0  0  0  0
   17.2374   -4.5690  -17.1158 S   0  0  0  0  0  0  0  0  0  0  0  0
   18.9719   -4.9874  -16.7443 C   0  0  0  0  0  0  0  0  0  0  0  0
   19.1220   -6.3924  -16.2756 C   0  0  0  0  0  0  0  0  0  0  0  0
   20.5036   -6.7955  -15.8896 C   0  0  2  0  0  0  0  0  0  0  0  0
   20.4970   -8.1564  -15.4125 N   0  0  0  0  0  0  0  0  0  0  0  0
   21.1614   -5.9148  -14.9237 C   0  0  0  0  0  0  0  0  0  0  0  0
   21.3155   -6.1683  -13.7068 O   0  0  0  0  0  0  0  0  0  0  0  0
   21.6612   -4.6994  -15.3678 O   0  0  0  0  0  0  0  0  0  0  0  0
  2  1  1  0
  3  5  1  0
  3  2  1  0
  3  4  1  6
  5  6  1  1
  7  5  1  0
  8  7  2  0
 10 11  1  1
 10  9  1  0
 12 10  1  0
 12 13  1  6
 13  7  1  0
 14 12  1  0
 15 14  2  0
 17 16  1  0
 17 18  1  0
 19 18  1  0
 20 19  1  1
 20 22  1  0
 20 21  1  0
 21 14  1  0
 22 24  1  0
 23 22  2  0
M  END
$$$$
