IVM.pdb
     RDKit          3D

 24 23  0  0  1  0  0  0  0  0999 V2000
   15.8171  -16.1583  -17.9295 C   0  0  0  0  0  0  0  0  0  0  0  0
   16.5166  -15.5385  -16.7458 C   0  0  0  0  0  0  0  0  0  0  0  0
   17.0449  -14.1700  -17.0961 C   0  0  2  0  0  0  0  0  0  0  0  0
   18.0253  -14.3183  -18.2592 C   0  0  0  0  0  0  0  0  0  0  0  0
   17.7514  -13.4987  -15.9654 C   0  0  2  0  0  0  0  0  0  0  0  0
   16.8989  -13.2399  -14.8298 N   0  0  0  0  0  0  0  0  0  0  0  0
   18.3320  -12.2312  -16.4356 C   0  0  0  0  0  0  0  0  0  0  0  0
   19.1472  -12.1906  -17.3932 O   0  0  0  0  0  0  0  0  0  0  0  0
   16.2458   -9.2008  -17.1675 C   0  0  0  0  0  0  0  0  0  0  0  0
   17.3805   -8.7138  -16.3152 C   0  0  1  0  0  0  0  0  0  0  0  0
   16.9656   -8.6276  -14.8408 C   0  0  0  0  0  0  0  0  0  0  0  0
   18.5216   -9.7075  -16.3722 C   0  0  2  0  0  0  0  0  0  0  0  0
   18.0188  -10.9628  -15.8480 N   0  0  0  0  0  0  0  0  0  0  0  0
   19.6925   -9.2171  -15.5978 C   0  0  0  0  0  0  0  0  0  0  0  0
   19.7543   -9.4595  -14.3559 O   0  0  0  0  0  0  0  0  0  0  0  0
   27.0714   -9.5880  -16.1887 C   0  0  0  0  0  0  0  0  0  0  0  0
   25.7598   -8.7106  -17.0968 S   0  0  0  0  0  0  0  0  0  0  0  0
   24.4236   -8.2194  -15.9588 C   0  0  0  0  0  0  0  0  0  0  0  0
   23.0745   -8.4732  -16.5350 C   0  0  0  0  0  0  0  0  0  0  0  0
   21.9255   -8.1570  -15.6406 C   0  0  2  0  0  0  0  0  0  0  0  0
   20.6888   -8.4959  -16.3005 N   0  0  0  0  0  0  0  0  0  0  0  0
   21.8838   -6.7810  -15.1445 C   0  0  0  0  0  0  0  0  0  0  0  0
   21.2027   -5.8560  -15.6438 O   0  0  0  0  0  0  0  0  0  0  0  0
   22.6499   -6.4524  -14.0357 O   0  0  0  0  0  0  0  0  0  0  0  0
  2  1  1  0
  3  5  1  0
  3  2  1  0
  3  4  1  6
  5  6  1  1
  7  5  1  0
  8  7  2  0
 10 11  1  1
 10  9  1  0
 12 10  1  0
 12 13  1  1
 13  7  1  0
 14 12  1  0
 15 14  2  0
 17 16  1  0
 17 18  1  0
 19 18  1  0
 20 19  1  6
 20 22  1  0
 20 21  1  0
 21 14  1  0
 22 24  1  0
 23 22  2  0
M  END
$$$$
