IWR.pdb
     RDKit          3D

 34 35  0  0  1  0  0  0  0  0999 V2000
   30.3714  -18.7187  -17.1932 C   0  0  0  0  0  0  0  0  0  0  0  0
   29.3835  -18.1233  -16.2401 C   0  0  0  0  0  0  0  0  0  0  0  0
   28.8250  -19.0775  -15.2281 C   0  0  2  0  0  0  0  0  0  0  0  0
   28.0992  -20.1861  -15.9839 C   0  0  0  0  0  0  0  0  0  0  0  0
   27.8940  -18.4952  -14.2311 C   0  0  2  0  0  0  0  0  0  0  0  0
   28.3377  -17.3304  -13.5588 N   0  0  0  0  0  0  0  0  0  0  0  0
   27.3232  -19.4633  -13.2694 C   0  0  0  0  0  0  0  0  0  0  0  0
   26.6571  -20.4640  -13.6550 O   0  0  0  0  0  0  0  0  0  0  0  0
   27.5206  -19.2701  -11.8989 N   0  0  0  0  0  0  0  0  0  0  0  0
   26.9591  -19.9798  -10.8035 C   0  0  1  0  0  0  0  0  0  0  0  0
   27.8183  -19.8611   -9.6055 C   0  0  0  0  0  0  0  0  0  0  0  0
   27.1625  -20.3249   -8.3631 C   0  0  0  0  0  0  0  0  0  0  0  0
   26.0841  -21.1339   -8.1697 C   0  0  0  0  0  0  0  0  0  0  0  0
   25.8091  -21.2923   -6.8471 N   0  0  0  0  0  0  0  0  0  0  0  0
   26.7240  -20.5740   -6.1655 C   0  0  0  0  0  0  0  0  0  0  0  0
   26.9636  -20.3361   -4.8279 C   0  0  0  0  0  0  0  0  0  0  0  0
   27.9935  -19.5341   -4.3705 C   0  0  0  0  0  0  0  0  0  0  0  0
   28.8194  -18.9453   -5.2993 C   0  0  0  0  0  0  0  0  0  0  0  0
   28.6105  -19.1604   -6.6631 C   0  0  0  0  0  0  0  0  0  0  0  0
   27.5697  -19.9682   -7.0703 C   0  0  0  0  0  0  0  0  0  0  0  0
   25.5236  -19.8106  -10.5583 C   0  0  0  0  0  0  0  0  0  0  0  0
   25.0686  -18.7519  -10.1105 O   0  0  0  0  0  0  0  0  0  0  0  0
   21.7849  -25.9792  -13.0920 N   0  0  0  0  0  0  0  0  0  0  0  0
   21.6736  -25.0207  -14.1420 C   0  0  0  0  0  0  0  0  0  0  0  0
   20.7026  -25.0901  -14.9697 N   0  0  0  0  0  0  0  0  0  0  0  0
   22.6528  -23.9986  -14.2482 N   0  0  0  0  0  0  0  0  0  0  0  0
   23.4932  -23.6410  -13.1146 C   0  0  0  0  0  0  0  0  0  0  0  0
   22.6570  -22.8878  -12.1343 C   0  0  0  0  0  0  0  0  0  0  0  0
   22.7919  -21.4114  -12.2065 C   0  0  0  0  0  0  0  0  0  0  0  0
   23.1879  -20.7281  -10.9288 C   0  0  2  0  0  0  0  0  0  0  0  0
   24.6424  -20.8825  -10.8400 N   0  0  0  0  0  0  0  0  0  0  0  0
   22.6018  -21.5157   -9.8089 C   0  0  0  0  0  0  0  0  0  0  0  0
   23.2585  -22.4093   -9.2043 O   0  0  0  0  0  0  0  0  0  0  0  0
   21.3157  -21.2795   -9.4072 O   0  0  0  0  0  0  0  0  0  0  0  0
  2  1  1  0
  3  2  1  0
  3  4  1  6
  5  3  1  0
  5  6  1  1
  7  5  1  0
  8  7  2  0
  9  7  1  0
 10  9  1  0
 10 11  1  1
 12 11  1  0
 13 12  2  0
 14 13  1  0
 15 14  1  0
 15 20  2  0
 16 17  2  0
 16 15  1  0
 17 18  1  0
 18 19  2  0
 20 19  1  0
 20 12  1  0
 21 10  1  0
 21 31  1  0
 22 21  2  0
 23 24  1  0
 24 26  1  0
 24 25  2  0
 26 27  1  0
 28 27  1  0
 28 29  1  0
 30 31  1  0
 30 29  1  6
 30 32  1  0
 32 33  2  0
 32 34  1  0
M  END
$$$$
