IWR.pdb
     RDKit          3D

 34 35  0  0  1  0  0  0  0  0999 V2000
   27.9739  -21.9607  -20.2563 C   0  0  0  0  0  0  0  0  0  0  0  0
   28.5978  -22.0276  -18.8979 C   0  0  0  0  0  0  0  0  0  0  0  0
   27.6321  -22.2000  -17.7647 C   0  0  2  0  0  0  0  0  0  0  0  0
   26.6606  -21.0245  -17.7976 C   0  0  0  0  0  0  0  0  0  0  0  0
   28.2294  -22.2839  -16.4097 C   0  0  2  0  0  0  0  0  0  0  0  0
   29.2452  -23.2535  -16.2271 N   0  0  0  0  0  0  0  0  0  0  0  0
   27.2536  -22.3398  -15.2994 C   0  0  0  0  0  0  0  0  0  0  0  0
   26.6943  -23.4208  -14.9643 O   0  0  0  0  0  0  0  0  0  0  0  0
   26.9369  -21.1703  -14.6018 N   0  0  0  0  0  0  0  0  0  0  0  0
   26.0489  -20.9922  -13.5069 C   0  0  1  0  0  0  0  0  0  0  0  0
   26.5725  -19.9782  -12.5662 C   0  0  0  0  0  0  0  0  0  0  0  0
   27.6576  -20.4859  -11.6982 C   0  0  0  0  0  0  0  0  0  0  0  0
   28.9442  -20.8293  -11.9835 C   0  0  0  0  0  0  0  0  0  0  0  0
   29.6025  -21.2652  -10.8760 N   0  0  0  0  0  0  0  0  0  0  0  0
   28.7300  -21.2053   -9.8499 C   0  0  0  0  0  0  0  0  0  0  0  0
   28.7973  -21.5105   -8.5062 C   0  0  0  0  0  0  0  0  0  0  0  0
   27.7310  -21.3615   -7.6381 C   0  0  0  0  0  0  0  0  0  0  0  0
   26.5442  -20.8841   -8.1432 C   0  0  0  0  0  0  0  0  0  0  0  0
   26.4346  -20.5637   -9.4979 C   0  0  0  0  0  0  0  0  0  0  0  0
   27.5259  -20.7298  -10.3243 C   0  0  0  0  0  0  0  0  0  0  0  0
   24.6197  -20.8773  -13.8129 C   0  0  0  0  0  0  0  0  0  0  0  0
   24.1973  -20.0186  -14.5957 O   0  0  0  0  0  0  0  0  0  0  0  0
   17.8752  -24.2097   -9.7781 N   0  0  0  0  0  0  0  0  0  0  0  0
   17.3529  -24.2612  -11.1041 C   0  0  0  0  0  0  0  0  0  0  0  0
   16.0892  -24.2756  -11.2925 N   0  0  0  0  0  0  0  0  0  0  0  0
   18.2556  -24.2956  -12.1991 N   0  0  0  0  0  0  0  0  0  0  0  0
   19.6948  -24.2351  -11.9898 C   0  0  0  0  0  0  0  0  0  0  0  0
   20.2275  -23.0679  -12.7523 C   0  0  0  0  0  0  0  0  0  0  0  0
   21.7022  -22.9088  -12.6964 C   0  0  0  0  0  0  0  0  0  0  0  0
   22.2575  -21.7081  -13.4077 C   0  0  2  0  0  0  0  0  0  0  0  0
   23.7066  -21.7680  -13.1984 N   0  0  0  0  0  0  0  0  0  0  0  0
   21.7671  -20.5023  -12.6840 C   0  0  0  0  0  0  0  0  0  0  0  0
   22.3275  -20.0781  -11.6347 O   0  0  0  0  0  0  0  0  0  0  0  0
   20.6789  -19.8192  -13.1535 O   0  0  0  0  0  0  0  0  0  0  0  0
  2  1  1  0
  3  2  1  0
  3  4  1  1
  5  3  1  0
  5  6  1  6
  7  5  1  0
  8  7  2  0
  9  7  1  0
 10  9  1  0
 10 11  1  6
 12 11  1  0
 13 12  2  0
 14 13  1  0
 15 14  1  0
 15 20  2  0
 16 17  2  0
 16 15  1  0
 17 18  1  0
 18 19  2  0
 20 19  1  0
 20 12  1  0
 21 10  1  0
 21 31  1  0
 22 21  2  0
 23 24  1  0
 24 26  1  0
 24 25  2  0
 26 27  1  0
 28 27  1  0
 28 29  1  0
 30 31  1  0
 30 29  1  1
 30 32  1  0
 32 33  2  0
 32 34  1  0
M  END
$$$$
