IWR.pdb
     RDKit          3D

 34 35  0  0  1  0  0  0  0  0999 V2000
   28.5031  -18.4363  -17.2539 C   0  0  0  0  0  0  0  0  0  0  0  0
   29.1960  -19.5677  -16.5621 C   0  0  0  0  0  0  0  0  0  0  0  0
   28.3568  -20.3120  -15.5680 C   0  0  2  0  0  0  0  0  0  0  0  0
   27.0369  -20.6667  -16.2455 C   0  0  0  0  0  0  0  0  0  0  0  0
   28.0630  -19.5974  -14.3020 C   0  0  2  0  0  0  0  0  0  0  0  0
   29.1348  -18.8769  -13.7211 N   0  0  0  0  0  0  0  0  0  0  0  0
   27.3646  -20.4037  -13.2772 C   0  0  0  0  0  0  0  0  0  0  0  0
   26.4252  -21.1902  -13.5818 O   0  0  0  0  0  0  0  0  0  0  0  0
   27.7476  -20.2951  -11.9370 N   0  0  0  0  0  0  0  0  0  0  0  0
   27.0571  -20.7200  -10.7702 C   0  0  1  0  0  0  0  0  0  0  0  0
   27.9599  -20.7247   -9.5987 C   0  0  0  0  0  0  0  0  0  0  0  0
   27.2441  -20.7686   -8.3047 C   0  0  0  0  0  0  0  0  0  0  0  0
   26.0144  -21.2549   -7.9793 C   0  0  0  0  0  0  0  0  0  0  0  0
   25.7407  -21.0787   -6.6586 N   0  0  0  0  0  0  0  0  0  0  0  0
   26.8106  -20.4664   -6.1127 C   0  0  0  0  0  0  0  0  0  0  0  0
   27.1287  -20.0269   -4.8444 C   0  0  0  0  0  0  0  0  0  0  0  0
   28.3244  -19.4060   -4.5321 C   0  0  0  0  0  0  0  0  0  0  0  0
   29.2415  -19.2189   -5.5398 C   0  0  0  0  0  0  0  0  0  0  0  0
   28.9580  -19.6490   -6.8376 C   0  0  0  0  0  0  0  0  0  0  0  0
   27.7514  -20.2629   -7.1000 C   0  0  0  0  0  0  0  0  0  0  0  0
   25.7291  -20.1476  -10.5295 C   0  0  0  0  0  0  0  0  0  0  0  0
   25.5894  -18.9628  -10.2049 O   0  0  0  0  0  0  0  0  0  0  0  0
   19.2236  -21.1689  -15.4377 N   0  0  0  0  0  0  0  0  0  0  0  0
   18.7932  -20.1186  -14.5745 C   0  0  0  0  0  0  0  0  0  0  0  0
   17.5788  -19.7226  -14.6068 N   0  0  0  0  0  0  0  0  0  0  0  0
   19.7311  -19.5280  -13.6876 N   0  0  0  0  0  0  0  0  0  0  0  0
   21.1222  -19.9565  -13.6692 C   0  0  0  0  0  0  0  0  0  0  0  0
   21.3201  -20.8450  -12.4865 C   0  0  0  0  0  0  0  0  0  0  0  0
   22.7383  -21.1063  -12.1350 C   0  0  0  0  0  0  0  0  0  0  0  0
   23.2345  -20.4417  -10.8827 C   0  0  2  0  0  0  0  0  0  0  0  0
   24.5850  -20.9695  -10.6713 N   0  0  0  0  0  0  0  0  0  0  0  0
   22.3958  -20.9412   -9.7578 C   0  0  0  0  0  0  0  0  0  0  0  0
   22.5570  -22.0920   -9.2631 O   0  0  0  0  0  0  0  0  0  0  0  0
   21.4164  -20.1453   -9.2300 O   0  0  0  0  0  0  0  0  0  0  0  0
  2  1  1  0
  3  2  1  0
  3  4  1  6
  5  3  1  0
  5  6  1  1
  7  5  1  0
  8  7  2  0
  9  7  1  0
 10  9  1  0
 10 11  1  1
 12 11  1  0
 13 12  2  0
 14 13  1  0
 15 14  1  0
 15 20  2  0
 16 17  2  0
 16 15  1  0
 17 18  1  0
 18 19  2  0
 20 19  1  0
 20 12  1  0
 21 10  1  0
 21 31  1  0
 22 21  2  0
 23 24  1  0
 24 26  1  0
 24 25  2  0
 26 27  1  0
 28 27  1  0
 28 29  1  0
 30 31  1  0
 30 29  1  6
 30 32  1  0
 32 33  2  0
 32 34  1  0
M  END
$$$$
