IWR.pdb
     RDKit          3D

 34 35  0  0  1  0  0  0  0  0999 V2000
   29.4908  -22.6634  -19.1983 C   0  0  0  0  0  0  0  0  0  0  0  0
   28.8187  -21.5674  -18.4329 C   0  0  0  0  0  0  0  0  0  0  0  0
   28.1146  -22.0058  -17.1844 C   0  0  2  0  0  0  0  0  0  0  0  0
   27.0256  -22.9953  -17.5868 C   0  0  0  0  0  0  0  0  0  0  0  0
   27.4994  -20.9274  -16.3731 C   0  0  2  0  0  0  0  0  0  0  0  0
   28.3367  -19.8364  -16.0353 N   0  0  0  0  0  0  0  0  0  0  0  0
   26.7468  -21.3902  -15.1868 C   0  0  0  0  0  0  0  0  0  0  0  0
   25.7925  -22.2105  -15.2876 O   0  0  0  0  0  0  0  0  0  0  0  0
   27.0942  -20.9097  -13.9206 N   0  0  0  0  0  0  0  0  0  0  0  0
   26.4536  -21.1296  -12.6716 C   0  0  1  0  0  0  0  0  0  0  0  0
   27.3691  -20.8235  -11.5512 C   0  0  0  0  0  0  0  0  0  0  0  0
   26.6731  -20.6197  -10.2617 C   0  0  0  0  0  0  0  0  0  0  0  0
   25.3461  -20.5557   -9.9623 C   0  0  0  0  0  0  0  0  0  0  0  0
   25.1430  -20.3403   -8.6348 N   0  0  0  0  0  0  0  0  0  0  0  0
   26.3590  -20.2621   -8.0577 C   0  0  0  0  0  0  0  0  0  0  0  0
   26.8045  -20.0557   -6.7686 C   0  0  0  0  0  0  0  0  0  0  0  0
   28.1433  -20.0123   -6.4243 C   0  0  0  0  0  0  0  0  0  0  0  0
   29.0759  -20.1844   -7.4204 C   0  0  0  0  0  0  0  0  0  0  0  0
   28.6663  -20.3955   -8.7385 C   0  0  0  0  0  0  0  0  0  0  0  0
   27.3194  -20.4303   -9.0326 C   0  0  0  0  0  0  0  0  0  0  0  0
   25.0887  -20.6171  -12.5172 C   0  0  0  0  0  0  0  0  0  0  0  0
   24.8541  -19.4032  -12.5200 O   0  0  0  0  0  0  0  0  0  0  0  0
   18.5956  -24.6357  -10.0900 N   0  0  0  0  0  0  0  0  0  0  0  0
   17.7526  -23.9689  -11.0273 C   0  0  0  0  0  0  0  0  0  0  0  0
   16.5167  -23.7878  -10.7585 N   0  0  0  0  0  0  0  0  0  0  0  0
   18.3085  -23.5148  -12.2520 N   0  0  0  0  0  0  0  0  0  0  0  0
   19.7126  -23.7330  -12.5677 C   0  0  0  0  0  0  0  0  0  0  0  0
   20.4444  -22.4513  -12.3459 C   0  0  0  0  0  0  0  0  0  0  0  0
   21.8881  -22.4919  -12.6882 C   0  0  0  0  0  0  0  0  0  0  0  0
   22.6172  -21.1815  -12.6025 C   0  0  2  0  0  0  0  0  0  0  0  0
   24.0194  -21.5319  -12.3612 N   0  0  0  0  0  0  0  0  0  0  0  0
   22.1301  -20.4863  -11.3787 C   0  0  0  0  0  0  0  0  0  0  0  0
   22.6524  -20.6822  -10.2456 O   0  0  0  0  0  0  0  0  0  0  0  0
   21.0871  -19.6052  -11.4629 O   0  0  0  0  0  0  0  0  0  0  0  0
  2  1  1  0
  3  2  1  0
  3  4  1  6
  5  3  1  0
  5  6  1  1
  7  5  1  0
  8  7  2  0
  9  7  1  0
 10  9  1  0
 10 11  1  1
 12 11  1  0
 13 12  2  0
 14 13  1  0
 15 14  1  0
 15 20  2  0
 16 17  2  0
 16 15  1  0
 17 18  1  0
 18 19  2  0
 20 19  1  0
 20 12  1  0
 21 10  1  0
 21 31  1  0
 22 21  2  0
 23 24  1  0
 24 26  1  0
 24 25  2  0
 26 27  1  0
 28 27  1  0
 28 29  1  0
 30 31  1  0
 30 29  1  1
 30 32  1  0
 32 33  2  0
 32 34  1  0
M  END
$$$$
