IWR.pdb
     RDKit          3D

 34 35  0  0  1  0  0  0  0  0999 V2000
   30.2447  -23.8564  -16.1900 C   0  0  0  0  0  0  0  0  0  0  0  0
   29.6193  -22.7178  -15.4474 C   0  0  0  0  0  0  0  0  0  0  0  0
   28.7136  -21.8485  -16.2662 C   0  0  2  0  0  0  0  0  0  0  0  0
   29.5475  -21.2280  -17.3827 C   0  0  0  0  0  0  0  0  0  0  0  0
   28.0191  -20.7621  -15.5332 C   0  0  2  0  0  0  0  0  0  0  0  0
   28.8160  -19.6626  -15.1316 N   0  0  0  0  0  0  0  0  0  0  0  0
   27.1572  -21.2125  -14.4186 C   0  0  0  0  0  0  0  0  0  0  0  0
   26.1804  -21.9889  -14.6100 O   0  0  0  0  0  0  0  0  0  0  0  0
   27.4241  -20.7694  -13.1197 N   0  0  0  0  0  0  0  0  0  0  0  0
   26.6643  -20.9589  -11.9341 C   0  0  1  0  0  0  0  0  0  0  0  0
   27.4737  -20.6458  -10.7365 C   0  0  0  0  0  0  0  0  0  0  0  0
   26.6889  -20.6359   -9.4823 C   0  0  0  0  0  0  0  0  0  0  0  0
   25.3719  -20.8928   -9.2497 C   0  0  0  0  0  0  0  0  0  0  0  0
   25.0610  -20.7558   -7.9327 N   0  0  0  0  0  0  0  0  0  0  0  0
   26.1951  -20.4030   -7.2947 C   0  0  0  0  0  0  0  0  0  0  0  0
   26.5175  -20.1207   -5.9834 C   0  0  0  0  0  0  0  0  0  0  0  0
   27.7901  -19.7684   -5.5719 C   0  0  0  0  0  0  0  0  0  0  0  0
   28.7829  -19.6970   -6.5210 C   0  0  0  0  0  0  0  0  0  0  0  0
   28.4979  -19.9749   -7.8594 C   0  0  0  0  0  0  0  0  0  0  0  0
   27.2131  -20.3216   -8.2210 C   0  0  0  0  0  0  0  0  0  0  0  0
   25.2989  -20.4251  -11.9187 C   0  0  0  0  0  0  0  0  0  0  0  0
   25.0849  -19.2101  -11.8382 O   0  0  0  0  0  0  0  0  0  0  0  0
   18.2187  -25.4192  -14.2378 N   0  0  0  0  0  0  0  0  0  0  0  0
   17.7900  -24.0613  -14.3157 C   0  0  0  0  0  0  0  0  0  0  0  0
   16.6169  -23.7853  -14.7402 N   0  0  0  0  0  0  0  0  0  0  0  0
   18.6834  -23.0331  -13.9162 N   0  0  0  0  0  0  0  0  0  0  0  0
   20.0425  -23.3393  -13.4942 C   0  0  0  0  0  0  0  0  0  0  0  0
   20.7325  -22.0542  -13.1780 C   0  0  0  0  0  0  0  0  0  0  0  0
   22.1488  -22.1956  -12.7570 C   0  0  0  0  0  0  0  0  0  0  0  0
   22.8618  -20.9168  -12.4217 C   0  0  2  0  0  0  0  0  0  0  0  0
   24.2049  -21.3205  -11.9970 N   0  0  0  0  0  0  0  0  0  0  0  0
   22.1878  -20.3379  -11.2264 C   0  0  0  0  0  0  0  0  0  0  0  0
   22.4447  -20.7356  -10.0555 O   0  0  0  0  0  0  0  0  0  0  0  0
   21.2600  -19.3444  -11.3795 O   0  0  0  0  0  0  0  0  0  0  0  0
  2  1  1  0
  3  2  1  0
  3  4  1  6
  5  3  1  0
  5  6  1  1
  7  5  1  0
  8  7  2  0
  9  7  1  0
 10  9  1  0
 10 11  1  1
 12 11  1  0
 13 12  2  0
 14 13  1  0
 15 14  1  0
 15 20  2  0
 16 17  2  0
 16 15  1  0
 17 18  1  0
 18 19  2  0
 20 19  1  0
 20 12  1  0
 21 10  1  0
 21 31  1  0
 22 21  2  0
 23 24  1  0
 24 26  1  0
 24 25  2  0
 26 27  1  0
 28 27  1  0
 28 29  1  0
 30 31  1  0
 30 29  1  1
 30 32  1  0
 32 33  2  0
 32 34  1  0
M  END
$$$$
