IWR.pdb
     RDKit          3D

 34 35  0  0  1  0  0  0  0  0999 V2000
   27.1360  -17.9238  -16.7408 C   0  0  0  0  0  0  0  0  0  0  0  0
   27.7723  -18.9863  -15.9011 C   0  0  0  0  0  0  0  0  0  0  0  0
   26.9390  -19.4706  -14.7532 C   0  0  2  0  0  0  0  0  0  0  0  0
   26.7045  -18.2894  -13.8169 C   0  0  0  0  0  0  0  0  0  0  0  0
   27.5061  -20.5934  -13.9674 C   0  0  2  0  0  0  0  0  0  0  0  0
   27.9025  -21.7388  -14.6997 N   0  0  0  0  0  0  0  0  0  0  0  0
   26.7174  -20.9851  -12.7789 C   0  0  0  0  0  0  0  0  0  0  0  0
   25.6523  -21.6547  -12.8834 O   0  0  0  0  0  0  0  0  0  0  0  0
   27.1552  -20.6057  -11.5065 N   0  0  0  0  0  0  0  0  0  0  0  0
   26.5226  -20.7928  -10.2481 C   0  0  1  0  0  0  0  0  0  0  0  0
   27.4223  -20.3941   -9.1441 C   0  0  0  0  0  0  0  0  0  0  0  0
   26.8129  -20.5465   -7.8046 C   0  0  0  0  0  0  0  0  0  0  0  0
   25.6434  -21.1253   -7.4150 C   0  0  0  0  0  0  0  0  0  0  0  0
   25.4630  -21.0314   -6.0701 N   0  0  0  0  0  0  0  0  0  0  0  0
   26.5336  -20.3797   -5.5734 C   0  0  0  0  0  0  0  0  0  0  0  0
   26.9222  -19.9832   -4.3106 C   0  0  0  0  0  0  0  0  0  0  0  0
   28.0994  -19.3034   -4.0554 C   0  0  0  0  0  0  0  0  0  0  0  0
   28.9227  -19.0095   -5.1172 C   0  0  0  0  0  0  0  0  0  0  0  0
   28.5656  -19.3930   -6.4114 C   0  0  0  0  0  0  0  0  0  0  0  0
   27.3811  -20.0689   -6.6156 C   0  0  0  0  0  0  0  0  0  0  0  0
   25.1367  -20.3327  -10.1179 C   0  0  0  0  0  0  0  0  0  0  0  0
   24.8597  -19.1281  -10.0887 O   0  0  0  0  0  0  0  0  0  0  0  0
   17.7975  -21.7622  -12.8104 N   0  0  0  0  0  0  0  0  0  0  0  0
   18.8691  -22.1811  -13.6530 C   0  0  0  0  0  0  0  0  0  0  0  0
   18.8751  -21.8548  -14.8884 N   0  0  0  0  0  0  0  0  0  0  0  0
   19.9182  -22.9595  -13.0975 N   0  0  0  0  0  0  0  0  0  0  0  0
   19.9646  -23.2520  -11.6724 C   0  0  0  0  0  0  0  0  0  0  0  0
   20.5667  -22.0777  -10.9753 C   0  0  0  0  0  0  0  0  0  0  0  0
   22.0386  -22.1474  -10.7972 C   0  0  0  0  0  0  0  0  0  0  0  0
   22.6765  -20.9496  -10.1533 C   0  0  2  0  0  0  0  0  0  0  0  0
   24.0962  -21.2883  -10.0230 N   0  0  0  0  0  0  0  0  0  0  0  0
   22.1291  -20.8492   -8.7718 C   0  0  0  0  0  0  0  0  0  0  0  0
   21.4337  -19.8634   -8.3979 O   0  0  0  0  0  0  0  0  0  0  0  0
   22.3749  -21.8440   -7.8656 O   0  0  0  0  0  0  0  0  0  0  0  0
  2  1  1  0
  3  2  1  0
  3  4  1  1
  5  3  1  0
  5  6  1  6
  7  5  1  0
  8  7  2  0
  9  7  1  0
 10  9  1  0
 10 11  1  1
 12 11  1  0
 13 12  2  0
 14 13  1  0
 15 14  1  0
 15 20  2  0
 16 17  2  0
 16 15  1  0
 17 18  1  0
 18 19  2  0
 20 19  1  0
 20 12  1  0
 21 10  1  0
 21 31  1  0
 22 21  2  0
 23 24  1  0
 24 26  1  0
 24 25  2  0
 26 27  1  0
 28 27  1  0
 28 29  1  0
 30 31  1  0
 30 29  1  6
 30 32  1  0
 32 33  2  0
 32 34  1  0
M  END
$$$$
