IWR.pdb
     RDKit          3D

 34 35  0  0  1  0  0  0  0  0999 V2000
   30.0895  -24.2096  -16.6042 C   0  0  0  0  0  0  0  0  0  0  0  0
   29.3797  -23.0671  -15.9487 C   0  0  0  0  0  0  0  0  0  0  0  0
   28.4627  -22.2921  -16.8459 C   0  0  2  0  0  0  0  0  0  0  0  0
   29.2730  -21.8289  -18.0524 C   0  0  0  0  0  0  0  0  0  0  0  0
   27.8027  -21.1119  -16.2365 C   0  0  2  0  0  0  0  0  0  0  0  0
   28.6380  -20.0100  -15.9307 N   0  0  0  0  0  0  0  0  0  0  0  0
   26.9071  -21.4151  -15.0989 C   0  0  0  0  0  0  0  0  0  0  0  0
   25.9220  -22.1949  -15.2225 O   0  0  0  0  0  0  0  0  0  0  0  0
   27.1507  -20.8255  -13.8549 N   0  0  0  0  0  0  0  0  0  0  0  0
   26.4066  -20.9360  -12.6495 C   0  0  1  0  0  0  0  0  0  0  0  0
   27.1879  -20.4259  -11.5020 C   0  0  0  0  0  0  0  0  0  0  0  0
   26.5181  -20.6274  -10.1983 C   0  0  0  0  0  0  0  0  0  0  0  0
   25.2809  -21.1082   -9.8937 C   0  0  0  0  0  0  0  0  0  0  0  0
   25.0631  -21.1127   -8.5511 N   0  0  0  0  0  0  0  0  0  0  0  0
   26.1778  -20.6261   -7.9694 C   0  0  0  0  0  0  0  0  0  0  0  0
   26.5604  -20.3852   -6.6661 C   0  0  0  0  0  0  0  0  0  0  0  0
   27.7926  -19.8614   -6.3195 C   0  0  0  0  0  0  0  0  0  0  0  0
   28.6799  -19.5670   -7.3282 C   0  0  0  0  0  0  0  0  0  0  0  0
   28.3312  -19.7956   -8.6608 C   0  0  0  0  0  0  0  0  0  0  0  0
   27.0902  -20.3193   -8.9565 C   0  0  0  0  0  0  0  0  0  0  0  0
   25.0038  -20.5114  -12.6846 C   0  0  0  0  0  0  0  0  0  0  0  0
   24.6948  -19.3295  -12.8754 O   0  0  0  0  0  0  0  0  0  0  0  0
   18.2348  -23.7508  -10.3265 N   0  0  0  0  0  0  0  0  0  0  0  0
   17.5614  -23.6405  -11.5788 C   0  0  0  0  0  0  0  0  0  0  0  0
   16.2912  -23.5057  -11.6111 N   0  0  0  0  0  0  0  0  0  0  0  0
   18.3226  -23.6830  -12.7761 N   0  0  0  0  0  0  0  0  0  0  0  0
   19.7652  -23.8751  -12.7443 C   0  0  0  0  0  0  0  0  0  0  0  0
   20.4120  -22.5326  -12.6613 C   0  0  0  0  0  0  0  0  0  0  0  0
   21.8952  -22.5523  -12.7139 C   0  0  0  0  0  0  0  0  0  0  0  0
   22.5659  -21.2088  -12.7505 C   0  0  2  0  0  0  0  0  0  0  0  0
   23.9841  -21.4752  -12.4954 N   0  0  0  0  0  0  0  0  0  0  0  0
   22.0573  -20.4315  -11.5863 C   0  0  0  0  0  0  0  0  0  0  0  0
   21.0618  -19.6599  -11.6807 O   0  0  0  0  0  0  0  0  0  0  0  0
   22.6722  -20.5426  -10.3695 O   0  0  0  0  0  0  0  0  0  0  0  0
  2  1  1  0
  3  2  1  0
  3  4  1  6
  5  3  1  0
  5  6  1  1
  7  5  1  0
  8  7  2  0
  9  7  1  0
 10  9  1  0
 10 11  1  1
 12 11  1  0
 13 12  2  0
 14 13  1  0
 15 14  1  0
 15 20  2  0
 16 17  2  0
 16 15  1  0
 17 18  1  0
 18 19  2  0
 20 19  1  0
 20 12  1  0
 21 10  1  0
 21 31  1  0
 22 21  2  0
 23 24  1  0
 24 26  1  0
 24 25  2  0
 26 27  1  0
 28 27  1  0
 28 29  1  0
 30 31  1  0
 30 29  1  1
 30 32  1  0
 32 33  2  0
 32 34  1  0
M  END
$$$$
