IWR.pdb
     RDKit          3D

 34 35  0  0  1  0  0  0  0  0999 V2000
   29.7692  -18.2511  -20.0350 C   0  0  0  0  0  0  0  0  0  0  0  0
   28.9835  -17.6804  -18.8966 C   0  0  0  0  0  0  0  0  0  0  0  0
   28.3335  -18.6941  -18.0041 C   0  0  2  0  0  0  0  0  0  0  0  0
   27.4277  -19.5642  -18.8696 C   0  0  0  0  0  0  0  0  0  0  0  0
   27.5349  -18.1509  -16.8784 C   0  0  2  0  0  0  0  0  0  0  0  0
   28.1734  -17.1890  -16.0585 N   0  0  0  0  0  0  0  0  0  0  0  0
   26.8522  -19.1679  -16.0492 C   0  0  0  0  0  0  0  0  0  0  0  0
   26.1495  -20.0801  -16.5668 O   0  0  0  0  0  0  0  0  0  0  0  0
   26.9822  -19.1221  -14.6579 N   0  0  0  0  0  0  0  0  0  0  0  0
   26.3444  -19.9210  -13.6712 C   0  0  1  0  0  0  0  0  0  0  0  0
   27.1567  -19.9780  -12.4366 C   0  0  0  0  0  0  0  0  0  0  0  0
   26.5444  -20.7962  -11.3668 C   0  0  0  0  0  0  0  0  0  0  0  0
   26.0417  -22.0618  -11.3861 C   0  0  0  0  0  0  0  0  0  0  0  0
   25.5581  -22.4260  -10.1681 N   0  0  0  0  0  0  0  0  0  0  0  0
   25.7484  -21.3796   -9.3396 C   0  0  0  0  0  0  0  0  0  0  0  0
   25.4715  -21.1380   -8.0099 C   0  0  0  0  0  0  0  0  0  0  0  0
   25.7696  -19.9459   -7.3752 C   0  0  0  0  0  0  0  0  0  0  0  0
   26.3732  -18.9523   -8.1101 C   0  0  0  0  0  0  0  0  0  0  0  0
   26.6700  -19.1567   -9.4591 C   0  0  0  0  0  0  0  0  0  0  0  0
   26.3530  -20.3628  -10.0478 C   0  0  0  0  0  0  0  0  0  0  0  0
   24.9087  -19.7108  -13.4617 C   0  0  0  0  0  0  0  0  0  0  0  0
   24.4594  -18.5992  -13.1598 O   0  0  0  0  0  0  0  0  0  0  0  0
   17.7346  -23.5753  -12.5791 N   0  0  0  0  0  0  0  0  0  0  0  0
   17.5260  -23.3168  -13.9659 C   0  0  0  0  0  0  0  0  0  0  0  0
   16.3383  -23.1958  -14.4214 N   0  0  0  0  0  0  0  0  0  0  0  0
   18.6525  -23.1978  -14.8214 N   0  0  0  0  0  0  0  0  0  0  0  0
   20.0003  -23.4427  -14.3291 C   0  0  0  0  0  0  0  0  0  0  0  0
   20.5395  -22.1597  -13.7900 C   0  0  0  0  0  0  0  0  0  0  0  0
   22.0104  -22.0027  -13.9124 C   0  0  0  0  0  0  0  0  0  0  0  0
   22.5693  -20.6912  -13.4393 C   0  0  2  0  0  0  0  0  0  0  0  0
   24.0206  -20.8038  -13.6077 N   0  0  0  0  0  0  0  0  0  0  0  0
   22.3109  -20.6055  -11.9751 C   0  0  0  0  0  0  0  0  0  0  0  0
   21.5438  -19.7321  -11.4813 O   0  0  0  0  0  0  0  0  0  0  0  0
   22.9121  -21.4901  -11.1223 O   0  0  0  0  0  0  0  0  0  0  0  0
  2  1  1  0
  3  2  1  0
  3  4  1  6
  5  3  1  0
  5  6  1  1
  7  5  1  0
  8  7  2  0
  9  7  1  0
 10  9  1  0
 10 11  1  1
 12 11  1  0
 13 12  2  0
 14 13  1  0
 15 14  1  0
 15 20  2  0
 16 17  2  0
 16 15  1  0
 17 18  1  0
 18 19  2  0
 20 19  1  0
 20 12  1  0
 21 10  1  0
 21 31  1  0
 22 21  2  0
 23 24  1  0
 24 26  1  0
 24 25  2  0
 26 27  1  0
 28 27  1  0
 28 29  1  0
 30 31  1  0
 30 29  1  1
 30 32  1  0
 32 33  2  0
 32 34  1  0
M  END
$$$$
