IWR.pdb
     RDKit          3D

 34 35  0  0  1  0  0  0  0  0999 V2000
   27.6449  -21.1362  -18.3182 C   0  0  0  0  0  0  0  0  0  0  0  0
   27.7877  -20.5494  -16.9492 C   0  0  0  0  0  0  0  0  0  0  0  0
   26.7974  -21.0468  -15.9400 C   0  0  2  0  0  0  0  0  0  0  0  0
   25.4011  -20.8538  -16.5232 C   0  0  0  0  0  0  0  0  0  0  0  0
   26.8481  -20.3992  -14.6067 C   0  0  2  0  0  0  0  0  0  0  0  0
   28.1246  -20.3007  -14.0015 N   0  0  0  0  0  0  0  0  0  0  0  0
   25.8497  -20.8938  -13.6337 C   0  0  0  0  0  0  0  0  0  0  0  0
   25.0619  -21.8387  -13.9171 O   0  0  0  0  0  0  0  0  0  0  0  0
   25.7698  -20.3034  -12.3690 N   0  0  0  0  0  0  0  0  0  0  0  0
   24.8457  -20.5544  -11.3192 C   0  0  1  0  0  0  0  0  0  0  0  0
   25.3052  -19.9362  -10.0567 C   0  0  0  0  0  0  0  0  0  0  0  0
   26.6350  -20.4136   -9.6179 C   0  0  0  0  0  0  0  0  0  0  0  0
   27.5210  -21.2611  -10.2106 C   0  0  0  0  0  0  0  0  0  0  0  0
   28.6317  -21.4380   -9.4457 N   0  0  0  0  0  0  0  0  0  0  0  0
   28.4674  -20.6930   -8.3341 C   0  0  0  0  0  0  0  0  0  0  0  0
   29.2256  -20.4635   -7.2048 C   0  0  0  0  0  0  0  0  0  0  0  0
   28.8221  -19.6356   -6.1729 C   0  0  0  0  0  0  0  0  0  0  0  0
   27.6020  -19.0102   -6.2816 C   0  0  0  0  0  0  0  0  0  0  0  0
   26.8039  -19.2162   -7.4086 C   0  0  0  0  0  0  0  0  0  0  0  0
   27.2494  -20.0514   -8.4114 C   0  0  0  0  0  0  0  0  0  0  0  0
   23.4224  -20.3716  -11.6192 C   0  0  0  0  0  0  0  0  0  0  0  0
   23.0044  -19.3325  -12.1428 O   0  0  0  0  0  0  0  0  0  0  0  0
   17.7870  -26.5221  -14.2493 N   0  0  0  0  0  0  0  0  0  0  0  0
   17.0861  -25.2808  -14.2902 C   0  0  0  0  0  0  0  0  0  0  0  0
   15.9570  -25.2041  -14.8833 N   0  0  0  0  0  0  0  0  0  0  0  0
   17.6621  -24.1438  -13.6651 N   0  0  0  0  0  0  0  0  0  0  0  0
   18.9098  -24.2449  -12.9223 C   0  0  0  0  0  0  0  0  0  0  0  0
   19.2592  -22.8866  -12.4119 C   0  0  0  0  0  0  0  0  0  0  0  0
   20.6968  -22.6901  -12.0994 C   0  0  0  0  0  0  0  0  0  0  0  0
   21.0741  -21.3302  -11.5853 C   0  0  2  0  0  0  0  0  0  0  0  0
   22.5097  -21.4063  -11.3015 N   0  0  0  0  0  0  0  0  0  0  0  0
   20.3854  -21.1477  -10.2775 C   0  0  0  0  0  0  0  0  0  0  0  0
   20.9893  -21.2920   -9.1777 O   0  0  0  0  0  0  0  0  0  0  0  0
   19.0594  -20.8133  -10.2444 O   0  0  0  0  0  0  0  0  0  0  0  0
  2  1  1  0
  3  2  1  0
  3  4  1  6
  5  3  1  0
  5  6  1  1
  7  5  1  0
  8  7  2  0
  9  7  1  0
 10  9  1  0
 10 11  1  1
 12 11  1  0
 13 12  2  0
 14 13  1  0
 15 14  1  0
 15 20  2  0
 16 17  2  0
 16 15  1  0
 17 18  1  0
 18 19  2  0
 20 19  1  0
 20 12  1  0
 21 10  1  0
 21 31  1  0
 22 21  2  0
 23 24  1  0
 24 26  1  0
 24 25  2  0
 26 27  1  0
 28 27  1  0
 28 29  1  0
 30 31  1  0
 30 29  1  1
 30 32  1  0
 32 33  2  0
 32 34  1  0
M  END
$$$$
