CGK.pdb
     RDKit          3D

 20 19  0  0  1  0  0  0  0  0999 V2000
    8.2168  -14.9861   17.3841 N   0  0  0  0  0  0  0  0  0  0  0  0
    8.7377  -14.5429   18.6516 C   0  0  1  0  0  0  0  0  0  0  0  0
    8.0295  -13.2771   19.0622 C   0  0  0  0  0  0  0  0  0  0  0  0
    8.6640  -11.8354   18.1597 S   0  0  0  0  0  0  0  0  0  0  0  0
    8.4476  -15.5722   19.6814 C   0  0  0  0  0  0  0  0  0  0  0  0
    7.3735  -16.2408   19.6561 O   0  0  0  0  0  0  0  0  0  0  0  0
    9.3757  -15.8281   20.7217 N   0  0  0  0  0  0  0  0  0  0  0  0
    9.1920  -16.8718   21.7073 C   0  0  0  0  0  0  0  0  0  0  0  0
    9.5396  -16.3376   23.0356 C   0  0  0  0  0  0  0  0  0  0  0  0
   10.6906  -15.8925   23.2341 O   0  0  0  0  0  0  0  0  0  0  0  0
    8.5913  -16.3280   24.0657 N   0  0  0  0  0  0  0  0  0  0  0  0
    8.9330  -15.8164   25.3747 C   0  0  1  0  0  0  0  0  0  0  0  0
    7.7709  -15.1706   26.0636 C   0  0  0  0  0  0  0  0  0  0  0  0
    7.6007  -13.7288   25.8028 C   0  0  0  0  0  0  0  0  0  0  0  0
    6.5060  -13.0350   26.5331 C   0  0  0  0  0  0  0  0  0  0  0  0
    6.4128  -11.5688   26.1114 C   0  0  0  0  0  0  0  0  0  0  0  0
    5.3639  -10.9748   26.9069 N   0  0  0  0  0  0  0  0  0  0  0  0
    9.6098  -16.8494   26.1868 C   0  0  0  0  0  0  0  0  0  0  0  0
   10.5459  -16.4890   27.1640 O   0  0  0  0  0  0  0  0  0  0  0  0
    9.3784  -18.0725   26.0423 O   0  0  0  0  0  0  0  0  0  0  0  0
  2  1  1  6
  3  2  1  0
  4  3  1  0
  5  6  2  0
  5  2  1  0
  7  5  1  0
  8  7  1  0
  9 11  1  0
  9  8  1  0
 10  9  2  0
 12 11  1  0
 12 13  1  1
 13 14  1  0
 14 15  1  0
 15 16  1  0
 16 17  1  0
 18 12  1  0
 19 18  1  0
 20 18  2  0
M  END
$$$$
