CGK.pdb
     RDKit          3D

 20 19  0  0  1  0  0  0  0  0999 V2000
    8.5758  -14.7990   17.9214 N   0  0  0  0  0  0  0  0  0  0  0  0
    8.7559  -14.4859   19.3156 C   0  0  1  0  0  0  0  0  0  0  0  0
    7.7045  -13.4922   19.7394 C   0  0  0  0  0  0  0  0  0  0  0  0
    7.8437  -11.9380   18.8118 S   0  0  0  0  0  0  0  0  0  0  0  0
    8.5563  -15.7185   20.1188 C   0  0  0  0  0  0  0  0  0  0  0  0
    8.0576  -16.7621   19.6057 O   0  0  0  0  0  0  0  0  0  0  0  0
    8.9237  -15.7505   21.4874 N   0  0  0  0  0  0  0  0  0  0  0  0
   10.0657  -16.4882   21.9834 C   0  0  0  0  0  0  0  0  0  0  0  0
   10.1925  -16.2503   23.4319 C   0  0  0  0  0  0  0  0  0  0  0  0
   11.3165  -16.3414   23.9709 O   0  0  0  0  0  0  0  0  0  0  0  0
    9.0662  -15.9254   24.1977 N   0  0  0  0  0  0  0  0  0  0  0  0
    9.1734  -15.7648   25.6311 C   0  0  1  0  0  0  0  0  0  0  0  0
    7.9824  -15.0793   26.2260 C   0  0  0  0  0  0  0  0  0  0  0  0
    7.8048  -13.6671   25.8389 C   0  0  0  0  0  0  0  0  0  0  0  0
    6.5904  -12.9749   26.3480 C   0  0  0  0  0  0  0  0  0  0  0  0
    6.5301  -11.5347   25.8396 C   0  0  0  0  0  0  0  0  0  0  0  0
    5.3001  -10.9689   26.3425 N   0  0  0  0  0  0  0  0  0  0  0  0
    9.5122  -17.0469   26.2838 C   0  0  0  0  0  0  0  0  0  0  0  0
   10.1215  -17.0668   27.5445 O   0  0  0  0  0  0  0  0  0  0  0  0
    9.2711  -18.1544   25.7493 O   0  0  0  0  0  0  0  0  0  0  0  0
  2  1  1  6
  3  2  1  0
  4  3  1  0
  5  6  2  0
  5  2  1  0
  7  5  1  0
  8  7  1  0
  9 11  1  0
  9  8  1  0
 10  9  2  0
 12 11  1  0
 12 13  1  1
 13 14  1  0
 14 15  1  0
 15 16  1  0
 16 17  1  0
 18 12  1  0
 19 18  1  0
 20 18  2  0
M  END
$$$$
