CGK.pdb
     RDKit          3D

 20 19  0  0  1  0  0  0  0  0999 V2000
    8.1360  -14.7100   16.8292 N   0  0  0  0  0  0  0  0  0  0  0  0
    8.6110  -14.1802   18.0814 C   0  0  1  0  0  0  0  0  0  0  0  0
    7.7573  -13.0019   18.4756 C   0  0  0  0  0  0  0  0  0  0  0  0
    8.2614  -12.3209   20.0811 S   0  0  0  0  0  0  0  0  0  0  0  0
    8.4587  -15.2154   19.1346 C   0  0  0  0  0  0  0  0  0  0  0  0
    7.5756  -16.1174   19.0448 O   0  0  0  0  0  0  0  0  0  0  0  0
    9.3064  -15.2137   20.2705 N   0  0  0  0  0  0  0  0  0  0  0  0
    9.3241  -16.2820   21.2467 C   0  0  0  0  0  0  0  0  0  0  0  0
   10.1946  -15.8869   22.3677 C   0  0  0  0  0  0  0  0  0  0  0  0
   11.3108  -15.3790   22.1262 O   0  0  0  0  0  0  0  0  0  0  0  0
    9.7769  -16.0781   23.6905 N   0  0  0  0  0  0  0  0  0  0  0  0
   10.6424  -15.7222   24.7933 C   0  0  1  0  0  0  0  0  0  0  0  0
    9.9450  -15.7812   26.1170 C   0  0  0  0  0  0  0  0  0  0  0  0
   10.7678  -15.4120   27.2841 C   0  0  0  0  0  0  0  0  0  0  0  0
   10.0820  -15.3546   28.6030 C   0  0  0  0  0  0  0  0  0  0  0  0
   11.0321  -14.8540   29.6905 C   0  0  0  0  0  0  0  0  0  0  0  0
   10.2999  -14.9015   30.9345 N   0  0  0  0  0  0  0  0  0  0  0  0
   11.9027  -16.4931   24.7475 C   0  0  0  0  0  0  0  0  0  0  0  0
   11.9044  -17.8350   24.3472 O   0  0  0  0  0  0  0  0  0  0  0  0
   13.0075  -15.9887   25.0565 O   0  0  0  0  0  0  0  0  0  0  0  0
  2  1  1  6
  3  2  1  0
  4  3  1  0
  5  6  2  0
  5  2  1  0
  7  5  1  0
  8  7  1  0
  9 11  1  0
  9  8  1  0
 10  9  2  0
 12 11  1  0
 12 13  1  1
 13 14  1  0
 14 15  1  0
 15 16  1  0
 16 17  1  0
 18 12  1  0
 19 18  1  0
 20 18  2  0
M  END
$$$$
