CGK.pdb
     RDKit          3D

 20 19  0  0  1  0  0  0  0  0999 V2000
    7.1555  -19.9073   15.0828 N   0  0  0  0  0  0  0  0  0  0  0  0
    6.7730  -18.5449   15.3504 C   0  0  1  0  0  0  0  0  0  0  0  0
    5.4063  -18.2911   14.7670 C   0  0  0  0  0  0  0  0  0  0  0  0
    5.5033  -17.8519   13.0083 S   0  0  0  0  0  0  0  0  0  0  0  0
    6.6764  -18.3481   16.8188 C   0  0  0  0  0  0  0  0  0  0  0  0
    5.7323  -18.8597   17.4884 O   0  0  0  0  0  0  0  0  0  0  0  0
    7.6478  -17.5770   17.5049 N   0  0  0  0  0  0  0  0  0  0  0  0
    7.6705  -17.4319   18.9447 C   0  0  0  0  0  0  0  0  0  0  0  0
    8.8736  -18.1004   19.4707 C   0  0  0  0  0  0  0  0  0  0  0  0
    9.9927  -17.8070   18.9977 O   0  0  0  0  0  0  0  0  0  0  0  0
    8.7655  -19.0545   20.4898 N   0  0  0  0  0  0  0  0  0  0  0  0
    9.9487  -19.5701   21.1424 C   0  0  1  0  0  0  0  0  0  0  0  0
    9.8155  -19.6084   22.6333 C   0  0  0  0  0  0  0  0  0  0  0  0
   10.9724  -20.1656   23.3591 C   0  0  0  0  0  0  0  0  0  0  0  0
   10.8896  -20.1911   24.8442 C   0  0  0  0  0  0  0  0  0  0  0  0
   12.2152  -20.6424   25.4568 C   0  0  0  0  0  0  0  0  0  0  0  0
   12.0084  -20.7158   26.8842 N   0  0  0  0  0  0  0  0  0  0  0  0
   10.3635  -20.8577   20.5467 C   0  0  0  0  0  0  0  0  0  0  0  0
   11.7200  -21.1637   20.3818 O   0  0  0  0  0  0  0  0  0  0  0  0
    9.5347  -21.7196   20.1717 O   0  0  0  0  0  0  0  0  0  0  0  0
  2  1  1  1
  3  2  1  0
  4  3  1  0
  5  6  2  0
  5  2  1  0
  7  5  1  0
  8  7  1  0
  9 11  1  0
  9  8  1  0
 10  9  2  0
 12 11  1  0
 12 13  1  1
 13 14  1  0
 14 15  1  0
 15 16  1  0
 16 17  1  0
 18 12  1  0
 19 18  1  0
 20 18  2  0
M  END
$$$$
