CGK.pdb
     RDKit          3D

 20 19  0  0  1  0  0  0  0  0999 V2000
    7.1922  -15.5795   20.1733 N   0  0  0  0  0  0  0  0  0  0  0  0
    8.2638  -14.6183   20.1292 C   0  0  1  0  0  0  0  0  0  0  0  0
    7.9975  -13.6310   19.0216 C   0  0  0  0  0  0  0  0  0  0  0  0
    7.9492  -14.4453   17.3999 S   0  0  0  0  0  0  0  0  0  0  0  0
    8.2892  -13.8619   21.4065 C   0  0  0  0  0  0  0  0  0  0  0  0
    9.2485  -13.0872   21.6910 O   0  0  0  0  0  0  0  0  0  0  0  0
    7.2307  -13.9938   22.3398 N   0  0  0  0  0  0  0  0  0  0  0  0
    7.2236  -13.3330   23.6273 C   0  0  0  0  0  0  0  0  0  0  0  0
    7.4308  -14.3422   24.6806 C   0  0  0  0  0  0  0  0  0  0  0  0
    7.3488  -14.0005   25.8800 O   0  0  0  0  0  0  0  0  0  0  0  0
    7.7166  -15.6706   24.3425 N   0  0  0  0  0  0  0  0  0  0  0  0
    7.8654  -16.6753   25.3722 C   0  0  1  0  0  0  0  0  0  0  0  0
    7.1922  -17.9659   25.0211 C   0  0  0  0  0  0  0  0  0  0  0  0
    7.3567  -19.0543   26.0030 C   0  0  0  0  0  0  0  0  0  0  0  0
    6.7666  -20.3744   25.6531 C   0  0  0  0  0  0  0  0  0  0  0  0
    7.0295  -21.3989   26.7564 C   0  0  0  0  0  0  0  0  0  0  0  0
    6.5325  -22.6657   26.2726 N   0  0  0  0  0  0  0  0  0  0  0  0
    9.2828  -16.8280   25.7622 C   0  0  0  0  0  0  0  0  0  0  0  0
    9.6293  -17.1587   27.0781 O   0  0  0  0  0  0  0  0  0  0  0  0
   10.2218  -16.6742   24.9467 O   0  0  0  0  0  0  0  0  0  0  0  0
  2  1  1  1
  3  2  1  0
  4  3  1  0
  5  6  2  0
  5  2  1  0
  7  5  1  0
  8  7  1  0
  9 11  1  0
  9  8  1  0
 10  9  2  0
 12 11  1  0
 12 13  1  6
 13 14  1  0
 14 15  1  0
 15 16  1  0
 16 17  1  0
 18 12  1  0
 19 18  1  0
 20 18  2  0
M  END
$$$$
