CGK.pdb
     RDKit          3D

 20 19  0  0  1  0  0  0  0  0999 V2000
    5.9305  -19.6063   21.2720 N   0  0  0  0  0  0  0  0  0  0  0  0
    6.2292  -18.3881   21.9799 C   0  0  1  0  0  0  0  0  0  0  0  0
    6.4767  -18.7079   23.4322 C   0  0  0  0  0  0  0  0  0  0  0  0
    6.3642  -17.2229   24.4703 S   0  0  0  0  0  0  0  0  0  0  0  0
    7.4784  -17.8027   21.4314 C   0  0  0  0  0  0  0  0  0  0  0  0
    8.4515  -18.5359   21.0896 O   0  0  0  0  0  0  0  0  0  0  0  0
    7.6064  -16.3994   21.2785 N   0  0  0  0  0  0  0  0  0  0  0  0
    8.8138  -15.7624   20.7980 C   0  0  0  0  0  0  0  0  0  0  0  0
    9.7827  -15.6842   21.9052 C   0  0  0  0  0  0  0  0  0  0  0  0
   10.9260  -15.2289   21.6868 O   0  0  0  0  0  0  0  0  0  0  0  0
    9.4275  -16.1153   23.1892 N   0  0  0  0  0  0  0  0  0  0  0  0
   10.2900  -15.8481   24.3190 C   0  0  1  0  0  0  0  0  0  0  0  0
    9.5323  -15.4029   25.5314 C   0  0  0  0  0  0  0  0  0  0  0  0
   10.3387  -15.2274   26.7539 C   0  0  0  0  0  0  0  0  0  0  0  0
    9.6107  -14.8476   27.9945 C   0  0  0  0  0  0  0  0  0  0  0  0
   10.5636  -14.7825   29.1877 C   0  0  0  0  0  0  0  0  0  0  0  0
    9.7549  -14.4916   30.3484 N   0  0  0  0  0  0  0  0  0  0  0  0
   11.2024  -16.9838   24.5689 C   0  0  0  0  0  0  0  0  0  0  0  0
   10.8080  -18.0495   25.3872 O   0  0  0  0  0  0  0  0  0  0  0  0
   12.3488  -17.0446   24.0662 O   0  0  0  0  0  0  0  0  0  0  0  0
  2  1  1  6
  3  2  1  0
  4  3  1  0
  5  6  2  0
  5  2  1  0
  7  5  1  0
  8  7  1  0
  9 11  1  0
  9  8  1  0
 10  9  2  0
 12 11  1  0
 12 13  1  1
 13 14  1  0
 14 15  1  0
 15 16  1  0
 16 17  1  0
 18 12  1  0
 19 18  1  0
 20 18  2  0
M  END
$$$$
