CGK.pdb
     RDKit          3D

 20 19  0  0  1  0  0  0  0  0999 V2000
    8.4797  -15.0079   17.3308 N   0  0  0  0  0  0  0  0  0  0  0  0
    8.5723  -14.4558   18.6578 C   0  0  1  0  0  0  0  0  0  0  0  0
    7.6235  -13.2904   18.7761 C   0  0  0  0  0  0  0  0  0  0  0  0
    8.1562  -11.8903   17.7508 S   0  0  0  0  0  0  0  0  0  0  0  0
    8.1444  -15.4828   19.6409 C   0  0  0  0  0  0  0  0  0  0  0  0
    7.3752  -16.4305   19.3066 O   0  0  0  0  0  0  0  0  0  0  0  0
    8.5928  -15.4213   20.9841 N   0  0  0  0  0  0  0  0  0  0  0  0
    8.3543  -16.4748   21.9472 C   0  0  0  0  0  0  0  0  0  0  0  0
    8.9223  -16.0697   23.2449 C   0  0  0  0  0  0  0  0  0  0  0  0
   10.1246  -15.7343   23.3088 O   0  0  0  0  0  0  0  0  0  0  0  0
    8.1243  -16.0603   24.3955 N   0  0  0  0  0  0  0  0  0  0  0  0
    8.6641  -15.6133   25.6607 C   0  0  1  0  0  0  0  0  0  0  0  0
    7.6403  -14.9359   26.5182 C   0  0  0  0  0  0  0  0  0  0  0  0
    7.5983  -13.4653   26.4134 C   0  0  0  0  0  0  0  0  0  0  0  0
    6.3542  -12.7907   26.8721 C   0  0  0  0  0  0  0  0  0  0  0  0
    6.4415  -11.2801   26.6561 C   0  0  0  0  0  0  0  0  0  0  0  0
    5.1821  -10.7255   27.0944 N   0  0  0  0  0  0  0  0  0  0  0  0
    9.3865  -16.7067   26.3441 C   0  0  0  0  0  0  0  0  0  0  0  0
   10.3815  -16.4239   27.2881 O   0  0  0  0  0  0  0  0  0  0  0  0
    9.1435  -17.9147   26.1160 O   0  0  0  0  0  0  0  0  0  0  0  0
  2  1  1  6
  3  2  1  0
  4  3  1  0
  5  6  2  0
  5  2  1  0
  7  5  1  0
  8  7  1  0
  9 11  1  0
  9  8  1  0
 10  9  2  0
 12 11  1  0
 12 13  1  1
 13 14  1  0
 14 15  1  0
 15 16  1  0
 16 17  1  0
 18 12  1  0
 19 18  1  0
 20 18  2  0
M  END
$$$$
