CGK.pdb
     RDKit          3D

 20 19  0  0  1  0  0  0  0  0999 V2000
    9.9107  -17.7763   19.7907 N   0  0  0  0  0  0  0  0  0  0  0  0
   10.7547  -17.3737   20.8860 C   0  0  1  0  0  0  0  0  0  0  0  0
    9.9810  -16.4518   21.7939 C   0  0  0  0  0  0  0  0  0  0  0  0
   11.0022  -15.8646   23.1750 S   0  0  0  0  0  0  0  0  0  0  0  0
   11.1263  -18.5733   21.6778 C   0  0  0  0  0  0  0  0  0  0  0  0
   10.2429  -19.3182   22.1937 O   0  0  0  0  0  0  0  0  0  0  0  0
   12.4892  -18.9104   21.8729 N   0  0  0  0  0  0  0  0  0  0  0  0
   12.9177  -20.0764   22.6154 C   0  0  0  0  0  0  0  0  0  0  0  0
   13.3258  -19.6555   23.9671 C   0  0  0  0  0  0  0  0  0  0  0  0
   14.0006  -18.6126   24.1056 O   0  0  0  0  0  0  0  0  0  0  0  0
   12.9619  -20.4151   25.0857 N   0  0  0  0  0  0  0  0  0  0  0  0
   13.4269  -20.0492   26.4055 C   0  0  1  0  0  0  0  0  0  0  0  0
   12.5355  -20.5614   27.4942 C   0  0  0  0  0  0  0  0  0  0  0  0
   12.9947  -20.2904   28.8695 C   0  0  0  0  0  0  0  0  0  0  0  0
   12.2262  -20.9230   29.9751 C   0  0  0  0  0  0  0  0  0  0  0  0
   12.7699  -20.4881   31.3357 C   0  0  0  0  0  0  0  0  0  0  0  0
   11.8705  -21.0225   32.3314 N   0  0  0  0  0  0  0  0  0  0  0  0
   14.8506  -20.4044   26.5827 C   0  0  0  0  0  0  0  0  0  0  0  0
   15.4009  -21.5035   25.9119 O   0  0  0  0  0  0  0  0  0  0  0  0
   15.6167  -19.7478   27.3259 O   0  0  0  0  0  0  0  0  0  0  0  0
  2  1  1  6
  3  2  1  0
  4  3  1  0
  5  6  2  0
  5  2  1  0
  7  5  1  0
  8  7  1  0
  9 11  1  0
  9  8  1  0
 10  9  2  0
 12 11  1  0
 12 13  1  1
 13 14  1  0
 14 15  1  0
 15 16  1  0
 16 17  1  0
 18 12  1  0
 19 18  1  0
 20 18  2  0
M  END
$$$$
