CGK.pdb
     RDKit          3D

 20 19  0  0  1  0  0  0  0  0999 V2000
    7.7813  -14.9732   19.4780 N   0  0  0  0  0  0  0  0  0  0  0  0
    8.3287  -14.1770   20.5461 C   0  0  1  0  0  0  0  0  0  0  0  0
    7.7801  -12.7762   20.4502 C   0  0  0  0  0  0  0  0  0  0  0  0
    8.2907  -11.9642   18.9090 S   0  0  0  0  0  0  0  0  0  0  0  0
    7.8884  -14.7421   21.8464 C   0  0  0  0  0  0  0  0  0  0  0  0
    6.8331  -15.4344   21.9371 O   0  0  0  0  0  0  0  0  0  0  0  0
    8.6480  -14.5152   23.0215 N   0  0  0  0  0  0  0  0  0  0  0  0
    8.3250  -15.1111   24.3001 C   0  0  0  0  0  0  0  0  0  0  0  0
    8.9145  -16.4602   24.3581 C   0  0  0  0  0  0  0  0  0  0  0  0
    8.5250  -17.3332   23.5530 O   0  0  0  0  0  0  0  0  0  0  0  0
    9.9008  -16.7622   25.3050 N   0  0  0  0  0  0  0  0  0  0  0  0
   10.6062  -18.0238   25.2547 C   0  0  1  0  0  0  0  0  0  0  0  0
   11.5707  -18.1008   24.1119 C   0  0  0  0  0  0  0  0  0  0  0  0
   12.3071  -19.3728   23.9885 C   0  0  0  0  0  0  0  0  0  0  0  0
   13.2438  -19.5024   22.8399 C   0  0  0  0  0  0  0  0  0  0  0  0
   13.9033  -20.8811   22.8268 C   0  0  0  0  0  0  0  0  0  0  0  0
   14.6150  -20.9881   21.5747 N   0  0  0  0  0  0  0  0  0  0  0  0
   11.2070  -18.3473   26.5658 C   0  0  0  0  0  0  0  0  0  0  0  0
   11.5674  -19.6633   26.8805 O   0  0  0  0  0  0  0  0  0  0  0  0
   11.4199  -17.4734   27.4385 O   0  0  0  0  0  0  0  0  0  0  0  0
  2  1  1  6
  3  2  1  0
  4  3  1  0
  5  6  2  0
  5  2  1  0
  7  5  1  0
  8  7  1  0
  9 11  1  0
  9  8  1  0
 10  9  2  0
 12 11  1  0
 12 13  1  6
 13 14  1  0
 14 15  1  0
 15 16  1  0
 16 17  1  0
 18 12  1  0
 19 18  1  0
 20 18  2  0
M  END
$$$$
