CGK.pdb
     RDKit          3D

 20 19  0  0  1  0  0  0  0  0999 V2000
    8.0402  -14.5946   18.1661 N   0  0  0  0  0  0  0  0  0  0  0  0
    8.5006  -14.1367   19.4517 C   0  0  1  0  0  0  0  0  0  0  0  0
    7.8739  -12.7993   19.7539 C   0  0  0  0  0  0  0  0  0  0  0  0
    8.5343  -11.4951   18.6777 S   0  0  0  0  0  0  0  0  0  0  0  0
    8.0477  -15.0895   20.4963 C   0  0  0  0  0  0  0  0  0  0  0  0
    6.8201  -15.3505   20.6580 O   0  0  0  0  0  0  0  0  0  0  0  0
    8.9893  -15.7305   21.3397 N   0  0  0  0  0  0  0  0  0  0  0  0
    8.6115  -16.6365   22.4031 C   0  0  0  0  0  0  0  0  0  0  0  0
    9.8209  -17.0218   23.1512 C   0  0  0  0  0  0  0  0  0  0  0  0
    9.8732  -18.1475   23.6919 O   0  0  0  0  0  0  0  0  0  0  0  0
   10.9010  -16.1370   23.2560 N   0  0  0  0  0  0  0  0  0  0  0  0
   12.2516  -16.6380   23.3855 C   0  0  1  0  0  0  0  0  0  0  0  0
   13.2622  -15.7508   22.7270 C   0  0  0  0  0  0  0  0  0  0  0  0
   13.6595  -16.1462   21.3626 C   0  0  0  0  0  0  0  0  0  0  0  0
   13.5999  -15.0959   20.3107 C   0  0  0  0  0  0  0  0  0  0  0  0
   14.0929  -15.6385   18.9696 C   0  0  0  0  0  0  0  0  0  0  0  0
   14.0331  -14.5420   18.0316 N   0  0  0  0  0  0  0  0  0  0  0  0
   12.5652  -16.9574   24.7942 C   0  0  0  0  0  0  0  0  0  0  0  0
   11.6338  -16.7022   25.8082 O   0  0  0  0  0  0  0  0  0  0  0  0
   13.6582  -17.4648   25.1381 O   0  0  0  0  0  0  0  0  0  0  0  0
  2  1  1  6
  3  2  1  0
  4  3  1  0
  5  6  2  0
  5  2  1  0
  7  5  1  0
  8  7  1  0
  9 11  1  0
  9  8  1  0
 10  9  2  0
 12 11  1  0
 12 13  1  1
 13 14  1  0
 14 15  1  0
 15 16  1  0
 16 17  1  0
 18 12  1  0
 19 18  1  0
 20 18  2  0
M  END
$$$$
