CGK.pdb
     RDKit          3D

 20 19  0  0  1  0  0  0  0  0999 V2000
    5.5151  -13.9681   26.1365 N   0  0  0  0  0  0  0  0  0  0  0  0
    6.2748  -13.2487   25.1468 C   0  0  1  0  0  0  0  0  0  0  0  0
    7.2186  -12.3001   25.8410 C   0  0  0  0  0  0  0  0  0  0  0  0
    6.3282  -11.1483   26.9254 S   0  0  0  0  0  0  0  0  0  0  0  0
    7.0977  -14.2121   24.3728 C   0  0  0  0  0  0  0  0  0  0  0  0
    7.2264  -15.4139   24.7476 O   0  0  0  0  0  0  0  0  0  0  0  0
    7.7606  -13.8010   23.1894 N   0  0  0  0  0  0  0  0  0  0  0  0
    8.3409  -14.7302   22.2437 C   0  0  0  0  0  0  0  0  0  0  0  0
    9.5285  -15.3514   22.8556 C   0  0  0  0  0  0  0  0  0  0  0  0
   10.4489  -15.7678   22.1198 O   0  0  0  0  0  0  0  0  0  0  0  0
    9.6260  -15.4745   24.2470 N   0  0  0  0  0  0  0  0  0  0  0  0
   10.7711  -16.1211   24.8492 C   0  0  1  0  0  0  0  0  0  0  0  0
   10.6437  -16.2543   26.3352 C   0  0  0  0  0  0  0  0  0  0  0  0
   11.7357  -16.9885   27.0018 C   0  0  0  0  0  0  0  0  0  0  0  0
   11.6579  -17.1173   28.4818 C   0  0  0  0  0  0  0  0  0  0  0  0
   12.8223  -17.9491   29.0188 C   0  0  0  0  0  0  0  0  0  0  0  0
   12.5961  -18.1122   30.4359 N   0  0  0  0  0  0  0  0  0  0  0  0
   11.0853  -17.3906   24.1606 C   0  0  0  0  0  0  0  0  0  0  0  0
   12.4137  -17.7606   23.9168 O   0  0  0  0  0  0  0  0  0  0  0  0
   10.1930  -18.1808   23.7735 O   0  0  0  0  0  0  0  0  0  0  0  0
  2  1  1  1
  3  2  1  0
  4  3  1  0
  5  6  2  0
  5  2  1  0
  7  5  1  0
  8  7  1  0
  9 11  1  0
  9  8  1  0
 10  9  2  0
 12 11  1  0
 12 13  1  1
 13 14  1  0
 14 15  1  0
 15 16  1  0
 16 17  1  0
 18 12  1  0
 19 18  1  0
 20 18  2  0
M  END
$$$$
