CGK.pdb
     RDKit          3D

 20 19  0  0  1  0  0  0  0  0999 V2000
    7.4666  -15.4349   18.1702 N   0  0  0  0  0  0  0  0  0  0  0  0
    7.8239  -14.4482   19.1567 C   0  0  1  0  0  0  0  0  0  0  0  0
    7.3314  -13.0967   18.7055 C   0  0  0  0  0  0  0  0  0  0  0  0
    8.3776  -12.4110   17.3900 S   0  0  0  0  0  0  0  0  0  0  0  0
    7.1396  -14.7703   20.4342 C   0  0  0  0  0  0  0  0  0  0  0  0
    5.9315  -15.1462   20.4545 O   0  0  0  0  0  0  0  0  0  0  0  0
    7.8320  -14.6621   21.6662 N   0  0  0  0  0  0  0  0  0  0  0  0
    7.2202  -14.9492   22.9459 C   0  0  0  0  0  0  0  0  0  0  0  0
    8.1982  -14.6734   24.0128 C   0  0  0  0  0  0  0  0  0  0  0  0
    8.1845  -13.5612   24.5829 O   0  0  0  0  0  0  0  0  0  0  0  0
    9.1337  -15.6465   24.3850 N   0  0  0  0  0  0  0  0  0  0  0  0
   10.1055  -15.3736   25.4209 C   0  0  1  0  0  0  0  0  0  0  0  0
    9.4978  -15.3426   26.7891 C   0  0  0  0  0  0  0  0  0  0  0  0
   10.4303  -15.0364   27.8901 C   0  0  0  0  0  0  0  0  0  0  0  0
    9.8925  -15.1228   29.2745 C   0  0  0  0  0  0  0  0  0  0  0  0
   10.9997  -14.9012   30.3046 C   0  0  0  0  0  0  0  0  0  0  0  0
   10.3749  -14.9666   31.6050 N   0  0  0  0  0  0  0  0  0  0  0  0
   11.2704  -16.2759   25.3052 C   0  0  0  0  0  0  0  0  0  0  0  0
   12.5337  -15.8717   25.7541 O   0  0  0  0  0  0  0  0  0  0  0  0
   11.1811  -17.4244   24.8116 O   0  0  0  0  0  0  0  0  0  0  0  0
  2  1  1  6
  3  2  1  0
  4  3  1  0
  5  6  2  0
  5  2  1  0
  7  5  1  0
  8  7  1  0
  9 11  1  0
  9  8  1  0
 10  9  2  0
 12 11  1  0
 12 13  1  1
 13 14  1  0
 14 15  1  0
 15 16  1  0
 16 17  1  0
 18 12  1  0
 19 18  1  0
 20 18  2  0
M  END
$$$$
