CGK.pdb
     RDKit          3D

 20 19  0  0  1  0  0  0  0  0999 V2000
    8.5617  -12.9028   17.6137 N   0  0  0  0  0  0  0  0  0  0  0  0
    8.4259  -13.1078   19.0328 C   0  0  1  0  0  0  0  0  0  0  0  0
    6.9910  -12.8740   19.4313 C   0  0  0  0  0  0  0  0  0  0  0  0
    5.8621  -13.9786   18.5365 S   0  0  0  0  0  0  0  0  0  0  0  0
    8.7547  -14.5199   19.3521 C   0  0  0  0  0  0  0  0  0  0  0  0
    9.1038  -15.3328   18.4473 O   0  0  0  0  0  0  0  0  0  0  0  0
    8.6833  -14.9889   20.6877 N   0  0  0  0  0  0  0  0  0  0  0  0
    8.9382  -16.3645   21.0582 C   0  0  0  0  0  0  0  0  0  0  0  0
    9.8959  -16.3855   22.1777 C   0  0  0  0  0  0  0  0  0  0  0  0
   10.0943  -15.3398   22.8329 O   0  0  0  0  0  0  0  0  0  0  0  0
   10.5774  -17.5641   22.5050 N   0  0  0  0  0  0  0  0  0  0  0  0
   11.3153  -17.6663   23.7447 C   0  0  1  0  0  0  0  0  0  0  0  0
   11.2794  -19.0458   24.3259 C   0  0  0  0  0  0  0  0  0  0  0  0
   11.9111  -19.1922   25.6508 C   0  0  0  0  0  0  0  0  0  0  0  0
   11.9474  -20.5602   26.2343 C   0  0  0  0  0  0  0  0  0  0  0  0
   12.5623  -20.5401   27.6334 C   0  0  0  0  0  0  0  0  0  0  0  0
   12.4584  -21.8845   28.1510 N   0  0  0  0  0  0  0  0  0  0  0  0
   12.6791  -17.1163   23.5961 C   0  0  0  0  0  0  0  0  0  0  0  0
   13.3518  -16.5691   24.6957 O   0  0  0  0  0  0  0  0  0  0  0  0
   13.2856  -17.1175   22.4994 O   0  0  0  0  0  0  0  0  0  0  0  0
  2  1  1  6
  3  2  1  0
  4  3  1  0
  5  6  2  0
  5  2  1  0
  7  5  1  0
  8  7  1  0
  9 11  1  0
  9  8  1  0
 10  9  2  0
 12 11  1  0
 12 13  1  6
 13 14  1  0
 14 15  1  0
 15 16  1  0
 16 17  1  0
 18 12  1  0
 19 18  1  0
 20 18  2  0
M  END
$$$$
