CGK.pdb
     RDKit          3D

 20 19  0  0  1  0  0  0  0  0999 V2000
    8.1402  -12.5087   18.9918 N   0  0  0  0  0  0  0  0  0  0  0  0
    8.2826  -13.3324   20.1646 C   0  0  1  0  0  0  0  0  0  0  0  0
    6.9146  -13.6862   20.6898 C   0  0  0  0  0  0  0  0  0  0  0  0
    7.0184  -14.6522   22.2232 S   0  0  0  0  0  0  0  0  0  0  0  0
    8.9587  -14.5993   19.7878 C   0  0  0  0  0  0  0  0  0  0  0  0
    9.4042  -14.7822   18.6176 O   0  0  0  0  0  0  0  0  0  0  0  0
    9.1197  -15.6374   20.7395 N   0  0  0  0  0  0  0  0  0  0  0  0
   10.2455  -16.5467   20.7361 C   0  0  0  0  0  0  0  0  0  0  0  0
   10.9193  -16.4736   22.0443 C   0  0  0  0  0  0  0  0  0  0  0  0
   12.1227  -16.7997   22.1319 O   0  0  0  0  0  0  0  0  0  0  0  0
   10.2198  -16.0435   23.1784 N   0  0  0  0  0  0  0  0  0  0  0  0
   10.8667  -16.0082   24.4715 C   0  0  1  0  0  0  0  0  0  0  0  0
   10.0158  -15.3703   25.5257 C   0  0  0  0  0  0  0  0  0  0  0  0
   10.5890  -15.3634   26.8847 C   0  0  0  0  0  0  0  0  0  0  0  0
    9.7637  -14.7552   27.9627 C   0  0  0  0  0  0  0  0  0  0  0  0
   10.4469  -14.9031   29.3219 C   0  0  0  0  0  0  0  0  0  0  0  0
    9.5694  -14.2959   30.2951 N   0  0  0  0  0  0  0  0  0  0  0  0
   11.3781  -17.3439   24.8444 C   0  0  0  0  0  0  0  0  0  0  0  0
   10.6395  -18.4976   24.5539 O   0  0  0  0  0  0  0  0  0  0  0  0
   12.4777  -17.5017   25.4245 O   0  0  0  0  0  0  0  0  0  0  0  0
  2  1  1  6
  3  2  1  0
  4  3  1  0
  5  6  2  0
  5  2  1  0
  7  5  1  0
  8  7  1  0
  9 11  1  0
  9  8  1  0
 10  9  2  0
 12 11  1  0
 12 13  1  1
 13 14  1  0
 14 15  1  0
 15 16  1  0
 16 17  1  0
 18 12  1  0
 19 18  1  0
 20 18  2  0
M  END
$$$$
