CGK.pdb
     RDKit          3D

 20 19  0  0  1  0  0  0  0  0999 V2000
    4.0047  -20.3395   21.5268 N   0  0  0  0  0  0  0  0  0  0  0  0
    3.2246  -19.3782   20.7910 C   0  0  1  0  0  0  0  0  0  0  0  0
    1.8578  -19.2670   21.4171 C   0  0  0  0  0  0  0  0  0  0  0  0
    1.9541  -18.6578   23.1244 S   0  0  0  0  0  0  0  0  0  0  0  0
    3.8735  -18.0468   20.8938 C   0  0  0  0  0  0  0  0  0  0  0  0
    3.3302  -17.0130   20.4066 O   0  0  0  0  0  0  0  0  0  0  0  0
    5.1246  -17.9067   21.5450 N   0  0  0  0  0  0  0  0  0  0  0  0
    5.7742  -16.6290   21.7449 C   0  0  0  0  0  0  0  0  0  0  0  0
    6.9962  -16.8366   22.5414 C   0  0  0  0  0  0  0  0  0  0  0  0
    7.3196  -17.9970   22.8746 O   0  0  0  0  0  0  0  0  0  0  0  0
    7.7876  -15.7460   22.9218 N   0  0  0  0  0  0  0  0  0  0  0  0
    8.9173  -15.9305   23.8060 C   0  0  1  0  0  0  0  0  0  0  0  0
    8.5490  -16.6380   25.0733 C   0  0  0  0  0  0  0  0  0  0  0  0
    9.6837  -17.1235   25.8810 C   0  0  0  0  0  0  0  0  0  0  0  0
    9.3566  -17.8934   27.1113 C   0  0  0  0  0  0  0  0  0  0  0  0
   10.6295  -18.3459   27.8261 C   0  0  0  0  0  0  0  0  0  0  0  0
   10.2104  -19.1603   28.9427 N   0  0  0  0  0  0  0  0  0  0  0  0
   10.0560  -16.5426   23.0897 C   0  0  0  0  0  0  0  0  0  0  0  0
    9.8379  -17.4511   22.0466 O   0  0  0  0  0  0  0  0  0  0  0  0
   11.2471  -16.2786   23.3763 O   0  0  0  0  0  0  0  0  0  0  0  0
  2  1  1  1
  3  2  1  0
  4  3  1  0
  5  6  2  0
  5  2  1  0
  7  5  1  0
  8  7  1  0
  9 11  1  0
  9  8  1  0
 10  9  2  0
 12 11  1  0
 12 13  1  1
 13 14  1  0
 14 15  1  0
 15 16  1  0
 16 17  1  0
 18 12  1  0
 19 18  1  0
 20 18  2  0
M  END
$$$$
