VQF.pdb
     RDKit          3D

 28 28  0  0  1  0  0  0  0  0999 V2000
    7.8489  -12.2665   18.4635 C   0  0  0  0  0  0  0  0  0  0  0  0
    7.7848  -13.2352   19.5884 C   0  0  2  0  0  0  0  0  0  0  0  0
    7.9966  -12.5380   20.9100 C   0  0  0  0  0  0  0  0  0  0  0  0
    8.6642  -14.4514   19.4442 C   0  0  2  0  0  0  0  0  0  0  0  0
    8.2987  -15.0758   18.1598 N   0  0  0  0  0  0  0  0  0  0  0  0
    8.4449  -15.4787   20.4852 C   0  0  0  0  0  0  0  0  0  0  0  0
    7.7820  -16.5015   20.2123 O   0  0  0  0  0  0  0  0  0  0  0  0
   10.9323  -20.9991   22.4957 N   0  0  0  0  0  0  0  0  0  0  0  0
   11.1892  -19.6074   22.3870 C   0  0  0  0  0  0  0  0  0  0  0  0
   12.2046  -19.1914   21.7816 O   0  0  0  0  0  0  0  0  0  0  0  0
   10.2366  -18.6775   23.0005 C   0  0  0  0  0  0  0  0  0  0  0  0
   10.0403  -17.4834   22.0852 C   0  0  0  0  0  0  0  0  0  0  0  0
    9.0418  -16.5154   22.7098 C   0  0  2  0  0  0  0  0  0  0  0  0
    8.9506  -15.3827   21.8144 N   0  0  0  0  0  0  0  0  0  0  0  0
    9.6368  -16.1051   24.0284 C   0  0  0  0  0  0  0  0  0  0  0  0
   10.8071  -15.6374   24.0453 O   0  0  0  0  0  0  0  0  0  0  0  0
    8.9426  -16.2219   25.2392 N   0  0  0  0  0  0  0  0  0  0  0  0
    9.5166  -15.8793   26.5431 C   0  0  1  0  0  0  0  0  0  0  0  0
    8.3942  -15.3943   27.4130 C   0  0  0  0  0  0  0  0  0  0  0  0
    7.7758  -14.1303   26.9516 C   0  0  0  0  0  0  0  0  0  0  0  0
    8.4154  -12.9340   27.1863 C   0  0  0  0  0  0  0  0  0  0  0  0
    7.8251  -11.7503   26.7441 C   0  0  0  0  0  0  0  0  0  0  0  0
    6.6164  -11.7345   26.0762 C   0  0  0  0  0  0  0  0  0  0  0  0
    5.9846  -12.9379   25.8467 C   0  0  0  0  0  0  0  0  0  0  0  0
    6.5636  -14.1142   26.2819 C   0  0  0  0  0  0  0  0  0  0  0  0
   10.1836  -17.0935   27.0718 C   0  0  0  0  0  0  0  0  0  0  0  0
   10.1164  -18.3216   26.3954 O   0  0  0  0  0  0  0  0  0  0  0  0
   10.8434  -17.1085   28.1424 O   0  0  0  0  0  0  0  0  0  0  0  0
  2  1  1  6
  2  4  1  0
  2  3  1  0
  4  5  1  6
  6  4  1  0
  6 14  1  0
  7  6  2  0
  8  9  1  0
  9 11  1  0
  9 10  2  0
 11 12  1  0
 13 12  1  6
 13 14  1  0
 15 13  1  0
 16 15  2  0
 17 15  1  0
 18 17  1  0
 18 26  1  0
 18 19  1  1
 20 25  2  0
 20 19  1  0
 21 20  1  0
 22 23  1  0
 22 21  2  0
 23 24  2  0
 24 25  1  0
 26 27  1  0
 28 26  2  0
M  END
$$$$
