VQF.pdb
     RDKit          3D

 28 28  0  0  1  0  0  0  0  0999 V2000
    7.5399  -12.4650   18.9902 C   0  0  0  0  0  0  0  0  0  0  0  0
    7.7518  -13.2868   20.2099 C   0  0  2  0  0  0  0  0  0  0  0  0
    8.5790  -12.5371   21.2255 C   0  0  0  0  0  0  0  0  0  0  0  0
    8.2801  -14.6780   19.9674 C   0  0  2  0  0  0  0  0  0  0  0  0
    7.4347  -15.2627   18.9108 N   0  0  0  0  0  0  0  0  0  0  0  0
    8.1677  -15.5761   21.1370 C   0  0  0  0  0  0  0  0  0  0  0  0
    7.0482  -16.0208   21.4676 O   0  0  0  0  0  0  0  0  0  0  0  0
   10.7360  -19.8891   19.7127 N   0  0  0  0  0  0  0  0  0  0  0  0
   10.5163  -19.8739   21.1149 C   0  0  0  0  0  0  0  0  0  0  0  0
   11.1834  -20.6157   21.8734 O   0  0  0  0  0  0  0  0  0  0  0  0
    9.4918  -18.9697   21.6455 C   0  0  0  0  0  0  0  0  0  0  0  0
   10.1102  -18.0767   22.7048 C   0  0  0  0  0  0  0  0  0  0  0  0
    9.1620  -16.9268   23.0255 C   0  0  2  0  0  0  0  0  0  0  0  0
    9.2761  -15.9823   21.9356 N   0  0  0  0  0  0  0  0  0  0  0  0
    9.6659  -16.3239   24.3075 C   0  0  0  0  0  0  0  0  0  0  0  0
   10.7092  -15.6173   24.2753 O   0  0  0  0  0  0  0  0  0  0  0  0
    9.0224  -16.5159   25.5366 N   0  0  0  0  0  0  0  0  0  0  0  0
    9.5224  -15.9877   26.8086 C   0  0  1  0  0  0  0  0  0  0  0  0
    8.3452  -15.4356   27.5578 C   0  0  0  0  0  0  0  0  0  0  0  0
    7.7809  -14.1995   26.9692 C   0  0  0  0  0  0  0  0  0  0  0  0
    8.4251  -12.9980   27.1618 C   0  0  0  0  0  0  0  0  0  0  0  0
    7.8862  -11.8410   26.5997 C   0  0  0  0  0  0  0  0  0  0  0  0
    6.7241  -11.8566   25.8535 C   0  0  0  0  0  0  0  0  0  0  0  0
    6.0874  -13.0648   25.6671 C   0  0  0  0  0  0  0  0  0  0  0  0
    6.6156  -14.2149   26.2209 C   0  0  0  0  0  0  0  0  0  0  0  0
   10.1993  -17.0988   27.5198 C   0  0  0  0  0  0  0  0  0  0  0  0
   10.1792  -18.4106   27.0205 O   0  0  0  0  0  0  0  0  0  0  0  0
   10.8269  -16.9475   28.5992 O   0  0  0  0  0  0  0  0  0  0  0  0
  2  1  1  6
  2  4  1  0
  2  3  1  0
  4  5  1  6
  6  4  1  0
  6 14  1  0
  7  6  2  0
  8  9  1  0
  9 11  1  0
  9 10  2  0
 11 12  1  0
 13 12  1  6
 13 14  1  0
 15 13  1  0
 16 15  2  0
 17 15  1  0
 18 17  1  0
 18 26  1  0
 18 19  1  1
 20 25  2  0
 20 19  1  0
 21 20  1  0
 22 23  1  0
 22 21  2  0
 23 24  2  0
 24 25  1  0
 26 27  1  0
 28 26  2  0
M  END
$$$$
