VQF.pdb
     RDKit          3D

 28 28  0  0  1  0  0  0  0  0999 V2000
    7.6170  -12.5008   18.4236 C   0  0  0  0  0  0  0  0  0  0  0  0
    7.9114  -13.3632   19.5972 C   0  0  2  0  0  0  0  0  0  0  0  0
    8.6710  -12.5949   20.6510 C   0  0  0  0  0  0  0  0  0  0  0  0
    8.5653  -14.6843   19.2801 C   0  0  2  0  0  0  0  0  0  0  0  0
    7.7425  -15.3112   18.2299 N   0  0  0  0  0  0  0  0  0  0  0  0
    8.5871  -15.6321   20.4151 C   0  0  0  0  0  0  0  0  0  0  0  0
    7.5805  -16.3323   20.6531 O   0  0  0  0  0  0  0  0  0  0  0  0
   11.2013  -20.2726   20.9164 N   0  0  0  0  0  0  0  0  0  0  0  0
   10.9287  -20.2733   22.3094 C   0  0  0  0  0  0  0  0  0  0  0  0
   10.8953  -21.3485   22.9525 O   0  0  0  0  0  0  0  0  0  0  0  0
   10.6890  -18.9863   22.9686 C   0  0  0  0  0  0  0  0  0  0  0  0
   10.6840  -17.8823   21.9278 C   0  0  0  0  0  0  0  0  0  0  0  0
    9.7279  -16.7751   22.3572 C   0  0  2  0  0  0  0  0  0  0  0  0
    9.7058  -15.8092   21.2803 N   0  0  0  0  0  0  0  0  0  0  0  0
   10.3261  -16.1743   23.5990 C   0  0  0  0  0  0  0  0  0  0  0  0
   11.4036  -15.5279   23.5005 O   0  0  0  0  0  0  0  0  0  0  0  0
    9.7338  -16.3042   24.8616 N   0  0  0  0  0  0  0  0  0  0  0  0
   10.3032  -15.7431   26.0896 C   0  0  1  0  0  0  0  0  0  0  0  0
   10.1247  -14.2545   26.0264 C   0  0  0  0  0  0  0  0  0  0  0  0
    8.7166  -13.8100   26.1388 C   0  0  0  0  0  0  0  0  0  0  0  0
    7.8040  -14.1902   25.1807 C   0  0  0  0  0  0  0  0  0  0  0  0
    6.4799  -13.7685   25.2988 C   0  0  0  0  0  0  0  0  0  0  0  0
    6.0488  -12.9794   26.3471 C   0  0  0  0  0  0  0  0  0  0  0  0
    6.9708  -12.6045   27.3006 C   0  0  0  0  0  0  0  0  0  0  0  0
    8.2841  -13.0187   27.1899 C   0  0  0  0  0  0  0  0  0  0  0  0
    9.6001  -16.3682   27.2357 C   0  0  0  0  0  0  0  0  0  0  0  0
    8.6580  -17.3920   27.0493 O   0  0  0  0  0  0  0  0  0  0  0  0
    9.7942  -16.0320   28.4319 O   0  0  0  0  0  0  0  0  0  0  0  0
  2  1  1  6
  2  4  1  0
  2  3  1  0
  4  5  1  6
  6  4  1  0
  6 14  1  0
  7  6  2  0
  8  9  1  0
  9 11  1  0
  9 10  2  0
 11 12  1  0
 13 12  1  6
 13 14  1  0
 15 13  1  0
 16 15  2  0
 17 15  1  0
 18 17  1  0
 18 26  1  0
 18 19  1  6
 20 25  2  0
 20 19  1  0
 21 20  1  0
 22 23  1  0
 22 21  2  0
 23 24  2  0
 24 25  1  0
 26 27  1  0
 28 26  2  0
M  END
$$$$
