VQF.pdb
     RDKit          3D

 28 28  0  0  1  0  0  0  0  0999 V2000
    7.6253  -12.8600   20.9149 C   0  0  0  0  0  0  0  0  0  0  0  0
    8.4705  -13.3980   19.8176 C   0  0  2  0  0  0  0  0  0  0  0  0
    8.3424  -12.5496   18.5760 C   0  0  0  0  0  0  0  0  0  0  0  0
    8.2868  -14.8648   19.5208 C   0  0  2  0  0  0  0  0  0  0  0  0
    6.9455  -15.0010   18.9246 N   0  0  0  0  0  0  0  0  0  0  0  0
    8.2995  -15.7274   20.7220 C   0  0  0  0  0  0  0  0  0  0  0  0
    7.3069  -15.7437   21.4800 O   0  0  0  0  0  0  0  0  0  0  0  0
   12.3182  -20.9637   23.4081 N   0  0  0  0  0  0  0  0  0  0  0  0
   10.9976  -20.6434   22.9981 C   0  0  0  0  0  0  0  0  0  0  0  0
   10.3130  -21.4686   22.3493 O   0  0  0  0  0  0  0  0  0  0  0  0
   10.4622  -19.3262   23.3546 C   0  0  0  0  0  0  0  0  0  0  0  0
   10.4261  -18.4476   22.1181 C   0  0  0  0  0  0  0  0  0  0  0  0
    9.4480  -17.2980   22.3325 C   0  0  2  0  0  0  0  0  0  0  0  0
    9.3934  -16.5654   21.0862 N   0  0  0  0  0  0  0  0  0  0  0  0
   10.0428  -16.4502   23.4227 C   0  0  0  0  0  0  0  0  0  0  0  0
   10.9543  -15.6323   23.1246 O   0  0  0  0  0  0  0  0  0  0  0  0
    9.6247  -16.5329   24.7569 N   0  0  0  0  0  0  0  0  0  0  0  0
   10.2127  -15.7469   25.8446 C   0  0  1  0  0  0  0  0  0  0  0  0
    9.9994  -14.2982   25.5163 C   0  0  0  0  0  0  0  0  0  0  0  0
    8.6981  -13.7606   25.9751 C   0  0  0  0  0  0  0  0  0  0  0  0
    7.5717  -13.9572   25.2083 C   0  0  0  0  0  0  0  0  0  0  0  0
    6.3510  -13.4492   25.6522 C   0  0  0  0  0  0  0  0  0  0  0  0
    6.2305  -12.7528   26.8387 C   0  0  0  0  0  0  0  0  0  0  0  0
    7.3646  -12.5617   27.5984 C   0  0  0  0  0  0  0  0  0  0  0  0
    8.5770  -13.0621   27.1649 C   0  0  0  0  0  0  0  0  0  0  0  0
    9.5536  -16.1638   27.1057 C   0  0  0  0  0  0  0  0  0  0  0  0
   10.0021  -15.7064   28.3547 O   0  0  0  0  0  0  0  0  0  0  0  0
    8.5658  -16.9413   27.1446 O   0  0  0  0  0  0  0  0  0  0  0  0
  2  1  1  1
  2  4  1  0
  2  3  1  0
  4  5  1  1
  6  4  1  0
  6 14  1  0
  7  6  2  0
  8  9  1  0
  9 11  1  0
  9 10  2  0
 11 12  1  0
 13 12  1  6
 13 14  1  0
 15 13  1  0
 16 15  2  0
 17 15  1  0
 18 17  1  0
 18 26  1  0
 18 19  1  6
 20 25  2  0
 20 19  1  0
 21 20  1  0
 22 23  1  0
 22 21  2  0
 23 24  2  0
 24 25  1  0
 26 27  1  0
 28 26  2  0
M  END
$$$$
