VQF.pdb
     RDKit          3D

 28 28  0  0  1  0  0  0  0  0999 V2000
    7.9127  -12.7719   17.4409 C   0  0  0  0  0  0  0  0  0  0  0  0
    8.1377  -13.6098   18.6471 C   0  0  2  0  0  0  0  0  0  0  0  0
    8.8629  -12.8289   19.7157 C   0  0  0  0  0  0  0  0  0  0  0  0
    8.7809  -14.9495   18.3921 C   0  0  2  0  0  0  0  0  0  0  0  0
    7.9172  -15.6443   17.4204 N   0  0  0  0  0  0  0  0  0  0  0  0
    8.8509  -15.8197   19.5857 C   0  0  0  0  0  0  0  0  0  0  0  0
    7.8079  -16.3467   20.0267 O   0  0  0  0  0  0  0  0  0  0  0  0
   13.1240  -20.2698   21.5306 N   0  0  0  0  0  0  0  0  0  0  0  0
   12.9133  -19.2073   20.6133 C   0  0  0  0  0  0  0  0  0  0  0  0
   13.8466  -18.8012   19.8820 O   0  0  0  0  0  0  0  0  0  0  0  0
   11.5794  -18.6034   20.5479 C   0  0  0  0  0  0  0  0  0  0  0  0
   11.4709  -17.5109   21.5952 C   0  0  0  0  0  0  0  0  0  0  0  0
   10.0927  -16.8632   21.5219 C   0  0  2  0  0  0  0  0  0  0  0  0
   10.0571  -16.1089   20.2879 N   0  0  0  0  0  0  0  0  0  0  0  0
   10.0063  -15.9452   22.7097 C   0  0  0  0  0  0  0  0  0  0  0  0
   10.7840  -14.9550   22.7676 O   0  0  0  0  0  0  0  0  0  0  0  0
    9.0959  -16.1463   23.7549 N   0  0  0  0  0  0  0  0  0  0  0  0
    8.8728  -15.1836   24.8367 C   0  0  1  0  0  0  0  0  0  0  0  0
    7.6740  -14.3614   24.4643 C   0  0  0  0  0  0  0  0  0  0  0  0
    7.2757  -13.3742   25.4937 C   0  0  0  0  0  0  0  0  0  0  0  0
    7.9950  -12.2087   25.6338 C   0  0  0  0  0  0  0  0  0  0  0  0
    7.6085  -11.2847   26.6043 C   0  0  0  0  0  0  0  0  0  0  0  0
    6.5252  -11.4975   27.4342 C   0  0  0  0  0  0  0  0  0  0  0  0
    5.8122  -12.6678   27.2854 C   0  0  0  0  0  0  0  0  0  0  0  0
    6.1894  -13.5874   26.3260 C   0  0  0  0  0  0  0  0  0  0  0  0
    8.6873  -15.9535   26.0903 C   0  0  0  0  0  0  0  0  0  0  0  0
    9.2497  -15.5274   27.3038 O   0  0  0  0  0  0  0  0  0  0  0  0
    8.0261  -17.0215   26.1537 O   0  0  0  0  0  0  0  0  0  0  0  0
  2  1  1  6
  2  4  1  0
  2  3  1  0
  4  5  1  6
  6  4  1  0
  6 14  1  0
  7  6  2  0
  8  9  1  0
  9 11  1  0
  9 10  2  0
 11 12  1  0
 13 12  1  1
 13 14  1  0
 15 13  1  0
 16 15  2  0
 17 15  1  0
 18 17  1  0
 18 26  1  0
 18 19  1  6
 20 25  2  0
 20 19  1  0
 21 20  1  0
 22 23  1  0
 22 21  2  0
 23 24  2  0
 24 25  1  0
 26 27  1  0
 28 26  2  0
M  END
$$$$
