VQF.pdb
     RDKit          3D

 28 28  0  0  1  0  0  0  0  0999 V2000
    4.3085  -17.5896   22.8874 C   0  0  0  0  0  0  0  0  0  0  0  0
    4.3896  -17.7641   21.4140 C   0  0  2  0  0  0  0  0  0  0  0  0
    3.2346  -18.5927   20.9071 C   0  0  0  0  0  0  0  0  0  0  0  0
    5.7140  -18.2639   20.8948 C   0  0  2  0  0  0  0  0  0  0  0  0
    6.0012  -19.5103   21.6274 N   0  0  0  0  0  0  0  0  0  0  0  0
    6.8472  -17.3519   21.1618 C   0  0  0  0  0  0  0  0  0  0  0  0
    8.0176  -17.7730   21.0478 O   0  0  0  0  0  0  0  0  0  0  0  0
    8.2764  -14.8549   18.1091 N   0  0  0  0  0  0  0  0  0  0  0  0
    8.2153  -13.8241   19.0830 C   0  0  0  0  0  0  0  0  0  0  0  0
    9.1881  -13.0538   19.2586 O   0  0  0  0  0  0  0  0  0  0  0  0
    6.9874  -13.6889   19.8720 C   0  0  0  0  0  0  0  0  0  0  0  0
    7.3354  -13.7034   21.3488 C   0  0  0  0  0  0  0  0  0  0  0  0
    7.8140  -15.0940   21.7506 C   0  0  2  0  0  0  0  0  0  0  0  0
    6.6951  -15.9889   21.5497 N   0  0  0  0  0  0  0  0  0  0  0  0
    8.1665  -15.0017   23.2095 C   0  0  0  0  0  0  0  0  0  0  0  0
    7.9788  -13.9095   23.8099 O   0  0  0  0  0  0  0  0  0  0  0  0
    8.6954  -16.0811   23.9284 N   0  0  0  0  0  0  0  0  0  0  0  0
    8.9354  -16.0573   25.3737 C   0  0  1  0  0  0  0  0  0  0  0  0
    7.6426  -15.6804   26.0360 C   0  0  0  0  0  0  0  0  0  0  0  0
    7.5061  -14.2321   26.3131 C   0  0  0  0  0  0  0  0  0  0  0  0
    6.2796  -13.6238   26.1683 C   0  0  0  0  0  0  0  0  0  0  0  0
    6.1624  -12.2600   26.4354 C   0  0  0  0  0  0  0  0  0  0  0  0
    7.2372  -11.4937   26.8417 C   0  0  0  0  0  0  0  0  0  0  0  0
    8.4605  -12.1129   26.9832 C   0  0  0  0  0  0  0  0  0  0  0  0
    8.5838  -13.4635   26.7204 C   0  0  0  0  0  0  0  0  0  0  0  0
    9.4250  -17.4000   25.7686 C   0  0  0  0  0  0  0  0  0  0  0  0
    9.5166  -18.4501   24.8416 O   0  0  0  0  0  0  0  0  0  0  0  0
    9.7857  -17.6873   26.9387 O   0  0  0  0  0  0  0  0  0  0  0  0
  2  1  1  1
  2  4  1  0
  2  3  1  0
  4  5  1  1
  6  4  1  0
  6 14  1  0
  7  6  2  0
  8  9  1  0
  9 11  1  0
  9 10  2  0
 11 12  1  0
 13 12  1  1
 13 14  1  0
 15 13  1  0
 16 15  2  0
 17 15  1  0
 18 17  1  0
 18 26  1  0
 18 19  1  1
 20 25  2  0
 20 19  1  0
 21 20  1  0
 22 23  1  0
 22 21  2  0
 23 24  2  0
 24 25  1  0
 26 27  1  0
 28 26  2  0
M  END
$$$$
