VQF.pdb
     RDKit          3D

 28 28  0  0  1  0  0  0  0  0999 V2000
    8.1427  -13.0041   17.8479 C   0  0  0  0  0  0  0  0  0  0  0  0
    7.8138  -13.7237   19.1057 C   0  0  2  0  0  0  0  0  0  0  0  0
    8.1681  -12.8874   20.3110 C   0  0  0  0  0  0  0  0  0  0  0  0
    8.3607  -15.1249   19.2099 C   0  0  2  0  0  0  0  0  0  0  0  0
    7.8305  -15.8629   18.0492 N   0  0  0  0  0  0  0  0  0  0  0  0
    7.9100  -15.8582   20.4125 C   0  0  0  0  0  0  0  0  0  0  0  0
    6.8121  -16.4538   20.3962 O   0  0  0  0  0  0  0  0  0  0  0  0
    5.1303  -19.1825   23.2851 N   0  0  0  0  0  0  0  0  0  0  0  0
    6.4555  -19.4821   22.8745 C   0  0  0  0  0  0  0  0  0  0  0  0
    7.1229  -20.3629   23.4656 O   0  0  0  0  0  0  0  0  0  0  0  0
    7.0161  -18.7346   21.7451 C   0  0  0  0  0  0  0  0  0  0  0  0
    8.4112  -18.2566   22.1023 C   0  0  0  0  0  0  0  0  0  0  0  0
    8.3381  -16.8535   22.6941 C   0  0  2  0  0  0  0  0  0  0  0  0
    8.6598  -15.9369   21.6221 N   0  0  0  0  0  0  0  0  0  0  0  0
    9.3887  -16.8056   23.7688 C   0  0  0  0  0  0  0  0  0  0  0  0
    9.7217  -17.8795   24.3385 O   0  0  0  0  0  0  0  0  0  0  0  0
   10.0125  -15.6149   24.1626 N   0  0  0  0  0  0  0  0  0  0  0  0
    9.5377  -14.7725   25.2634 C   0  0  1  0  0  0  0  0  0  0  0  0
    8.2861  -14.0890   24.7964 C   0  0  0  0  0  0  0  0  0  0  0  0
    7.6147  -13.2803   25.8397 C   0  0  0  0  0  0  0  0  0  0  0  0
    6.2491  -13.3645   25.9926 C   0  0  0  0  0  0  0  0  0  0  0  0
    5.6282  -12.6009   26.9808 C   0  0  0  0  0  0  0  0  0  0  0  0
    6.3369  -11.7592   27.8155 C   0  0  0  0  0  0  0  0  0  0  0  0
    7.7036  -11.6826   27.6535 C   0  0  0  0  0  0  0  0  0  0  0  0
    8.3252  -12.4362   26.6768 C   0  0  0  0  0  0  0  0  0  0  0  0
    9.3207  -15.6509   26.4381 C   0  0  0  0  0  0  0  0  0  0  0  0
    9.9696  -15.4159   27.6605 O   0  0  0  0  0  0  0  0  0  0  0  0
    8.5551  -16.6486   26.4228 O   0  0  0  0  0  0  0  0  0  0  0  0
  2  1  1  6
  2  4  1  0
  2  3  1  0
  4  5  1  6
  6  4  1  0
  6 14  1  0
  7  6  2  0
  8  9  1  0
  9 11  1  0
  9 10  2  0
 11 12  1  0
 13 12  1  6
 13 14  1  0
 15 13  1  0
 16 15  2  0
 17 15  1  0
 18 17  1  0
 18 26  1  0
 18 19  1  6
 20 25  2  0
 20 19  1  0
 21 20  1  0
 22 23  1  0
 22 21  2  0
 23 24  2  0
 24 25  1  0
 26 27  1  0
 28 26  2  0
M  END
$$$$
