VQF.pdb
     RDKit          3D

 28 28  0  0  1  0  0  0  0  0999 V2000
    7.4485  -12.7147   21.7871 C   0  0  0  0  0  0  0  0  0  0  0  0
    8.3051  -13.1050   20.6374 C   0  0  2  0  0  0  0  0  0  0  0  0
    8.0771  -12.1864   19.4618 C   0  0  0  0  0  0  0  0  0  0  0  0
    8.2317  -14.5579   20.2413 C   0  0  2  0  0  0  0  0  0  0  0  0
    6.8667  -14.7785   19.7301 N   0  0  0  0  0  0  0  0  0  0  0  0
    8.4126  -15.4982   21.3684 C   0  0  0  0  0  0  0  0  0  0  0  0
    7.4161  -15.8852   22.0146 O   0  0  0  0  0  0  0  0  0  0  0  0
   13.4331  -19.9180   24.2275 N   0  0  0  0  0  0  0  0  0  0  0  0
   12.5234  -19.6334   23.1757 C   0  0  0  0  0  0  0  0  0  0  0  0
   12.7662  -20.0060   22.0040 O   0  0  0  0  0  0  0  0  0  0  0  0
   11.2992  -18.8953   23.4998 C   0  0  0  0  0  0  0  0  0  0  0  0
   11.1112  -17.7707   22.4987 C   0  0  0  0  0  0  0  0  0  0  0  0
    9.8273  -17.0113   22.8136 C   0  0  2  0  0  0  0  0  0  0  0  0
    9.6776  -16.0091   21.7810 N   0  0  0  0  0  0  0  0  0  0  0  0
   10.0496  -16.3661   24.1535 C   0  0  0  0  0  0  0  0  0  0  0  0
   10.9145  -15.4545   24.2506 O   0  0  0  0  0  0  0  0  0  0  0  0
    9.3338  -16.7377   25.2986 N   0  0  0  0  0  0  0  0  0  0  0  0
    9.5832  -16.1811   26.6309 C   0  0  1  0  0  0  0  0  0  0  0  0
    8.2557  -15.7807   27.2046 C   0  0  0  0  0  0  0  0  0  0  0  0
    7.7635  -14.4678   26.7280 C   0  0  0  0  0  0  0  0  0  0  0  0
    8.5287  -13.3407   26.9267 C   0  0  0  0  0  0  0  0  0  0  0  0
    8.0564  -12.1103   26.4705 C   0  0  0  0  0  0  0  0  0  0  0  0
    6.8431  -11.9807   25.8235 C   0  0  0  0  0  0  0  0  0  0  0  0
    6.0852  -13.1156   25.6300 C   0  0  0  0  0  0  0  0  0  0  0  0
    6.5468  -14.3376   26.0792 C   0  0  0  0  0  0  0  0  0  0  0  0
   10.2750  -17.2220   27.4288 C   0  0  0  0  0  0  0  0  0  0  0  0
   10.4741  -18.5186   26.9293 O   0  0  0  0  0  0  0  0  0  0  0  0
   10.7234  -17.0207   28.5865 O   0  0  0  0  0  0  0  0  0  0  0  0
  2  1  1  1
  2  4  1  0
  2  3  1  0
  4  5  1  1
  6  4  1  0
  6 14  1  0
  7  6  2  0
  8  9  1  0
  9 11  1  0
  9 10  2  0
 11 12  1  0
 13 12  1  6
 13 14  1  0
 15 13  1  0
 16 15  2  0
 17 15  1  0
 18 17  1  0
 18 26  1  0
 18 19  1  1
 20 25  2  0
 20 19  1  0
 21 20  1  0
 22 23  1  0
 22 21  2  0
 23 24  2  0
 24 25  1  0
 26 27  1  0
 28 26  2  0
M  END
$$$$
