VQF.pdb
     RDKit          3D

 28 28  0  0  1  0  0  0  0  0999 V2000
    7.4070  -12.0710   19.3215 C   0  0  0  0  0  0  0  0  0  0  0  0
    7.6841  -13.0492   20.4051 C   0  0  2  0  0  0  0  0  0  0  0  0
    8.7664  -12.5391   21.3250 C   0  0  0  0  0  0  0  0  0  0  0  0
    7.9505  -14.4611   19.9480 C   0  0  2  0  0  0  0  0  0  0  0  0
    6.8899  -14.7885   18.9780 N   0  0  0  0  0  0  0  0  0  0  0  0
    7.8568  -15.4696   21.0255 C   0  0  0  0  0  0  0  0  0  0  0  0
    6.7386  -15.9189   21.3542 O   0  0  0  0  0  0  0  0  0  0  0  0
   12.1851  -19.5500   21.2310 N   0  0  0  0  0  0  0  0  0  0  0  0
   11.3616  -20.1322   22.2298 C   0  0  0  0  0  0  0  0  0  0  0  0
   11.6016  -21.2833   22.6634 O   0  0  0  0  0  0  0  0  0  0  0  0
   10.2290  -19.3511   22.7353 C   0  0  0  0  0  0  0  0  0  0  0  0
   10.2172  -17.9910   22.0628 C   0  0  0  0  0  0  0  0  0  0  0  0
    8.9580  -17.2304   22.4632 C   0  0  2  0  0  0  0  0  0  0  0  0
    8.9826  -15.9805   21.7349 N   0  0  0  0  0  0  0  0  0  0  0  0
    9.0776  -16.9872   23.9422 C   0  0  0  0  0  0  0  0  0  0  0  0
    8.8604  -17.9444   24.7328 O   0  0  0  0  0  0  0  0  0  0  0  0
    9.4208  -15.7390   24.4770 N   0  0  0  0  0  0  0  0  0  0  0  0
    9.3837  -15.4286   25.9085 C   0  0  1  0  0  0  0  0  0  0  0  0
    7.9410  -15.3054   26.3027 C   0  0  0  0  0  0  0  0  0  0  0  0
    7.3899  -13.9387   26.1564 C   0  0  0  0  0  0  0  0  0  0  0  0
    6.0280  -13.7601   26.0625 C   0  0  0  0  0  0  0  0  0  0  0  0
    5.5202  -12.4681   25.9285 C   0  0  0  0  0  0  0  0  0  0  0  0
    6.3379  -11.3559   25.8863 C   0  0  0  0  0  0  0  0  0  0  0  0
    7.6998  -11.5462   25.9812 C   0  0  0  0  0  0  0  0  0  0  0  0
    8.2096  -12.8232   26.1141 C   0  0  0  0  0  0  0  0  0  0  0  0
   10.0938  -16.5176   26.6216 C   0  0  0  0  0  0  0  0  0  0  0  0
   10.6844  -17.5859   25.9286 O   0  0  0  0  0  0  0  0  0  0  0  0
   10.2146  -16.5602   27.8727 O   0  0  0  0  0  0  0  0  0  0  0  0
  2  1  1  6
  2  4  1  0
  2  3  1  0
  4  5  1  6
  6  4  1  0
  6 14  1  0
  7  6  2  0
  8  9  1  0
  9 11  1  0
  9 10  2  0
 11 12  1  0
 13 12  1  6
 13 14  1  0
 15 13  1  0
 16 15  2  0
 17 15  1  0
 18 17  1  0
 18 26  1  0
 18 19  1  1
 20 25  2  0
 20 19  1  0
 21 20  1  0
 22 23  1  0
 22 21  2  0
 23 24  2  0
 24 25  1  0
 26 27  1  0
 28 26  2  0
M  END
$$$$
