VQF.pdb
     RDKit          3D

 28 28  0  0  1  0  0  0  0  0999 V2000
    7.5837  -12.3302   18.9899 C   0  0  0  0  0  0  0  0  0  0  0  0
    7.7296  -13.2993   20.1068 C   0  0  2  0  0  0  0  0  0  0  0  0
    8.3801  -12.6470   21.3022 C   0  0  0  0  0  0  0  0  0  0  0  0
    8.3913  -14.6053   19.7464 C   0  0  2  0  0  0  0  0  0  0  0  0
    7.6208  -15.1618   18.6196 N   0  0  0  0  0  0  0  0  0  0  0  0
    8.3479  -15.6184   20.8228 C   0  0  0  0  0  0  0  0  0  0  0  0
    7.2706  -16.1932   21.0857 O   0  0  0  0  0  0  0  0  0  0  0  0
   11.4466  -19.4810   19.3038 N   0  0  0  0  0  0  0  0  0  0  0  0
   11.2349  -19.6036   20.7020 C   0  0  0  0  0  0  0  0  0  0  0  0
   12.0320  -20.2594   21.4129 O   0  0  0  0  0  0  0  0  0  0  0  0
   10.0632  -18.9440   21.2854 C   0  0  0  0  0  0  0  0  0  0  0  0
   10.5141  -17.9962   22.3811 C   0  0  0  0  0  0  0  0  0  0  0  0
    9.4156  -16.9779   22.6645 C   0  0  2  0  0  0  0  0  0  0  0  0
    9.4792  -15.9970   21.6029 N   0  0  0  0  0  0  0  0  0  0  0  0
    9.7648  -16.3540   23.9873 C   0  0  0  0  0  0  0  0  0  0  0  0
   10.7668  -15.5922   24.0518 O   0  0  0  0  0  0  0  0  0  0  0  0
    9.0210  -16.5856   25.1513 N   0  0  0  0  0  0  0  0  0  0  0  0
    9.3692  -16.0336   26.4632 C   0  0  1  0  0  0  0  0  0  0  0  0
    8.0915  -15.6005   27.1202 C   0  0  0  0  0  0  0  0  0  0  0  0
    7.5528  -14.3201   26.6071 C   0  0  0  0  0  0  0  0  0  0  0  0
    6.4509  -14.3269   25.7818 C   0  0  0  0  0  0  0  0  0  0  0  0
    5.9503  -13.1147   25.3075 C   0  0  0  0  0  0  0  0  0  0  0  0
    6.5227  -11.9017   25.6370 C   0  0  0  0  0  0  0  0  0  0  0  0
    7.6256  -11.9066   26.4638 C   0  0  0  0  0  0  0  0  0  0  0  0
    8.1267  -13.1036   26.9373 C   0  0  0  0  0  0  0  0  0  0  0  0
   10.0858  -17.0900   27.2177 C   0  0  0  0  0  0  0  0  0  0  0  0
   10.8532  -16.7887   28.3538 O   0  0  0  0  0  0  0  0  0  0  0  0
   10.0573  -18.3064   26.8994 O   0  0  0  0  0  0  0  0  0  0  0  0
  2  1  1  6
  2  4  1  0
  2  3  1  0
  4  5  1  6
  6  4  1  0
  6 14  1  0
  7  6  2  0
  8  9  1  0
  9 11  1  0
  9 10  2  0
 11 12  1  0
 13 12  1  6
 13 14  1  0
 15 13  1  0
 16 15  2  0
 17 15  1  0
 18 17  1  0
 18 26  1  0
 18 19  1  1
 20 25  2  0
 20 19  1  0
 21 20  1  0
 22 23  1  0
 22 21  2  0
 23 24  2  0
 24 25  1  0
 26 27  1  0
 28 26  2  0
M  END
$$$$
