KES.pdb
     RDKit          3D

 25 24  0  0  1  0  0  0  0  0999 V2000
    8.3728  -18.2406   19.9292 N   0  0  0  0  0  0  0  0  0  0  0  0
    9.1900  -17.1037   20.2728 C   0  0  1  0  0  0  0  0  0  0  0  0
    8.4025  -15.8670   20.5822 C   0  0  0  0  0  0  0  0  0  0  0  0
    7.6842  -15.2561   19.4397 C   0  0  0  0  0  0  0  0  0  0  0  0
    7.5352  -13.7882   19.4162 C   0  0  0  0  0  0  0  0  0  0  0  0
    6.7938  -13.2149   18.2585 C   0  0  0  0  0  0  0  0  0  0  0  0
    6.6620  -11.7707   18.5167 N   0  0  0  0  0  0  0  0  0  0  0  0
   10.0720  -17.4908   21.4169 C   0  0  0  0  0  0  0  0  0  0  0  0
    9.6619  -18.2576   22.3332 O   0  0  0  0  0  0  0  0  0  0  0  0
   11.4013  -17.0120   21.5135 N   0  0  0  0  0  0  0  0  0  0  0  0
   12.3006  -17.3363   22.6137 C   0  0  1  0  0  0  0  0  0  0  0  0
   13.6443  -16.7085   22.4461 C   0  0  0  0  0  0  0  0  0  0  0  0
   14.6024  -16.8994   23.5642 C   0  0  0  0  0  0  0  0  0  0  0  0
   15.9593  -16.3935   23.3450 C   0  0  0  0  0  0  0  0  0  0  0  0
   16.3374  -15.2377   23.6689 O   0  0  0  0  0  0  0  0  0  0  0  0
   11.6925  -16.7699   23.8815 C   0  0  0  0  0  0  0  0  0  0  0  0
   11.2656  -15.5869   23.8696 O   0  0  0  0  0  0  0  0  0  0  0  0
   16.9576  -17.1866   22.7414 O   0  0  0  0  0  0  0  0  0  0  0  0
    8.8218  -18.1149   25.9674 O   0  0  0  0  0  0  0  0  0  0  0  0
    9.5024  -16.8974   26.1898 C   0  0  0  0  0  0  0  0  0  0  0  0
   10.9636  -17.1722   26.2621 C   0  0  2  0  0  0  0  0  0  0  0  0
   11.6035  -17.5460   25.0529 N   0  0  0  0  0  0  0  0  0  0  0  0
   11.3344  -18.0487   27.4339 C   0  0  0  0  0  0  0  0  0  0  0  0
   10.9187  -17.7076   28.6790 O   0  0  0  0  0  0  0  0  0  0  0  0
   12.0173  -19.0873   27.2709 O   0  0  0  0  0  0  0  0  0  0  0  0
  2  8  1  0
  2  1  1  1
  3  2  1  0
  4  3  1  0
  5  4  1  0
  6  5  1  0
  6  7  1  0
  8  9  2  0
 10 11  1  0
 10  8  1  0
 12 13  1  0
 11 12  1  6
 13 14  1  0
 14 18  1  0
 14 15  2  0
 16 17  2  0
 16 11  1  0
 19 20  1  0
 21 20  1  6
 21 22  1  0
 21 23  1  0
 22 16  1  0
 23 24  1  0
 25 23  2  0
M  END
$$$$
