KES.pdb
     RDKit          3D

 25 24  0  0  1  0  0  0  0  0999 V2000
    8.7461  -17.9110   18.5672 N   0  0  0  0  0  0  0  0  0  0  0  0
    9.8248  -17.0861   19.0517 C   0  0  1  0  0  0  0  0  0  0  0  0
    9.3767  -15.7574   19.5800 C   0  0  0  0  0  0  0  0  0  0  0  0
    8.6086  -14.9127   18.6362 C   0  0  0  0  0  0  0  0  0  0  0  0
    8.2636  -13.5401   19.0534 C   0  0  0  0  0  0  0  0  0  0  0  0
    7.6171  -12.6769   18.0260 C   0  0  0  0  0  0  0  0  0  0  0  0
    7.4817  -11.3383   18.6258 N   0  0  0  0  0  0  0  0  0  0  0  0
   10.5770  -17.8606   20.0865 C   0  0  0  0  0  0  0  0  0  0  0  0
   10.0598  -18.8558   20.6679 O   0  0  0  0  0  0  0  0  0  0  0  0
   11.8988  -17.5066   20.4513 N   0  0  0  0  0  0  0  0  0  0  0  0
   12.7040  -18.2583   21.4058 C   0  0  1  0  0  0  0  0  0  0  0  0
   14.1587  -17.9485   21.2820 C   0  0  0  0  0  0  0  0  0  0  0  0
   15.0619  -18.6456   22.2323 C   0  0  0  0  0  0  0  0  0  0  0  0
   16.4882  -18.3343   22.1137 C   0  0  0  0  0  0  0  0  0  0  0  0
   17.0795  -17.4763   22.8192 O   0  0  0  0  0  0  0  0  0  0  0  0
   12.2702  -17.8404   22.7969 C   0  0  0  0  0  0  0  0  0  0  0  0
   12.3200  -16.6217   23.1038 O   0  0  0  0  0  0  0  0  0  0  0  0
   17.3147  -18.9910   21.1782 O   0  0  0  0  0  0  0  0  0  0  0  0
    9.2643  -18.0558   24.1751 O   0  0  0  0  0  0  0  0  0  0  0  0
    9.9321  -18.5518   25.3165 C   0  0  0  0  0  0  0  0  0  0  0  0
   11.3984  -18.5288   25.0610 C   0  0  2  0  0  0  0  0  0  0  0  0
   11.8191  -18.7911   23.7323 N   0  0  0  0  0  0  0  0  0  0  0  0
   12.1831  -19.2910   26.1012 C   0  0  0  0  0  0  0  0  0  0  0  0
   11.9780  -19.0278   27.4158 O   0  0  0  0  0  0  0  0  0  0  0  0
   13.0178  -20.1645   25.7665 O   0  0  0  0  0  0  0  0  0  0  0  0
  2  8  1  0
  2  1  1  1
  3  2  1  0
  4  3  1  0
  5  4  1  0
  6  5  1  0
  6  7  1  0
  8  9  2  0
 10 11  1  0
 10  8  1  0
 12 13  1  0
 11 12  1  6
 13 14  1  0
 14 18  1  0
 14 15  2  0
 16 17  2  0
 16 11  1  0
 19 20  1  0
 21 20  1  6
 21 22  1  0
 21 23  1  0
 22 16  1  0
 23 24  1  0
 25 23  2  0
M  END
$$$$
