KES.pdb
     RDKit          3D

 25 24  0  0  1  0  0  0  0  0999 V2000
   -1.4577  -25.8092   29.5114 N   0  0  0  0  0  0  0  0  0  0  0  0
   -2.7994  -26.2920   29.7247 C   0  0  1  0  0  0  0  0  0  0  0  0
   -2.9404  -27.1652   30.9341 C   0  0  0  0  0  0  0  0  0  0  0  0
   -2.0144  -28.3191   31.0091 C   0  0  0  0  0  0  0  0  0  0  0  0
   -2.1364  -29.2355   32.1591 C   0  0  0  0  0  0  0  0  0  0  0  0
   -1.2000  -30.3935   32.1871 C   0  0  0  0  0  0  0  0  0  0  0  0
    0.1624  -29.8335   32.1709 N   0  0  0  0  0  0  0  0  0  0  0  0
   -3.7154  -25.1117   29.7927 C   0  0  0  0  0  0  0  0  0  0  0  0
   -3.3252  -24.0022   30.2536 O   0  0  0  0  0  0  0  0  0  0  0  0
   -5.0548  -25.1953   29.3405 N   0  0  0  0  0  0  0  0  0  0  0  0
   -5.9856  -24.0737   29.3548 C   0  0  1  0  0  0  0  0  0  0  0  0
   -5.9338  -23.2831   28.0900 C   0  0  0  0  0  0  0  0  0  0  0  0
   -6.8597  -22.1258   28.0004 C   0  0  0  0  0  0  0  0  0  0  0  0
   -6.7114  -21.2702   26.8210 C   0  0  0  0  0  0  0  0  0  0  0  0
   -5.8131  -21.4226   25.9529 O   0  0  0  0  0  0  0  0  0  0  0  0
   -7.3850  -24.6442   29.4737 C   0  0  0  0  0  0  0  0  0  0  0  0
   -7.7519  -25.5192   28.6480 O   0  0  0  0  0  0  0  0  0  0  0  0
   -7.5862  -20.1919   26.5728 O   0  0  0  0  0  0  0  0  0  0  0  0
   -9.4221  -24.9613   33.0788 O   0  0  0  0  0  0  0  0  0  0  0  0
   -9.7129  -25.6501   31.8805 C   0  0  0  0  0  0  0  0  0  0  0  0
   -9.5659  -24.7067   30.7384 C   0  0  2  0  0  0  0  0  0  0  0  0
   -8.2623  -24.2089   30.4852 N   0  0  0  0  0  0  0  0  0  0  0  0
  -10.6305  -23.6365   30.7261 C   0  0  0  0  0  0  0  0  0  0  0  0
  -10.2639  -22.3327   30.6533 O   0  0  0  0  0  0  0  0  0  0  0  0
  -11.8466  -23.9367   30.7788 O   0  0  0  0  0  0  0  0  0  0  0  0
  2  8  1  0
  2  1  1  1
  3  2  1  0
  4  3  1  0
  5  4  1  0
  6  5  1  0
  6  7  1  0
  8  9  2  0
 10 11  1  0
 10  8  1  0
 12 13  1  0
 11 12  1  6
 13 14  1  0
 14 18  1  0
 14 15  2  0
 16 17  2  0
 16 11  1  0
 19 20  1  0
 21 20  1  1
 21 22  1  0
 21 23  1  0
 22 16  1  0
 23 24  1  0
 25 23  2  0
M  END
$$$$
