KES.pdb
     RDKit          3D

 25 24  0  0  1  0  0  0  0  0999 V2000
   12.0126  -21.7501   19.9133 N   0  0  0  0  0  0  0  0  0  0  0  0
   12.8606  -20.6548   20.3133 C   0  0  1  0  0  0  0  0  0  0  0  0
   12.2757  -19.3049   20.0289 C   0  0  0  0  0  0  0  0  0  0  0  0
   10.8161  -19.2734   19.7778 C   0  0  0  0  0  0  0  0  0  0  0  0
   10.3463  -18.7908   18.4650 C   0  0  0  0  0  0  0  0  0  0  0  0
    8.8720  -18.7730   18.2533 C   0  0  0  0  0  0  0  0  0  0  0  0
    8.6508  -18.3131   16.8714 N   0  0  0  0  0  0  0  0  0  0  0  0
   13.1802  -20.8174   21.7653 C   0  0  0  0  0  0  0  0  0  0  0  0
   12.3821  -21.3989   22.5531 O   0  0  0  0  0  0  0  0  0  0  0  0
   14.3916  -20.3258   22.3096 N   0  0  0  0  0  0  0  0  0  0  0  0
   14.7985  -20.5297   23.6943 C   0  0  1  0  0  0  0  0  0  0  0  0
   16.2663  -20.3362   23.8839 C   0  0  0  0  0  0  0  0  0  0  0  0
   16.9171  -19.3387   22.9973 C   0  0  0  0  0  0  0  0  0  0  0  0
   18.3711  -19.2145   23.1233 C   0  0  0  0  0  0  0  0  0  0  0  0
   18.9506  -18.7743   24.1500 O   0  0  0  0  0  0  0  0  0  0  0  0
   14.0930  -19.4845   24.5354 C   0  0  0  0  0  0  0  0  0  0  0  0
   13.8188  -18.3738   24.0126 O   0  0  0  0  0  0  0  0  0  0  0  0
   19.2403  -19.5888   22.0774 O   0  0  0  0  0  0  0  0  0  0  0  0
   10.1322  -19.7179   26.4826 O   0  0  0  0  0  0  0  0  0  0  0  0
   11.2905  -20.0051   25.7272 C   0  0  0  0  0  0  0  0  0  0  0  0
   12.4824  -19.5203   26.4758 C   0  0  2  0  0  0  0  0  0  0  0  0
   13.7477  -19.7439   25.8755 N   0  0  0  0  0  0  0  0  0  0  0  0
   12.4391  -19.8854   27.9399 C   0  0  0  0  0  0  0  0  0  0  0  0
   13.4665  -20.5847   28.4829 O   0  0  0  0  0  0  0  0  0  0  0  0
   11.4694  -19.5485   28.6595 O   0  0  0  0  0  0  0  0  0  0  0  0
  2  8  1  0
  2  1  1  1
  3  2  1  0
  4  3  1  0
  5  4  1  0
  6  5  1  0
  6  7  1  0
  8  9  2  0
 10 11  1  0
 10  8  1  0
 12 13  1  0
 11 12  1  6
 13 14  1  0
 14 18  1  0
 14 15  2  0
 16 17  2  0
 16 11  1  0
 19 20  1  0
 21 20  1  6
 21 22  1  0
 21 23  1  0
 22 16  1  0
 23 24  1  0
 25 23  2  0
M  END
$$$$
