KES.pdb
     RDKit          3D

 25 24  0  0  1  0  0  0  0  0999 V2000
    9.1910  -16.3155   16.7101 N   0  0  0  0  0  0  0  0  0  0  0  0
    9.9777  -15.5883   17.6749 C   0  0  1  0  0  0  0  0  0  0  0  0
    9.2922  -14.3711   18.2169 C   0  0  0  0  0  0  0  0  0  0  0  0
    8.5604  -13.5474   17.2267 C   0  0  0  0  0  0  0  0  0  0  0  0
    7.1615  -13.1830   17.5229 C   0  0  0  0  0  0  0  0  0  0  0  0
    6.4889  -12.2833   16.5448 C   0  0  0  0  0  0  0  0  0  0  0  0
    5.0917  -12.1461   16.9910 N   0  0  0  0  0  0  0  0  0  0  0  0
   10.3636  -16.5315   18.7695 C   0  0  0  0  0  0  0  0  0  0  0  0
    9.6909  -17.5741   19.0067 O   0  0  0  0  0  0  0  0  0  0  0  0
   11.4997  -16.2901   19.5798 N   0  0  0  0  0  0  0  0  0  0  0  0
   11.9736  -17.2117   20.6047 C   0  0  1  0  0  0  0  0  0  0  0  0
   13.4066  -17.5812   20.4103 C   0  0  0  0  0  0  0  0  0  0  0  0
   13.6993  -18.5087   19.2884 C   0  0  0  0  0  0  0  0  0  0  0  0
   15.0962  -18.9241   19.1420 C   0  0  0  0  0  0  0  0  0  0  0  0
   15.9639  -18.7959   20.0443 O   0  0  0  0  0  0  0  0  0  0  0  0
   11.8676  -16.5020   21.9400 C   0  0  0  0  0  0  0  0  0  0  0  0
   12.5102  -15.4340   22.1084 O   0  0  0  0  0  0  0  0  0  0  0  0
   15.5743  -19.5097   17.9511 O   0  0  0  0  0  0  0  0  0  0  0  0
    8.4542  -16.2565   24.0266 O   0  0  0  0  0  0  0  0  0  0  0  0
    9.6178  -15.4978   24.2819 C   0  0  0  0  0  0  0  0  0  0  0  0
   10.8001  -16.4004   24.2226 C   0  0  2  0  0  0  0  0  0  0  0  0
   11.0677  -17.0211   22.9759 N   0  0  0  0  0  0  0  0  0  0  0  0
   10.8667  -17.3509   25.3935 C   0  0  0  0  0  0  0  0  0  0  0  0
   11.0399  -18.6768   25.1665 O   0  0  0  0  0  0  0  0  0  0  0  0
   10.7675  -16.9310   26.5707 O   0  0  0  0  0  0  0  0  0  0  0  0
  2  8  1  0
  2  1  1  6
  3  2  1  0
  4  3  1  0
  5  4  1  0
  6  5  1  0
  6  7  1  0
  8  9  2  0
 10 11  1  0
 10  8  1  0
 12 13  1  0
 11 12  1  6
 13 14  1  0
 14 18  1  0
 14 15  2  0
 16 17  2  0
 16 11  1  0
 19 20  1  0
 21 20  1  6
 21 22  1  0
 21 23  1  0
 22 16  1  0
 23 24  1  0
 25 23  2  0
M  END
$$$$
