KES.pdb
     RDKit          3D

 25 24  0  0  1  0  0  0  0  0999 V2000
   12.4593  -15.9984   14.6520 N   0  0  0  0  0  0  0  0  0  0  0  0
   11.8188  -15.2637   15.7143 C   0  0  1  0  0  0  0  0  0  0  0  0
   10.3268  -15.4011   15.7276 C   0  0  0  0  0  0  0  0  0  0  0  0
    9.6930  -15.6886   14.4199 C   0  0  0  0  0  0  0  0  0  0  0  0
    8.2347  -15.9110   14.3875 C   0  0  0  0  0  0  0  0  0  0  0  0
    7.6477  -16.2716   13.0669 C   0  0  0  0  0  0  0  0  0  0  0  0
    6.1904  -16.3581   13.2637 N   0  0  0  0  0  0  0  0  0  0  0  0
   12.4197  -15.6999   17.0125 C   0  0  0  0  0  0  0  0  0  0  0  0
   12.5492  -16.9234   17.2991 O   0  0  0  0  0  0  0  0  0  0  0  0
   12.8674  -14.7554   17.9682 N   0  0  0  0  0  0  0  0  0  0  0  0
   13.5794  -15.1137   19.1884 C   0  0  1  0  0  0  0  0  0  0  0  0
   14.8757  -14.3854   19.3181 C   0  0  0  0  0  0  0  0  0  0  0  0
   15.6737  -14.6766   20.5359 C   0  0  0  0  0  0  0  0  0  0  0  0
   16.9624  -13.9888   20.6430 C   0  0  0  0  0  0  0  0  0  0  0  0
   17.1175  -12.8745   21.2068 O   0  0  0  0  0  0  0  0  0  0  0  0
   12.7109  -14.7018   20.3606 C   0  0  0  0  0  0  0  0  0  0  0  0
   11.9608  -13.7003   20.2331 O   0  0  0  0  0  0  0  0  0  0  0  0
   18.1445  -14.5423   20.1084 O   0  0  0  0  0  0  0  0  0  0  0  0
    9.4007  -16.5750   22.5590 O   0  0  0  0  0  0  0  0  0  0  0  0
   10.4188  -16.2867   21.6235 C   0  0  0  0  0  0  0  0  0  0  0  0
   11.6142  -15.7861   22.3560 C   0  0  2  0  0  0  0  0  0  0  0  0
   12.7373  -15.4208   21.5709 N   0  0  0  0  0  0  0  0  0  0  0  0
   11.9674  -16.6419   23.5483 C   0  0  0  0  0  0  0  0  0  0  0  0
   11.1014  -16.7252   24.5888 O   0  0  0  0  0  0  0  0  0  0  0  0
   13.0472  -17.2778   23.5878 O   0  0  0  0  0  0  0  0  0  0  0  0
  2  8  1  0
  2  1  1  6
  3  2  1  0
  4  3  1  0
  5  4  1  0
  6  5  1  0
  6  7  1  0
  8  9  2  0
 10 11  1  0
 10  8  1  0
 12 13  1  0
 11 12  1  1
 13 14  1  0
 14 18  1  0
 14 15  2  0
 16 17  2  0
 16 11  1  0
 19 20  1  0
 21 20  1  6
 21 22  1  0
 21 23  1  0
 22 16  1  0
 23 24  1  0
 25 23  2  0
M  END
$$$$
