KES.pdb
     RDKit          3D

 25 24  0  0  1  0  0  0  0  0999 V2000
    9.0514  -18.3114   19.8337 N   0  0  0  0  0  0  0  0  0  0  0  0
    9.9774  -17.2410   20.1086 C   0  0  1  0  0  0  0  0  0  0  0  0
    9.3134  -15.9282   20.3933 C   0  0  0  0  0  0  0  0  0  0  0  0
    8.5434  -15.3377   19.2740 C   0  0  0  0  0  0  0  0  0  0  0  0
    7.9536  -13.9988   19.4653 C   0  0  0  0  0  0  0  0  0  0  0  0
    7.2470  -13.4113   18.2931 C   0  0  0  0  0  0  0  0  0  0  0  0
    6.7183  -12.1077   18.7304 N   0  0  0  0  0  0  0  0  0  0  0  0
   10.8589  -17.6646   21.2400 C   0  0  0  0  0  0  0  0  0  0  0  0
   10.4752  -18.5182   22.0885 O   0  0  0  0  0  0  0  0  0  0  0  0
   12.1582  -17.1244   21.4001 N   0  0  0  0  0  0  0  0  0  0  0  0
   13.0790  -17.5293   22.4548 C   0  0  1  0  0  0  0  0  0  0  0  0
   14.3859  -16.8140   22.3663 C   0  0  0  0  0  0  0  0  0  0  0  0
   15.3976  -17.1647   23.3950 C   0  0  0  0  0  0  0  0  0  0  0  0
   16.6879  -16.4794   23.2913 C   0  0  0  0  0  0  0  0  0  0  0  0
   16.9418  -15.3762   23.8408 O   0  0  0  0  0  0  0  0  0  0  0  0
   12.4473  -17.1532   23.7805 C   0  0  0  0  0  0  0  0  0  0  0  0
   12.0233  -15.9792   23.9353 O   0  0  0  0  0  0  0  0  0  0  0  0
   17.7583  -17.0230   22.5508 O   0  0  0  0  0  0  0  0  0  0  0  0
    9.7017  -19.2043   25.7072 O   0  0  0  0  0  0  0  0  0  0  0  0
   10.1566  -17.8962   25.9845 C   0  0  0  0  0  0  0  0  0  0  0  0
   11.6437  -17.9100   26.0480 C   0  0  2  0  0  0  0  0  0  0  0  0
   12.3334  -18.0933   24.8224 N   0  0  0  0  0  0  0  0  0  0  0  0
   12.1711  -18.7727   27.1690 C   0  0  0  0  0  0  0  0  0  0  0  0
   11.6894  -18.6009   28.4252 O   0  0  0  0  0  0  0  0  0  0  0  0
   13.0442  -19.6462   26.9536 O   0  0  0  0  0  0  0  0  0  0  0  0
  2  8  1  0
  2  1  1  1
  3  2  1  0
  4  3  1  0
  5  4  1  0
  6  5  1  0
  6  7  1  0
  8  9  2  0
 10 11  1  0
 10  8  1  0
 12 13  1  0
 11 12  1  6
 13 14  1  0
 14 18  1  0
 14 15  2  0
 16 17  2  0
 16 11  1  0
 19 20  1  0
 21 20  1  6
 21 22  1  0
 21 23  1  0
 22 16  1  0
 23 24  1  0
 25 23  2  0
M  END
$$$$
