KES.pdb
     RDKit          3D

 25 24  0  0  1  0  0  0  0  0999 V2000
    6.5147  -18.0499   20.6169 N   0  0  0  0  0  0  0  0  0  0  0  0
    7.6931  -17.2390   20.4363 C   0  0  1  0  0  0  0  0  0  0  0  0
    7.4733  -15.7846   20.7216 C   0  0  0  0  0  0  0  0  0  0  0  0
    7.8216  -14.8515   19.6250 C   0  0  0  0  0  0  0  0  0  0  0  0
    7.6210  -13.4071   19.8504 C   0  0  0  0  0  0  0  0  0  0  0  0
    7.9723  -12.5039   18.7193 C   0  0  0  0  0  0  0  0  0  0  0  0
    7.5354  -11.1521   19.1090 N   0  0  0  0  0  0  0  0  0  0  0  0
    8.7845  -17.8044   21.2883 C   0  0  0  0  0  0  0  0  0  0  0  0
    8.5306  -18.3972   22.3745 O   0  0  0  0  0  0  0  0  0  0  0  0
   10.1440  -17.6969   20.9065 N   0  0  0  0  0  0  0  0  0  0  0  0
   11.2467  -18.2683   21.6693 C   0  0  1  0  0  0  0  0  0  0  0  0
   12.5500  -18.1461   20.9522 C   0  0  0  0  0  0  0  0  0  0  0  0
   13.7196  -18.7908   21.6011 C   0  0  0  0  0  0  0  0  0  0  0  0
   14.9904  -18.6992   20.8786 C   0  0  0  0  0  0  0  0  0  0  0  0
   15.3719  -19.5384   20.0220 O   0  0  0  0  0  0  0  0  0  0  0  0
   11.3654  -17.4804   22.9588 C   0  0  0  0  0  0  0  0  0  0  0  0
   11.0756  -16.2565   22.9469 O   0  0  0  0  0  0  0  0  0  0  0  0
   15.8938  -17.6387   21.0997 O   0  0  0  0  0  0  0  0  0  0  0  0
    9.2023  -18.0217   26.7456 O   0  0  0  0  0  0  0  0  0  0  0  0
    9.6658  -18.1638   25.4191 C   0  0  0  0  0  0  0  0  0  0  0  0
   11.1477  -18.0225   25.4122 C   0  0  2  0  0  0  0  0  0  0  0  0
   11.7904  -18.0987   24.1502 N   0  0  0  0  0  0  0  0  0  0  0  0
   11.8173  -18.8550   26.4786 C   0  0  0  0  0  0  0  0  0  0  0  0
   12.1104  -18.2921   27.6773 O   0  0  0  0  0  0  0  0  0  0  0  0
   12.1024  -20.0583   26.2723 O   0  0  0  0  0  0  0  0  0  0  0  0
  2  8  1  0
  2  1  1  1
  3  2  1  0
  4  3  1  0
  5  4  1  0
  6  5  1  0
  6  7  1  0
  8  9  2  0
 10 11  1  0
 10  8  1  0
 12 13  1  0
 11 12  1  6
 13 14  1  0
 14 18  1  0
 14 15  2  0
 16 17  2  0
 16 11  1  0
 19 20  1  0
 21 20  1  6
 21 22  1  0
 21 23  1  0
 22 16  1  0
 23 24  1  0
 25 23  2  0
M  END
$$$$
