KES.pdb
     RDKit          3D

 25 24  0  0  1  0  0  0  0  0999 V2000
    9.4039  -15.6350   18.0642 N   0  0  0  0  0  0  0  0  0  0  0  0
    8.7039  -16.6621   18.7948 C   0  0  1  0  0  0  0  0  0  0  0  0
    7.9689  -17.6302   17.9186 C   0  0  0  0  0  0  0  0  0  0  0  0
    8.5409  -17.8422   16.5686 C   0  0  0  0  0  0  0  0  0  0  0  0
    7.8727  -18.8063   15.6735 C   0  0  0  0  0  0  0  0  0  0  0  0
    8.5106  -19.0319   14.3465 C   0  0  0  0  0  0  0  0  0  0  0  0
    7.7171  -20.0722   13.6695 N   0  0  0  0  0  0  0  0  0  0  0  0
    9.6882  -17.3616   19.6770 C   0  0  0  0  0  0  0  0  0  0  0  0
    9.3206  -18.2458   20.5009 O   0  0  0  0  0  0  0  0  0  0  0  0
   11.0704  -17.0584   19.6194 N   0  0  0  0  0  0  0  0  0  0  0  0
   12.0872  -17.7662   20.3872 C   0  0  1  0  0  0  0  0  0  0  0  0
   13.4511  -17.5973   19.8052 C   0  0  0  0  0  0  0  0  0  0  0  0
   14.5686  -18.2194   20.5594 C   0  0  0  0  0  0  0  0  0  0  0  0
   15.9066  -18.0489   19.9884 C   0  0  0  0  0  0  0  0  0  0  0  0
   16.8006  -17.3265   20.5007 O   0  0  0  0  0  0  0  0  0  0  0  0
   12.1114  -17.1619   21.7772 C   0  0  0  0  0  0  0  0  0  0  0  0
   12.8092  -16.1345   21.9764 O   0  0  0  0  0  0  0  0  0  0  0  0
   16.2923  -18.6983   18.7971 O   0  0  0  0  0  0  0  0  0  0  0  0
    9.3339  -16.1568   23.4224 O   0  0  0  0  0  0  0  0  0  0  0  0
    9.9977  -16.6360   24.5732 C   0  0  0  0  0  0  0  0  0  0  0  0
   11.2900  -17.2487   24.1600 C   0  0  2  0  0  0  0  0  0  0  0  0
   11.3704  -17.7329   22.8295 N   0  0  0  0  0  0  0  0  0  0  0  0
   11.8302  -18.2162   25.1851 C   0  0  0  0  0  0  0  0  0  0  0  0
   11.8842  -17.8449   26.4885 O   0  0  0  0  0  0  0  0  0  0  0  0
   12.2256  -19.3573   24.8485 O   0  0  0  0  0  0  0  0  0  0  0  0
  2  8  1  0
  2  1  1  6
  3  2  1  0
  4  3  1  0
  5  4  1  0
  6  5  1  0
  6  7  1  0
  8  9  2  0
 10 11  1  0
 10  8  1  0
 12 13  1  0
 11 12  1  6
 13 14  1  0
 14 18  1  0
 14 15  2  0
 16 17  2  0
 16 11  1  0
 19 20  1  0
 21 20  1  1
 21 22  1  0
 21 23  1  0
 22 16  1  0
 23 24  1  0
 25 23  2  0
M  END
$$$$
