KES.pdb
     RDKit          3D

 25 24  0  0  1  0  0  0  0  0999 V2000
   13.8587  -18.6055   16.7318 N   0  0  0  0  0  0  0  0  0  0  0  0
   13.3003  -17.4696   17.4221 C   0  0  1  0  0  0  0  0  0  0  0  0
   11.8644  -17.2056   17.0844 C   0  0  0  0  0  0  0  0  0  0  0  0
   11.0757  -18.3826   16.6521 C   0  0  0  0  0  0  0  0  0  0  0  0
    9.6740  -18.1689   16.2435 C   0  0  0  0  0  0  0  0  0  0  0  0
    8.8859  -19.3887   15.9125 C   0  0  0  0  0  0  0  0  0  0  0  0
    7.5351  -18.9301   15.5450 N   0  0  0  0  0  0  0  0  0  0  0  0
   13.4872  -17.6773   18.8912 C   0  0  0  0  0  0  0  0  0  0  0  0
   12.9141  -18.6245   19.4997 O   0  0  0  0  0  0  0  0  0  0  0  0
   14.3162  -16.8191   19.6542 N   0  0  0  0  0  0  0  0  0  0  0  0
   14.5294  -16.9645   21.0887 C   0  0  1  0  0  0  0  0  0  0  0  0
   15.8358  -16.3893   21.5246 C   0  0  0  0  0  0  0  0  0  0  0  0
   16.1135  -16.4210   22.9829 C   0  0  0  0  0  0  0  0  0  0  0  0
   17.3897  -15.8426   23.4097 C   0  0  0  0  0  0  0  0  0  0  0  0
   18.5131  -16.3173   23.0996 O   0  0  0  0  0  0  0  0  0  0  0  0
   13.4359  -16.1862   21.7932 C   0  0  0  0  0  0  0  0  0  0  0  0
   13.3705  -14.9427   21.6163 O   0  0  0  0  0  0  0  0  0  0  0  0
   17.4466  -14.6869   24.2164 O   0  0  0  0  0  0  0  0  0  0  0  0
    9.6131  -17.3206   22.5911 O   0  0  0  0  0  0  0  0  0  0  0  0
   10.1701  -16.0428   22.8190 C   0  0  0  0  0  0  0  0  0  0  0  0
   11.5173  -16.2100   23.4299 C   0  0  2  0  0  0  0  0  0  0  0  0
   12.5079  -16.8349   22.6301 N   0  0  0  0  0  0  0  0  0  0  0  0
   11.4554  -16.7481   24.8389 C   0  0  0  0  0  0  0  0  0  0  0  0
   10.7065  -16.1016   25.7668 O   0  0  0  0  0  0  0  0  0  0  0  0
   12.0832  -17.7843   25.1611 O   0  0  0  0  0  0  0  0  0  0  0  0
  2  8  1  0
  2  1  1  6
  3  2  1  0
  4  3  1  0
  5  4  1  0
  6  5  1  0
  6  7  1  0
  8  9  2  0
 10 11  1  0
 10  8  1  0
 12 13  1  0
 11 12  1  6
 13 14  1  0
 14 18  1  0
 14 15  2  0
 16 17  2  0
 16 11  1  0
 19 20  1  0
 21 20  1  6
 21 22  1  0
 21 23  1  0
 22 16  1  0
 23 24  1  0
 25 23  2  0
M  END
$$$$
