KES.pdb
     RDKit          3D

 25 24  0  0  1  0  0  0  0  0999 V2000
    9.2198  -15.3010   16.5378 N   0  0  0  0  0  0  0  0  0  0  0  0
    9.8916  -14.2983   17.3265 C   0  0  1  0  0  0  0  0  0  0  0  0
    8.9879  -13.5750   18.2781 C   0  0  0  0  0  0  0  0  0  0  0  0
    8.1940  -14.4299   19.1909 C   0  0  0  0  0  0  0  0  0  0  0  0
    7.1756  -13.7828   20.0402 C   0  0  0  0  0  0  0  0  0  0  0  0
    6.3231  -14.6879   20.8605 C   0  0  0  0  0  0  0  0  0  0  0  0
    5.2535  -13.8531   21.4341 N   0  0  0  0  0  0  0  0  0  0  0  0
   11.0295  -14.9524   18.0433 C   0  0  0  0  0  0  0  0  0  0  0  0
   10.9318  -16.1266   18.4987 O   0  0  0  0  0  0  0  0  0  0  0  0
   12.2601  -14.2785   18.2361 N   0  0  0  0  0  0  0  0  0  0  0  0
   13.4127  -14.8724   18.9016 C   0  0  1  0  0  0  0  0  0  0  0  0
   14.6922  -14.2130   18.5067 C   0  0  0  0  0  0  0  0  0  0  0  0
   15.9299  -14.7647   19.1136 C   0  0  0  0  0  0  0  0  0  0  0  0
   17.1828  -14.1070   18.7353 C   0  0  0  0  0  0  0  0  0  0  0  0
   18.2604  -14.2316   19.3732 O   0  0  0  0  0  0  0  0  0  0  0  0
   13.2373  -14.6609   20.3924 C   0  0  0  0  0  0  0  0  0  0  0  0
   12.7109  -13.5908   20.7922 O   0  0  0  0  0  0  0  0  0  0  0  0
   17.2679  -13.2696   17.6034 O   0  0  0  0  0  0  0  0  0  0  0  0
   10.9090  -16.7697   23.4704 O   0  0  0  0  0  0  0  0  0  0  0  0
   11.4622  -16.3116   22.2543 C   0  0  0  0  0  0  0  0  0  0  0  0
   12.9219  -16.0911   22.4455 C   0  0  2  0  0  0  0  0  0  0  0  0
   13.6523  -15.6379   21.3174 N   0  0  0  0  0  0  0  0  0  0  0  0
   13.5920  -17.2285   23.1776 C   0  0  0  0  0  0  0  0  0  0  0  0
   14.6625  -17.8437   22.6162 O   0  0  0  0  0  0  0  0  0  0  0  0
   13.1747  -17.6090   24.2969 O   0  0  0  0  0  0  0  0  0  0  0  0
  2  8  1  0
  2  1  1  1
  3  2  1  0
  4  3  1  0
  5  4  1  0
  6  5  1  0
  6  7  1  0
  8  9  2  0
 10 11  1  0
 10  8  1  0
 12 13  1  0
 11 12  1  6
 13 14  1  0
 14 18  1  0
 14 15  2  0
 16 17  2  0
 16 11  1  0
 19 20  1  0
 21 20  1  6
 21 22  1  0
 21 23  1  0
 22 16  1  0
 23 24  1  0
 25 23  2  0
M  END
$$$$
