YDD.pdb
     RDKit          3D

 29 29  0  0  1  0  0  0  0  0999 V2000
   19.0982  -12.7974  -18.6468 O   0  0  0  0  0  0  0  0  0  0  0  0
   19.6129  -13.8485  -17.8638 C   0  0  0  0  0  0  0  0  0  0  0  0
   19.1563  -14.0659  -16.5782 C   0  0  0  0  0  0  0  0  0  0  0  0
   19.6923  -15.1097  -15.8503 C   0  0  0  0  0  0  0  0  0  0  0  0
   20.6630  -15.9441  -16.3505 C   0  0  0  0  0  0  0  0  0  0  0  0
   21.1998  -17.0510  -15.5281 C   0  0  0  0  0  0  0  0  0  0  0  0
   21.0686  -18.3858  -16.2160 C   0  0  2  0  0  0  0  0  0  0  0  0
   19.6843  -18.7623  -16.3979 N   0  0  0  0  0  0  0  0  0  0  0  0
   21.8256  -19.4612  -15.4878 C   0  0  0  0  0  0  0  0  0  0  0  0
   21.2873  -20.0269  -14.5051 O   0  0  0  0  0  0  0  0  0  0  0  0
   21.1106  -15.7195  -17.6305 C   0  0  0  0  0  0  0  0  0  0  0  0
   20.5906  -14.6751  -18.3913 C   0  0  0  0  0  0  0  0  0  0  0  0
   23.1285  -19.8508  -15.8833 N   0  0  0  0  0  0  0  0  0  0  0  0
   23.9928  -20.7801  -15.2142 C   0  0  1  0  0  0  0  0  0  0  0  0
   24.8151  -21.6618  -16.1493 C   0  0  0  0  0  0  0  0  0  0  0  0
   25.7263  -22.5566  -15.4085 C   0  0  0  0  0  0  0  0  0  0  0  0
   25.3680  -23.4266  -14.6088 O   0  0  0  0  0  0  0  0  0  0  0  0
   24.7160  -20.2677  -14.0661 C   0  0  0  0  0  0  0  0  0  0  0  0
   25.5891  -19.3426  -14.2219 O   0  0  0  0  0  0  0  0  0  0  0  0
   27.1233  -22.4473  -15.5945 O   0  0  0  0  0  0  0  0  0  0  0  0
   24.5524  -20.7014  -12.7297 N   0  0  0  0  0  0  0  0  0  0  0  0
   25.4677  -20.2346  -11.6481 C   0  0  1  0  0  0  0  0  0  0  0  0
   24.5246  -19.7766  -10.5645 C   0  0  0  0  0  0  0  0  0  0  0  0
   23.8287  -20.8221   -9.8347 C   0  0  0  0  0  0  0  0  0  0  0  0
   22.8871  -21.4759  -10.3355 O   0  0  0  0  0  0  0  0  0  0  0  0
   26.2751  -21.3785  -11.2022 C   0  0  0  0  0  0  0  0  0  0  0  0
   27.3673  -21.2293  -10.3583 O   0  0  0  0  0  0  0  0  0  0  0  0
   24.1661  -21.1707   -8.5151 O   0  0  0  0  0  0  0  0  0  0  0  0
   25.9964  -22.5301  -11.5756 O   0  0  0  0  0  0  0  0  0  0  0  0
  2  1  1  0
  3  2  2  0
  4  3  1  0
  5 11  1  0
  5  4  2  0
  6  5  1  0
  7  9  1  0
  7  6  1  0
  7  8  1  1
  9 10  2  0
 11 12  2  0
 12  2  1  0
 13 14  1  0
 13  9  1  0
 14 15  1  6
 16 15  1  0
 17 16  2  0
 18 19  2  0
 18 14  1  0
 20 16  1  0
 21 18  1  0
 22 21  1  0
 22 26  1  0
 22 23  1  1
 24 23  1  0
 24 28  1  0
 25 24  2  0
 26 27  1  0
 29 26  2  0
M  END
$$$$
