YDD.pdb
     RDKit          3D

 29 29  0  0  1  0  0  0  0  0999 V2000
   28.5077  -16.0631  -15.6647 O   0  0  0  0  0  0  0  0  0  0  0  0
   27.7461  -14.8968  -15.8715 C   0  0  0  0  0  0  0  0  0  0  0  0
   26.5455  -14.7068  -15.2150 C   0  0  0  0  0  0  0  0  0  0  0  0
   25.8354  -13.5464  -15.4513 C   0  0  0  0  0  0  0  0  0  0  0  0
   26.2721  -12.5695  -16.3137 C   0  0  0  0  0  0  0  0  0  0  0  0
   25.4729  -11.3425  -16.5267 C   0  0  0  0  0  0  0  0  0  0  0  0
   24.3695  -11.5502  -17.5325 C   0  0  2  0  0  0  0  0  0  0  0  0
   24.8909  -11.8606  -18.8451 N   0  0  0  0  0  0  0  0  0  0  0  0
   23.4422  -10.3683  -17.5896 C   0  0  0  0  0  0  0  0  0  0  0  0
   23.5051   -9.5909  -18.5731 O   0  0  0  0  0  0  0  0  0  0  0  0
   27.4677  -12.7680  -16.9619 C   0  0  0  0  0  0  0  0  0  0  0  0
   28.2085  -13.9276  -16.7457 C   0  0  0  0  0  0  0  0  0  0  0  0
   22.5012  -10.1117  -16.5628 N   0  0  0  0  0  0  0  0  0  0  0  0
   21.5175   -9.0677  -16.5335 C   0  0  1  0  0  0  0  0  0  0  0  0
   20.0741   -9.5619  -16.5131 C   0  0  0  0  0  0  0  0  0  0  0  0
   19.1063   -8.4482  -16.5679 C   0  0  0  0  0  0  0  0  0  0  0  0
   19.1692   -7.4944  -17.3496 O   0  0  0  0  0  0  0  0  0  0  0  0
   21.7937   -7.9540  -15.6462 C   0  0  0  0  0  0  0  0  0  0  0  0
   22.2020   -8.1750  -14.4516 O   0  0  0  0  0  0  0  0  0  0  0  0
   18.0081   -8.4274  -15.6783 O   0  0  0  0  0  0  0  0  0  0  0  0
   21.6532   -6.5855  -15.9748 N   0  0  0  0  0  0  0  0  0  0  0  0
   21.9483   -5.5167  -14.9767 C   0  0  1  0  0  0  0  0  0  0  0  0
   22.1580   -4.2903  -15.8282 C   0  0  0  0  0  0  0  0  0  0  0  0
   22.3250   -3.0352  -15.1165 C   0  0  0  0  0  0  0  0  0  0  0  0
   22.2370   -2.9541  -13.8712 O   0  0  0  0  0  0  0  0  0  0  0  0
   20.7756   -5.3645  -14.1043 C   0  0  0  0  0  0  0  0  0  0  0  0
   19.5461   -4.9352  -14.5853 O   0  0  0  0  0  0  0  0  0  0  0  0
   22.5972   -1.8252  -15.7788 O   0  0  0  0  0  0  0  0  0  0  0  0
   20.8552   -5.6207  -12.8913 O   0  0  0  0  0  0  0  0  0  0  0  0
  2  1  1  0
  3  2  2  0
  4  3  1  0
  5 11  1  0
  5  4  2  0
  6  5  1  0
  7  9  1  0
  7  6  1  0
  7  8  1  6
  9 10  2  0
 11 12  2  0
 12  2  1  0
 13 14  1  0
 13  9  1  0
 14 15  1  1
 16 15  1  0
 17 16  2  0
 18 19  2  0
 18 14  1  0
 20 16  1  0
 21 18  1  0
 22 21  1  0
 22 26  1  0
 22 23  1  6
 24 23  1  0
 24 28  1  0
 25 24  2  0
 26 27  1  0
 29 26  2  0
M  END
$$$$
