YDD.pdb
     RDKit          3D

 29 29  0  0  1  0  0  0  0  0999 V2000
   18.6445  -15.1420  -19.5925 O   0  0  0  0  0  0  0  0  0  0  0  0
   18.7085  -14.0320  -18.7283 C   0  0  0  0  0  0  0  0  0  0  0  0
   18.5649  -14.1858  -17.3630 C   0  0  0  0  0  0  0  0  0  0  0  0
   18.6355  -13.0666  -16.5573 C   0  0  0  0  0  0  0  0  0  0  0  0
   18.8428  -11.8028  -17.0560 C   0  0  0  0  0  0  0  0  0  0  0  0
   18.9142  -10.6379  -16.1463 C   0  0  0  0  0  0  0  0  0  0  0  0
   20.3089  -10.0734  -16.0540 C   0  0  2  0  0  0  0  0  0  0  0  0
   21.2536  -11.0533  -15.5657 N   0  0  0  0  0  0  0  0  0  0  0  0
   20.3475   -8.8267  -15.2148 C   0  0  0  0  0  0  0  0  0  0  0  0
   20.1956   -8.9229  -13.9726 O   0  0  0  0  0  0  0  0  0  0  0  0
   18.9844  -11.6605  -18.4157 C   0  0  0  0  0  0  0  0  0  0  0  0
   18.9184  -12.7693  -19.2562 C   0  0  0  0  0  0  0  0  0  0  0  0
   20.5511   -7.5490  -15.7910 N   0  0  0  0  0  0  0  0  0  0  0  0
   20.5334   -6.2837  -15.1150 C   0  0  1  0  0  0  0  0  0  0  0  0
   21.8928   -5.5962  -15.0282 C   0  0  0  0  0  0  0  0  0  0  0  0
   21.8265   -4.3312  -14.2697 C   0  0  0  0  0  0  0  0  0  0  0  0
   21.2746   -4.1916  -13.1740 O   0  0  0  0  0  0  0  0  0  0  0  0
   19.4244   -5.4046  -15.4329 C   0  0  0  0  0  0  0  0  0  0  0  0
   19.3501   -4.8636  -16.5924 O   0  0  0  0  0  0  0  0  0  0  0  0
   22.4251   -3.1640  -14.7965 O   0  0  0  0  0  0  0  0  0  0  0  0
   18.3664   -5.0648  -14.5578 N   0  0  0  0  0  0  0  0  0  0  0  0
   17.3915   -3.9902  -14.9045 C   0  0  1  0  0  0  0  0  0  0  0  0
   16.6714   -3.7376  -13.6041 C   0  0  0  0  0  0  0  0  0  0  0  0
   15.3229   -3.2080  -13.7091 C   0  0  0  0  0  0  0  0  0  0  0  0
   14.8044   -2.9081  -14.8073 O   0  0  0  0  0  0  0  0  0  0  0  0
   18.1460   -2.8045  -15.3338 C   0  0  0  0  0  0  0  0  0  0  0  0
   19.1767   -2.2681  -14.5741 O   0  0  0  0  0  0  0  0  0  0  0  0
   14.5081   -2.9963  -12.5831 O   0  0  0  0  0  0  0  0  0  0  0  0
   17.8763   -2.2409  -16.4075 O   0  0  0  0  0  0  0  0  0  0  0  0
  2  1  1  0
  3  2  2  0
  4  3  1  0
  5 11  1  0
  5  4  2  0
  6  5  1  0
  7  9  1  0
  7  6  1  0
  7  8  1  1
  9 10  2  0
 11 12  2  0
 12  2  1  0
 13 14  1  0
 13  9  1  0
 14 15  1  6
 16 15  1  0
 17 16  2  0
 18 19  2  0
 18 14  1  0
 20 16  1  0
 21 18  1  0
 22 21  1  0
 22 26  1  0
 22 23  1  1
 24 23  1  0
 24 28  1  0
 25 24  2  0
 26 27  1  0
 29 26  2  0
M  END
$$$$
