YDD.pdb
     RDKit          3D

 29 29  0  0  1  0  0  0  0  0999 V2000
   11.0558  -15.5228  -15.8027 O   0  0  0  0  0  0  0  0  0  0  0  0
   12.1111  -14.6476  -15.4811 C   0  0  0  0  0  0  0  0  0  0  0  0
   13.3007  -15.1276  -14.9684 C   0  0  0  0  0  0  0  0  0  0  0  0
   14.3057  -14.2293  -14.6689 C   0  0  0  0  0  0  0  0  0  0  0  0
   14.1736  -12.8746  -14.8590 C   0  0  0  0  0  0  0  0  0  0  0  0
   15.2849  -11.9565  -14.5248 C   0  0  0  0  0  0  0  0  0  0  0  0
   16.2544  -11.7975  -15.6681 C   0  0  2  0  0  0  0  0  0  0  0  0
   16.9380  -13.0358  -15.9686 N   0  0  0  0  0  0  0  0  0  0  0  0
   17.2383  -10.6906  -15.4102 C   0  0  0  0  0  0  0  0  0  0  0  0
   18.0698  -10.8188  -14.4787 O   0  0  0  0  0  0  0  0  0  0  0  0
   12.9862  -12.4071  -15.3695 C   0  0  0  0  0  0  0  0  0  0  0  0
   11.9525  -13.2868  -15.6822 C   0  0  0  0  0  0  0  0  0  0  0  0
   17.2500   -9.5095  -16.1916 N   0  0  0  0  0  0  0  0  0  0  0  0
   18.1532   -8.4015  -16.0693 C   0  0  1  0  0  0  0  0  0  0  0  0
   19.4890   -8.5955  -16.7805 C   0  0  0  0  0  0  0  0  0  0  0  0
   20.5824   -8.8937  -15.8343 C   0  0  0  0  0  0  0  0  0  0  0  0
   20.7347   -9.9683  -15.2452 O   0  0  0  0  0  0  0  0  0  0  0  0
   17.5695   -7.0819  -16.2168 C   0  0  0  0  0  0  0  0  0  0  0  0
   16.3984   -6.9541  -16.7214 O   0  0  0  0  0  0  0  0  0  0  0  0
   21.5527   -7.9065  -15.5480 O   0  0  0  0  0  0  0  0  0  0  0  0
   18.1849   -5.8636  -15.8457 N   0  0  0  0  0  0  0  0  0  0  0  0
   17.5044   -4.5548  -16.0681 C   0  0  1  0  0  0  0  0  0  0  0  0
   16.3122   -4.6188  -15.1473 C   0  0  0  0  0  0  0  0  0  0  0  0
   15.2211   -3.7075  -15.4451 C   0  0  0  0  0  0  0  0  0  0  0  0
   15.2518   -2.9201  -16.4167 O   0  0  0  0  0  0  0  0  0  0  0  0
   18.4269   -3.4823  -15.6703 C   0  0  0  0  0  0  0  0  0  0  0  0
   18.1162   -2.1395  -15.8364 O   0  0  0  0  0  0  0  0  0  0  0  0
   14.0554   -3.6481  -14.6612 O   0  0  0  0  0  0  0  0  0  0  0  0
   19.5290   -3.7542  -15.1657 O   0  0  0  0  0  0  0  0  0  0  0  0
  2  1  1  0
  3  2  2  0
  4  3  1  0
  5 11  1  0
  5  4  2  0
  6  5  1  0
  7  9  1  0
  7  6  1  0
  7  8  1  1
  9 10  2  0
 11 12  2  0
 12  2  1  0
 13 14  1  0
 13  9  1  0
 14 15  1  6
 16 15  1  0
 17 16  2  0
 18 19  2  0
 18 14  1  0
 20 16  1  0
 21 18  1  0
 22 21  1  0
 22 26  1  0
 22 23  1  1
 24 23  1  0
 24 28  1  0
 25 24  2  0
 26 27  1  0
 29 26  2  0
M  END
$$$$
