YDD.pdb
     RDKit          3D

 29 29  0  0  1  0  0  0  0  0999 V2000
   31.1201  -11.9309  -16.4640 O   0  0  0  0  0  0  0  0  0  0  0  0
   29.8594  -11.3066  -16.4016 C   0  0  0  0  0  0  0  0  0  0  0  0
   29.6941   -9.9975  -16.8108 C   0  0  0  0  0  0  0  0  0  0  0  0
   28.4380   -9.4298  -16.7303 C   0  0  0  0  0  0  0  0  0  0  0  0
   27.3420  -10.1122  -16.2593 C   0  0  0  0  0  0  0  0  0  0  0  0
   26.0169   -9.4563  -16.1984 C   0  0  0  0  0  0  0  0  0  0  0  0
   25.0988   -9.9265  -17.2977 C   0  0  2  0  0  0  0  0  0  0  0  0
   25.6373   -9.6361  -18.6079 N   0  0  0  0  0  0  0  0  0  0  0  0
   23.7166   -9.3551  -17.1473 C   0  0  0  0  0  0  0  0  0  0  0  0
   23.4176   -8.3093  -17.7738 O   0  0  0  0  0  0  0  0  0  0  0  0
   27.5169  -11.4140  -15.8546 C   0  0  0  0  0  0  0  0  0  0  0  0
   28.7710  -12.0163  -15.9231 C   0  0  0  0  0  0  0  0  0  0  0  0
   22.7455   -9.9672  -16.3179 N   0  0  0  0  0  0  0  0  0  0  0  0
   21.3562   -9.6238  -16.2156 C   0  0  1  0  0  0  0  0  0  0  0  0
   20.4698  -10.7386  -15.6684 C   0  0  0  0  0  0  0  0  0  0  0  0
   20.5266  -11.9532  -16.5059 C   0  0  0  0  0  0  0  0  0  0  0  0
   20.3351  -11.9811  -17.7254 O   0  0  0  0  0  0  0  0  0  0  0  0
   21.0612   -8.3009  -15.6993 C   0  0  0  0  0  0  0  0  0  0  0  0
   21.6095   -7.9027  -14.6114 O   0  0  0  0  0  0  0  0  0  0  0  0
   20.8182  -13.2027  -15.9126 O   0  0  0  0  0  0  0  0  0  0  0  0
   20.1913   -7.3591  -16.2969 N   0  0  0  0  0  0  0  0  0  0  0  0
   19.9380   -6.0315  -15.6656 C   0  0  1  0  0  0  0  0  0  0  0  0
   20.2069   -5.0553  -16.7828 C   0  0  0  0  0  0  0  0  0  0  0  0
   19.9109   -3.6612  -16.5026 C   0  0  0  0  0  0  0  0  0  0  0  0
   19.5060   -3.2738  -15.3841 O   0  0  0  0  0  0  0  0  0  0  0  0
   18.5313   -5.9828  -15.2436 C   0  0  0  0  0  0  0  0  0  0  0  0
   18.0986   -5.1724  -14.2028 O   0  0  0  0  0  0  0  0  0  0  0  0
   20.0591   -2.6515  -17.4697 O   0  0  0  0  0  0  0  0  0  0  0  0
   17.6769   -6.6783  -15.8177 O   0  0  0  0  0  0  0  0  0  0  0  0
  2  1  1  0
  3  2  2  0
  4  3  1  0
  5 11  1  0
  5  4  2  0
  6  5  1  0
  7  9  1  0
  7  6  1  0
  7  8  1  6
  9 10  2  0
 11 12  2  0
 12  2  1  0
 13 14  1  0
 13  9  1  0
 14 15  1  1
 16 15  1  0
 17 16  2  0
 18 19  2  0
 18 14  1  0
 20 16  1  0
 21 18  1  0
 22 21  1  0
 22 26  1  0
 22 23  1  6
 24 23  1  0
 24 28  1  0
 25 24  2  0
 26 27  1  0
 29 26  2  0
M  END
$$$$
