YDD.pdb
     RDKit          3D

 29 29  0  0  1  0  0  0  0  0999 V2000
   28.8734  -20.4911   -6.3596 O   0  0  0  0  0  0  0  0  0  0  0  0
   28.1108  -20.3812   -7.5383 C   0  0  0  0  0  0  0  0  0  0  0  0
   26.7623  -20.0858   -7.4869 C   0  0  0  0  0  0  0  0  0  0  0  0
   26.0578  -19.9886   -8.6704 C   0  0  0  0  0  0  0  0  0  0  0  0
   26.6413  -20.1737   -9.9009 C   0  0  0  0  0  0  0  0  0  0  0  0
   25.8397  -20.0535  -11.1389 C   0  0  0  0  0  0  0  0  0  0  0  0
   25.1905  -21.3581  -11.5248 C   0  0  2  0  0  0  0  0  0  0  0  0
   26.1409  -22.2790  -12.1075 N   0  0  0  0  0  0  0  0  0  0  0  0
   24.0194  -21.1440  -12.4426 C   0  0  0  0  0  0  0  0  0  0  0  0
   24.1971  -21.2096  -13.6833 O   0  0  0  0  0  0  0  0  0  0  0  0
   27.9834  -20.4672   -9.9413 C   0  0  0  0  0  0  0  0  0  0  0  0
   28.7229  -20.5723   -8.7656 C   0  0  0  0  0  0  0  0  0  0  0  0
   22.7230  -20.8709  -11.9419 N   0  0  0  0  0  0  0  0  0  0  0  0
   21.5162  -20.7225  -12.7035 C   0  0  1  0  0  0  0  0  0  0  0  0
   20.2361  -20.9689  -11.9108 C   0  0  0  0  0  0  0  0  0  0  0  0
   20.1020  -22.3805  -11.4996 C   0  0  0  0  0  0  0  0  0  0  0  0
   20.4441  -22.8333  -10.4029 O   0  0  0  0  0  0  0  0  0  0  0  0
   21.4658  -19.5886  -13.6066 C   0  0  0  0  0  0  0  0  0  0  0  0
   21.7732  -18.4192  -13.1817 O   0  0  0  0  0  0  0  0  0  0  0  0
   19.5462  -23.3232  -12.3943 O   0  0  0  0  0  0  0  0  0  0  0  0
   21.0956  -19.6387  -14.9709 N   0  0  0  0  0  0  0  0  0  0  0  0
   21.0735  -18.4066  -15.8115 C   0  0  1  0  0  0  0  0  0  0  0  0
   21.3541  -18.9244  -17.1995 C   0  0  0  0  0  0  0  0  0  0  0  0
   21.3262  -17.9421  -18.2692 C   0  0  0  0  0  0  0  0  0  0  0  0
   20.2722  -17.6335  -18.8683 O   0  0  0  0  0  0  0  0  0  0  0  0
   19.7314  -17.8143  -15.7258 C   0  0  0  0  0  0  0  0  0  0  0  0
   18.6730  -18.4660  -15.1075 O   0  0  0  0  0  0  0  0  0  0  0  0
   22.4823  -17.2708  -18.7044 O   0  0  0  0  0  0  0  0  0  0  0  0
   19.5047  -16.6944  -16.2134 O   0  0  0  0  0  0  0  0  0  0  0  0
  2  1  1  0
  3  2  2  0
  4  3  1  0
  5 11  1  0
  5  4  2  0
  6  5  1  0
  7  9  1  0
  7  6  1  0
  7  8  1  6
  9 10  2  0
 11 12  2  0
 12  2  1  0
 13 14  1  0
 13  9  1  0
 14 15  1  1
 16 15  1  0
 17 16  2  0
 18 19  2  0
 18 14  1  0
 20 16  1  0
 21 18  1  0
 22 21  1  0
 22 26  1  0
 22 23  1  6
 24 23  1  0
 24 28  1  0
 25 24  2  0
 26 27  1  0
 29 26  2  0
M  END
$$$$
