YDD.pdb
     RDKit          3D

 29 29  0  0  1  0  0  0  0  0999 V2000
   28.2642  -23.5090  -17.7758 O   0  0  0  0  0  0  0  0  0  0  0  0
   26.8935  -23.2895  -17.5391 C   0  0  0  0  0  0  0  0  0  0  0  0
   26.2248  -23.9795  -16.5465 C   0  0  0  0  0  0  0  0  0  0  0  0
   24.8807  -23.7290  -16.3532 C   0  0  0  0  0  0  0  0  0  0  0  0
   24.1773  -22.8206  -17.1074 C   0  0  0  0  0  0  0  0  0  0  0  0
   22.7380  -22.5878  -16.8546 C   0  0  0  0  0  0  0  0  0  0  0  0
   21.8816  -23.7216  -17.3580 C   0  0  2  0  0  0  0  0  0  0  0  0
   22.1448  -24.0167  -18.7489 N   0  0  0  0  0  0  0  0  0  0  0  0
   20.4195  -23.4533  -17.1341 C   0  0  0  0  0  0  0  0  0  0  0  0
   19.7977  -22.7388  -17.9577 O   0  0  0  0  0  0  0  0  0  0  0  0
   24.8517  -22.1394  -18.0924 C   0  0  0  0  0  0  0  0  0  0  0  0
   26.2077  -22.3687  -18.3131 C   0  0  0  0  0  0  0  0  0  0  0  0
   19.7283  -23.9865  -16.0190 N   0  0  0  0  0  0  0  0  0  0  0  0
   18.3386  -23.8205  -15.7037 C   0  0  1  0  0  0  0  0  0  0  0  0
   17.6809  -25.0507  -15.0856 C   0  0  0  0  0  0  0  0  0  0  0  0
   18.2275  -25.3587  -13.7491 C   0  0  0  0  0  0  0  0  0  0  0  0
   19.0739  -24.6813  -13.1578 O   0  0  0  0  0  0  0  0  0  0  0  0
   17.9683  -22.5585  -15.0920 C   0  0  0  0  0  0  0  0  0  0  0  0
   18.7910  -21.9610  -14.3118 O   0  0  0  0  0  0  0  0  0  0  0  0
   17.7798  -26.5051  -13.0540 O   0  0  0  0  0  0  0  0  0  0  0  0
   16.7374  -21.8857  -15.2734 N   0  0  0  0  0  0  0  0  0  0  0  0
   16.4608  -20.5847  -14.5980 C   0  0  1  0  0  0  0  0  0  0  0  0
   15.9822  -19.7011  -15.7221 C   0  0  0  0  0  0  0  0  0  0  0  0
   15.5082  -18.3812  -15.3441 C   0  0  0  0  0  0  0  0  0  0  0  0
   14.7979  -17.6822  -16.1004 O   0  0  0  0  0  0  0  0  0  0  0  0
   15.4019  -20.7986  -13.6017 C   0  0  0  0  0  0  0  0  0  0  0  0
   14.0996  -21.1163  -13.9626 O   0  0  0  0  0  0  0  0  0  0  0  0
   15.8153  -17.7987  -14.1018 O   0  0  0  0  0  0  0  0  0  0  0  0
   15.6491  -20.6990  -12.3884 O   0  0  0  0  0  0  0  0  0  0  0  0
  2  1  1  0
  3  2  2  0
  4  3  1  0
  5 11  1  0
  5  4  2  0
  6  5  1  0
  7  9  1  0
  7  6  1  0
  7  8  1  6
  9 10  2  0
 11 12  2  0
 12  2  1  0
 13 14  1  0
 13  9  1  0
 14 15  1  1
 16 15  1  0
 17 16  2  0
 18 19  2  0
 18 14  1  0
 20 16  1  0
 21 18  1  0
 22 21  1  0
 22 26  1  0
 22 23  1  6
 24 23  1  0
 24 28  1  0
 25 24  2  0
 26 27  1  0
 29 26  2  0
M  END
$$$$
