YDD.pdb
     RDKit          3D

 29 29  0  0  1  0  0  0  0  0999 V2000
   29.2399  -11.5212  -16.0276 O   0  0  0  0  0  0  0  0  0  0  0  0
   28.0400  -10.7941  -16.1485 C   0  0  0  0  0  0  0  0  0  0  0  0
   27.1430  -10.7246  -15.1002 C   0  0  0  0  0  0  0  0  0  0  0  0
   25.9802   -9.9990  -15.2677 C   0  0  0  0  0  0  0  0  0  0  0  0
   25.6754   -9.3413  -16.4353 C   0  0  0  0  0  0  0  0  0  0  0  0
   24.4162   -8.5741  -16.5594 C   0  0  0  0  0  0  0  0  0  0  0  0
   23.2300   -9.4667  -16.8208 C   0  0  2  0  0  0  0  0  0  0  0  0
   23.4621  -10.3547  -17.9382 N   0  0  0  0  0  0  0  0  0  0  0  0
   21.9709   -8.6703  -17.0213 C   0  0  0  0  0  0  0  0  0  0  0  0
   21.6590   -8.3043  -18.1807 O   0  0  0  0  0  0  0  0  0  0  0  0
   26.5743   -9.4167  -17.4723 C   0  0  0  0  0  0  0  0  0  0  0  0
   27.7567  -10.1403  -17.3357 C   0  0  0  0  0  0  0  0  0  0  0  0
   21.1296   -8.3242  -15.9358 N   0  0  0  0  0  0  0  0  0  0  0  0
   19.9043   -7.5802  -15.9953 C   0  0  1  0  0  0  0  0  0  0  0  0
   18.6638   -8.3757  -15.5999 C   0  0  0  0  0  0  0  0  0  0  0  0
   17.4247   -7.5917  -15.7722 C   0  0  0  0  0  0  0  0  0  0  0  0
   16.5959   -7.3741  -14.8831 O   0  0  0  0  0  0  0  0  0  0  0  0
   19.9525   -6.2269  -15.4757 C   0  0  0  0  0  0  0  0  0  0  0  0
   20.6037   -5.9782  -14.4002 O   0  0  0  0  0  0  0  0  0  0  0  0
   17.1197   -7.0276  -17.0319 O   0  0  0  0  0  0  0  0  0  0  0  0
   19.3273   -5.0992  -16.0573 N   0  0  0  0  0  0  0  0  0  0  0  0
   19.3945   -3.7577  -15.4082 C   0  0  1  0  0  0  0  0  0  0  0  0
   20.6069   -3.1228  -16.0408 C   0  0  0  0  0  0  0  0  0  0  0  0
   20.8637   -1.7372  -15.6886 C   0  0  0  0  0  0  0  0  0  0  0  0
   20.0828   -1.0720  -14.9725 O   0  0  0  0  0  0  0  0  0  0  0  0
   18.1696   -3.0200  -15.7471 C   0  0  0  0  0  0  0  0  0  0  0  0
   17.3386   -3.4049  -16.7904 O   0  0  0  0  0  0  0  0  0  0  0  0
   22.0079   -1.0488  -16.1285 O   0  0  0  0  0  0  0  0  0  0  0  0
   17.8398   -2.0141  -15.0970 O   0  0  0  0  0  0  0  0  0  0  0  0
  2  1  1  0
  3  2  2  0
  4  3  1  0
  5 11  1  0
  5  4  2  0
  6  5  1  0
  7  9  1  0
  7  6  1  0
  7  8  1  6
  9 10  2  0
 11 12  2  0
 12  2  1  0
 13 14  1  0
 13  9  1  0
 14 15  1  1
 16 15  1  0
 17 16  2  0
 18 19  2  0
 18 14  1  0
 20 16  1  0
 21 18  1  0
 22 21  1  0
 22 26  1  0
 22 23  1  6
 24 23  1  0
 24 28  1  0
 25 24  2  0
 26 27  1  0
 29 26  2  0
M  END
$$$$
