YDD.pdb
     RDKit          3D

 29 29  0  0  1  0  0  0  0  0999 V2000
   30.0848  -16.3582  -17.4240 O   0  0  0  0  0  0  0  0  0  0  0  0
   28.7412  -16.2432  -17.0183 C   0  0  0  0  0  0  0  0  0  0  0  0
   28.2983  -15.1264  -16.3363 C   0  0  0  0  0  0  0  0  0  0  0  0
   26.9714  -15.0606  -15.9599 C   0  0  0  0  0  0  0  0  0  0  0  0
   26.0697  -16.0606  -16.2348 C   0  0  0  0  0  0  0  0  0  0  0  0
   24.6571  -15.9365  -15.8118 C   0  0  0  0  0  0  0  0  0  0  0  0
   23.7400  -15.6427  -16.9715 C   0  0  2  0  0  0  0  0  0  0  0  0
   24.0511  -14.3753  -17.5944 N   0  0  0  0  0  0  0  0  0  0  0  0
   22.2945  -15.6988  -16.5627 C   0  0  0  0  0  0  0  0  0  0  0  0
   21.7183  -14.6401  -16.2126 O   0  0  0  0  0  0  0  0  0  0  0  0
   26.5202  -17.1675  -16.9137 C   0  0  0  0  0  0  0  0  0  0  0  0
   27.8527  -17.2650  -17.3077 C   0  0  0  0  0  0  0  0  0  0  0  0
   21.5686  -16.9149  -16.5635 N   0  0  0  0  0  0  0  0  0  0  0  0
   20.1892  -17.0980  -16.2140 C   0  0  1  0  0  0  0  0  0  0  0  0
   19.2314  -16.1266  -16.8974 C   0  0  0  0  0  0  0  0  0  0  0  0
   17.8394  -16.3062  -16.4391 C   0  0  0  0  0  0  0  0  0  0  0  0
   17.0367  -17.1147  -16.9153 O   0  0  0  0  0  0  0  0  0  0  0  0
   19.7230  -18.4699  -16.1487 C   0  0  0  0  0  0  0  0  0  0  0  0
   19.8992  -19.2527  -17.1481 O   0  0  0  0  0  0  0  0  0  0  0  0
   17.3416  -15.5160  -15.3780 O   0  0  0  0  0  0  0  0  0  0  0  0
   19.0631  -19.0634  -15.0474 N   0  0  0  0  0  0  0  0  0  0  0  0
   18.7188  -20.5149  -15.0433 C   0  0  1  0  0  0  0  0  0  0  0  0
   18.8561  -20.9035  -13.5929 C   0  0  0  0  0  0  0  0  0  0  0  0
   17.9040  -20.3036  -12.6745 C   0  0  0  0  0  0  0  0  0  0  0  0
   17.0527  -19.4650  -13.0448 O   0  0  0  0  0  0  0  0  0  0  0  0
   17.3310  -20.6606  -15.5040 C   0  0  0  0  0  0  0  0  0  0  0  0
   16.7452  -21.9028  -15.7068 O   0  0  0  0  0  0  0  0  0  0  0  0
   17.8741  -20.6246  -11.3060 O   0  0  0  0  0  0  0  0  0  0  0  0
   16.6331  -19.6577  -15.7282 O   0  0  0  0  0  0  0  0  0  0  0  0
  2  1  1  0
  3  2  2  0
  4  3  1  0
  5 11  1  0
  5  4  2  0
  6  5  1  0
  7  9  1  0
  7  6  1  0
  7  8  1  1
  9 10  2  0
 11 12  2  0
 12  2  1  0
 13 14  1  0
 13  9  1  0
 14 15  1  6
 16 15  1  0
 17 16  2  0
 18 19  2  0
 18 14  1  0
 20 16  1  0
 21 18  1  0
 22 21  1  0
 22 26  1  0
 22 23  1  1
 24 23  1  0
 24 28  1  0
 25 24  2  0
 26 27  1  0
 29 26  2  0
M  END
$$$$
