YDD.pdb
     RDKit          3D

 29 29  0  0  1  0  0  0  0  0999 V2000
   28.6959  -25.3885  -17.5611 O   0  0  0  0  0  0  0  0  0  0  0  0
   27.4673  -24.8206  -17.1725 C   0  0  0  0  0  0  0  0  0  0  0  0
   26.9938  -23.6714  -17.7755 C   0  0  0  0  0  0  0  0  0  0  0  0
   25.7835  -23.1530  -17.3595 C   0  0  0  0  0  0  0  0  0  0  0  0
   25.0273  -23.7322  -16.3687 C   0  0  0  0  0  0  0  0  0  0  0  0
   23.7344  -23.1367  -15.9645 C   0  0  0  0  0  0  0  0  0  0  0  0
   23.9048  -22.0624  -14.9208 C   0  0  2  0  0  0  0  0  0  0  0  0
   24.5543  -22.5673  -13.7316 N   0  0  0  0  0  0  0  0  0  0  0  0
   22.5948  -21.4086  -14.5798 C   0  0  0  0  0  0  0  0  0  0  0  0
   22.2540  -21.3178  -13.3752 O   0  0  0  0  0  0  0  0  0  0  0  0
   25.5072  -24.8752  -15.7751 C   0  0  0  0  0  0  0  0  0  0  0  0
   26.7245  -25.4237  -16.1717 C   0  0  0  0  0  0  0  0  0  0  0  0
   21.7379  -20.8934  -15.5828 N   0  0  0  0  0  0  0  0  0  0  0  0
   20.4937  -20.2064  -15.3870 C   0  0  1  0  0  0  0  0  0  0  0  0
   20.6386  -18.7540  -14.9425 C   0  0  0  0  0  0  0  0  0  0  0  0
   19.5075  -18.3169  -14.1003 C   0  0  0  0  0  0  0  0  0  0  0  0
   18.5679  -19.0368  -13.7485 O   0  0  0  0  0  0  0  0  0  0  0  0
   19.4708  -20.4387  -16.3887 C   0  0  0  0  0  0  0  0  0  0  0  0
   19.8074  -20.6769  -17.6022 O   0  0  0  0  0  0  0  0  0  0  0  0
   19.4508  -16.9825  -13.6374 O   0  0  0  0  0  0  0  0  0  0  0  0
   18.0754  -20.4295  -16.1577 N   0  0  0  0  0  0  0  0  0  0  0  0
   17.1623  -21.3429  -16.9043 C   0  0  1  0  0  0  0  0  0  0  0  0
   17.6644  -22.7165  -16.5378 C   0  0  0  0  0  0  0  0  0  0  0  0
   16.8640  -23.8372  -16.9997 C   0  0  0  0  0  0  0  0  0  0  0  0
   16.7886  -24.1540  -18.2076 O   0  0  0  0  0  0  0  0  0  0  0  0
   15.7938  -21.1283  -16.4139 C   0  0  0  0  0  0  0  0  0  0  0  0
   14.6776  -21.5278  -17.1363 O   0  0  0  0  0  0  0  0  0  0  0  0
   16.1191  -24.6427  -16.1205 O   0  0  0  0  0  0  0  0  0  0  0  0
   15.5963  -20.5736  -15.3200 O   0  0  0  0  0  0  0  0  0  0  0  0
  2  1  1  0
  3  2  2  0
  4  3  1  0
  5 11  1  0
  5  4  2  0
  6  5  1  0
  7  9  1  0
  7  6  1  0
  7  8  1  1
  9 10  2  0
 11 12  2  0
 12  2  1  0
 13 14  1  0
 13  9  1  0
 14 15  1  6
 16 15  1  0
 17 16  2  0
 18 19  2  0
 18 14  1  0
 20 16  1  0
 21 18  1  0
 22 21  1  0
 22 26  1  0
 22 23  1  1
 24 23  1  0
 24 28  1  0
 25 24  2  0
 26 27  1  0
 29 26  2  0
M  END
$$$$
