YDD.pdb
     RDKit          3D

 29 29  0  0  1  0  0  0  0  0999 V2000
   29.5209  -19.8885   -3.5510 O   0  0  0  0  0  0  0  0  0  0  0  0
   29.0636  -19.8337   -4.8817 C   0  0  0  0  0  0  0  0  0  0  0  0
   28.0504  -18.9696   -5.2495 C   0  0  0  0  0  0  0  0  0  0  0  0
   27.6370  -18.9529   -6.5669 C   0  0  0  0  0  0  0  0  0  0  0  0
   28.1909  -19.7608   -7.5307 C   0  0  0  0  0  0  0  0  0  0  0  0
   27.7124  -19.6990   -8.9296 C   0  0  0  0  0  0  0  0  0  0  0  0
   26.4044  -20.4248   -9.1157 C   0  0  2  0  0  0  0  0  0  0  0  0
   26.5283  -21.8368   -8.8295 N   0  0  0  0  0  0  0  0  0  0  0  0
   25.8390  -20.2040  -10.4910 C   0  0  0  0  0  0  0  0  0  0  0  0
   25.6705  -19.0292  -10.8995 O   0  0  0  0  0  0  0  0  0  0  0  0
   29.1983  -20.6170   -7.1547 C   0  0  0  0  0  0  0  0  0  0  0  0
   29.6386  -20.6583   -5.8339 C   0  0  0  0  0  0  0  0  0  0  0  0
   25.4932  -21.2873  -11.3351 N   0  0  0  0  0  0  0  0  0  0  0  0
   24.9322  -21.2106  -12.6533 C   0  0  1  0  0  0  0  0  0  0  0  0
   25.6577  -22.0543  -13.6973 C   0  0  0  0  0  0  0  0  0  0  0  0
   26.9037  -21.4118  -14.1605 C   0  0  0  0  0  0  0  0  0  0  0  0
   26.9702  -20.3003  -14.6943 O   0  0  0  0  0  0  0  0  0  0  0  0
   23.4847  -21.2506  -12.7354 C   0  0  0  0  0  0  0  0  0  0  0  0
   22.8406  -22.2173  -12.1938 O   0  0  0  0  0  0  0  0  0  0  0  0
   28.1393  -22.0802  -14.0035 O   0  0  0  0  0  0  0  0  0  0  0  0
   22.6699  -20.2910  -13.3804 N   0  0  0  0  0  0  0  0  0  0  0  0
   21.1827  -20.3458  -13.2782 C   0  0  1  0  0  0  0  0  0  0  0  0
   20.7427  -19.0261  -13.8598 C   0  0  0  0  0  0  0  0  0  0  0  0
   19.3094  -18.8014  -13.9306 C   0  0  0  0  0  0  0  0  0  0  0  0
   18.4798  -19.6153  -13.4676 O   0  0  0  0  0  0  0  0  0  0  0  0
   20.7060  -21.4718  -14.0933 C   0  0  0  0  0  0  0  0  0  0  0  0
   19.7803  -22.3903  -13.6172 O   0  0  0  0  0  0  0  0  0  0  0  0
   18.7563  -17.6533  -14.5245 O   0  0  0  0  0  0  0  0  0  0  0  0
   21.1266  -21.6341  -15.2508 O   0  0  0  0  0  0  0  0  0  0  0  0
  2  1  1  0
  3  2  2  0
  4  3  1  0
  5 11  1  0
  5  4  2  0
  6  5  1  0
  7  9  1  0
  7  6  1  0
  7  8  1  6
  9 10  2  0
 11 12  2  0
 12  2  1  0
 13 14  1  0
 13  9  1  0
 14 15  1  6
 16 15  1  0
 17 16  2  0
 18 19  2  0
 18 14  1  0
 20 16  1  0
 21 18  1  0
 22 21  1  0
 22 26  1  0
 22 23  1  6
 24 23  1  0
 24 28  1  0
 25 24  2  0
 26 27  1  0
 29 26  2  0
M  END
$$$$
