YDD.pdb
     RDKit          3D

 29 29  0  0  1  0  0  0  0  0999 V2000
   16.0584  -16.6081  -19.8344 O   0  0  0  0  0  0  0  0  0  0  0  0
   16.4996  -15.5500  -19.0166 C   0  0  0  0  0  0  0  0  0  0  0  0
   16.6916  -14.2841  -19.5351 C   0  0  0  0  0  0  0  0  0  0  0  0
   17.1252  -13.2797  -18.6926 C   0  0  0  0  0  0  0  0  0  0  0  0
   17.3749  -13.4853  -17.3569 C   0  0  0  0  0  0  0  0  0  0  0  0
   17.8343  -12.3715  -16.4977 C   0  0  0  0  0  0  0  0  0  0  0  0
   19.3093  -12.1033  -16.6547 C   0  0  2  0  0  0  0  0  0  0  0  0
   20.1020  -13.2787  -16.3697 N   0  0  0  0  0  0  0  0  0  0  0  0
   19.7536  -10.9399  -15.8128 C   0  0  0  0  0  0  0  0  0  0  0  0
   20.3811  -11.1618  -14.7486 O   0  0  0  0  0  0  0  0  0  0  0  0
   17.1809  -14.7483  -16.8507 C   0  0  0  0  0  0  0  0  0  0  0  0
   16.7440  -15.7835  -17.6738 C   0  0  0  0  0  0  0  0  0  0  0  0
   19.4821   -9.6023  -16.1909 N   0  0  0  0  0  0  0  0  0  0  0  0
   19.8398   -8.4122  -15.4739 C   0  0  1  0  0  0  0  0  0  0  0  0
   21.2252   -8.4528  -14.8361 C   0  0  0  0  0  0  0  0  0  0  0  0
   21.5083   -7.2368  -14.0479 C   0  0  0  0  0  0  0  0  0  0  0  0
   21.1387   -7.0455  -12.8853 O   0  0  0  0  0  0  0  0  0  0  0  0
   19.4983   -7.1549  -16.1115 C   0  0  0  0  0  0  0  0  0  0  0  0
   20.0174   -6.8509  -17.2432 O   0  0  0  0  0  0  0  0  0  0  0  0
   22.2548   -6.1839  -14.6243 O   0  0  0  0  0  0  0  0  0  0  0  0
   18.6118   -6.1828  -15.5922 N   0  0  0  0  0  0  0  0  0  0  0  0
   18.1377   -5.0431  -16.4299 C   0  0  1  0  0  0  0  0  0  0  0  0
   16.6425   -5.0649  -16.2373 C   0  0  0  0  0  0  0  0  0  0  0  0
   15.8987   -3.9848  -16.8619 C   0  0  0  0  0  0  0  0  0  0  0  0
   16.4599   -3.0631  -17.4946 O   0  0  0  0  0  0  0  0  0  0  0  0
   18.7246   -3.8052  -15.8983 C   0  0  0  0  0  0  0  0  0  0  0  0
   19.6001   -3.8044  -14.8210 O   0  0  0  0  0  0  0  0  0  0  0  0
   14.4967   -3.9016  -16.7978 O   0  0  0  0  0  0  0  0  0  0  0  0
   18.4475   -2.7069  -16.4085 O   0  0  0  0  0  0  0  0  0  0  0  0
  2  1  1  0
  3  2  2  0
  4  3  1  0
  5 11  1  0
  5  4  2  0
  6  5  1  0
  7  9  1  0
  7  6  1  0
  7  8  1  1
  9 10  2  0
 11 12  2  0
 12  2  1  0
 13 14  1  0
 13  9  1  0
 14 15  1  6
 16 15  1  0
 17 16  2  0
 18 19  2  0
 18 14  1  0
 20 16  1  0
 21 18  1  0
 22 21  1  0
 22 26  1  0
 22 23  1  1
 24 23  1  0
 24 28  1  0
 25 24  2  0
 26 27  1  0
 29 26  2  0
M  END
$$$$
