YDD.pdb
     RDKit          3D

 29 29  0  0  1  0  0  0  0  0999 V2000
   29.2772  -19.3230   -5.0439 O   0  0  0  0  0  0  0  0  0  0  0  0
   28.5360  -19.7572   -6.1597 C   0  0  0  0  0  0  0  0  0  0  0  0
   29.1460  -19.9589   -7.3827 C   0  0  0  0  0  0  0  0  0  0  0  0
   28.3762  -20.3851   -8.4469 C   0  0  0  0  0  0  0  0  0  0  0  0
   27.0258  -20.6180   -8.3420 C   0  0  0  0  0  0  0  0  0  0  0  0
   26.2490  -21.0785   -9.5143 C   0  0  0  0  0  0  0  0  0  0  0  0
   25.1296  -20.1308   -9.8625 C   0  0  2  0  0  0  0  0  0  0  0  0
   23.9958  -20.2916   -8.9795 N   0  0  0  0  0  0  0  0  0  0  0  0
   24.7135  -20.2694  -11.3003 C   0  0  0  0  0  0  0  0  0  0  0  0
   23.6372  -20.8565  -11.5697 O   0  0  0  0  0  0  0  0  0  0  0  0
   26.4284  -20.4144   -7.1210 C   0  0  0  0  0  0  0  0  0  0  0  0
   27.1766  -19.9848   -6.0276 C   0  0  0  0  0  0  0  0  0  0  0  0
   25.5046  -19.7543  -12.3560 N   0  0  0  0  0  0  0  0  0  0  0  0
   25.0423  -19.2660  -13.6234 C   0  0  1  0  0  0  0  0  0  0  0  0
   26.1404  -18.7034  -14.5210 C   0  0  0  0  0  0  0  0  0  0  0  0
   25.5979  -18.1390  -15.7727 C   0  0  0  0  0  0  0  0  0  0  0  0
   25.3083  -18.7956  -16.7776 O   0  0  0  0  0  0  0  0  0  0  0  0
   24.0585  -20.0862  -14.3040 C   0  0  0  0  0  0  0  0  0  0  0  0
   24.1717  -21.3627  -14.2908 O   0  0  0  0  0  0  0  0  0  0  0  0
   25.3762  -16.7469  -15.8776 O   0  0  0  0  0  0  0  0  0  0  0  0
   22.9345  -19.6040  -15.0145 N   0  0  0  0  0  0  0  0  0  0  0  0
   21.6908  -20.4184  -15.1385 C   0  0  1  0  0  0  0  0  0  0  0  0
   21.2567  -20.6149  -13.7080 C   0  0  0  0  0  0  0  0  0  0  0  0
   20.7631  -21.9366  -13.3625 C   0  0  0  0  0  0  0  0  0  0  0  0
   20.6926  -22.8651  -14.1979 O   0  0  0  0  0  0  0  0  0  0  0  0
   20.7010  -19.6362  -15.8921 C   0  0  0  0  0  0  0  0  0  0  0  0
   20.9380  -18.3265  -16.2870 O   0  0  0  0  0  0  0  0  0  0  0  0
   20.3308  -22.2627  -12.0650 O   0  0  0  0  0  0  0  0  0  0  0  0
   19.6064  -20.1356  -16.2012 O   0  0  0  0  0  0  0  0  0  0  0  0
  2  1  1  0
  3  2  2  0
  4  3  1  0
  5 11  1  0
  5  4  2  0
  6  5  1  0
  7  9  1  0
  7  6  1  0
  7  8  1  1
  9 10  2  0
 11 12  2  0
 12  2  1  0
 13 14  1  0
 13  9  1  0
 14 15  1  6
 16 15  1  0
 17 16  2  0
 18 19  2  0
 18 14  1  0
 20 16  1  0
 21 18  1  0
 22 21  1  0
 22 26  1  0
 22 23  1  1
 24 23  1  0
 24 28  1  0
 25 24  2  0
 26 27  1  0
 29 26  2  0
M  END
$$$$
