YDD.pdb
     RDKit          3D

 29 29  0  0  1  0  0  0  0  0999 V2000
   16.6077  -18.9485  -18.3560 O   0  0  0  0  0  0  0  0  0  0  0  0
   17.3672  -17.7734  -18.1965 C   0  0  0  0  0  0  0  0  0  0  0  0
   17.1246  -16.6596  -18.9769 C   0  0  0  0  0  0  0  0  0  0  0  0
   17.8964  -15.5312  -18.7826 C   0  0  0  0  0  0  0  0  0  0  0  0
   18.8982  -15.4679  -17.8440 C   0  0  0  0  0  0  0  0  0  0  0  0
   19.6926  -14.2309  -17.6744 C   0  0  0  0  0  0  0  0  0  0  0  0
   20.7528  -14.0861  -18.7362 C   0  0  2  0  0  0  0  0  0  0  0  0
   21.6952  -15.1824  -18.7070 N   0  0  0  0  0  0  0  0  0  0  0  0
   21.4633  -12.7653  -18.6331 C   0  0  0  0  0  0  0  0  0  0  0  0
   22.5390  -12.7003  -17.9897 O   0  0  0  0  0  0  0  0  0  0  0  0
   19.1317  -16.5812  -17.0726 C   0  0  0  0  0  0  0  0  0  0  0  0
   18.3709  -17.7354  -17.2435 C   0  0  0  0  0  0  0  0  0  0  0  0
   20.9494  -11.5953  -19.2436 N   0  0  0  0  0  0  0  0  0  0  0  0
   21.5490  -10.2920  -19.2548 C   0  0  1  0  0  0  0  0  0  0  0  0
   21.7947   -9.7230  -20.6490 C   0  0  0  0  0  0  0  0  0  0  0  0
   22.5091   -8.4317  -20.6026 C   0  0  0  0  0  0  0  0  0  0  0  0
   22.8983   -7.8755  -19.5712 O   0  0  0  0  0  0  0  0  0  0  0  0
   21.0294   -9.3410  -18.2907 C   0  0  0  0  0  0  0  0  0  0  0  0
   19.7965   -8.9939  -18.3364 O   0  0  0  0  0  0  0  0  0  0  0  0
   22.7918   -7.7416  -21.8033 O   0  0  0  0  0  0  0  0  0  0  0  0
   21.7741   -8.7269  -17.2568 N   0  0  0  0  0  0  0  0  0  0  0  0
   21.1508   -7.7222  -16.3472 C   0  0  1  0  0  0  0  0  0  0  0  0
   20.9856   -8.4768  -15.0524 C   0  0  0  0  0  0  0  0  0  0  0  0
   20.4704   -7.7165  -13.9271 C   0  0  0  0  0  0  0  0  0  0  0  0
   20.1148   -6.5217  -14.0322 O   0  0  0  0  0  0  0  0  0  0  0  0
   22.0848   -6.5984  -16.1926 C   0  0  0  0  0  0  0  0  0  0  0  0
   21.7952   -5.4998  -15.3948 O   0  0  0  0  0  0  0  0  0  0  0  0
   20.3362   -8.2716  -12.6423 O   0  0  0  0  0  0  0  0  0  0  0  0
   23.1781   -6.6021  -16.7825 O   0  0  0  0  0  0  0  0  0  0  0  0
  2  1  1  0
  3  2  2  0
  4  3  1  0
  5 11  1  0
  5  4  2  0
  6  5  1  0
  7  9  1  0
  7  6  1  0
  7  8  1  1
  9 10  2  0
 11 12  2  0
 12  2  1  0
 13 14  1  0
 13  9  1  0
 14 15  1  6
 16 15  1  0
 17 16  2  0
 18 19  2  0
 18 14  1  0
 20 16  1  0
 21 18  1  0
 22 21  1  0
 22 26  1  0
 22 23  1  1
 24 23  1  0
 24 28  1  0
 25 24  2  0
 26 27  1  0
 29 26  2  0
M  END
$$$$
