RIV.pdb
     RDKit          3D

 27 26  0  0  1  0  0  0  0  0999 V2000
   27.3235  -22.6080  -20.1063 N   0  0  0  0  0  0  0  0  0  0  0  0
   26.5869  -22.5888  -21.3222 C   0  0  0  0  0  0  0  0  0  0  0  0
   26.9556  -23.4162  -22.2578 N   0  0  0  0  0  0  0  0  0  0  0  0
   25.5001  -21.6998  -21.4911 N   0  0  0  0  0  0  0  0  0  0  0  0
   24.5840  -21.4312  -20.4325 C   0  0  0  0  0  0  0  0  0  0  0  0
   25.2118  -20.6580  -19.2942 C   0  0  0  0  0  0  0  0  0  0  0  0
   24.6479  -21.0540  -17.9572 C   0  0  0  0  0  0  0  0  0  0  0  0
   25.6442  -21.7953  -17.1025 C   0  0  2  0  0  0  0  0  0  0  0  0
   25.9876  -23.0951  -17.6373 N   0  0  0  0  0  0  0  0  0  0  0  0
   25.0978  -21.9683  -15.7493 C   0  0  0  0  0  0  0  0  0  0  0  0
   24.2407  -22.8599  -15.5282 O   0  0  0  0  0  0  0  0  0  0  0  0
   26.5407  -23.4210  -23.1964 C   0  0  0  0  0  0  0  0  0  0  0  0
   28.2715  -20.5548  -12.0653 C   0  0  0  0  0  0  0  0  0  0  0  0
   27.1661  -21.4924  -12.4042 C   0  0  2  0  0  0  0  0  0  0  0  0
   25.7936  -20.8981  -12.2471 C   0  0  0  0  0  0  0  0  0  0  0  0
   25.2251  -21.0757  -10.8776 C   0  0  2  0  0  0  0  0  0  0  0  0
   24.8884  -21.3808  -13.3392 N   0  0  0  0  0  0  0  0  0  0  0  0
   25.4795  -21.1751  -14.6329 C   0  0  0  0  0  0  0  0  0  0  0  0
   23.5318  -20.7908  -13.2370 O   0  0  0  0  0  0  0  0  0  0  0  0
   23.4442  -19.5383  -13.2639 C   0  0  0  0  0  0  0  0  0  0  0  0
   20.7961  -21.0274  -15.4778 C   0  0  1  0  0  0  0  0  0  0  0  0
   20.1223  -21.3942  -14.1753 C   0  0  0  0  0  0  0  0  0  0  0  0
   18.7501  -20.7952  -14.1143 C   0  0  2  0  0  0  0  0  0  0  0  0
   21.0157  -20.9229  -13.0513 N   0  0  0  0  0  0  0  0  0  0  0  0
   22.3329  -21.5276  -13.1120 C   0  0  0  0  0  0  0  0  0  0  0  0
   20.4437  -21.1938  -11.7172 O   0  0  0  0  0  0  0  0  0  0  0  0
   19.7174  -20.2392  -11.0215 O   0  0  0  0  0  0  0  0  0  0  0  0
  2  1  1  0
  3  2  2  0
  4  2  1  0
  5  4  1  0
  5  6  1  0
  7  6  1  0
  7  8  1  0
  8 10  1  0
  8  9  1  6
 10 11  2  0
 12 13  1  0
 14 15  1  6
 14 16  1  0
 14 13  1  0
 16 17  1  1
 17 10  1  0
 18 24  1  0
 18 16  1  0
 19 18  2  0
 21 22  1  6
 21 20  1  0
 23 21  1  0
 23 24  1  1
 25 26  1  0
 25 23  1  0
 27 25  2  0
M  END
$$$$
