RIV.pdb
     RDKit          3D

 27 26  0  0  1  0  0  0  0  0999 V2000
   27.0737  -26.9258  -16.7896 N   0  0  0  0  0  0  0  0  0  0  0  0
   25.7440  -27.2462  -17.1774 C   0  0  0  0  0  0  0  0  0  0  0  0
   25.4418  -28.5078  -17.2908 N   0  0  0  0  0  0  0  0  0  0  0  0
   24.8005  -26.2224  -17.4258 N   0  0  0  0  0  0  0  0  0  0  0  0
   25.1511  -24.8443  -17.3274 C   0  0  0  0  0  0  0  0  0  0  0  0
   25.7553  -24.4860  -15.9879 C   0  0  0  0  0  0  0  0  0  0  0  0
   24.7373  -23.9177  -15.0375 C   0  0  0  0  0  0  0  0  0  0  0  0
   24.5715  -22.4268  -15.1865 C   0  0  2  0  0  0  0  0  0  0  0  0
   25.7697  -21.6904  -14.8469 N   0  0  0  0  0  0  0  0  0  0  0  0
   23.4721  -21.9665  -14.3266 C   0  0  0  0  0  0  0  0  0  0  0  0
   23.6621  -21.8120  -13.0944 O   0  0  0  0  0  0  0  0  0  0  0  0
   24.5076  -28.8380  -17.5582 C   0  0  0  0  0  0  0  0  0  0  0  0
   21.3940  -17.5200  -14.7177 C   0  0  0  0  0  0  0  0  0  0  0  0
   21.7831  -18.8934  -14.2958 C   0  0  2  0  0  0  0  0  0  0  0  0
   20.6389  -19.8688  -14.2664 C   0  0  0  0  0  0  0  0  0  0  0  0
   19.4885  -19.4065  -13.4339 C   0  0  2  0  0  0  0  0  0  0  0  0
   21.1296  -21.2373  -13.9038 N   0  0  0  0  0  0  0  0  0  0  0  0
   22.1644  -21.6729  -14.8010 C   0  0  0  0  0  0  0  0  0  0  0  0
   20.0202  -22.2160  -13.8024 O   0  0  0  0  0  0  0  0  0  0  0  0
   19.4655  -22.5716  -14.8715 C   0  0  0  0  0  0  0  0  0  0  0  0
   19.7170  -25.5300  -11.7878 C   0  0  1  0  0  0  0  0  0  0  0  0
   18.5118  -24.6856  -11.4417 C   0  0  0  0  0  0  0  0  0  0  0  0
   17.2934  -25.5484  -11.3134 C   0  0  2  0  0  0  0  0  0  0  0  0
   18.3703  -23.6314  -12.5151 N   0  0  0  0  0  0  0  0  0  0  0  0
   19.5403  -22.7779  -12.5983 C   0  0  0  0  0  0  0  0  0  0  0  0
   17.1850  -22.7732  -12.3180 O   0  0  0  0  0  0  0  0  0  0  0  0
   15.9783  -23.0302  -12.9509 O   0  0  0  0  0  0  0  0  0  0  0  0
  2  1  1  0
  3  2  2  0
  4  2  1  0
  5  4  1  0
  5  6  1  0
  7  6  1  0
  7  8  1  0
  8 10  1  0
  8  9  1  1
 10 11  2  0
 12 13  1  0
 14 15  1  6
 14 16  1  0
 14 13  1  0
 16 17  1  1
 17 10  1  0
 18 24  1  0
 18 16  1  0
 19 18  2  0
 21 22  1  6
 21 20  1  0
 23 21  1  0
 23 24  1  6
 25 26  1  0
 25 23  1  0
 27 25  2  0
M  END
$$$$
