RIV.pdb
     RDKit          3D

 27 26  0  0  1  0  0  0  0  0999 V2000
   25.6093  -23.7990  -23.1261 N   0  0  0  0  0  0  0  0  0  0  0  0
   25.5249  -25.1957  -23.3782 C   0  0  0  0  0  0  0  0  0  0  0  0
   25.9576  -25.6227  -24.5298 N   0  0  0  0  0  0  0  0  0  0  0  0
   24.9894  -26.0713  -22.4052 N   0  0  0  0  0  0  0  0  0  0  0  0
   24.5532  -25.5972  -21.1337 C   0  0  0  0  0  0  0  0  0  0  0  0
   25.7001  -25.2745  -20.2019 C   0  0  0  0  0  0  0  0  0  0  0  0
   25.2266  -24.8993  -18.8244 C   0  0  0  0  0  0  0  0  0  0  0  0
   26.3335  -24.3556  -17.9573 C   0  0  2  0  0  0  0  0  0  0  0  0
   27.2606  -25.3773  -17.5214 N   0  0  0  0  0  0  0  0  0  0  0  0
   25.7552  -23.7036  -16.7739 C   0  0  0  0  0  0  0  0  0  0  0  0
   25.5246  -24.3754  -15.7376 O   0  0  0  0  0  0  0  0  0  0  0  0
   25.9222  -26.6092  -24.8106 C   0  0  0  0  0  0  0  0  0  0  0  0
   28.1610  -19.6986  -14.9824 C   0  0  0  0  0  0  0  0  0  0  0  0
   27.2621  -20.8561  -15.2431 C   0  0  2  0  0  0  0  0  0  0  0  0
   25.7989  -20.5296  -15.1257 C   0  0  0  0  0  0  0  0  0  0  0  0
   25.4316  -19.9228  -13.8115 C   0  0  2  0  0  0  0  0  0  0  0  0
   24.9678  -21.7224  -15.4886 N   0  0  0  0  0  0  0  0  0  0  0  0
   25.4258  -22.3221  -16.7117 C   0  0  0  0  0  0  0  0  0  0  0  0
   23.5207  -21.4007  -15.5236 O   0  0  0  0  0  0  0  0  0  0  0  0
   23.1413  -20.5403  -16.3561 C   0  0  0  0  0  0  0  0  0  0  0  0
   20.5095  -23.6422  -13.4313 C   0  0  1  0  0  0  0  0  0  0  0  0
   20.3095  -23.0153  -14.7923 C   0  0  0  0  0  0  0  0  0  0  0  0
   20.7033  -23.9787  -15.8703 C   0  0  1  0  0  0  0  0  0  0  0  0
   21.1153  -21.7374  -14.8284 N   0  0  0  0  0  0  0  0  0  0  0  0
   22.5381  -21.9863  -14.6944 C   0  0  0  0  0  0  0  0  0  0  0  0
   20.7126  -20.7801  -13.7786 O   0  0  0  0  0  0  0  0  0  0  0  0
   19.6329  -19.9250  -13.9390 O   0  0  0  0  0  0  0  0  0  0  0  0
  2  1  1  0
  3  2  2  0
  4  2  1  0
  5  4  1  0
  5  6  1  0
  7  6  1  0
  7  8  1  0
  8 10  1  0
  8  9  1  1
 10 11  2  0
 12 13  1  0
 14 15  1  6
 14 16  1  0
 14 13  1  0
 16 17  1  1
 17 10  1  0
 18 24  1  0
 18 16  1  0
 19 18  2  0
 21 22  1  1
 21 20  1  0
 23 21  1  0
 23 24  1  1
 25 26  1  0
 25 23  1  0
 27 25  2  0
M  END
$$$$
