RIV.pdb
     RDKit          3D

 27 26  0  0  1  0  0  0  0  0999 V2000
   14.6073   -8.0389  -21.2325 N   0  0  0  0  0  0  0  0  0  0  0  0
   14.3233   -9.3885  -20.8870 C   0  0  0  0  0  0  0  0  0  0  0  0
   13.3775   -9.9893  -21.5505 N   0  0  0  0  0  0  0  0  0  0  0  0
   15.0496  -10.0366  -19.8610 N   0  0  0  0  0  0  0  0  0  0  0  0
   16.3959  -10.4630  -20.0545 C   0  0  0  0  0  0  0  0  0  0  0  0
   16.9808  -11.1350  -18.8322 C   0  0  0  0  0  0  0  0  0  0  0  0
   18.1898  -10.4101  -18.3073 C   0  0  0  0  0  0  0  0  0  0  0  0
   19.1226  -11.3138  -17.5419 C   0  0  2  0  0  0  0  0  0  0  0  0
   18.4869  -12.5370  -17.1025 N   0  0  0  0  0  0  0  0  0  0  0  0
   19.6428  -10.6008  -16.3668 C   0  0  0  0  0  0  0  0  0  0  0  0
   18.9573  -10.5404  -15.3156 O   0  0  0  0  0  0  0  0  0  0  0  0
   13.0684  -10.9457  -21.3430 C   0  0  0  0  0  0  0  0  0  0  0  0
   25.0472  -10.4391  -15.1066 C   0  0  0  0  0  0  0  0  0  0  0  0
   23.7523   -9.8879  -15.5918 C   0  0  2  0  0  0  0  0  0  0  0  0
   22.6183  -10.0488  -14.6172 C   0  0  0  0  0  0  0  0  0  0  0  0
   22.3727  -11.4686  -14.2245 C   0  0  1  0  0  0  0  0  0  0  0  0
   21.3947   -9.3457  -15.1205 N   0  0  0  0  0  0  0  0  0  0  0  0
   20.9072   -9.9519  -16.3289 C   0  0  0  0  0  0  0  0  0  0  0  0
   21.6142   -7.8867  -15.2684 O   0  0  0  0  0  0  0  0  0  0  0  0
   22.0514   -7.4784  -16.3726 C   0  0  0  0  0  0  0  0  0  0  0  0
   19.5715   -5.0550  -15.6318 C   0  0  1  0  0  0  0  0  0  0  0  0
   20.3745   -4.6813  -14.4068 C   0  0  0  0  0  0  0  0  0  0  0  0
   20.6440   -3.2073  -14.3930 C   0  0  2  0  0  0  0  0  0  0  0  0
   21.6405   -5.5063  -14.4224 N   0  0  0  0  0  0  0  0  0  0  0  0
   21.3699   -6.9227  -14.2649 C   0  0  0  0  0  0  0  0  0  0  0  0
   22.5986   -5.0993  -13.3751 O   0  0  0  0  0  0  0  0  0  0  0  0
   23.4021   -3.9774  -13.5100 O   0  0  0  0  0  0  0  0  0  0  0  0
  2  1  1  0
  3  2  2  0
  4  2  1  0
  5  4  1  0
  5  6  1  0
  7  6  1  0
  7  8  1  0
  8 10  1  0
  8  9  1  1
 10 11  2  0
 12 13  1  0
 14 15  1  1
 14 16  1  0
 14 13  1  0
 16 17  1  6
 17 10  1  0
 18 24  1  0
 18 16  1  0
 19 18  2  0
 21 22  1  6
 21 20  1  0
 23 21  1  0
 23 24  1  6
 25 26  1  0
 25 23  1  0
 27 25  2  0
M  END
$$$$
