RIV.pdb
     RDKit          3D

 27 26  0  0  1  0  0  0  0  0999 V2000
   17.5285  -25.9084   -8.1214 N   0  0  0  0  0  0  0  0  0  0  0  0
   17.5878  -27.1575   -8.7978 C   0  0  0  0  0  0  0  0  0  0  0  0
   16.7784  -28.0946   -8.3950 N   0  0  0  0  0  0  0  0  0  0  0  0
   18.4960  -27.3561   -9.8636 N   0  0  0  0  0  0  0  0  0  0  0  0
   19.1348  -26.2603  -10.5140 C   0  0  0  0  0  0  0  0  0  0  0  0
   18.1736  -25.1494  -10.8740 C   0  0  0  0  0  0  0  0  0  0  0  0
   18.8629  -23.9970  -11.5517 C   0  0  0  0  0  0  0  0  0  0  0  0
   19.1282  -22.8460  -10.6149 C   0  0  2  0  0  0  0  0  0  0  0  0
   17.9169  -22.1927  -10.1686 N   0  0  0  0  0  0  0  0  0  0  0  0
   19.9828  -21.8551  -11.2839 C   0  0  0  0  0  0  0  0  0  0  0  0
   19.4638  -20.8680  -11.8625 O   0  0  0  0  0  0  0  0  0  0  0  0
   16.7500  -29.0296   -8.8171 C   0  0  0  0  0  0  0  0  0  0  0  0
   24.8724  -20.6073   -9.3646 C   0  0  0  0  0  0  0  0  0  0  0  0
   23.5305  -20.7543   -9.9919 C   0  0  2  0  0  0  0  0  0  0  0  0
   23.5674  -20.8599  -11.4916 C   0  0  0  0  0  0  0  0  0  0  0  0
   24.3943  -19.7983  -12.1394 C   0  0  2  0  0  0  0  0  0  0  0  0
   22.1770  -20.9560  -12.0418 N   0  0  0  0  0  0  0  0  0  0  0  0
   21.4017  -21.9324  -11.3270 C   0  0  0  0  0  0  0  0  0  0  0  0
   22.1745  -21.1933  -13.5056 O   0  0  0  0  0  0  0  0  0  0  0  0
   22.7266  -22.2421  -13.9206 C   0  0  0  0  0  0  0  0  0  0  0  0
   19.4520  -19.3953  -16.1060 C   0  0  1  0  0  0  0  0  0  0  0  0
   20.1233  -20.7193  -16.3916 C   0  0  0  0  0  0  0  0  0  0  0  0
   19.3539  -21.8383  -15.7581 C   0  0  1  0  0  0  0  0  0  0  0  0
   21.5444  -20.6283  -15.8860 N   0  0  0  0  0  0  0  0  0  0  0  0
   21.6001  -20.3321  -14.4670 C   0  0  0  0  0  0  0  0  0  0  0  0
   22.3399  -19.6110  -16.6022 O   0  0  0  0  0  0  0  0  0  0  0  0
   22.8525  -19.8381  -17.8704 O   0  0  0  0  0  0  0  0  0  0  0  0
  2  1  1  0
  3  2  2  0
  4  2  1  0
  5  4  1  0
  5  6  1  0
  7  6  1  0
  7  8  1  0
  8 10  1  0
  8  9  1  6
 10 11  2  0
 12 13  1  0
 14 15  1  6
 14 16  1  0
 14 13  1  0
 16 17  1  1
 17 10  1  0
 18 24  1  0
 18 16  1  0
 19 18  2  0
 21 22  1  1
 21 20  1  0
 23 21  1  0
 23 24  1  1
 25 26  1  0
 25 23  1  0
 27 25  2  0
M  END
$$$$
