RIV.pdb
     RDKit          3D

 27 26  0  0  1  0  0  0  0  0999 V2000
   25.0489  -27.0976  -19.7090 N   0  0  0  0  0  0  0  0  0  0  0  0
   26.0494  -27.7285  -18.9201 C   0  0  0  0  0  0  0  0  0  0  0  0
   25.8432  -28.9658  -18.5704 N   0  0  0  0  0  0  0  0  0  0  0  0
   27.2157  -27.0247  -18.5398 N   0  0  0  0  0  0  0  0  0  0  0  0
   27.3941  -25.6472  -18.8600 C   0  0  0  0  0  0  0  0  0  0  0  0
   26.5903  -24.7277  -17.9677 C   0  0  0  0  0  0  0  0  0  0  0  0
   27.3274  -24.3708  -16.7060 C   0  0  0  0  0  0  0  0  0  0  0  0
   28.3198  -23.2543  -16.9086 C   0  0  2  0  0  0  0  0  0  0  0  0
   29.6934  -23.7064  -16.8611 N   0  0  0  0  0  0  0  0  0  0  0  0
   28.1222  -22.2280  -15.8753 C   0  0  0  0  0  0  0  0  0  0  0  0
   28.8481  -22.2225  -14.8499 O   0  0  0  0  0  0  0  0  0  0  0  0
   25.0216  -29.5029  -18.8699 C   0  0  0  0  0  0  0  0  0  0  0  0
   27.6963  -17.1698  -16.9915 C   0  0  0  0  0  0  0  0  0  0  0  0
   27.9119  -18.4534  -16.2690 C   0  0  2  0  0  0  0  0  0  0  0  0
   26.7471  -18.8757  -15.4167 C   0  0  0  0  0  0  0  0  0  0  0  0
   26.3927  -17.8787  -14.3629 C   0  0  2  0  0  0  0  0  0  0  0  0
   26.9654  -20.2591  -14.8841 N   0  0  0  0  0  0  0  0  0  0  0  0
   27.1371  -21.2058  -15.9517 C   0  0  0  0  0  0  0  0  0  0  0  0
   25.8994  -20.6633  -13.9358 O   0  0  0  0  0  0  0  0  0  0  0  0
   24.8760  -21.2092  -14.4173 C   0  0  0  0  0  0  0  0  0  0  0  0
   25.4264  -19.3458   -9.8487 C   0  0  1  0  0  0  0  0  0  0  0  0
   25.3308  -20.8173  -10.1811 C   0  0  0  0  0  0  0  0  0  0  0  0
   26.6367  -21.4978   -9.9039 C   0  0  1  0  0  0  0  0  0  0  0  0
   24.9083  -20.9315  -11.6274 N   0  0  0  0  0  0  0  0  0  0  0  0
   25.9465  -20.4821  -12.5355 C   0  0  0  0  0  0  0  0  0  0  0  0
   23.6760  -20.1734  -11.9226 O   0  0  0  0  0  0  0  0  0  0  0  0
   22.4158  -20.6868  -11.6559 O   0  0  0  0  0  0  0  0  0  0  0  0
  2  1  1  0
  3  2  2  0
  4  2  1  0
  5  4  1  0
  5  6  1  0
  7  6  1  0
  7  8  1  0
  8 10  1  0
  8  9  1  1
 10 11  2  0
 12 13  1  0
 14 15  1  6
 14 16  1  0
 14 13  1  0
 16 17  1  1
 17 10  1  0
 18 24  1  0
 18 16  1  0
 19 18  2  0
 21 22  1  6
 21 20  1  0
 23 21  1  0
 23 24  1  6
 25 26  1  0
 25 23  1  0
 27 25  2  0
M  END
$$$$
