RIV.pdb
     RDKit          3D

 27 26  0  0  1  0  0  0  0  0999 V2000
   26.8121  -16.8451  -19.9018 N   0  0  0  0  0  0  0  0  0  0  0  0
   25.8212  -16.6946  -18.8934 C   0  0  0  0  0  0  0  0  0  0  0  0
   24.8883  -15.8095  -19.0991 N   0  0  0  0  0  0  0  0  0  0  0  0
   25.8628  -17.4834  -17.7203 N   0  0  0  0  0  0  0  0  0  0  0  0
   27.0871  -18.0187  -17.2238 C   0  0  0  0  0  0  0  0  0  0  0  0
   27.3477  -19.4300  -17.7010 C   0  0  0  0  0  0  0  0  0  0  0  0
   26.6024  -20.4530  -16.8883 C   0  0  0  0  0  0  0  0  0  0  0  0
   27.4228  -20.9993  -15.7477 C   0  0  2  0  0  0  0  0  0  0  0  0
   28.2674  -22.1061  -16.1412 N   0  0  0  0  0  0  0  0  0  0  0  0
   26.5294  -21.4445  -14.6690 C   0  0  0  0  0  0  0  0  0  0  0  0
   25.8489  -22.4911  -14.8102 O   0  0  0  0  0  0  0  0  0  0  0  0
   24.1254  -15.6354  -18.4351 C   0  0  0  0  0  0  0  0  0  0  0  0
   25.3007  -21.1531   -8.6417 C   0  0  0  0  0  0  0  0  0  0  0  0
   24.9356  -21.4592  -10.0520 C   0  0  2  0  0  0  0  0  0  0  0  0
   25.8840  -20.8815  -11.0660 C   0  0  0  0  0  0  0  0  0  0  0  0
   26.1724  -19.4325  -10.8482 C   0  0  2  0  0  0  0  0  0  0  0  0
   25.4189  -21.1981  -12.4547 N   0  0  0  0  0  0  0  0  0  0  0  0
   26.3718  -20.7558  -13.4353 C   0  0  0  0  0  0  0  0  0  0  0  0
   24.0554  -20.6766  -12.7157 O   0  0  0  0  0  0  0  0  0  0  0  0
   23.9408  -19.4450  -12.9324 C   0  0  0  0  0  0  0  0  0  0  0  0
   20.7993  -22.9969  -14.0790 C   0  0  1  0  0  0  0  0  0  0  0  0
   20.9904  -21.5153  -14.3104 C   0  0  0  0  0  0  0  0  0  0  0  0
   21.8679  -21.2854  -15.5031 C   0  0  1  0  0  0  0  0  0  0  0  0
   21.5626  -20.9258  -13.0421 N   0  0  0  0  0  0  0  0  0  0  0  0
   22.8780  -21.4571  -12.7394 C   0  0  0  0  0  0  0  0  0  0  0  0
   20.6937  -21.1463  -11.8687 O   0  0  0  0  0  0  0  0  0  0  0  0
   19.5126  -20.4432  -11.6866 O   0  0  0  0  0  0  0  0  0  0  0  0
  2  1  1  0
  3  2  2  0
  4  2  1  0
  5  4  1  0
  5  6  1  0
  7  6  1  0
  7  8  1  0
  8 10  1  0
  8  9  1  6
 10 11  2  0
 12 13  1  0
 14 15  1  6
 14 16  1  0
 14 13  1  0
 16 17  1  6
 17 10  1  0
 18 24  1  0
 18 16  1  0
 19 18  2  0
 21 22  1  6
 21 20  1  0
 23 21  1  0
 23 24  1  6
 25 26  1  0
 25 23  1  0
 27 25  2  0
M  END
$$$$
