RIV.pdb
     RDKit          3D

 27 26  0  0  1  0  0  0  0  0999 V2000
   63.8548  -48.2189  -42.1561 N   0  0  0  0  0  0  0  0  0  0  0  0
   63.3869  -48.9208  -43.3006 C   0  0  0  0  0  0  0  0  0  0  0  0
   63.0336  -50.1634  -43.1369 N   0  0  0  0  0  0  0  0  0  0  0  0
   63.3146  -48.2786  -44.5586 N   0  0  0  0  0  0  0  0  0  0  0  0
   64.0667  -47.1009  -44.8398 C   0  0  0  0  0  0  0  0  0  0  0  0
   63.5598  -45.8876  -44.0924 C   0  0  0  0  0  0  0  0  0  0  0  0
   62.0882  -45.9764  -43.7936 C   0  0  0  0  0  0  0  0  0  0  0  0
   61.3006  -46.5835  -44.9265 C   0  0  2  0  0  0  0  0  0  0  0  0
   61.8964  -46.3374  -46.2218 N   0  0  0  0  0  0  0  0  0  0  0  0
   59.9349  -46.0407  -44.9216 C   0  0  0  0  0  0  0  0  0  0  0  0
   59.4493  -45.5743  -43.8609 O   0  0  0  0  0  0  0  0  0  0  0  0
   62.0841  -50.5049  -43.3239 C   0  0  0  0  0  0  0  0  0  0  0  0
   59.9205  -49.9905  -48.1141 C   0  0  0  0  0  0  0  0  0  0  0  0
   58.9457  -49.5937  -47.0614 C   0  0  2  0  0  0  0  0  0  0  0  0
   59.3748  -48.4009  -46.2524 C   0  0  0  0  0  0  0  0  0  0  0  0
   58.9298  -48.4609  -44.8280 C   0  0  2  0  0  0  0  0  0  0  0  0
   58.9874  -47.1320  -46.9486 N   0  0  0  0  0  0  0  0  0  0  0  0
   59.0930  -46.0023  -46.0665 C   0  0  0  0  0  0  0  0  0  0  0  0
   57.6501  -47.2322  -47.5815 O   0  0  0  0  0  0  0  0  0  0  0  0
   57.4637  -46.5845  -48.6411 C   0  0  0  0  0  0  0  0  0  0  0  0
   53.0281  -48.3131  -46.5155 C   0  0  1  0  0  0  0  0  0  0  0  0
   54.1479  -48.0058  -47.4834 C   0  0  0  0  0  0  0  0  0  0  0  0
   54.5284  -49.2389  -48.2450 C   0  0  1  0  0  0  0  0  0  0  0  0
   55.2968  -47.4349  -46.6849 N   0  0  0  0  0  0  0  0  0  0  0  0
   56.5720  -47.9987  -47.0853 C   0  0  0  0  0  0  0  0  0  0  0  0
   55.1372  -47.6388  -45.2312 O   0  0  0  0  0  0  0  0  0  0  0  0
   53.8904  -47.7853  -44.6423 O   0  0  0  0  0  0  0  0  0  0  0  0
  2  1  1  0
  3  2  2  0
  4  2  1  0
  5  4  1  0
  5  6  1  0
  7  6  1  0
  7  8  1  0
  8 10  1  0
  8  9  1  6
 10 11  2  0
 12 13  1  0
 14 15  1  6
 14 16  1  0
 14 13  1  0
 16 17  1  6
 17 10  1  0
 18 24  1  0
 18 16  1  0
 19 18  2  0
 21 22  1  1
 21 20  1  0
 23 21  1  0
 23 24  1  1
 25 26  1  0
 25 23  1  0
 27 25  2  0
M  END
$$$$
