RIV.pdb
     RDKit          3D

 27 26  0  0  1  0  0  0  0  0999 V2000
   20.0761  -26.0762  -11.2025 N   0  0  0  0  0  0  0  0  0  0  0  0
   19.8238  -26.2386  -12.5923 C   0  0  0  0  0  0  0  0  0  0  0  0
   19.8219  -25.1649  -13.3291 N   0  0  0  0  0  0  0  0  0  0  0  0
   19.5867  -27.5228  -13.1351 N   0  0  0  0  0  0  0  0  0  0  0  0
   20.0338  -28.7056  -12.4771 C   0  0  0  0  0  0  0  0  0  0  0  0
   21.0375  -29.4887  -13.2938 C   0  0  0  0  0  0  0  0  0  0  0  0
   21.4916  -30.7391  -12.5918 C   0  0  0  0  0  0  0  0  0  0  0  0
   22.5857  -31.4598  -13.3375 C   0  0  2  0  0  0  0  0  0  0  0  0
   22.0950  -32.2015  -14.4787 N   0  0  0  0  0  0  0  0  0  0  0  0
   23.2713  -32.3880  -12.4275 C   0  0  0  0  0  0  0  0  0  0  0  0
   22.7507  -33.4985  -12.1552 O   0  0  0  0  0  0  0  0  0  0  0  0
   19.6582  -25.1813  -14.3421 C   0  0  0  0  0  0  0  0  0  0  0  0
   26.1917  -35.2516  -13.0443 C   0  0  0  0  0  0  0  0  0  0  0  0
   26.5760  -33.8222  -12.8861 C   0  0  1  0  0  0  0  0  0  0  0  0
   26.5783  -33.3464  -11.4595 C   0  0  0  0  0  0  0  0  0  0  0  0
   27.3668  -34.2242  -10.5442 C   0  0  2  0  0  0  0  0  0  0  0  0
   25.1772  -33.0965  -10.9911 N   0  0  0  0  0  0  0  0  0  0  0  0
   24.5227  -32.1141  -11.8108 C   0  0  0  0  0  0  0  0  0  0  0  0
   25.1268  -32.7543   -9.5491 O   0  0  0  0  0  0  0  0  0  0  0  0
   25.6156  -31.6511   -9.2009 C   0  0  0  0  0  0  0  0  0  0  0  0
   22.9182  -34.9938   -6.6951 C   0  0  1  0  0  0  0  0  0  0  0  0
   23.1508  -33.5086   -6.5366 C   0  0  0  0  0  0  0  0  0  0  0  0
   22.0346  -32.7378   -7.1732 C   0  0  1  0  0  0  0  0  0  0  0  0
   24.4988  -33.1911   -7.1413 N   0  0  0  0  0  0  0  0  0  0  0  0
   24.5724  -33.5719   -8.5391 C   0  0  0  0  0  0  0  0  0  0  0  0
   25.6127  -33.8443   -6.4250 O   0  0  0  0  0  0  0  0  0  0  0  0
   26.0927  -33.3620   -5.2168 O   0  0  0  0  0  0  0  0  0  0  0  0
  2  1  1  0
  3  2  2  0
  4  2  1  0
  5  4  1  0
  5  6  1  0
  7  6  1  0
  7  8  1  0
  8 10  1  0
  8  9  1  6
 10 11  2  0
 12 13  1  0
 14 15  1  6
 14 16  1  0
 14 13  1  0
 16 17  1  1
 17 10  1  0
 18 24  1  0
 18 16  1  0
 19 18  2  0
 21 22  1  6
 21 20  1  0
 23 21  1  0
 23 24  1  6
 25 26  1  0
 25 23  1  0
 27 25  2  0
M  END
$$$$
