RIV.pdb
     RDKit          3D

 27 26  0  0  1  0  0  0  0  0999 V2000
   19.0397  -23.1948   -8.8321 N   0  0  0  0  0  0  0  0  0  0  0  0
   19.5808  -23.3100   -7.5224 C   0  0  0  0  0  0  0  0  0  0  0  0
   19.1554  -24.2947   -6.7841 N   0  0  0  0  0  0  0  0  0  0  0  0
   20.5421  -22.3828   -7.0570 N   0  0  0  0  0  0  0  0  0  0  0  0
   21.1319  -21.4193   -7.9263 C   0  0  0  0  0  0  0  0  0  0  0  0
   22.6269  -21.5964   -8.0716 C   0  0  0  0  0  0  0  0  0  0  0  0
   23.2305  -20.5921   -9.0148 C   0  0  0  0  0  0  0  0  0  0  0  0
   24.7105  -20.7981   -9.2141 C   0  0  2  0  0  0  0  0  0  0  0  0
   25.5131  -20.1027   -8.2314 N   0  0  0  0  0  0  0  0  0  0  0  0
   25.0948  -20.3344  -10.5546 C   0  0  0  0  0  0  0  0  0  0  0  0
   25.2434  -19.1064  -10.7748 O   0  0  0  0  0  0  0  0  0  0  0  0
   19.4400  -24.4254   -5.8068 C   0  0  0  0  0  0  0  0  0  0  0  0
   28.8825  -19.9330  -12.4724 C   0  0  0  0  0  0  0  0  0  0  0  0
   28.0810  -21.1800  -12.3364 C   0  0  1  0  0  0  0  0  0  0  0  0
   27.0137  -21.3355  -13.3844 C   0  0  0  0  0  0  0  0  0  0  0  0
   27.4537  -20.9056  -14.7453 C   0  0  2  0  0  0  0  0  0  0  0  0
   25.7411  -20.6863  -12.9329 N   0  0  0  0  0  0  0  0  0  0  0  0
   25.3188  -21.2009  -11.6592 C   0  0  0  0  0  0  0  0  0  0  0  0
   24.6763  -20.7776  -13.9609 O   0  0  0  0  0  0  0  0  0  0  0  0
   24.2049  -21.9161  -14.2032 C   0  0  0  0  0  0  0  0  0  0  0  0
   21.4814  -18.6984  -14.1468 C   0  0  1  0  0  0  0  0  0  0  0  0
   22.0918  -18.6455  -15.5287 C   0  0  0  0  0  0  0  0  0  0  0  0
   21.0177  -18.6920  -16.5725 C   0  0  2  0  0  0  0  0  0  0  0  0
   23.0656  -19.7956  -15.6413 N   0  0  0  0  0  0  0  0  0  0  0  0
   24.1525  -19.6848  -14.6870 C   0  0  0  0  0  0  0  0  0  0  0  0
   23.6478  -19.9189  -16.9928 O   0  0  0  0  0  0  0  0  0  0  0  0
   23.1311  -20.7915  -17.9385 O   0  0  0  0  0  0  0  0  0  0  0  0
  2  1  1  0
  3  2  2  0
  4  2  1  0
  5  4  1  0
  5  6  1  0
  7  6  1  0
  7  8  1  0
  8 10  1  0
  8  9  1  1
 10 11  2  0
 12 13  1  0
 14 15  1  6
 14 16  1  0
 14 13  1  0
 16 17  1  1
 17 10  1  0
 18 24  1  0
 18 16  1  0
 19 18  2  0
 21 22  1  1
 21 20  1  0
 23 21  1  0
 23 24  1  1
 25 26  1  0
 25 23  1  0
 27 25  2  0
M  END
$$$$
