RIV.pdb
     RDKit          3D

 27 26  0  0  1  0  0  0  0  0999 V2000
   24.1901  -27.4672  -16.5393 N   0  0  0  0  0  0  0  0  0  0  0  0
   23.6342  -27.0356  -17.7747 C   0  0  0  0  0  0  0  0  0  0  0  0
   22.4370  -27.4539  -18.0704 N   0  0  0  0  0  0  0  0  0  0  0  0
   24.3670  -26.1857  -18.6354 N   0  0  0  0  0  0  0  0  0  0  0  0
   25.3747  -25.3087  -18.1381 C   0  0  0  0  0  0  0  0  0  0  0  0
   25.7250  -25.5767  -16.6913 C   0  0  0  0  0  0  0  0  0  0  0  0
   26.3806  -24.3926  -16.0352 C   0  0  0  0  0  0  0  0  0  0  0  0
   26.2190  -23.1231  -16.8320 C   0  0  2  0  0  0  0  0  0  0  0  0
   27.4664  -22.6442  -17.3871 N   0  0  0  0  0  0  0  0  0  0  0  0
   25.6475  -22.0747  -15.9752 C   0  0  0  0  0  0  0  0  0  0  0  0
   26.3878  -21.1727  -15.5094 O   0  0  0  0  0  0  0  0  0  0  0  0
   21.9788  -27.2524  -18.9663 C   0  0  0  0  0  0  0  0  0  0  0  0
   21.9791  -19.0076  -17.6285 C   0  0  0  0  0  0  0  0  0  0  0  0
   23.0620  -19.6852  -16.8642 C   0  0  2  0  0  0  0  0  0  0  0  0
   22.6186  -20.2344  -15.5363 C   0  0  0  0  0  0  0  0  0  0  0  0
   21.9117  -19.2299  -14.6868 C   0  0  2  0  0  0  0  0  0  0  0  0
   23.7631  -20.9074  -14.8420 N   0  0  0  0  0  0  0  0  0  0  0  0
   24.2725  -22.0021  -15.6215 C   0  0  0  0  0  0  0  0  0  0  0  0
   23.4127  -21.3126  -13.4593 O   0  0  0  0  0  0  0  0  0  0  0  0
   22.5747  -22.2381  -13.3245 C   0  0  0  0  0  0  0  0  0  0  0  0
   24.8891  -19.4148   -9.8506 C   0  0  1  0  0  0  0  0  0  0  0  0
   24.7326  -20.9141   -9.9631 C   0  0  0  0  0  0  0  0  0  0  0  0
   26.0293  -21.5417  -10.3756 C   0  0  1  0  0  0  0  0  0  0  0  0
   23.6154  -21.1835  -10.9443 N   0  0  0  0  0  0  0  0  0  0  0  0
   23.9480  -20.7388  -12.2844 C   0  0  0  0  0  0  0  0  0  0  0  0
   22.3433  -20.5467  -10.5483 O   0  0  0  0  0  0  0  0  0  0  0  0
   21.5096  -21.1038   -9.5906 O   0  0  0  0  0  0  0  0  0  0  0  0
  2  1  1  0
  3  2  2  0
  4  2  1  0
  5  4  1  0
  5  6  1  0
  7  6  1  0
  7  8  1  0
  8 10  1  0
  8  9  1  1
 10 11  2  0
 12 13  1  0
 14 15  1  6
 14 16  1  0
 14 13  1  0
 16 17  1  1
 17 10  1  0
 18 24  1  0
 18 16  1  0
 19 18  2  0
 21 22  1  6
 21 20  1  0
 23 21  1  0
 23 24  1  6
 25 26  1  0
 25 23  1  0
 27 25  2  0
M  END
$$$$
