RIV.pdb
     RDKit          3D

 27 26  0  0  1  0  0  0  0  0999 V2000
   22.6139  -19.3150  -14.7348 N   0  0  0  0  0  0  0  0  0  0  0  0
   21.5791  -20.2526  -14.4676 C   0  0  0  0  0  0  0  0  0  0  0  0
   21.0119  -20.8249  -15.4906 N   0  0  0  0  0  0  0  0  0  0  0  0
   21.1945  -20.5400  -13.1373 N   0  0  0  0  0  0  0  0  0  0  0  0
   21.9703  -20.1016  -12.0247 C   0  0  0  0  0  0  0  0  0  0  0  0
   23.4417  -19.9708  -12.3495 C   0  0  0  0  0  0  0  0  0  0  0  0
   24.3104  -20.6973  -11.3595 C   0  0  0  0  0  0  0  0  0  0  0  0
   25.6496  -21.0829  -11.9342 C   0  0  2  0  0  0  0  0  0  0  0  0
   25.5526  -22.1124  -12.9461 N   0  0  0  0  0  0  0  0  0  0  0  0
   26.5282  -21.5584  -10.8563 C   0  0  0  0  0  0  0  0  0  0  0  0
   26.3127  -22.6725  -10.3170 O   0  0  0  0  0  0  0  0  0  0  0  0
   20.2817  -21.5401  -15.3984 C   0  0  0  0  0  0  0  0  0  0  0  0
   32.0428  -22.4119   -8.8108 C   0  0  0  0  0  0  0  0  0  0  0  0
   30.6021  -22.1815   -8.5156 C   0  0  2  0  0  0  0  0  0  0  0  0
   29.8426  -21.5452   -9.6469 C   0  0  0  0  0  0  0  0  0  0  0  0
   30.5136  -20.3318  -10.2015 C   0  0  2  0  0  0  0  0  0  0  0  0
   28.4159  -21.3136   -9.2519 N   0  0  0  0  0  0  0  0  0  0  0  0
   27.6422  -20.8271  -10.3610 C   0  0  0  0  0  0  0  0  0  0  0  0
   28.3052  -20.4403   -8.0586 O   0  0  0  0  0  0  0  0  0  0  0  0
   28.1618  -19.2085   -8.2570 C   0  0  0  0  0  0  0  0  0  0  0  0
   26.4676  -21.2259   -4.4881 C   0  0  1  0  0  0  0  0  0  0  0  0
   27.8877  -20.7392   -4.3103 C   0  0  0  0  0  0  0  0  0  0  0  0
   27.9937  -19.8848   -3.0839 C   0  0  2  0  0  0  0  0  0  0  0  0
   28.2783  -20.0026   -5.5706 N   0  0  0  0  0  0  0  0  0  0  0  0
   28.3485  -20.8863   -6.7188 C   0  0  0  0  0  0  0  0  0  0  0  0
   29.5736  -19.3048   -5.4445 O   0  0  0  0  0  0  0  0  0  0  0  0
   29.6728  -18.0319   -4.9036 O   0  0  0  0  0  0  0  0  0  0  0  0
  2  1  1  0
  3  2  2  0
  4  2  1  0
  5  4  1  0
  5  6  1  0
  7  6  1  0
  7  8  1  0
  8 10  1  0
  8  9  1  6
 10 11  2  0
 12 13  1  0
 14 15  1  6
 14 16  1  0
 14 13  1  0
 16 17  1  1
 17 10  1  0
 18 24  1  0
 18 16  1  0
 19 18  2  0
 21 22  1  1
 21 20  1  0
 23 21  1  0
 23 24  1  6
 25 26  1  0
 25 23  1  0
 27 25  2  0
M  END
$$$$
