RIV.pdb
     RDKit          3D

 27 26  0  0  1  0  0  0  0  0999 V2000
   22.8716  -21.6633  -17.8537 N   0  0  0  0  0  0  0  0  0  0  0  0
   22.4568  -21.0174  -19.0504 C   0  0  0  0  0  0  0  0  0  0  0  0
   21.1765  -20.8709  -19.2379 N   0  0  0  0  0  0  0  0  0  0  0  0
   23.4107  -20.5586  -19.9883 N   0  0  0  0  0  0  0  0  0  0  0  0
   24.8080  -20.7607  -19.7915 C   0  0  0  0  0  0  0  0  0  0  0  0
   25.3904  -19.8492  -18.7343 C   0  0  0  0  0  0  0  0  0  0  0  0
   25.6325  -20.5663  -17.4345 C   0  0  0  0  0  0  0  0  0  0  0  0
   27.0985  -20.7599  -17.1416 C   0  0  2  0  0  0  0  0  0  0  0  0
   27.7172  -21.7507  -17.9954 N   0  0  0  0  0  0  0  0  0  0  0  0
   27.2698  -21.1679  -15.7401 C   0  0  0  0  0  0  0  0  0  0  0  0
   26.7683  -22.2463  -15.3351 O   0  0  0  0  0  0  0  0  0  0  0  0
   20.7777  -20.4804  -20.0991 C   0  0  0  0  0  0  0  0  0  0  0  0
   30.6832  -21.8325  -11.0908 C   0  0  0  0  0  0  0  0  0  0  0  0
   29.4735  -21.0198  -11.3946 C   0  0  2  0  0  0  0  0  0  0  0  0
   29.4055  -20.5370  -12.8172 C   0  0  0  0  0  0  0  0  0  0  0  0
   29.8324  -19.1153  -12.9806 C   0  0  2  0  0  0  0  0  0  0  0  0
   28.0578  -20.8294  -13.4031 N   0  0  0  0  0  0  0  0  0  0  0  0
   27.9850  -20.4076  -14.7749 C   0  0  0  0  0  0  0  0  0  0  0  0
   26.9606  -20.2667  -12.5794 O   0  0  0  0  0  0  0  0  0  0  0  0
   26.8604  -19.0159  -12.5292 C   0  0  0  0  0  0  0  0  0  0  0  0
   23.3491  -22.1336  -11.6997 C   0  0  1  0  0  0  0  0  0  0  0  0
   23.6048  -20.6455  -11.6260 C   0  0  0  0  0  0  0  0  0  0  0  0
   23.4736  -20.0286  -12.9853 C   0  0  1  0  0  0  0  0  0  0  0  0
   24.9771  -20.4479  -11.0251 N   0  0  0  0  0  0  0  0  0  0  0  0
   26.0212  -21.0278  -11.8484 C   0  0  0  0  0  0  0  0  0  0  0  0
   25.0912  -21.0151   -9.6664 O   0  0  0  0  0  0  0  0  0  0  0  0
   24.4158  -20.4715   -8.5842 O   0  0  0  0  0  0  0  0  0  0  0  0
  2  1  1  0
  3  2  2  0
  4  2  1  0
  5  4  1  0
  5  6  1  0
  7  6  1  0
  7  8  1  0
  8 10  1  0
  8  9  1  6
 10 11  2  0
 12 13  1  0
 14 15  1  6
 14 16  1  0
 14 13  1  0
 16 17  1  1
 17 10  1  0
 18 24  1  0
 18 16  1  0
 19 18  2  0
 21 22  1  6
 21 20  1  0
 23 21  1  0
 23 24  1  6
 25 26  1  0
 25 23  1  0
 27 25  2  0
M  END
$$$$
