GNT.pdb
     RDKit          3D

 20 19  0  0  1  0  0  0  0  0999 V2000
   17.2653  -10.4833  -17.6170 N   0  0  0  0  0  0  0  0  0  0  0  0
   17.6225   -9.0812  -17.5273 C   0  0  0  0  0  0  0  0  0  0  0  0
   18.7075   -8.8718  -16.5213 C   0  0  0  0  0  0  0  0  0  0  0  0
   18.4684   -8.6165  -15.3216 O   0  0  0  0  0  0  0  0  0  0  0  0
   21.0182  -11.4512  -15.2770 N   0  0  0  0  0  0  0  0  0  0  0  0
   22.2165  -11.0027  -15.9167 C   0  0  0  0  0  0  0  0  0  0  0  0
   23.0955  -11.8649  -16.0996 O   0  0  0  0  0  0  0  0  0  0  0  0
   22.3370   -9.5946  -16.3087 C   0  0  0  0  0  0  0  0  0  0  0  0
   21.1732   -8.7201  -15.9816 C   0  0  2  0  0  0  0  0  0  0  0  0
   20.0634   -8.9620  -16.9239 N   0  0  0  0  0  0  0  0  0  0  0  0
   21.5038   -7.2558  -16.0179 C   0  0  0  0  0  0  0  0  0  0  0  0
   21.9863   -6.6588  -17.0028 O   0  0  0  0  0  0  0  0  0  0  0  0
   19.3998   -4.4260  -16.0832 C   0  0  0  0  0  0  0  0  0  0  0  0
   20.1751   -4.3298  -14.7994 C   0  0  1  0  0  0  0  0  0  0  0  0
   19.4353   -4.7454  -13.6958 O   0  0  0  0  0  0  0  0  0  0  0  0
   21.5257   -5.0248  -14.8819 C   0  0  2  0  0  0  0  0  0  0  0  0
   21.2563   -6.4499  -14.8393 N   0  0  0  0  0  0  0  0  0  0  0  0
   22.2595   -4.6521  -13.6461 C   0  0  0  0  0  0  0  0  0  0  0  0
   22.7518   -3.3689  -13.4344 O   0  0  0  0  0  0  0  0  0  0  0  0
   22.4392   -5.5265  -12.7668 O   0  0  0  0  0  0  0  0  0  0  0  0
  1  2  1  0
  2  3  1  0
  3  4  2  0
  5  6  1  0
  6  8  1  0
  7  6  2  0
  9  8  1  6
 10  9  1  0
 10  3  1  0
 11 12  2  0
 11  9  1  0
 14 13  1  6
 14 16  1  0
 15 14  1  0
 16 17  1  1
 16 18  1  0
 17 11  1  0
 18 19  1  0
 20 18  2  0
M  END
$$$$
