GNT.pdb
     RDKit          3D

 20 19  0  0  1  0  0  0  0  0999 V2000
   16.3347   -8.6860  -19.0582 N   0  0  0  0  0  0  0  0  0  0  0  0
   17.5127   -7.8481  -18.9497 C   0  0  0  0  0  0  0  0  0  0  0  0
   18.0568   -7.8726  -17.5582 C   0  0  0  0  0  0  0  0  0  0  0  0
   17.4129   -7.4376  -16.5795 O   0  0  0  0  0  0  0  0  0  0  0  0
   18.9945  -11.8969  -16.3288 N   0  0  0  0  0  0  0  0  0  0  0  0
   19.2720  -10.8583  -15.3852 C   0  0  0  0  0  0  0  0  0  0  0  0
   18.5630  -10.8440  -14.3621 O   0  0  0  0  0  0  0  0  0  0  0  0
   20.3439   -9.8984  -15.6689 C   0  0  0  0  0  0  0  0  0  0  0  0
   19.9129   -8.4999  -15.9597 C   0  0  2  0  0  0  0  0  0  0  0  0
   19.3486   -8.4048  -17.3200 N   0  0  0  0  0  0  0  0  0  0  0  0
   21.0283   -7.5008  -15.8476 C   0  0  0  0  0  0  0  0  0  0  0  0
   22.1167   -7.5773  -16.4549 O   0  0  0  0  0  0  0  0  0  0  0  0
   20.9962   -3.9909  -16.8322 C   0  0  0  0  0  0  0  0  0  0  0  0
   21.2616   -4.0374  -15.3537 C   0  0  1  0  0  0  0  0  0  0  0  0
   20.1345   -3.7260  -14.5983 O   0  0  0  0  0  0  0  0  0  0  0  0
   21.9026   -5.3465  -14.9186 C   0  0  2  0  0  0  0  0  0  0  0  0
   20.8595   -6.3532  -14.9790 N   0  0  0  0  0  0  0  0  0  0  0  0
   22.2928   -5.1645  -13.4977 C   0  0  0  0  0  0  0  0  0  0  0  0
   23.3356   -4.3273  -13.1164 O   0  0  0  0  0  0  0  0  0  0  0  0
   21.6584   -5.7883  -12.6153 O   0  0  0  0  0  0  0  0  0  0  0  0
  1  2  1  0
  2  3  1  0
  3  4  2  0
  5  6  1  0
  6  8  1  0
  7  6  2  0
  9  8  1  6
 10  9  1  0
 10  3  1  0
 11 12  2  0
 11  9  1  0
 14 13  1  6
 14 16  1  0
 15 14  1  0
 16 17  1  1
 16 18  1  0
 17 11  1  0
 18 19  1  0
 20 18  2  0
M  END
$$$$
