GNT.pdb
     RDKit          3D

 20 19  0  0  1  0  0  0  0  0999 V2000
   15.6791  -11.6729  -12.3010 N   0  0  0  0  0  0  0  0  0  0  0  0
   15.7410  -11.1150  -10.9644 C   0  0  0  0  0  0  0  0  0  0  0  0
   15.7958   -9.6225  -11.0129 C   0  0  0  0  0  0  0  0  0  0  0  0
   15.4870   -8.9738  -12.0355 O   0  0  0  0  0  0  0  0  0  0  0  0
   13.7462   -7.5523   -7.1759 N   0  0  0  0  0  0  0  0  0  0  0  0
   14.2739   -6.9702   -8.3713 C   0  0  0  0  0  0  0  0  0  0  0  0
   13.4372   -6.5525   -9.1928 O   0  0  0  0  0  0  0  0  0  0  0  0
   15.7274   -6.9009   -8.5548 C   0  0  0  0  0  0  0  0  0  0  0  0
   16.2512   -7.4236   -9.8504 C   0  0  2  0  0  0  0  0  0  0  0  0
   16.2109   -8.8988   -9.8672 N   0  0  0  0  0  0  0  0  0  0  0  0
   17.6611   -6.9932  -10.1363 C   0  0  0  0  0  0  0  0  0  0  0  0
   18.5061   -6.6982   -9.2655 O   0  0  0  0  0  0  0  0  0  0  0  0
   20.5623   -8.7379  -11.6044 C   0  0  0  0  0  0  0  0  0  0  0  0
   20.1230   -7.6418  -12.5339 C   0  0  1  0  0  0  0  0  0  0  0  0
   19.3407   -8.1133  -13.5845 O   0  0  0  0  0  0  0  0  0  0  0  0
   19.4629   -6.4851  -11.7987 C   0  0  2  0  0  0  0  0  0  0  0  0
   18.1033   -6.9039  -11.5133 N   0  0  0  0  0  0  0  0  0  0  0  0
   19.4104   -5.3574  -12.7629 C   0  0  0  0  0  0  0  0  0  0  0  0
   20.5356   -4.6086  -13.0902 O   0  0  0  0  0  0  0  0  0  0  0  0
   18.3131   -5.0739  -13.2976 O   0  0  0  0  0  0  0  0  0  0  0  0
  1  2  1  0
  2  3  1  0
  3  4  2  0
  5  6  1  0
  6  8  1  0
  7  6  2  0
  9  8  1  1
 10  9  1  0
 10  3  1  0
 11 12  2  0
 11  9  1  0
 14 13  1  1
 14 16  1  0
 15 14  1  0
 16 17  1  6
 16 18  1  0
 17 11  1  0
 18 19  1  0
 20 18  2  0
M  END
$$$$
