GNT.pdb
     RDKit          3D

 20 19  0  0  1  0  0  0  0  0999 V2000
   14.9569  -13.6520  -13.2719 N   0  0  0  0  0  0  0  0  0  0  0  0
   16.2109  -13.1602  -12.7361 C   0  0  0  0  0  0  0  0  0  0  0  0
   16.3378  -11.6862  -12.9467 C   0  0  0  0  0  0  0  0  0  0  0  0
   16.2611  -11.1623  -14.0787 O   0  0  0  0  0  0  0  0  0  0  0  0
   13.8735   -9.4185  -11.6049 N   0  0  0  0  0  0  0  0  0  0  0  0
   14.6608   -8.7410  -10.6213 C   0  0  0  0  0  0  0  0  0  0  0  0
   14.0353   -8.2411   -9.6683 O   0  0  0  0  0  0  0  0  0  0  0  0
   16.1166   -8.6763  -10.7873 C   0  0  0  0  0  0  0  0  0  0  0  0
   16.6725   -9.3719  -11.9845 C   0  0  2  0  0  0  0  0  0  0  0  0
   16.5536  -10.8352  -11.8341 N   0  0  0  0  0  0  0  0  0  0  0  0
   18.1155   -9.0462  -12.2420 C   0  0  0  0  0  0  0  0  0  0  0  0
   19.0692   -9.4265  -11.5314 O   0  0  0  0  0  0  0  0  0  0  0  0
   21.5713   -8.2606  -15.4651 C   0  0  0  0  0  0  0  0  0  0  0  0
   20.1858   -8.5945  -14.9883 C   0  0  1  0  0  0  0  0  0  0  0  0
   19.9431   -9.9652  -14.9690 O   0  0  0  0  0  0  0  0  0  0  0  0
   19.8521   -7.9320  -13.6602 C   0  0  2  0  0  0  0  0  0  0  0  0
   18.4584   -8.2329  -13.3913 N   0  0  0  0  0  0  0  0  0  0  0  0
   19.9783   -6.4696  -13.8836 C   0  0  0  0  0  0  0  0  0  0  0  0
   21.1279   -5.7643  -13.5450 O   0  0  0  0  0  0  0  0  0  0  0  0
   19.0140   -5.8539  -14.3946 O   0  0  0  0  0  0  0  0  0  0  0  0
  1  2  1  0
  2  3  1  0
  3  4  2  0
  5  6  1  0
  6  8  1  0
  7  6  2  0
  9  8  1  1
 10  9  1  0
 10  3  1  0
 11 12  2  0
 11  9  1  0
 14 13  1  1
 14 16  1  0
 15 14  1  0
 16 17  1  6
 16 18  1  0
 17 11  1  0
 18 19  1  0
 20 18  2  0
M  END
$$$$
