GNT.pdb
     RDKit          3D

 20 19  0  0  1  0  0  0  0  0999 V2000
   16.7737  -13.4454  -15.6781 N   0  0  0  0  0  0  0  0  0  0  0  0
   18.1150  -13.6696  -16.1801 C   0  0  0  0  0  0  0  0  0  0  0  0
   18.6979  -12.4055  -16.7235 C   0  0  0  0  0  0  0  0  0  0  0  0
   19.8924  -12.3179  -17.0805 O   0  0  0  0  0  0  0  0  0  0  0  0
   19.4028   -8.5209  -19.6182 N   0  0  0  0  0  0  0  0  0  0  0  0
   17.9857   -8.7026  -19.5463 C   0  0  0  0  0  0  0  0  0  0  0  0
   17.3210   -8.1961  -20.4689 O   0  0  0  0  0  0  0  0  0  0  0  0
   17.4143   -9.4529  -18.4231 C   0  0  0  0  0  0  0  0  0  0  0  0
   18.3894   -9.9985  -17.4343 C   0  0  2  0  0  0  0  0  0  0  0  0
   17.8819  -11.2531  -16.8458 N   0  0  0  0  0  0  0  0  0  0  0  0
   18.6910   -9.0468  -16.3126 C   0  0  0  0  0  0  0  0  0  0  0  0
   17.8705   -8.6896  -15.4418 O   0  0  0  0  0  0  0  0  0  0  0  0
   21.1847   -9.4626  -13.5559 C   0  0  0  0  0  0  0  0  0  0  0  0
   21.5565   -8.2752  -14.3986 C   0  0  1  0  0  0  0  0  0  0  0  0
   22.5765   -8.5595  -15.3023 O   0  0  0  0  0  0  0  0  0  0  0  0
   20.3501   -7.6399  -15.0733 C   0  0  2  0  0  0  0  0  0  0  0  0
   20.0224   -8.4849  -16.2064 N   0  0  0  0  0  0  0  0  0  0  0  0
   20.8087   -6.3255  -15.5895 C   0  0  0  0  0  0  0  0  0  0  0  0
   21.1165   -5.2638  -14.7457 O   0  0  0  0  0  0  0  0  0  0  0  0
   20.9207   -6.1717  -16.8281 O   0  0  0  0  0  0  0  0  0  0  0  0
  1  2  1  0
  2  3  1  0
  3  4  2  0
  5  6  1  0
  6  8  1  0
  7  6  2  0
  9  8  1  6
 10  9  1  0
 10  3  1  0
 11 12  2  0
 11  9  1  0
 14 13  1  6
 14 16  1  0
 15 14  1  0
 16 17  1  6
 16 18  1  0
 17 11  1  0
 18 19  1  0
 20 18  2  0
M  END
$$$$
