GNT.pdb
     RDKit          3D

 20 19  0  0  1  0  0  0  0  0999 V2000
   20.3127  -12.1029  -19.1177 N   0  0  0  0  0  0  0  0  0  0  0  0
   21.3305  -11.2488  -18.5381 C   0  0  0  0  0  0  0  0  0  0  0  0
   20.7137  -10.1960  -17.6755 C   0  0  0  0  0  0  0  0  0  0  0  0
   19.8269   -9.4216  -18.0946 O   0  0  0  0  0  0  0  0  0  0  0  0
   17.9373  -10.2780  -15.6081 N   0  0  0  0  0  0  0  0  0  0  0  0
   18.6333  -10.4196  -14.3665 C   0  0  0  0  0  0  0  0  0  0  0  0
   18.0491  -11.0726  -13.4824 O   0  0  0  0  0  0  0  0  0  0  0  0
   19.9561   -9.8055  -14.2111 C   0  0  0  0  0  0  0  0  0  0  0  0
   20.4960   -9.0975  -15.4083 C   0  0  2  0  0  0  0  0  0  0  0  0
   21.1370  -10.0553  -16.3302 N   0  0  0  0  0  0  0  0  0  0  0  0
   21.5022   -8.0368  -15.0657 C   0  0  0  0  0  0  0  0  0  0  0  0
   22.6698   -8.2597  -14.6833 O   0  0  0  0  0  0  0  0  0  0  0  0
   21.9121   -4.5699  -17.1964 C   0  0  0  0  0  0  0  0  0  0  0  0
   21.6781   -4.3948  -15.7223 C   0  0  1  0  0  0  0  0  0  0  0  0
   20.3746   -4.0025  -15.4309 O   0  0  0  0  0  0  0  0  0  0  0  0
   22.1068   -5.6118  -14.9165 C   0  0  2  0  0  0  0  0  0  0  0  0
   21.1202   -6.6435  -15.1766 N   0  0  0  0  0  0  0  0  0  0  0  0
   22.0054   -5.2197  -13.4882 C   0  0  0  0  0  0  0  0  0  0  0  0
   22.8548   -4.2794  -12.9153 O   0  0  0  0  0  0  0  0  0  0  0  0
   21.1233   -5.7566  -12.7783 O   0  0  0  0  0  0  0  0  0  0  0  0
  1  2  1  0
  2  3  1  0
  3  4  2  0
  5  6  1  0
  6  8  1  0
  7  6  2  0
  9  8  1  1
 10  9  1  0
 10  3  1  0
 11 12  2  0
 11  9  1  0
 14 13  1  6
 14 16  1  0
 15 14  1  0
 16 17  1  1
 16 18  1  0
 17 11  1  0
 18 19  1  0
 20 18  2  0
M  END
$$$$
