GNT.pdb
     RDKit          3D

 20 19  0  0  1  0  0  0  0  0999 V2000
   22.0723  -10.8395  -19.7206 N   0  0  0  0  0  0  0  0  0  0  0  0
   21.9389   -9.3964  -19.7510 C   0  0  0  0  0  0  0  0  0  0  0  0
   21.5245   -8.8721  -18.4145 C   0  0  0  0  0  0  0  0  0  0  0  0
   20.3334   -8.6172  -18.1349 O   0  0  0  0  0  0  0  0  0  0  0  0
   22.7897  -11.7507  -15.5393 N   0  0  0  0  0  0  0  0  0  0  0  0
   22.0158  -10.6208  -15.1262 C   0  0  0  0  0  0  0  0  0  0  0  0
   20.8264  -10.8475  -14.8374 O   0  0  0  0  0  0  0  0  0  0  0  0
   22.6493   -9.2993  -15.0685 C   0  0  0  0  0  0  0  0  0  0  0  0
   22.1368   -8.2828  -16.0329 C   0  0  2  0  0  0  0  0  0  0  0  0
   22.5039   -8.6493  -17.4145 N   0  0  0  0  0  0  0  0  0  0  0  0
   22.6540   -6.8986  -15.7655 C   0  0  0  0  0  0  0  0  0  0  0  0
   23.8374   -6.5363  -15.9308 O   0  0  0  0  0  0  0  0  0  0  0  0
   19.7676   -3.9535  -15.3917 C   0  0  0  0  0  0  0  0  0  0  0  0
   21.1752   -3.6366  -15.8118 C   0  0  1  0  0  0  0  0  0  0  0  0
   21.4782   -2.2835  -15.6879 O   0  0  0  0  0  0  0  0  0  0  0  0
   22.2017   -4.5219  -15.1213 C   0  0  2  0  0  0  0  0  0  0  0  0
   21.7371   -5.8874  -15.2791 N   0  0  0  0  0  0  0  0  0  0  0  0
   22.1453   -4.1743  -13.6790 C   0  0  0  0  0  0  0  0  0  0  0  0
   22.5895   -2.9492  -13.1935 O   0  0  0  0  0  0  0  0  0  0  0  0
   21.6811   -5.0161  -12.8753 O   0  0  0  0  0  0  0  0  0  0  0  0
  1  2  1  0
  2  3  1  0
  3  4  2  0
  5  6  1  0
  6  8  1  0
  7  6  2  0
  9  8  1  1
 10  9  1  0
 10  3  1  0
 11 12  2  0
 11  9  1  0
 14 13  1  1
 14 16  1  0
 15 14  1  0
 16 17  1  1
 16 18  1  0
 17 11  1  0
 18 19  1  0
 20 18  2  0
M  END
$$$$
