GNT.pdb
     RDKit          3D

 20 19  0  0  1  0  0  0  0  0999 V2000
   32.3483  -25.3315  -16.8277 N   0  0  0  0  0  0  0  0  0  0  0  0
   31.1241  -25.3626  -16.0519 C   0  0  0  0  0  0  0  0  0  0  0  0
   30.0132  -24.6817  -16.7834 C   0  0  0  0  0  0  0  0  0  0  0  0
   29.8692  -24.7764  -18.0212 O   0  0  0  0  0  0  0  0  0  0  0  0
   27.1408  -26.1431  -16.9810 N   0  0  0  0  0  0  0  0  0  0  0  0
   26.3401  -25.3566  -16.0942 C   0  0  0  0  0  0  0  0  0  0  0  0
   25.4166  -25.9556  -15.5131 O   0  0  0  0  0  0  0  0  0  0  0  0
   26.6443  -23.9317  -15.9255 C   0  0  0  0  0  0  0  0  0  0  0  0
   27.8250  -23.4187  -16.6798 C   0  0  2  0  0  0  0  0  0  0  0  0
   29.0788  -23.8952  -16.0643 N   0  0  0  0  0  0  0  0  0  0  0  0
   27.8796  -21.9196  -16.7465 C   0  0  0  0  0  0  0  0  0  0  0  0
   27.9047  -21.1630  -15.7535 O   0  0  0  0  0  0  0  0  0  0  0  0
   30.4782  -19.7179  -18.5960 C   0  0  0  0  0  0  0  0  0  0  0  0
   29.0925  -19.5303  -19.1465 C   0  0  1  0  0  0  0  0  0  0  0  0
   28.8920  -20.2231  -20.3372 O   0  0  0  0  0  0  0  0  0  0  0  0
   28.0124  -19.8290  -18.1177 C   0  0  2  0  0  0  0  0  0  0  0  0
   27.9058  -21.2742  -18.0436 N   0  0  0  0  0  0  0  0  0  0  0  0
   26.7458  -19.2967  -18.6805 C   0  0  0  0  0  0  0  0  0  0  0  0
   25.7018  -20.1272  -19.0728 O   0  0  0  0  0  0  0  0  0  0  0  0
   26.6173  -18.0564  -18.8044 O   0  0  0  0  0  0  0  0  0  0  0  0
  1  2  1  0
  2  3  1  0
  3  4  2  0
  5  6  1  0
  6  8  1  0
  7  6  2  0
  9  8  1  1
 10  9  1  0
 10  3  1  0
 11 12  2  0
 11  9  1  0
 14 13  1  1
 14 16  1  0
 15 14  1  0
 16 17  1  6
 16 18  1  0
 17 11  1  0
 18 19  1  0
 20 18  2  0
M  END
$$$$
