GNT.pdb
     RDKit          3D

 20 19  0  0  1  0  0  0  0  0999 V2000
   19.2499  -20.0107  -14.2619 N   0  0  0  0  0  0  0  0  0  0  0  0
   19.9295  -20.8177  -13.2678 C   0  0  0  0  0  0  0  0  0  0  0  0
   21.3723  -20.4408  -13.1723 C   0  0  0  0  0  0  0  0  0  0  0  0
   21.8462  -19.4487  -13.7664 O   0  0  0  0  0  0  0  0  0  0  0  0
   26.4217  -20.4793  -11.6960 N   0  0  0  0  0  0  0  0  0  0  0  0
   25.6108  -21.0235  -10.6509 C   0  0  0  0  0  0  0  0  0  0  0  0
   26.1864  -21.2442   -9.5695 O   0  0  0  0  0  0  0  0  0  0  0  0
   24.1899  -21.2825  -10.9059 C   0  0  0  0  0  0  0  0  0  0  0  0
   23.6843  -20.8978  -12.2559 C   0  0  2  0  0  0  0  0  0  0  0  0
   22.2510  -21.2253  -12.3841 N   0  0  0  0  0  0  0  0  0  0  0  0
   24.4184  -21.5735  -13.3781 C   0  0  0  0  0  0  0  0  0  0  0  0
   24.4970  -22.8098  -13.5351 O   0  0  0  0  0  0  0  0  0  0  0  0
   24.3569  -20.4410  -17.3280 C   0  0  0  0  0  0  0  0  0  0  0  0
   25.6959  -20.4258  -16.6458 C   0  0  1  0  0  0  0  0  0  0  0  0
   26.0965  -19.1428  -16.2834 O   0  0  0  0  0  0  0  0  0  0  0  0
   25.7664  -21.4015  -15.4808 C   0  0  2  0  0  0  0  0  0  0  0  0
   25.0951  -20.7585  -14.3668 N   0  0  0  0  0  0  0  0  0  0  0  0
   27.2054  -21.5383  -15.1416 C   0  0  0  0  0  0  0  0  0  0  0  0
   28.0948  -22.2370  -15.9507 O   0  0  0  0  0  0  0  0  0  0  0  0
   27.6286  -21.0048  -14.0898 O   0  0  0  0  0  0  0  0  0  0  0  0
  1  2  1  0
  2  3  1  0
  3  4  2  0
  5  6  1  0
  6  8  1  0
  7  6  2  0
  9  8  1  1
 10  9  1  0
 10  3  1  0
 11 12  2  0
 11  9  1  0
 14 13  1  1
 14 16  1  0
 15 14  1  0
 16 17  1  1
 16 18  1  0
 17 11  1  0
 18 19  1  0
 20 18  2  0
M  END
$$$$
