GNT.pdb
     RDKit          3D

 20 19  0  0  1  0  0  0  0  0999 V2000
   21.8816  -12.3383  -17.7025 N   0  0  0  0  0  0  0  0  0  0  0  0
   21.2730  -11.1503  -18.2679 C   0  0  0  0  0  0  0  0  0  0  0  0
   20.7066  -10.2799  -17.1933 C   0  0  0  0  0  0  0  0  0  0  0  0
   19.6512  -10.5646  -16.5875 O   0  0  0  0  0  0  0  0  0  0  0  0
   19.6866   -7.0990  -13.4325 N   0  0  0  0  0  0  0  0  0  0  0  0
   20.0762   -8.4728  -13.3484 C   0  0  0  0  0  0  0  0  0  0  0  0
   19.7510   -9.0716  -12.3066 O   0  0  0  0  0  0  0  0  0  0  0  0
   20.8145   -9.0790  -14.4612 C   0  0  0  0  0  0  0  0  0  0  0  0
   20.9321   -8.2531  -15.6983 C   0  0  2  0  0  0  0  0  0  0  0  0
   21.3765   -9.0837  -16.8344 N   0  0  0  0  0  0  0  0  0  0  0  0
   21.8917   -7.1069  -15.5563 C   0  0  0  0  0  0  0  0  0  0  0  0
   23.1268   -7.2253  -15.4159 O   0  0  0  0  0  0  0  0  0  0  0  0
   20.5951   -3.5529  -17.0322 C   0  0  0  0  0  0  0  0  0  0  0  0
   22.0550   -3.8281  -16.8056 C   0  0  1  0  0  0  0  0  0  0  0  0
   22.8304   -2.6729  -16.8533 O   0  0  0  0  0  0  0  0  0  0  0  0
   22.3053   -4.6377  -15.5423 C   0  0  2  0  0  0  0  0  0  0  0  0
   21.3773   -5.7524  -15.5797 N   0  0  0  0  0  0  0  0  0  0  0  0
   21.9315   -3.7582  -14.4059 C   0  0  0  0  0  0  0  0  0  0  0  0
   22.7022   -2.6630  -14.0312 O   0  0  0  0  0  0  0  0  0  0  0  0
   20.8856   -4.0151  -13.7655 O   0  0  0  0  0  0  0  0  0  0  0  0
  1  2  1  0
  2  3  1  0
  3  4  2  0
  5  6  1  0
  6  8  1  0
  7  6  2  0
  9  8  1  1
 10  9  1  0
 10  3  1  0
 11 12  2  0
 11  9  1  0
 14 13  1  1
 14 16  1  0
 15 14  1  0
 16 17  1  6
 16 18  1  0
 17 11  1  0
 18 19  1  0
 20 18  2  0
M  END
$$$$
