GNT.pdb
     RDKit          3D

 20 19  0  0  1  0  0  0  0  0999 V2000
   12.5830  -12.6564  -11.3207 N   0  0  0  0  0  0  0  0  0  0  0  0
   12.2307  -11.2887  -10.9942 C   0  0  0  0  0  0  0  0  0  0  0  0
   13.4549  -10.4690  -10.7441 C   0  0  0  0  0  0  0  0  0  0  0  0
   13.8715  -10.2217   -9.5922 O   0  0  0  0  0  0  0  0  0  0  0  0
   16.7369  -11.5786  -12.2416 N   0  0  0  0  0  0  0  0  0  0  0  0
   16.8952  -10.4985  -13.1660 C   0  0  0  0  0  0  0  0  0  0  0  0
   17.5760  -10.7404  -14.1797 O   0  0  0  0  0  0  0  0  0  0  0  0
   16.2649   -9.2065  -12.8751 C   0  0  0  0  0  0  0  0  0  0  0  0
   15.4138   -9.1521  -11.6509 C   0  0  2  0  0  0  0  0  0  0  0  0
   14.1832   -9.9444  -11.8409 N   0  0  0  0  0  0  0  0  0  0  0  0
   15.0141   -7.7560  -11.2688 C   0  0  0  0  0  0  0  0  0  0  0  0
   14.1477   -7.0768  -11.8580 O   0  0  0  0  0  0  0  0  0  0  0  0
   13.6650   -6.4108   -7.9417 C   0  0  0  0  0  0  0  0  0  0  0  0
   15.0048   -5.8117   -8.2646 C   0  0  1  0  0  0  0  0  0  0  0  0
   16.0421   -6.4063   -7.5514 O   0  0  0  0  0  0  0  0  0  0  0  0
   15.2810   -5.7759   -9.7601 C   0  0  2  0  0  0  0  0  0  0  0  0
   15.6635   -7.1234  -10.1384 N   0  0  0  0  0  0  0  0  0  0  0  0
   16.4575   -4.8889   -9.9430 C   0  0  0  0  0  0  0  0  0  0  0  0
   16.3897   -3.5153   -9.7373 O   0  0  0  0  0  0  0  0  0  0  0  0
   17.5465   -5.3994  -10.2947 O   0  0  0  0  0  0  0  0  0  0  0  0
  1  2  1  0
  2  3  1  0
  3  4  2  0
  5  6  1  0
  6  8  1  0
  7  6  2  0
  9  8  1  6
 10  9  1  0
 10  3  1  0
 11 12  2  0
 11  9  1  0
 14 13  1  6
 14 16  1  0
 15 14  1  0
 16 17  1  1
 16 18  1  0
 17 11  1  0
 18 19  1  0
 20 18  2  0
M  END
$$$$
