FQH.pdb
     RDKit          3D

 31 32  0  0  1  0  0  0  0  0999 V2000
   28.0275  -20.1400  -13.6389 N   0  0  0  0  0  0  0  0  0  0  0  0
   27.0743  -20.7072  -12.6915 C   0  0  1  0  0  0  0  0  0  0  0  0
   27.4708  -20.3280  -11.2584 C   0  0  0  0  0  0  0  0  0  0  0  0
   28.7491  -21.0278  -10.9881 C   0  0  0  0  0  0  0  0  0  0  0  0
   28.7784  -22.3338  -10.5498 C   0  0  0  0  0  0  0  0  0  0  0  0
   29.9780  -22.9907  -10.2961 C   0  0  0  0  0  0  0  0  0  0  0  0
   31.1843  -22.3521  -10.4762 C   0  0  0  0  0  0  0  0  0  0  0  0
   31.1603  -21.0459  -10.9144 C   0  0  0  0  0  0  0  0  0  0  0  0
   29.9537  -20.3882  -11.1686 C   0  0  0  0  0  0  0  0  0  0  0  0
   25.6885  -20.2637  -12.9957 C   0  0  0  0  0  0  0  0  0  0  0  0
   25.4102  -19.0630  -12.8004 O   0  0  0  0  0  0  0  0  0  0  0  0
   21.9980  -18.9342  -17.1268 N   0  0  0  0  0  0  0  0  0  0  0  0
   23.3653  -18.7350  -16.8189 C   0  0  0  0  0  0  0  0  0  0  0  0
   24.0141  -17.8944  -17.4787 O   0  0  0  0  0  0  0  0  0  0  0  0
   24.0140  -19.5062  -15.7377 C   0  0  0  0  0  0  0  0  0  0  0  0
   23.0138  -20.4150  -15.1174 C   0  0  0  0  0  0  0  0  0  0  0  0
   23.3125  -20.7624  -13.6815 C   0  0  2  0  0  0  0  0  0  0  0  0
   24.6953  -21.1509  -13.4916 N   0  0  0  0  0  0  0  0  0  0  0  0
   22.3955  -21.7638  -13.1260 C   0  0  0  0  0  0  0  0  0  0  0  0
   22.3626  -22.9287  -13.5963 O   0  0  0  0  0  0  0  0  0  0  0  0
   21.5153  -21.4736  -12.0495 N   0  0  0  0  0  0  0  0  0  0  0  0
   20.6249  -22.4579  -11.4744 C   0  0  1  0  0  0  0  0  0  0  0  0
   20.4369  -22.1023   -9.9945 C   0  0  0  0  0  0  0  0  0  0  0  0
   19.5663  -23.0574   -9.3019 C   0  0  0  0  0  0  0  0  0  0  0  0
   19.0209  -24.1977   -9.8372 C   0  0  0  0  0  0  0  0  0  0  0  0
   18.2932  -24.7744   -8.8619 N   0  0  0  0  0  0  0  0  0  0  0  0
   18.3818  -24.0177   -7.7528 C   0  0  0  0  0  0  0  0  0  0  0  0
   19.1643  -22.9567   -8.0131 N   0  0  0  0  0  0  0  0  0  0  0  0
   19.3339  -22.4677  -12.1854 C   0  0  0  0  0  0  0  0  0  0  0  0
   18.7634  -21.4002  -12.5278 O   0  0  0  0  0  0  0  0  0  0  0  0
   18.7343  -23.6795  -12.4838 O   0  0  0  0  0  0  0  0  0  0  0  0
  2  1  1  6
  2 10  1  0
  2  3  1  0
  3  4  1  0
  4  5  2  0
  5  6  1  0
  7  6  2  0
  8  7  1  0
  9  4  1  0
  9  8  2  0
 10 18  1  0
 11 10  2  0
 13 15  1  0
 13 12  1  0
 14 13  2  0
 16 15  1  0
 17 16  1  6
 18 17  1  0
 19 20  2  0
 19 17  1  0
 21 19  1  0
 22 29  1  0
 22 21  1  0
 22 23  1  1
 24 23  1  0
 25 24  2  0
 26 27  1  0
 26 25  1  0
 27 28  2  0
 28 24  1  0
 29 31  1  0
 30 29  2  0
M  END
$$$$
