FQH.pdb
     RDKit          3D

 31 32  0  0  1  0  0  0  0  0999 V2000
   28.4413  -21.4853  -15.9928 N   0  0  0  0  0  0  0  0  0  0  0  0
   27.8105  -20.3649  -15.3038 C   0  0  1  0  0  0  0  0  0  0  0  0
   27.2211  -19.3850  -16.3272 C   0  0  0  0  0  0  0  0  0  0  0  0
   28.3782  -18.7133  -16.9650 C   0  0  0  0  0  0  0  0  0  0  0  0
   28.9720  -17.6063  -16.3990 C   0  0  0  0  0  0  0  0  0  0  0  0
   30.0580  -16.9758  -16.9974 C   0  0  0  0  0  0  0  0  0  0  0  0
   30.5787  -17.4411  -18.1839 C   0  0  0  0  0  0  0  0  0  0  0  0
   29.9882  -18.5481  -18.7539 C   0  0  0  0  0  0  0  0  0  0  0  0
   28.8973  -19.1797  -18.1507 C   0  0  0  0  0  0  0  0  0  0  0  0
   26.7668  -20.8375  -14.3567 C   0  0  0  0  0  0  0  0  0  0  0  0
   26.2343  -21.9421  -14.5880 O   0  0  0  0  0  0  0  0  0  0  0  0
   25.0372  -20.9218   -8.5376 N   0  0  0  0  0  0  0  0  0  0  0  0
   26.3756  -20.7175   -8.9514 C   0  0  0  0  0  0  0  0  0  0  0  0
   27.3008  -21.0327   -8.1720 O   0  0  0  0  0  0  0  0  0  0  0  0
   26.6736  -20.1423  -10.2799 C   0  0  0  0  0  0  0  0  0  0  0  0
   25.3968  -19.8464  -10.9822 C   0  0  0  0  0  0  0  0  0  0  0  0
   25.2876  -20.4829  -12.3441 C   0  0  2  0  0  0  0  0  0  0  0  0
   26.3689  -20.0816  -13.2210 N   0  0  0  0  0  0  0  0  0  0  0  0
   23.9810  -20.2732  -12.9773 C   0  0  0  0  0  0  0  0  0  0  0  0
   23.6633  -19.1425  -13.4246 O   0  0  0  0  0  0  0  0  0  0  0  0
   23.0270  -21.3166  -13.1146 N   0  0  0  0  0  0  0  0  0  0  0  0
   21.7053  -21.1069  -13.6637 C   0  0  1  0  0  0  0  0  0  0  0  0
   21.4768  -22.1756  -14.7395 C   0  0  0  0  0  0  0  0  0  0  0  0
   22.0838  -21.8082  -16.0227 C   0  0  0  0  0  0  0  0  0  0  0  0
   22.7228  -20.6283  -16.3124 C   0  0  0  0  0  0  0  0  0  0  0  0
   23.1243  -20.7097  -17.5952 N   0  0  0  0  0  0  0  0  0  0  0  0
   22.7476  -21.9027  -18.0903 C   0  0  0  0  0  0  0  0  0  0  0  0
   22.1053  -22.5879  -17.1292 N   0  0  0  0  0  0  0  0  0  0  0  0
   20.6839  -21.1938  -12.6047 C   0  0  0  0  0  0  0  0  0  0  0  0
   19.5748  -20.6099  -12.7109 O   0  0  0  0  0  0  0  0  0  0  0  0
   20.9503  -21.9353  -11.4660 O   0  0  0  0  0  0  0  0  0  0  0  0
  2  1  1  6
  2 10  1  0
  2  3  1  0
  3  4  1  0
  4  5  2  0
  5  6  1  0
  7  6  2  0
  8  7  1  0
  9  4  1  0
  9  8  2  0
 10 18  1  0
 11 10  2  0
 13 15  1  0
 13 12  1  0
 14 13  2  0
 16 15  1  0
 17 16  1  1
 18 17  1  0
 19 20  2  0
 19 17  1  0
 21 19  1  0
 22 29  1  0
 22 21  1  0
 22 23  1  6
 24 23  1  0
 25 24  2  0
 26 27  1  0
 26 25  1  0
 27 28  2  0
 28 24  1  0
 29 31  1  0
 30 29  2  0
M  END
$$$$
