FQH.pdb
     RDKit          3D

 31 32  0  0  1  0  0  0  0  0999 V2000
   33.3251  -36.0907   -4.2583 N   0  0  0  0  0  0  0  0  0  0  0  0
   32.8416  -35.6926   -2.9408 C   0  0  1  0  0  0  0  0  0  0  0  0
   33.7681  -34.6254   -2.3429 C   0  0  0  0  0  0  0  0  0  0  0  0
   34.9926  -35.3406   -1.9118 C   0  0  0  0  0  0  0  0  0  0  0  0
   36.0413  -35.5627   -2.7773 C   0  0  0  0  0  0  0  0  0  0  0  0
   37.1906  -36.2340   -2.3727 C   0  0  0  0  0  0  0  0  0  0  0  0
   37.3182  -36.7018   -1.0842 C   0  0  0  0  0  0  0  0  0  0  0  0
   36.2719  -36.4821   -0.2147 C   0  0  0  0  0  0  0  0  0  0  0  0
   35.1184  -35.8075   -0.6237 C   0  0  0  0  0  0  0  0  0  0  0  0
   31.4399  -35.2028   -3.0102 C   0  0  0  0  0  0  0  0  0  0  0  0
   30.9666  -34.9641   -4.1399 O   0  0  0  0  0  0  0  0  0  0  0  0
   27.0572  -33.9178   -5.0887 N   0  0  0  0  0  0  0  0  0  0  0  0
   26.8157  -33.9579   -3.6943 C   0  0  0  0  0  0  0  0  0  0  0  0
   26.4273  -32.9170   -3.1210 O   0  0  0  0  0  0  0  0  0  0  0  0
   27.0189  -35.2068   -2.9304 C   0  0  0  0  0  0  0  0  0  0  0  0
   28.4729  -35.5128   -2.8714 C   0  0  0  0  0  0  0  0  0  0  0  0
   29.2406  -34.6454   -1.9071 C   0  0  2  0  0  0  0  0  0  0  0  0
   30.6433  -35.0038   -1.8503 N   0  0  0  0  0  0  0  0  0  0  0  0
   28.6455  -34.6038   -0.5669 C   0  0  0  0  0  0  0  0  0  0  0  0
   28.5657  -35.6478    0.1280 O   0  0  0  0  0  0  0  0  0  0  0  0
   28.1391  -33.4050    0.0026 N   0  0  0  0  0  0  0  0  0  0  0  0
   27.6220  -33.3323    1.3516 C   0  0  1  0  0  0  0  0  0  0  0  0
   27.3686  -31.8537    1.6704 C   0  0  0  0  0  0  0  0  0  0  0  0
   26.8492  -31.6612    3.0280 C   0  0  0  0  0  0  0  0  0  0  0  0
   26.6342  -32.6422    3.9637 C   0  0  0  0  0  0  0  0  0  0  0  0
   26.1549  -32.0307    5.0635 N   0  0  0  0  0  0  0  0  0  0  0  0
   26.0734  -30.7096    4.8217 C   0  0  0  0  0  0  0  0  0  0  0  0
   26.4990  -30.4709    3.5696 N   0  0  0  0  0  0  0  0  0  0  0  0
   26.3832  -34.1211    1.4755 C   0  0  0  0  0  0  0  0  0  0  0  0
   25.5720  -34.2265    0.5198 O   0  0  0  0  0  0  0  0  0  0  0  0
   26.1047  -34.7614    2.6712 O   0  0  0  0  0  0  0  0  0  0  0  0
  2  1  1  6
  2 10  1  0
  2  3  1  0
  3  4  1  0
  4  5  2  0
  5  6  1  0
  7  6  2  0
  8  7  1  0
  9  4  1  0
  9  8  2  0
 10 18  1  0
 11 10  2  0
 13 15  1  0
 13 12  1  0
 14 13  2  0
 16 15  1  0
 17 16  1  6
 18 17  1  0
 19 20  2  0
 19 17  1  0
 21 19  1  0
 22 29  1  0
 22 21  1  0
 22 23  1  6
 24 23  1  0
 25 24  2  0
 26 27  1  0
 26 25  1  0
 27 28  2  0
 28 24  1  0
 29 31  1  0
 30 29  2  0
M  END
$$$$
