FQH.pdb
     RDKit          3D

 31 32  0  0  1  0  0  0  0  0999 V2000
   24.8825  -19.6856   -7.6615 N   0  0  0  0  0  0  0  0  0  0  0  0
   26.0558  -19.9897   -8.4734 C   0  0  1  0  0  0  0  0  0  0  0  0
   26.8387  -21.1521   -7.8483 C   0  0  0  0  0  0  0  0  0  0  0  0
   27.6026  -20.5712   -6.7188 C   0  0  0  0  0  0  0  0  0  0  0  0
   28.7873  -19.8970   -6.9197 C   0  0  0  0  0  0  0  0  0  0  0  0
   29.5044  -19.3518   -5.8597 C   0  0  0  0  0  0  0  0  0  0  0  0
   29.0500  -19.4692   -4.5654 C   0  0  0  0  0  0  0  0  0  0  0  0
   27.8655  -20.1427   -4.3594 C   0  0  0  0  0  0  0  0  0  0  0  0
   27.1470  -20.6895   -5.4260 C   0  0  0  0  0  0  0  0  0  0  0  0
   25.6713  -20.2994   -9.8755 C   0  0  0  0  0  0  0  0  0  0  0  0
   24.4689  -20.1756  -10.1855 O   0  0  0  0  0  0  0  0  0  0  0  0
   29.8237  -21.6381  -14.4711 N   0  0  0  0  0  0  0  0  0  0  0  0
   28.7244  -21.1473  -15.2160 C   0  0  0  0  0  0  0  0  0  0  0  0
   28.8214  -21.0846  -16.4608 O   0  0  0  0  0  0  0  0  0  0  0  0
   27.4851  -20.7171  -14.5351 C   0  0  0  0  0  0  0  0  0  0  0  0
   27.6326  -20.9302  -13.0708 C   0  0  0  0  0  0  0  0  0  0  0  0
   26.4069  -20.5630  -12.2741 C   0  0  2  0  0  0  0  0  0  0  0  0
   26.6154  -20.7232  -10.8493 N   0  0  0  0  0  0  0  0  0  0  0  0
   25.1970  -21.2636  -12.7187 C   0  0  0  0  0  0  0  0  0  0  0  0
   25.0775  -22.5025  -12.5452 O   0  0  0  0  0  0  0  0  0  0  0  0
   24.1201  -20.5907  -13.3553 N   0  0  0  0  0  0  0  0  0  0  0  0
   22.9942  -21.2855  -13.9400 C   0  0  1  0  0  0  0  0  0  0  0  0
   21.8048  -20.3174  -13.9435 C   0  0  0  0  0  0  0  0  0  0  0  0
   21.1239  -20.2722  -12.6457 C   0  0  0  0  0  0  0  0  0  0  0  0
   21.4130  -21.0437  -11.5478 C   0  0  0  0  0  0  0  0  0  0  0  0
   20.5511  -20.6788  -10.5796 N   0  0  0  0  0  0  0  0  0  0  0  0
   19.7495  -19.7101  -11.0584 C   0  0  0  0  0  0  0  0  0  0  0  0
   20.0940  -19.4517  -12.3313 N   0  0  0  0  0  0  0  0  0  0  0  0
   23.3152  -21.7357  -15.3062 C   0  0  0  0  0  0  0  0  0  0  0  0
   24.3362  -21.3210  -15.9127 O   0  0  0  0  0  0  0  0  0  0  0  0
   22.4739  -22.6361  -15.9378 O   0  0  0  0  0  0  0  0  0  0  0  0
  2  1  1  1
  2 10  1  0
  2  3  1  0
  3  4  1  0
  4  5  2  0
  5  6  1  0
  7  6  2  0
  8  7  1  0
  9  4  1  0
  9  8  2  0
 10 18  1  0
 11 10  2  0
 13 15  1  0
 13 12  1  0
 14 13  2  0
 16 15  1  0
 17 16  1  6
 18 17  1  0
 19 20  2  0
 19 17  1  0
 21 19  1  0
 22 29  1  0
 22 21  1  0
 22 23  1  6
 24 23  1  0
 25 24  2  0
 26 27  1  0
 26 25  1  0
 27 28  2  0
 28 24  1  0
 29 31  1  0
 30 29  2  0
M  END
$$$$
