FQH.pdb
     RDKit          3D

 31 32  0  0  1  0  0  0  0  0999 V2000
   26.6415  -18.6144  -16.7609 N   0  0  0  0  0  0  0  0  0  0  0  0
   25.9867  -18.1909  -15.5280 C   0  0  1  0  0  0  0  0  0  0  0  0
   25.0657  -16.9958  -15.8076 C   0  0  0  0  0  0  0  0  0  0  0  0
   25.9590  -15.8425  -16.0698 C   0  0  0  0  0  0  0  0  0  0  0  0
   26.6882  -15.2505  -15.0617 C   0  0  0  0  0  0  0  0  0  0  0  0
   27.5266  -14.1681  -15.3076 C   0  0  0  0  0  0  0  0  0  0  0  0
   27.6559  -13.6493  -16.5763 C   0  0  0  0  0  0  0  0  0  0  0  0
   26.9287  -14.2380  -17.5880 C   0  0  0  0  0  0  0  0  0  0  0  0
   26.0871  -15.3253  -17.3382 C   0  0  0  0  0  0  0  0  0  0  0  0
   25.2315  -19.3123  -14.9101 C   0  0  0  0  0  0  0  0  0  0  0  0
   24.7404  -20.1682  -15.6740 O   0  0  0  0  0  0  0  0  0  0  0  0
   25.7878  -21.2362   -8.9965 N   0  0  0  0  0  0  0  0  0  0  0  0
   26.7405  -21.3180  -10.0406 C   0  0  0  0  0  0  0  0  0  0  0  0
   27.9261  -21.5908   -9.7529 O   0  0  0  0  0  0  0  0  0  0  0  0
   26.3410  -21.0852  -11.4444 C   0  0  0  0  0  0  0  0  0  0  0  0
   24.8766  -20.8335  -11.5008 C   0  0  0  0  0  0  0  0  0  0  0  0
   24.3604  -20.5412  -12.8865 C   0  0  2  0  0  0  0  0  0  0  0  0
   25.0583  -19.4322  -13.5048 N   0  0  0  0  0  0  0  0  0  0  0  0
   22.9067  -20.3502  -12.9337 C   0  0  0  0  0  0  0  0  0  0  0  0
   22.3832  -19.3168  -12.4465 O   0  0  0  0  0  0  0  0  0  0  0  0
   22.0337  -21.3047  -13.5208 N   0  0  0  0  0  0  0  0  0  0  0  0
   20.6018  -21.1161  -13.6013 C   0  0  1  0  0  0  0  0  0  0  0  0
   20.1925  -21.3047  -15.0672 C   0  0  0  0  0  0  0  0  0  0  0  0
   20.5838  -20.1648  -15.9024 C   0  0  0  0  0  0  0  0  0  0  0  0
   20.9144  -18.9079  -15.4606 C   0  0  0  0  0  0  0  0  0  0  0  0
   21.2066  -18.1772  -16.5533 N   0  0  0  0  0  0  0  0  0  0  0  0
   21.0628  -18.9538  -17.6427 C   0  0  0  0  0  0  0  0  0  0  0  0
   20.6792  -20.1812  -17.2527 N   0  0  0  0  0  0  0  0  0  0  0  0
   19.9023  -22.0754  -12.7281 C   0  0  0  0  0  0  0  0  0  0  0  0
   20.4335  -23.1639  -12.3880 O   0  0  0  0  0  0  0  0  0  0  0  0
   18.6309  -21.7727  -12.2707 O   0  0  0  0  0  0  0  0  0  0  0  0
  2  1  1  6
  2 10  1  0
  2  3  1  0
  3  4  1  0
  4  5  2  0
  5  6  1  0
  7  6  2  0
  8  7  1  0
  9  4  1  0
  9  8  2  0
 10 18  1  0
 11 10  2  0
 13 15  1  0
 13 12  1  0
 14 13  2  0
 16 15  1  0
 17 16  1  1
 18 17  1  0
 19 20  2  0
 19 17  1  0
 21 19  1  0
 22 29  1  0
 22 21  1  0
 22 23  1  6
 24 23  1  0
 25 24  2  0
 26 27  1  0
 26 25  1  0
 27 28  2  0
 28 24  1  0
 29 31  1  0
 30 29  2  0
M  END
$$$$
