FQH.pdb
     RDKit          3D

 31 32  0  0  1  0  0  0  0  0999 V2000
   29.6964  -31.2163  -17.2084 N   0  0  0  0  0  0  0  0  0  0  0  0
   28.3673  -30.9002  -17.7201 C   0  0  1  0  0  0  0  0  0  0  0  0
   27.4964  -32.1635  -17.7327 C   0  0  0  0  0  0  0  0  0  0  0  0
   27.9223  -32.9431  -18.9192 C   0  0  0  0  0  0  0  0  0  0  0  0
   27.3680  -32.7268  -20.1619 C   0  0  0  0  0  0  0  0  0  0  0  0
   27.7677  -33.4584  -21.2755 C   0  0  0  0  0  0  0  0  0  0  0  0
   28.7376  -34.4298  -21.1711 C   0  0  0  0  0  0  0  0  0  0  0  0
   29.2950  -34.6499  -19.9302 C   0  0  0  0  0  0  0  0  0  0  0  0
   28.8917  -33.9136  -18.8130 C   0  0  0  0  0  0  0  0  0  0  0  0
   27.7288  -29.8210  -16.9217 C   0  0  0  0  0  0  0  0  0  0  0  0
   28.4729  -29.0984  -16.2279 O   0  0  0  0  0  0  0  0  0  0  0  0
   28.2869  -25.5637  -16.6087 N   0  0  0  0  0  0  0  0  0  0  0  0
   26.9717  -25.0396  -16.6003 C   0  0  0  0  0  0  0  0  0  0  0  0
   26.7886  -23.8815  -16.1665 O   0  0  0  0  0  0  0  0  0  0  0  0
   25.8364  -25.8463  -17.0950 C   0  0  0  0  0  0  0  0  0  0  0  0
   26.3232  -27.2027  -17.4613 C   0  0  0  0  0  0  0  0  0  0  0  0
   25.7304  -28.3097  -16.6277 C   0  0  2  0  0  0  0  0  0  0  0  0
   26.3257  -29.5960  -16.9280 N   0  0  0  0  0  0  0  0  0  0  0  0
   24.2664  -28.3687  -16.7016 C   0  0  0  0  0  0  0  0  0  0  0  0
   23.6859  -28.4246  -17.8148 O   0  0  0  0  0  0  0  0  0  0  0  0
   23.4464  -28.3656  -15.5417 N   0  0  0  0  0  0  0  0  0  0  0  0
   22.0073  -28.5009  -15.5955 C   0  0  1  0  0  0  0  0  0  0  0  0
   21.4738  -28.3362  -14.1670 C   0  0  0  0  0  0  0  0  0  0  0  0
   21.9480  -29.3974  -13.2732 C   0  0  0  0  0  0  0  0  0  0  0  0
   22.6905  -30.4940  -13.6343 C   0  0  0  0  0  0  0  0  0  0  0  0
   22.9047  -31.2044  -12.5104 N   0  0  0  0  0  0  0  0  0  0  0  0
   22.3144  -30.5708  -11.4806 C   0  0  0  0  0  0  0  0  0  0  0  0
   21.7217  -29.4556  -11.9398 N   0  0  0  0  0  0  0  0  0  0  0  0
   21.4249  -27.4920  -16.4983 C   0  0  0  0  0  0  0  0  0  0  0  0
   21.9584  -26.3637  -16.6558 O   0  0  0  0  0  0  0  0  0  0  0  0
   20.2634  -27.7920  -17.1899 O   0  0  0  0  0  0  0  0  0  0  0  0
  2  1  1  1
  2 10  1  0
  2  3  1  0
  3  4  1  0
  4  5  2  0
  5  6  1  0
  7  6  2  0
  8  7  1  0
  9  4  1  0
  9  8  2  0
 10 18  1  0
 11 10  2  0
 13 15  1  0
 13 12  1  0
 14 13  2  0
 16 15  1  0
 17 16  1  6
 18 17  1  0
 19 20  2  0
 19 17  1  0
 21 19  1  0
 22 29  1  0
 22 21  1  0
 22 23  1  1
 24 23  1  0
 25 24  2  0
 26 27  1  0
 26 25  1  0
 27 28  2  0
 28 24  1  0
 29 31  1  0
 30 29  2  0
M  END
$$$$
