FQH.pdb
     RDKit          3D

 31 32  0  0  1  0  0  0  0  0999 V2000
   25.6402  -34.5967   -9.2694 N   0  0  0  0  0  0  0  0  0  0  0  0
   26.8190  -34.1567   -8.5312 C   0  0  1  0  0  0  0  0  0  0  0  0
   26.7060  -32.6611   -8.2064 C   0  0  0  0  0  0  0  0  0  0  0  0
   26.7614  -31.9538   -9.5078 C   0  0  0  0  0  0  0  0  0  0  0  0
   27.9610  -31.6469  -10.1120 C   0  0  0  0  0  0  0  0  0  0  0  0
   28.0131  -30.9830  -11.3333 C   0  0  0  0  0  0  0  0  0  0  0  0
   26.8586  -30.6083  -11.9829 C   0  0  0  0  0  0  0  0  0  0  0  0
   25.6561  -30.9130  -11.3826 C   0  0  0  0  0  0  0  0  0  0  0  0
   25.6066  -31.5800  -10.1555 C   0  0  0  0  0  0  0  0  0  0  0  0
   27.0057  -34.9580   -7.2932 C   0  0  0  0  0  0  0  0  0  0  0  0
   25.9866  -35.4395   -6.7576 O   0  0  0  0  0  0  0  0  0  0  0  0
   30.0704  -39.6296   -7.6027 N   0  0  0  0  0  0  0  0  0  0  0  0
   29.7048  -39.5847   -6.2357 C   0  0  0  0  0  0  0  0  0  0  0  0
   30.4228  -40.1773   -5.4013 O   0  0  0  0  0  0  0  0  0  0  0  0
   28.4969  -38.8512   -5.8029 C   0  0  0  0  0  0  0  0  0  0  0  0
   28.3360  -37.6350   -6.6434 C   0  0  0  0  0  0  0  0  0  0  0  0
   28.5916  -36.3454   -5.9061 C   0  0  2  0  0  0  0  0  0  0  0  0
   28.2848  -35.1846   -6.7171 N   0  0  0  0  0  0  0  0  0  0  0  0
   29.9429  -36.2602   -5.3415 C   0  0  0  0  0  0  0  0  0  0  0  0
   30.7997  -35.4946   -5.8508 O   0  0  0  0  0  0  0  0  0  0  0  0
   30.3442  -37.0234   -4.2127 N   0  0  0  0  0  0  0  0  0  0  0  0
   31.6788  -36.9650   -3.6579 C   0  0  1  0  0  0  0  0  0  0  0  0
   31.9901  -35.4939   -3.3563 C   0  0  0  0  0  0  0  0  0  0  0  0
   33.2819  -35.3281   -2.6827 C   0  0  0  0  0  0  0  0  0  0  0  0
   34.5211  -35.5245   -3.2396 C   0  0  0  0  0  0  0  0  0  0  0  0
   35.4249  -35.2632   -2.2762 N   0  0  0  0  0  0  0  0  0  0  0  0
   34.7703  -34.9148   -1.1535 C   0  0  0  0  0  0  0  0  0  0  0  0
   33.4485  -34.9515   -1.3931 N   0  0  0  0  0  0  0  0  0  0  0  0
   31.7698  -37.7869   -2.4379 C   0  0  0  0  0  0  0  0  0  0  0  0
   32.8251  -37.8364   -1.7551 O   0  0  0  0  0  0  0  0  0  0  0  0
   30.6685  -38.5221   -2.0329 O   0  0  0  0  0  0  0  0  0  0  0  0
  2  1  1  1
  2 10  1  0
  2  3  1  0
  3  4  1  0
  4  5  2  0
  5  6  1  0
  7  6  2  0
  8  7  1  0
  9  4  1  0
  9  8  2  0
 10 18  1  0
 11 10  2  0
 13 15  1  0
 13 12  1  0
 14 13  2  0
 16 15  1  0
 17 16  1  6
 18 17  1  0
 19 20  2  0
 19 17  1  0
 21 19  1  0
 22 29  1  0
 22 21  1  0
 22 23  1  1
 24 23  1  0
 25 24  2  0
 26 27  1  0
 26 25  1  0
 27 28  2  0
 28 24  1  0
 29 31  1  0
 30 29  2  0
M  END
$$$$
