FQH.pdb
     RDKit          3D

 31 32  0  0  1  0  0  0  0  0999 V2000
   22.5001  -26.9065  -17.4830 N   0  0  0  0  0  0  0  0  0  0  0  0
   23.5082  -27.6109  -16.6984 C   0  0  1  0  0  0  0  0  0  0  0  0
   24.0746  -26.6811  -15.6168 C   0  0  0  0  0  0  0  0  0  0  0  0
   24.7862  -25.5993  -16.3380 C   0  0  0  0  0  0  0  0  0  0  0  0
   24.2061  -24.3668  -16.5450 C   0  0  0  0  0  0  0  0  0  0  0  0
   24.8739  -23.3514  -17.2218 C   0  0  0  0  0  0  0  0  0  0  0  0
   26.1460  -23.5467  -17.7105 C   0  0  0  0  0  0  0  0  0  0  0  0
   26.7305  -24.7777  -17.5060 C   0  0  0  0  0  0  0  0  0  0  0  0
   26.0575  -25.7962  -16.8257 C   0  0  0  0  0  0  0  0  0  0  0  0
   22.9492  -28.8497  -16.0964 C   0  0  0  0  0  0  0  0  0  0  0  0
   21.7071  -28.9601  -16.0507 O   0  0  0  0  0  0  0  0  0  0  0  0
   20.3357  -32.1371  -17.8251 N   0  0  0  0  0  0  0  0  0  0  0  0
   21.6610  -32.0700  -18.3183 C   0  0  0  0  0  0  0  0  0  0  0  0
   21.8497  -32.1649  -19.5505 O   0  0  0  0  0  0  0  0  0  0  0  0
   22.8004  -31.8912  -17.3940 C   0  0  0  0  0  0  0  0  0  0  0  0
   22.2894  -31.7942  -16.0010 C   0  0  0  0  0  0  0  0  0  0  0  0
   23.2439  -31.1243  -15.0459 C   0  0  2  0  0  0  0  0  0  0  0  0
   23.7734  -29.8875  -15.5834 N   0  0  0  0  0  0  0  0  0  0  0  0
   24.3190  -32.0103  -14.5864 C   0  0  0  0  0  0  0  0  0  0  0  0
   25.5222  -31.7163  -14.7988 O   0  0  0  0  0  0  0  0  0  0  0  0
   24.0602  -33.2219  -13.8915 N   0  0  0  0  0  0  0  0  0  0  0  0
   24.5507  -33.4829  -12.5560 C   0  0  1  0  0  0  0  0  0  0  0  0
   24.0895  -32.3269  -11.6600 C   0  0  0  0  0  0  0  0  0  0  0  0
   24.5599  -32.4749  -10.2791 C   0  0  0  0  0  0  0  0  0  0  0  0
   25.4247  -33.4334   -9.8125 C   0  0  0  0  0  0  0  0  0  0  0  0
   25.5848  -33.2030   -8.4954 N   0  0  0  0  0  0  0  0  0  0  0  0
   24.8432  -32.1344   -8.1511 C   0  0  0  0  0  0  0  0  0  0  0  0
   24.2073  -31.6778   -9.2434 N   0  0  0  0  0  0  0  0  0  0  0  0
   24.0417  -34.7739  -12.0595 C   0  0  0  0  0  0  0  0  0  0  0  0
   22.8886  -34.8815  -11.5683 O   0  0  0  0  0  0  0  0  0  0  0  0
   24.8507  -35.8952  -12.1352 O   0  0  0  0  0  0  0  0  0  0  0  0
  2  1  1  1
  2 10  1  0
  2  3  1  0
  3  4  1  0
  4  5  2  0
  5  6  1  0
  7  6  2  0
  8  7  1  0
  9  4  1  0
  9  8  2  0
 10 18  1  0
 11 10  2  0
 13 15  1  0
 13 12  1  0
 14 13  2  0
 16 15  1  0
 17 16  1  6
 18 17  1  0
 19 20  2  0
 19 17  1  0
 21 19  1  0
 22 29  1  0
 22 21  1  0
 22 23  1  1
 24 23  1  0
 25 24  2  0
 26 27  1  0
 26 25  1  0
 27 28  2  0
 28 24  1  0
 29 31  1  0
 30 29  2  0
M  END
$$$$
