FQH.pdb
     RDKit          3D

 31 32  0  0  1  0  0  0  0  0999 V2000
   27.5921  -22.0660  -12.2694 N   0  0  0  0  0  0  0  0  0  0  0  0
   26.3492  -21.5206  -11.7349 C   0  0  1  0  0  0  0  0  0  0  0  0
   26.5967  -20.1208  -11.1571 C   0  0  0  0  0  0  0  0  0  0  0  0
   27.3142  -20.3269   -9.8766 C   0  0  0  0  0  0  0  0  0  0  0  0
   26.6782  -20.1874   -8.6624 C   0  0  0  0  0  0  0  0  0  0  0  0
   27.3514  -20.3809   -7.4605 C   0  0  0  0  0  0  0  0  0  0  0  0
   28.6855  -20.7207   -7.4454 C   0  0  0  0  0  0  0  0  0  0  0  0
   29.3260  -20.8614   -8.6574 C   0  0  0  0  0  0  0  0  0  0  0  0
   28.6474  -20.6664   -9.8634 C   0  0  0  0  0  0  0  0  0  0  0  0
   25.2878  -21.4874  -12.7752 C   0  0  0  0  0  0  0  0  0  0  0  0
   25.5127  -20.8256  -13.8090 O   0  0  0  0  0  0  0  0  0  0  0  0
   23.2843  -26.0957  -15.4954 N   0  0  0  0  0  0  0  0  0  0  0  0
   24.4747  -25.3294  -15.5086 C   0  0  0  0  0  0  0  0  0  0  0  0
   25.4918  -25.8077  -16.0559 O   0  0  0  0  0  0  0  0  0  0  0  0
   24.5144  -23.9890  -14.8870 C   0  0  0  0  0  0  0  0  0  0  0  0
   23.1619  -23.6491  -14.3708 C   0  0  0  0  0  0  0  0  0  0  0  0
   23.0860  -22.3024  -13.6983 C   0  0  2  0  0  0  0  0  0  0  0  0
   24.0524  -22.1738  -12.6265 N   0  0  0  0  0  0  0  0  0  0  0  0
   21.7346  -21.9589  -13.2426 C   0  0  0  0  0  0  0  0  0  0  0  0
   21.3620  -22.2473  -12.0775 O   0  0  0  0  0  0  0  0  0  0  0  0
   20.7965  -21.2961  -14.0783 N   0  0  0  0  0  0  0  0  0  0  0  0
   19.4282  -21.0463  -13.6813 C   0  0  1  0  0  0  0  0  0  0  0  0
   18.9823  -19.7424  -14.3543 C   0  0  0  0  0  0  0  0  0  0  0  0
   19.4386  -18.5570  -13.6218 C   0  0  0  0  0  0  0  0  0  0  0  0
   20.0521  -18.5455  -12.3939 C   0  0  0  0  0  0  0  0  0  0  0  0
   20.2995  -17.2557  -12.0961 N   0  0  0  0  0  0  0  0  0  0  0  0
   19.8543  -16.4867  -13.1064 C   0  0  0  0  0  0  0  0  0  0  0  0
   19.3217  -17.2789  -14.0523 N   0  0  0  0  0  0  0  0  0  0  0  0
   18.5602  -22.1702  -14.0758 C   0  0  0  0  0  0  0  0  0  0  0  0
   18.8662  -22.9356  -15.0260 O   0  0  0  0  0  0  0  0  0  0  0  0
   17.3803  -22.3896  -13.3852 O   0  0  0  0  0  0  0  0  0  0  0  0
  2  1  1  6
  2 10  1  0
  2  3  1  0
  3  4  1  0
  4  5  2  0
  5  6  1  0
  7  6  2  0
  8  7  1  0
  9  4  1  0
  9  8  2  0
 10 18  1  0
 11 10  2  0
 13 15  1  0
 13 12  1  0
 14 13  2  0
 16 15  1  0
 17 16  1  1
 18 17  1  0
 19 20  2  0
 19 17  1  0
 21 19  1  0
 22 29  1  0
 22 21  1  0
 22 23  1  6
 24 23  1  0
 25 24  2  0
 26 27  1  0
 26 25  1  0
 27 28  2  0
 28 24  1  0
 29 31  1  0
 30 29  2  0
M  END
$$$$
