FQH.pdb
     RDKit          3D

 31 32  0  0  1  0  0  0  0  0999 V2000
   28.5617  -19.6408  -13.1749 N   0  0  0  0  0  0  0  0  0  0  0  0
   27.7169  -20.8034  -12.9247 C   0  0  1  0  0  0  0  0  0  0  0  0
   27.5871  -21.0417  -11.4144 C   0  0  0  0  0  0  0  0  0  0  0  0
   28.9597  -21.3066  -10.9218 C   0  0  0  0  0  0  0  0  0  0  0  0
   29.8111  -22.1642  -11.5838 C   0  0  0  0  0  0  0  0  0  0  0  0
   31.0994  -22.4129  -11.1216 C   0  0  0  0  0  0  0  0  0  0  0  0
   31.5690  -21.8054   -9.9789 C   0  0  0  0  0  0  0  0  0  0  0  0
   30.7212  -20.9468   -9.3133 C   0  0  0  0  0  0  0  0  0  0  0  0
   29.4274  -20.6986   -9.7797 C   0  0  0  0  0  0  0  0  0  0  0  0
   26.3805  -20.6401  -13.5549 C   0  0  0  0  0  0  0  0  0  0  0  0
   25.8630  -19.5049  -13.5259 O   0  0  0  0  0  0  0  0  0  0  0  0
   24.2479  -25.1679  -14.6471 N   0  0  0  0  0  0  0  0  0  0  0  0
   25.2220  -24.8082  -15.6094 C   0  0  0  0  0  0  0  0  0  0  0  0
   26.0578  -25.6656  -15.9687 O   0  0  0  0  0  0  0  0  0  0  0  0
   25.2506  -23.4445  -16.1786 C   0  0  0  0  0  0  0  0  0  0  0  0
   24.0530  -22.6954  -15.7139 C   0  0  0  0  0  0  0  0  0  0  0  0
   24.3657  -21.5872  -14.7414 C   0  0  2  0  0  0  0  0  0  0  0  0
   25.6929  -21.7180  -14.1752 N   0  0  0  0  0  0  0  0  0  0  0  0
   23.3508  -21.4341  -13.6933 C   0  0  0  0  0  0  0  0  0  0  0  0
   23.6914  -21.2308  -12.5007 O   0  0  0  0  0  0  0  0  0  0  0  0
   21.9588  -21.5064  -13.9671 N   0  0  0  0  0  0  0  0  0  0  0  0
   21.0173  -20.5001  -13.5273 C   0  0  1  0  0  0  0  0  0  0  0  0
   21.4930  -19.1500  -14.0777 C   0  0  0  0  0  0  0  0  0  0  0  0
   20.6301  -18.0436  -13.6520 C   0  0  0  0  0  0  0  0  0  0  0  0
   19.5747  -18.1246  -12.7780 C   0  0  0  0  0  0  0  0  0  0  0  0
   19.0640  -16.8832  -12.6706 N   0  0  0  0  0  0  0  0  0  0  0  0
   19.7784  -16.0537  -13.4529 C   0  0  0  0  0  0  0  0  0  0  0  0
   20.7464  -16.7589  -14.0625 N   0  0  0  0  0  0  0  0  0  0  0  0
   19.6590  -20.8176  -14.0029 C   0  0  0  0  0  0  0  0  0  0  0  0
   19.4411  -21.1528  -15.1957 O   0  0  0  0  0  0  0  0  0  0  0  0
   18.5971  -20.7456  -13.1171 O   0  0  0  0  0  0  0  0  0  0  0  0
  2  1  1  1
  2 10  1  0
  2  3  1  0
  3  4  1  0
  4  5  2  0
  5  6  1  0
  7  6  2  0
  8  7  1  0
  9  4  1  0
  9  8  2  0
 10 18  1  0
 11 10  2  0
 13 15  1  0
 13 12  1  0
 14 13  2  0
 16 15  1  0
 17 16  1  1
 18 17  1  0
 19 20  2  0
 19 17  1  0
 21 19  1  0
 22 29  1  0
 22 21  1  0
 22 23  1  6
 24 23  1  0
 25 24  2  0
 26 27  1  0
 26 25  1  0
 27 28  2  0
 28 24  1  0
 29 31  1  0
 30 29  2  0
M  END
$$$$
