FQH.pdb
     RDKit          3D

 31 32  0  0  1  0  0  0  0  0999 V2000
   18.6433  -24.4278   -7.7559 N   0  0  0  0  0  0  0  0  0  0  0  0
   17.6436  -25.2721   -7.1112 C   0  0  1  0  0  0  0  0  0  0  0  0
   18.1816  -26.7017   -6.9633 C   0  0  0  0  0  0  0  0  0  0  0  0
   18.1676  -27.2877   -8.3246 C   0  0  0  0  0  0  0  0  0  0  0  0
   19.2686  -27.2215   -9.1503 C   0  0  0  0  0  0  0  0  0  0  0  0
   19.2555  -27.7715  -10.4279 C   0  0  0  0  0  0  0  0  0  0  0  0
   18.1332  -28.4048  -10.9125 C   0  0  0  0  0  0  0  0  0  0  0  0
   17.0294  -28.4736  -10.0904 C   0  0  0  0  0  0  0  0  0  0  0  0
   17.0451  -27.9202   -8.8072 C   0  0  0  0  0  0  0  0  0  0  0  0
   17.2419  -24.7152   -5.7928 C   0  0  0  0  0  0  0  0  0  0  0  0
   18.0380  -23.9386   -5.2269 O   0  0  0  0  0  0  0  0  0  0  0  0
   12.5127  -21.5732   -4.9313 N   0  0  0  0  0  0  0  0  0  0  0  0
   12.9905  -21.5590   -3.5988 C   0  0  0  0  0  0  0  0  0  0  0  0
   12.5192  -20.7209   -2.7998 O   0  0  0  0  0  0  0  0  0  0  0  0
   14.0272  -22.5168   -3.1601 C   0  0  0  0  0  0  0  0  0  0  0  0
   14.4334  -23.3606   -4.3152 C   0  0  0  0  0  0  0  0  0  0  0  0
   15.5127  -24.3613   -3.9903 C   0  0  2  0  0  0  0  0  0  0  0  0
   16.0034  -25.0366   -5.1745 N   0  0  0  0  0  0  0  0  0  0  0  0
   15.1183  -25.3210   -2.9532 C   0  0  0  0  0  0  0  0  0  0  0  0
   14.9098  -26.5254   -3.2452 O   0  0  0  0  0  0  0  0  0  0  0  0
   14.9551  -24.9455   -1.5930 N   0  0  0  0  0  0  0  0  0  0  0  0
   15.2319  -25.8408   -0.4912 C   0  0  1  0  0  0  0  0  0  0  0  0
   16.7299  -26.1676   -0.5262 C   0  0  0  0  0  0  0  0  0  0  0  0
   17.0361  -27.2631   -1.4515 C   0  0  0  0  0  0  0  0  0  0  0  0
   17.8491  -27.1927   -2.5552 C   0  0  0  0  0  0  0  0  0  0  0  0
   17.8509  -28.4178   -3.1142 N   0  0  0  0  0  0  0  0  0  0  0  0
   17.0638  -29.2272   -2.3822 C   0  0  0  0  0  0  0  0  0  0  0  0
   16.5565  -28.5253   -1.3547 N   0  0  0  0  0  0  0  0  0  0  0  0
   14.8551  -25.2182    0.7904 C   0  0  0  0  0  0  0  0  0  0  0  0
   15.0022  -25.8224    1.8838 O   0  0  0  0  0  0  0  0  0  0  0  0
   14.3266  -23.9383    0.7921 O   0  0  0  0  0  0  0  0  0  0  0  0
  2  1  1  1
  2 10  1  0
  2  3  1  0
  3  4  1  0
  4  5  2  0
  5  6  1  0
  7  6  2  0
  8  7  1  0
  9  4  1  0
  9  8  2  0
 10 18  1  0
 11 10  2  0
 13 15  1  0
 13 12  1  0
 14 13  2  0
 16 15  1  0
 17 16  1  6
 18 17  1  0
 19 20  2  0
 19 17  1  0
 21 19  1  0
 22 29  1  0
 22 21  1  0
 22 23  1  1
 24 23  1  0
 25 24  2  0
 26 27  1  0
 26 25  1  0
 27 28  2  0
 28 24  1  0
 29 31  1  0
 30 29  2  0
M  END
$$$$
