SAC.pdb
     RDKit          3D

 18 17  0  0  1  0  0  0  0  0999 V2000
   16.0018  -12.3283   -9.9245 O   0  0  0  0  0  0  0  0  0  0  0  0
   16.2571  -11.0594  -10.4346 C   0  0  0  0  0  0  0  0  0  0  0  0
   15.2828  -10.0301   -9.8874 C   0  0  2  0  0  0  0  0  0  0  0  0
   13.9626  -10.3204  -10.3833 N   0  0  0  0  0  0  0  0  0  0  0  0
   15.7651   -8.7011  -10.3591 C   0  0  0  0  0  0  0  0  0  0  0  0
   15.5606   -8.4113  -11.5672 O   0  0  0  0  0  0  0  0  0  0  0  0
   16.7103   -5.4026   -9.0716 C   0  0  0  0  0  0  0  0  0  0  0  0
   16.9319   -6.5522  -10.0329 C   0  0  2  0  0  0  0  0  0  0  0  0
   16.4272   -7.7851   -9.5071 N   0  0  0  0  0  0  0  0  0  0  0  0
   18.3665   -6.6541  -10.4305 C   0  0  0  0  0  0  0  0  0  0  0  0
   19.0932   -7.4688   -9.8392 O   0  0  0  0  0  0  0  0  0  0  0  0
   18.8809   -5.8319  -11.4652 N   0  0  0  0  0  0  0  0  0  0  0  0
   20.2507   -5.9838  -11.9632 C   0  0  1  0  0  0  0  0  0  0  0  0
   20.4083   -7.4009  -12.4754 C   0  0  0  0  0  0  0  0  0  0  0  0
   22.0259   -7.6503  -13.2422 S   0  0  0  0  0  0  0  0  0  0  0  0
   20.5446   -5.0048  -13.0216 C   0  0  0  0  0  0  0  0  0  0  0  0
   19.6486   -4.7802  -13.8728 O   0  0  0  0  0  0  0  0  0  0  0  0
   21.7446   -4.3167  -13.1382 O   0  0  0  0  0  0  0  0  0  0  0  0
  2  1  1  0
  3  4  1  6
  3  2  1  0
  5  3  1  0
  6  5  2  0
  8  7  1  1
  8  9  1  0
  9  5  1  0
 10 12  1  0
 10  8  1  0
 11 10  2  0
 13 16  1  0
 13 14  1  6
 13 12  1  0
 14 15  1  0
 16 18  1  0
 17 16  2  0
M  END
$$$$
