SAC.pdb
     RDKit          3D

 18 17  0  0  1  0  0  0  0  0999 V2000
   13.4225   -8.5397  -13.3060 O   0  0  0  0  0  0  0  0  0  0  0  0
   14.7671   -8.3533  -13.6107 C   0  0  0  0  0  0  0  0  0  0  0  0
   15.0468   -8.6025  -15.0830 C   0  0  2  0  0  0  0  0  0  0  0  0
   14.9956  -10.0184  -15.3395 N   0  0  0  0  0  0  0  0  0  0  0  0
   16.4021   -8.0452  -15.3546 C   0  0  0  0  0  0  0  0  0  0  0  0
   17.3841   -8.8153  -15.1873 O   0  0  0  0  0  0  0  0  0  0  0  0
   17.8638   -4.9693  -16.9348 C   0  0  0  0  0  0  0  0  0  0  0  0
   17.9143   -6.2713  -16.1619 C   0  0  2  0  0  0  0  0  0  0  0  0
   16.6053   -6.7116  -15.7829 N   0  0  0  0  0  0  0  0  0  0  0  0
   18.8354   -6.1690  -14.9924 C   0  0  0  0  0  0  0  0  0  0  0  0
   18.3703   -5.8208  -13.8952 O   0  0  0  0  0  0  0  0  0  0  0  0
   20.2141   -6.4658  -15.1412 N   0  0  0  0  0  0  0  0  0  0  0  0
   21.1550   -6.3447  -14.0242 C   0  0  1  0  0  0  0  0  0  0  0  0
   22.1396   -7.4926  -14.1148 C   0  0  0  0  0  0  0  0  0  0  0  0
   21.9246   -8.6570  -12.7492 S   0  0  0  0  0  0  0  0  0  0  0  0
   21.8516   -5.0490  -14.0523 C   0  0  0  0  0  0  0  0  0  0  0  0
   21.9868   -4.4840  -15.1659 O   0  0  0  0  0  0  0  0  0  0  0  0
   22.3666   -4.4144  -12.9301 O   0  0  0  0  0  0  0  0  0  0  0  0
  2  1  1  0
  3  4  1  1
  3  2  1  0
  5  3  1  0
  6  5  2  0
  8  7  1  1
  8  9  1  0
  9  5  1  0
 10 12  1  0
 10  8  1  0
 11 10  2  0
 13 16  1  0
 13 14  1  6
 13 12  1  0
 14 15  1  0
 16 18  1  0
 17 16  2  0
M  END
$$$$
