SAC.pdb
     RDKit          3D

 18 17  0  0  1  0  0  0  0  0999 V2000
   15.4008  -11.1518  -14.7547 O   0  0  0  0  0  0  0  0  0  0  0  0
   16.3506  -10.1460  -14.9022 C   0  0  0  0  0  0  0  0  0  0  0  0
   17.4509  -10.5528  -15.8677 C   0  0  2  0  0  0  0  0  0  0  0  0
   18.2758  -11.5562  -15.2465 N   0  0  0  0  0  0  0  0  0  0  0  0
   18.2259   -9.3158  -16.1685 C   0  0  0  0  0  0  0  0  0  0  0  0
   19.4754   -9.3712  -16.0236 O   0  0  0  0  0  0  0  0  0  0  0  0
   17.6239   -5.8910  -17.5953 C   0  0  0  0  0  0  0  0  0  0  0  0
   18.4020   -6.9486  -16.8396 C   0  0  2  0  0  0  0  0  0  0  0  0
   17.6094   -8.1171  -16.6001 N   0  0  0  0  0  0  0  0  0  0  0  0
   18.9841   -6.3946  -15.5822 C   0  0  0  0  0  0  0  0  0  0  0  0
   18.3938   -6.6014  -14.5097 O   0  0  0  0  0  0  0  0  0  0  0  0
   20.1889   -5.6477  -15.6216 N   0  0  0  0  0  0  0  0  0  0  0  0
   20.7322   -4.9950  -14.4272 C   0  0  1  0  0  0  0  0  0  0  0  0
   21.6455   -5.9818  -13.7289 C   0  0  0  0  0  0  0  0  0  0  0  0
   22.5403   -5.2031  -12.3652 S   0  0  0  0  0  0  0  0  0  0  0  0
   21.4560   -3.7624  -14.7762 C   0  0  0  0  0  0  0  0  0  0  0  0
   22.0778   -3.7407  -15.8673 O   0  0  0  0  0  0  0  0  0  0  0  0
   21.4946   -2.6267  -13.9787 O   0  0  0  0  0  0  0  0  0  0  0  0
  2  1  1  0
  3  4  1  1
  3  2  1  0
  5  3  1  0
  6  5  2  0
  8  7  1  1
  8  9  1  0
  9  5  1  0
 10 12  1  0
 10  8  1  0
 11 10  2  0
 13 16  1  0
 13 14  1  6
 13 12  1  0
 14 15  1  0
 16 18  1  0
 17 16  2  0
M  END
$$$$
