SAC.pdb
     RDKit          3D

 18 17  0  0  1  0  0  0  0  0999 V2000
   15.3541  -10.7016  -17.3745 O   0  0  0  0  0  0  0  0  0  0  0  0
   16.5558  -10.4977  -16.7038 C   0  0  0  0  0  0  0  0  0  0  0  0
   17.7172  -11.1642  -17.4216 C   0  0  2  0  0  0  0  0  0  0  0  0
   17.6655  -12.5835  -17.1849 N   0  0  0  0  0  0  0  0  0  0  0  0
   18.9600  -10.5606  -16.8629 C   0  0  0  0  0  0  0  0  0  0  0  0
   19.3159  -10.9370  -15.7153 O   0  0  0  0  0  0  0  0  0  0  0  0
   21.8616   -8.5036  -17.9905 C   0  0  0  0  0  0  0  0  0  0  0  0
   20.8767   -9.0105  -16.9570 C   0  0  2  0  0  0  0  0  0  0  0  0
   19.7262   -9.6036  -17.5701 N   0  0  0  0  0  0  0  0  0  0  0  0
   20.5089   -7.9356  -15.9896 C   0  0  0  0  0  0  0  0  0  0  0  0
   19.5288   -7.2162  -16.2411 O   0  0  0  0  0  0  0  0  0  0  0  0
   21.2704   -7.7471  -14.8082 N   0  0  0  0  0  0  0  0  0  0  0  0
   20.9575   -6.6839  -13.8493 C   0  0  1  0  0  0  0  0  0  0  0  0
   21.1778   -7.2320  -12.4541 C   0  0  0  0  0  0  0  0  0  0  0  0
   19.9835   -8.5294  -12.0577 S   0  0  0  0  0  0  0  0  0  0  0  0
   21.7881   -5.4924  -14.0850 C   0  0  0  0  0  0  0  0  0  0  0  0
   22.7322   -5.5935  -14.9074 O   0  0  0  0  0  0  0  0  0  0  0  0
   21.5948   -4.2688  -13.4584 O   0  0  0  0  0  0  0  0  0  0  0  0
  2  1  1  0
  3  4  1  1
  3  2  1  0
  5  3  1  0
  6  5  2  0
  8  7  1  6
  8  9  1  0
  9  5  1  0
 10 12  1  0
 10  8  1  0
 11 10  2  0
 13 16  1  0
 13 14  1  1
 13 12  1  0
 14 15  1  0
 16 18  1  0
 17 16  2  0
M  END
$$$$
