SAC.pdb
     RDKit          3D

 18 17  0  0  1  0  0  0  0  0999 V2000
   13.1128  -10.2543  -10.9725 O   0  0  0  0  0  0  0  0  0  0  0  0
   14.3834   -9.7725  -11.2709 C   0  0  0  0  0  0  0  0  0  0  0  0
   15.1320  -10.7092  -12.2038 C   0  0  2  0  0  0  0  0  0  0  0  0
   15.3986  -11.9457  -11.5159 N   0  0  0  0  0  0  0  0  0  0  0  0
   16.3926  -10.0094  -12.5809 C   0  0  0  0  0  0  0  0  0  0  0  0
   17.3864  -10.1681  -11.8243 O   0  0  0  0  0  0  0  0  0  0  0  0
   17.7448   -8.0486  -15.4867 C   0  0  0  0  0  0  0  0  0  0  0  0
   17.7447   -8.5786  -14.0675 C   0  0  2  0  0  0  0  0  0  0  0  0
   16.4960   -9.1955  -13.7342 N   0  0  0  0  0  0  0  0  0  0  0  0
   18.1251   -7.5136  -13.0939 C   0  0  0  0  0  0  0  0  0  0  0  0
   17.2371   -6.9990  -12.3954 O   0  0  0  0  0  0  0  0  0  0  0  0
   19.4777   -7.1040  -12.9761 N   0  0  0  0  0  0  0  0  0  0  0  0
   19.9009   -6.1148  -11.9811 C   0  0  1  0  0  0  0  0  0  0  0  0
   19.7577   -6.7404  -10.6086 C   0  0  0  0  0  0  0  0  0  0  0  0
   20.4877   -5.6959   -9.3268 S   0  0  0  0  0  0  0  0  0  0  0  0
   21.2856   -5.6780  -12.2195 C   0  0  0  0  0  0  0  0  0  0  0  0
   22.1035   -6.5351  -12.6368 O   0  0  0  0  0  0  0  0  0  0  0  0
   21.7430   -4.3836  -12.0133 O   0  0  0  0  0  0  0  0  0  0  0  0
  2  1  1  0
  3  4  1  1
  3  2  1  0
  5  3  1  0
  6  5  2  0
  8  7  1  6
  8  9  1  0
  9  5  1  0
 10 12  1  0
 10  8  1  0
 11 10  2  0
 13 16  1  0
 13 14  1  1
 13 12  1  0
 14 15  1  0
 16 18  1  0
 17 16  2  0
M  END
$$$$
