SAC.pdb
     RDKit          3D

 18 17  0  0  1  0  0  0  0  0999 V2000
   15.1905  -12.8544  -10.1253 O   0  0  0  0  0  0  0  0  0  0  0  0
   15.6509  -11.6078  -10.5367 C   0  0  0  0  0  0  0  0  0  0  0  0
   14.7145  -10.4937  -10.1005 C   0  0  2  0  0  0  0  0  0  0  0  0
   13.4760  -10.6079  -10.8261 N   0  0  0  0  0  0  0  0  0  0  0  0
   15.4124   -9.2128  -10.4063 C   0  0  0  0  0  0  0  0  0  0  0  0
   15.4637   -8.8605  -11.6140 O   0  0  0  0  0  0  0  0  0  0  0  0
   16.6947   -6.2130   -8.5971 C   0  0  0  0  0  0  0  0  0  0  0  0
   16.6623   -7.1879   -9.7562 C   0  0  2  0  0  0  0  0  0  0  0  0
   16.0010   -8.4078   -9.4020 N   0  0  0  0  0  0  0  0  0  0  0  0
   18.0316   -7.4260  -10.2994 C   0  0  0  0  0  0  0  0  0  0  0  0
   18.6474   -8.4426   -9.9406 O   0  0  0  0  0  0  0  0  0  0  0  0
   18.6101   -6.5029  -11.2073 N   0  0  0  0  0  0  0  0  0  0  0  0
   19.9141   -6.7466  -11.8302 C   0  0  1  0  0  0  0  0  0  0  0  0
   19.8539   -8.0872  -12.5334 C   0  0  0  0  0  0  0  0  0  0  0  0
   21.3751   -8.4212  -13.4507 S   0  0  0  0  0  0  0  0  0  0  0  0
   20.2636   -5.6720  -12.7726 C   0  0  0  0  0  0  0  0  0  0  0  0
   19.3402   -5.1878  -13.4729 O   0  0  0  0  0  0  0  0  0  0  0  0
   21.5444   -5.1619  -12.9357 O   0  0  0  0  0  0  0  0  0  0  0  0
  2  1  1  0
  3  4  1  6
  3  2  1  0
  5  3  1  0
  6  5  2  0
  8  7  1  1
  8  9  1  0
  9  5  1  0
 10 12  1  0
 10  8  1  0
 11 10  2  0
 13 16  1  0
 13 14  1  6
 13 12  1  0
 14 15  1  0
 16 18  1  0
 17 16  2  0
M  END
$$$$
