SAC.pdb
     RDKit          3D

 18 17  0  0  1  0  0  0  0  0999 V2000
   17.2968  -13.0138  -14.8811 O   0  0  0  0  0  0  0  0  0  0  0  0
   18.1059  -11.9102  -15.1319 C   0  0  0  0  0  0  0  0  0  0  0  0
   18.8210  -12.0326  -16.4668 C   0  0  2  0  0  0  0  0  0  0  0  0
   19.7805  -13.1034  -16.3910 N   0  0  0  0  0  0  0  0  0  0  0  0
   19.4831  -10.7201  -16.7119 C   0  0  0  0  0  0  0  0  0  0  0  0
   20.6211  -10.5465  -16.2020 O   0  0  0  0  0  0  0  0  0  0  0  0
   18.8950   -7.6436  -18.7984 C   0  0  0  0  0  0  0  0  0  0  0  0
   19.6028   -8.4905  -17.7607 C   0  0  2  0  0  0  0  0  0  0  0  0
   18.8812   -9.6955  -17.4808 N   0  0  0  0  0  0  0  0  0  0  0  0
   19.8874   -7.7037  -16.5251 C   0  0  0  0  0  0  0  0  0  0  0  0
   19.1897   -7.9022  -15.5174 O   0  0  0  0  0  0  0  0  0  0  0  0
   20.9366   -6.7498  -16.5118 N   0  0  0  0  0  0  0  0  0  0  0  0
   21.2366   -5.9485  -15.3220 C   0  0  1  0  0  0  0  0  0  0  0  0
   21.8798   -6.8580  -14.2950 C   0  0  0  0  0  0  0  0  0  0  0  0
   22.5431   -5.9165  -12.9019 S   0  0  0  0  0  0  0  0  0  0  0  0
   22.1181   -4.8169  -15.6499 C   0  0  0  0  0  0  0  0  0  0  0  0
   22.9339   -4.9680  -16.5929 O   0  0  0  0  0  0  0  0  0  0  0  0
   22.1048   -3.5981  -14.9855 O   0  0  0  0  0  0  0  0  0  0  0  0
  2  1  1  0
  3  4  1  1
  3  2  1  0
  5  3  1  0
  6  5  2  0
  8  7  1  6
  8  9  1  0
  9  5  1  0
 10 12  1  0
 10  8  1  0
 11 10  2  0
 13 16  1  0
 13 14  1  1
 13 12  1  0
 14 15  1  0
 16 18  1  0
 17 16  2  0
M  END
$$$$
