SAC.pdb
     RDKit          3D

 18 17  0  0  1  0  0  0  0  0999 V2000
   13.5887  -11.5578  -14.5228 O   0  0  0  0  0  0  0  0  0  0  0  0
   14.3722  -10.5632  -13.9464 C   0  0  0  0  0  0  0  0  0  0  0  0
   15.7960  -10.5958  -14.4753 C   0  0  2  0  0  0  0  0  0  0  0  0
   16.4799  -11.7337  -13.9180 N   0  0  0  0  0  0  0  0  0  0  0  0
   16.4312   -9.3149  -14.0544 C   0  0  0  0  0  0  0  0  0  0  0  0
   16.8393   -9.2393  -12.8657 O   0  0  0  0  0  0  0  0  0  0  0  0
   17.6473   -6.1423  -15.6498 C   0  0  0  0  0  0  0  0  0  0  0  0
   17.2469   -7.0274  -14.4874 C   0  0  2  0  0  0  0  0  0  0  0  0
   16.5818   -8.2151  -14.9325 N   0  0  0  0  0  0  0  0  0  0  0  0
   16.4395   -6.2707  -13.4862 C   0  0  0  0  0  0  0  0  0  0  0  0
   15.2011   -6.3343  -13.5474 O   0  0  0  0  0  0  0  0  0  0  0  0
   17.0835   -5.4965  -12.4877 N   0  0  0  0  0  0  0  0  0  0  0  0
   16.3296   -4.6359  -11.5720 C   0  0  1  0  0  0  0  0  0  0  0  0
   16.8129   -4.9141  -10.1633 C   0  0  0  0  0  0  0  0  0  0  0  0
   16.0955   -3.7540   -8.9774 S   0  0  0  0  0  0  0  0  0  0  0  0
   16.4974   -3.2152  -11.9162 C   0  0  0  0  0  0  0  0  0  0  0  0
   17.6196   -2.8480  -12.3447 O   0  0  0  0  0  0  0  0  0  0  0  0
   15.4978   -2.2592  -11.7975 O   0  0  0  0  0  0  0  0  0  0  0  0
  2  1  1  0
  3  4  1  1
  3  2  1  0
  5  3  1  0
  6  5  2  0
  8  7  1  6
  8  9  1  0
  9  5  1  0
 10 12  1  0
 10  8  1  0
 11 10  2  0
 13 16  1  0
 13 14  1  1
 13 12  1  0
 14 15  1  0
 16 18  1  0
 17 16  2  0
M  END
$$$$
