SAC.pdb
     RDKit          3D

 18 17  0  0  1  0  0  0  0  0999 V2000
   15.5240  -12.4906  -10.3677 O   0  0  0  0  0  0  0  0  0  0  0  0
   15.9783  -11.2476  -10.7966 C   0  0  0  0  0  0  0  0  0  0  0  0
   15.0990  -10.1217  -10.2796 C   0  0  2  0  0  0  0  0  0  0  0  0
   13.8176  -10.1864  -10.9330 N   0  0  0  0  0  0  0  0  0  0  0  0
   15.8117   -8.8515  -10.5958 C   0  0  0  0  0  0  0  0  0  0  0  0
   15.9320   -8.5475  -11.8117 O   0  0  0  0  0  0  0  0  0  0  0  0
   16.9062   -5.7612   -8.8226 C   0  0  0  0  0  0  0  0  0  0  0  0
   16.9652   -6.7678   -9.9533 C   0  0  2  0  0  0  0  0  0  0  0  0
   16.3402   -8.0048   -9.5923 N   0  0  0  0  0  0  0  0  0  0  0  0
   18.3657   -6.9618  -10.4303 C   0  0  0  0  0  0  0  0  0  0  0  0
   19.1432   -7.6391   -9.7388 O   0  0  0  0  0  0  0  0  0  0  0  0
   18.7912   -6.3796  -11.6515 N   0  0  0  0  0  0  0  0  0  0  0  0
   20.1679   -6.5179  -12.1344 C   0  0  1  0  0  0  0  0  0  0  0  0
   20.1543   -7.4535  -13.3261 C   0  0  0  0  0  0  0  0  0  0  0  0
   19.8368   -9.1602  -12.8227 S   0  0  0  0  0  0  0  0  0  0  0  0
   20.7395   -5.2113  -12.4963 C   0  0  0  0  0  0  0  0  0  0  0  0
   19.9438   -4.3020  -12.8396 O   0  0  0  0  0  0  0  0  0  0  0  0
   22.0971   -4.9215  -12.4823 O   0  0  0  0  0  0  0  0  0  0  0  0
  2  1  1  0
  3  4  1  6
  3  2  1  0
  5  3  1  0
  6  5  2  0
  8  7  1  1
  8  9  1  0
  9  5  1  0
 10 12  1  0
 10  8  1  0
 11 10  2  0
 13 16  1  0
 13 14  1  6
 13 12  1  0
 14 15  1  0
 16 18  1  0
 17 16  2  0
M  END
$$$$
