SAC.pdb
     RDKit          3D

 18 17  0  0  1  0  0  0  0  0999 V2000
   16.4168  -13.0576  -13.9262 O   0  0  0  0  0  0  0  0  0  0  0  0
   17.3871  -12.1051  -14.2206 C   0  0  0  0  0  0  0  0  0  0  0  0
   17.7780  -12.1397  -15.6883 C   0  0  2  0  0  0  0  0  0  0  0  0
   18.6733  -13.2450  -15.9117 N   0  0  0  0  0  0  0  0  0  0  0  0
   18.4355  -10.8344  -15.9801 C   0  0  0  0  0  0  0  0  0  0  0  0
   19.6412  -10.7096  -15.6393 O   0  0  0  0  0  0  0  0  0  0  0  0
   17.6584   -7.6820  -17.8763 C   0  0  0  0  0  0  0  0  0  0  0  0
   18.4641   -8.5644  -16.9451 C   0  0  2  0  0  0  0  0  0  0  0  0
   17.7575   -9.7647  -16.6118 N   0  0  0  0  0  0  0  0  0  0  0  0
   18.9009   -7.8121  -15.7326 C   0  0  0  0  0  0  0  0  0  0  0  0
   18.1851   -7.8469  -14.7188 O   0  0  0  0  0  0  0  0  0  0  0  0
   20.1120   -7.0745  -15.7478 N   0  0  0  0  0  0  0  0  0  0  0  0
   20.5446   -6.2767  -14.5971 C   0  0  1  0  0  0  0  0  0  0  0  0
   22.0269   -6.5146  -14.3931 C   0  0  0  0  0  0  0  0  0  0  0  0
   22.6901   -5.4645  -13.0799 S   0  0  0  0  0  0  0  0  0  0  0  0
   20.2636   -4.8472  -14.8039 C   0  0  0  0  0  0  0  0  0  0  0  0
   19.7124   -4.2200  -13.8656 O   0  0  0  0  0  0  0  0  0  0  0  0
   20.5680   -4.1513  -15.9659 O   0  0  0  0  0  0  0  0  0  0  0  0
  2  1  1  0
  3  4  1  1
  3  2  1  0
  5  3  1  0
  6  5  2  0
  8  7  1  6
  8  9  1  0
  9  5  1  0
 10 12  1  0
 10  8  1  0
 11 10  2  0
 13 16  1  0
 13 14  1  6
 13 12  1  0
 14 15  1  0
 16 18  1  0
 17 16  2  0
M  END
$$$$
