SAC.pdb
     RDKit          3D

 18 17  0  0  1  0  0  0  0  0999 V2000
   14.4961   -9.2418  -14.3220 O   0  0  0  0  0  0  0  0  0  0  0  0
   15.7559   -8.6725  -14.4773 C   0  0  0  0  0  0  0  0  0  0  0  0
   16.3802   -9.0505  -15.8098 C   0  0  2  0  0  0  0  0  0  0  0  0
   16.7270  -10.4477  -15.7883 N   0  0  0  0  0  0  0  0  0  0  0  0
   17.5860   -8.1892  -15.9694 C   0  0  0  0  0  0  0  0  0  0  0  0
   18.6792   -8.6465  -15.5438 O   0  0  0  0  0  0  0  0  0  0  0  0
   18.5311   -5.0298  -17.7616 C   0  0  0  0  0  0  0  0  0  0  0  0
   18.7381   -6.1633  -16.7781 C   0  0  2  0  0  0  0  0  0  0  0  0
   17.5330   -6.9086  -16.5698 N   0  0  0  0  0  0  0  0  0  0  0  0
   19.3224   -5.6669  -15.4979 C   0  0  0  0  0  0  0  0  0  0  0  0
   18.5561   -5.2522  -14.6135 O   0  0  0  0  0  0  0  0  0  0  0  0
   20.7273   -5.6726  -15.3045 N   0  0  0  0  0  0  0  0  0  0  0  0
   21.3344   -5.2478  -14.0402 C   0  0  1  0  0  0  0  0  0  0  0  0
   22.5280   -6.1411  -13.7705 C   0  0  0  0  0  0  0  0  0  0  0  0
   22.0157   -7.8348  -13.4016 S   0  0  0  0  0  0  0  0  0  0  0  0
   21.7354   -3.8329  -14.0906 C   0  0  0  0  0  0  0  0  0  0  0  0
   21.9457   -3.3267  -15.2207 O   0  0  0  0  0  0  0  0  0  0  0  0
   21.8952   -3.0259  -12.9724 O   0  0  0  0  0  0  0  0  0  0  0  0
  2  1  1  0
  3  4  1  1
  3  2  1  0
  5  3  1  0
  6  5  2  0
  8  7  1  6
  8  9  1  0
  9  5  1  0
 10 12  1  0
 10  8  1  0
 11 10  2  0
 13 16  1  0
 13 14  1  6
 13 12  1  0
 14 15  1  0
 16 18  1  0
 17 16  2  0
M  END
$$$$
