SAC.pdb
     RDKit          3D

 18 17  0  0  1  0  0  0  0  0999 V2000
   12.7310  -14.5130  -14.8448 O   0  0  0  0  0  0  0  0  0  0  0  0
   13.7463  -13.6989  -14.3529 C   0  0  0  0  0  0  0  0  0  0  0  0
   15.1202  -14.2638  -14.6714 C   0  0  2  0  0  0  0  0  0  0  0  0
   15.3115  -15.4837  -13.9308 N   0  0  0  0  0  0  0  0  0  0  0  0
   16.1073  -13.2207  -14.2731 C   0  0  0  0  0  0  0  0  0  0  0  0
   16.3819  -13.1274  -13.0478 O   0  0  0  0  0  0  0  0  0  0  0  0
   18.6121  -10.9835  -15.9121 C   0  0  0  0  0  0  0  0  0  0  0  0
   17.7051  -11.4097  -14.7761 C   0  0  2  0  0  0  0  0  0  0  0  0
   16.7245  -12.3588  -15.2108 N   0  0  0  0  0  0  0  0  0  0  0  0
   17.0877  -10.2279  -14.1061 C   0  0  0  0  0  0  0  0  0  0  0  0
   15.9695   -9.8439  -14.4850 O   0  0  0  0  0  0  0  0  0  0  0  0
   17.7729   -9.5628  -13.0577 N   0  0  0  0  0  0  0  0  0  0  0  0
   17.2455   -8.3410  -12.4437 C   0  0  1  0  0  0  0  0  0  0  0  0
   17.5159   -8.4110  -10.9546 C   0  0  0  0  0  0  0  0  0  0  0  0
   16.6452   -9.7978  -10.1894 S   0  0  0  0  0  0  0  0  0  0  0  0
   17.8575   -7.1406  -13.0349 C   0  0  0  0  0  0  0  0  0  0  0  0
   18.8500   -7.3028  -13.7874 O   0  0  0  0  0  0  0  0  0  0  0  0
   17.4087   -5.8455  -12.8143 O   0  0  0  0  0  0  0  0  0  0  0  0
  2  1  1  0
  3  4  1  1
  3  2  1  0
  5  3  1  0
  6  5  2  0
  8  7  1  6
  8  9  1  0
  9  5  1  0
 10 12  1  0
 10  8  1  0
 11 10  2  0
 13 16  1  0
 13 14  1  1
 13 12  1  0
 14 15  1  0
 16 18  1  0
 17 16  2  0
M  END
$$$$
