SAC.pdb
     RDKit          3D

 18 17  0  0  1  0  0  0  0  0999 V2000
   16.0210  -12.6081  -10.3671 O   0  0  0  0  0  0  0  0  0  0  0  0
   16.4238  -11.3145  -10.6828 C   0  0  0  0  0  0  0  0  0  0  0  0
   15.3141  -10.3069  -10.4351 C   0  0  2  0  0  0  0  0  0  0  0  0
   14.2201  -10.5809  -11.3302 N   0  0  0  0  0  0  0  0  0  0  0  0
   15.9033   -8.9611  -10.6861 C   0  0  0  0  0  0  0  0  0  0  0  0
   16.0390   -8.6082  -11.8870 O   0  0  0  0  0  0  0  0  0  0  0  0
   16.8408   -5.8827   -8.7705 C   0  0  0  0  0  0  0  0  0  0  0  0
   16.9222   -6.8419   -9.9403 C   0  0  2  0  0  0  0  0  0  0  0  0
   16.3017   -8.0969   -9.6384 N   0  0  0  0  0  0  0  0  0  0  0  0
   18.3303   -7.0066  -10.4059 C   0  0  0  0  0  0  0  0  0  0  0  0
   19.0039   -7.9442   -9.9491 O   0  0  0  0  0  0  0  0  0  0  0  0
   18.8796   -6.1046  -11.3522 N   0  0  0  0  0  0  0  0  0  0  0  0
   20.2387   -6.2674  -11.8756 C   0  0  1  0  0  0  0  0  0  0  0  0
   20.3139   -7.6100  -12.5737 C   0  0  0  0  0  0  0  0  0  0  0  0
   21.8924   -7.8232  -13.4279 S   0  0  0  0  0  0  0  0  0  0  0  0
   20.5900   -5.1743  -12.7957 C   0  0  0  0  0  0  0  0  0  0  0  0
   19.7019   -4.7703  -13.5868 O   0  0  0  0  0  0  0  0  0  0  0  0
   21.8359   -4.5638  -12.8442 O   0  0  0  0  0  0  0  0  0  0  0  0
  2  1  1  0
  3  4  1  6
  3  2  1  0
  5  3  1  0
  6  5  2  0
  8  7  1  1
  8  9  1  0
  9  5  1  0
 10 12  1  0
 10  8  1  0
 11 10  2  0
 13 16  1  0
 13 14  1  6
 13 12  1  0
 14 15  1  0
 16 18  1  0
 17 16  2  0
M  END
$$$$
