WSQ.pdb
     RDKit          3D

 30 31  0  0  1  0  0  0  0  0999 V2000
   25.5256  -19.3285  -12.2606 N   0  0  0  0  0  0  0  0  0  0  0  0
   26.2442  -20.5508  -12.3749 C   0  0  1  0  0  0  0  0  0  0  0  0
   25.9403  -21.5825  -11.3319 C   0  0  0  0  0  0  0  0  0  0  0  0
   26.2338  -21.0636   -9.9722 C   0  0  0  0  0  0  0  0  0  0  0  0
   25.2912  -20.4600   -9.1402 C   0  0  0  0  0  0  0  0  0  0  0  0
   25.8491  -20.0740   -7.9861 N   0  0  0  0  0  0  0  0  0  0  0  0
   27.1516  -20.4204   -8.0545 C   0  0  0  0  0  0  0  0  0  0  0  0
   28.1880  -20.2667   -7.1484 C   0  0  0  0  0  0  0  0  0  0  0  0
   29.4490  -20.7200   -7.4639 C   0  0  0  0  0  0  0  0  0  0  0  0
   29.7203  -21.3245   -8.6544 C   0  0  0  0  0  0  0  0  0  0  0  0
   28.6847  -21.4872   -9.5805 C   0  0  0  0  0  0  0  0  0  0  0  0
   27.4224  -21.0336   -9.2667 C   0  0  0  0  0  0  0  0  0  0  0  0
   26.1094  -21.1982  -13.6972 C   0  0  0  0  0  0  0  0  0  0  0  0
   24.9714  -21.1382  -14.2461 O   0  0  0  0  0  0  0  0  0  0  0  0
   29.2258  -21.9629  -15.9952 O   0  0  0  0  0  0  0  0  0  0  0  0
   28.2316  -22.8898  -16.3077 C   0  0  0  0  0  0  0  0  0  0  0  0
   26.9112  -22.4521  -15.6826 C   0  0  2  0  0  0  0  0  0  0  0  0
   27.1235  -21.8694  -14.3952 N   0  0  0  0  0  0  0  0  0  0  0  0
   26.0582  -23.6595  -15.6391 C   0  0  0  0  0  0  0  0  0  0  0  0
   26.1759  -24.4395  -14.6592 O   0  0  0  0  0  0  0  0  0  0  0  0
   21.2572  -24.7458  -13.5219 N   0  0  0  0  0  0  0  0  0  0  0  0
   21.3285  -23.6512  -14.4196 C   0  0  0  0  0  0  0  0  0  0  0  0
   20.4832  -22.7360  -14.3255 O   0  0  0  0  0  0  0  0  0  0  0  0
   22.4075  -23.6414  -15.4340 C   0  0  0  0  0  0  0  0  0  0  0  0
   23.3473  -24.8028  -15.1893 C   0  0  0  0  0  0  0  0  0  0  0  0
   24.1788  -25.0954  -16.4380 C   0  0  2  0  0  0  0  0  0  0  0  0
   25.1147  -23.9935  -16.6333 N   0  0  0  0  0  0  0  0  0  0  0  0
   23.2967  -25.2866  -17.5932 C   0  0  0  0  0  0  0  0  0  0  0  0
   22.5636  -26.4606  -17.6882 O   0  0  0  0  0  0  0  0  0  0  0  0
   23.1651  -24.4362  -18.5147 O   0  0  0  0  0  0  0  0  0  0  0  0
  2  1  1  6
  2  3  1  0
  2 13  1  0
  3  4  1  0
  4 12  1  0
  4  5  2  0
  5  6  1  0
  7  6  1  0
  7  8  2  0
  9  8  1  0
 10  9  2  0
 11 12  2  0
 11 10  1  0
 12  7  1  0
 13 14  2  0
 16 15  1  0
 17 16  1  1
 17 19  1  0
 18 13  1  0
 18 17  1  0
 19 27  1  0
 19 20  2  0
 21 22  1  0
 22 23  2  0
 24 22  1  0
 24 25  1  0
 26 25  1  1
 26 28  1  0
 27 26  1  0
 28 30  2  0
 28 29  1  0
M  END
$$$$
