WSQ.pdb
     RDKit          3D

 30 31  0  0  1  0  0  0  0  0999 V2000
   23.6556  -18.8587  -11.0111 N   0  0  0  0  0  0  0  0  0  0  0  0
   24.4917  -19.5948  -11.8958 C   0  0  1  0  0  0  0  0  0  0  0  0
   24.8877  -20.9618  -11.4279 C   0  0  0  0  0  0  0  0  0  0  0  0
   25.9343  -20.8799  -10.3782 C   0  0  0  0  0  0  0  0  0  0  0  0
   25.6722  -20.7751   -9.0125 C   0  0  0  0  0  0  0  0  0  0  0  0
   26.8101  -20.6982   -8.3114 N   0  0  0  0  0  0  0  0  0  0  0  0
   27.8176  -20.7522   -9.2076 C   0  0  0  0  0  0  0  0  0  0  0  0
   29.1924  -20.7180   -9.0417 C   0  0  0  0  0  0  0  0  0  0  0  0
   30.0188  -20.7963  -10.1398 C   0  0  0  0  0  0  0  0  0  0  0  0
   29.5266  -20.9081  -11.4053 C   0  0  0  0  0  0  0  0  0  0  0  0
   28.1405  -20.9438  -11.5900 C   0  0  0  0  0  0  0  0  0  0  0  0
   27.3121  -20.8649  -10.4922 C   0  0  0  0  0  0  0  0  0  0  0  0
   23.9388  -19.7315  -13.2601 C   0  0  0  0  0  0  0  0  0  0  0  0
   22.6808  -19.8197  -13.3576 O   0  0  0  0  0  0  0  0  0  0  0  0
   25.6450  -17.9211  -16.5217 O   0  0  0  0  0  0  0  0  0  0  0  0
   25.1452  -19.1992  -16.7703 C   0  0  0  0  0  0  0  0  0  0  0  0
   24.0845  -19.5436  -15.7301 C   0  0  2  0  0  0  0  0  0  0  0  0
   24.6786  -19.7719  -14.4507 N   0  0  0  0  0  0  0  0  0  0  0  0
   23.3646  -20.7244  -16.2542 C   0  0  0  0  0  0  0  0  0  0  0  0
   23.8813  -21.8599  -16.0925 O   0  0  0  0  0  0  0  0  0  0  0  0
   19.1794  -22.4271  -15.0122 N   0  0  0  0  0  0  0  0  0  0  0  0
   18.7390  -23.2333  -16.0916 C   0  0  0  0  0  0  0  0  0  0  0  0
   18.0380  -24.2385  -15.8486 O   0  0  0  0  0  0  0  0  0  0  0  0
   19.1317  -22.8460  -17.4661 C   0  0  0  0  0  0  0  0  0  0  0  0
   19.9375  -21.5650  -17.4238 C   0  0  0  0  0  0  0  0  0  0  0  0
   21.4327  -21.8714  -17.3426 C   0  0  2  0  0  0  0  0  0  0  0  0
   22.1268  -20.6572  -16.9278 N   0  0  0  0  0  0  0  0  0  0  0  0
   21.9119  -22.3716  -18.6346 C   0  0  0  0  0  0  0  0  0  0  0  0
   21.7596  -23.7188  -18.9287 O   0  0  0  0  0  0  0  0  0  0  0  0
   22.4603  -21.6397  -19.5025 O   0  0  0  0  0  0  0  0  0  0  0  0
  2  1  1  1
  2  3  1  0
  2 13  1  0
  3  4  1  0
  4 12  1  0
  4  5  2  0
  5  6  1  0
  7  6  1  0
  7  8  2  0
  9  8  1  0
 10  9  2  0
 11 12  2  0
 11 10  1  0
 12  7  1  0
 13 14  2  0
 16 15  1  0
 17 16  1  6
 17 19  1  0
 18 13  1  0
 18 17  1  0
 19 27  1  0
 19 20  2  0
 21 22  1  0
 22 23  2  0
 24 22  1  0
 24 25  1  0
 26 25  1  6
 26 28  1  0
 27 26  1  0
 28 30  2  0
 28 29  1  0
M  END
$$$$
