WSQ.pdb
     RDKit          3D

 30 31  0  0  1  0  0  0  0  0999 V2000
   19.1096  -24.7495   -6.9633 N   0  0  0  0  0  0  0  0  0  0  0  0
   17.8807  -25.1873   -6.3963 C   0  0  1  0  0  0  0  0  0  0  0  0
   16.9352  -25.8651   -7.3402 C   0  0  0  0  0  0  0  0  0  0  0  0
   16.5276  -24.9461   -8.4326 C   0  0  0  0  0  0  0  0  0  0  0  0
   15.5630  -23.9474   -8.3017 C   0  0  0  0  0  0  0  0  0  0  0  0
   15.3917  -23.2932   -9.4570 N   0  0  0  0  0  0  0  0  0  0  0  0
   16.2376  -23.8553  -10.3456 C   0  0  0  0  0  0  0  0  0  0  0  0
   16.4815  -23.5751  -11.6801 C   0  0  0  0  0  0  0  0  0  0  0  0
   17.4177  -24.3065  -12.3755 C   0  0  0  0  0  0  0  0  0  0  0  0
   18.1254  -25.3129  -11.7901 C   0  0  0  0  0  0  0  0  0  0  0  0
   17.8908  -25.6087  -10.4433 C   0  0  0  0  0  0  0  0  0  0  0  0
   16.9538  -24.8781   -9.7461 C   0  0  0  0  0  0  0  0  0  0  0  0
   18.0488  -26.0690   -5.2214 C   0  0  0  0  0  0  0  0  0  0  0  0
   18.8224  -27.0600   -5.3605 O   0  0  0  0  0  0  0  0  0  0  0  0
   16.4935  -24.9908   -1.7978 O   0  0  0  0  0  0  0  0  0  0  0  0
   17.4048  -26.0148   -1.5407 C   0  0  0  0  0  0  0  0  0  0  0  0
   17.7599  -26.7211   -2.8448 C   0  0  2  0  0  0  0  0  0  0  0  0
   17.4319  -25.9073   -3.9726 N   0  0  0  0  0  0  0  0  0  0  0  0
   17.0304  -28.0075   -2.8261 C   0  0  0  0  0  0  0  0  0  0  0  0
   15.8480  -28.0304   -3.2549 O   0  0  0  0  0  0  0  0  0  0  0  0
   17.2152  -31.0262   -5.5862 N   0  0  0  0  0  0  0  0  0  0  0  0
   18.5063  -30.9951   -5.0020 C   0  0  0  0  0  0  0  0  0  0  0  0
   19.4973  -30.7952   -5.7361 O   0  0  0  0  0  0  0  0  0  0  0  0
   18.6231  -31.2022   -3.5402 C   0  0  0  0  0  0  0  0  0  0  0  0
   17.2648  -31.5406   -2.9635 C   0  0  0  0  0  0  0  0  0  0  0  0
   16.7350  -30.3830   -2.1176 C   0  0  2  0  0  0  0  0  0  0  0  0
   17.5805  -29.2181   -2.3550 N   0  0  0  0  0  0  0  0  0  0  0  0
   16.7052  -30.7691   -0.7037 C   0  0  0  0  0  0  0  0  0  0  0  0
   15.9770  -31.8897   -0.3313 O   0  0  0  0  0  0  0  0  0  0  0  0
   17.3098  -30.1342    0.2024 O   0  0  0  0  0  0  0  0  0  0  0  0
  2  1  1  6
  2  3  1  0
  2 13  1  0
  3  4  1  0
  4 12  1  0
  4  5  2  0
  5  6  1  0
  7  6  1  0
  7  8  2  0
  9  8  1  0
 10  9  2  0
 11 12  2  0
 11 10  1  0
 12  7  1  0
 13 14  2  0
 16 15  1  0
 17 16  1  1
 17 19  1  0
 18 13  1  0
 18 17  1  0
 19 27  1  0
 19 20  2  0
 21 22  1  0
 22 23  2  0
 24 22  1  0
 24 25  1  0
 26 25  1  6
 26 28  1  0
 27 26  1  0
 28 30  2  0
 28 29  1  0
M  END
$$$$
