WSQ.pdb
     RDKit          3D

 30 31  0  0  1  0  0  0  0  0999 V2000
   24.8973  -21.2868  -12.4060 N   0  0  0  0  0  0  0  0  0  0  0  0
   24.5000  -21.2274  -11.0414 C   0  0  1  0  0  0  0  0  0  0  0  0
   25.1652  -20.1678  -10.2172 C   0  0  0  0  0  0  0  0  0  0  0  0
   26.5541  -20.5608   -9.8701 C   0  0  0  0  0  0  0  0  0  0  0  0
   27.3916  -21.3057  -10.6999 C   0  0  0  0  0  0  0  0  0  0  0  0
   28.5751  -21.5242  -10.1136 N   0  0  0  0  0  0  0  0  0  0  0  0
   28.5205  -20.9274   -8.9044 C   0  0  0  0  0  0  0  0  0  0  0  0
   29.4564  -20.8331   -7.8876 C   0  0  0  0  0  0  0  0  0  0  0  0
   29.1491  -20.1503   -6.7325 C   0  0  0  0  0  0  0  0  0  0  0  0
   27.9382  -19.5536   -6.5489 C   0  0  0  0  0  0  0  0  0  0  0  0
   26.9818  -19.6397   -7.5660 C   0  0  0  0  0  0  0  0  0  0  0  0
   27.2875  -20.3232   -8.7224 C   0  0  0  0  0  0  0  0  0  0  0  0
   23.0401  -21.0902  -10.8528 C   0  0  0  0  0  0  0  0  0  0  0  0
   22.6260  -19.9807  -10.4085 O   0  0  0  0  0  0  0  0  0  0  0  0
   20.2725  -23.7967  -12.1951 O   0  0  0  0  0  0  0  0  0  0  0  0
   19.8138  -22.5122  -11.9035 C   0  0  0  0  0  0  0  0  0  0  0  0
   20.6914  -21.8903  -10.8224 C   0  0  2  0  0  0  0  0  0  0  0  0
   22.0768  -22.0735  -11.1207 N   0  0  0  0  0  0  0  0  0  0  0  0
   20.2837  -22.5230   -9.5493 C   0  0  0  0  0  0  0  0  0  0  0  0
   21.1187  -23.2454   -8.9466 O   0  0  0  0  0  0  0  0  0  0  0  0
   14.8329  -21.9368   -6.4462 N   0  0  0  0  0  0  0  0  0  0  0  0
   15.4834  -22.9139   -5.6516 C   0  0  0  0  0  0  0  0  0  0  0  0
   14.9200  -23.3223   -4.6140 O   0  0  0  0  0  0  0  0  0  0  0  0
   16.8086  -23.4093   -6.0894 C   0  0  0  0  0  0  0  0  0  0  0  0
   17.2421  -22.6699   -7.3373 C   0  0  0  0  0  0  0  0  0  0  0  0
   18.6223  -23.1435   -7.7923 C   0  0  2  0  0  0  0  0  0  0  0  0
   19.0096  -22.3660   -8.9644 N   0  0  0  0  0  0  0  0  0  0  0  0
   18.5923  -24.5834   -8.0657 C   0  0  0  0  0  0  0  0  0  0  0  0
   18.9493  -25.4640   -7.0548 O   0  0  0  0  0  0  0  0  0  0  0  0
   18.2571  -25.0721   -9.1786 O   0  0  0  0  0  0  0  0  0  0  0  0
  2  1  1  6
  2  3  1  0
  2 13  1  0
  3  4  1  0
  4 12  1  0
  4  5  2  0
  5  6  1  0
  7  6  1  0
  7  8  2  0
  9  8  1  0
 10  9  2  0
 11 12  2  0
 11 10  1  0
 12  7  1  0
 13 14  2  0
 16 15  1  0
 17 16  1  6
 17 19  1  0
 18 13  1  0
 18 17  1  0
 19 27  1  0
 19 20  2  0
 21 22  1  0
 22 23  2  0
 24 22  1  0
 24 25  1  0
 26 25  1  6
 26 28  1  0
 27 26  1  0
 28 30  2  0
 28 29  1  0
M  END
$$$$
