WSQ.pdb
     RDKit          3D

 30 31  0  0  1  0  0  0  0  0999 V2000
   27.5313  -21.4948  -15.7032 N   0  0  0  0  0  0  0  0  0  0  0  0
   27.1850  -20.6844  -14.5867 C   0  0  1  0  0  0  0  0  0  0  0  0
   26.6273  -19.3329  -14.9136 C   0  0  0  0  0  0  0  0  0  0  0  0
   27.4952  -18.6229  -15.8866 C   0  0  0  0  0  0  0  0  0  0  0  0
   28.8887  -18.6079  -15.8330 C   0  0  0  0  0  0  0  0  0  0  0  0
   29.3978  -17.8701  -16.8272 N   0  0  0  0  0  0  0  0  0  0  0  0
   28.3481  -17.4009  -17.5336 C   0  0  0  0  0  0  0  0  0  0  0  0
   28.2893  -16.5953  -18.6590 C   0  0  0  0  0  0  0  0  0  0  0  0
   27.0689  -16.2583  -19.1994 C   0  0  0  0  0  0  0  0  0  0  0  0
   25.8967  -16.6951  -18.6595 C   0  0  0  0  0  0  0  0  0  0  0  0
   25.9387  -17.5092  -17.5228 C   0  0  0  0  0  0  0  0  0  0  0  0
   27.1592  -17.8468  -16.9804 C   0  0  0  0  0  0  0  0  0  0  0  0
   26.2514  -21.3378  -13.6447 C   0  0  0  0  0  0  0  0  0  0  0  0
   25.4028  -22.1316  -14.1442 O   0  0  0  0  0  0  0  0  0  0  0  0
   25.8710  -19.8539   -9.8918 O   0  0  0  0  0  0  0  0  0  0  0  0
   25.3049  -21.1241   -9.9991 C   0  0  0  0  0  0  0  0  0  0  0  0
   25.0645  -21.4530  -11.4687 C   0  0  2  0  0  0  0  0  0  0  0  0
   26.2212  -21.1587  -12.2543 N   0  0  0  0  0  0  0  0  0  0  0  0
   23.8747  -20.6735  -11.8738 C   0  0  0  0  0  0  0  0  0  0  0  0
   24.0222  -19.4532  -12.1411 O   0  0  0  0  0  0  0  0  0  0  0  0
   21.3065  -24.2150  -15.0394 N   0  0  0  0  0  0  0  0  0  0  0  0
   20.8892  -22.8640  -15.1382 C   0  0  0  0  0  0  0  0  0  0  0  0
   20.8823  -22.3138  -16.2599 O   0  0  0  0  0  0  0  0  0  0  0  0
   20.4780  -22.1615  -13.9009 C   0  0  0  0  0  0  0  0  0  0  0  0
   21.1120  -20.7873  -13.8606 C   0  0  0  0  0  0  0  0  0  0  0  0
   21.4557  -20.3943  -12.4241 C   0  0  2  0  0  0  0  0  0  0  0  0
   22.5767  -21.2158  -11.9806 N   0  0  0  0  0  0  0  0  0  0  0  0
   20.2773  -20.5526  -11.5665 C   0  0  0  0  0  0  0  0  0  0  0  0
   19.1792  -19.7322  -11.7803 O   0  0  0  0  0  0  0  0  0  0  0  0
   20.2044  -21.4003  -10.6361 O   0  0  0  0  0  0  0  0  0  0  0  0
  2  1  1  6
  2  3  1  0
  2 13  1  0
  3  4  1  0
  4 12  1  0
  4  5  2  0
  5  6  1  0
  7  6  1  0
  7  8  2  0
  9  8  1  0
 10  9  2  0
 11 12  2  0
 11 10  1  0
 12  7  1  0
 13 14  2  0
 16 15  1  0
 17 16  1  1
 17 19  1  0
 18 13  1  0
 18 17  1  0
 19 27  1  0
 19 20  2  0
 21 22  1  0
 22 23  2  0
 24 22  1  0
 24 25  1  0
 26 25  1  6
 26 28  1  0
 27 26  1  0
 28 30  2  0
 28 29  1  0
M  END
$$$$
