WSQ.pdb
     RDKit          3D

 30 31  0  0  1  0  0  0  0  0999 V2000
   28.2392  -21.4089   -9.9295 N   0  0  0  0  0  0  0  0  0  0  0  0
   26.8856  -21.0662   -9.6579 C   0  0  1  0  0  0  0  0  0  0  0  0
   26.6829  -19.8980   -8.7421 C   0  0  0  0  0  0  0  0  0  0  0  0
   26.7811  -20.3157   -7.3208 C   0  0  0  0  0  0  0  0  0  0  0  0
   25.8731  -21.1622   -6.6851 C   0  0  0  0  0  0  0  0  0  0  0  0
   26.2059  -21.3431   -5.4012 N   0  0  0  0  0  0  0  0  0  0  0  0
   27.3264  -20.6216   -5.1895 C   0  0  0  0  0  0  0  0  0  0  0  0
   28.1016  -20.4471   -4.0548 C   0  0  0  0  0  0  0  0  0  0  0  0
   29.2212  -19.6477   -4.1042 C   0  0  0  0  0  0  0  0  0  0  0  0
   29.6019  -19.0109   -5.2469 C   0  0  0  0  0  0  0  0  0  0  0  0
   28.8297  -19.1765   -6.4014 C   0  0  0  0  0  0  0  0  0  0  0  0
   27.7086  -19.9756   -6.3536 C   0  0  0  0  0  0  0  0  0  0  0  0
   26.0775  -20.8277  -10.8728 C   0  0  0  0  0  0  0  0  0  0  0  0
   26.1649  -19.6801  -11.3975 O   0  0  0  0  0  0  0  0  0  0  0  0
   23.7276  -22.3517  -14.7572 O   0  0  0  0  0  0  0  0  0  0  0  0
   24.2956  -22.7031  -13.5328 C   0  0  0  0  0  0  0  0  0  0  0  0
   24.5062  -21.4499  -12.6896 C   0  0  2  0  0  0  0  0  0  0  0  0
   25.2271  -21.7537  -11.4938 N   0  0  0  0  0  0  0  0  0  0  0  0
   23.1583  -20.8993  -12.4301 C   0  0  0  0  0  0  0  0  0  0  0  0
   22.5258  -21.3157  -11.4257 O   0  0  0  0  0  0  0  0  0  0  0  0
   20.1522  -16.2319  -15.3891 N   0  0  0  0  0  0  0  0  0  0  0  0
   19.1693  -16.6222  -14.4454 C   0  0  0  0  0  0  0  0  0  0  0  0
   18.0798  -16.0113  -14.4194 O   0  0  0  0  0  0  0  0  0  0  0  0
   19.4796  -17.7425  -13.5278 C   0  0  0  0  0  0  0  0  0  0  0  0
   20.8756  -18.2578  -13.8067 C   0  0  0  0  0  0  0  0  0  0  0  0
   21.1527  -19.5265  -13.0007 C   0  0  2  0  0  0  0  0  0  0  0  0
   22.5336  -19.9301  -13.2428 N   0  0  0  0  0  0  0  0  0  0  0  0
   20.1951  -20.5732  -13.3699 C   0  0  0  0  0  0  0  0  0  0  0  0
   19.0779  -20.7699  -12.5712 O   0  0  0  0  0  0  0  0  0  0  0  0
   20.3303  -21.3125  -14.3823 O   0  0  0  0  0  0  0  0  0  0  0  0
  2  1  1  6
  2  3  1  0
  2 13  1  0
  3  4  1  0
  4 12  1  0
  4  5  2  0
  5  6  1  0
  7  6  1  0
  7  8  2  0
  9  8  1  0
 10  9  2  0
 11 12  2  0
 11 10  1  0
 12  7  1  0
 13 14  2  0
 16 15  1  0
 17 16  1  6
 17 19  1  0
 18 13  1  0
 18 17  1  0
 19 27  1  0
 19 20  2  0
 21 22  1  0
 22 23  2  0
 24 22  1  0
 24 25  1  0
 26 25  1  6
 26 28  1  0
 27 26  1  0
 28 30  2  0
 28 29  1  0
M  END
$$$$
