WSQ.pdb
     RDKit          3D

 30 31  0  0  1  0  0  0  0  0999 V2000
   25.4371  -19.4721  -12.0739 N   0  0  0  0  0  0  0  0  0  0  0  0
   26.4804  -20.4090  -12.3128 C   0  0  1  0  0  0  0  0  0  0  0  0
   26.5144  -21.5912  -11.3930 C   0  0  0  0  0  0  0  0  0  0  0  0
   26.5030  -21.1580   -9.9730 C   0  0  0  0  0  0  0  0  0  0  0  0
   25.3455  -20.9414   -9.2259 C   0  0  0  0  0  0  0  0  0  0  0  0
   25.6454  -20.5373   -7.9854 N   0  0  0  0  0  0  0  0  0  0  0  0
   26.9920  -20.4875   -7.9128 C   0  0  0  0  0  0  0  0  0  0  0  0
   27.8400  -20.1414   -6.8736 C   0  0  0  0  0  0  0  0  0  0  0  0
   29.2036  -20.1788   -7.0584 C   0  0  0  0  0  0  0  0  0  0  0  0
   29.7598  -20.5500   -8.2455 C   0  0  0  0  0  0  0  0  0  0  0  0
   28.9172  -20.9024   -9.3050 C   0  0  0  0  0  0  0  0  0  0  0  0
   27.5524  -20.8648   -9.1220 C   0  0  0  0  0  0  0  0  0  0  0  0
   26.5142  -20.9201  -13.6997 C   0  0  0  0  0  0  0  0  0  0  0  0
   25.4015  -21.0378  -14.2895 O   0  0  0  0  0  0  0  0  0  0  0  0
   29.7037  -22.5800  -15.2384 O   0  0  0  0  0  0  0  0  0  0  0  0
   28.9935  -22.0404  -16.3106 C   0  0  0  0  0  0  0  0  0  0  0  0
   27.6383  -21.5380  -15.8237 C   0  0  2  0  0  0  0  0  0  0  0  0
   27.6623  -21.2843  -14.4177 N   0  0  0  0  0  0  0  0  0  0  0  0
   26.6548  -22.5729  -16.2096 C   0  0  0  0  0  0  0  0  0  0  0  0
   26.4146  -23.5021  -15.3964 O   0  0  0  0  0  0  0  0  0  0  0  0
   22.8290  -22.7681  -14.1820 N   0  0  0  0  0  0  0  0  0  0  0  0
   21.8641  -22.8410  -15.2177 C   0  0  0  0  0  0  0  0  0  0  0  0
   20.6918  -23.1635  -14.9302 O   0  0  0  0  0  0  0  0  0  0  0  0
   22.2910  -22.5299  -16.6013 C   0  0  0  0  0  0  0  0  0  0  0  0
   23.7435  -22.1030  -16.6024 C   0  0  0  0  0  0  0  0  0  0  0  0
   24.5710  -23.0097  -17.5132 C   0  0  2  0  0  0  0  0  0  0  0  0
   25.9642  -22.5835  -17.4398 N   0  0  0  0  0  0  0  0  0  0  0  0
   24.0457  -22.9588  -18.8809 C   0  0  0  0  0  0  0  0  0  0  0  0
   23.2306  -23.9906  -19.3233 O   0  0  0  0  0  0  0  0  0  0  0  0
   24.2951  -22.0213  -19.6862 O   0  0  0  0  0  0  0  0  0  0  0  0
  2  1  1  6
  2  3  1  0
  2 13  1  0
  3  4  1  0
  4 12  1  0
  4  5  2  0
  5  6  1  0
  7  6  1  0
  7  8  2  0
  9  8  1  0
 10  9  2  0
 11 12  2  0
 11 10  1  0
 12  7  1  0
 13 14  2  0
 16 15  1  0
 17 16  1  1
 17 19  1  0
 18 13  1  0
 18 17  1  0
 19 27  1  0
 19 20  2  0
 21 22  1  0
 22 23  2  0
 24 22  1  0
 24 25  1  0
 26 25  1  1
 26 28  1  0
 27 26  1  0
 28 30  2  0
 28 29  1  0
M  END
$$$$
