WSQ.pdb
     RDKit          3D

 30 31  0  0  1  0  0  0  0  0999 V2000
   25.0616  -19.3161   -9.3496 N   0  0  0  0  0  0  0  0  0  0  0  0
   26.2666  -19.9736   -9.7225 C   0  0  1  0  0  0  0  0  0  0  0  0
   26.6146  -21.1929   -8.9246 C   0  0  0  0  0  0  0  0  0  0  0  0
   26.7578  -20.8606   -7.4847 C   0  0  0  0  0  0  0  0  0  0  0  0
   25.7172  -20.9140   -6.5578 C   0  0  0  0  0  0  0  0  0  0  0  0
   26.1386  -20.5401   -5.3434 N   0  0  0  0  0  0  0  0  0  0  0  0
   27.4490  -20.2419   -5.4666 C   0  0  0  0  0  0  0  0  0  0  0  0
   28.3800  -19.8086   -4.5370 C   0  0  0  0  0  0  0  0  0  0  0  0
   29.6804  -19.5763   -4.9242 C   0  0  0  0  0  0  0  0  0  0  0  0
   30.0930  -19.7600   -6.2097 C   0  0  0  0  0  0  0  0  0  0  0  0
   29.1650  -20.1970   -7.1607 C   0  0  0  0  0  0  0  0  0  0  0  0
   27.8631  -20.4293   -6.7750 C   0  0  0  0  0  0  0  0  0  0  0  0
   26.3237  -20.3436  -11.1528 C   0  0  0  0  0  0  0  0  0  0  0  0
   25.2220  -20.6039  -11.7171 O   0  0  0  0  0  0  0  0  0  0  0  0
   29.4354  -21.6673  -13.4057 O   0  0  0  0  0  0  0  0  0  0  0  0
   28.8458  -20.5275  -13.9521 C   0  0  0  0  0  0  0  0  0  0  0  0
   27.4513  -20.3421  -13.3632 C   0  0  2  0  0  0  0  0  0  0  0  0
   27.4826  -20.4316  -11.9374 N   0  0  0  0  0  0  0  0  0  0  0  0
   26.6006  -21.3765  -13.9906 C   0  0  0  0  0  0  0  0  0  0  0  0
   26.4881  -22.4886  -13.4135 O   0  0  0  0  0  0  0  0  0  0  0  0
   21.9254  -20.6485  -12.4023 N   0  0  0  0  0  0  0  0  0  0  0  0
   21.3835  -21.4799  -13.4143 C   0  0  0  0  0  0  0  0  0  0  0  0
   20.1854  -21.8256  -13.3356 O   0  0  0  0  0  0  0  0  0  0  0  0
   22.2663  -21.9038  -14.5253 C   0  0  0  0  0  0  0  0  0  0  0  0
   23.6675  -21.3809  -14.2905 C   0  0  0  0  0  0  0  0  0  0  0  0
   24.6013  -21.8161  -15.4195 C   0  0  2  0  0  0  0  0  0  0  0  0
   25.9027  -21.1933  -15.2028 N   0  0  0  0  0  0  0  0  0  0  0  0
   24.0212  -21.4543  -16.7163 C   0  0  0  0  0  0  0  0  0  0  0  0
   24.3868  -20.2501  -17.3002 O   0  0  0  0  0  0  0  0  0  0  0  0
   23.2004  -22.1825  -17.3373 O   0  0  0  0  0  0  0  0  0  0  0  0
  2  1  1  1
  2  3  1  0
  2 13  1  0
  3  4  1  0
  4 12  1  0
  4  5  2  0
  5  6  1  0
  7  6  1  0
  7  8  2  0
  9  8  1  0
 10  9  2  0
 11 12  2  0
 11 10  1  0
 12  7  1  0
 13 14  2  0
 16 15  1  0
 17 16  1  6
 17 19  1  0
 18 13  1  0
 18 17  1  0
 19 27  1  0
 19 20  2  0
 21 22  1  0
 22 23  2  0
 24 22  1  0
 24 25  1  0
 26 25  1  1
 26 28  1  0
 27 26  1  0
 28 30  2  0
 28 29  1  0
M  END
$$$$
