WSQ.pdb
     RDKit          3D

 30 31  0  0  1  0  0  0  0  0999 V2000
   27.7685  -20.9524  -15.6813 N   0  0  0  0  0  0  0  0  0  0  0  0
   26.9217  -20.2303  -14.7953 C   0  0  1  0  0  0  0  0  0  0  0  0
   25.9288  -19.3168  -15.4466 C   0  0  0  0  0  0  0  0  0  0  0  0
   26.6159  -18.2225  -16.1776 C   0  0  0  0  0  0  0  0  0  0  0  0
   27.1275  -18.3396  -17.4698 C   0  0  0  0  0  0  0  0  0  0  0  0
   27.7094  -17.1987  -17.8592 N   0  0  0  0  0  0  0  0  0  0  0  0
   27.5831  -16.3330  -16.8317 C   0  0  0  0  0  0  0  0  0  0  0  0
   27.9946  -15.0182  -16.6872 C   0  0  0  0  0  0  0  0  0  0  0  0
   27.7332  -14.3414  -15.5174 C   0  0  0  0  0  0  0  0  0  0  0  0
   27.0735  -14.9263  -14.4787 C   0  0  0  0  0  0  0  0  0  0  0  0
   26.6514  -16.2536  -14.6085 C   0  0  0  0  0  0  0  0  0  0  0  0
   26.9128  -16.9326  -15.7783 C   0  0  0  0  0  0  0  0  0  0  0  0
   26.1830  -21.0902  -13.8462 C   0  0  0  0  0  0  0  0  0  0  0  0
   25.6851  -22.1551  -14.3130 O   0  0  0  0  0  0  0  0  0  0  0  0
   25.7098  -20.0625   -9.9553 O   0  0  0  0  0  0  0  0  0  0  0  0
   25.2424  -21.3494  -10.2214 C   0  0  0  0  0  0  0  0  0  0  0  0
   24.9773  -21.4970  -11.7160 C   0  0  2  0  0  0  0  0  0  0  0  0
   25.9853  -20.8342  -12.4818 N   0  0  0  0  0  0  0  0  0  0  0  0
   23.6216  -20.9531  -11.9475 C   0  0  0  0  0  0  0  0  0  0  0  0
   23.3961  -19.7562  -11.6330 O   0  0  0  0  0  0  0  0  0  0  0  0
   22.5368  -22.9526  -15.5250 N   0  0  0  0  0  0  0  0  0  0  0  0
   22.4138  -21.6007  -15.9328 C   0  0  0  0  0  0  0  0  0  0  0  0
   23.1200  -21.1873  -16.8770 O   0  0  0  0  0  0  0  0  0  0  0  0
   21.4488  -20.7343  -15.2176 C   0  0  0  0  0  0  0  0  0  0  0  0
   20.7671  -21.5268  -14.1226 C   0  0  0  0  0  0  0  0  0  0  0  0
   21.2599  -21.0791  -12.7467 C   0  0  2  0  0  0  0  0  0  0  0  0
   22.5590  -21.6965  -12.5028 N   0  0  0  0  0  0  0  0  0  0  0  0
   20.2742  -21.4352  -11.7218 C   0  0  0  0  0  0  0  0  0  0  0  0
   19.0012  -20.8892  -11.7995 O   0  0  0  0  0  0  0  0  0  0  0  0
   20.5200  -22.2173  -10.7639 O   0  0  0  0  0  0  0  0  0  0  0  0
  2  1  1  6
  2  3  1  0
  2 13  1  0
  3  4  1  0
  4 12  1  0
  4  5  2  0
  5  6  1  0
  7  6  1  0
  7  8  2  0
  9  8  1  0
 10  9  2  0
 11 12  2  0
 11 10  1  0
 12  7  1  0
 13 14  2  0
 16 15  1  0
 17 16  1  1
 17 19  1  0
 18 13  1  0
 18 17  1  0
 19 27  1  0
 19 20  2  0
 21 22  1  0
 22 23  2  0
 24 22  1  0
 24 25  1  0
 26 25  1  6
 26 28  1  0
 27 26  1  0
 28 30  2  0
 28 29  1  0
M  END
$$$$
