WSQ.pdb
     RDKit          3D

 30 31  0  0  1  0  0  0  0  0999 V2000
   28.2614  -20.2238   -9.6800 N   0  0  0  0  0  0  0  0  0  0  0  0
   27.0261  -20.9019   -9.4862 C   0  0  1  0  0  0  0  0  0  0  0  0
   26.3350  -20.6325   -8.1846 C   0  0  0  0  0  0  0  0  0  0  0  0
   27.2504  -19.9612   -7.2277 C   0  0  0  0  0  0  0  0  0  0  0  0
   27.7671  -18.6777   -7.4020 C   0  0  0  0  0  0  0  0  0  0  0  0
   28.5785  -18.3470   -6.3899 N   0  0  0  0  0  0  0  0  0  0  0  0
   28.5977  -19.4047   -5.5519 C   0  0  0  0  0  0  0  0  0  0  0  0
   29.2610  -19.6104   -4.3533 C   0  0  0  0  0  0  0  0  0  0  0  0
   29.1055  -20.7997   -3.6777 C   0  0  0  0  0  0  0  0  0  0  0  0
   28.3101  -21.7990   -4.1520 C   0  0  0  0  0  0  0  0  0  0  0  0
   27.6336  -21.6072   -5.3612 C   0  0  0  0  0  0  0  0  0  0  0  0
   27.7885  -20.4179   -6.0389 C   0  0  0  0  0  0  0  0  0  0  0  0
   26.0459  -20.6726  -10.5691 C   0  0  0  0  0  0  0  0  0  0  0  0
   25.4755  -19.5439  -10.5899 O   0  0  0  0  0  0  0  0  0  0  0  0
   24.4965  -23.5838  -13.0527 O   0  0  0  0  0  0  0  0  0  0  0  0
   24.7529  -22.3639  -13.6782 C   0  0  0  0  0  0  0  0  0  0  0  0
   24.7976  -21.2540  -12.6332 C   0  0  2  0  0  0  0  0  0  0  0  0
   25.6927  -21.5882  -11.5707 N   0  0  0  0  0  0  0  0  0  0  0  0
   23.4034  -21.0629  -12.1784 C   0  0  0  0  0  0  0  0  0  0  0  0
   23.0364  -21.6346  -11.1197 O   0  0  0  0  0  0  0  0  0  0  0  0
   19.5819  -16.4298  -13.5646 N   0  0  0  0  0  0  0  0  0  0  0  0
   20.3318  -17.1286  -14.5435 C   0  0  0  0  0  0  0  0  0  0  0  0
   20.5073  -16.5999  -15.6618 O   0  0  0  0  0  0  0  0  0  0  0  0
   20.8764  -18.4610  -14.1950 C   0  0  0  0  0  0  0  0  0  0  0  0
   20.5478  -18.7843  -12.7530 C   0  0  0  0  0  0  0  0  0  0  0  0
   21.0820  -20.1657  -12.3752 C   0  0  2  0  0  0  0  0  0  0  0  0
   22.4532  -20.2747  -12.8612 N   0  0  0  0  0  0  0  0  0  0  0  0
   20.2118  -21.2074  -12.9289 C   0  0  0  0  0  0  0  0  0  0  0  0
   20.6814  -21.9831  -13.9789 O   0  0  0  0  0  0  0  0  0  0  0  0
   19.0490  -21.4408  -12.5010 O   0  0  0  0  0  0  0  0  0  0  0  0
  2  1  1  6
  2  3  1  0
  2 13  1  0
  3  4  1  0
  4 12  1  0
  4  5  2  0
  5  6  1  0
  7  6  1  0
  7  8  2  0
  9  8  1  0
 10  9  2  0
 11 12  2  0
 11 10  1  0
 12  7  1  0
 13 14  2  0
 16 15  1  0
 17 16  1  6
 17 19  1  0
 18 13  1  0
 18 17  1  0
 19 27  1  0
 19 20  2  0
 21 22  1  0
 22 23  2  0
 24 22  1  0
 24 25  1  0
 26 25  1  6
 26 28  1  0
 27 26  1  0
 28 30  2  0
 28 29  1  0
M  END
$$$$
