WSQ.pdb
     RDKit          3D

 30 31  0  0  1  0  0  0  0  0999 V2000
   24.8503  -20.1087  -16.2842 N   0  0  0  0  0  0  0  0  0  0  0  0
   23.9685  -19.1446  -15.7217 C   0  0  1  0  0  0  0  0  0  0  0  0
   23.5645  -18.0253  -16.6319 C   0  0  0  0  0  0  0  0  0  0  0  0
   24.7456  -17.2268  -17.0460 C   0  0  0  0  0  0  0  0  0  0  0  0
   25.5852  -17.5574  -18.1094 C   0  0  0  0  0  0  0  0  0  0  0  0
   26.5760  -16.6656  -18.2319 N   0  0  0  0  0  0  0  0  0  0  0  0
   26.3926  -15.7514  -17.2563 C   0  0  0  0  0  0  0  0  0  0  0  0
   27.1111  -14.6159  -16.9197 C   0  0  0  0  0  0  0  0  0  0  0  0
   26.7038  -13.8337  -15.8627 C   0  0  0  0  0  0  0  0  0  0  0  0
   25.6015  -14.1399  -15.1227 C   0  0  0  0  0  0  0  0  0  0  0  0
   24.8651  -15.2833  -15.4495 C   0  0  0  0  0  0  0  0  0  0  0  0
   25.2717  -16.0676  -16.5065 C   0  0  0  0  0  0  0  0  0  0  0  0
   22.7340  -19.7278  -15.1545 C   0  0  0  0  0  0  0  0  0  0  0  0
   22.2589  -20.7394  -15.7468 O   0  0  0  0  0  0  0  0  0  0  0  0
   20.4224  -18.1567  -11.9717 O   0  0  0  0  0  0  0  0  0  0  0  0
   20.6329  -19.5326  -12.0600 C   0  0  0  0  0  0  0  0  0  0  0  0
   20.8818  -19.9184  -13.5142 C   0  0  2  0  0  0  0  0  0  0  0  0
   22.0449  -19.2638  -14.0248 N   0  0  0  0  0  0  0  0  0  0  0  0
   19.6480  -19.5650  -14.2490 C   0  0  0  0  0  0  0  0  0  0  0  0
   19.4971  -18.3744  -14.6260 O   0  0  0  0  0  0  0  0  0  0  0  0
   15.5521  -23.1039  -16.4484 N   0  0  0  0  0  0  0  0  0  0  0  0
   16.9188  -23.4361  -16.2732 C   0  0  0  0  0  0  0  0  0  0  0  0
   17.2419  -24.6397  -16.1843 O   0  0  0  0  0  0  0  0  0  0  0  0
   17.9077  -22.3358  -16.2031 C   0  0  0  0  0  0  0  0  0  0  0  0
   17.2163  -21.0128  -16.4549 C   0  0  0  0  0  0  0  0  0  0  0  0
   17.4280  -20.0615  -15.2774 C   0  0  2  0  0  0  0  0  0  0  0  0
   18.6234  -20.4848  -14.5562 N   0  0  0  0  0  0  0  0  0  0  0  0
   16.2374  -20.0512  -14.4221 C   0  0  0  0  0  0  0  0  0  0  0  0
   16.3542  -20.4795  -13.1077 O   0  0  0  0  0  0  0  0  0  0  0  0
   15.1018  -19.6716  -14.8171 O   0  0  0  0  0  0  0  0  0  0  0  0
  2  1  1  6
  2  3  1  0
  2 13  1  0
  3  4  1  0
  4 12  1  0
  4  5  2  0
  5  6  1  0
  7  6  1  0
  7  8  2  0
  9  8  1  0
 10  9  2  0
 11 12  2  0
 11 10  1  0
 12  7  1  0
 13 14  2  0
 16 15  1  0
 17 16  1  1
 17 19  1  0
 18 13  1  0
 18 17  1  0
 19 27  1  0
 19 20  2  0
 21 22  1  0
 22 23  2  0
 24 22  1  0
 24 25  1  0
 26 25  1  6
 26 28  1  0
 27 26  1  0
 28 30  2  0
 28 29  1  0
M  END
$$$$
