EEC.pdb
     RDKit          3D

 25 24  0  0  1  0  0  0  0  0999 V2000
   16.8557  -13.2398  -14.8057 N   0  0  0  0  0  0  0  0  0  0  0  0
   16.3358  -11.9160  -14.8044 C   0  0  1  0  0  0  0  0  0  0  0  0
   14.8555  -11.7995  -14.7232 C   0  0  0  0  0  0  0  0  0  0  0  0
   14.1746  -12.4816  -15.8508 C   0  0  0  0  0  0  0  0  0  0  0  0
   14.0179  -13.9183  -15.5937 C   0  0  0  0  0  0  0  0  0  0  0  0
   14.1635  -14.8137  -16.4403 O   0  0  0  0  0  0  0  0  0  0  0  0
   17.0093  -11.1357  -13.7106 C   0  0  0  0  0  0  0  0  0  0  0  0
   17.2425  -11.6526  -12.5978 O   0  0  0  0  0  0  0  0  0  0  0  0
   13.6789  -14.3197  -14.2989 O   0  0  0  0  0  0  0  0  0  0  0  0
   17.3848   -9.7946  -13.9464 N   0  0  0  0  0  0  0  0  0  0  0  0
   18.0398   -8.9692  -12.9481 C   0  0  1  0  0  0  0  0  0  0  0  0
   19.0482   -8.0287  -13.5711 C   0  0  0  0  0  0  0  0  0  0  0  0
   19.7557   -7.1936  -12.5469 C   0  0  0  0  0  0  0  0  0  0  0  0
   20.7179   -6.3055  -13.2244 C   0  0  0  0  0  0  0  0  0  0  0  0
   20.3323   -5.2254  -13.7079 O   0  0  0  0  0  0  0  0  0  0  0  0
   16.9579   -8.1994  -12.2597 C   0  0  0  0  0  0  0  0  0  0  0  0
   16.1141   -7.6221  -12.9798 O   0  0  0  0  0  0  0  0  0  0  0  0
   22.0414   -6.6674  -13.3242 O   0  0  0  0  0  0  0  0  0  0  0  0
   16.8502   -8.0988  -10.8635 N   0  0  0  0  0  0  0  0  0  0  0  0
   15.9150   -7.2275  -10.1982 C   0  0  1  0  0  0  0  0  0  0  0  0
   15.6017   -7.7754   -8.8218 C   0  0  0  0  0  0  0  0  0  0  0  0
   14.3443   -6.6842   -8.0687 S   0  0  0  0  0  0  0  0  0  0  0  0
   16.4643   -5.8687  -10.0151 C   0  0  0  0  0  0  0  0  0  0  0  0
   17.7491   -5.6642   -9.5834 O   0  0  0  0  0  0  0  0  0  0  0  0
   15.7241   -4.8833  -10.2652 O   0  0  0  0  0  0  0  0  0  0  0  0
  2  1  1  1
  3  4  1  0
  3  2  1  0
  5  4  1  0
  5  6  2  0
  7  2  1  0
  7  8  2  0
  9  5  1  0
 10  7  1  0
 11 10  1  0
 11 16  1  0
 11 12  1  6
 13 12  1  0
 14 13  1  0
 14 15  2  0
 16 17  2  0
 18 14  1  0
 19 16  1  0
 19 20  1  0
 20 23  1  0
 20 21  1  1
 22 21  1  0
 23 25  2  0
 23 24  1  0
M  END
$$$$
