EEC.pdb
     RDKit          3D

 25 24  0  0  1  0  0  0  0  0999 V2000
   20.2382  -13.5127  -19.2476 N   0  0  0  0  0  0  0  0  0  0  0  0
   20.7453  -13.0890  -17.9882 C   0  0  1  0  0  0  0  0  0  0  0  0
   22.2110  -13.2464  -17.7917 C   0  0  0  0  0  0  0  0  0  0  0  0
   22.8513  -13.9895  -18.9044 C   0  0  0  0  0  0  0  0  0  0  0  0
   24.3070  -14.0651  -18.7323 C   0  0  0  0  0  0  0  0  0  0  0  0
   25.0876  -14.6374  -19.5087 O   0  0  0  0  0  0  0  0  0  0  0  0
   20.3074  -11.6719  -17.7452 C   0  0  0  0  0  0  0  0  0  0  0  0
   20.5687  -10.7657  -18.5639 O   0  0  0  0  0  0  0  0  0  0  0  0
   24.8677  -13.4480  -17.6110 O   0  0  0  0  0  0  0  0  0  0  0  0
   19.5876  -11.3609  -16.5704 N   0  0  0  0  0  0  0  0  0  0  0  0
   19.0945  -10.0282  -16.2740 C   0  0  1  0  0  0  0  0  0  0  0  0
   17.7196  -10.0656  -15.6435 C   0  0  0  0  0  0  0  0  0  0  0  0
   16.6725  -10.5675  -16.5915 C   0  0  0  0  0  0  0  0  0  0  0  0
   15.3705  -10.6070  -15.9009 C   0  0  0  0  0  0  0  0  0  0  0  0
   14.4844   -9.7851  -16.1985 O   0  0  0  0  0  0  0  0  0  0  0  0
   20.0849   -9.4088  -15.3399 C   0  0  0  0  0  0  0  0  0  0  0  0
   20.1502   -9.8716  -14.1800 O   0  0  0  0  0  0  0  0  0  0  0  0
   15.1320  -11.5499  -14.9280 O   0  0  0  0  0  0  0  0  0  0  0  0
   20.9304   -8.3484  -15.7029 N   0  0  0  0  0  0  0  0  0  0  0  0
   21.9166   -7.7790  -14.8199 C   0  0  1  0  0  0  0  0  0  0  0  0
   23.2733   -7.8021  -15.4920 C   0  0  0  0  0  0  0  0  0  0  0  0
   23.7608   -9.5524  -15.6863 S   0  0  0  0  0  0  0  0  0  0  0  0
   21.6131   -6.3712  -14.4920 C   0  0  0  0  0  0  0  0  0  0  0  0
   20.6170   -5.6817  -15.1332 O   0  0  0  0  0  0  0  0  0  0  0  0
   22.2933   -5.8026  -13.6000 O   0  0  0  0  0  0  0  0  0  0  0  0
  2  1  1  6
  3  4  1  0
  3  2  1  0
  5  4  1  0
  5  6  2  0
  7  2  1  0
  7  8  2  0
  9  5  1  0
 10  7  1  0
 11 10  1  0
 11 16  1  0
 11 12  1  1
 13 12  1  0
 14 13  1  0
 14 15  2  0
 16 17  2  0
 18 14  1  0
 19 16  1  0
 19 20  1  0
 20 23  1  0
 20 21  1  6
 22 21  1  0
 23 25  2  0
 23 24  1  0
M  END
$$$$
