EEC.pdb
     RDKit          3D

 25 24  0  0  1  0  0  0  0  0999 V2000
   16.3806  -10.3066  -14.9715 N   0  0  0  0  0  0  0  0  0  0  0  0
   17.7513  -10.6586  -15.1124 C   0  0  1  0  0  0  0  0  0  0  0  0
   18.0315  -11.8600  -15.9429 C   0  0  0  0  0  0  0  0  0  0  0  0
   17.2698  -13.0487  -15.4878 C   0  0  0  0  0  0  0  0  0  0  0  0
   17.5351  -14.2148  -16.3390 C   0  0  0  0  0  0  0  0  0  0  0  0
   17.2184  -14.3108  -17.5349 O   0  0  0  0  0  0  0  0  0  0  0  0
   18.5076   -9.4585  -15.6093 C   0  0  0  0  0  0  0  0  0  0  0  0
   19.7244   -9.5292  -15.8817 O   0  0  0  0  0  0  0  0  0  0  0  0
   18.1949  -15.3065  -15.7687 O   0  0  0  0  0  0  0  0  0  0  0  0
   17.8294   -8.2301  -15.7706 N   0  0  0  0  0  0  0  0  0  0  0  0
   18.4724   -7.0321  -16.2788 C   0  0  1  0  0  0  0  0  0  0  0  0
   17.5017   -6.1514  -17.0347 C   0  0  0  0  0  0  0  0  0  0  0  0
   17.1883   -6.6897  -18.3981 C   0  0  0  0  0  0  0  0  0  0  0  0
   16.0904   -5.9040  -18.9903 C   0  0  0  0  0  0  0  0  0  0  0  0
   14.9147   -6.2971  -18.8785 O   0  0  0  0  0  0  0  0  0  0  0  0
   19.0214   -6.3100  -15.0895 C   0  0  0  0  0  0  0  0  0  0  0  0
   18.2968   -6.2406  -14.0727 O   0  0  0  0  0  0  0  0  0  0  0  0
   16.3615   -4.7371  -19.6666 O   0  0  0  0  0  0  0  0  0  0  0  0
   20.2937   -5.7168  -15.0657 N   0  0  0  0  0  0  0  0  0  0  0  0
   20.8527   -5.0790  -13.9007 C   0  0  1  0  0  0  0  0  0  0  0  0
   21.1110   -6.1168  -12.8288 C   0  0  0  0  0  0  0  0  0  0  0  0
   22.3218   -7.3100  -13.4990 S   0  0  0  0  0  0  0  0  0  0  0  0
   22.1429   -4.4247  -14.1982 C   0  0  0  0  0  0  0  0  0  0  0  0
   22.8133   -3.6926  -13.2530 O   0  0  0  0  0  0  0  0  0  0  0  0
   22.6277   -4.5503  -15.3519 O   0  0  0  0  0  0  0  0  0  0  0  0
  2  1  1  6
  3  4  1  0
  3  2  1  0
  5  4  1  0
  5  6  2  0
  7  2  1  0
  7  8  2  0
  9  5  1  0
 10  7  1  0
 11 10  1  0
 11 16  1  0
 11 12  1  1
 13 12  1  0
 14 13  1  0
 14 15  2  0
 16 17  2  0
 18 14  1  0
 19 16  1  0
 19 20  1  0
 20 23  1  0
 20 21  1  1
 22 21  1  0
 23 25  2  0
 23 24  1  0
M  END
$$$$
