EEC.pdb
     RDKit          3D

 25 24  0  0  1  0  0  0  0  0999 V2000
   19.7669  -12.0877  -15.9801 N   0  0  0  0  0  0  0  0  0  0  0  0
   19.2017  -10.7867  -16.0823 C   0  0  1  0  0  0  0  0  0  0  0  0
   17.8661  -10.6073  -15.4534 C   0  0  0  0  0  0  0  0  0  0  0  0
   16.8377  -11.4910  -16.0548 C   0  0  0  0  0  0  0  0  0  0  0  0
   15.5269  -11.2966  -15.4234 C   0  0  0  0  0  0  0  0  0  0  0  0
   14.9614  -12.1201  -14.6872 O   0  0  0  0  0  0  0  0  0  0  0  0
   20.1949   -9.7881  -15.5575 C   0  0  0  0  0  0  0  0  0  0  0  0
   20.8031   -9.9847  -14.4846 O   0  0  0  0  0  0  0  0  0  0  0  0
   14.8552  -10.0950  -15.6631 O   0  0  0  0  0  0  0  0  0  0  0  0
   20.4440   -8.6072  -16.2914 N   0  0  0  0  0  0  0  0  0  0  0  0
   21.5098   -7.6793  -15.9594 C   0  0  1  0  0  0  0  0  0  0  0  0
   22.5829   -7.6521  -17.0257 C   0  0  0  0  0  0  0  0  0  0  0  0
   23.5028   -8.8323  -16.9373 C   0  0  0  0  0  0  0  0  0  0  0  0
   24.5593   -8.7026  -17.9573 C   0  0  0  0  0  0  0  0  0  0  0  0
   25.7038   -8.3445  -17.6241 O   0  0  0  0  0  0  0  0  0  0  0  0
   20.8712   -6.3338  -15.8213 C   0  0  0  0  0  0  0  0  0  0  0  0
   19.8118   -6.1313  -16.4541 O   0  0  0  0  0  0  0  0  0  0  0  0
   24.2837   -8.9759  -19.2771 O   0  0  0  0  0  0  0  0  0  0  0  0
   21.4007   -5.3058  -15.0250 N   0  0  0  0  0  0  0  0  0  0  0  0
   20.7608   -4.0269  -14.8476 C   0  0  1  0  0  0  0  0  0  0  0  0
   19.4100   -4.2220  -14.1919 C   0  0  0  0  0  0  0  0  0  0  0  0
   18.7052   -2.5651  -13.8813 S   0  0  0  0  0  0  0  0  0  0  0  0
   21.5487   -3.1349  -13.9729 C   0  0  0  0  0  0  0  0  0  0  0  0
   21.6343   -1.7874  -14.2093 O   0  0  0  0  0  0  0  0  0  0  0  0
   22.1513   -3.6371  -12.9900 O   0  0  0  0  0  0  0  0  0  0  0  0
  2  1  1  1
  3  4  1  0
  3  2  1  0
  5  4  1  0
  5  6  2  0
  7  2  1  0
  7  8  2  0
  9  5  1  0
 10  7  1  0
 11 10  1  0
 11 16  1  0
 11 12  1  6
 13 12  1  0
 14 13  1  0
 14 15  2  0
 16 17  2  0
 18 14  1  0
 19 16  1  0
 19 20  1  0
 20 23  1  0
 20 21  1  1
 22 21  1  0
 23 25  2  0
 23 24  1  0
M  END
$$$$
