EEC.pdb
     RDKit          3D

 25 24  0  0  1  0  0  0  0  0999 V2000
   19.7530  -12.6687  -18.7241 N   0  0  0  0  0  0  0  0  0  0  0  0
   20.6751  -11.8177  -18.0547 C   0  0  1  0  0  0  0  0  0  0  0  0
   21.9871  -11.6244  -18.7275 C   0  0  0  0  0  0  0  0  0  0  0  0
   22.8649  -12.8134  -18.6013 C   0  0  0  0  0  0  0  0  0  0  0  0
   24.1891  -12.5679  -19.1850 C   0  0  0  0  0  0  0  0  0  0  0  0
   25.0457  -11.8045  -18.7126 O   0  0  0  0  0  0  0  0  0  0  0  0
   20.0016  -10.5033  -17.7757 C   0  0  0  0  0  0  0  0  0  0  0  0
   19.5252   -9.8125  -18.7007 O   0  0  0  0  0  0  0  0  0  0  0  0
   24.5212  -13.2409  -20.3637 O   0  0  0  0  0  0  0  0  0  0  0  0
   19.9062  -10.0424  -16.4440 N   0  0  0  0  0  0  0  0  0  0  0  0
   19.2005   -8.8288  -16.0753 C   0  0  1  0  0  0  0  0  0  0  0  0
   17.9671   -9.1251  -15.2504 C   0  0  0  0  0  0  0  0  0  0  0  0
   16.8132   -9.5760  -16.0942 C   0  0  0  0  0  0  0  0  0  0  0  0
   15.6683   -9.8945  -15.2217 C   0  0  0  0  0  0  0  0  0  0  0  0
   14.9334   -8.9812  -14.8032 O   0  0  0  0  0  0  0  0  0  0  0  0
   20.1682   -7.9973  -15.2947 C   0  0  0  0  0  0  0  0  0  0  0  0
   20.9606   -8.5965  -14.5351 O   0  0  0  0  0  0  0  0  0  0  0  0
   15.4098  -11.1986  -14.8682 O   0  0  0  0  0  0  0  0  0  0  0  0
   20.2247   -6.5969  -15.3766 N   0  0  0  0  0  0  0  0  0  0  0  0
   21.1432   -5.7915  -14.6124 C   0  0  1  0  0  0  0  0  0  0  0  0
   22.4342   -5.6225  -15.3854 C   0  0  0  0  0  0  0  0  0  0  0  0
   23.5256   -4.5358  -14.4022 S   0  0  0  0  0  0  0  0  0  0  0  0
   20.6059   -4.4401  -14.3545 C   0  0  0  0  0  0  0  0  0  0  0  0
   20.9896   -3.7101  -13.2596 O   0  0  0  0  0  0  0  0  0  0  0  0
   19.7761   -3.9588  -15.1677 O   0  0  0  0  0  0  0  0  0  0  0  0
  2  1  1  6
  3  4  1  0
  3  2  1  0
  5  4  1  0
  5  6  2  0
  7  2  1  0
  7  8  2  0
  9  5  1  0
 10  7  1  0
 11 10  1  0
 11 16  1  0
 11 12  1  1
 13 12  1  0
 14 13  1  0
 14 15  2  0
 16 17  2  0
 18 14  1  0
 19 16  1  0
 19 20  1  0
 20 23  1  0
 20 21  1  6
 22 21  1  0
 23 25  2  0
 23 24  1  0
M  END
$$$$
