EEC.pdb
     RDKit          3D

 25 24  0  0  1  0  0  0  0  0999 V2000
   17.9264  -13.2639  -17.5446 N   0  0  0  0  0  0  0  0  0  0  0  0
   17.9800  -12.3966  -16.4187 C   0  0  1  0  0  0  0  0  0  0  0  0
   18.7674  -12.8881  -15.2568 C   0  0  0  0  0  0  0  0  0  0  0  0
   18.1925  -14.1230  -14.6695 C   0  0  0  0  0  0  0  0  0  0  0  0
   18.7562  -15.3267  -15.2923 C   0  0  0  0  0  0  0  0  0  0  0  0
   18.1681  -16.0450  -16.1157 O   0  0  0  0  0  0  0  0  0  0  0  0
   18.4573  -11.0460  -16.8741 C   0  0  0  0  0  0  0  0  0  0  0  0
   19.3040  -10.9337  -17.7852 O   0  0  0  0  0  0  0  0  0  0  0  0
   20.0547  -15.7018  -14.9378 O   0  0  0  0  0  0  0  0  0  0  0  0
   17.9383   -9.8845  -16.2604 N   0  0  0  0  0  0  0  0  0  0  0  0
   18.3031   -8.5415  -16.6728 C   0  0  1  0  0  0  0  0  0  0  0  0
   17.0896   -7.7222  -17.0543 C   0  0  0  0  0  0  0  0  0  0  0  0
   17.4474   -6.3150  -17.4265 C   0  0  0  0  0  0  0  0  0  0  0  0
   16.2224   -5.5846  -17.8000 C   0  0  0  0  0  0  0  0  0  0  0  0
   16.1045   -4.3800  -17.5097 O   0  0  0  0  0  0  0  0  0  0  0  0
   19.0130   -7.9208  -15.5117 C   0  0  0  0  0  0  0  0  0  0  0  0
   18.5887   -8.1896  -14.3665 O   0  0  0  0  0  0  0  0  0  0  0  0
   15.2085   -6.2309  -18.4686 O   0  0  0  0  0  0  0  0  0  0  0  0
   20.1166   -7.0640  -15.6497 N   0  0  0  0  0  0  0  0  0  0  0  0
   20.7679   -6.4198  -14.5373 C   0  0  1  0  0  0  0  0  0  0  0  0
   22.1128   -7.0703  -14.2907 C   0  0  0  0  0  0  0  0  0  0  0  0
   22.8943   -6.2018  -12.8858 S   0  0  0  0  0  0  0  0  0  0  0  0
   21.0145   -4.9874  -14.7993 C   0  0  0  0  0  0  0  0  0  0  0  0
   21.2654   -4.1028  -13.7827 O   0  0  0  0  0  0  0  0  0  0  0  0
   20.9908   -4.5821  -15.9896 O   0  0  0  0  0  0  0  0  0  0  0  0
  2  1  1  6
  3  4  1  0
  3  2  1  0
  5  4  1  0
  5  6  2  0
  7  2  1  0
  7  8  2  0
  9  5  1  0
 10  7  1  0
 11 10  1  0
 11 16  1  0
 11 12  1  1
 13 12  1  0
 14 13  1  0
 14 15  2  0
 16 17  2  0
 18 14  1  0
 19 16  1  0
 19 20  1  0
 20 23  1  0
 20 21  1  6
 22 21  1  0
 23 25  2  0
 23 24  1  0
M  END
$$$$
