EEC.pdb
     RDKit          3D

 25 24  0  0  1  0  0  0  0  0999 V2000
   14.3062  -10.8659  -14.6815 N   0  0  0  0  0  0  0  0  0  0  0  0
   14.9705  -10.0037  -15.5969 C   0  0  1  0  0  0  0  0  0  0  0  0
   14.3993   -8.6375  -15.7341 C   0  0  0  0  0  0  0  0  0  0  0  0
   14.3188   -7.9281  -14.4339 C   0  0  0  0  0  0  0  0  0  0  0  0
   13.6609   -6.6235  -14.5736 C   0  0  0  0  0  0  0  0  0  0  0  0
   14.2438   -5.5281  -14.5763 O   0  0  0  0  0  0  0  0  0  0  0  0
   16.4298   -9.9559  -15.2404 C   0  0  0  0  0  0  0  0  0  0  0  0
   16.8362  -10.3522  -14.1279 O   0  0  0  0  0  0  0  0  0  0  0  0
   12.2709   -6.6017  -14.7155 O   0  0  0  0  0  0  0  0  0  0  0  0
   17.3568   -9.4539  -16.1806 N   0  0  0  0  0  0  0  0  0  0  0  0
   18.7922   -9.4776  -15.9666 C   0  0  1  0  0  0  0  0  0  0  0  0
   19.5354   -9.9522  -17.1961 C   0  0  0  0  0  0  0  0  0  0  0  0
   21.0212   -9.9536  -16.9976 C   0  0  0  0  0  0  0  0  0  0  0  0
   21.6699  -10.5355  -18.1868 C   0  0  0  0  0  0  0  0  0  0  0  0
   21.4617  -11.7250  -18.4882 O   0  0  0  0  0  0  0  0  0  0  0  0
   19.1910   -8.0787  -15.6183 C   0  0  0  0  0  0  0  0  0  0  0  0
   18.6565   -7.1499  -16.2629 O   0  0  0  0  0  0  0  0  0  0  0  0
   22.5051   -9.7674  -18.9645 O   0  0  0  0  0  0  0  0  0  0  0  0
   20.1235   -7.7684  -14.6156 N   0  0  0  0  0  0  0  0  0  0  0  0
   20.5505   -6.4255  -14.3141 C   0  0  1  0  0  0  0  0  0  0  0  0
   21.0843   -6.3686  -12.8983 C   0  0  0  0  0  0  0  0  0  0  0  0
   22.3537   -7.6730  -12.7364 S   0  0  0  0  0  0  0  0  0  0  0  0
   21.6361   -5.9797  -15.2109 C   0  0  0  0  0  0  0  0  0  0  0  0
   22.1269   -4.7007  -15.1659 O   0  0  0  0  0  0  0  0  0  0  0  0
   22.1134   -6.8044  -16.0317 O   0  0  0  0  0  0  0  0  0  0  0  0
  2  1  1  1
  3  4  1  0
  3  2  1  0
  5  4  1  0
  5  6  2  0
  7  2  1  0
  7  8  2  0
  9  5  1  0
 10  7  1  0
 11 10  1  0
 11 16  1  0
 11 12  1  6
 13 12  1  0
 14 13  1  0
 14 15  2  0
 16 17  2  0
 18 14  1  0
 19 16  1  0
 19 20  1  0
 20 23  1  0
 20 21  1  1
 22 21  1  0
 23 25  2  0
 23 24  1  0
M  END
$$$$
