EEC.pdb
     RDKit          3D

 25 24  0  0  1  0  0  0  0  0999 V2000
   26.9185  -37.2313   -1.8667 N   0  0  0  0  0  0  0  0  0  0  0  0
   27.0518  -35.8397   -1.6050 C   0  0  1  0  0  0  0  0  0  0  0  0
   26.4482  -34.9283   -2.6132 C   0  0  0  0  0  0  0  0  0  0  0  0
   26.6847  -33.4994   -2.2930 C   0  0  0  0  0  0  0  0  0  0  0  0
   26.0674  -32.6163   -3.2898 C   0  0  0  0  0  0  0  0  0  0  0  0
   25.4759  -32.9986   -4.3115 O   0  0  0  0  0  0  0  0  0  0  0  0
   26.5274  -35.5573   -0.2251 C   0  0  0  0  0  0  0  0  0  0  0  0
   25.4443  -36.0408    0.1657 O   0  0  0  0  0  0  0  0  0  0  0  0
   26.1458  -31.2367   -3.0820 O   0  0  0  0  0  0  0  0  0  0  0  0
   27.2734  -34.7306    0.6439 N   0  0  0  0  0  0  0  0  0  0  0  0
   26.8913  -34.4827    2.0222 C   0  0  1  0  0  0  0  0  0  0  0  0
   28.0454  -34.7088    2.9741 C   0  0  0  0  0  0  0  0  0  0  0  0
   28.1043  -36.1217    3.4714 C   0  0  0  0  0  0  0  0  0  0  0  0
   29.2628  -36.2725    4.3706 C   0  0  0  0  0  0  0  0  0  0  0  0
   30.4150  -36.2965    3.9004 O   0  0  0  0  0  0  0  0  0  0  0  0
   26.4292  -33.0615    2.0838 C   0  0  0  0  0  0  0  0  0  0  0  0
   27.0843  -32.2143    1.4380 O   0  0  0  0  0  0  0  0  0  0  0  0
   29.0742  -36.3872    5.7285 O   0  0  0  0  0  0  0  0  0  0  0  0
   25.3106  -32.6445    2.8226 N   0  0  0  0  0  0  0  0  0  0  0  0
   24.8109  -31.2929    2.8154 C   0  0  1  0  0  0  0  0  0  0  0  0
   23.9653  -31.0711    1.5790 C   0  0  0  0  0  0  0  0  0  0  0  0
   22.6065  -32.2921    1.6159 S   0  0  0  0  0  0  0  0  0  0  0  0
   23.9557  -31.0169    3.9875 C   0  0  0  0  0  0  0  0  0  0  0  0
   23.5008  -29.7540    4.2649 O   0  0  0  0  0  0  0  0  0  0  0  0
   23.6443  -31.9737    4.7420 O   0  0  0  0  0  0  0  0  0  0  0  0
  2  1  1  6
  3  4  1  0
  3  2  1  0
  5  4  1  0
  5  6  2  0
  7  2  1  0
  7  8  2  0
  9  5  1  0
 10  7  1  0
 11 10  1  0
 11 16  1  0
 11 12  1  1
 13 12  1  0
 14 13  1  0
 14 15  2  0
 16 17  2  0
 18 14  1  0
 19 16  1  0
 19 20  1  0
 20 23  1  0
 20 21  1  6
 22 21  1  0
 23 25  2  0
 23 24  1  0
M  END
$$$$
