EEC.pdb
     RDKit          3D

 25 24  0  0  1  0  0  0  0  0999 V2000
   16.1467  -11.0463  -18.4103 N   0  0  0  0  0  0  0  0  0  0  0  0
   16.4103  -10.4545  -17.1442 C   0  0  1  0  0  0  0  0  0  0  0  0
   16.8497  -11.3852  -16.0709 C   0  0  0  0  0  0  0  0  0  0  0  0
   15.7933  -12.3595  -15.7036 C   0  0  0  0  0  0  0  0  0  0  0  0
   16.2292  -13.2383  -14.6117 C   0  0  0  0  0  0  0  0  0  0  0  0
   15.7662  -13.2278  -13.4605 O   0  0  0  0  0  0  0  0  0  0  0  0
   17.3908   -9.3311  -17.3330 C   0  0  0  0  0  0  0  0  0  0  0  0
   18.3698   -9.4502  -18.0992 O   0  0  0  0  0  0  0  0  0  0  0  0
   17.2433  -14.1619  -14.8782 O   0  0  0  0  0  0  0  0  0  0  0  0
   17.2006   -8.1201  -16.6312 N   0  0  0  0  0  0  0  0  0  0  0  0
   18.1317   -7.0089  -16.7040 C   0  0  1  0  0  0  0  0  0  0  0  0
   17.4361   -5.6798  -16.5066 C   0  0  0  0  0  0  0  0  0  0  0  0
   18.3862   -4.5231  -16.5865 C   0  0  0  0  0  0  0  0  0  0  0  0
   17.6444   -3.2686  -16.3636 C   0  0  0  0  0  0  0  0  0  0  0  0
   17.9287   -2.5430  -15.3931 O   0  0  0  0  0  0  0  0  0  0  0  0
   19.1465   -7.2363  -15.6290 C   0  0  0  0  0  0  0  0  0  0  0  0
   18.7262   -7.5906  -14.5058 O   0  0  0  0  0  0  0  0  0  0  0  0
   16.6383   -2.8976  -17.2253 O   0  0  0  0  0  0  0  0  0  0  0  0
   20.5272   -7.0723  -15.8232 N   0  0  0  0  0  0  0  0  0  0  0  0
   21.5106   -7.3290  -14.8016 C   0  0  1  0  0  0  0  0  0  0  0  0
   22.6320   -8.1687  -15.3762 C   0  0  0  0  0  0  0  0  0  0  0  0
   23.8666   -8.4173  -14.0523 S   0  0  0  0  0  0  0  0  0  0  0  0
   22.1134   -6.0803  -14.2929 C   0  0  0  0  0  0  0  0  0  0  0  0
   22.2777   -5.8553  -12.9508 O   0  0  0  0  0  0  0  0  0  0  0  0
   22.4809   -5.2097  -15.1227 O   0  0  0  0  0  0  0  0  0  0  0  0
  2  1  1  6
  3  4  1  0
  3  2  1  0
  5  4  1  0
  5  6  2  0
  7  2  1  0
  7  8  2  0
  9  5  1  0
 10  7  1  0
 11 10  1  0
 11 16  1  0
 11 12  1  1
 13 12  1  0
 14 13  1  0
 14 15  2  0
 16 17  2  0
 18 14  1  0
 19 16  1  0
 19 20  1  0
 20 23  1  0
 20 21  1  6
 22 21  1  0
 23 25  2  0
 23 24  1  0
M  END
$$$$
