EEC.pdb
     RDKit          3D

 25 24  0  0  1  0  0  0  0  0999 V2000
   16.4710  -10.7987  -18.5225 N   0  0  0  0  0  0  0  0  0  0  0  0
   16.4296  -10.2059  -17.2304 C   0  0  1  0  0  0  0  0  0  0  0  0
   16.7719  -11.1014  -16.0936 C   0  0  0  0  0  0  0  0  0  0  0  0
   15.8460  -12.2554  -15.9876 C   0  0  0  0  0  0  0  0  0  0  0  0
   16.2348  -13.1576  -14.8970 C   0  0  0  0  0  0  0  0  0  0  0  0
   16.5174  -12.7999  -13.7428 O   0  0  0  0  0  0  0  0  0  0  0  0
   17.2907   -8.9741  -17.2384 C   0  0  0  0  0  0  0  0  0  0  0  0
   18.2096   -8.8338  -18.0725 O   0  0  0  0  0  0  0  0  0  0  0  0
   16.2944  -14.5270  -15.1684 O   0  0  0  0  0  0  0  0  0  0  0  0
   17.0557   -7.9582  -16.2856 N   0  0  0  0  0  0  0  0  0  0  0  0
   17.8166   -6.7229  -16.2421 C   0  0  1  0  0  0  0  0  0  0  0  0
   16.9243   -5.5213  -16.0202 C   0  0  0  0  0  0  0  0  0  0  0  0
   16.1492   -5.1535  -17.2494 C   0  0  0  0  0  0  0  0  0  0  0  0
   15.0680   -4.2213  -16.8814 C   0  0  0  0  0  0  0  0  0  0  0  0
   13.9058   -4.4322  -17.2737 O   0  0  0  0  0  0  0  0  0  0  0  0
   18.7935   -6.8673  -15.1187 C   0  0  0  0  0  0  0  0  0  0  0  0
   18.5377   -7.7182  -14.2387 O   0  0  0  0  0  0  0  0  0  0  0  0
   15.3400   -3.1183  -16.1055 O   0  0  0  0  0  0  0  0  0  0  0  0
   19.9657   -6.1020  -15.0114 N   0  0  0  0  0  0  0  0  0  0  0  0
   20.9588   -6.3069  -13.9876 C   0  0  1  0  0  0  0  0  0  0  0  0
   21.6188   -7.6555  -14.1834 C   0  0  0  0  0  0  0  0  0  0  0  0
   22.9080   -7.8283  -12.9001 S   0  0  0  0  0  0  0  0  0  0  0  0
   22.0237   -5.2849  -14.0425 C   0  0  0  0  0  0  0  0  0  0  0  0
   22.5371   -4.7188  -12.9046 O   0  0  0  0  0  0  0  0  0  0  0  0
   22.4615   -4.9341  -15.1681 O   0  0  0  0  0  0  0  0  0  0  0  0
  2  1  1  6
  3  4  1  0
  3  2  1  0
  5  4  1  0
  5  6  2  0
  7  2  1  0
  7  8  2  0
  9  5  1  0
 10  7  1  0
 11 10  1  0
 11 16  1  0
 11 12  1  1
 13 12  1  0
 14 13  1  0
 14 15  2  0
 16 17  2  0
 18 14  1  0
 19 16  1  0
 19 20  1  0
 20 23  1  0
 20 21  1  6
 22 21  1  0
 23 25  2  0
 23 24  1  0
M  END
$$$$
