EEC.pdb
     RDKit          3D

 25 24  0  0  1  0  0  0  0  0999 V2000
   16.3006  -12.4752  -16.1689 N   0  0  0  0  0  0  0  0  0  0  0  0
   17.4357  -11.9902  -15.4624 C   0  0  1  0  0  0  0  0  0  0  0  0
   18.6743  -12.8038  -15.5861 C   0  0  0  0  0  0  0  0  0  0  0  0
   18.8989  -13.2795  -16.9730 C   0  0  0  0  0  0  0  0  0  0  0  0
   20.0220  -14.2220  -17.0423 C   0  0  0  0  0  0  0  0  0  0  0  0
   20.7070  -14.5866  -16.0741 O   0  0  0  0  0  0  0  0  0  0  0  0
   17.6751  -10.5606  -15.8600 C   0  0  0  0  0  0  0  0  0  0  0  0
   17.5433  -10.1891  -17.0451 O   0  0  0  0  0  0  0  0  0  0  0  0
   20.3540  -14.7561  -18.2902 O   0  0  0  0  0  0  0  0  0  0  0  0
   18.0556   -9.6220  -14.8755 N   0  0  0  0  0  0  0  0  0  0  0  0
   18.2271   -8.2080  -15.1547 C   0  0  1  0  0  0  0  0  0  0  0  0
   17.0534   -7.3916  -14.6596 C   0  0  0  0  0  0  0  0  0  0  0  0
   17.2465   -5.9224  -14.8860 C   0  0  0  0  0  0  0  0  0  0  0  0
   16.0546   -5.1966  -14.4104 C   0  0  0  0  0  0  0  0  0  0  0  0
   15.9877   -3.9604  -14.5391 O   0  0  0  0  0  0  0  0  0  0  0  0
   19.4868   -7.7903  -14.4648 C   0  0  0  0  0  0  0  0  0  0  0  0
   19.5820   -8.0347  -13.2421 O   0  0  0  0  0  0  0  0  0  0  0  0
   15.0157   -5.8819  -13.8243 O   0  0  0  0  0  0  0  0  0  0  0  0
   20.5491   -7.1470  -15.1195 N   0  0  0  0  0  0  0  0  0  0  0  0
   21.7968   -6.8180  -14.4781 C   0  0  1  0  0  0  0  0  0  0  0  0
   22.9233   -6.9015  -15.4865 C   0  0  0  0  0  0  0  0  0  0  0  0
   23.0749   -8.6490  -15.9981 S   0  0  0  0  0  0  0  0  0  0  0  0
   21.7916   -5.4431  -13.9385 C   0  0  0  0  0  0  0  0  0  0  0  0
   22.5358   -5.0983  -12.8404 O   0  0  0  0  0  0  0  0  0  0  0  0
   21.0820   -4.5765  -14.5105 O   0  0  0  0  0  0  0  0  0  0  0  0
  2  1  1  6
  3  4  1  0
  3  2  1  0
  5  4  1  0
  5  6  2  0
  7  2  1  0
  7  8  2  0
  9  5  1  0
 10  7  1  0
 11 10  1  0
 11 16  1  0
 11 12  1  1
 13 12  1  0
 14 13  1  0
 14 15  2  0
 16 17  2  0
 18 14  1  0
 19 16  1  0
 19 20  1  0
 20 23  1  0
 20 21  1  6
 22 21  1  0
 23 25  2  0
 23 24  1  0
M  END
$$$$
