EEC.pdb
     RDKit          3D

 25 24  0  0  1  0  0  0  0  0999 V2000
   17.4960  -13.1768  -16.4871 N   0  0  0  0  0  0  0  0  0  0  0  0
   17.3792  -11.8815  -15.9115 C   0  0  1  0  0  0  0  0  0  0  0  0
   16.4678  -11.7702  -14.7417 C   0  0  0  0  0  0  0  0  0  0  0  0
   15.0625  -12.0923  -15.0906 C   0  0  0  0  0  0  0  0  0  0  0  0
   14.1450  -11.7460  -13.9985 C   0  0  0  0  0  0  0  0  0  0  0  0
   13.1904  -10.9588  -14.0924 O   0  0  0  0  0  0  0  0  0  0  0  0
   18.7559  -11.3739  -15.5858 C   0  0  0  0  0  0  0  0  0  0  0  0
   19.5570  -12.0620  -14.9190 O   0  0  0  0  0  0  0  0  0  0  0  0
   14.3535  -12.3432  -12.7525 O   0  0  0  0  0  0  0  0  0  0  0  0
   19.1494  -10.0965  -16.0424 N   0  0  0  0  0  0  0  0  0  0  0  0
   20.4942   -9.5763  -15.8755 C   0  0  1  0  0  0  0  0  0  0  0  0
   21.2950   -9.6691  -17.1559 C   0  0  0  0  0  0  0  0  0  0  0  0
   20.5711   -9.0710  -18.3243 C   0  0  0  0  0  0  0  0  0  0  0  0
   21.3881   -9.2389  -19.5399 C   0  0  0  0  0  0  0  0  0  0  0  0
   20.8355   -9.4427  -20.6364 O   0  0  0  0  0  0  0  0  0  0  0  0
   20.3461   -8.1500  -15.4499 C   0  0  0  0  0  0  0  0  0  0  0  0
   19.3437   -7.5268  -15.8629 O   0  0  0  0  0  0  0  0  0  0  0  0
   22.7601   -9.1713  -19.4660 O   0  0  0  0  0  0  0  0  0  0  0  0
   21.2681   -7.4919  -14.6204 N   0  0  0  0  0  0  0  0  0  0  0  0
   21.1897   -6.0893  -14.2993 C   0  0  1  0  0  0  0  0  0  0  0  0
   21.6840   -5.8639  -12.8860 C   0  0  0  0  0  0  0  0  0  0  0  0
   21.6226   -4.0667  -12.5620 S   0  0  0  0  0  0  0  0  0  0  0  0
   22.0336   -5.2725  -15.1950 C   0  0  0  0  0  0  0  0  0  0  0  0
   22.9810   -5.8403  -16.0066 O   0  0  0  0  0  0  0  0  0  0  0  0
   21.8684   -4.0258  -15.2035 O   0  0  0  0  0  0  0  0  0  0  0  0
  2  1  1  1
  3  4  1  0
  3  2  1  0
  5  4  1  0
  5  6  2  0
  7  2  1  0
  7  8  2  0
  9  5  1  0
 10  7  1  0
 11 10  1  0
 11 16  1  0
 11 12  1  6
 13 12  1  0
 14 13  1  0
 14 15  2  0
 16 17  2  0
 18 14  1  0
 19 16  1  0
 19 20  1  0
 20 23  1  0
 20 21  1  1
 22 21  1  0
 23 25  2  0
 23 24  1  0
M  END
$$$$
