EEC.pdb
     RDKit          3D

 25 24  0  0  1  0  0  0  0  0999 V2000
   17.3433  -10.9812  -17.3128 N   0  0  0  0  0  0  0  0  0  0  0  0
   16.9756  -10.0592  -16.2942 C   0  0  1  0  0  0  0  0  0  0  0  0
   16.8734  -10.6168  -14.9193 C   0  0  0  0  0  0  0  0  0  0  0  0
   15.8058  -11.6402  -14.8051 C   0  0  0  0  0  0  0  0  0  0  0  0
   14.5370  -11.0463  -14.3669 C   0  0  0  0  0  0  0  0  0  0  0  0
   13.8596  -10.2444  -15.0284 O   0  0  0  0  0  0  0  0  0  0  0  0
   17.9158   -8.8876  -16.3436 C   0  0  0  0  0  0  0  0  0  0  0  0
   19.0887   -9.0175  -16.7525 O   0  0  0  0  0  0  0  0  0  0  0  0
   14.0448  -11.4049  -13.1093 O   0  0  0  0  0  0  0  0  0  0  0  0
   17.4638   -7.6182  -15.9202 N   0  0  0  0  0  0  0  0  0  0  0  0
   18.2316   -6.4011  -16.1103 C   0  0  1  0  0  0  0  0  0  0  0  0
   17.3391   -5.1826  -16.2007 C   0  0  0  0  0  0  0  0  0  0  0  0
   18.1225   -3.9134  -16.3502 C   0  0  0  0  0  0  0  0  0  0  0  0
   17.1902   -2.7759  -16.4521 C   0  0  0  0  0  0  0  0  0  0  0  0
   17.1733   -2.0770  -17.4819 O   0  0  0  0  0  0  0  0  0  0  0  0
   19.1513   -6.2934  -14.9357 C   0  0  0  0  0  0  0  0  0  0  0  0
   18.6345   -6.2999  -13.7969 O   0  0  0  0  0  0  0  0  0  0  0  0
   16.3386   -2.4844  -15.4118 O   0  0  0  0  0  0  0  0  0  0  0  0
   20.5463   -6.1874  -15.0542 N   0  0  0  0  0  0  0  0  0  0  0  0
   21.4337   -6.0640  -13.9256 C   0  0  1  0  0  0  0  0  0  0  0  0
   22.6824   -6.8850  -14.1698 C   0  0  0  0  0  0  0  0  0  0  0  0
   22.2087   -8.6473  -14.0762 S   0  0  0  0  0  0  0  0  0  0  0  0
   21.8617   -4.6665  -13.7133 C   0  0  0  0  0  0  0  0  0  0  0  0
   21.4982   -3.6639  -14.5744 O   0  0  0  0  0  0  0  0  0  0  0  0
   22.5775   -4.4032  -12.7133 O   0  0  0  0  0  0  0  0  0  0  0  0
  2  1  1  6
  3  4  1  0
  3  2  1  0
  5  4  1  0
  5  6  2  0
  7  2  1  0
  7  8  2  0
  9  5  1  0
 10  7  1  0
 11 10  1  0
 11 16  1  0
 11 12  1  1
 13 12  1  0
 14 13  1  0
 14 15  2  0
 16 17  2  0
 18 14  1  0
 19 16  1  0
 19 20  1  0
 20 23  1  0
 20 21  1  6
 22 21  1  0
 23 25  2  0
 23 24  1  0
M  END
$$$$
