WTD.pdb
     RDKit          3D

 30 31  0  0  1  0  0  0  0  0999 V2000
    7.2967  -16.8472   24.4702 N   0  0  0  0  0  0  0  0  0  0  0  0
    6.4070  -16.4778   23.3610 C   0  0  1  0  0  0  0  0  0  0  0  0
    5.8499  -15.1023   23.7124 C   0  0  0  0  0  0  0  0  0  0  0  0
    6.1981  -14.8903   25.1456 C   0  0  0  0  0  0  0  0  0  0  0  0
    5.8250  -15.6118   26.2326 C   0  0  0  0  0  0  0  0  0  0  0  0
    6.3569  -15.0805   27.3612 N   0  0  0  0  0  0  0  0  0  0  0  0
    7.0802  -14.0053   26.9929 C   0  0  0  0  0  0  0  0  0  0  0  0
    7.8360  -13.0845   27.6947 C   0  0  0  0  0  0  0  0  0  0  0  0
    8.4877  -12.0608   27.0619 C   0  0  0  0  0  0  0  0  0  0  0  0
    8.3862  -11.9479   25.6953 C   0  0  0  0  0  0  0  0  0  0  0  0
    7.6438  -12.8412   24.9449 C   0  0  0  0  0  0  0  0  0  0  0  0
    7.0029  -13.8583   25.6222 C   0  0  0  0  0  0  0  0  0  0  0  0
    7.1605  -16.4668   22.0794 C   0  0  0  0  0  0  0  0  0  0  0  0
    6.5165  -16.0888   21.0611 O   0  0  0  0  0  0  0  0  0  0  0  0
    7.7691  -14.8061   20.0508 C   0  0  0  0  0  0  0  0  0  0  0  0
    9.1871  -15.1707   20.3626 C   0  0  1  0  0  0  0  0  0  0  0  0
    9.7904  -14.2827   21.2245 O   0  0  0  0  0  0  0  0  0  0  0  0
    9.2995  -16.6138   20.8029 C   0  0  2  0  0  0  0  0  0  0  0  0
    8.5196  -16.8556   21.9957 N   0  0  0  0  0  0  0  0  0  0  0  0
   10.7132  -17.0180   21.0001 C   0  0  0  0  0  0  0  0  0  0  0  0
   11.1307  -17.2975   22.1725 O   0  0  0  0  0  0  0  0  0  0  0  0
   11.6541  -17.1163   19.9485 N   0  0  0  0  0  0  0  0  0  0  0  0
   13.0459  -17.5799   20.1827 C   0  0  1  0  0  0  0  0  0  0  0  0
   13.7887  -17.6258   18.8960 C   0  0  0  0  0  0  0  0  0  0  0  0
   13.1467  -18.5151   17.9287 C   0  0  0  0  0  0  0  0  0  0  0  0
   12.3017  -19.3582   18.2797 O   0  0  0  0  0  0  0  0  0  0  0  0
   13.6679  -16.6637   21.1665 C   0  0  0  0  0  0  0  0  0  0  0  0
   13.1340  -15.5029   21.6336 O   0  0  0  0  0  0  0  0  0  0  0  0
   13.4416  -18.4722   16.5591 O   0  0  0  0  0  0  0  0  0  0  0  0
   14.8132  -16.9740   21.6311 O   0  0  0  0  0  0  0  0  0  0  0  0
  2  1  1  1
  2  3  1  0
  3  4  1  0
  4  5  2  0
  4 12  1  0
  5  6  1  0
  6  7  1  0
  7  8  2  0
  8  9  1  0
 10  9  2  0
 11 10  1  0
 12 11  2  0
 12  7  1  0
 13  2  1  0
 13 19  1  0
 14 13  2  0
 16 15  1  1
 16 18  1  0
 17 16  1  0
 18 19  1  1
 18 20  1  0
 20 22  1  0
 20 21  2  0
 22 23  1  0
 23 24  1  6
 25 24  1  0
 26 25  2  0
 27 23  1  0
 27 28  1  0
 29 25  1  0
 30 27  2  0
M  END
$$$$
