WTD.pdb
     RDKit          3D

 30 31  0  0  1  0  0  0  0  0999 V2000
    6.0234  -17.6660   24.4813 N   0  0  0  0  0  0  0  0  0  0  0  0
    7.0906  -16.6788   24.2696 C   0  0  1  0  0  0  0  0  0  0  0  0
    7.5940  -16.3029   25.6592 C   0  0  0  0  0  0  0  0  0  0  0  0
    6.7756  -15.1276   26.0704 C   0  0  0  0  0  0  0  0  0  0  0  0
    5.5657  -15.1001   26.6845 C   0  0  0  0  0  0  0  0  0  0  0  0
    5.1612  -13.8207   26.8804 N   0  0  0  0  0  0  0  0  0  0  0  0
    6.1239  -13.0182   26.3861 C   0  0  0  0  0  0  0  0  0  0  0  0
    6.2657  -11.6453   26.3050 C   0  0  0  0  0  0  0  0  0  0  0  0
    7.3721  -11.0711   25.7400 C   0  0  0  0  0  0  0  0  0  0  0  0
    8.3647  -11.8818   25.2417 C   0  0  0  0  0  0  0  0  0  0  0  0
    8.2739  -13.2605   25.2971 C   0  0  0  0  0  0  0  0  0  0  0  0
    7.1420  -13.7982   25.8749 C   0  0  0  0  0  0  0  0  0  0  0  0
    8.1657  -17.2579   23.4215 C   0  0  0  0  0  0  0  0  0  0  0  0
    8.2938  -18.5133   23.4695 O   0  0  0  0  0  0  0  0  0  0  0  0
    8.6681  -16.6397   19.7548 C   0  0  0  0  0  0  0  0  0  0  0  0
   10.0151  -16.4731   20.3864 C   0  0  1  0  0  0  0  0  0  0  0  0
   10.4863  -15.1820   20.3083 O   0  0  0  0  0  0  0  0  0  0  0  0
   10.0394  -17.0433   21.7877 C   0  0  2  0  0  0  0  0  0  0  0  0
    9.0014  -16.4574   22.6053 N   0  0  0  0  0  0  0  0  0  0  0  0
   11.3709  -16.8825   22.4215 C   0  0  0  0  0  0  0  0  0  0  0  0
   11.5436  -15.9771   23.3032 O   0  0  0  0  0  0  0  0  0  0  0  0
   12.4914  -17.6860   22.1056 N   0  0  0  0  0  0  0  0  0  0  0  0
   13.8059  -17.4945   22.7708 C   0  0  1  0  0  0  0  0  0  0  0  0
   14.4330  -18.8141   23.0447 C   0  0  0  0  0  0  0  0  0  0  0  0
   13.7493  -19.5279   24.1226 C   0  0  0  0  0  0  0  0  0  0  0  0
   13.6921  -19.0657   25.2763 O   0  0  0  0  0  0  0  0  0  0  0  0
   14.6375  -16.6409   21.8909 C   0  0  0  0  0  0  0  0  0  0  0  0
   15.8752  -16.1550   22.1785 O   0  0  0  0  0  0  0  0  0  0  0  0
   13.1224  -20.7656   23.9233 O   0  0  0  0  0  0  0  0  0  0  0  0
   14.1661  -16.3189   20.7517 O   0  0  0  0  0  0  0  0  0  0  0  0
  2  1  1  1
  2  3  1  0
  3  4  1  0
  4  5  2  0
  4 12  1  0
  5  6  1  0
  6  7  1  0
  7  8  2  0
  8  9  1  0
 10  9  2  0
 11 10  1  0
 12 11  2  0
 12  7  1  0
 13  2  1  0
 13 19  1  0
 14 13  2  0
 16 15  1  1
 16 18  1  0
 17 16  1  0
 18 19  1  1
 18 20  1  0
 20 22  1  0
 20 21  2  0
 22 23  1  0
 23 24  1  6
 25 24  1  0
 26 25  2  0
 27 23  1  0
 27 28  1  0
 29 25  1  0
 30 27  2  0
M  END
$$$$
