WTD.pdb
     RDKit          3D

 30 31  0  0  1  0  0  0  0  0999 V2000
    6.0720  -17.6865   24.7241 N   0  0  0  0  0  0  0  0  0  0  0  0
    6.9160  -16.6186   24.1714 C   0  0  1  0  0  0  0  0  0  0  0  0
    7.8013  -16.1484   25.3208 C   0  0  0  0  0  0  0  0  0  0  0  0
    7.0131  -15.0948   26.0200 C   0  0  0  0  0  0  0  0  0  0  0  0
    5.9108  -15.2271   26.8003 C   0  0  0  0  0  0  0  0  0  0  0  0
    5.4949  -14.0153   27.2447 N   0  0  0  0  0  0  0  0  0  0  0  0
    6.3412  -13.0949   26.7432 C   0  0  0  0  0  0  0  0  0  0  0  0
    6.4193  -11.7188   26.8515 C   0  0  0  0  0  0  0  0  0  0  0  0
    7.4051  -11.0052   26.2254 C   0  0  0  0  0  0  0  0  0  0  0  0
    8.3388  -11.6759   25.4711 C   0  0  0  0  0  0  0  0  0  0  0  0
    8.3075  -13.0511   25.3293 C   0  0  0  0  0  0  0  0  0  0  0  0
    7.2971  -13.7319   25.9771 C   0  0  0  0  0  0  0  0  0  0  0  0
    7.7113  -17.1331   23.0255 C   0  0  0  0  0  0  0  0  0  0  0  0
    7.7572  -18.3890   22.9021 O   0  0  0  0  0  0  0  0  0  0  0  0
    7.6579  -15.4870   19.5027 C   0  0  0  0  0  0  0  0  0  0  0  0
    9.0718  -15.8652   19.8171 C   0  0  1  0  0  0  0  0  0  0  0  0
    9.9063  -14.7753   19.9216 O   0  0  0  0  0  0  0  0  0  0  0  0
    9.1398  -16.7968   21.0074 C   0  0  2  0  0  0  0  0  0  0  0  0
    8.3811  -16.2736   22.1209 N   0  0  0  0  0  0  0  0  0  0  0  0
   10.5414  -17.0783   21.4034 C   0  0  0  0  0  0  0  0  0  0  0  0
   11.0360  -16.4969   22.4253 O   0  0  0  0  0  0  0  0  0  0  0  0
   11.3888  -17.9707   20.7059 N   0  0  0  0  0  0  0  0  0  0  0  0
   12.7960  -18.2022   21.1217 C   0  0  1  0  0  0  0  0  0  0  0  0
   13.3013  -19.4647   20.5215 C   0  0  0  0  0  0  0  0  0  0  0  0
   14.6465  -19.7910   20.9933 C   0  0  0  0  0  0  0  0  0  0  0  0
   15.2256  -19.0926   21.8447 O   0  0  0  0  0  0  0  0  0  0  0  0
   13.5888  -17.0199   20.7117 C   0  0  0  0  0  0  0  0  0  0  0  0
   14.5986  -16.4445   21.4187 O   0  0  0  0  0  0  0  0  0  0  0  0
   15.3593  -20.9009   20.5192 O   0  0  0  0  0  0  0  0  0  0  0  0
   13.3133  -16.4743   19.5936 O   0  0  0  0  0  0  0  0  0  0  0  0
  2  1  1  1
  2  3  1  0
  3  4  1  0
  4  5  2  0
  4 12  1  0
  5  6  1  0
  6  7  1  0
  7  8  2  0
  8  9  1  0
 10  9  2  0
 11 10  1  0
 12 11  2  0
 12  7  1  0
 13  2  1  0
 13 19  1  0
 14 13  2  0
 16 15  1  1
 16 18  1  0
 17 16  1  0
 18 19  1  1
 18 20  1  0
 20 22  1  0
 20 21  2  0
 22 23  1  0
 23 24  1  6
 25 24  1  0
 26 25  2  0
 27 23  1  0
 27 28  1  0
 29 25  1  0
 30 27  2  0
M  END
$$$$
