WTD.pdb
     RDKit          3D

 30 31  0  0  1  0  0  0  0  0999 V2000
    7.0137  -17.4651   24.3127 N   0  0  0  0  0  0  0  0  0  0  0  0
    8.1052  -16.4862   24.2193 C   0  0  1  0  0  0  0  0  0  0  0  0
    8.4344  -16.0890   25.6545 C   0  0  0  0  0  0  0  0  0  0  0  0
    7.3293  -15.1827   26.0761 C   0  0  0  0  0  0  0  0  0  0  0  0
    6.1085  -15.4979   26.5781 C   0  0  0  0  0  0  0  0  0  0  0  0
    5.3941  -14.3734   26.8312 N   0  0  0  0  0  0  0  0  0  0  0  0
    6.1665  -13.3246   26.4875 C   0  0  0  0  0  0  0  0  0  0  0  0
    5.9777  -11.9554   26.5221 C   0  0  0  0  0  0  0  0  0  0  0  0
    6.9494  -11.0869   26.1042 C   0  0  0  0  0  0  0  0  0  0  0  0
    8.1410  -11.5914   25.6391 C   0  0  0  0  0  0  0  0  0  0  0  0
    8.3824  -12.9518   25.5832 C   0  0  0  0  0  0  0  0  0  0  0  0
    7.3763  -13.7921   26.0141 C   0  0  0  0  0  0  0  0  0  0  0  0
    9.2737  -17.0841   23.5210 C   0  0  0  0  0  0  0  0  0  0  0  0
    9.4776  -18.3120   23.7337 O   0  0  0  0  0  0  0  0  0  0  0  0
   11.4816  -14.8668   20.6352 C   0  0  0  0  0  0  0  0  0  0  0  0
   11.4148  -16.3619   20.6031 C   0  0  1  0  0  0  0  0  0  0  0  0
   12.4537  -16.9287   19.8997 O   0  0  0  0  0  0  0  0  0  0  0  0
   11.2405  -16.9343   21.9928 C   0  0  2  0  0  0  0  0  0  0  0  0
   10.1138  -16.3294   22.6666 N   0  0  0  0  0  0  0  0  0  0  0  0
   12.4780  -16.8003   22.7997 C   0  0  0  0  0  0  0  0  0  0  0  0
   12.6309  -15.7834   23.5543 O   0  0  0  0  0  0  0  0  0  0  0  0
   13.5277  -17.7485   22.7882 N   0  0  0  0  0  0  0  0  0  0  0  0
   14.7494  -17.5756   23.6155 C   0  0  1  0  0  0  0  0  0  0  0  0
   15.3818  -18.8968   23.8687 C   0  0  0  0  0  0  0  0  0  0  0  0
   14.6469  -19.6685   24.8702 C   0  0  0  0  0  0  0  0  0  0  0  0
   14.7472  -20.9066   24.9411 O   0  0  0  0  0  0  0  0  0  0  0  0
   15.6501  -16.6411   22.9016 C   0  0  0  0  0  0  0  0  0  0  0  0
   16.6553  -15.9114   23.4566 O   0  0  0  0  0  0  0  0  0  0  0  0
   13.7920  -19.0656   25.8031 O   0  0  0  0  0  0  0  0  0  0  0  0
   15.4832  -16.4912   21.6472 O   0  0  0  0  0  0  0  0  0  0  0  0
  2  1  1  1
  2  3  1  0
  3  4  1  0
  4  5  2  0
  4 12  1  0
  5  6  1  0
  6  7  1  0
  7  8  2  0
  8  9  1  0
 10  9  2  0
 11 10  1  0
 12 11  2  0
 12  7  1  0
 13  2  1  0
 13 19  1  0
 14 13  2  0
 16 15  1  1
 16 18  1  0
 17 16  1  0
 18 19  1  1
 18 20  1  0
 20 22  1  0
 20 21  2  0
 22 23  1  0
 23 24  1  6
 25 24  1  0
 26 25  2  0
 27 23  1  0
 27 28  1  0
 29 25  1  0
 30 27  2  0
M  END
$$$$
