WTD.pdb
     RDKit          3D

 30 31  0  0  1  0  0  0  0  0999 V2000
    6.4000  -17.7792   24.8870 N   0  0  0  0  0  0  0  0  0  0  0  0
    7.2325  -16.7771   24.2079 C   0  0  1  0  0  0  0  0  0  0  0  0
    7.9937  -16.0493   25.3109 C   0  0  0  0  0  0  0  0  0  0  0  0
    7.0541  -15.0106   25.8192 C   0  0  0  0  0  0  0  0  0  0  0  0
    5.8389  -15.1678   26.4024 C   0  0  0  0  0  0  0  0  0  0  0  0
    5.3035  -13.9624   26.7175 N   0  0  0  0  0  0  0  0  0  0  0  0
    6.1865  -13.0209   26.3317 C   0  0  0  0  0  0  0  0  0  0  0  0
    6.1891  -11.6398   26.3945 C   0  0  0  0  0  0  0  0  0  0  0  0
    7.2395  -10.9025   25.9188 C   0  0  0  0  0  0  0  0  0  0  0  0
    8.3166  -11.5540   25.3655 C   0  0  0  0  0  0  0  0  0  0  0  0
    8.3657  -12.9332   25.2778 C   0  0  0  0  0  0  0  0  0  0  0  0
    7.2861  -13.6382   25.7693 C   0  0  0  0  0  0  0  0  0  0  0  0
    8.1457  -17.4386   23.2390 C   0  0  0  0  0  0  0  0  0  0  0  0
    8.4121  -18.6516   23.4677 O   0  0  0  0  0  0  0  0  0  0  0  0
    7.8284  -17.0649   19.4223 C   0  0  0  0  0  0  0  0  0  0  0  0
    9.2816  -16.9565   19.7649 C   0  0  1  0  0  0  0  0  0  0  0  0
    9.8041  -15.7124   19.4918 O   0  0  0  0  0  0  0  0  0  0  0  0
    9.5503  -17.4298   21.1766 C   0  0  2  0  0  0  0  0  0  0  0  0
    8.6896  -16.7571   22.1231 N   0  0  0  0  0  0  0  0  0  0  0  0
   10.9777  -17.2679   21.5465 C   0  0  0  0  0  0  0  0  0  0  0  0
   11.3716  -16.1756   22.0744 O   0  0  0  0  0  0  0  0  0  0  0  0
   11.9573  -18.2688   21.3475 N   0  0  0  0  0  0  0  0  0  0  0  0
   13.3867  -18.0449   21.6848 C   0  0  1  0  0  0  0  0  0  0  0  0
   13.9654  -19.2759   22.2843 C   0  0  0  0  0  0  0  0  0  0  0  0
   13.5840  -19.4285   23.6878 C   0  0  0  0  0  0  0  0  0  0  0  0
   13.0678  -20.4779   24.1123 O   0  0  0  0  0  0  0  0  0  0  0  0
   14.0846  -17.6334   20.4447 C   0  0  0  0  0  0  0  0  0  0  0  0
   13.5203  -17.4860   19.2157 O   0  0  0  0  0  0  0  0  0  0  0  0
   13.7752  -18.4105   24.6322 O   0  0  0  0  0  0  0  0  0  0  0  0
   15.3336  -17.3908   20.5144 O   0  0  0  0  0  0  0  0  0  0  0  0
  2  1  1  1
  2  3  1  0
  3  4  1  0
  4  5  2  0
  4 12  1  0
  5  6  1  0
  6  7  1  0
  7  8  2  0
  8  9  1  0
 10  9  2  0
 11 10  1  0
 12 11  2  0
 12  7  1  0
 13  2  1  0
 13 19  1  0
 14 13  2  0
 16 15  1  1
 16 18  1  0
 17 16  1  0
 18 19  1  1
 18 20  1  0
 20 22  1  0
 20 21  2  0
 22 23  1  0
 23 24  1  6
 25 24  1  0
 26 25  2  0
 27 23  1  0
 27 28  1  0
 29 25  1  0
 30 27  2  0
M  END
$$$$
