WTD.pdb
     RDKit          3D

 30 31  0  0  1  0  0  0  0  0999 V2000
    6.4324  -17.5711   25.2801 N   0  0  0  0  0  0  0  0  0  0  0  0
    7.1315  -16.5087   24.5447 C   0  0  1  0  0  0  0  0  0  0  0  0
    8.1668  -15.9430   25.5111 C   0  0  0  0  0  0  0  0  0  0  0  0
    7.4349  -14.9327   26.3259 C   0  0  0  0  0  0  0  0  0  0  0  0
    6.6161  -15.1230   27.3913 C   0  0  0  0  0  0  0  0  0  0  0  0
    6.1448  -13.9358   27.8465 N   0  0  0  0  0  0  0  0  0  0  0  0
    6.6682  -12.9725   27.0634 C   0  0  0  0  0  0  0  0  0  0  0  0
    6.5506  -11.5951   27.0467 C   0  0  0  0  0  0  0  0  0  0  0  0
    7.2065  -10.8307   26.1200 C   0  0  0  0  0  0  0  0  0  0  0  0
    8.0006  -11.4508   25.1843 C   0  0  0  0  0  0  0  0  0  0  0  0
    8.1536  -12.8248   25.1558 C   0  0  0  0  0  0  0  0  0  0  0  0
    7.4749  -13.5577   26.1078 C   0  0  0  0  0  0  0  0  0  0  0  0
    7.7564  -17.0610   23.3139 C   0  0  0  0  0  0  0  0  0  0  0  0
    7.9138  -18.3136   23.2864 O   0  0  0  0  0  0  0  0  0  0  0  0
    6.9884  -15.8258   19.6736 C   0  0  0  0  0  0  0  0  0  0  0  0
    8.4679  -15.9965   19.8245 C   0  0  1  0  0  0  0  0  0  0  0  0
    9.1559  -14.8079   19.7279 O   0  0  0  0  0  0  0  0  0  0  0  0
    8.8056  -16.7929   21.0658 C   0  0  2  0  0  0  0  0  0  0  0  0
    8.1548  -16.2391   22.2317 N   0  0  0  0  0  0  0  0  0  0  0  0
   10.2713  -16.8923   21.2711 C   0  0  0  0  0  0  0  0  0  0  0  0
   10.8513  -16.0865   22.0719 O   0  0  0  0  0  0  0  0  0  0  0  0
   11.0908  -17.8449   20.6215 N   0  0  0  0  0  0  0  0  0  0  0  0
   12.5425  -17.9605   20.9152 C   0  0  1  0  0  0  0  0  0  0  0  0
   12.9387  -19.3925   20.9595 C   0  0  0  0  0  0  0  0  0  0  0  0
   12.6556  -20.0745   19.6973 C   0  0  0  0  0  0  0  0  0  0  0  0
   11.4904  -20.2439   19.2953 O   0  0  0  0  0  0  0  0  0  0  0  0
   13.2756  -17.1991   19.8774 C   0  0  0  0  0  0  0  0  0  0  0  0
   14.5965  -16.8745   19.9011 O   0  0  0  0  0  0  0  0  0  0  0  0
   13.6710  -20.5748   18.8706 O   0  0  0  0  0  0  0  0  0  0  0  0
   12.6245  -16.8000   18.8573 O   0  0  0  0  0  0  0  0  0  0  0  0
  2  1  1  1
  2  3  1  0
  3  4  1  0
  4  5  2  0
  4 12  1  0
  5  6  1  0
  6  7  1  0
  7  8  2  0
  8  9  1  0
 10  9  2  0
 11 10  1  0
 12 11  2  0
 12  7  1  0
 13  2  1  0
 13 19  1  0
 14 13  2  0
 16 15  1  1
 16 18  1  0
 17 16  1  0
 18 19  1  1
 18 20  1  0
 20 22  1  0
 20 21  2  0
 22 23  1  0
 23 24  1  6
 25 24  1  0
 26 25  2  0
 27 23  1  0
 27 28  1  0
 29 25  1  0
 30 27  2  0
M  END
$$$$
