WTD.pdb
     RDKit          3D

 30 31  0  0  1  0  0  0  0  0999 V2000
    6.4684  -17.8990   24.9743 N   0  0  0  0  0  0  0  0  0  0  0  0
    6.8196  -16.5972   24.3910 C   0  0  1  0  0  0  0  0  0  0  0  0
    7.7796  -15.9420   25.3783 C   0  0  0  0  0  0  0  0  0  0  0  0
    6.9721  -14.9099   26.0876 C   0  0  0  0  0  0  0  0  0  0  0  0
    5.7940  -15.0491   26.7465 C   0  0  0  0  0  0  0  0  0  0  0  0
    5.3883  -13.8577   27.2515 N   0  0  0  0  0  0  0  0  0  0  0  0
    6.3180  -12.9437   26.9123 C   0  0  0  0  0  0  0  0  0  0  0  0
    6.4435  -11.5866   27.1446 C   0  0  0  0  0  0  0  0  0  0  0  0
    7.5153  -10.8753   26.6773 C   0  0  0  0  0  0  0  0  0  0  0  0
    8.4892  -11.5292   25.9598 C   0  0  0  0  0  0  0  0  0  0  0  0
    8.4135  -12.8851   25.6989 C   0  0  0  0  0  0  0  0  0  0  0  0
    7.3165  -13.5642   26.1881 C   0  0  0  0  0  0  0  0  0  0  0  0
    7.4350  -16.7836   23.0505 C   0  0  0  0  0  0  0  0  0  0  0  0
    7.9626  -17.9104   22.8348 O   0  0  0  0  0  0  0  0  0  0  0  0
    8.0242  -13.4770   20.5094 C   0  0  0  0  0  0  0  0  0  0  0  0
    7.7874  -14.8018   19.8538 C   0  0  1  0  0  0  0  0  0  0  0  0
    8.4090  -14.9118   18.6304 O   0  0  0  0  0  0  0  0  0  0  0  0
    8.0975  -15.9444   20.7959 C   0  0  2  0  0  0  0  0  0  0  0  0
    7.4346  -15.7641   22.0676 N   0  0  0  0  0  0  0  0  0  0  0  0
    9.5588  -16.1233   20.9779 C   0  0  0  0  0  0  0  0  0  0  0  0
   10.1712  -15.4415   21.8651 O   0  0  0  0  0  0  0  0  0  0  0  0
   10.3396  -17.0219   20.2137 N   0  0  0  0  0  0  0  0  0  0  0  0
   11.8045  -17.1581   20.4195 C   0  0  1  0  0  0  0  0  0  0  0  0
   12.1921  -18.5924   20.3729 C   0  0  0  0  0  0  0  0  0  0  0  0
   11.7898  -19.3042   21.5854 C   0  0  0  0  0  0  0  0  0  0  0  0
   11.7317  -18.7312   22.6883 O   0  0  0  0  0  0  0  0  0  0  0  0
   12.4839  -16.3510   19.3797 C   0  0  0  0  0  0  0  0  0  0  0  0
   11.8780  -15.6302   18.3978 O   0  0  0  0  0  0  0  0  0  0  0  0
   11.4482  -20.6636   21.5791 O   0  0  0  0  0  0  0  0  0  0  0  0
   13.7577  -16.3163   19.3877 O   0  0  0  0  0  0  0  0  0  0  0  0
  2  1  1  1
  2  3  1  0
  3  4  1  0
  4  5  2  0
  4 12  1  0
  5  6  1  0
  6  7  1  0
  7  8  2  0
  8  9  1  0
 10  9  2  0
 11 10  1  0
 12 11  2  0
 12  7  1  0
 13  2  1  0
 13 19  1  0
 14 13  2  0
 16 15  1  1
 16 18  1  0
 17 16  1  0
 18 19  1  1
 18 20  1  0
 20 22  1  0
 20 21  2  0
 22 23  1  0
 23 24  1  6
 25 24  1  0
 26 25  2  0
 27 23  1  0
 27 28  1  0
 29 25  1  0
 30 27  2  0
M  END
$$$$
