WTD.pdb
     RDKit          3D

 30 31  0  0  1  0  0  0  0  0999 V2000
    6.4422  -16.7544   23.2885 N   0  0  0  0  0  0  0  0  0  0  0  0
    7.3240  -15.5879   23.1470 C   0  0  1  0  0  0  0  0  0  0  0  0
    8.2175  -15.5871   24.3830 C   0  0  0  0  0  0  0  0  0  0  0  0
    7.3631  -15.0659   25.4868 C   0  0  0  0  0  0  0  0  0  0  0  0
    6.6350  -15.7532   26.4029 C   0  0  0  0  0  0  0  0  0  0  0  0
    5.9919  -14.8988   27.2368 N   0  0  0  0  0  0  0  0  0  0  0  0
    6.3119  -13.6485   26.8506 C   0  0  0  0  0  0  0  0  0  0  0  0
    5.9647  -12.3936   27.3157 C   0  0  0  0  0  0  0  0  0  0  0  0
    6.4422  -11.2537   26.7277 C   0  0  0  0  0  0  0  0  0  0  0  0
    7.2874  -11.3625   25.6485 C   0  0  0  0  0  0  0  0  0  0  0  0
    7.6668  -12.5924   25.1430 C   0  0  0  0  0  0  0  0  0  0  0  0
    7.1627  -13.7160   25.7652 C   0  0  0  0  0  0  0  0  0  0  0  0
    8.1087  -15.6863   21.8881 C   0  0  0  0  0  0  0  0  0  0  0  0
    8.9069  -16.6616   21.8072 O   0  0  0  0  0  0  0  0  0  0  0  0
    8.5545  -12.3650   19.3368 C   0  0  0  0  0  0  0  0  0  0  0  0
    8.4644  -13.7090   18.6837 C   0  0  1  0  0  0  0  0  0  0  0  0
    9.1661  -13.7770   17.5011 O   0  0  0  0  0  0  0  0  0  0  0  0
    8.8068  -14.8166   19.6559 C   0  0  2  0  0  0  0  0  0  0  0  0
    7.9760  -14.7470   20.8367 N   0  0  0  0  0  0  0  0  0  0  0  0
   10.2459  -14.8041   20.0160 C   0  0  0  0  0  0  0  0  0  0  0  0
   10.6228  -14.2177   21.0841 O   0  0  0  0  0  0  0  0  0  0  0  0
   11.2547  -15.4140   19.2341 N   0  0  0  0  0  0  0  0  0  0  0  0
   12.6966  -15.2604   19.5565 C   0  0  1  0  0  0  0  0  0  0  0  0
   13.3646  -16.5882   19.5396 C   0  0  0  0  0  0  0  0  0  0  0  0
   13.2273  -17.2824   20.8195 C   0  0  0  0  0  0  0  0  0  0  0  0
   12.9462  -16.6704   21.8657 O   0  0  0  0  0  0  0  0  0  0  0  0
   13.2811  -14.3169   18.5753 C   0  0  0  0  0  0  0  0  0  0  0  0
   14.4261  -13.5995   18.7334 O   0  0  0  0  0  0  0  0  0  0  0  0
   13.4027  -18.6674   20.9444 O   0  0  0  0  0  0  0  0  0  0  0  0
   12.6673  -14.1460   17.4718 O   0  0  0  0  0  0  0  0  0  0  0  0
  2  1  1  1
  2  3  1  0
  3  4  1  0
  4  5  2  0
  4 12  1  0
  5  6  1  0
  6  7  1  0
  7  8  2  0
  8  9  1  0
 10  9  2  0
 11 10  1  0
 12 11  2  0
 12  7  1  0
 13  2  1  0
 13 19  1  0
 14 13  2  0
 16 15  1  1
 16 18  1  0
 17 16  1  0
 18 19  1  1
 18 20  1  0
 20 22  1  0
 20 21  2  0
 22 23  1  0
 23 24  1  6
 25 24  1  0
 26 25  2  0
 27 23  1  0
 27 28  1  0
 29 25  1  0
 30 27  2  0
M  END
$$$$
