WTD.pdb
     RDKit          3D

 30 31  0  0  1  0  0  0  0  0999 V2000
    6.2854  -17.2217   24.8122 N   0  0  0  0  0  0  0  0  0  0  0  0
    6.8713  -16.0549   24.1386 C   0  0  1  0  0  0  0  0  0  0  0  0
    7.9464  -15.5243   25.0812 C   0  0  0  0  0  0  0  0  0  0  0  0
    7.2188  -14.6922   26.0805 C   0  0  0  0  0  0  0  0  0  0  0  0
    6.3869  -15.0852   27.0780 C   0  0  0  0  0  0  0  0  0  0  0  0
    5.9257  -14.0099   27.7636 N   0  0  0  0  0  0  0  0  0  0  0  0
    6.4688  -12.9142   27.1986 C   0  0  0  0  0  0  0  0  0  0  0  0
    6.3684  -11.5610   27.4639 C   0  0  0  0  0  0  0  0  0  0  0  0
    7.0430  -10.6323   26.7185 C   0  0  0  0  0  0  0  0  0  0  0  0
    7.8390  -11.0585   25.6814 C   0  0  0  0  0  0  0  0  0  0  0  0
    7.9752  -12.3996   25.3729 C   0  0  0  0  0  0  0  0  0  0  0  0
    7.2779  -13.3024   26.1492 C   0  0  0  0  0  0  0  0  0  0  0  0
    7.4288  -16.4499   22.8181 C   0  0  0  0  0  0  0  0  0  0  0  0
    7.8224  -17.6455   22.7179 O   0  0  0  0  0  0  0  0  0  0  0  0
    7.9787  -13.5439   19.8158 C   0  0  0  0  0  0  0  0  0  0  0  0
    7.7598  -14.9582   19.3764 C   0  0  1  0  0  0  0  0  0  0  0  0
    8.3593  -15.2422   18.1700 O   0  0  0  0  0  0  0  0  0  0  0  0
    8.1150  -15.9362   20.4747 C   0  0  2  0  0  0  0  0  0  0  0  0
    7.5174  -15.5460   21.7316 N   0  0  0  0  0  0  0  0  0  0  0  0
    9.5834  -16.0977   20.6107 C   0  0  0  0  0  0  0  0  0  0  0  0
   10.2361  -15.3083   21.3707 O   0  0  0  0  0  0  0  0  0  0  0  0
   10.3280  -17.0937   19.9365 N   0  0  0  0  0  0  0  0  0  0  0  0
   11.8112  -17.1436   20.0037 C   0  0  1  0  0  0  0  0  0  0  0  0
   12.2572  -18.5168   20.3575 C   0  0  0  0  0  0  0  0  0  0  0  0
   12.0874  -18.7933   21.7835 C   0  0  0  0  0  0  0  0  0  0  0  0
   12.7594  -18.2006   22.6466 O   0  0  0  0  0  0  0  0  0  0  0  0
   12.3383  -16.6937   18.6945 C   0  0  0  0  0  0  0  0  0  0  0  0
   13.6405  -16.4340   18.3983 O   0  0  0  0  0  0  0  0  0  0  0  0
   11.1652  -19.7349   22.2605 O   0  0  0  0  0  0  0  0  0  0  0  0
   11.5088  -16.5271   17.7416 O   0  0  0  0  0  0  0  0  0  0  0  0
  2  1  1  1
  2  3  1  0
  3  4  1  0
  4  5  2  0
  4 12  1  0
  5  6  1  0
  6  7  1  0
  7  8  2  0
  8  9  1  0
 10  9  2  0
 11 10  1  0
 12 11  2  0
 12  7  1  0
 13  2  1  0
 13 19  1  0
 14 13  2  0
 16 15  1  1
 16 18  1  0
 17 16  1  0
 18 19  1  1
 18 20  1  0
 20 22  1  0
 20 21  2  0
 22 23  1  0
 23 24  1  6
 25 24  1  0
 26 25  2  0
 27 23  1  0
 27 28  1  0
 29 25  1  0
 30 27  2  0
M  END
$$$$
