WTD.pdb
     RDKit          3D

 30 31  0  0  1  0  0  0  0  0999 V2000
    5.9371  -17.7361   24.6728 N   0  0  0  0  0  0  0  0  0  0  0  0
    6.8031  -16.7024   24.0899 C   0  0  1  0  0  0  0  0  0  0  0  0
    7.6498  -16.1688   25.2407 C   0  0  0  0  0  0  0  0  0  0  0  0
    6.8301  -15.0941   25.8679 C   0  0  0  0  0  0  0  0  0  0  0  0
    5.7639  -15.2065   26.6999 C   0  0  0  0  0  0  0  0  0  0  0  0
    5.2984  -13.9802   27.0442 N   0  0  0  0  0  0  0  0  0  0  0  0
    6.0760  -13.0706   26.4254 C   0  0  0  0  0  0  0  0  0  0  0  0
    6.0831  -11.6883   26.4006 C   0  0  0  0  0  0  0  0  0  0  0  0
    7.0069  -10.9891   25.6719 C   0  0  0  0  0  0  0  0  0  0  0  0
    7.9492  -11.6811   24.9480 C   0  0  0  0  0  0  0  0  0  0  0  0
    7.9875  -13.0633   24.9377 C   0  0  0  0  0  0  0  0  0  0  0  0
    7.0382  -13.7291   25.6859 C   0  0  0  0  0  0  0  0  0  0  0  0
    7.6357  -17.2820   23.0031 C   0  0  0  0  0  0  0  0  0  0  0  0
    7.0251  -17.9914   22.1554 O   0  0  0  0  0  0  0  0  0  0  0  0
    7.6146  -16.2395   20.5799 C   0  0  0  0  0  0  0  0  0  0  0  0
    9.0921  -16.0323   20.7028 C   0  0  1  0  0  0  0  0  0  0  0  0
    9.4268  -14.7298   20.9971 O   0  0  0  0  0  0  0  0  0  0  0  0
    9.7128  -17.0442   21.6410 C   0  0  2  0  0  0  0  0  0  0  0  0
    9.0312  -17.0578   22.9156 N   0  0  0  0  0  0  0  0  0  0  0  0
   11.1667  -16.8082   21.8172 C   0  0  0  0  0  0  0  0  0  0  0  0
   11.5688  -15.7160   22.3392 O   0  0  0  0  0  0  0  0  0  0  0  0
   12.1634  -17.7364   21.4350 N   0  0  0  0  0  0  0  0  0  0  0  0
   13.5528  -17.6530   21.9540 C   0  0  1  0  0  0  0  0  0  0  0  0
   14.0825  -19.0186   22.2075 C   0  0  0  0  0  0  0  0  0  0  0  0
   13.5243  -19.6007   23.4275 C   0  0  0  0  0  0  0  0  0  0  0  0
   12.8097  -18.9357   24.1989 O   0  0  0  0  0  0  0  0  0  0  0  0
   14.3609  -16.9038   20.9641 C   0  0  0  0  0  0  0  0  0  0  0  0
   15.6484  -16.4940   21.1222 O   0  0  0  0  0  0  0  0  0  0  0  0
   13.7585  -20.9319   23.7988 O   0  0  0  0  0  0  0  0  0  0  0  0
   13.8159  -16.6039   19.8520 O   0  0  0  0  0  0  0  0  0  0  0  0
  2  1  1  1
  2  3  1  0
  3  4  1  0
  4  5  2  0
  4 12  1  0
  5  6  1  0
  6  7  1  0
  7  8  2  0
  8  9  1  0
 10  9  2  0
 11 10  1  0
 12 11  2  0
 12  7  1  0
 13  2  1  0
 13 19  1  0
 14 13  2  0
 16 15  1  1
 16 18  1  0
 17 16  1  0
 18 19  1  1
 18 20  1  0
 20 22  1  0
 20 21  2  0
 22 23  1  0
 23 24  1  6
 25 24  1  0
 26 25  2  0
 27 23  1  0
 27 28  1  0
 29 25  1  0
 30 27  2  0
M  END
$$$$
