WTD.pdb
     RDKit          3D

 30 31  0  0  1  0  0  0  0  0999 V2000
    6.7748  -17.5157   24.3392 N   0  0  0  0  0  0  0  0  0  0  0  0
    7.8989  -16.5954   24.1206 C   0  0  1  0  0  0  0  0  0  0  0  0
    8.3086  -16.1002   25.5037 C   0  0  0  0  0  0  0  0  0  0  0  0
    7.2377  -15.1492   25.9151 C   0  0  0  0  0  0  0  0  0  0  0  0
    5.9586  -15.4093   26.2861 C   0  0  0  0  0  0  0  0  0  0  0  0
    5.3060  -14.2579   26.5816 N   0  0  0  0  0  0  0  0  0  0  0  0
    6.1777  -13.2473   26.3979 C   0  0  0  0  0  0  0  0  0  0  0  0
    6.0838  -11.8754   26.5412 C   0  0  0  0  0  0  0  0  0  0  0  0
    7.1472  -11.0533   26.2837 C   0  0  0  0  0  0  0  0  0  0  0  0
    8.3363  -11.6082   25.8726 C   0  0  0  0  0  0  0  0  0  0  0  0
    8.4849  -12.9738   25.7132 C   0  0  0  0  0  0  0  0  0  0  0  0
    7.3882  -13.7663   25.9835 C   0  0  0  0  0  0  0  0  0  0  0  0
    9.0097  -17.2969   23.4246 C   0  0  0  0  0  0  0  0  0  0  0  0
    9.0852  -18.5427   23.6167 O   0  0  0  0  0  0  0  0  0  0  0  0
    9.8085  -17.1835   19.7483 C   0  0  0  0  0  0  0  0  0  0  0  0
   11.0932  -16.9153   20.4686 C   0  0  1  0  0  0  0  0  0  0  0  0
   11.5529  -15.6311   20.2819 O   0  0  0  0  0  0  0  0  0  0  0  0
   11.0027  -17.3211   21.9233 C   0  0  2  0  0  0  0  0  0  0  0  0
    9.9332  -16.6169   22.5938 N   0  0  0  0  0  0  0  0  0  0  0  0
   12.2932  -17.1250   22.6281 C   0  0  0  0  0  0  0  0  0  0  0  0
   12.5001  -16.0451   23.2746 O   0  0  0  0  0  0  0  0  0  0  0  0
   13.3373  -18.0794   22.6313 N   0  0  0  0  0  0  0  0  0  0  0  0
   14.6540  -17.7988   23.2593 C   0  0  1  0  0  0  0  0  0  0  0  0
   15.2753  -19.0668   23.7236 C   0  0  0  0  0  0  0  0  0  0  0  0
   14.4834  -19.7084   24.7724 C   0  0  0  0  0  0  0  0  0  0  0  0
   14.1878  -19.1112   25.8231 O   0  0  0  0  0  0  0  0  0  0  0  0
   15.4879  -17.0881   22.2624 C   0  0  0  0  0  0  0  0  0  0  0  0
   15.1432  -16.8130   20.9755 O   0  0  0  0  0  0  0  0  0  0  0  0
   14.0131  -21.0240   24.6587 O   0  0  0  0  0  0  0  0  0  0  0  0
   16.6426  -16.6891   22.6248 O   0  0  0  0  0  0  0  0  0  0  0  0
  2  1  1  1
  2  3  1  0
  3  4  1  0
  4  5  2  0
  4 12  1  0
  5  6  1  0
  6  7  1  0
  7  8  2  0
  8  9  1  0
 10  9  2  0
 11 10  1  0
 12 11  2  0
 12  7  1  0
 13  2  1  0
 13 19  1  0
 14 13  2  0
 16 15  1  1
 16 18  1  0
 17 16  1  0
 18 19  1  1
 18 20  1  0
 20 22  1  0
 20 21  2  0
 22 23  1  0
 23 24  1  6
 25 24  1  0
 26 25  2  0
 27 23  1  0
 27 28  1  0
 29 25  1  0
 30 27  2  0
M  END
$$$$
