WTD.pdb
     RDKit          3D

 30 31  0  0  1  0  0  0  0  0999 V2000
    6.0204  -18.1573   24.9703 N   0  0  0  0  0  0  0  0  0  0  0  0
    6.5442  -16.8536   24.5409 C   0  0  1  0  0  0  0  0  0  0  0  0
    7.3637  -16.3256   25.7138 C   0  0  0  0  0  0  0  0  0  0  0  0
    6.6285  -15.1238   26.1991 C   0  0  0  0  0  0  0  0  0  0  0  0
    5.3484  -15.0232   26.6381 C   0  0  0  0  0  0  0  0  0  0  0  0
    5.0648  -13.7439   26.9870 N   0  0  0  0  0  0  0  0  0  0  0  0
    6.1770  -13.0155   26.7692 C   0  0  0  0  0  0  0  0  0  0  0  0
    6.4833  -11.6779   26.9377 C   0  0  0  0  0  0  0  0  0  0  0  0
    7.7219  -11.1821   26.6326 C   0  0  0  0  0  0  0  0  0  0  0  0
    8.6826  -12.0375   26.1467 C   0  0  0  0  0  0  0  0  0  0  0  0
    8.4297  -13.3840   25.9590 C   0  0  0  0  0  0  0  0  0  0  0  0
    7.1682  -13.8424   26.2792 C   0  0  0  0  0  0  0  0  0  0  0  0
    7.3630  -17.0087   23.3097 C   0  0  0  0  0  0  0  0  0  0  0  0
    7.8607  -18.1529   23.1155 O   0  0  0  0  0  0  0  0  0  0  0  0
    8.3191  -13.6699   20.8381 C   0  0  0  0  0  0  0  0  0  0  0  0
    8.0781  -15.0056   20.2066 C   0  0  1  0  0  0  0  0  0  0  0  0
    8.7379  -15.1572   19.0078 O   0  0  0  0  0  0  0  0  0  0  0  0
    8.3340  -16.1306   21.1854 C   0  0  2  0  0  0  0  0  0  0  0  0
    7.5777  -15.9425   22.4028 N   0  0  0  0  0  0  0  0  0  0  0  0
    9.7804  -16.2859   21.4758 C   0  0  0  0  0  0  0  0  0  0  0  0
   10.3049  -15.6266   22.4334 O   0  0  0  0  0  0  0  0  0  0  0  0
   10.6399  -17.1376   20.7429 N   0  0  0  0  0  0  0  0  0  0  0  0
   12.0914  -17.2341   21.0441 C   0  0  1  0  0  0  0  0  0  0  0  0
   12.5567  -18.6332   20.8558 C   0  0  0  0  0  0  0  0  0  0  0  0
   12.7058  -19.3331   22.1312 C   0  0  0  0  0  0  0  0  0  0  0  0
   12.8607  -20.5665   22.1832 O   0  0  0  0  0  0  0  0  0  0  0  0
   12.8001  -16.2754   20.1650 C   0  0  0  0  0  0  0  0  0  0  0  0
   14.0338  -15.7452   20.3830 O   0  0  0  0  0  0  0  0  0  0  0  0
   12.6835  -18.6629   23.3620 O   0  0  0  0  0  0  0  0  0  0  0  0
   12.2147  -15.8978   19.0979 O   0  0  0  0  0  0  0  0  0  0  0  0
  2  1  1  1
  2  3  1  0
  3  4  1  0
  4  5  2  0
  4 12  1  0
  5  6  1  0
  6  7  1  0
  7  8  2  0
  8  9  1  0
 10  9  2  0
 11 10  1  0
 12 11  2  0
 12  7  1  0
 13  2  1  0
 13 19  1  0
 14 13  2  0
 16 15  1  1
 16 18  1  0
 17 16  1  0
 18 19  1  1
 18 20  1  0
 20 22  1  0
 20 21  2  0
 22 23  1  0
 23 24  1  6
 25 24  1  0
 26 25  2  0
 27 23  1  0
 27 28  1  0
 29 25  1  0
 30 27  2  0
M  END
$$$$
