WTD.pdb
     RDKit          3D

 30 31  0  0  1  0  0  0  0  0999 V2000
    6.7751  -17.6865   24.5322 N   0  0  0  0  0  0  0  0  0  0  0  0
    7.8621  -16.7556   24.2004 C   0  0  1  0  0  0  0  0  0  0  0  0
    8.3360  -16.1758   25.5290 C   0  0  0  0  0  0  0  0  0  0  0  0
    7.2414  -15.2692   25.9763 C   0  0  0  0  0  0  0  0  0  0  0  0
    5.9829  -15.5802   26.3775 C   0  0  0  0  0  0  0  0  0  0  0  0
    5.2956  -14.4566   26.7001 N   0  0  0  0  0  0  0  0  0  0  0  0
    6.1239  -13.4125   26.5034 C   0  0  0  0  0  0  0  0  0  0  0  0
    5.9826  -12.0463   26.6616 C   0  0  0  0  0  0  0  0  0  0  0  0
    7.0076  -11.1826   26.3844 C   0  0  0  0  0  0  0  0  0  0  0  0
    8.2055  -11.6892   25.9381 C   0  0  0  0  0  0  0  0  0  0  0  0
    8.4009  -13.0468   25.7624 C   0  0  0  0  0  0  0  0  0  0  0  0
    7.3418  -13.8822   26.0534 C   0  0  0  0  0  0  0  0  0  0  0  0
    8.9494  -17.4703   23.4809 C   0  0  0  0  0  0  0  0  0  0  0  0
    8.5908  -18.4431   22.7601 O   0  0  0  0  0  0  0  0  0  0  0  0
    9.4114  -17.1608   20.8483 C   0  0  0  0  0  0  0  0  0  0  0  0
   10.7754  -16.6781   21.2325 C   0  0  1  0  0  0  0  0  0  0  0  0
   10.8745  -15.3050   21.2389 O   0  0  0  0  0  0  0  0  0  0  0  0
   11.2461  -17.3256   22.5163 C   0  0  2  0  0  0  0  0  0  0  0  0
   10.3090  -17.0900   23.5914 N   0  0  0  0  0  0  0  0  0  0  0  0
   12.6091  -16.8746   22.8897 C   0  0  0  0  0  0  0  0  0  0  0  0
   12.7903  -15.6740   23.2804 O   0  0  0  0  0  0  0  0  0  0  0  0
   13.7514  -17.7076   22.8399 N   0  0  0  0  0  0  0  0  0  0  0  0
   15.0755  -17.2528   23.3367 C   0  0  1  0  0  0  0  0  0  0  0  0
   15.8788  -18.4213   23.7825 C   0  0  0  0  0  0  0  0  0  0  0  0
   15.2149  -19.1601   24.8559 C   0  0  0  0  0  0  0  0  0  0  0  0
   14.6357  -18.5744   25.7884 O   0  0  0  0  0  0  0  0  0  0  0  0
   15.7311  -16.4942   22.2462 C   0  0  0  0  0  0  0  0  0  0  0  0
   15.2291  -16.2822   20.9997 O   0  0  0  0  0  0  0  0  0  0  0  0
   15.1909  -20.5608   24.8992 O   0  0  0  0  0  0  0  0  0  0  0  0
   16.8759  -15.9845   22.4773 O   0  0  0  0  0  0  0  0  0  0  0  0
  2  1  1  1
  2  3  1  0
  3  4  1  0
  4  5  2  0
  4 12  1  0
  5  6  1  0
  6  7  1  0
  7  8  2  0
  8  9  1  0
 10  9  2  0
 11 10  1  0
 12 11  2  0
 12  7  1  0
 13  2  1  0
 13 19  1  0
 14 13  2  0
 16 15  1  1
 16 18  1  0
 17 16  1  0
 18 19  1  1
 18 20  1  0
 20 22  1  0
 20 21  2  0
 22 23  1  0
 23 24  1  6
 25 24  1  0
 26 25  2  0
 27 23  1  0
 27 28  1  0
 29 25  1  0
 30 27  2  0
M  END
$$$$
