WTD.pdb
     RDKit          3D

 30 31  0  0  1  0  0  0  0  0999 V2000
    6.6076  -18.2578   25.4394 N   0  0  0  0  0  0  0  0  0  0  0  0
    6.9377  -16.9678   24.8187 C   0  0  1  0  0  0  0  0  0  0  0  0
    7.7583  -16.2043   25.8528 C   0  0  0  0  0  0  0  0  0  0  0  0
    6.8431  -15.1569   26.3872 C   0  0  0  0  0  0  0  0  0  0  0  0
    5.6120  -15.2976   26.9405 C   0  0  0  0  0  0  0  0  0  0  0  0
    5.1100  -14.0892   27.2966 N   0  0  0  0  0  0  0  0  0  0  0  0
    6.0309  -13.1625   26.9677 C   0  0  0  0  0  0  0  0  0  0  0  0
    6.0774  -11.7861   27.0893 C   0  0  0  0  0  0  0  0  0  0  0  0
    7.1606  -11.0651   26.6650 C   0  0  0  0  0  0  0  0  0  0  0  0
    8.2267  -11.7286   26.1047 C   0  0  0  0  0  0  0  0  0  0  0  0
    8.2325  -13.1037   25.9593 C   0  0  0  0  0  0  0  0  0  0  0  0
    7.1208  -13.7921   26.4001 C   0  0  0  0  0  0  0  0  0  0  0  0
    7.6895  -17.1831   23.5543 C   0  0  0  0  0  0  0  0  0  0  0  0
    8.2953  -18.2862   23.4506 O   0  0  0  0  0  0  0  0  0  0  0  0
    8.2268  -14.0362   20.7658 C   0  0  0  0  0  0  0  0  0  0  0  0
    8.0872  -15.4307   20.2396 C   0  0  1  0  0  0  0  0  0  0  0  0
    8.7380  -15.6175   19.0409 O   0  0  0  0  0  0  0  0  0  0  0  0
    8.4510  -16.4545   21.2925 C   0  0  2  0  0  0  0  0  0  0  0  0
    7.7298  -16.2145   22.5220 N   0  0  0  0  0  0  0  0  0  0  0  0
    9.9142  -16.4967   21.5332 C   0  0  0  0  0  0  0  0  0  0  0  0
   10.4701  -15.5622   22.1998 O   0  0  0  0  0  0  0  0  0  0  0  0
   10.7567  -17.5301   21.0605 N   0  0  0  0  0  0  0  0  0  0  0  0
   12.2243  -17.5117   21.2898 C   0  0  1  0  0  0  0  0  0  0  0  0
   12.7214  -18.8957   21.5065 C   0  0  0  0  0  0  0  0  0  0  0  0
   12.7508  -19.2471   22.9258 C   0  0  0  0  0  0  0  0  0  0  0  0
   12.4977  -18.4091   23.8098 O   0  0  0  0  0  0  0  0  0  0  0  0
   12.8561  -16.8565   20.1212 C   0  0  0  0  0  0  0  0  0  0  0  0
   13.9795  -16.0894   20.1395 O   0  0  0  0  0  0  0  0  0  0  0  0
   13.0632  -20.5384   23.3727 O   0  0  0  0  0  0  0  0  0  0  0  0
   12.3100  -17.0132   18.9806 O   0  0  0  0  0  0  0  0  0  0  0  0
  2  1  1  1
  2  3  1  0
  3  4  1  0
  4  5  2  0
  4 12  1  0
  5  6  1  0
  6  7  1  0
  7  8  2  0
  8  9  1  0
 10  9  2  0
 11 10  1  0
 12 11  2  0
 12  7  1  0
 13  2  1  0
 13 19  1  0
 14 13  2  0
 16 15  1  1
 16 18  1  0
 17 16  1  0
 18 19  1  1
 18 20  1  0
 20 22  1  0
 20 21  2  0
 22 23  1  0
 23 24  1  6
 25 24  1  0
 26 25  2  0
 27 23  1  0
 27 28  1  0
 29 25  1  0
 30 27  2  0
M  END
$$$$
