CDT.pdb
     RDKit          3D

 22 21  0  0  1  0  0  0  0  0999 V2000
    7.8712  -15.0961   18.4824 N   0  0  0  0  0  0  0  0  0  0  0  0
    8.4079  -14.3757   19.6141 C   0  0  1  0  0  0  0  0  0  0  0  0
    7.6774  -13.0382   19.7157 C   0  0  0  0  0  0  0  0  0  0  0  0
    8.1317  -12.0128   18.3005 S   0  0  0  0  0  0  0  0  0  0  0  0
    8.0216  -15.1220   20.8586 C   0  0  0  0  0  0  0  0  0  0  0  0
    7.4076  -16.2002   20.7273 O   0  0  0  0  0  0  0  0  0  0  0  0
    8.3374  -14.6304   22.1398 N   0  0  0  0  0  0  0  0  0  0  0  0
    8.4470  -15.5595   23.2596 C   0  0  1  0  0  0  0  0  0  0  0  0
    9.3777  -16.6866   22.9515 C   0  0  0  0  0  0  0  0  0  0  0  0
    9.6351  -17.5845   24.0613 C   0  0  0  0  0  0  0  0  0  0  0  0
    8.8167  -18.2672   24.7008 O   0  0  0  0  0  0  0  0  0  0  0  0
    8.8014  -14.8074   24.4912 C   0  0  0  0  0  0  0  0  0  0  0  0
    9.9464  -14.3170   24.5909 O   0  0  0  0  0  0  0  0  0  0  0  0
   10.9742  -17.7294   24.5016 O   0  0  0  0  0  0  0  0  0  0  0  0
    7.0773  -11.7314   25.6516 C   0  0  0  0  0  0  0  0  0  0  0  0
    7.0939  -12.6870   26.8240 C   0  0  1  0  0  0  0  0  0  0  0  0
    5.9255  -13.4748   26.8149 O   0  0  0  0  0  0  0  0  0  0  0  0
    8.2370  -13.6627   26.5997 C   0  0  2  0  0  0  0  0  0  0  0  0
    7.9170  -14.6127   25.5644 N   0  0  0  0  0  0  0  0  0  0  0  0
    8.5658  -14.3912   27.8525 C   0  0  0  0  0  0  0  0  0  0  0  0
    8.8708  -13.7987   28.9175 O   0  0  0  0  0  0  0  0  0  0  0  0
    8.5391  -15.7749   27.8618 O   0  0  0  0  0  0  0  0  0  0  0  0
  2  1  1  6
  2  5  1  0
  3  2  1  0
  4  3  1  0
  5  6  2  0
  7  5  1  0
  7  8  1  0
  8 12  1  0
  9 10  1  0
  8  9  1  6
 10 11  2  0
 12 19  1  0
 12 13  2  0
 14 10  1  0
 16 15  1  6
 16 18  1  0
 17 16  1  0
 18 20  1  0
 18 19  1  6
 20 21  2  0
 20 22  1  0
M  END
$$$$
