CDT.pdb
     RDKit          3D

 22 21  0  0  1  0  0  0  0  0999 V2000
    7.7677  -15.8222   17.9910 N   0  0  0  0  0  0  0  0  0  0  0  0
    8.4798  -15.0307   18.9678 C   0  0  1  0  0  0  0  0  0  0  0  0
    7.4840  -14.0752   19.6222 C   0  0  0  0  0  0  0  0  0  0  0  0
    8.3339  -13.1304   20.9050 S   0  0  0  0  0  0  0  0  0  0  0  0
    8.9165  -15.9491   20.0728 C   0  0  0  0  0  0  0  0  0  0  0  0
    8.0732  -16.7376   20.5457 O   0  0  0  0  0  0  0  0  0  0  0  0
   10.2346  -15.9305   20.5678 N   0  0  0  0  0  0  0  0  0  0  0  0
   10.5867  -16.7714   21.7071 C   0  0  1  0  0  0  0  0  0  0  0  0
   12.0172  -17.1985   21.6557 C   0  0  0  0  0  0  0  0  0  0  0  0
   12.3987  -17.9051   20.4475 C   0  0  0  0  0  0  0  0  0  0  0  0
   11.9517  -18.9813   20.0153 O   0  0  0  0  0  0  0  0  0  0  0  0
   10.2121  -16.0772   22.9665 C   0  0  0  0  0  0  0  0  0  0  0  0
   10.9802  -15.2061   23.4274 O   0  0  0  0  0  0  0  0  0  0  0  0
   13.4033  -17.3294   19.6306 O   0  0  0  0  0  0  0  0  0  0  0  0
    7.2647  -14.0595   24.2153 C   0  0  0  0  0  0  0  0  0  0  0  0
    7.4161  -15.2433   25.1448 C   0  0  1  0  0  0  0  0  0  0  0  0
    6.5799  -16.2948   24.7193 O   0  0  0  0  0  0  0  0  0  0  0  0
    8.8331  -15.7684   24.9858 C   0  0  2  0  0  0  0  0  0  0  0  0
    9.0328  -16.3449   23.6803 N   0  0  0  0  0  0  0  0  0  0  0  0
    9.1418  -16.7842   26.0255 C   0  0  0  0  0  0  0  0  0  0  0  0
    9.4672  -17.9639   25.7409 O   0  0  0  0  0  0  0  0  0  0  0  0
    9.0725  -16.4323   27.3622 O   0  0  0  0  0  0  0  0  0  0  0  0
  2  1  1  6
  2  5  1  0
  3  2  1  0
  4  3  1  0
  5  6  2  0
  7  5  1  0
  7  8  1  0
  8 12  1  0
  9 10  1  0
  8  9  1  1
 10 11  2  0
 12 19  1  0
 12 13  2  0
 14 10  1  0
 16 15  1  6
 16 18  1  0
 17 16  1  0
 18 20  1  0
 18 19  1  6
 20 21  2  0
 20 22  1  0
M  END
$$$$
