CDT.pdb
     RDKit          3D

 22 21  0  0  1  0  0  0  0  0999 V2000
    7.6416  -15.4955   18.4061 N   0  0  0  0  0  0  0  0  0  0  0  0
    8.7366  -14.8666   19.1084 C   0  0  1  0  0  0  0  0  0  0  0  0
    8.1975  -13.6230   19.8125 C   0  0  0  0  0  0  0  0  0  0  0  0
    7.7922  -12.3756   18.5715 S   0  0  0  0  0  0  0  0  0  0  0  0
    9.1588  -15.7859   20.2180 C   0  0  0  0  0  0  0  0  0  0  0  0
    8.2798  -16.4768   20.7718 O   0  0  0  0  0  0  0  0  0  0  0  0
   10.5026  -15.8747   20.6294 N   0  0  0  0  0  0  0  0  0  0  0  0
   10.8685  -16.8016   21.6953 C   0  0  1  0  0  0  0  0  0  0  0  0
   12.3084  -17.1913   21.6166 C   0  0  0  0  0  0  0  0  0  0  0  0
   12.6506  -18.0329   20.4857 C   0  0  0  0  0  0  0  0  0  0  0  0
   12.1162  -19.0983   20.1333 O   0  0  0  0  0  0  0  0  0  0  0  0
   10.4730  -16.2256   23.0068 C   0  0  0  0  0  0  0  0  0  0  0  0
   11.1135  -15.2514   23.4563 O   0  0  0  0  0  0  0  0  0  0  0  0
   13.7226  -17.6241   19.6539 O   0  0  0  0  0  0  0  0  0  0  0  0
    7.7730  -14.2957   24.2619 C   0  0  0  0  0  0  0  0  0  0  0  0
    7.7536  -15.5321   25.1332 C   0  0  1  0  0  0  0  0  0  0  0  0
    6.8953  -16.4987   24.5720 O   0  0  0  0  0  0  0  0  0  0  0  0
    9.1414  -16.1486   25.0793 C   0  0  2  0  0  0  0  0  0  0  0  0
    9.4104  -16.7165   23.7825 N   0  0  0  0  0  0  0  0  0  0  0  0
    9.2955  -17.1991   26.1189 C   0  0  0  0  0  0  0  0  0  0  0  0
    9.5975  -18.3862   25.8392 O   0  0  0  0  0  0  0  0  0  0  0  0
    9.1023  -16.8727   27.4499 O   0  0  0  0  0  0  0  0  0  0  0  0
  2  1  1  1
  2  5  1  0
  3  2  1  0
  4  3  1  0
  5  6  2  0
  7  5  1  0
  7  8  1  0
  8 12  1  0
  9 10  1  0
  8  9  1  1
 10 11  2  0
 12 19  1  0
 12 13  2  0
 14 10  1  0
 16 15  1  6
 16 18  1  0
 17 16  1  0
 18 20  1  0
 18 19  1  6
 20 21  2  0
 20 22  1  0
M  END
$$$$
