CDT.pdb
     RDKit          3D

 22 21  0  0  1  0  0  0  0  0999 V2000
    7.2927  -14.8313   18.7304 N   0  0  0  0  0  0  0  0  0  0  0  0
    8.3701  -14.3654   19.5730 C   0  0  1  0  0  0  0  0  0  0  0  0
    7.9732  -13.0052   20.1431 C   0  0  0  0  0  0  0  0  0  0  0  0
    8.0297  -11.7761   18.8215 S   0  0  0  0  0  0  0  0  0  0  0  0
    8.4475  -15.2757   20.7648 C   0  0  0  0  0  0  0  0  0  0  0  0
    7.3940  -15.8170   21.1569 O   0  0  0  0  0  0  0  0  0  0  0  0
    9.6659  -15.5191   21.4273 N   0  0  0  0  0  0  0  0  0  0  0  0
    9.6926  -16.4184   22.5761 C   0  0  1  0  0  0  0  0  0  0  0  0
   10.8912  -17.3095   22.5508 C   0  0  0  0  0  0  0  0  0  0  0  0
   10.8917  -18.2996   21.4907 C   0  0  0  0  0  0  0  0  0  0  0  0
   11.6223  -18.3470   20.4862 O   0  0  0  0  0  0  0  0  0  0  0  0
    9.5598  -15.6256   23.8259 C   0  0  0  0  0  0  0  0  0  0  0  0
   10.4618  -14.8143   24.1251 O   0  0  0  0  0  0  0  0  0  0  0  0
    9.9575  -19.3619   21.5736 O   0  0  0  0  0  0  0  0  0  0  0  0
    6.9816  -13.1714   25.0758 C   0  0  0  0  0  0  0  0  0  0  0  0
    7.0810  -14.2836   26.0962 C   0  0  1  0  0  0  0  0  0  0  0  0
    6.1310  -15.2835   25.8071 O   0  0  0  0  0  0  0  0  0  0  0  0
    8.4338  -14.9507   25.9119 C   0  0  2  0  0  0  0  0  0  0  0  0
    8.4690  -15.7349   24.7034 N   0  0  0  0  0  0  0  0  0  0  0  0
    8.7590  -15.8196   27.0727 C   0  0  0  0  0  0  0  0  0  0  0  0
    8.9261  -17.0599   26.9614 O   0  0  0  0  0  0  0  0  0  0  0  0
    8.8858  -15.2557   28.3302 O   0  0  0  0  0  0  0  0  0  0  0  0
  2  1  1  6
  2  5  1  0
  3  2  1  0
  4  3  1  0
  5  6  2  0
  7  5  1  0
  7  8  1  0
  8 12  1  0
  9 10  1  0
  8  9  1  1
 10 11  2  0
 12 19  1  0
 12 13  2  0
 14 10  1  0
 16 15  1  6
 16 18  1  0
 17 16  1  0
 18 20  1  0
 18 19  1  6
 20 21  2  0
 20 22  1  0
M  END
$$$$
