CDT.pdb
     RDKit          3D

 22 21  0  0  1  0  0  0  0  0999 V2000
    6.8075  -15.1530   19.7453 N   0  0  0  0  0  0  0  0  0  0  0  0
    8.0352  -14.6132   20.2829 C   0  0  1  0  0  0  0  0  0  0  0  0
    7.8384  -13.1149   20.5046 C   0  0  0  0  0  0  0  0  0  0  0  0
    7.8031  -12.2844   18.9016 S   0  0  0  0  0  0  0  0  0  0  0  0
    8.2249  -15.1852   21.6583 C   0  0  0  0  0  0  0  0  0  0  0  0
    7.2061  -15.4288   22.3362 O   0  0  0  0  0  0  0  0  0  0  0  0
    9.5079  -15.4435   22.1778 N   0  0  0  0  0  0  0  0  0  0  0  0
    9.6403  -16.0531   23.4969 C   0  0  1  0  0  0  0  0  0  0  0  0
   10.8876  -16.8680   23.6048 C   0  0  0  0  0  0  0  0  0  0  0  0
   11.0762  -17.8365   22.5414 C   0  0  0  0  0  0  0  0  0  0  0  0
   10.2776  -18.7005   22.1407 O   0  0  0  0  0  0  0  0  0  0  0  0
    9.5174  -15.0021   24.5401 C   0  0  0  0  0  0  0  0  0  0  0  0
   10.3435  -14.0647   24.5533 O   0  0  0  0  0  0  0  0  0  0  0  0
   12.3121  -17.8293   21.8481 O   0  0  0  0  0  0  0  0  0  0  0  0
    7.0665  -12.3683   25.4348 C   0  0  0  0  0  0  0  0  0  0  0  0
    7.1735  -13.2843   26.6338 C   0  0  1  0  0  0  0  0  0  0  0  0
    6.2121  -14.3103   26.5386 O   0  0  0  0  0  0  0  0  0  0  0  0
    8.5186  -13.9864   26.5515 C   0  0  2  0  0  0  0  0  0  0  0  0
    8.5173  -14.9987   25.5258 N   0  0  0  0  0  0  0  0  0  0  0  0
    8.8739  -14.6058   27.8547 C   0  0  0  0  0  0  0  0  0  0  0  0
    8.9522  -13.9419   28.9184 O   0  0  0  0  0  0  0  0  0  0  0  0
    9.1311  -15.9644   27.9145 O   0  0  0  0  0  0  0  0  0  0  0  0
  2  1  1  1
  2  5  1  0
  3  2  1  0
  4  3  1  0
  5  6  2  0
  7  5  1  0
  7  8  1  0
  8 12  1  0
  9 10  1  0
  8  9  1  6
 10 11  2  0
 12 19  1  0
 12 13  2  0
 14 10  1  0
 16 15  1  6
 16 18  1  0
 17 16  1  0
 18 20  1  0
 18 19  1  6
 20 21  2  0
 20 22  1  0
M  END
$$$$
