CDT.pdb
     RDKit          3D

 22 21  0  0  1  0  0  0  0  0999 V2000
    6.6905  -14.1071   19.0958 N   0  0  0  0  0  0  0  0  0  0  0  0
    8.0480  -14.2422   19.5721 C   0  0  1  0  0  0  0  0  0  0  0  0
    8.6199  -12.8415   19.7808 C   0  0  0  0  0  0  0  0  0  0  0  0
    7.5271  -11.9202   20.8842 S   0  0  0  0  0  0  0  0  0  0  0  0
    7.9946  -14.8460   20.9460 C   0  0  0  0  0  0  0  0  0  0  0  0
    6.8809  -14.9407   21.5004 O   0  0  0  0  0  0  0  0  0  0  0  0
    9.1587  -15.2955   21.5983 N   0  0  0  0  0  0  0  0  0  0  0  0
    9.0391  -16.0875   22.8180 C   0  0  1  0  0  0  0  0  0  0  0  0
    9.9819  -17.2462   22.8173 C   0  0  0  0  0  0  0  0  0  0  0  0
    9.8968  -18.1012   23.9861 C   0  0  0  0  0  0  0  0  0  0  0  0
   10.7916  -18.8006   24.4912 O   0  0  0  0  0  0  0  0  0  0  0  0
    9.1819  -15.1977   23.9995 C   0  0  0  0  0  0  0  0  0  0  0  0
   10.2498  -14.5683   24.1560 O   0  0  0  0  0  0  0  0  0  0  0  0
    8.6554  -18.1761   24.6653 O   0  0  0  0  0  0  0  0  0  0  0  0
    7.0375  -12.2780   25.2948 C   0  0  0  0  0  0  0  0  0  0  0  0
    7.1680  -13.3118   26.3914 C   0  0  1  0  0  0  0  0  0  0  0  0
    6.0864  -14.2130   26.3295 O   0  0  0  0  0  0  0  0  0  0  0  0
    8.4018  -14.1448   26.0870 C   0  0  2  0  0  0  0  0  0  0  0  0
    8.1771  -15.0198   24.9643 N   0  0  0  0  0  0  0  0  0  0  0  0
    8.8011  -14.9523   27.2689 C   0  0  0  0  0  0  0  0  0  0  0  0
    8.8383  -16.2079   27.2469 O   0  0  0  0  0  0  0  0  0  0  0  0
    9.1478  -14.3110   28.4453 O   0  0  0  0  0  0  0  0  0  0  0  0
  2  1  1  1
  2  5  1  0
  3  2  1  0
  4  3  1  0
  5  6  2  0
  7  5  1  0
  7  8  1  0
  8 12  1  0
  9 10  1  0
  8  9  1  6
 10 11  2  0
 12 19  1  0
 12 13  2  0
 14 10  1  0
 16 15  1  6
 16 18  1  0
 17 16  1  0
 18 20  1  0
 18 19  1  6
 20 21  2  0
 20 22  1  0
M  END
$$$$
