CDT.pdb
     RDKit          3D

 22 21  0  0  1  0  0  0  0  0999 V2000
    8.7890  -13.7791   20.0080 N   0  0  0  0  0  0  0  0  0  0  0  0
    7.5844  -14.0652   20.7529 C   0  0  1  0  0  0  0  0  0  0  0  0
    6.7185  -15.0028   19.9140 C   0  0  0  0  0  0  0  0  0  0  0  0
    6.3232  -14.1931   18.3491 S   0  0  0  0  0  0  0  0  0  0  0  0
    7.9710  -14.8724   21.9587 C   0  0  0  0  0  0  0  0  0  0  0  0
    7.0648  -15.2303   22.7381 O   0  0  0  0  0  0  0  0  0  0  0  0
    9.3114  -15.2212   22.2123 N   0  0  0  0  0  0  0  0  0  0  0  0
    9.6546  -15.8996   23.4578 C   0  0  1  0  0  0  0  0  0  0  0  0
   10.9525  -16.6307   23.3477 C   0  0  0  0  0  0  0  0  0  0  0  0
   10.9753  -17.6845   22.3510 C   0  0  0  0  0  0  0  0  0  0  0  0
   10.1668  -18.6167   22.2022 O   0  0  0  0  0  0  0  0  0  0  0  0
    9.6072  -14.9254   24.5789 C   0  0  0  0  0  0  0  0  0  0  0  0
   10.5395  -14.1028   24.7040 O   0  0  0  0  0  0  0  0  0  0  0  0
   12.0356  -17.6866   21.4109 O   0  0  0  0  0  0  0  0  0  0  0  0
    7.2125  -12.2215   25.6018 C   0  0  0  0  0  0  0  0  0  0  0  0
    7.3198  -13.1805   26.7667 C   0  0  1  0  0  0  0  0  0  0  0  0
    6.3108  -14.1599   26.6738 O   0  0  0  0  0  0  0  0  0  0  0  0
    8.6285  -13.9375   26.6138 C   0  0  2  0  0  0  0  0  0  0  0  0
    8.5658  -14.8729   25.5194 N   0  0  0  0  0  0  0  0  0  0  0  0
    8.9698  -14.6642   27.8643 C   0  0  0  0  0  0  0  0  0  0  0  0
    9.0184  -15.9182   27.9242 O   0  0  0  0  0  0  0  0  0  0  0  0
    9.2471  -13.9461   29.0144 O   0  0  0  0  0  0  0  0  0  0  0  0
  2  1  1  6
  2  5  1  0
  3  2  1  0
  4  3  1  0
  5  6  2  0
  7  5  1  0
  7  8  1  0
  8 12  1  0
  9 10  1  0
  8  9  1  6
 10 11  2  0
 12 19  1  0
 12 13  2  0
 14 10  1  0
 16 15  1  6
 16 18  1  0
 17 16  1  0
 18 20  1  0
 18 19  1  6
 20 21  2  0
 20 22  1  0
M  END
$$$$
