CDT.pdb
     RDKit          3D

 22 21  0  0  1  0  0  0  0  0999 V2000
    8.2538  -15.7086   16.4781 N   0  0  0  0  0  0  0  0  0  0  0  0
    9.2571  -14.9367   17.1748 C   0  0  1  0  0  0  0  0  0  0  0  0
    8.5904  -13.6778   17.7255 C   0  0  0  0  0  0  0  0  0  0  0  0
    8.0840  -12.6303   16.3446 S   0  0  0  0  0  0  0  0  0  0  0  0
    9.6741  -15.7153   18.3892 C   0  0  0  0  0  0  0  0  0  0  0  0
    8.8138  -16.4177   18.9576 O   0  0  0  0  0  0  0  0  0  0  0  0
   10.9927  -15.6627   18.8805 N   0  0  0  0  0  0  0  0  0  0  0  0
   11.3640  -16.4782   20.0322 C   0  0  1  0  0  0  0  0  0  0  0  0
   12.8117  -16.8451   20.0040 C   0  0  0  0  0  0  0  0  0  0  0  0
   13.1826  -17.7809   18.9595 C   0  0  0  0  0  0  0  0  0  0  0  0
   14.1296  -17.7001   18.1585 O   0  0  0  0  0  0  0  0  0  0  0  0
   10.9430  -15.7897   21.2799 C   0  0  0  0  0  0  0  0  0  0  0  0
   11.5611  -14.7662   21.6429 O   0  0  0  0  0  0  0  0  0  0  0  0
   12.3915  -18.9458   18.7999 O   0  0  0  0  0  0  0  0  0  0  0  0
    7.8839  -14.0433   22.1153 C   0  0  0  0  0  0  0  0  0  0  0  0
    8.0399  -15.0746   23.2108 C   0  0  1  0  0  0  0  0  0  0  0  0
    7.3473  -16.2512   22.8615 O   0  0  0  0  0  0  0  0  0  0  0  0
    9.5060  -15.4713   23.2569 C   0  0  2  0  0  0  0  0  0  0  0  0
    9.8799  -16.2255   22.0873 N   0  0  0  0  0  0  0  0  0  0  0  0
    9.8008  -16.2712   24.4740 C   0  0  0  0  0  0  0  0  0  0  0  0
   10.1875  -17.4653   24.4195 O   0  0  0  0  0  0  0  0  0  0  0  0
    9.6483  -15.6924   25.7219 O   0  0  0  0  0  0  0  0  0  0  0  0
  2  1  1  1
  2  5  1  0
  3  2  1  0
  4  3  1  0
  5  6  2  0
  7  5  1  0
  7  8  1  0
  8 12  1  0
  9 10  1  0
  8  9  1  1
 10 11  2  0
 12 19  1  0
 12 13  2  0
 14 10  1  0
 16 15  1  6
 16 18  1  0
 17 16  1  0
 18 20  1  0
 18 19  1  6
 20 21  2  0
 20 22  1  0
M  END
$$$$
