CDT.pdb
     RDKit          3D

 22 21  0  0  1  0  0  0  0  0999 V2000
    7.1605  -15.0581   17.8376 N   0  0  0  0  0  0  0  0  0  0  0  0
    8.1295  -14.4388   18.7124 C   0  0  1  0  0  0  0  0  0  0  0  0
    7.4605  -13.2472   19.3945 C   0  0  0  0  0  0  0  0  0  0  0  0
    8.6082  -12.5381   20.5948 S   0  0  0  0  0  0  0  0  0  0  0  0
    8.4267  -15.4032   19.8244 C   0  0  0  0  0  0  0  0  0  0  0  0
    7.4693  -16.0154   20.3393 O   0  0  0  0  0  0  0  0  0  0  0  0
    9.7414  -15.6188   20.2802 N   0  0  0  0  0  0  0  0  0  0  0  0
    9.9752  -16.5280   21.3973 C   0  0  1  0  0  0  0  0  0  0  0  0
   11.3146  -17.1827   21.3040 C   0  0  0  0  0  0  0  0  0  0  0  0
   11.5002  -18.0266   20.1388 C   0  0  0  0  0  0  0  0  0  0  0  0
   10.7640  -18.9401   19.7286 O   0  0  0  0  0  0  0  0  0  0  0  0
    9.7470  -15.8065   22.6761 C   0  0  0  0  0  0  0  0  0  0  0  0
   10.4361  -14.7956   22.9304 O   0  0  0  0  0  0  0  0  0  0  0  0
   12.6528  -17.8146   19.3421 O   0  0  0  0  0  0  0  0  0  0  0  0
    7.2389  -13.7293   24.1172 C   0  0  0  0  0  0  0  0  0  0  0  0
    7.3514  -14.8769   25.0962 C   0  0  1  0  0  0  0  0  0  0  0  0
    6.4202  -15.8812   24.7643 O   0  0  0  0  0  0  0  0  0  0  0  0
    8.7164  -15.5139   24.8958 C   0  0  2  0  0  0  0  0  0  0  0  0
    8.7928  -16.1972   23.6294 N   0  0  0  0  0  0  0  0  0  0  0  0
    9.0209  -16.4707   25.9912 C   0  0  0  0  0  0  0  0  0  0  0  0
    9.2984  -17.6770   25.7758 O   0  0  0  0  0  0  0  0  0  0  0  0
    9.0021  -16.0311   27.3033 O   0  0  0  0  0  0  0  0  0  0  0  0
  2  1  1  6
  2  5  1  0
  3  2  1  0
  4  3  1  0
  5  6  2  0
  7  5  1  0
  7  8  1  0
  8 12  1  0
  9 10  1  0
  8  9  1  1
 10 11  2  0
 12 19  1  0
 12 13  2  0
 14 10  1  0
 16 15  1  6
 16 18  1  0
 17 16  1  0
 18 20  1  0
 18 19  1  6
 20 21  2  0
 20 22  1  0
M  END
$$$$
