CDT.pdb
     RDKit          3D

 22 21  0  0  1  0  0  0  0  0999 V2000
    9.7814  -14.1089   18.1504 N   0  0  0  0  0  0  0  0  0  0  0  0
    8.6251  -13.7975   18.9591 C   0  0  1  0  0  0  0  0  0  0  0  0
    7.3754  -14.0466   18.1171 C   0  0  0  0  0  0  0  0  0  0  0  0
    7.2991  -12.8125   16.8012 S   0  0  0  0  0  0  0  0  0  0  0  0
    8.5528  -14.8098   20.0660 C   0  0  0  0  0  0  0  0  0  0  0  0
    7.5000  -14.8737   20.7323 O   0  0  0  0  0  0  0  0  0  0  0  0
    9.6333  -15.6662   20.3521 N   0  0  0  0  0  0  0  0  0  0  0  0
    9.5299  -16.6081   21.4618 C   0  0  1  0  0  0  0  0  0  0  0  0
   10.5211  -17.7185   21.3364 C   0  0  0  0  0  0  0  0  0  0  0  0
   10.5155  -18.6667   22.4342 C   0  0  0  0  0  0  0  0  0  0  0  0
   11.4029  -18.8633   23.2821 O   0  0  0  0  0  0  0  0  0  0  0  0
    9.6175  -15.8671   22.7469 C   0  0  0  0  0  0  0  0  0  0  0  0
   10.6268  -15.1657   22.9721 O   0  0  0  0  0  0  0  0  0  0  0  0
    9.3738  -19.4906   22.5944 O   0  0  0  0  0  0  0  0  0  0  0  0
    7.3666  -13.2692   24.2926 C   0  0  0  0  0  0  0  0  0  0  0  0
    7.5117  -14.3907   25.2973 C   0  0  1  0  0  0  0  0  0  0  0  0
    6.4659  -15.3204   25.1300 O   0  0  0  0  0  0  0  0  0  0  0  0
    8.7820  -15.1497   24.9519 C   0  0  2  0  0  0  0  0  0  0  0  0
    8.6228  -15.9086   23.7373 N   0  0  0  0  0  0  0  0  0  0  0  0
    9.1702  -16.0642   26.0570 C   0  0  0  0  0  0  0  0  0  0  0  0
    9.2488  -17.3090   25.9067 O   0  0  0  0  0  0  0  0  0  0  0  0
    9.4593  -15.5394   27.3045 O   0  0  0  0  0  0  0  0  0  0  0  0
  2  1  1  6
  2  5  1  0
  3  2  1  0
  4  3  1  0
  5  6  2  0
  7  5  1  0
  7  8  1  0
  8 12  1  0
  9 10  1  0
  8  9  1  6
 10 11  2  0
 12 19  1  0
 12 13  2  0
 14 10  1  0
 16 15  1  6
 16 18  1  0
 17 16  1  0
 18 20  1  0
 18 19  1  6
 20 21  2  0
 20 22  1  0
M  END
$$$$
