CDT.pdb
     RDKit          3D

 22 21  0  0  1  0  0  0  0  0999 V2000
    8.7539  -15.1550   16.0434 N   0  0  0  0  0  0  0  0  0  0  0  0
    9.2274  -14.2036   17.0224 C   0  0  1  0  0  0  0  0  0  0  0  0
    8.0317  -13.7414   17.8527 C   0  0  0  0  0  0  0  0  0  0  0  0
    8.6016  -12.5625   19.0962 S   0  0  0  0  0  0  0  0  0  0  0  0
   10.1077  -14.9405   17.9904 C   0  0  0  0  0  0  0  0  0  0  0  0
    9.8549  -16.1418   18.2133 O   0  0  0  0  0  0  0  0  0  0  0  0
   11.1884  -14.3061   18.6326 N   0  0  0  0  0  0  0  0  0  0  0  0
   11.9960  -15.0549   19.5898 C   0  0  1  0  0  0  0  0  0  0  0  0
   13.4181  -14.5976   19.5879 C   0  0  0  0  0  0  0  0  0  0  0  0
   14.2102  -15.0760   18.4708 C   0  0  0  0  0  0  0  0  0  0  0  0
   14.1775  -16.1952   17.9312 O   0  0  0  0  0  0  0  0  0  0  0  0
   11.3500  -15.0027   20.9270 C   0  0  0  0  0  0  0  0  0  0  0  0
   11.9938  -14.5358   21.8908 O   0  0  0  0  0  0  0  0  0  0  0  0
   15.1505  -14.1863   17.8942 O   0  0  0  0  0  0  0  0  0  0  0  0
    8.0062  -13.4425   21.7953 C   0  0  0  0  0  0  0  0  0  0  0  0
    8.0110  -14.8355   22.3850 C   0  0  1  0  0  0  0  0  0  0  0  0
    7.4038  -15.7364   21.4874 O   0  0  0  0  0  0  0  0  0  0  0  0
    9.4597  -15.2831   22.4835 C   0  0  2  0  0  0  0  0  0  0  0  0
   10.0437  -15.4531   21.1771 N   0  0  0  0  0  0  0  0  0  0  0  0
    9.5710  -16.5559   23.2424 C   0  0  0  0  0  0  0  0  0  0  0  0
    9.1894  -16.6665   24.4343 O   0  0  0  0  0  0  0  0  0  0  0  0
   10.1133  -17.6701   22.6262 O   0  0  0  0  0  0  0  0  0  0  0  0
  2  1  1  6
  2  5  1  0
  3  2  1  0
  4  3  1  0
  5  6  2  0
  7  5  1  0
  7  8  1  0
  8 12  1  0
  9 10  1  0
  8  9  1  1
 10 11  2  0
 12 19  1  0
 12 13  2  0
 14 10  1  0
 16 15  1  6
 16 18  1  0
 17 16  1  0
 18 20  1  0
 18 19  1  6
 20 21  2  0
 20 22  1  0
M  END
$$$$
