CDT.pdb
     RDKit          3D

 22 21  0  0  1  0  0  0  0  0999 V2000
    6.9937  -14.7722   18.8373 N   0  0  0  0  0  0  0  0  0  0  0  0
    8.1348  -14.3276   19.6041 C   0  0  1  0  0  0  0  0  0  0  0  0
    7.8401  -12.9215   20.1226 C   0  0  0  0  0  0  0  0  0  0  0  0
    7.9343  -11.7569   18.7458 S   0  0  0  0  0  0  0  0  0  0  0  0
    8.2219  -15.1826   20.8355 C   0  0  0  0  0  0  0  0  0  0  0  0
    7.1608  -15.6394   21.3068 O   0  0  0  0  0  0  0  0  0  0  0  0
    9.4573  -15.4673   21.4482 N   0  0  0  0  0  0  0  0  0  0  0  0
    9.4955  -16.3362   22.6199 C   0  0  1  0  0  0  0  0  0  0  0  0
   10.6584  -17.2727   22.5739 C   0  0  0  0  0  0  0  0  0  0  0  0
   10.8013  -18.1240   23.7397 C   0  0  0  0  0  0  0  0  0  0  0  0
   11.5640  -17.9743   24.7096 O   0  0  0  0  0  0  0  0  0  0  0  0
    9.4413  -15.5060   23.8511 C   0  0  0  0  0  0  0  0  0  0  0  0
   10.4416  -14.8267   24.1660 O   0  0  0  0  0  0  0  0  0  0  0  0
    9.9873  -19.2811   23.8209 O   0  0  0  0  0  0  0  0  0  0  0  0
    6.9630  -12.8136   25.0332 C   0  0  0  0  0  0  0  0  0  0  0  0
    7.0498  -13.8890   26.0933 C   0  0  1  0  0  0  0  0  0  0  0  0
    6.0425  -14.8515   25.8812 O   0  0  0  0  0  0  0  0  0  0  0  0
    8.3610  -14.6284   25.8852 C   0  0  2  0  0  0  0  0  0  0  0  0
    8.3202  -15.4384   24.6941 N   0  0  0  0  0  0  0  0  0  0  0  0
    8.6762  -15.4883   27.0554 C   0  0  0  0  0  0  0  0  0  0  0  0
    8.8181  -15.0251   28.2146 O   0  0  0  0  0  0  0  0  0  0  0  0
    8.8220  -16.8530   26.8771 O   0  0  0  0  0  0  0  0  0  0  0  0
  2  1  1  6
  2  5  1  0
  3  2  1  0
  4  3  1  0
  5  6  2  0
  7  5  1  0
  7  8  1  0
  8 12  1  0
  9 10  1  0
  8  9  1  1
 10 11  2  0
 12 19  1  0
 12 13  2  0
 14 10  1  0
 16 15  1  6
 16 18  1  0
 17 16  1  0
 18 20  1  0
 18 19  1  6
 20 21  2  0
 20 22  1  0
M  END
$$$$
