CDT.pdb
     RDKit          3D

 22 21  0  0  1  0  0  0  0  0999 V2000
    6.9270  -15.0947   19.3584 N   0  0  0  0  0  0  0  0  0  0  0  0
    8.1459  -14.5691   19.9290 C   0  0  1  0  0  0  0  0  0  0  0  0
    7.9839  -13.0586   20.0869 C   0  0  0  0  0  0  0  0  0  0  0  0
    7.9569  -12.2973   18.4498 S   0  0  0  0  0  0  0  0  0  0  0  0
    8.2599  -15.0937   21.3314 C   0  0  0  0  0  0  0  0  0  0  0  0
    7.2056  -15.3106   21.9624 O   0  0  0  0  0  0  0  0  0  0  0  0
    9.5125  -15.3378   21.9266 N   0  0  0  0  0  0  0  0  0  0  0  0
    9.5760  -16.0253   23.2121 C   0  0  1  0  0  0  0  0  0  0  0  0
   10.7929  -16.8852   23.3178 C   0  0  0  0  0  0  0  0  0  0  0  0
   10.8453  -17.9850   22.3733 C   0  0  0  0  0  0  0  0  0  0  0  0
    9.9788  -18.8484   22.1531 O   0  0  0  0  0  0  0  0  0  0  0  0
    9.4455  -15.0317   24.3094 C   0  0  0  0  0  0  0  0  0  0  0  0
   10.2625  -14.0883   24.3701 O   0  0  0  0  0  0  0  0  0  0  0  0
   12.0136  -18.1275   21.5841 O   0  0  0  0  0  0  0  0  0  0  0  0
    6.9086  -12.5046   25.3963 C   0  0  0  0  0  0  0  0  0  0  0  0
    7.0780  -13.4881   26.5330 C   0  0  1  0  0  0  0  0  0  0  0  0
    6.1504  -14.5402   26.3968 O   0  0  0  0  0  0  0  0  0  0  0  0
    8.4439  -14.1350   26.3752 C   0  0  2  0  0  0  0  0  0  0  0  0
    8.4478  -15.0899   25.2959 N   0  0  0  0  0  0  0  0  0  0  0  0
    8.8590  -14.8104   27.6321 C   0  0  0  0  0  0  0  0  0  0  0  0
    9.1086  -16.0406   27.6865 O   0  0  0  0  0  0  0  0  0  0  0  0
    8.9797  -14.0694   28.7947 O   0  0  0  0  0  0  0  0  0  0  0  0
  2  1  1  1
  2  5  1  0
  3  2  1  0
  4  3  1  0
  5  6  2  0
  7  5  1  0
  7  8  1  0
  8 12  1  0
  9 10  1  0
  8  9  1  1
 10 11  2  0
 12 19  1  0
 12 13  2  0
 14 10  1  0
 16 15  1  6
 16 18  1  0
 17 16  1  0
 18 20  1  0
 18 19  1  6
 20 21  2  0
 20 22  1  0
M  END
$$$$
