CDT.pdb
     RDKit          3D

 22 21  0  0  1  0  0  0  0  0999 V2000
    6.9988  -15.7363   18.2801 N   0  0  0  0  0  0  0  0  0  0  0  0
    8.0402  -14.9765   18.9327 C   0  0  1  0  0  0  0  0  0  0  0  0
    7.3846  -13.8185   19.6824 C   0  0  0  0  0  0  0  0  0  0  0  0
    8.6723  -12.8173   20.4570 S   0  0  0  0  0  0  0  0  0  0  0  0
    8.6367  -15.8420   20.0051 C   0  0  0  0  0  0  0  0  0  0  0  0
    7.8586  -16.4902   20.7339 O   0  0  0  0  0  0  0  0  0  0  0  0
   10.0297  -15.9281   20.1918 N   0  0  0  0  0  0  0  0  0  0  0  0
   10.5606  -16.7460   21.2773 C   0  0  1  0  0  0  0  0  0  0  0  0
   11.9869  -17.1203   21.0387 C   0  0  0  0  0  0  0  0  0  0  0  0
   12.2004  -18.0294   19.9286 C   0  0  0  0  0  0  0  0  0  0  0  0
   11.4493  -18.9322   19.5217 O   0  0  0  0  0  0  0  0  0  0  0  0
   10.3295  -16.0558   22.5729 C   0  0  0  0  0  0  0  0  0  0  0  0
   10.8592  -14.9408   22.7661 O   0  0  0  0  0  0  0  0  0  0  0  0
   13.4036  -17.9053   19.1905 O   0  0  0  0  0  0  0  0  0  0  0  0
    6.9331  -15.9366   24.5302 C   0  0  0  0  0  0  0  0  0  0  0  0
    8.0957  -14.9995   24.7714 C   0  0  1  0  0  0  0  0  0  0  0  0
    7.9817  -14.4157   26.0489 O   0  0  0  0  0  0  0  0  0  0  0  0
    9.3573  -15.8446   24.8279 C   0  0  2  0  0  0  0  0  0  0  0  0
    9.5429  -16.5879   23.6073 N   0  0  0  0  0  0  0  0  0  0  0  0
    9.3135  -16.7863   25.9765 C   0  0  0  0  0  0  0  0  0  0  0  0
    9.1119  -16.4033   27.1560 O   0  0  0  0  0  0  0  0  0  0  0  0
    9.5001  -18.1395   25.7542 O   0  0  0  0  0  0  0  0  0  0  0  0
  2  1  1  1
  2  5  1  0
  3  2  1  0
  4  3  1  0
  5  6  2  0
  7  5  1  0
  7  8  1  0
  8 12  1  0
  9 10  1  0
  8  9  1  6
 10 11  2  0
 12 19  1  0
 12 13  2  0
 14 10  1  0
 16 15  1  1
 16 18  1  0
 17 16  1  0
 18 20  1  0
 18 19  1  6
 20 21  2  0
 20 22  1  0
M  END
$$$$
