CDT.pdb
     RDKit          3D

 22 21  0  0  1  0  0  0  0  0999 V2000
    8.5611  -14.6648   17.6043 N   0  0  0  0  0  0  0  0  0  0  0  0
    9.6221  -13.8595   18.1641 C   0  0  1  0  0  0  0  0  0  0  0  0
    9.1386  -13.2987   19.4999 C   0  0  0  0  0  0  0  0  0  0  0  0
    7.6983  -12.2493   19.2086 S   0  0  0  0  0  0  0  0  0  0  0  0
   10.7567  -14.7770   18.5188 C   0  0  0  0  0  0  0  0  0  0  0  0
   10.4920  -15.9759   18.7410 O   0  0  0  0  0  0  0  0  0  0  0  0
   12.0828  -14.3105   18.6006 N   0  0  0  0  0  0  0  0  0  0  0  0
   13.1456  -15.2300   18.9931 C   0  0  1  0  0  0  0  0  0  0  0  0
   14.3913  -15.0032   18.2005 C   0  0  0  0  0  0  0  0  0  0  0  0
   14.3549  -15.5235   16.8468 C   0  0  0  0  0  0  0  0  0  0  0  0
   14.2533  -16.7076   16.4830 O   0  0  0  0  0  0  0  0  0  0  0  0
   13.3467  -15.1520   20.4634 C   0  0  0  0  0  0  0  0  0  0  0  0
   13.9138  -14.1472   20.9429 O   0  0  0  0  0  0  0  0  0  0  0  0
   14.4438  -14.5982   15.7772 O   0  0  0  0  0  0  0  0  0  0  0  0
   12.5491  -16.6575   25.0426 C   0  0  0  0  0  0  0  0  0  0  0  0
   12.3176  -16.9640   23.5795 C   0  0  1  0  0  0  0  0  0  0  0  0
   10.9841  -16.6665   23.2342 O   0  0  0  0  0  0  0  0  0  0  0  0
   13.1662  -15.9962   22.7720 C   0  0  2  0  0  0  0  0  0  0  0  0
   12.9341  -16.1524   21.3584 N   0  0  0  0  0  0  0  0  0  0  0  0
   14.6112  -16.1917   23.0586 C   0  0  0  0  0  0  0  0  0  0  0  0
   15.2762  -17.1346   22.5616 O   0  0  0  0  0  0  0  0  0  0  0  0
   15.2626  -15.3097   23.9030 O   0  0  0  0  0  0  0  0  0  0  0  0
  2  1  1  1
  2  5  1  0
  3  2  1  0
  4  3  1  0
  5  6  2  0
  7  5  1  0
  7  8  1  0
  8 12  1  0
  9 10  1  0
  8  9  1  6
 10 11  2  0
 12 19  1  0
 12 13  2  0
 14 10  1  0
 16 15  1  1
 16 18  1  0
 17 16  1  0
 18 20  1  0
 18 19  1  6
 20 21  2  0
 20 22  1  0
M  END
$$$$
