RQY.pdb
     RDKit          3D

 33 33  0  0  1  0  0  0  0  0999 V2000
    9.8202  -13.3029   20.4822 N   0  0  0  0  0  0  0  0  0  0  0  0
    8.8933  -12.5306   19.7420 C   0  0  0  0  0  0  0  0  0  0  0  0
    8.8290  -11.2285   19.8856 N   0  0  0  0  0  0  0  0  0  0  0  0
    7.9917  -13.1006   18.8148 N   0  0  0  0  0  0  0  0  0  0  0  0
    7.8518  -14.5653   18.7688 C   0  0  0  0  0  0  0  0  0  0  0  0
    6.6916  -15.0115   19.5926 C   0  0  0  0  0  0  0  0  0  0  0  0
    6.9423  -16.0660   20.6112 C   0  0  0  0  0  0  0  0  0  0  0  0
    7.8728  -17.1227   20.1432 C   0  0  2  0  0  0  0  0  0  0  0  0
    7.2669  -18.3960   19.8507 N   0  0  0  0  0  0  0  0  0  0  0  0
    8.9699  -17.3758   21.1470 C   0  0  0  0  0  0  0  0  0  0  0  0
    8.7815  -18.2186   22.0525 O   0  0  0  0  0  0  0  0  0  0  0  0
    8.1250  -10.7191   19.3076 N   0  0  0  0  0  0  0  0  0  0  0  0
   14.5285  -14.9359   19.8752 C   0  0  0  0  0  0  0  0  0  0  0  0
   13.3668  -15.5392   19.2797 O   0  0  0  0  0  0  0  0  0  0  0  0
   12.9739  -15.1431   18.1658 C   0  0  0  0  0  0  0  0  0  0  0  0
   12.7147  -16.6022   20.0495 C   0  0  0  0  0  0  0  0  0  0  0  0
   12.4663  -16.2068   21.4581 C   0  0  2  0  0  0  0  0  0  0  0  0
   11.2507  -16.8057   22.1207 N   0  0  0  0  0  0  0  0  0  0  0  0
   10.1953  -16.6936   21.0951 C   0  0  0  0  0  0  0  0  0  0  0  0
   10.8145  -16.1034   23.3494 O   0  0  0  0  0  0  0  0  0  0  0  0
   10.5959  -14.8389   23.2783 O   0  0  0  0  0  0  0  0  0  0  0  0
    6.3002  -10.5815   25.9754 C   0  0  0  0  0  0  0  0  0  0  0  0
    6.8220  -11.8554   25.7226 C   0  0  0  0  0  0  0  0  0  0  0  0
    7.7404  -12.1035   24.7275 C   0  0  0  0  0  0  0  0  0  0  0  0
    8.2471  -13.3788   24.4924 C   0  0  0  0  0  0  0  0  0  0  0  0
    7.8287  -14.4379   25.2687 C   0  0  0  0  0  0  0  0  0  0  0  0
    8.3642  -15.7679   25.0031 C   0  0  2  0  0  0  0  0  0  0  0  0
    9.7127  -16.0537   25.6134 N   0  0  0  0  0  0  0  0  0  0  0  0
   10.6005  -16.6661   24.6173 C   0  0  0  0  0  0  0  0  0  0  0  0
    9.5852  -16.9890   26.7415 O   0  0  0  0  0  0  0  0  0  0  0  0
    9.6291  -18.3589   26.5615 C   0  0  0  0  0  0  0  0  0  0  0  0
    6.9058  -14.1952   26.2707 C   0  0  0  0  0  0  0  0  0  0  0  0
    6.4259  -12.9384   26.4799 O   0  0  0  0  0  0  0  0  0  0  0  0
  2  3  2  0
  2  1  1  0
  4  2  1  0
  5  4  1  0
  6  7  1  0
  6  5  1  0
  8  9  1  1
  8  7  1  0
 10  8  1  0
 11 10  2  0
 12 13  1  0
 13 15  1  0
 14 13  2  0
 15 16  1  0
 17 16  1  6
 17 19  1  0
 17 18  1  0
 18 10  1  0
 19 28  1  0
 20 19  2  0
 22 21  1  0
 23 22  2  0
 24 23  1  0
 25 24  2  0
 25 31  1  0
 26 25  1  0
 27 28  1  0
 27 29  1  0
 27 26  1  6
 29 33  2  0
 29 30  1  0
 31 32  2  0
 32 22  1  0
M  END
$$$$
