RQY.pdb
     RDKit          3D

 33 33  0  0  1  0  0  0  0  0999 V2000
    7.3807  -21.5203   16.1586 N   0  0  0  0  0  0  0  0  0  0  0  0
    6.2610  -21.7852   16.9830 C   0  0  0  0  0  0  0  0  0  0  0  0
    5.0388  -21.5932   16.5478 N   0  0  0  0  0  0  0  0  0  0  0  0
    6.3830  -22.2661   18.3064 N   0  0  0  0  0  0  0  0  0  0  0  0
    7.6483  -22.0498   19.0268 C   0  0  0  0  0  0  0  0  0  0  0  0
    8.2722  -20.7570   18.6226 C   0  0  0  0  0  0  0  0  0  0  0  0
    9.5998  -20.4270   19.2065 C   0  0  0  0  0  0  0  0  0  0  0  0
    9.5080  -19.7341   20.5152 C   0  0  2  0  0  0  0  0  0  0  0  0
    8.1842  -19.6400   21.0744 N   0  0  0  0  0  0  0  0  0  0  0  0
   10.0548  -18.3305   20.4359 C   0  0  0  0  0  0  0  0  0  0  0  0
   11.2193  -18.1558   20.0124 O   0  0  0  0  0  0  0  0  0  0  0  0
    4.2599  -21.7704   17.2195 N   0  0  0  0  0  0  0  0  0  0  0  0
    6.8404  -13.5047   19.2274 C   0  0  0  0  0  0  0  0  0  0  0  0
    8.0354  -12.7726   19.5504 O   0  0  0  0  0  0  0  0  0  0  0  0
    8.0943  -11.5542   19.2973 C   0  0  0  0  0  0  0  0  0  0  0  0
    9.1230  -13.5360   20.1682 C   0  0  0  0  0  0  0  0  0  0  0  0
    8.8128  -14.9842   20.2620 C   0  0  2  0  0  0  0  0  0  0  0  0
    9.8377  -15.8485   20.9533 N   0  0  0  0  0  0  0  0  0  0  0  0
    9.2959  -17.2153   20.8232 C   0  0  0  0  0  0  0  0  0  0  0  0
   10.0353  -15.5359   22.3873 O   0  0  0  0  0  0  0  0  0  0  0  0
    9.2659  -14.6593   22.9272 O   0  0  0  0  0  0  0  0  0  0  0  0
    9.8020  -14.9175   30.9457 C   0  0  0  0  0  0  0  0  0  0  0  0
    9.7943  -15.1432   29.5644 C   0  0  0  0  0  0  0  0  0  0  0  0
    9.5940  -14.1395   28.6436 C   0  0  0  0  0  0  0  0  0  0  0  0
    9.5900  -14.3856   27.2733 C   0  0  0  0  0  0  0  0  0  0  0  0
    9.7907  -15.6661   26.8049 C   0  0  0  0  0  0  0  0  0  0  0  0
    9.7755  -15.9064   25.3667 C   0  0  1  0  0  0  0  0  0  0  0  0
   11.0950  -15.7063   24.6655 N   0  0  0  0  0  0  0  0  0  0  0  0
   10.9843  -16.0985   23.2551 C   0  0  0  0  0  0  0  0  0  0  0  0
   12.1430  -16.5327   25.2839 O   0  0  0  0  0  0  0  0  0  0  0  0
   12.7633  -16.1620   26.4624 C   0  0  0  0  0  0  0  0  0  0  0  0
    9.9928  -16.6794   27.7251 C   0  0  0  0  0  0  0  0  0  0  0  0
    9.9920  -16.4120   29.0601 O   0  0  0  0  0  0  0  0  0  0  0  0
  2  3  2  0
  2  1  1  0
  4  2  1  0
  5  4  1  0
  6  7  1  0
  6  5  1  0
  8  9  1  6
  8  7  1  0
 10  8  1  0
 11 10  2  0
 12 13  1  0
 13 15  1  0
 14 13  2  0
 15 16  1  0
 17 16  1  6
 17 19  1  0
 17 18  1  0
 18 10  1  0
 19 28  1  0
 20 19  2  0
 22 21  1  0
 23 22  2  0
 24 23  1  0
 25 24  2  0
 25 31  1  0
 26 25  1  0
 27 28  1  0
 27 29  1  0
 27 26  1  6
 29 33  2  0
 29 30  1  0
 31 32  2  0
 32 22  1  0
M  END
$$$$
