RQY.pdb
     RDKit          3D

 33 33  0  0  1  0  0  0  0  0999 V2000
    8.4172  -15.5796   15.3353 N   0  0  0  0  0  0  0  0  0  0  0  0
    8.1349  -14.2012   15.1808 C   0  0  0  0  0  0  0  0  0  0  0  0
    7.8744  -13.6911   14.0010 N   0  0  0  0  0  0  0  0  0  0  0  0
    8.1148  -13.2987   16.2683 N   0  0  0  0  0  0  0  0  0  0  0  0
    8.5442  -13.7739   17.5937 C   0  0  0  0  0  0  0  0  0  0  0  0
    7.3887  -14.3281   18.3563 C   0  0  0  0  0  0  0  0  0  0  0  0
    7.6651  -14.8816   19.7089 C   0  0  0  0  0  0  0  0  0  0  0  0
    8.9889  -15.5438   19.8113 C   0  0  2  0  0  0  0  0  0  0  0  0
    9.3268  -16.4235   18.7224 N   0  0  0  0  0  0  0  0  0  0  0  0
    9.1066  -16.3481   21.0819 C   0  0  0  0  0  0  0  0  0  0  0  0
    8.1864  -16.2852   21.9276 O   0  0  0  0  0  0  0  0  0  0  0  0
    7.7262  -12.6593   13.9496 N   0  0  0  0  0  0  0  0  0  0  0  0
   13.2787  -21.3393   21.1205 C   0  0  0  0  0  0  0  0  0  0  0  0
   12.1882  -20.5674   20.5882 O   0  0  0  0  0  0  0  0  0  0  0  0
   12.1655  -20.2969   19.3723 C   0  0  0  0  0  0  0  0  0  0  0  0
   11.1592  -20.1451   21.5423 C   0  0  0  0  0  0  0  0  0  0  0  0
   11.5266  -18.8938   22.2505 C   0  0  2  0  0  0  0  0  0  0  0  0
   10.3966  -17.9503   22.5799 N   0  0  0  0  0  0  0  0  0  0  0  0
   10.2178  -17.1645   21.3434 C   0  0  0  0  0  0  0  0  0  0  0  0
   10.6752  -17.0310   23.7069 O   0  0  0  0  0  0  0  0  0  0  0  0
   11.4831  -16.0522   23.5040 O   0  0  0  0  0  0  0  0  0  0  0  0
    5.9978  -10.7876   27.2340 C   0  0  0  0  0  0  0  0  0  0  0  0
    6.6106  -11.8980   26.6419 C   0  0  0  0  0  0  0  0  0  0  0  0
    5.9036  -12.8837   25.9908 C   0  0  0  0  0  0  0  0  0  0  0  0
    6.5329  -13.9806   25.4084 C   0  0  0  0  0  0  0  0  0  0  0  0
    7.9041  -14.1012   25.4753 C   0  0  0  0  0  0  0  0  0  0  0  0
    8.5454  -15.2607   24.8665 C   0  0  1  0  0  0  0  0  0  0  0  0
    9.6133  -15.9197   25.7018 N   0  0  0  0  0  0  0  0  0  0  0  0
   10.1471  -17.0969   25.0058 C   0  0  0  0  0  0  0  0  0  0  0  0
    9.0632  -16.3670   26.9906 O   0  0  0  0  0  0  0  0  0  0  0  0
    8.2056  -17.4474   27.0817 C   0  0  0  0  0  0  0  0  0  0  0  0
    8.6205  -13.1138   26.1283 C   0  0  0  0  0  0  0  0  0  0  0  0
    7.9808  -12.0511   26.6895 O   0  0  0  0  0  0  0  0  0  0  0  0
  2  3  2  0
  2  1  1  0
  4  2  1  0
  5  4  1  0
  6  7  1  0
  6  5  1  0
  8  9  1  6
  8  7  1  0
 10  8  1  0
 11 10  2  0
 12 13  1  0
 13 15  1  0
 14 13  2  0
 15 16  1  0
 17 16  1  6
 17 19  1  0
 17 18  1  0
 18 10  1  0
 19 28  1  0
 20 19  2  0
 22 21  1  0
 23 22  2  0
 24 23  1  0
 25 24  2  0
 25 31  1  0
 26 25  1  0
 27 28  1  0
 27 29  1  0
 27 26  1  6
 29 33  2  0
 29 30  1  0
 31 32  2  0
 32 22  1  0
M  END
$$$$
