RQY.pdb
     RDKit          3D

 33 33  0  0  1  0  0  0  0  0999 V2000
    7.8908  -13.2000   16.5247 N   0  0  0  0  0  0  0  0  0  0  0  0
    7.3792  -14.0311   15.4994 C   0  0  0  0  0  0  0  0  0  0  0  0
    7.4932  -13.6968   14.2363 N   0  0  0  0  0  0  0  0  0  0  0  0
    6.7235  -15.2550   15.7635 N   0  0  0  0  0  0  0  0  0  0  0  0
    6.6789  -15.7523   17.1482 C   0  0  0  0  0  0  0  0  0  0  0  0
    8.0567  -15.9306   17.6904 C   0  0  0  0  0  0  0  0  0  0  0  0
    8.3953  -17.2564   18.2734 C   0  0  0  0  0  0  0  0  0  0  0  0
    8.1842  -17.3220   19.7405 C   0  0  2  0  0  0  0  0  0  0  0  0
    7.4552  -16.2188   20.3110 N   0  0  0  0  0  0  0  0  0  0  0  0
    9.4939  -17.4170   20.4826 C   0  0  0  0  0  0  0  0  0  0  0  0
   10.2897  -18.3386   20.1941 O   0  0  0  0  0  0  0  0  0  0  0  0
    7.1436  -14.3797   13.5288 N   0  0  0  0  0  0  0  0  0  0  0  0
   14.7142  -13.1625   21.8250 C   0  0  0  0  0  0  0  0  0  0  0  0
   14.0044  -14.2451   21.1985 O   0  0  0  0  0  0  0  0  0  0  0  0
   14.0377  -14.3631   19.9588 C   0  0  0  0  0  0  0  0  0  0  0  0
   13.2749  -15.1511   22.0898 C   0  0  0  0  0  0  0  0  0  0  0  0
   11.8476  -15.2894   21.7079 C   0  0  2  0  0  0  0  0  0  0  0  0
   11.1327  -16.5192   22.2100 N   0  0  0  0  0  0  0  0  0  0  0  0
    9.8460  -16.5022   21.4871 C   0  0  0  0  0  0  0  0  0  0  0  0
   10.8739  -16.5246   23.6681 O   0  0  0  0  0  0  0  0  0  0  0  0
   11.8706  -16.3487   24.4602 O   0  0  0  0  0  0  0  0  0  0  0  0
    7.4201  -10.7251   25.7629 C   0  0  0  0  0  0  0  0  0  0  0  0
    7.6118  -12.1054   25.8936 C   0  0  0  0  0  0  0  0  0  0  0  0
    8.2422  -12.6735   26.9776 C   0  0  0  0  0  0  0  0  0  0  0  0
    8.4228  -14.0496   27.0882 C   0  0  0  0  0  0  0  0  0  0  0  0
    7.9637  -14.8847   26.0926 C   0  0  0  0  0  0  0  0  0  0  0  0
    8.1686  -16.3227   26.2217 C   0  0  2  0  0  0  0  0  0  0  0  0
    9.5151  -16.8255   25.7669 N   0  0  0  0  0  0  0  0  0  0  0  0
    9.6377  -16.6993   24.3094 C   0  0  0  0  0  0  0  0  0  0  0  0
    9.6843  -18.2450   26.1138 O   0  0  0  0  0  0  0  0  0  0  0  0
    9.7669  -18.6698   27.4267 C   0  0  0  0  0  0  0  0  0  0  0  0
    7.3291  -14.3200   25.0005 C   0  0  0  0  0  0  0  0  0  0  0  0
    7.1652  -12.9710   24.9167 O   0  0  0  0  0  0  0  0  0  0  0  0
  2  3  2  0
  2  1  1  0
  4  2  1  0
  5  4  1  0
  6  7  1  0
  6  5  1  0
  8  9  1  1
  8  7  1  0
 10  8  1  0
 11 10  2  0
 12 13  1  0
 13 15  1  0
 14 13  2  0
 15 16  1  0
 17 16  1  6
 17 19  1  0
 17 18  1  0
 18 10  1  0
 19 28  1  0
 20 19  2  0
 22 21  1  0
 23 22  2  0
 24 23  1  0
 25 24  2  0
 25 31  1  0
 26 25  1  0
 27 28  1  0
 27 29  1  0
 27 26  1  1
 29 33  2  0
 29 30  1  0
 31 32  2  0
 32 22  1  0
M  END
$$$$
