RQY.pdb
     RDKit          3D

 33 33  0  0  1  0  0  0  0  0999 V2000
   10.0060  -14.5080   19.4250 N   0  0  0  0  0  0  0  0  0  0  0  0
    9.0252  -13.4874   19.4297 C   0  0  0  0  0  0  0  0  0  0  0  0
    9.3080  -12.2741   19.0199 N   0  0  0  0  0  0  0  0  0  0  0  0
    7.6990  -13.7039   19.8680 N   0  0  0  0  0  0  0  0  0  0  0  0
    7.3901  -14.9336   20.6159 C   0  0  0  0  0  0  0  0  0  0  0  0
    7.1866  -14.6351   22.0627 C   0  0  0  0  0  0  0  0  0  0  0  0
    6.4321  -15.6335   22.8668 C   0  0  0  0  0  0  0  0  0  0  0  0
    7.0563  -16.9795   22.8642 C   0  0  2  0  0  0  0  0  0  0  0  0
    6.3532  -17.9866   22.1123 N   0  0  0  0  0  0  0  0  0  0  0  0
    7.2253  -17.5119   24.2654 C   0  0  0  0  0  0  0  0  0  0  0  0
    6.2126  -17.6564   24.9860 O   0  0  0  0  0  0  0  0  0  0  0  0
   10.2357  -12.1287   18.5643 N   0  0  0  0  0  0  0  0  0  0  0  0
    9.4124  -22.5737   26.3469 C   0  0  0  0  0  0  0  0  0  0  0  0
    9.2336  -21.5446   27.3355 O   0  0  0  0  0  0  0  0  0  0  0  0
    8.4468  -21.7351   28.2824 C   0  0  0  0  0  0  0  0  0  0  0  0
   10.0106  -20.3163   27.1485 C   0  0  0  0  0  0  0  0  0  0  0  0
    9.6017  -19.5702   25.9326 C   0  0  1  0  0  0  0  0  0  0  0  0
    8.7070  -18.3746   26.1458 N   0  0  0  0  0  0  0  0  0  0  0  0
    8.4848  -17.8497   24.7843 C   0  0  0  0  0  0  0  0  0  0  0  0
    9.2977  -17.3104   26.9893 O   0  0  0  0  0  0  0  0  0  0  0  0
    9.6707  -17.6190   28.1798 O   0  0  0  0  0  0  0  0  0  0  0  0
    4.8508  -12.5256   24.9217 C   0  0  0  0  0  0  0  0  0  0  0  0
    5.9366  -12.8965   25.7232 C   0  0  0  0  0  0  0  0  0  0  0  0
    7.0302  -12.0845   25.9234 C   0  0  0  0  0  0  0  0  0  0  0  0
    8.1003  -12.4727   26.7249 C   0  0  0  0  0  0  0  0  0  0  0  0
    8.0830  -13.7033   27.3450 C   0  0  0  0  0  0  0  0  0  0  0  0
    9.2161  -14.0963   28.1745 C   0  0  2  0  0  0  0  0  0  0  0  0
   10.2072  -15.0217   27.5158 N   0  0  0  0  0  0  0  0  0  0  0  0
    9.5101  -15.9685   26.6366 C   0  0  0  0  0  0  0  0  0  0  0  0
   10.9430  -15.7991   28.5248 O   0  0  0  0  0  0  0  0  0  0  0  0
   11.0426  -17.1761   28.4543 C   0  0  0  0  0  0  0  0  0  0  0  0
    6.9867  -14.5242   27.1480 C   0  0  0  0  0  0  0  0  0  0  0  0
    5.9530  -14.1206   26.3592 O   0  0  0  0  0  0  0  0  0  0  0  0
  2  3  2  0
  2  1  1  0
  4  2  1  0
  5  4  1  0
  6  7  1  0
  6  5  1  0
  8  9  1  6
  8  7  1  0
 10  8  1  0
 11 10  2  0
 12 13  1  0
 13 15  1  0
 14 13  2  0
 15 16  1  0
 17 16  1  6
 17 19  1  0
 17 18  1  0
 18 10  1  0
 19 28  1  0
 20 19  2  0
 22 21  1  0
 23 22  2  0
 24 23  1  0
 25 24  2  0
 25 31  1  0
 26 25  1  0
 27 28  1  0
 27 29  1  0
 27 26  1  6
 29 33  2  0
 29 30  1  0
 31 32  2  0
 32 22  1  0
M  END
$$$$
