RQY.pdb
     RDKit          3D

 33 33  0  0  1  0  0  0  0  0999 V2000
    5.9192  -12.7843   19.4304 N   0  0  0  0  0  0  0  0  0  0  0  0
    7.1616  -12.8176   20.1077 C   0  0  0  0  0  0  0  0  0  0  0  0
    7.7873  -11.7110   20.4302 N   0  0  0  0  0  0  0  0  0  0  0  0
    7.7993  -14.0241   20.4758 N   0  0  0  0  0  0  0  0  0  0  0  0
    6.9979  -15.2565   20.5515 C   0  0  0  0  0  0  0  0  0  0  0  0
    7.1066  -15.8753   21.9039 C   0  0  0  0  0  0  0  0  0  0  0  0
    6.6720  -17.2908   22.0446 C   0  0  0  0  0  0  0  0  0  0  0  0
    7.6907  -18.2648   21.5808 C   0  0  2  0  0  0  0  0  0  0  0  0
    7.2840  -19.6460   21.6075 N   0  0  0  0  0  0  0  0  0  0  0  0
    8.9601  -18.1624   22.3891 C   0  0  0  0  0  0  0  0  0  0  0  0
    9.2096  -19.0438   23.2416 O   0  0  0  0  0  0  0  0  0  0  0  0
    8.7108  -11.8068   20.9069 N   0  0  0  0  0  0  0  0  0  0  0  0
   13.3924  -14.3369   20.4273 C   0  0  0  0  0  0  0  0  0  0  0  0
   13.8902  -14.5454   21.7603 O   0  0  0  0  0  0  0  0  0  0  0  0
   14.7730  -13.7897   22.2096 C   0  0  0  0  0  0  0  0  0  0  0  0
   13.3066  -15.6617   22.5091 C   0  0  0  0  0  0  0  0  0  0  0  0
   11.8948  -15.9178   22.1301 C   0  0  2  0  0  0  0  0  0  0  0  0
   11.1969  -17.0419   22.8545 N   0  0  0  0  0  0  0  0  0  0  0  0
    9.8692  -17.1077   22.2131 C   0  0  0  0  0  0  0  0  0  0  0  0
   11.0264  -16.8205   24.3088 O   0  0  0  0  0  0  0  0  0  0  0  0
   12.0795  -16.6218   25.0182 O   0  0  0  0  0  0  0  0  0  0  0  0
    6.5867  -11.6207   23.6437 C   0  0  0  0  0  0  0  0  0  0  0  0
    7.0470  -12.6803   24.4339 C   0  0  0  0  0  0  0  0  0  0  0  0
    8.2288  -12.6296   25.1382 C   0  0  0  0  0  0  0  0  0  0  0  0
    8.6686  -13.6953   25.9188 C   0  0  0  0  0  0  0  0  0  0  0  0
    7.9121  -14.8442   26.0015 C   0  0  0  0  0  0  0  0  0  0  0  0
    8.3923  -15.9531   26.8176 C   0  0  2  0  0  0  0  0  0  0  0  0
    9.7611  -16.4728   26.4583 N   0  0  0  0  0  0  0  0  0  0  0  0
    9.8210  -16.7963   25.0276 C   0  0  0  0  0  0  0  0  0  0  0  0
   10.0664  -17.6983   27.2123 O   0  0  0  0  0  0  0  0  0  0  0  0
   10.3009  -18.9047   26.5792 C   0  0  0  0  0  0  0  0  0  0  0  0
    6.7231  -14.9015   25.2962 C   0  0  0  0  0  0  0  0  0  0  0  0
    6.3156  -13.8452   24.5400 O   0  0  0  0  0  0  0  0  0  0  0  0
  2  3  2  0
  2  1  1  0
  4  2  1  0
  5  4  1  0
  6  7  1  0
  6  5  1  0
  8  9  1  1
  8  7  1  0
 10  8  1  0
 11 10  2  0
 12 13  1  0
 13 15  1  0
 14 13  2  0
 15 16  1  0
 17 16  1  6
 17 19  1  0
 17 18  1  0
 18 10  1  0
 19 28  1  0
 20 19  2  0
 22 21  1  0
 23 22  2  0
 24 23  1  0
 25 24  2  0
 25 31  1  0
 26 25  1  0
 27 28  1  0
 27 29  1  0
 27 26  1  6
 29 33  2  0
 29 30  1  0
 31 32  2  0
 32 22  1  0
M  END
$$$$
