RQY.pdb
     RDKit          3D

 33 33  0  0  1  0  0  0  0  0999 V2000
   10.4742  -13.6600   19.3157 N   0  0  0  0  0  0  0  0  0  0  0  0
    9.2027  -13.4448   18.7322 C   0  0  0  0  0  0  0  0  0  0  0  0
    8.8426  -12.2557   18.3122 N   0  0  0  0  0  0  0  0  0  0  0  0
    8.2532  -14.4785   18.5658 N   0  0  0  0  0  0  0  0  0  0  0  0
    8.2161  -15.5736   19.5487 C   0  0  0  0  0  0  0  0  0  0  0  0
    7.2130  -15.2921   20.6158 C   0  0  0  0  0  0  0  0  0  0  0  0
    6.9054  -16.3900   21.5710 C   0  0  0  0  0  0  0  0  0  0  0  0
    7.6201  -17.6528   21.2615 C   0  0  2  0  0  0  0  0  0  0  0  0
    6.7974  -18.8339   21.2132 N   0  0  0  0  0  0  0  0  0  0  0  0
    8.7211  -17.9218   22.2568 C   0  0  0  0  0  0  0  0  0  0  0  0
    8.4438  -18.5151   23.3231 O   0  0  0  0  0  0  0  0  0  0  0  0
    7.8848  -12.1624   17.9082 N   0  0  0  0  0  0  0  0  0  0  0  0
   14.6300  -18.5064   20.6396 C   0  0  0  0  0  0  0  0  0  0  0  0
   14.8215  -17.7332   21.8370 O   0  0  0  0  0  0  0  0  0  0  0  0
   15.9064  -17.1494   22.0221 C   0  0  0  0  0  0  0  0  0  0  0  0
   13.6961  -17.6903   22.7746 C   0  0  0  0  0  0  0  0  0  0  0  0
   12.3844  -17.7681   22.0849 C   0  0  1  0  0  0  0  0  0  0  0  0
   11.1594  -17.7537   22.9650 N   0  0  0  0  0  0  0  0  0  0  0  0
   10.0470  -17.5261   22.0220 C   0  0  0  0  0  0  0  0  0  0  0  0
   11.1556  -16.6864   23.9916 O   0  0  0  0  0  0  0  0  0  0  0  0
   11.4363  -15.4884   23.6203 O   0  0  0  0  0  0  0  0  0  0  0  0
    5.9264  -11.1418   27.6212 C   0  0  0  0  0  0  0  0  0  0  0  0
    6.6495  -12.1972   27.0535 C   0  0  0  0  0  0  0  0  0  0  0  0
    6.1643  -13.4837   26.9834 C   0  0  0  0  0  0  0  0  0  0  0  0
    6.9002  -14.5196   26.4143 C   0  0  0  0  0  0  0  0  0  0  0  0
    8.1543  -14.2695   25.9004 C   0  0  0  0  0  0  0  0  0  0  0  0
    8.9138  -15.3682   25.3152 C   0  0  2  0  0  0  0  0  0  0  0  0
   10.1092  -15.8226   26.1133 N   0  0  0  0  0  0  0  0  0  0  0  0
   10.8708  -16.8258   25.3590 C   0  0  0  0  0  0  0  0  0  0  0  0
    9.6853  -16.4359   27.3813 O   0  0  0  0  0  0  0  0  0  0  0  0
    9.8024  -17.7943   27.6093 C   0  0  0  0  0  0  0  0  0  0  0  0
    8.6476  -12.9785   25.9676 C   0  0  0  0  0  0  0  0  0  0  0  0
    7.9075  -11.9833   26.5294 O   0  0  0  0  0  0  0  0  0  0  0  0
  2  3  2  0
  2  1  1  0
  4  2  1  0
  5  4  1  0
  6  7  1  0
  6  5  1  0
  8  9  1  1
  8  7  1  0
 10  8  1  0
 11 10  2  0
 12 13  1  0
 13 15  1  0
 14 13  2  0
 15 16  1  0
 17 16  1  6
 17 19  1  0
 17 18  1  0
 18 10  1  0
 19 28  1  0
 20 19  2  0
 22 21  1  0
 23 22  2  0
 24 23  1  0
 25 24  2  0
 25 31  1  0
 26 25  1  0
 27 28  1  0
 27 29  1  0
 27 26  1  6
 29 33  2  0
 29 30  1  0
 31 32  2  0
 32 22  1  0
M  END
$$$$
