RQY.pdb
     RDKit          3D

 33 33  0  0  1  0  0  0  0  0999 V2000
    6.8484  -19.0550   14.0105 N   0  0  0  0  0  0  0  0  0  0  0  0
    6.4168  -20.2301   14.6711 C   0  0  0  0  0  0  0  0  0  0  0  0
    5.6832  -21.1243   14.0528 N   0  0  0  0  0  0  0  0  0  0  0  0
    6.7422  -20.5135   16.0170 N   0  0  0  0  0  0  0  0  0  0  0  0
    7.5323  -19.5323   16.7784 C   0  0  0  0  0  0  0  0  0  0  0  0
    7.7600  -20.0058   18.1741 C   0  0  0  0  0  0  0  0  0  0  0  0
    8.5318  -19.1144   19.0807 C   0  0  0  0  0  0  0  0  0  0  0  0
    9.3511  -18.1110   18.3572 C   0  0  2  0  0  0  0  0  0  0  0  0
   10.3808  -18.6496   17.5066 N   0  0  0  0  0  0  0  0  0  0  0  0
   10.0219  -17.1547   19.3116 C   0  0  0  0  0  0  0  0  0  0  0  0
   11.2534  -17.2573   19.5080 O   0  0  0  0  0  0  0  0  0  0  0  0
    5.3631  -21.9466   14.6101 N   0  0  0  0  0  0  0  0  0  0  0  0
    6.4461  -13.3623   19.8960 C   0  0  0  0  0  0  0  0  0  0  0  0
    7.3583  -13.2929   18.7864 O   0  0  0  0  0  0  0  0  0  0  0  0
    6.9148  -13.0853   17.6409 C   0  0  0  0  0  0  0  0  0  0  0  0
    8.7789  -13.4779   19.0953 C   0  0  0  0  0  0  0  0  0  0  0  0
    9.0011  -13.8816   20.5059 C   0  0  2  0  0  0  0  0  0  0  0  0
    9.9318  -15.0466   20.7339 N   0  0  0  0  0  0  0  0  0  0  0  0
    9.3052  -16.1538   19.9855 C   0  0  0  0  0  0  0  0  0  0  0  0
   10.0835  -15.4406   22.1533 O   0  0  0  0  0  0  0  0  0  0  0  0
    9.0369  -15.8335   22.7874 O   0  0  0  0  0  0  0  0  0  0  0  0
    9.9222  -14.8622   30.6342 C   0  0  0  0  0  0  0  0  0  0  0  0
   10.0332  -14.8049   29.2401 C   0  0  0  0  0  0  0  0  0  0  0  0
   10.6977  -15.7590   28.5029 C   0  0  0  0  0  0  0  0  0  0  0  0
   10.7966  -15.6831   27.1162 C   0  0  0  0  0  0  0  0  0  0  0  0
   10.2186  -14.6286   26.4432 C   0  0  0  0  0  0  0  0  0  0  0  0
   10.3389  -14.5614   24.9915 C   0  0  1  0  0  0  0  0  0  0  0  0
   11.2643  -15.5785   24.3734 N   0  0  0  0  0  0  0  0  0  0  0  0
   11.2646  -15.4416   22.9118 C   0  0  0  0  0  0  0  0  0  0  0  0
   10.8276  -16.9447   24.6997 O   0  0  0  0  0  0  0  0  0  0  0  0
   11.2626  -17.5968   25.8385 C   0  0  0  0  0  0  0  0  0  0  0  0
    9.5491  -13.6663   27.1782 C   0  0  0  0  0  0  0  0  0  0  0  0
    9.4669  -13.7640   28.5337 O   0  0  0  0  0  0  0  0  0  0  0  0
  2  3  2  0
  2  1  1  0
  4  2  1  0
  5  4  1  0
  6  7  1  0
  6  5  1  0
  8  9  1  1
  8  7  1  0
 10  8  1  0
 11 10  2  0
 12 13  1  0
 13 15  1  0
 14 13  2  0
 15 16  1  0
 17 16  1  6
 17 19  1  0
 17 18  1  0
 18 10  1  0
 19 28  1  0
 20 19  2  0
 22 21  1  0
 23 22  2  0
 24 23  1  0
 25 24  2  0
 25 31  1  0
 26 25  1  0
 27 28  1  0
 27 29  1  0
 27 26  1  1
 29 33  2  0
 29 30  1  0
 31 32  2  0
 32 22  1  0
M  END
$$$$
