RQY.pdb
     RDKit          3D

 33 33  0  0  1  0  0  0  0  0999 V2000
    6.9604  -17.8670   16.9178 N   0  0  0  0  0  0  0  0  0  0  0  0
    7.5488  -16.8307   16.1540 C   0  0  0  0  0  0  0  0  0  0  0  0
    7.0827  -16.5135   14.9699 N   0  0  0  0  0  0  0  0  0  0  0  0
    8.6577  -16.0815   16.6086 N   0  0  0  0  0  0  0  0  0  0  0  0
    9.0281  -16.1533   18.0314 C   0  0  0  0  0  0  0  0  0  0  0  0
    8.0554  -15.3948   18.8695 C   0  0  0  0  0  0  0  0  0  0  0  0
    8.2600  -15.4170   20.3427 C   0  0  0  0  0  0  0  0  0  0  0  0
    8.0686  -16.7615   20.9401 C   0  0  2  0  0  0  0  0  0  0  0  0
    7.1633  -17.6301   20.2330 N   0  0  0  0  0  0  0  0  0  0  0  0
    7.5716  -16.6680   22.3613 C   0  0  0  0  0  0  0  0  0  0  0  0
    6.5865  -15.9387   22.6130 O   0  0  0  0  0  0  0  0  0  0  0  0
    7.5245  -15.7016   14.4852 N   0  0  0  0  0  0  0  0  0  0  0  0
    6.0329  -20.1392   26.8562 C   0  0  0  0  0  0  0  0  0  0  0  0
    5.0223  -19.1934   26.4658 O   0  0  0  0  0  0  0  0  0  0  0  0
    3.9310  -19.1803   27.0665 C   0  0  0  0  0  0  0  0  0  0  0  0
    5.3614  -18.2932   25.3604 C   0  0  0  0  0  0  0  0  0  0  0  0
    6.7128  -18.5616   24.8090 C   0  0  2  0  0  0  0  0  0  0  0  0
    7.6768  -17.4015   24.7957 N   0  0  0  0  0  0  0  0  0  0  0  0
    8.1818  -17.3750   23.4090 C   0  0  0  0  0  0  0  0  0  0  0  0
    8.8182  -17.5429   25.7285 O   0  0  0  0  0  0  0  0  0  0  0  0
    9.7330  -18.3985   25.4403 O   0  0  0  0  0  0  0  0  0  0  0  0
   11.8205  -12.0649   23.8700 C   0  0  0  0  0  0  0  0  0  0  0  0
   11.5820  -12.9531   24.9251 C   0  0  0  0  0  0  0  0  0  0  0  0
   12.5588  -13.7674   25.4525 C   0  0  0  0  0  0  0  0  0  0  0  0
   12.3004  -14.6443   26.5025 C   0  0  0  0  0  0  0  0  0  0  0  0
   11.0349  -14.7139   27.0437 C   0  0  0  0  0  0  0  0  0  0  0  0
   10.7808  -15.6437   28.1379 C   0  0  2  0  0  0  0  0  0  0  0  0
   10.2486  -16.9930   27.7270 N   0  0  0  0  0  0  0  0  0  0  0  0
    9.0319  -16.8341   26.9211 C   0  0  0  0  0  0  0  0  0  0  0  0
    9.9063  -17.7989   28.9090 O   0  0  0  0  0  0  0  0  0  0  0  0
    8.6280  -18.2826   29.1164 C   0  0  0  0  0  0  0  0  0  0  0  0
   10.0487  -13.8979   26.5183 C   0  0  0  0  0  0  0  0  0  0  0  0
   10.3276  -13.0490   25.4911 O   0  0  0  0  0  0  0  0  0  0  0  0
  2  3  2  0
  2  1  1  0
  4  2  1  0
  5  4  1  0
  6  7  1  0
  6  5  1  0
  8  9  1  6
  8  7  1  0
 10  8  1  0
 11 10  2  0
 12 13  1  0
 13 15  1  0
 14 13  2  0
 15 16  1  0
 17 16  1  6
 17 19  1  0
 17 18  1  0
 18 10  1  0
 19 28  1  0
 20 19  2  0
 22 21  1  0
 23 22  2  0
 24 23  1  0
 25 24  2  0
 25 31  1  0
 26 25  1  0
 27 28  1  0
 27 29  1  0
 27 26  1  6
 29 33  2  0
 29 30  1  0
 31 32  2  0
 32 22  1  0
M  END
$$$$
