RQY.pdb
     RDKit          3D

 33 33  0  0  1  0  0  0  0  0999 V2000
    8.6006  -12.0551   19.0995 N   0  0  0  0  0  0  0  0  0  0  0  0
    8.0260  -13.0197   18.2377 C   0  0  0  0  0  0  0  0  0  0  0  0
    8.1563  -12.9282   16.9359 N   0  0  0  0  0  0  0  0  0  0  0  0
    7.2870  -14.1264   18.7139 N   0  0  0  0  0  0  0  0  0  0  0  0
    7.8635  -14.9582   19.7828 C   0  0  0  0  0  0  0  0  0  0  0  0
    6.9354  -15.0403   20.9472 C   0  0  0  0  0  0  0  0  0  0  0  0
    7.4238  -15.7464   22.1618 C   0  0  0  0  0  0  0  0  0  0  0  0
    8.3088  -16.8968   21.8541 C   0  0  2  0  0  0  0  0  0  0  0  0
    7.6547  -18.0457   21.2829 N   0  0  0  0  0  0  0  0  0  0  0  0
    9.0431  -17.3721   23.0830 C   0  0  0  0  0  0  0  0  0  0  0  0
    8.4692  -18.1626   23.8652 O   0  0  0  0  0  0  0  0  0  0  0  0
    7.7107  -13.6747   16.3583 N   0  0  0  0  0  0  0  0  0  0  0  0
   15.0036  -16.4048   24.4396 C   0  0  0  0  0  0  0  0  0  0  0  0
   14.2521  -15.7048   23.4329 O   0  0  0  0  0  0  0  0  0  0  0  0
   14.7527  -14.7086   22.8770 C   0  0  0  0  0  0  0  0  0  0  0  0
   12.9179  -16.2297   23.1298 C   0  0  0  0  0  0  0  0  0  0  0  0
   12.5819  -17.4217   23.9474 C   0  0  1  0  0  0  0  0  0  0  0  0
   11.1704  -17.5009   24.4734 N   0  0  0  0  0  0  0  0  0  0  0  0
   10.3505  -16.9537   23.3748 C   0  0  0  0  0  0  0  0  0  0  0  0
   10.9298  -16.7110   25.7027 O   0  0  0  0  0  0  0  0  0  0  0  0
   10.5938  -15.4773   25.5732 O   0  0  0  0  0  0  0  0  0  0  0  0
    6.7918  -11.7598   25.8420 C   0  0  0  0  0  0  0  0  0  0  0  0
    7.4119  -12.8421   26.4769 C   0  0  0  0  0  0  0  0  0  0  0  0
    8.6668  -12.7615   27.0375 C   0  0  0  0  0  0  0  0  0  0  0  0
    9.2658  -13.8506   27.6647 C   0  0  0  0  0  0  0  0  0  0  0  0
    8.5985  -15.0542   27.7367 C   0  0  0  0  0  0  0  0  0  0  0  0
    9.2447  -16.1862   28.3906 C   0  0  2  0  0  0  0  0  0  0  0  0
   10.7335  -16.2898   28.1779 N   0  0  0  0  0  0  0  0  0  0  0  0
   11.0224  -17.1582   27.0300 C   0  0  0  0  0  0  0  0  0  0  0  0
   11.3885  -16.8700   29.3602 O   0  0  0  0  0  0  0  0  0  0  0  0
   12.1138  -18.0448   29.2891 C   0  0  0  0  0  0  0  0  0  0  0  0
    7.3369  -15.1418   27.1754 C   0  0  0  0  0  0  0  0  0  0  0  0
    6.7734  -14.0616   26.5676 O   0  0  0  0  0  0  0  0  0  0  0  0
  2  3  2  0
  2  1  1  0
  4  2  1  0
  5  4  1  0
  6  7  1  0
  6  5  1  0
  8  9  1  1
  8  7  1  0
 10  8  1  0
 11 10  2  0
 12 13  1  0
 13 15  1  0
 14 13  2  0
 15 16  1  0
 17 16  1  6
 17 19  1  0
 17 18  1  0
 18 10  1  0
 19 28  1  0
 20 19  2  0
 22 21  1  0
 23 22  2  0
 24 23  1  0
 25 24  2  0
 25 31  1  0
 26 25  1  0
 27 28  1  0
 27 29  1  0
 27 26  1  6
 29 33  2  0
 29 30  1  0
 31 32  2  0
 32 22  1  0
M  END
$$$$
