RQY.pdb
     RDKit          3D

 33 33  0  0  1  0  0  0  0  0999 V2000
    6.5814  -15.0111   15.4729 N   0  0  0  0  0  0  0  0  0  0  0  0
    7.4484  -13.8975   15.3649 C   0  0  0  0  0  0  0  0  0  0  0  0
    8.0979  -13.6500   14.2527 N   0  0  0  0  0  0  0  0  0  0  0  0
    7.6677  -12.9936   16.4291 N   0  0  0  0  0  0  0  0  0  0  0  0
    8.5128  -13.4168   17.5575 C   0  0  0  0  0  0  0  0  0  0  0  0
    7.8152  -14.4432   18.3844 C   0  0  0  0  0  0  0  0  0  0  0  0
    8.5281  -14.9520   19.5866 C   0  0  0  0  0  0  0  0  0  0  0  0
    9.1670  -16.2739   19.3727 C   0  0  2  0  0  0  0  0  0  0  0  0
    8.5235  -17.1229   18.4036 N   0  0  0  0  0  0  0  0  0  0  0  0
    9.2551  -17.0585   20.6580 C   0  0  0  0  0  0  0  0  0  0  0  0
    8.6181  -18.1308   20.7594 O   0  0  0  0  0  0  0  0  0  0  0  0
    8.7082  -12.8035   14.2350 N   0  0  0  0  0  0  0  0  0  0  0  0
   14.9481  -19.6794   22.7415 C   0  0  0  0  0  0  0  0  0  0  0  0
   13.7838  -19.5614   21.9057 O   0  0  0  0  0  0  0  0  0  0  0  0
   13.8995  -19.6917   20.6722 C   0  0  0  0  0  0  0  0  0  0  0  0
   12.5152  -19.2881   22.5866 C   0  0  0  0  0  0  0  0  0  0  0  0
   11.7055  -18.2644   21.8805 C   0  0  2  0  0  0  0  0  0  0  0  0
   10.6869  -17.5226   22.7097 N   0  0  0  0  0  0  0  0  0  0  0  0
   10.0303  -16.6210   21.7431 C   0  0  0  0  0  0  0  0  0  0  0  0
   11.2628  -16.7199   23.8130 O   0  0  0  0  0  0  0  0  0  0  0  0
   12.1698  -15.8565   23.5237 O   0  0  0  0  0  0  0  0  0  0  0  0
    5.7948  -11.2161   27.3329 C   0  0  0  0  0  0  0  0  0  0  0  0
    6.5708  -12.2312   26.7615 C   0  0  0  0  0  0  0  0  0  0  0  0
    6.0253  -13.2954   26.0793 C   0  0  0  0  0  0  0  0  0  0  0  0
    6.8155  -14.2950   25.5183 C   0  0  0  0  0  0  0  0  0  0  0  0
    8.1871  -14.2352   25.6390 C   0  0  0  0  0  0  0  0  0  0  0  0
    8.9983  -15.2951   25.0518 C   0  0  1  0  0  0  0  0  0  0  0  0
   10.2005  -15.7104   25.8611 N   0  0  0  0  0  0  0  0  0  0  0  0
   10.9272  -16.7854   25.1743 C   0  0  0  0  0  0  0  0  0  0  0  0
    9.7902  -16.2132   27.1811 O   0  0  0  0  0  0  0  0  0  0  0  0
   10.0162  -15.4919   28.3386 C   0  0  0  0  0  0  0  0  0  0  0  0
    8.7416  -13.1681   26.3234 C   0  0  0  0  0  0  0  0  0  0  0  0
    7.9463  -12.2035   26.8627 O   0  0  0  0  0  0  0  0  0  0  0  0
  2  3  2  0
  2  1  1  0
  4  2  1  0
  5  4  1  0
  6  7  1  0
  6  5  1  0
  8  9  1  6
  8  7  1  0
 10  8  1  0
 11 10  2  0
 12 13  1  0
 13 15  1  0
 14 13  2  0
 15 16  1  0
 17 16  1  6
 17 19  1  0
 17 18  1  0
 18 10  1  0
 19 28  1  0
 20 19  2  0
 22 21  1  0
 23 22  2  0
 24 23  1  0
 25 24  2  0
 25 31  1  0
 26 25  1  0
 27 28  1  0
 27 29  1  0
 27 26  1  6
 29 33  2  0
 29 30  1  0
 31 32  2  0
 32 22  1  0
M  END
$$$$
