RQY.pdb
     RDKit          3D

 33 33  0  0  1  0  0  0  0  0999 V2000
    9.3924  -13.2782   17.6097 N   0  0  0  0  0  0  0  0  0  0  0  0
    8.4510  -13.6727   16.6291 C   0  0  0  0  0  0  0  0  0  0  0  0
    8.2951  -12.9841   15.5239 N   0  0  0  0  0  0  0  0  0  0  0  0
    7.6312  -14.8150   16.7727 N   0  0  0  0  0  0  0  0  0  0  0  0
    7.8217  -15.6830   17.9462 C   0  0  0  0  0  0  0  0  0  0  0  0
    7.3356  -15.0105   19.1853 C   0  0  0  0  0  0  0  0  0  0  0  0
    7.3592  -15.8003   20.4455 C   0  0  0  0  0  0  0  0  0  0  0  0
    8.2183  -17.0073   20.3640 C   0  0  2  0  0  0  0  0  0  0  0  0
    7.6032  -18.1660   19.7699 N   0  0  0  0  0  0  0  0  0  0  0  0
    8.7180  -17.4217   21.7256 C   0  0  0  0  0  0  0  0  0  0  0  0
    7.8930  -17.8088   22.5830 O   0  0  0  0  0  0  0  0  0  0  0  0
    7.6062  -13.3471   14.8290 N   0  0  0  0  0  0  0  0  0  0  0  0
   14.1765  -19.8127   22.0715 C   0  0  0  0  0  0  0  0  0  0  0  0
   12.9836  -20.5309   21.7117 O   0  0  0  0  0  0  0  0  0  0  0  0
   13.0803  -21.6079   21.0929 C   0  0  0  0  0  0  0  0  0  0  0  0
   11.7103  -19.9247   22.1099 C   0  0  0  0  0  0  0  0  0  0  0  0
   11.8986  -18.6506   22.8471 C   0  0  2  0  0  0  0  0  0  0  0  0
   10.6455  -17.9450   23.3024 N   0  0  0  0  0  0  0  0  0  0  0  0
   10.0809  -17.3855   22.0587 C   0  0  0  0  0  0  0  0  0  0  0  0
   10.8775  -16.8483   24.2701 O   0  0  0  0  0  0  0  0  0  0  0  0
   11.4455  -15.7765   23.8454 O   0  0  0  0  0  0  0  0  0  0  0  0
    5.4039  -11.2799   27.7924 C   0  0  0  0  0  0  0  0  0  0  0  0
    6.1900  -12.2847   27.2167 C   0  0  0  0  0  0  0  0  0  0  0  0
    5.7143  -13.5505   26.9580 C   0  0  0  0  0  0  0  0  0  0  0  0
    6.5134  -14.5359   26.3845 C   0  0  0  0  0  0  0  0  0  0  0  0
    7.8228  -14.2552   26.0592 C   0  0  0  0  0  0  0  0  0  0  0  0
    8.6471  -15.3019   25.4664 C   0  0  1  0  0  0  0  0  0  0  0  0
    9.8629  -15.6955   26.2661 N   0  0  0  0  0  0  0  0  0  0  0  0
   10.5398  -16.8337   25.6325 C   0  0  0  0  0  0  0  0  0  0  0  0
    9.4814  -16.0974   27.6286 O   0  0  0  0  0  0  0  0  0  0  0  0
    9.3938  -17.4264   27.9993 C   0  0  0  0  0  0  0  0  0  0  0  0
    8.3070  -12.9848   26.3165 C   0  0  0  0  0  0  0  0  0  0  0  0
    7.5046  -12.0391   26.8781 O   0  0  0  0  0  0  0  0  0  0  0  0
  2  3  2  0
  2  1  1  0
  4  2  1  0
  5  4  1  0
  6  7  1  0
  6  5  1  0
  8  9  1  1
  8  7  1  0
 10  8  1  0
 11 10  2  0
 12 13  1  0
 13 15  1  0
 14 13  2  0
 15 16  1  0
 17 16  1  6
 17 19  1  0
 17 18  1  0
 18 10  1  0
 19 28  1  0
 20 19  2  0
 22 21  1  0
 23 22  2  0
 24 23  1  0
 25 24  2  0
 25 31  1  0
 26 25  1  0
 27 28  1  0
 27 29  1  0
 27 26  1  6
 29 33  2  0
 29 30  1  0
 31 32  2  0
 32 22  1  0
M  END
$$$$
