RQY.pdb
     RDKit          3D

 33 33  0  0  1  0  0  0  0  0999 V2000
    9.1771  -13.5722   18.1559 N   0  0  0  0  0  0  0  0  0  0  0  0
    8.6147  -13.3090   19.4280 C   0  0  0  0  0  0  0  0  0  0  0  0
    8.9984  -12.2748   20.1374 N   0  0  0  0  0  0  0  0  0  0  0  0
    7.6195  -14.1281   20.0079 N   0  0  0  0  0  0  0  0  0  0  0  0
    8.0265  -15.3756   20.6749 C   0  0  0  0  0  0  0  0  0  0  0  0
    6.9064  -16.3600   20.6834 C   0  0  0  0  0  0  0  0  0  0  0  0
    7.1556  -17.6730   21.3363 C   0  0  0  0  0  0  0  0  0  0  0  0
    6.0063  -18.1536   22.1422 C   0  0  2  0  0  0  0  0  0  0  0  0
    4.7175  -17.6479   21.7458 N   0  0  0  0  0  0  0  0  0  0  0  0
    6.1803  -17.8225   23.6035 C   0  0  0  0  0  0  0  0  0  0  0  0
    5.5703  -16.8392   24.0799 O   0  0  0  0  0  0  0  0  0  0  0  0
    8.6421  -12.2093   21.1162 N   0  0  0  0  0  0  0  0  0  0  0  0
    7.7046  -22.2017   27.4010 C   0  0  0  0  0  0  0  0  0  0  0  0
    7.8205  -21.1681   28.3942 O   0  0  0  0  0  0  0  0  0  0  0  0
    8.0444  -21.4798   29.5794 C   0  0  0  0  0  0  0  0  0  0  0  0
    7.6609  -19.7892   27.9244 C   0  0  0  0  0  0  0  0  0  0  0  0
    7.3732  -19.7187   26.4703 C   0  0  1  0  0  0  0  0  0  0  0  0
    7.1670  -18.3413   25.8910 N   0  0  0  0  0  0  0  0  0  0  0  0
    7.0063  -18.5846   24.4441 C   0  0  0  0  0  0  0  0  0  0  0  0
    8.2983  -17.4104   26.1072 O   0  0  0  0  0  0  0  0  0  0  0  0
    9.2819  -17.4513   25.2810 O   0  0  0  0  0  0  0  0  0  0  0  0
    5.0680  -12.0125   24.2741 C   0  0  0  0  0  0  0  0  0  0  0  0
    6.0812  -12.5428   25.0811 C   0  0  0  0  0  0  0  0  0  0  0  0
    7.3339  -12.8530   24.6016 C   0  0  0  0  0  0  0  0  0  0  0  0
    8.3279  -13.3800   25.4216 C   0  0  0  0  0  0  0  0  0  0  0  0
    8.0693  -13.6053   26.7564 C   0  0  0  0  0  0  0  0  0  0  0  0
    9.1200  -14.1651   27.5985 C   0  0  2  0  0  0  0  0  0  0  0  0
    9.5796  -15.5503   27.2208 N   0  0  0  0  0  0  0  0  0  0  0  0
    8.4301  -16.4589   27.1306 C   0  0  0  0  0  0  0  0  0  0  0  0
   10.5017  -16.0864   28.2337 O   0  0  0  0  0  0  0  0  0  0  0  0
   10.2234  -17.2467   28.9317 C   0  0  0  0  0  0  0  0  0  0  0  0
    6.8122  -13.2955   27.2446 C   0  0  0  0  0  0  0  0  0  0  0  0
    5.8577  -12.7810   26.4214 O   0  0  0  0  0  0  0  0  0  0  0  0
  2  3  2  0
  2  1  1  0
  4  2  1  0
  5  4  1  0
  6  7  1  0
  6  5  1  0
  8  9  1  6
  8  7  1  0
 10  8  1  0
 11 10  2  0
 12 13  1  0
 13 15  1  0
 14 13  2  0
 15 16  1  0
 17 16  1  1
 17 19  1  0
 17 18  1  0
 18 10  1  0
 19 28  1  0
 20 19  2  0
 22 21  1  0
 23 22  2  0
 24 23  1  0
 25 24  2  0
 25 31  1  0
 26 25  1  0
 27 28  1  0
 27 29  1  0
 27 26  1  6
 29 33  2  0
 29 30  1  0
 31 32  2  0
 32 22  1  0
M  END
$$$$
