RQY.pdb
     RDKit          3D

 33 33  0  0  1  0  0  0  0  0999 V2000
    8.1995  -11.9791   18.6969 N   0  0  0  0  0  0  0  0  0  0  0  0
    9.2552  -12.8954   18.4747 C   0  0  0  0  0  0  0  0  0  0  0  0
   10.3834  -12.5096   17.9286 N   0  0  0  0  0  0  0  0  0  0  0  0
    9.1659  -14.2629   18.8208 N   0  0  0  0  0  0  0  0  0  0  0  0
    7.9696  -15.0205   18.4186 C   0  0  0  0  0  0  0  0  0  0  0  0
    7.0719  -15.2501   19.5870 C   0  0  0  0  0  0  0  0  0  0  0  0
    7.6653  -15.8961   20.7881 C   0  0  0  0  0  0  0  0  0  0  0  0
    8.2063  -17.2509   20.5171 C   0  0  2  0  0  0  0  0  0  0  0  0
    7.2228  -18.2680   20.2487 N   0  0  0  0  0  0  0  0  0  0  0  0
    9.0527  -17.7463   21.6632 C   0  0  0  0  0  0  0  0  0  0  0  0
    8.5055  -18.3836   22.5907 O   0  0  0  0  0  0  0  0  0  0  0  0
   11.0803  -13.2517   17.6985 N   0  0  0  0  0  0  0  0  0  0  0  0
   15.1186  -19.9939   20.9082 C   0  0  0  0  0  0  0  0  0  0  0  0
   14.1703  -18.9683   20.5664 O   0  0  0  0  0  0  0  0  0  0  0  0
   14.4965  -18.0768   19.7596 C   0  0  0  0  0  0  0  0  0  0  0  0
   12.8569  -19.0509   21.2113 C   0  0  0  0  0  0  0  0  0  0  0  0
   12.6720  -18.0068   22.2495 C   0  0  2  0  0  0  0  0  0  0  0  0
   11.2953  -17.8974   22.8562 N   0  0  0  0  0  0  0  0  0  0  0  0
   10.4356  -17.5134   21.7196 C   0  0  0  0  0  0  0  0  0  0  0  0
   11.1762  -16.8791   23.9248 O   0  0  0  0  0  0  0  0  0  0  0  0
   11.5440  -15.6767   23.6586 O   0  0  0  0  0  0  0  0  0  0  0  0
    5.5974  -11.6427   27.7823 C   0  0  0  0  0  0  0  0  0  0  0  0
    6.3667  -12.6224   27.1441 C   0  0  0  0  0  0  0  0  0  0  0  0
    5.8737  -13.8660   26.8188 C   0  0  0  0  0  0  0  0  0  0  0  0
    6.6562  -14.8267   26.1838 C   0  0  0  0  0  0  0  0  0  0  0  0
    7.9662  -14.5431   25.8631 C   0  0  0  0  0  0  0  0  0  0  0  0
    8.7730  -15.5642   25.2052 C   0  0  1  0  0  0  0  0  0  0  0  0
    9.9886  -16.0187   25.9722 N   0  0  0  0  0  0  0  0  0  0  0  0
   10.6932  -17.0704   25.2288 C   0  0  0  0  0  0  0  0  0  0  0  0
    9.6021  -16.5704   27.2798 O   0  0  0  0  0  0  0  0  0  0  0  0
    9.8064  -15.8719   28.4551 C   0  0  0  0  0  0  0  0  0  0  0  0
    8.4677  -13.2949   26.1872 C   0  0  0  0  0  0  0  0  0  0  0  0
    7.6813  -12.3732   26.8082 O   0  0  0  0  0  0  0  0  0  0  0  0
  2  3  2  0
  2  1  1  0
  4  2  1  0
  5  4  1  0
  6  7  1  0
  6  5  1  0
  8  9  1  1
  8  7  1  0
 10  8  1  0
 11 10  2  0
 12 13  1  0
 13 15  1  0
 14 13  2  0
 15 16  1  0
 17 16  1  6
 17 19  1  0
 17 18  1  0
 18 10  1  0
 19 28  1  0
 20 19  2  0
 22 21  1  0
 23 22  2  0
 24 23  1  0
 25 24  2  0
 25 31  1  0
 26 25  1  0
 27 28  1  0
 27 29  1  0
 27 26  1  6
 29 33  2  0
 29 30  1  0
 31 32  2  0
 32 22  1  0
M  END
$$$$
