SCK.pdb
     RDKit          3D

 22 21  0  0  1  0  0  0  0  0999 V2000
    7.3152  -16.6398   20.7903 O   0  0  0  0  0  0  0  0  0  0  0  0
    6.3248  -15.6781   20.9528 C   0  0  0  0  0  0  0  0  0  0  0  0
    7.0149  -14.3395   21.0844 C   0  0  2  0  0  0  0  0  0  0  0  0
    7.6727  -13.9482   19.8762 N   0  0  0  0  0  0  0  0  0  0  0  0
    7.9769  -14.3232   22.2125 C   0  0  0  0  0  0  0  0  0  0  0  0
    9.2000  -14.3248   21.9908 O   0  0  0  0  0  0  0  0  0  0  0  0
    7.4751  -14.3059   23.5346 N   0  0  0  0  0  0  0  0  0  0  0  0
    8.3306  -14.3434   24.7003 C   0  0  1  0  0  0  0  0  0  0  0  0
    7.6715  -13.4923   25.7749 C   0  0  0  0  0  0  0  0  0  0  0  0
    6.0485  -14.1754   26.2037 S   0  0  0  0  0  0  0  0  0  0  0  0
    8.5114  -15.7265   25.1880 C   0  0  0  0  0  0  0  0  0  0  0  0
    7.5685  -16.5657   25.2350 O   0  0  0  0  0  0  0  0  0  0  0  0
    9.8015  -16.1256   25.6216 N   0  0  0  0  0  0  0  0  0  0  0  0
   10.0643  -17.4456   26.1534 C   0  0  1  0  0  0  0  0  0  0  0  0
   11.3519  -18.0258   25.6425 C   0  0  0  0  0  0  0  0  0  0  0  0
   11.2210  -18.6103   24.2672 C   0  0  0  0  0  0  0  0  0  0  0  0
   12.5247  -19.2011   23.7752 C   0  0  0  0  0  0  0  0  0  0  0  0
   12.3988  -19.6422   22.3349 C   0  0  0  0  0  0  0  0  0  0  0  0
   13.6925  -20.1374   21.8844 N   0  0  0  0  0  0  0  0  0  0  0  0
   10.0993  -17.3750   27.6361 C   0  0  0  0  0  0  0  0  0  0  0  0
   10.0645  -16.2794   28.2501 O   0  0  0  0  0  0  0  0  0  0  0  0
   10.1726  -18.5352   28.3938 O   0  0  0  0  0  0  0  0  0  0  0  0
  1  2  1  0
  3  5  1  0
  3  2  1  0
  3  4  1  6
  5  6  2  0
  7  8  1  0
  7  5  1  0
  8 11  1  0
  8  9  1  1
 10  9  1  0
 11 13  1  0
 11 12  2  0
 13 14  1  0
 14 15  1  6
 15 16  1  0
 16 17  1  0
 17 18  1  0
 18 19  1  0
 20 22  1  0
 20 14  1  0
 21 20  2  0
M  END
$$$$
