SCK.pdb
     RDKit          3D

 22 21  0  0  1  0  0  0  0  0999 V2000
    8.8300  -15.6612   19.6596 O   0  0  0  0  0  0  0  0  0  0  0  0
    7.4496  -15.5229   19.7474 C   0  0  0  0  0  0  0  0  0  0  0  0
    7.1599  -14.0633   20.0138 C   0  0  2  0  0  0  0  0  0  0  0  0
    7.5981  -13.2202   18.9449 N   0  0  0  0  0  0  0  0  0  0  0  0
    7.7533  -13.6076   21.2937 C   0  0  0  0  0  0  0  0  0  0  0  0
    8.8398  -13.0037   21.2988 O   0  0  0  0  0  0  0  0  0  0  0  0
    7.0609  -13.8736   22.4979 N   0  0  0  0  0  0  0  0  0  0  0  0
    7.5980  -13.5495   23.8012 C   0  0  1  0  0  0  0  0  0  0  0  0
    6.4218  -13.2219   24.7084 C   0  0  0  0  0  0  0  0  0  0  0  0
    7.0166  -12.7349   26.3497 S   0  0  0  0  0  0  0  0  0  0  0  0
    8.3700  -14.6793   24.3587 C   0  0  0  0  0  0  0  0  0  0  0  0
    7.9173  -15.8572   24.4156 O   0  0  0  0  0  0  0  0  0  0  0  0
    9.6759  -14.4264   24.8508 N   0  0  0  0  0  0  0  0  0  0  0  0
   10.2852  -15.2404   25.8805 C   0  0  1  0  0  0  0  0  0  0  0  0
   10.0512  -14.6936   27.2597 C   0  0  0  0  0  0  0  0  0  0  0  0
   10.1063  -15.7516   28.3217 C   0  0  0  0  0  0  0  0  0  0  0  0
   10.8231  -15.2709   29.5649 C   0  0  0  0  0  0  0  0  0  0  0  0
   10.9166  -16.3802   30.5874 C   0  0  0  0  0  0  0  0  0  0  0  0
   11.6483  -15.8857   31.7459 N   0  0  0  0  0  0  0  0  0  0  0  0
    9.7479  -16.6216   25.7907 C   0  0  0  0  0  0  0  0  0  0  0  0
   10.5011  -17.6226   25.6931 O   0  0  0  0  0  0  0  0  0  0  0  0
    8.3788  -16.8464   25.8126 O   0  0  0  0  0  0  0  0  0  0  0  0
  1  2  1  0
  3  5  1  0
  3  2  1  0
  3  4  1  6
  5  6  2  0
  7  8  1  0
  7  5  1  0
  8 11  1  0
  8  9  1  1
 10  9  1  0
 11 13  1  0
 11 12  2  0
 13 14  1  0
 14 15  1  1
 15 16  1  0
 16 17  1  0
 17 18  1  0
 18 19  1  0
 20 22  1  0
 20 14  1  0
 21 20  2  0
M  END
$$$$
