SCK.pdb
     RDKit          3D

 22 21  0  0  1  0  0  0  0  0999 V2000
    4.9960  -18.5458   23.4018 O   0  0  0  0  0  0  0  0  0  0  0  0
    4.0859  -17.7603   22.7040 C   0  0  0  0  0  0  0  0  0  0  0  0
    4.4333  -17.8657   21.2365 C   0  0  2  0  0  0  0  0  0  0  0  0
    4.3356  -19.2077   20.7518 N   0  0  0  0  0  0  0  0  0  0  0  0
    5.7814  -17.3203   20.9480 C   0  0  0  0  0  0  0  0  0  0  0  0
    6.7646  -18.0792   20.8967 O   0  0  0  0  0  0  0  0  0  0  0  0
    5.9215  -15.9293   20.7346 N   0  0  0  0  0  0  0  0  0  0  0  0
    7.2073  -15.2802   20.6025 C   0  0  1  0  0  0  0  0  0  0  0  0
    6.9528  -13.8649   20.1065 C   0  0  0  0  0  0  0  0  0  0  0  0
    8.5178  -12.9612   19.9688 S   0  0  0  0  0  0  0  0  0  0  0  0
    7.9247  -15.2443   21.8938 C   0  0  0  0  0  0  0  0  0  0  0  0
    7.3753  -14.8867   22.9736 O   0  0  0  0  0  0  0  0  0  0  0  0
    9.2897  -15.6288   21.9182 N   0  0  0  0  0  0  0  0  0  0  0  0
   10.0390  -15.7422   23.1509 C   0  0  1  0  0  0  0  0  0  0  0  0
    9.6880  -16.9800   23.9258 C   0  0  0  0  0  0  0  0  0  0  0  0
   10.5249  -17.1509   25.1589 C   0  0  0  0  0  0  0  0  0  0  0  0
   10.1703  -18.4132   25.9148 C   0  0  0  0  0  0  0  0  0  0  0  0
   10.9643  -18.5057   27.1977 C   0  0  0  0  0  0  0  0  0  0  0  0
   10.4297  -19.5986   27.9989 N   0  0  0  0  0  0  0  0  0  0  0  0
   11.4909  -15.7399   22.8401 C   0  0  0  0  0  0  0  0  0  0  0  0
   11.9231  -15.9688   21.6828 O   0  0  0  0  0  0  0  0  0  0  0  0
   12.4227  -15.4808   23.8352 O   0  0  0  0  0  0  0  0  0  0  0  0
  1  2  1  0
  3  5  1  0
  3  2  1  0
  3  4  1  1
  5  6  2  0
  7  8  1  0
  7  5  1  0
  8 11  1  0
  8  9  1  1
 10  9  1  0
 11 13  1  0
 11 12  2  0
 13 14  1  0
 14 15  1  6
 15 16  1  0
 16 17  1  0
 17 18  1  0
 18 19  1  0
 20 22  1  0
 20 14  1  0
 21 20  2  0
M  END
$$$$
