SCK.pdb
     RDKit          3D

 22 21  0  0  1  0  0  0  0  0999 V2000
    8.2096  -15.7693   14.6794 O   0  0  0  0  0  0  0  0  0  0  0  0
    8.1929  -15.8612   16.0663 C   0  0  0  0  0  0  0  0  0  0  0  0
    7.7354  -14.5230   16.6003 C   0  0  2  0  0  0  0  0  0  0  0  0
    7.8658  -13.4797   15.6308 N   0  0  0  0  0  0  0  0  0  0  0  0
    8.4521  -14.1509   17.8437 C   0  0  0  0  0  0  0  0  0  0  0  0
    9.5130  -13.5059   17.7843 O   0  0  0  0  0  0  0  0  0  0  0  0
    7.9055  -14.5432   19.0877 N   0  0  0  0  0  0  0  0  0  0  0  0
    8.5611  -14.2841   20.3507 C   0  0  1  0  0  0  0  0  0  0  0  0
    7.5293  -13.6607   21.2784 C   0  0  0  0  0  0  0  0  0  0  0  0
    6.1896  -14.8376   21.6024 S   0  0  0  0  0  0  0  0  0  0  0  0
    9.0913  -15.5289   20.9445 C   0  0  0  0  0  0  0  0  0  0  0  0
    8.5541  -16.6578   20.7638 O   0  0  0  0  0  0  0  0  0  0  0  0
   10.2544  -15.4490   21.7523 N   0  0  0  0  0  0  0  0  0  0  0  0
   10.8357  -16.6118   22.3878 C   0  0  1  0  0  0  0  0  0  0  0  0
   12.3307  -16.5198   22.4986 C   0  0  0  0  0  0  0  0  0  0  0  0
   12.9394  -17.7186   23.1638 C   0  0  0  0  0  0  0  0  0  0  0  0
   14.0178  -18.3534   22.3126 C   0  0  0  0  0  0  0  0  0  0  0  0
   14.5841  -19.5767   22.9966 C   0  0  0  0  0  0  0  0  0  0  0  0
   15.5735  -20.1859   22.1180 N   0  0  0  0  0  0  0  0  0  0  0  0
   10.2418  -16.7764   23.7386 C   0  0  0  0  0  0  0  0  0  0  0  0
    9.7554  -15.8072   24.3732 O   0  0  0  0  0  0  0  0  0  0  0  0
   10.2080  -18.0242   24.3447 O   0  0  0  0  0  0  0  0  0  0  0  0
  1  2  1  0
  3  5  1  0
  3  2  1  0
  3  4  1  6
  5  6  2  0
  7  8  1  0
  7  5  1  0
  8 11  1  0
  8  9  1  1
 10  9  1  0
 11 13  1  0
 11 12  2  0
 13 14  1  0
 14 15  1  1
 15 16  1  0
 16 17  1  0
 17 18  1  0
 18 19  1  0
 20 22  1  0
 20 14  1  0
 21 20  2  0
M  END
$$$$
