SCK.pdb
     RDKit          3D

 22 21  0  0  1  0  0  0  0  0999 V2000
    6.3715  -17.9915   21.1126 O   0  0  0  0  0  0  0  0  0  0  0  0
    5.7112  -17.1458   20.2288 C   0  0  0  0  0  0  0  0  0  0  0  0
    6.7328  -16.1687   19.6931 C   0  0  2  0  0  0  0  0  0  0  0  0
    7.2536  -16.5714   18.4234 N   0  0  0  0  0  0  0  0  0  0  0  0
    7.8441  -15.9520   20.6503 C   0  0  0  0  0  0  0  0  0  0  0  0
    8.9266  -16.5431   20.4952 O   0  0  0  0  0  0  0  0  0  0  0  0
    7.6457  -15.0654   21.7341 N   0  0  0  0  0  0  0  0  0  0  0  0
    8.6334  -14.8574   22.7701 C   0  0  1  0  0  0  0  0  0  0  0  0
    8.1267  -13.7341   23.6618 C   0  0  0  0  0  0  0  0  0  0  0  0
    6.5137  -14.1730   24.3623 S   0  0  0  0  0  0  0  0  0  0  0  0
    8.8404  -16.0843   23.5671 C   0  0  0  0  0  0  0  0  0  0  0  0
    7.9122  -16.9032   23.8188 O   0  0  0  0  0  0  0  0  0  0  0  0
   10.1395  -16.3508   24.0702 N   0  0  0  0  0  0  0  0  0  0  0  0
   10.4682  -17.5875   24.7459 C   0  0  1  0  0  0  0  0  0  0  0  0
   11.1296  -18.5823   23.8355 C   0  0  0  0  0  0  0  0  0  0  0  0
   11.4116  -19.8913   24.5115 C   0  0  0  0  0  0  0  0  0  0  0  0
   12.1518  -20.8505   23.6045 C   0  0  0  0  0  0  0  0  0  0  0  0
   12.4451  -22.1459   24.3262 C   0  0  0  0  0  0  0  0  0  0  0  0
   13.2862  -22.9745   23.4730 N   0  0  0  0  0  0  0  0  0  0  0  0
   11.3582  -17.2918   25.8969 C   0  0  0  0  0  0  0  0  0  0  0  0
   11.3731  -18.0108   26.9272 O   0  0  0  0  0  0  0  0  0  0  0  0
   12.2098  -16.1967   25.8641 O   0  0  0  0  0  0  0  0  0  0  0  0
  1  2  1  0
  3  5  1  0
  3  2  1  0
  3  4  1  6
  5  6  2  0
  7  8  1  0
  7  5  1  0
  8 11  1  0
  8  9  1  1
 10  9  1  0
 11 13  1  0
 11 12  2  0
 13 14  1  0
 14 15  1  6
 15 16  1  0
 16 17  1  0
 17 18  1  0
 18 19  1  0
 20 22  1  0
 20 14  1  0
 21 20  2  0
M  END
$$$$
