SCK.pdb
     RDKit          3D

 22 21  0  0  1  0  0  0  0  0999 V2000
    6.9043  -16.3652   18.8461 O   0  0  0  0  0  0  0  0  0  0  0  0
    6.8789  -16.0738   20.2051 C   0  0  0  0  0  0  0  0  0  0  0  0
    7.1371  -14.5915   20.3521 C   0  0  2  0  0  0  0  0  0  0  0  0
    7.7314  -14.0264   19.1803 N   0  0  0  0  0  0  0  0  0  0  0  0
    7.9741  -14.2923   21.5387 C   0  0  0  0  0  0  0  0  0  0  0  0
    9.2056  -14.1710   21.4202 O   0  0  0  0  0  0  0  0  0  0  0  0
    7.3447  -14.1493   22.7970 N   0  0  0  0  0  0  0  0  0  0  0  0
    8.0768  -14.1324   24.0444 C   0  0  1  0  0  0  0  0  0  0  0  0
    7.2103  -13.4175   25.0699 C   0  0  0  0  0  0  0  0  0  0  0  0
    8.0573  -13.3604   26.6712 S   0  0  0  0  0  0  0  0  0  0  0  0
    8.3824  -15.5028   24.5049 C   0  0  0  0  0  0  0  0  0  0  0  0
    7.4985  -16.3960   24.6337 O   0  0  0  0  0  0  0  0  0  0  0  0
    9.7281  -15.8258   24.8153 N   0  0  0  0  0  0  0  0  0  0  0  0
   10.1376  -17.1654   25.1786 C   0  0  1  0  0  0  0  0  0  0  0  0
   11.3983  -17.5904   24.4816 C   0  0  0  0  0  0  0  0  0  0  0  0
   11.1560  -18.0634   23.0788 C   0  0  0  0  0  0  0  0  0  0  0  0
   12.4361  -18.4956   22.3967 C   0  0  0  0  0  0  0  0  0  0  0  0
   12.1748  -18.8491   20.9504 C   0  0  0  0  0  0  0  0  0  0  0  0
   13.4309  -19.2582   20.3365 N   0  0  0  0  0  0  0  0  0  0  0  0
   10.3300  -17.2337   26.6492 C   0  0  0  0  0  0  0  0  0  0  0  0
   10.5066  -16.2024   27.3449 O   0  0  0  0  0  0  0  0  0  0  0  0
   10.3196  -18.4572   27.3037 O   0  0  0  0  0  0  0  0  0  0  0  0
  1  2  1  0
  3  5  1  0
  3  2  1  0
  3  4  1  6
  5  6  2  0
  7  8  1  0
  7  5  1  0
  8 11  1  0
  8  9  1  1
 10  9  1  0
 11 13  1  0
 11 12  2  0
 13 14  1  0
 14 15  1  6
 15 16  1  0
 16 17  1  0
 17 18  1  0
 18 19  1  0
 20 22  1  0
 20 14  1  0
 21 20  2  0
M  END
$$$$
