SCK.pdb
     RDKit          3D

 22 21  0  0  1  0  0  0  0  0999 V2000
    7.1232  -16.2413   20.4830 O   0  0  0  0  0  0  0  0  0  0  0  0
    6.2180  -15.2058   20.6844 C   0  0  0  0  0  0  0  0  0  0  0  0
    7.0175  -13.9304   20.8240 C   0  0  2  0  0  0  0  0  0  0  0  0
    7.6743  -13.5669   19.6067 N   0  0  0  0  0  0  0  0  0  0  0  0
    8.0055  -14.0163   21.9261 C   0  0  0  0  0  0  0  0  0  0  0  0
    9.2125  -14.1707   21.6726 O   0  0  0  0  0  0  0  0  0  0  0  0
    7.5469  -13.9193   23.2604 N   0  0  0  0  0  0  0  0  0  0  0  0
    8.4243  -14.0415   24.4037 C   0  0  1  0  0  0  0  0  0  0  0  0
    7.7809  -13.2812   25.5534 C   0  0  0  0  0  0  0  0  0  0  0  0
    6.1144  -13.9200   25.8687 S   0  0  0  0  0  0  0  0  0  0  0  0
    8.6219  -15.4570   24.7787 C   0  0  0  0  0  0  0  0  0  0  0  0
    7.7148  -16.3290   24.6667 O   0  0  0  0  0  0  0  0  0  0  0  0
    9.8865  -15.8502   25.2864 N   0  0  0  0  0  0  0  0  0  0  0  0
   10.1865  -17.2220   25.6363 C   0  0  1  0  0  0  0  0  0  0  0  0
   11.4549  -17.7137   24.9998 C   0  0  0  0  0  0  0  0  0  0  0  0
   11.7396  -19.1540   25.3079 C   0  0  0  0  0  0  0  0  0  0  0  0
   13.0920  -19.5893   24.7861 C   0  0  0  0  0  0  0  0  0  0  0  0
   13.3652  -21.0299   25.1534 C   0  0  0  0  0  0  0  0  0  0  0  0
   14.7156  -21.3714   24.7270 N   0  0  0  0  0  0  0  0  0  0  0  0
   10.2892  -17.3365   27.1130 C   0  0  0  0  0  0  0  0  0  0  0  0
   10.5589  -16.3472   27.8391 O   0  0  0  0  0  0  0  0  0  0  0  0
   10.0868  -18.5580   27.7394 O   0  0  0  0  0  0  0  0  0  0  0  0
  1  2  1  0
  3  5  1  0
  3  2  1  0
  3  4  1  6
  5  6  2  0
  7  8  1  0
  7  5  1  0
  8 11  1  0
  8  9  1  1
 10  9  1  0
 11 13  1  0
 11 12  2  0
 13 14  1  0
 14 15  1  6
 15 16  1  0
 16 17  1  0
 17 18  1  0
 18 19  1  0
 20 22  1  0
 20 14  1  0
 21 20  2  0
M  END
$$$$
