SCK.pdb
     RDKit          3D

 22 21  0  0  1  0  0  0  0  0999 V2000
    1.3994  -25.3849   35.6487 O   0  0  0  0  0  0  0  0  0  0  0  0
    0.8291  -24.1196   35.5715 C   0  0  0  0  0  0  0  0  0  0  0  0
    0.0640  -23.8921   36.8554 C   0  0  2  0  0  0  0  0  0  0  0  0
    0.7675  -24.3835   37.9995 N   0  0  0  0  0  0  0  0  0  0  0  0
   -1.2931  -24.4867   36.8017 C   0  0  0  0  0  0  0  0  0  0  0  0
   -1.6310  -25.3483   37.6315 O   0  0  0  0  0  0  0  0  0  0  0  0
   -2.1861  -24.0547   35.7938 N   0  0  0  0  0  0  0  0  0  0  0  0
   -3.5417  -24.5466   35.6815 C   0  0  1  0  0  0  0  0  0  0  0  0
   -4.3294  -23.9784   36.8522 C   0  0  0  0  0  0  0  0  0  0  0  0
   -3.9001  -22.2359   37.1060 S   0  0  0  0  0  0  0  0  0  0  0  0
   -4.1586  -24.1307   34.4049 C   0  0  0  0  0  0  0  0  0  0  0  0
   -4.0722  -22.9545   33.9526 O   0  0  0  0  0  0  0  0  0  0  0  0
   -4.8787  -25.0972   33.6573 N   0  0  0  0  0  0  0  0  0  0  0  0
   -5.2933  -24.8655   32.2903 C   0  0  1  0  0  0  0  0  0  0  0  0
   -4.8334  -25.9496   31.3581 C   0  0  0  0  0  0  0  0  0  0  0  0
   -5.2394  -25.7036   29.9351 C   0  0  0  0  0  0  0  0  0  0  0  0
   -4.8339  -26.8424   29.0244 C   0  0  0  0  0  0  0  0  0  0  0  0
   -5.1898  -26.5284   27.5893 C   0  0  0  0  0  0  0  0  0  0  0  0
   -4.7592  -27.6376   26.7489 N   0  0  0  0  0  0  0  0  0  0  0  0
   -6.7733  -24.7569   32.2421 C   0  0  0  0  0  0  0  0  0  0  0  0
   -7.5149  -25.4517   32.9809 O   0  0  0  0  0  0  0  0  0  0  0  0
   -7.3852  -23.8715   31.3663 O   0  0  0  0  0  0  0  0  0  0  0  0
  1  2  1  0
  3  5  1  0
  3  2  1  0
  3  4  1  1
  5  6  2  0
  7  8  1  0
  7  5  1  0
  8 11  1  0
  8  9  1  1
 10  9  1  0
 11 13  1  0
 11 12  2  0
 13 14  1  0
 14 15  1  6
 15 16  1  0
 16 17  1  0
 17 18  1  0
 18 19  1  0
 20 22  1  0
 20 14  1  0
 21 20  2  0
M  END
$$$$
