SCK.pdb
     RDKit          3D

 22 21  0  0  1  0  0  0  0  0999 V2000
    7.1917  -19.4930   19.1632 O   0  0  0  0  0  0  0  0  0  0  0  0
    6.3892  -18.4296   18.7664 C   0  0  0  0  0  0  0  0  0  0  0  0
    7.3009  -17.3654   18.1991 C   0  0  2  0  0  0  0  0  0  0  0  0
    7.9567  -17.7955   17.0031 N   0  0  0  0  0  0  0  0  0  0  0  0
    8.3045  -16.9121   19.1917 C   0  0  0  0  0  0  0  0  0  0  0  0
    9.4617  -17.3651   19.1618 O   0  0  0  0  0  0  0  0  0  0  0  0
    7.9183  -15.9611   20.1645 N   0  0  0  0  0  0  0  0  0  0  0  0
    8.8067  -15.4998   21.2086 C   0  0  1  0  0  0  0  0  0  0  0  0
    8.1612  -14.2798   21.8479 C   0  0  0  0  0  0  0  0  0  0  0  0
    6.5800  -14.7363   22.6071 S   0  0  0  0  0  0  0  0  0  0  0  0
    9.0284  -16.5485   22.2256 C   0  0  0  0  0  0  0  0  0  0  0  0
    8.1720  -17.4382   22.4911 O   0  0  0  0  0  0  0  0  0  0  0  0
   10.2578  -16.5531   22.9329 N   0  0  0  0  0  0  0  0  0  0  0  0
   10.5740  -17.5560   23.9270 C   0  0  1  0  0  0  0  0  0  0  0  0
   11.7491  -18.4050   23.5342 C   0  0  0  0  0  0  0  0  0  0  0  0
   12.1063  -19.4220   24.5774 C   0  0  0  0  0  0  0  0  0  0  0  0
   13.2222  -20.3363   24.1199 C   0  0  0  0  0  0  0  0  0  0  0  0
   13.5338  -21.3672   25.1806 C   0  0  0  0  0  0  0  0  0  0  0  0
   14.4816  -22.3280   24.6324 N   0  0  0  0  0  0  0  0  0  0  0  0
   10.8499  -16.8867   25.2233 C   0  0  0  0  0  0  0  0  0  0  0  0
   10.6597  -17.4640   26.3229 O   0  0  0  0  0  0  0  0  0  0  0  0
   11.3323  -15.5860   25.2544 O   0  0  0  0  0  0  0  0  0  0  0  0
  1  2  1  0
  3  5  1  0
  3  2  1  0
  3  4  1  6
  5  6  2  0
  7  8  1  0
  7  5  1  0
  8 11  1  0
  8  9  1  1
 10  9  1  0
 11 13  1  0
 11 12  2  0
 13 14  1  0
 14 15  1  6
 15 16  1  0
 16 17  1  0
 17 18  1  0
 18 19  1  0
 20 22  1  0
 20 14  1  0
 21 20  2  0
M  END
$$$$
