SCK.pdb
     RDKit          3D

 22 21  0  0  1  0  0  0  0  0999 V2000
    6.9682  -16.7919   21.3024 O   0  0  0  0  0  0  0  0  0  0  0  0
    6.1965  -15.6449   21.1569 C   0  0  0  0  0  0  0  0  0  0  0  0
    7.1436  -14.4672   21.1214 C   0  0  2  0  0  0  0  0  0  0  0  0
    8.0623  -14.5437   20.0279 N   0  0  0  0  0  0  0  0  0  0  0  0
    7.8856  -14.3171   22.3962 C   0  0  0  0  0  0  0  0  0  0  0  0
    9.0722  -14.6791   22.4748 O   0  0  0  0  0  0  0  0  0  0  0  0
    7.2181  -13.7577   23.5104 N   0  0  0  0  0  0  0  0  0  0  0  0
    7.8237  -13.6573   24.8201 C   0  0  1  0  0  0  0  0  0  0  0  0
    6.8714  -12.8632   25.7011 C   0  0  0  0  0  0  0  0  0  0  0  0
    7.5570  -12.6983   27.3707 S   0  0  0  0  0  0  0  0  0  0  0  0
    8.0611  -14.9935   25.4046 C   0  0  0  0  0  0  0  0  0  0  0  0
    7.1895  -15.9077   25.4021 O   0  0  0  0  0  0  0  0  0  0  0  0
    9.3241  -15.2575   25.9934 N   0  0  0  0  0  0  0  0  0  0  0  0
    9.6607  -16.5480   26.5550 C   0  0  1  0  0  0  0  0  0  0  0  0
   10.6495  -17.3018   25.7125 C   0  0  0  0  0  0  0  0  0  0  0  0
   10.9934  -18.6461   26.2823 C   0  0  0  0  0  0  0  0  0  0  0  0
   11.9784  -19.3963   25.4119 C   0  0  0  0  0  0  0  0  0  0  0  0
   12.3717  -20.7043   26.0594 C   0  0  0  0  0  0  0  0  0  0  0  0
   13.3243  -21.3854   25.1930 N   0  0  0  0  0  0  0  0  0  0  0  0
   10.2091  -16.3563   27.9214 C   0  0  0  0  0  0  0  0  0  0  0  0
   10.6214  -15.2388   28.3212 O   0  0  0  0  0  0  0  0  0  0  0  0
   10.2817  -17.4230   28.8060 O   0  0  0  0  0  0  0  0  0  0  0  0
  1  2  1  0
  3  5  1  0
  3  2  1  0
  3  4  1  6
  5  6  2  0
  7  8  1  0
  7  5  1  0
  8 11  1  0
  8  9  1  1
 10  9  1  0
 11 13  1  0
 11 12  2  0
 13 14  1  0
 14 15  1  6
 15 16  1  0
 16 17  1  0
 17 18  1  0
 18 19  1  0
 20 22  1  0
 20 14  1  0
 21 20  2  0
M  END
$$$$
