SCK.pdb
     RDKit          3D

 22 21  0  0  1  0  0  0  0  0999 V2000
    7.5801  -17.2972   21.9916 O   0  0  0  0  0  0  0  0  0  0  0  0
    6.7419  -16.3093   21.4879 C   0  0  0  0  0  0  0  0  0  0  0  0
    7.5618  -15.0455   21.3614 C   0  0  2  0  0  0  0  0  0  0  0  0
    8.5726  -15.1540   20.3555 N   0  0  0  0  0  0  0  0  0  0  0  0
    8.1737  -14.6530   22.6536 C   0  0  0  0  0  0  0  0  0  0  0  0
    9.3660  -14.9168   22.8860 O   0  0  0  0  0  0  0  0  0  0  0  0
    7.3766  -13.9778   23.6069 N   0  0  0  0  0  0  0  0  0  0  0  0
    7.8650  -13.6040   24.9160 C   0  0  1  0  0  0  0  0  0  0  0  0
    6.7778  -12.7789   25.5877 C   0  0  0  0  0  0  0  0  0  0  0  0
    7.2886  -12.3216   27.2655 S   0  0  0  0  0  0  0  0  0  0  0  0
    8.1754  -14.7957   25.7326 C   0  0  0  0  0  0  0  0  0  0  0  0
    7.3941  -15.7836   25.8286 O   0  0  0  0  0  0  0  0  0  0  0  0
    9.4054  -14.8283   26.4381 N   0  0  0  0  0  0  0  0  0  0  0  0
    9.7906  -15.9488   27.2689 C   0  0  1  0  0  0  0  0  0  0  0  0
   10.8643  -16.7894   26.6394 C   0  0  0  0  0  0  0  0  0  0  0  0
   11.2652  -17.9557   27.4934 C   0  0  0  0  0  0  0  0  0  0  0  0
   12.3783  -18.7645   26.8629 C   0  0  0  0  0  0  0  0  0  0  0  0
   12.6735  -19.9963   27.6877 C   0  0  0  0  0  0  0  0  0  0  0  0
   13.6699  -20.7972   26.9891 N   0  0  0  0  0  0  0  0  0  0  0  0
   10.2570  -15.4419   28.5843 C   0  0  0  0  0  0  0  0  0  0  0  0
   10.5031  -14.2252   28.7782 O   0  0  0  0  0  0  0  0  0  0  0  0
   10.4358  -16.3124   29.6500 O   0  0  0  0  0  0  0  0  0  0  0  0
  1  2  1  0
  3  5  1  0
  3  2  1  0
  3  4  1  6
  5  6  2  0
  7  8  1  0
  7  5  1  0
  8 11  1  0
  8  9  1  1
 10  9  1  0
 11 13  1  0
 11 12  2  0
 13 14  1  0
 14 15  1  6
 15 16  1  0
 16 17  1  0
 17 18  1  0
 18 19  1  0
 20 22  1  0
 20 14  1  0
 21 20  2  0
M  END
$$$$
