SCK.pdb
     RDKit          3D

 22 21  0  0  1  0  0  0  0  0999 V2000
    6.2959  -15.5639   19.9060 O   0  0  0  0  0  0  0  0  0  0  0  0
    7.1357  -15.3760   20.9976 C   0  0  0  0  0  0  0  0  0  0  0  0
    7.2087  -13.8887   21.2583 C   0  0  2  0  0  0  0  0  0  0  0  0
    7.7475  -13.1697   20.1456 N   0  0  0  0  0  0  0  0  0  0  0  0
    7.9845  -13.5807   22.4836 C   0  0  0  0  0  0  0  0  0  0  0  0
    9.2058  -13.3609   22.4112 O   0  0  0  0  0  0  0  0  0  0  0  0
    7.3088  -13.5431   23.7254 N   0  0  0  0  0  0  0  0  0  0  0  0
    7.9981  -13.5815   24.9965 C   0  0  1  0  0  0  0  0  0  0  0  0
    7.2401  -12.6725   25.9519 C   0  0  0  0  0  0  0  0  0  0  0  0
    5.4760  -13.0881   25.9408 S   0  0  0  0  0  0  0  0  0  0  0  0
    8.0498  -14.9559   25.5367 C   0  0  0  0  0  0  0  0  0  0  0  0
    7.1302  -15.8013   25.3492 O   0  0  0  0  0  0  0  0  0  0  0  0
    9.1830  -15.3390   26.2987 N   0  0  0  0  0  0  0  0  0  0  0  0
    9.4396  -16.7156   26.6639 C   0  0  1  0  0  0  0  0  0  0  0  0
   10.1483  -17.4758   25.5797 C   0  0  0  0  0  0  0  0  0  0  0  0
   10.3312  -18.9273   25.9116 C   0  0  0  0  0  0  0  0  0  0  0  0
   11.0968  -19.6638   24.8336 C   0  0  0  0  0  0  0  0  0  0  0  0
   11.2688  -21.1193   25.2034 C   0  0  0  0  0  0  0  0  0  0  0  0
   11.7859  -21.8363   24.0457 N   0  0  0  0  0  0  0  0  0  0  0  0
   10.2479  -16.7464   27.9089 C   0  0  0  0  0  0  0  0  0  0  0  0
   10.4540  -17.8125   28.5411 O   0  0  0  0  0  0  0  0  0  0  0  0
   10.8055  -15.5806   28.4144 O   0  0  0  0  0  0  0  0  0  0  0  0
  1  2  1  0
  3  5  1  0
  3  2  1  0
  3  4  1  6
  5  6  2  0
  7  8  1  0
  7  5  1  0
  8 11  1  0
  8  9  1  1
 10  9  1  0
 11 13  1  0
 11 12  2  0
 13 14  1  0
 14 15  1  6
 15 16  1  0
 16 17  1  0
 17 18  1  0
 18 19  1  0
 20 22  1  0
 20 14  1  0
 21 20  2  0
M  END
$$$$
