SCK.pdb
     RDKit          3D

 22 21  0  0  1  0  0  0  0  0999 V2000
    6.1725  -15.3556   19.3988 O   0  0  0  0  0  0  0  0  0  0  0  0
    7.0995  -15.2685   20.4309 C   0  0  0  0  0  0  0  0  0  0  0  0
    7.1090  -13.8337   20.9071 C   0  0  2  0  0  0  0  0  0  0  0  0
    7.5024  -12.9236   19.8764 N   0  0  0  0  0  0  0  0  0  0  0  0
    7.9729  -13.6534   22.0984 C   0  0  0  0  0  0  0  0  0  0  0  0
    9.1995  -13.5033   21.9638 O   0  0  0  0  0  0  0  0  0  0  0  0
    7.3745  -13.6561   23.3798 N   0  0  0  0  0  0  0  0  0  0  0  0
    8.1318  -13.8261   24.6003 C   0  0  1  0  0  0  0  0  0  0  0  0
    7.3887  -13.0867   25.7026 C   0  0  0  0  0  0  0  0  0  0  0  0
    5.6486  -13.5929   25.7299 S   0  0  0  0  0  0  0  0  0  0  0  0
    8.2696  -15.2549   24.9509 C   0  0  0  0  0  0  0  0  0  0  0  0
    7.3415  -16.0949   24.7818 O   0  0  0  0  0  0  0  0  0  0  0  0
    9.4990  -15.6989   25.5014 N   0  0  0  0  0  0  0  0  0  0  0  0
    9.7457  -17.0884   25.8215 C   0  0  1  0  0  0  0  0  0  0  0  0
   10.8266  -17.6915   24.9709 C   0  0  0  0  0  0  0  0  0  0  0  0
   10.3669  -17.9959   23.5758 C   0  0  0  0  0  0  0  0  0  0  0  0
   11.4956  -18.5031   22.7043 C   0  0  0  0  0  0  0  0  0  0  0  0
   11.0307  -18.6700   21.2757 C   0  0  0  0  0  0  0  0  0  0  0  0
   12.1655  -19.0850   20.4619 N   0  0  0  0  0  0  0  0  0  0  0  0
   10.1149  -17.1997   27.2553 C   0  0  0  0  0  0  0  0  0  0  0  0
   10.3223  -16.1864   27.9686 O   0  0  0  0  0  0  0  0  0  0  0  0
   10.2426  -18.4450   27.8540 O   0  0  0  0  0  0  0  0  0  0  0  0
  1  2  1  0
  3  5  1  0
  3  2  1  0
  3  4  1  6
  5  6  2  0
  7  8  1  0
  7  5  1  0
  8 11  1  0
  8  9  1  1
 10  9  1  0
 11 13  1  0
 11 12  2  0
 13 14  1  0
 14 15  1  6
 15 16  1  0
 16 17  1  0
 17 18  1  0
 18 19  1  0
 20 22  1  0
 20 14  1  0
 21 20  2  0
M  END
$$$$
