SCK.pdb
     RDKit          3D

 22 21  0  0  1  0  0  0  0  0999 V2000
    5.1930  -18.0816   22.0361 O   0  0  0  0  0  0  0  0  0  0  0  0
    4.6488  -17.4375   20.9310 C   0  0  0  0  0  0  0  0  0  0  0  0
    5.6181  -17.6148   19.7845 C   0  0  2  0  0  0  0  0  0  0  0  0
    5.8749  -18.9928   19.5006 N   0  0  0  0  0  0  0  0  0  0  0  0
    6.8951  -16.9013   20.0262 C   0  0  0  0  0  0  0  0  0  0  0  0
    7.8814  -17.5171   20.4658 O   0  0  0  0  0  0  0  0  0  0  0  0
    6.9643  -15.5165   19.7477 N   0  0  0  0  0  0  0  0  0  0  0  0
    8.1409  -14.7190   20.0157 C   0  0  1  0  0  0  0  0  0  0  0  0
    8.0970  -13.5175   19.0839 C   0  0  0  0  0  0  0  0  0  0  0  0
    8.0629  -14.0677   17.3574 S   0  0  0  0  0  0  0  0  0  0  0  0
    8.1742  -14.2693   21.4228 C   0  0  0  0  0  0  0  0  0  0  0  0
    7.3418  -13.4478   21.9000 O   0  0  0  0  0  0  0  0  0  0  0  0
    9.1868  -14.7846   22.2719 N   0  0  0  0  0  0  0  0  0  0  0  0
    9.3295  -14.3631   23.6489 C   0  0  1  0  0  0  0  0  0  0  0  0
    8.0088  -14.0653   24.2992 C   0  0  0  0  0  0  0  0  0  0  0  0
    8.1552  -13.5107   25.6853 C   0  0  0  0  0  0  0  0  0  0  0  0
    6.8459  -12.9754   26.2234 C   0  0  0  0  0  0  0  0  0  0  0  0
    7.0565  -12.2987   27.5586 C   0  0  0  0  0  0  0  0  0  0  0  0
    5.7645  -11.8567   28.0660 N   0  0  0  0  0  0  0  0  0  0  0  0
   10.0365  -15.4228   24.4116 C   0  0  0  0  0  0  0  0  0  0  0  0
   10.1259  -16.6012   23.9850 O   0  0  0  0  0  0  0  0  0  0  0  0
   10.6261  -15.1347   25.6343 O   0  0  0  0  0  0  0  0  0  0  0  0
  1  2  1  0
  3  5  1  0
  3  2  1  0
  3  4  1  1
  5  6  2  0
  7  8  1  0
  7  5  1  0
  8 11  1  0
  8  9  1  6
 10  9  1  0
 11 13  1  0
 11 12  2  0
 13 14  1  0
 14 15  1  1
 15 16  1  0
 16 17  1  0
 17 18  1  0
 18 19  1  0
 20 22  1  0
 20 14  1  0
 21 20  2  0
M  END
$$$$
