SCK.pdb
     RDKit          3D

 22 21  0  0  1  0  0  0  0  0999 V2000
   10.1609  -18.5980   19.7167 O   0  0  0  0  0  0  0  0  0  0  0  0
    8.8223  -18.3242   19.4609 C   0  0  0  0  0  0  0  0  0  0  0  0
    8.7018  -16.8330   19.2437 C   0  0  2  0  0  0  0  0  0  0  0  0
    9.2218  -16.4266   17.9749 N   0  0  0  0  0  0  0  0  0  0  0  0
    9.3556  -16.0628   20.3289 C   0  0  0  0  0  0  0  0  0  0  0  0
    9.9065  -14.9766   20.0798 O   0  0  0  0  0  0  0  0  0  0  0  0
    9.3381  -16.5877   21.6419 N   0  0  0  0  0  0  0  0  0  0  0  0
    9.3365  -15.7518   22.8224 C   0  0  1  0  0  0  0  0  0  0  0  0
    8.1162  -14.8477   22.7371 C   0  0  0  0  0  0  0  0  0  0  0  0
    7.8392  -14.0219   24.3264 S   0  0  0  0  0  0  0  0  0  0  0  0
    9.2807  -16.5651   24.0548 C   0  0  0  0  0  0  0  0  0  0  0  0
    8.2544  -17.2147   24.4017 O   0  0  0  0  0  0  0  0  0  0  0  0
   10.4316  -16.6162   24.8820 N   0  0  0  0  0  0  0  0  0  0  0  0
   10.7222  -17.7498   25.7332 C   0  0  1  0  0  0  0  0  0  0  0  0
   12.1739  -17.8293   26.1098 C   0  0  0  0  0  0  0  0  0  0  0  0
   12.4906  -19.0274   26.9552 C   0  0  0  0  0  0  0  0  0  0  0  0
   12.7840  -20.2523   26.1161 C   0  0  0  0  0  0  0  0  0  0  0  0
   13.3165  -21.3732   26.9793 C   0  0  0  0  0  0  0  0  0  0  0  0
   13.7108  -22.4787   26.1166 N   0  0  0  0  0  0  0  0  0  0  0  0
    9.8898  -17.6638   26.9597 C   0  0  0  0  0  0  0  0  0  0  0  0
    9.4157  -16.5734   27.3659 O   0  0  0  0  0  0  0  0  0  0  0  0
    9.6096  -18.8030   27.7008 O   0  0  0  0  0  0  0  0  0  0  0  0
  1  2  1  0
  3  5  1  0
  3  2  1  0
  3  4  1  6
  5  6  2  0
  7  8  1  0
  7  5  1  0
  8 11  1  0
  8  9  1  6
 10  9  1  0
 11 13  1  0
 11 12  2  0
 13 14  1  0
 14 15  1  1
 15 16  1  0
 16 17  1  0
 17 18  1  0
 18 19  1  0
 20 22  1  0
 20 14  1  0
 21 20  2  0
M  END
$$$$
