SCK.pdb
     RDKit          3D

 22 21  0  0  1  0  0  0  0  0999 V2000
    4.6907  -18.7869   23.1791 O   0  0  0  0  0  0  0  0  0  0  0  0
    3.8343  -17.8997   22.5375 C   0  0  0  0  0  0  0  0  0  0  0  0
    4.1788  -17.9268   21.0658 C   0  0  2  0  0  0  0  0  0  0  0  0
    4.0335  -19.2320   20.4994 N   0  0  0  0  0  0  0  0  0  0  0  0
    5.5457  -17.4132   20.8095 C   0  0  0  0  0  0  0  0  0  0  0  0
    6.4851  -18.2046   20.6188 O   0  0  0  0  0  0  0  0  0  0  0  0
    5.7543  -16.0146   20.7873 N   0  0  0  0  0  0  0  0  0  0  0  0
    7.0694  -15.4173   20.7108 C   0  0  1  0  0  0  0  0  0  0  0  0
    6.8802  -13.9411   20.3966 C   0  0  0  0  0  0  0  0  0  0  0  0
    8.4902  -13.1177   20.2754 S   0  0  0  0  0  0  0  0  0  0  0  0
    7.8045  -15.5755   21.9829 C   0  0  0  0  0  0  0  0  0  0  0  0
    7.3166  -15.2504   23.1017 O   0  0  0  0  0  0  0  0  0  0  0  0
    9.1151  -16.1161   21.9419 N   0  0  0  0  0  0  0  0  0  0  0  0
    9.9344  -16.2479   23.1274 C   0  0  1  0  0  0  0  0  0  0  0  0
    9.9163  -17.6416   23.6871 C   0  0  0  0  0  0  0  0  0  0  0  0
   10.7630  -17.7852   24.9170 C   0  0  0  0  0  0  0  0  0  0  0  0
   10.7544  -19.2019   25.4496 C   0  0  0  0  0  0  0  0  0  0  0  0
   11.4293  -19.2663   26.8006 C   0  0  0  0  0  0  0  0  0  0  0  0
   11.4824  -20.6576   27.2291 N   0  0  0  0  0  0  0  0  0  0  0  0
   11.3289  -15.8563   22.8015 C   0  0  0  0  0  0  0  0  0  0  0  0
   11.7482  -15.8151   21.6177 O   0  0  0  0  0  0  0  0  0  0  0  0
   12.2194  -15.5205   23.8114 O   0  0  0  0  0  0  0  0  0  0  0  0
  1  2  1  0
  3  5  1  0
  3  2  1  0
  3  4  1  1
  5  6  2  0
  7  8  1  0
  7  5  1  0
  8 11  1  0
  8  9  1  1
 10  9  1  0
 11 13  1  0
 11 12  2  0
 13 14  1  0
 14 15  1  6
 15 16  1  0
 16 17  1  0
 17 18  1  0
 18 19  1  0
 20 22  1  0
 20 14  1  0
 21 20  2  0
M  END
$$$$
