ESV.pdb
     RDKit          3D

 23 22  0  0  1  0  0  0  0  0999 V2000
   18.7367  -12.5762  -15.2619 N   0  0  0  0  0  0  0  0  0  0  0  0
   18.3323  -12.0587  -16.5528 C   0  0  1  0  0  0  0  0  0  0  0  0
   16.9391  -12.5454  -16.8363 C   0  0  0  0  0  0  0  0  0  0  0  0
   15.9630  -12.3751  -15.7289 C   0  0  0  0  0  0  0  0  0  0  0  0
   14.6491  -12.9450  -16.0093 C   0  0  0  0  0  0  0  0  0  0  0  0
   13.7471  -12.2760  -16.5173 O   0  0  0  0  0  0  0  0  0  0  0  0
   18.2694  -10.5738  -16.5548 C   0  0  0  0  0  0  0  0  0  0  0  0
   18.0798  -10.0134  -17.6629 O   0  0  0  0  0  0  0  0  0  0  0  0
   14.4516  -14.2992  -15.6738 O   0  0  0  0  0  0  0  0  0  0  0  0
   17.1636   -6.4356  -14.7714 O   0  0  0  0  0  0  0  0  0  0  0  0
   17.2089   -7.8256  -14.7565 C   0  0  0  0  0  0  0  0  0  0  0  0
   18.4350   -8.3731  -15.4558 C   0  0  2  0  0  0  0  0  0  0  0  0
   18.4136   -9.7967  -15.3732 N   0  0  0  0  0  0  0  0  0  0  0  0
   19.6864   -7.7714  -14.9357 C   0  0  0  0  0  0  0  0  0  0  0  0
   20.1974   -8.2743  -13.9018 O   0  0  0  0  0  0  0  0  0  0  0  0
   22.9385   -7.3869  -16.7270 C   0  0  0  0  0  0  0  0  0  0  0  0
   22.5860   -5.9874  -16.2470 C   0  0  2  0  0  0  0  0  0  0  0  0
   23.8524   -5.3627  -15.7112 C   0  0  0  0  0  0  0  0  0  0  0  0
   21.6171   -6.1472  -15.1012 C   0  0  2  0  0  0  0  0  0  0  0  0
   20.3439   -6.6726  -15.5211 N   0  0  0  0  0  0  0  0  0  0  0  0
   21.3665   -4.8384  -14.4202 C   0  0  0  0  0  0  0  0  0  0  0  0
   22.1241   -4.4294  -13.3201 O   0  0  0  0  0  0  0  0  0  0  0  0
   20.4676   -4.0410  -14.7973 O   0  0  0  0  0  0  0  0  0  0  0  0
  2  1  1  1
  2  7  1  0
  3  2  1  0
  4  3  1  0
  5  6  2  0
  5  4  1  0
  7 13  1  0
  8  7  2  0
  9  5  1  0
 10 11  1  0
 12 11  1  1
 12 14  1  0
 13 12  1  0
 14 20  1  0
 14 15  2  0
 17 16  1  1
 17 18  1  0
 19 17  1  0
 19 20  1  6
 21 19  1  0
 21 22  1  0
 23 21  2  0
M  END
$$$$
