ESV.pdb
     RDKit          3D

 23 22  0  0  1  0  0  0  0  0999 V2000
   18.8813  -11.8426  -17.0369 N   0  0  0  0  0  0  0  0  0  0  0  0
   19.4303  -10.6902  -17.7211 C   0  0  1  0  0  0  0  0  0  0  0  0
   18.2862   -9.8617  -18.2339 C   0  0  0  0  0  0  0  0  0  0  0  0
   17.4920  -10.4746  -19.3301 C   0  0  0  0  0  0  0  0  0  0  0  0
   16.4813  -11.4202  -18.8675 C   0  0  0  0  0  0  0  0  0  0  0  0
   15.6553  -11.1161  -18.0048 O   0  0  0  0  0  0  0  0  0  0  0  0
   20.2023   -9.8183  -16.7976 C   0  0  0  0  0  0  0  0  0  0  0  0
   19.7281   -9.6462  -15.6473 O   0  0  0  0  0  0  0  0  0  0  0  0
   16.4878  -12.7031  -19.4504 O   0  0  0  0  0  0  0  0  0  0  0  0
   24.1201   -8.8651  -17.5803 O   0  0  0  0  0  0  0  0  0  0  0  0
   23.6238   -8.9001  -16.2815 C   0  0  0  0  0  0  0  0  0  0  0  0
   22.1757   -8.4656  -16.2025 C   0  0  2  0  0  0  0  0  0  0  0  0
   21.4240   -9.1944  -17.1709 N   0  0  0  0  0  0  0  0  0  0  0  0
   22.0291   -6.9954  -16.3276 C   0  0  0  0  0  0  0  0  0  0  0  0
   22.0967   -6.4917  -17.4785 O   0  0  0  0  0  0  0  0  0  0  0  0
   19.5285   -4.8431  -14.1705 C   0  0  0  0  0  0  0  0  0  0  0  0
   20.2050   -4.2806  -15.4112 C   0  0  2  0  0  0  0  0  0  0  0  0
   19.5748   -4.9491  -16.6100 C   0  0  0  0  0  0  0  0  0  0  0  0
   21.6545   -4.6951  -15.3471 C   0  0  2  0  0  0  0  0  0  0  0  0
   21.8189   -6.1218  -15.2436 N   0  0  0  0  0  0  0  0  0  0  0  0
   22.3424   -4.0719  -14.1732 C   0  0  0  0  0  0  0  0  0  0  0  0
   22.6945   -2.7201  -14.1647 O   0  0  0  0  0  0  0  0  0  0  0  0
   22.6390   -4.7250  -13.1381 O   0  0  0  0  0  0  0  0  0  0  0  0
  2  1  1  1
  2  7  1  0
  3  2  1  0
  4  3  1  0
  5  6  2  0
  5  4  1  0
  7 13  1  0
  8  7  2  0
  9  5  1  0
 10 11  1  0
 12 11  1  6
 12 14  1  0
 13 12  1  0
 14 20  1  0
 14 15  2  0
 17 16  1  1
 17 18  1  0
 19 17  1  0
 19 20  1  1
 21 19  1  0
 21 22  1  0
 23 21  2  0
M  END
$$$$
