ESV.pdb
     RDKit          3D

 23 22  0  0  1  0  0  0  0  0999 V2000
   18.8729  -10.7320  -19.3709 N   0  0  0  0  0  0  0  0  0  0  0  0
   20.0821   -9.9364  -19.3205 C   0  0  1  0  0  0  0  0  0  0  0  0
   20.0413   -8.9510  -20.4543 C   0  0  0  0  0  0  0  0  0  0  0  0
   20.2483   -9.5243  -21.8094 C   0  0  0  0  0  0  0  0  0  0  0  0
   20.0339   -8.5694  -22.8919 C   0  0  0  0  0  0  0  0  0  0  0  0
   19.6932   -7.4055  -22.6720 O   0  0  0  0  0  0  0  0  0  0  0  0
   20.1632   -9.1377  -18.0697 C   0  0  0  0  0  0  0  0  0  0  0  0
   19.0765   -8.7816  -17.5500 O   0  0  0  0  0  0  0  0  0  0  0  0
   20.2332   -9.0343  -24.2071 O   0  0  0  0  0  0  0  0  0  0  0  0
   22.1642   -8.2344  -13.9536 O   0  0  0  0  0  0  0  0  0  0  0  0
   22.1578   -8.8518  -15.1998 C   0  0  0  0  0  0  0  0  0  0  0  0
   21.4069   -8.0487  -16.2406 C   0  0  2  0  0  0  0  0  0  0  0  0
   21.3991   -8.7782  -17.4660 N   0  0  0  0  0  0  0  0  0  0  0  0
   21.9457   -6.6740  -16.3768 C   0  0  0  0  0  0  0  0  0  0  0  0
   22.9261   -6.4982  -17.1454 O   0  0  0  0  0  0  0  0  0  0  0  0
   19.6142   -3.4172  -15.6323 C   0  0  0  0  0  0  0  0  0  0  0  0
   20.8728   -3.2882  -16.4765 C   0  0  2  0  0  0  0  0  0  0  0  0
   20.5448   -3.8075  -17.8563 C   0  0  0  0  0  0  0  0  0  0  0  0
   21.9081   -4.1986  -15.8631 C   0  0  2  0  0  0  0  0  0  0  0  0
   21.4339   -5.5487  -15.7029 N   0  0  0  0  0  0  0  0  0  0  0  0
   22.3322   -3.7029  -14.5162 C   0  0  0  0  0  0  0  0  0  0  0  0
   23.1222   -2.5598  -14.3729 O   0  0  0  0  0  0  0  0  0  0  0  0
   22.0037   -4.2831  -13.4478 O   0  0  0  0  0  0  0  0  0  0  0  0
  2  1  1  1
  2  7  1  0
  3  2  1  0
  4  3  1  0
  5  6  2  0
  5  4  1  0
  7 13  1  0
  8  7  2  0
  9  5  1  0
 10 11  1  0
 12 11  1  1
 12 14  1  0
 13 12  1  0
 14 20  1  0
 14 15  2  0
 17 16  1  1
 17 18  1  0
 19 17  1  0
 19 20  1  1
 21 19  1  0
 21 22  1  0
 23 21  2  0
M  END
$$$$
