ESV.pdb
     RDKit          3D

 23 22  0  0  1  0  0  0  0  0999 V2000
   23.2384  -13.6947  -20.0004 N   0  0  0  0  0  0  0  0  0  0  0  0
   23.6619  -12.3101  -20.0369 C   0  0  1  0  0  0  0  0  0  0  0  0
   22.8268  -11.5924  -21.0595 C   0  0  0  0  0  0  0  0  0  0  0  0
   22.8629  -12.1627  -22.4311 C   0  0  0  0  0  0  0  0  0  0  0  0
   21.5538  -12.2397  -23.0715 C   0  0  0  0  0  0  0  0  0  0  0  0
   20.5562  -12.6316  -22.4629 O   0  0  0  0  0  0  0  0  0  0  0  0
   23.4205  -11.6267  -18.7394 C   0  0  0  0  0  0  0  0  0  0  0  0
   22.2900  -11.7837  -18.2148 O   0  0  0  0  0  0  0  0  0  0  0  0
   21.4755  -11.8455  -24.4220 O   0  0  0  0  0  0  0  0  0  0  0  0
   25.2061   -9.2479  -14.9215 O   0  0  0  0  0  0  0  0  0  0  0  0
   25.4062   -9.8901  -16.1388 C   0  0  0  0  0  0  0  0  0  0  0  0
   24.1070  -10.1937  -16.8544 C   0  0  2  0  0  0  0  0  0  0  0  0
   24.4043  -10.8258  -18.0977 N   0  0  0  0  0  0  0  0  0  0  0  0
   23.2554   -8.9881  -16.9951 C   0  0  0  0  0  0  0  0  0  0  0  0
   23.4622   -8.2314  -17.9788 O   0  0  0  0  0  0  0  0  0  0  0  0
   19.0867   -6.7125  -16.7799 C   0  0  0  0  0  0  0  0  0  0  0  0
   19.9724   -7.9489  -16.7862 C   0  0  2  0  0  0  0  0  0  0  0  0
   19.3822   -8.9308  -15.8019 C   0  0  0  0  0  0  0  0  0  0  0  0
   21.3259   -7.5222  -16.2733 C   0  0  2  0  0  0  0  0  0  0  0  0
   22.2282   -8.6309  -16.1009 N   0  0  0  0  0  0  0  0  0  0  0  0
   21.2074   -6.8233  -14.9552 C   0  0  0  0  0  0  0  0  0  0  0  0
   21.7269   -7.3787  -13.7835 O   0  0  0  0  0  0  0  0  0  0  0  0
   20.6383   -5.7068  -14.8306 O   0  0  0  0  0  0  0  0  0  0  0  0
  2  1  1  1
  2  7  1  0
  3  2  1  0
  4  3  1  0
  5  6  2  0
  5  4  1  0
  7 13  1  0
  8  7  2  0
  9  5  1  0
 10 11  1  0
 12 11  1  6
 12 14  1  0
 13 12  1  0
 14 20  1  0
 14 15  2  0
 17 16  1  1
 17 18  1  0
 19 17  1  0
 19 20  1  1
 21 19  1  0
 21 22  1  0
 23 21  2  0
M  END
$$$$
