ESV.pdb
     RDKit          3D

 23 22  0  0  1  0  0  0  0  0999 V2000
   14.9308  -10.0289  -17.2161 N   0  0  0  0  0  0  0  0  0  0  0  0
   15.7931   -9.9375  -16.0561 C   0  0  1  0  0  0  0  0  0  0  0  0
   16.8349  -11.0154  -16.1616 C   0  0  0  0  0  0  0  0  0  0  0  0
   16.3469  -12.4018  -15.9437 C   0  0  0  0  0  0  0  0  0  0  0  0
   16.2115  -12.7642  -14.5366 C   0  0  0  0  0  0  0  0  0  0  0  0
   17.1574  -12.6791  -13.7511 O   0  0  0  0  0  0  0  0  0  0  0  0
   16.5256   -8.6448  -16.0158 C   0  0  0  0  0  0  0  0  0  0  0  0
   16.7679   -8.0930  -17.1178 O   0  0  0  0  0  0  0  0  0  0  0  0
   14.9479  -13.2182  -14.1092 O   0  0  0  0  0  0  0  0  0  0  0  0
   16.1489   -5.8492  -13.2276 O   0  0  0  0  0  0  0  0  0  0  0  0
   16.7407   -5.6772  -14.4744 C   0  0  0  0  0  0  0  0  0  0  0  0
   17.6757   -6.8123  -14.8337 C   0  0  2  0  0  0  0  0  0  0  0  0
   16.9453   -8.0368  -14.8012 N   0  0  0  0  0  0  0  0  0  0  0  0
   18.8872   -6.8261  -13.9788 C   0  0  0  0  0  0  0  0  0  0  0  0
   18.7937   -7.3339  -12.8314 O   0  0  0  0  0  0  0  0  0  0  0  0
   22.7159   -6.5695  -15.5250 C   0  0  0  0  0  0  0  0  0  0  0  0
   22.4401   -7.1299  -14.1382 C   0  0  2  0  0  0  0  0  0  0  0  0
   21.9412   -8.5445  -14.3151 C   0  0  0  0  0  0  0  0  0  0  0  0
   21.3233   -6.3060  -13.5458 C   0  0  2  0  0  0  0  0  0  0  0  0
   20.1386   -6.3084  -14.3640 N   0  0  0  0  0  0  0  0  0  0  0  0
   21.7441   -4.8820  -13.3592 C   0  0  0  0  0  0  0  0  0  0  0  0
   21.2181   -3.8547  -14.1463 O   0  0  0  0  0  0  0  0  0  0  0  0
   22.5873   -4.5342  -12.4909 O   0  0  0  0  0  0  0  0  0  0  0  0
  2  1  1  6
  2  7  1  0
  3  2  1  0
  4  3  1  0
  5  6  2  0
  5  4  1  0
  7 13  1  0
  8  7  2  0
  9  5  1  0
 10 11  1  0
 12 11  1  1
 12 14  1  0
 13 12  1  0
 14 20  1  0
 14 15  2  0
 17 16  1  6
 17 18  1  0
 19 17  1  0
 19 20  1  6
 21 19  1  0
 21 22  1  0
 23 21  2  0
M  END
$$$$
