ESV.pdb
     RDKit          3D

 23 22  0  0  1  0  0  0  0  0999 V2000
   17.9846  -14.5839  -17.7691 N   0  0  0  0  0  0  0  0  0  0  0  0
   17.5206  -13.2510  -18.0943 C   0  0  1  0  0  0  0  0  0  0  0  0
   16.3181  -12.9538  -17.2434 C   0  0  0  0  0  0  0  0  0  0  0  0
   15.7951  -14.0970  -16.4513 C   0  0  0  0  0  0  0  0  0  0  0  0
   14.6300  -13.7655  -15.6375 C   0  0  0  0  0  0  0  0  0  0  0  0
   13.4951  -13.7232  -16.1165 O   0  0  0  0  0  0  0  0  0  0  0  0
   18.5374  -12.2187  -17.7637 C   0  0  0  0  0  0  0  0  0  0  0  0
   19.3741  -12.5084  -16.8727 O   0  0  0  0  0  0  0  0  0  0  0  0
   14.8559  -13.4940  -14.2734 O   0  0  0  0  0  0  0  0  0  0  0  0
   20.5304   -7.9066  -18.8088 O   0  0  0  0  0  0  0  0  0  0  0  0
   19.5299   -8.8466  -19.0322 C   0  0  0  0  0  0  0  0  0  0  0  0
   19.6384  -10.0396  -18.1066 C   0  0  2  0  0  0  0  0  0  0  0  0
   18.5857  -10.9530  -18.4091 N   0  0  0  0  0  0  0  0  0  0  0  0
   19.6756   -9.6349  -16.6805 C   0  0  0  0  0  0  0  0  0  0  0  0
   18.5814   -9.5289  -16.0687 O   0  0  0  0  0  0  0  0  0  0  0  0
   22.4735   -8.9711  -12.7217 C   0  0  0  0  0  0  0  0  0  0  0  0
   21.7518   -9.8508  -13.7309 C   0  0  2  0  0  0  0  0  0  0  0  0
   22.8041  -10.4846  -14.6097 C   0  0  0  0  0  0  0  0  0  0  0  0
   20.9096   -8.9370  -14.5870 C   0  0  2  0  0  0  0  0  0  0  0  0
   20.8550   -9.3603  -15.9621 N   0  0  0  0  0  0  0  0  0  0  0  0
   21.4378   -7.5370  -14.5629 C   0  0  0  0  0  0  0  0  0  0  0  0
   21.9309   -6.9213  -15.7158 O   0  0  0  0  0  0  0  0  0  0  0  0
   21.4669   -6.8431  -13.5123 O   0  0  0  0  0  0  0  0  0  0  0  0
  2  1  1  1
  2  7  1  0
  3  2  1  0
  4  3  1  0
  5  6  2  0
  5  4  1  0
  7 13  1  0
  8  7  2  0
  9  5  1  0
 10 11  1  0
 12 11  1  6
 12 14  1  0
 13 12  1  0
 14 20  1  0
 14 15  2  0
 17 16  1  1
 17 18  1  0
 19 17  1  0
 19 20  1  6
 21 19  1  0
 21 22  1  0
 23 21  2  0
M  END
$$$$
