ESV.pdb
     RDKit          3D

 23 22  0  0  1  0  0  0  0  0999 V2000
   16.2920  -12.0597  -15.0530 N   0  0  0  0  0  0  0  0  0  0  0  0
   17.7048  -11.8009  -15.2390 C   0  0  1  0  0  0  0  0  0  0  0  0
   18.1545  -12.5265  -16.4757 C   0  0  0  0  0  0  0  0  0  0  0  0
   17.7020  -13.9371  -16.5913 C   0  0  0  0  0  0  0  0  0  0  0  0
   18.1517  -14.6018  -17.8102 C   0  0  0  0  0  0  0  0  0  0  0  0
   17.3829  -14.8294  -18.7462 O   0  0  0  0  0  0  0  0  0  0  0  0
   17.9733  -10.3582  -15.4748 C   0  0  0  0  0  0  0  0  0  0  0  0
   19.1661  -10.0288  -15.6903 O   0  0  0  0  0  0  0  0  0  0  0  0
   19.5088  -14.9756  -17.8744 O   0  0  0  0  0  0  0  0  0  0  0  0
   15.1119   -7.6817  -16.8403 O   0  0  0  0  0  0  0  0  0  0  0  0
   15.9706   -7.2253  -15.8460 C   0  0  0  0  0  0  0  0  0  0  0  0
   17.2584   -8.0190  -15.7832 C   0  0  2  0  0  0  0  0  0  0  0  0
   16.9479   -9.3736  -15.4629 N   0  0  0  0  0  0  0  0  0  0  0  0
   18.2442   -7.4064  -14.8603 C   0  0  0  0  0  0  0  0  0  0  0  0
   18.0941   -7.5970  -13.6258 O   0  0  0  0  0  0  0  0  0  0  0  0
   22.7530   -5.6082  -14.3054 C   0  0  0  0  0  0  0  0  0  0  0  0
   21.7439   -6.6427  -14.7797 C   0  0  2  0  0  0  0  0  0  0  0  0
   21.8318   -6.6996  -16.2864 C   0  0  0  0  0  0  0  0  0  0  0  0
   20.3764   -6.1260  -14.4056 C   0  0  2  0  0  0  0  0  0  0  0  0
   19.3397   -6.6237  -15.2721 N   0  0  0  0  0  0  0  0  0  0  0  0
   20.3323   -4.6309  -14.4562 C   0  0  0  0  0  0  0  0  0  0  0  0
   19.5434   -3.9536  -15.3891 O   0  0  0  0  0  0  0  0  0  0  0  0
   20.9974   -3.9077  -13.6685 O   0  0  0  0  0  0  0  0  0  0  0  0
  2  1  1  6
  2  7  1  0
  3  2  1  0
  4  3  1  0
  5  6  2  0
  5  4  1  0
  7 13  1  0
  8  7  2  0
  9  5  1  0
 10 11  1  0
 12 11  1  1
 12 14  1  0
 13 12  1  0
 14 20  1  0
 14 15  2  0
 17 16  1  6
 17 18  1  0
 19 17  1  0
 19 20  1  6
 21 19  1  0
 21 22  1  0
 23 21  2  0
M  END
$$$$
