ESV.pdb
     RDKit          3D

 23 22  0  0  1  0  0  0  0  0999 V2000
   17.3265  -14.7131  -18.8946 N   0  0  0  0  0  0  0  0  0  0  0  0
   17.6381  -14.2474  -17.5590 C   0  0  1  0  0  0  0  0  0  0  0  0
   18.7276  -15.1197  -17.0018 C   0  0  0  0  0  0  0  0  0  0  0  0
   19.8129  -15.4754  -17.9524 C   0  0  0  0  0  0  0  0  0  0  0  0
   20.8161  -16.3744  -17.3910 C   0  0  0  0  0  0  0  0  0  0  0  0
   20.5043  -17.3294  -16.6771 O   0  0  0  0  0  0  0  0  0  0  0  0
   18.1721  -12.8604  -17.5707 C   0  0  0  0  0  0  0  0  0  0  0  0
   19.0611  -12.5997  -18.4189 O   0  0  0  0  0  0  0  0  0  0  0  0
   22.1643  -16.1050  -17.6999 O   0  0  0  0  0  0  0  0  0  0  0  0
   17.6630   -8.2234  -16.8666 O   0  0  0  0  0  0  0  0  0  0  0  0
   17.1833   -9.5280  -16.8206 C   0  0  0  0  0  0  0  0  0  0  0  0
   18.2947  -10.5508  -16.7170 C   0  0  2  0  0  0  0  0  0  0  0  0
   17.7171  -11.8541  -16.6755 N   0  0  0  0  0  0  0  0  0  0  0  0
   19.2020  -10.2720  -15.5778 C   0  0  0  0  0  0  0  0  0  0  0  0
   18.8777  -10.7111  -14.4443 O   0  0  0  0  0  0  0  0  0  0  0  0
   23.1633   -8.9150  -16.0436 C   0  0  0  0  0  0  0  0  0  0  0  0
   22.6828   -9.5841  -14.7650 C   0  0  2  0  0  0  0  0  0  0  0  0
   22.7217  -11.0763  -14.9956 C   0  0  0  0  0  0  0  0  0  0  0  0
   21.2439   -9.1741  -14.5688 C   0  0  2  0  0  0  0  0  0  0  0  0
   20.4050   -9.5473  -15.6780 N   0  0  0  0  0  0  0  0  0  0  0  0
   21.1250   -7.6933  -14.3871 C   0  0  0  0  0  0  0  0  0  0  0  0
   21.5405   -7.0651  -13.2105 O   0  0  0  0  0  0  0  0  0  0  0  0
   20.6487   -6.9389  -15.2759 O   0  0  0  0  0  0  0  0  0  0  0  0
  2  1  1  6
  2  7  1  0
  3  2  1  0
  4  3  1  0
  5  6  2  0
  5  4  1  0
  7 13  1  0
  8  7  2  0
  9  5  1  0
 10 11  1  0
 12 11  1  1
 12 14  1  0
 13 12  1  0
 14 20  1  0
 14 15  2  0
 17 16  1  6
 17 18  1  0
 19 17  1  0
 19 20  1  6
 21 19  1  0
 21 22  1  0
 23 21  2  0
M  END
$$$$
