ESV.pdb
     RDKit          3D

 23 22  0  0  1  0  0  0  0  0999 V2000
   20.3698  -12.8532  -16.9183 N   0  0  0  0  0  0  0  0  0  0  0  0
   19.9588  -11.5523  -17.4043 C   0  0  1  0  0  0  0  0  0  0  0  0
   18.5109  -11.3574  -17.0523 C   0  0  0  0  0  0  0  0  0  0  0  0
   17.8134  -12.5571  -16.5210 C   0  0  0  0  0  0  0  0  0  0  0  0
   16.7539  -13.0560  -17.3917 C   0  0  0  0  0  0  0  0  0  0  0  0
   16.4812  -12.5075  -18.4612 O   0  0  0  0  0  0  0  0  0  0  0  0
   20.7069  -10.4546  -16.7376 C   0  0  0  0  0  0  0  0  0  0  0  0
   21.0449  -10.6401  -15.5421 O   0  0  0  0  0  0  0  0  0  0  0  0
   16.0505  -14.1973  -16.9578 O   0  0  0  0  0  0  0  0  0  0  0  0
   21.7725   -6.7468  -18.6103 O   0  0  0  0  0  0  0  0  0  0  0  0
   22.6212   -7.4929  -17.7994 C   0  0  0  0  0  0  0  0  0  0  0  0
   21.8717   -8.2817  -16.7468 C   0  0  2  0  0  0  0  0  0  0  0  0
   21.0389   -9.2396  -17.3969 N   0  0  0  0  0  0  0  0  0  0  0  0
   21.1345   -7.3988  -15.8109 C   0  0  0  0  0  0  0  0  0  0  0  0
   19.9329   -7.1334  -16.0732 O   0  0  0  0  0  0  0  0  0  0  0  0
   22.2329   -6.9161  -11.8429 C   0  0  0  0  0  0  0  0  0  0  0  0
   20.8310   -6.6245  -12.3558 C   0  0  2  0  0  0  0  0  0  0  0  0
   20.1297   -7.9509  -12.5288 C   0  0  0  0  0  0  0  0  0  0  0  0
   20.9843   -5.9904  -13.7165 C   0  0  2  0  0  0  0  0  0  0  0  0
   21.6885   -6.8355  -14.6456 N   0  0  0  0  0  0  0  0  0  0  0  0
   21.7276   -4.6946  -13.6271 C   0  0  0  0  0  0  0  0  0  0  0  0
   21.1741   -3.5756  -13.0004 O   0  0  0  0  0  0  0  0  0  0  0  0
   22.8819   -4.5426  -14.1072 O   0  0  0  0  0  0  0  0  0  0  0  0
  2  1  1  1
  2  7  1  0
  3  2  1  0
  4  3  1  0
  5  6  2  0
  5  4  1  0
  7 13  1  0
  8  7  2  0
  9  5  1  0
 10 11  1  0
 12 11  1  6
 12 14  1  0
 13 12  1  0
 14 20  1  0
 14 15  2  0
 17 16  1  6
 17 18  1  0
 19 17  1  0
 19 20  1  6
 21 19  1  0
 21 22  1  0
 23 21  2  0
M  END
$$$$
