ESV.pdb
     RDKit          3D

 23 22  0  0  1  0  0  0  0  0999 V2000
   17.9680  -11.3907  -15.5224 N   0  0  0  0  0  0  0  0  0  0  0  0
   18.5099  -10.5994  -16.6076 C   0  0  1  0  0  0  0  0  0  0  0  0
   17.4818   -9.5756  -16.9987 C   0  0  0  0  0  0  0  0  0  0  0  0
   16.1864  -10.1203  -17.4816 C   0  0  0  0  0  0  0  0  0  0  0  0
   15.2398   -9.0956  -17.9102 C   0  0  0  0  0  0  0  0  0  0  0  0
   14.9052   -8.9747  -19.0903 O   0  0  0  0  0  0  0  0  0  0  0  0
   19.7191   -9.8443  -16.1873 C   0  0  0  0  0  0  0  0  0  0  0  0
   19.8342   -9.5895  -14.9627 O   0  0  0  0  0  0  0  0  0  0  0  0
   14.7203   -8.2446  -16.9145 O   0  0  0  0  0  0  0  0  0  0  0  0
   23.5921  -10.2309  -17.2626 O   0  0  0  0  0  0  0  0  0  0  0  0
   23.0296   -8.9877  -17.5317 C   0  0  0  0  0  0  0  0  0  0  0  0
   21.8457   -8.6817  -16.6391 C   0  0  2  0  0  0  0  0  0  0  0  0
   20.7164   -9.4170  -17.1059 N   0  0  0  0  0  0  0  0  0  0  0  0
   21.5952   -7.2245  -16.5284 C   0  0  0  0  0  0  0  0  0  0  0  0
   20.9496   -6.6651  -17.4521 O   0  0  0  0  0  0  0  0  0  0  0  0
   21.7216   -5.2765  -12.8626 C   0  0  0  0  0  0  0  0  0  0  0  0
   20.9059   -4.7642  -14.0397 C   0  0  2  0  0  0  0  0  0  0  0  0
   19.6478   -5.5967  -14.1121 C   0  0  0  0  0  0  0  0  0  0  0  0
   21.7181   -5.0268  -15.2841 C   0  0  2  0  0  0  0  0  0  0  0  0
   22.0316   -6.4214  -15.4573 N   0  0  0  0  0  0  0  0  0  0  0  0
   23.0093   -4.2708  -15.2550 C   0  0  0  0  0  0  0  0  0  0  0  0
   23.0482   -2.8832  -15.4124 O   0  0  0  0  0  0  0  0  0  0  0  0
   24.1214   -4.8378  -15.0886 O   0  0  0  0  0  0  0  0  0  0  0  0
  2  1  1  1
  2  7  1  0
  3  2  1  0
  4  3  1  0
  5  6  2  0
  5  4  1  0
  7 13  1  0
  8  7  2  0
  9  5  1  0
 10 11  1  0
 12 11  1  6
 12 14  1  0
 13 12  1  0
 14 20  1  0
 14 15  2  0
 17 16  1  1
 17 18  1  0
 19 17  1  0
 19 20  1  1
 21 19  1  0
 21 22  1  0
 23 21  2  0
M  END
$$$$
