ESV.pdb
     RDKit          3D

 23 22  0  0  1  0  0  0  0  0999 V2000
   21.1572  -13.1143  -18.1903 N   0  0  0  0  0  0  0  0  0  0  0  0
   21.9747  -11.9341  -17.9991 C   0  0  1  0  0  0  0  0  0  0  0  0
   22.1605  -11.2722  -19.3354 C   0  0  0  0  0  0  0  0  0  0  0  0
   22.9797  -12.0293  -20.3171 C   0  0  0  0  0  0  0  0  0  0  0  0
   22.3458  -13.2549  -20.7922 C   0  0  0  0  0  0  0  0  0  0  0  0
   21.2197  -13.2504  -21.2932 O   0  0  0  0  0  0  0  0  0  0  0  0
   21.3050  -10.9371  -17.1236 C   0  0  0  0  0  0  0  0  0  0  0  0
   20.0747  -10.7575  -17.3025 O   0  0  0  0  0  0  0  0  0  0  0  0
   23.0774  -14.4512  -20.6545 O   0  0  0  0  0  0  0  0  0  0  0  0
   21.3037   -8.2147  -13.1598 O   0  0  0  0  0  0  0  0  0  0  0  0
   21.9583   -9.1145  -13.9942 C   0  0  0  0  0  0  0  0  0  0  0  0
   21.3113   -9.2152  -15.3592 C   0  0  2  0  0  0  0  0  0  0  0  0
   21.9986  -10.2054  -16.1214 N   0  0  0  0  0  0  0  0  0  0  0  0
   21.2349   -7.8983  -16.0364 C   0  0  0  0  0  0  0  0  0  0  0  0
   22.2304   -7.5213  -16.7071 O   0  0  0  0  0  0  0  0  0  0  0  0
   19.1841   -4.3403  -18.4014 C   0  0  0  0  0  0  0  0  0  0  0  0
   19.2815   -5.7765  -17.9103 C   0  0  2  0  0  0  0  0  0  0  0  0
   17.8761   -6.2522  -17.6280 C   0  0  0  0  0  0  0  0  0  0  0  0
   20.0399   -5.7442  -16.6062 C   0  0  2  0  0  0  0  0  0  0  0  0
   20.1215   -7.0383  -15.9802 N   0  0  0  0  0  0  0  0  0  0  0  0
   19.3975   -4.8075  -15.6317 C   0  0  0  0  0  0  0  0  0  0  0  0
   19.6097   -3.4282  -15.6943 O   0  0  0  0  0  0  0  0  0  0  0  0
   18.6375   -5.2068  -14.7104 O   0  0  0  0  0  0  0  0  0  0  0  0
  2  1  1  6
  2  7  1  0
  3  2  1  0
  4  3  1  0
  5  6  2  0
  5  4  1  0
  7 13  1  0
  8  7  2  0
  9  5  1  0
 10 11  1  0
 12 11  1  1
 12 14  1  0
 13 12  1  0
 14 20  1  0
 14 15  2  0
 17 16  1  1
 17 18  1  0
 19 17  1  0
 19 20  1  1
 21 19  1  0
 21 22  1  0
 23 21  2  0
M  END
$$$$
