ESV.pdb
     RDKit          3D

 23 22  0  0  1  0  0  0  0  0999 V2000
   15.0978  -11.0300  -15.2769 N   0  0  0  0  0  0  0  0  0  0  0  0
   16.5056  -10.7775  -15.5047 C   0  0  1  0  0  0  0  0  0  0  0  0
   16.7670  -10.8837  -16.9807 C   0  0  0  0  0  0  0  0  0  0  0  0
   16.7921  -12.2643  -17.5295 C   0  0  0  0  0  0  0  0  0  0  0  0
   17.8411  -13.1049  -16.9613 C   0  0  0  0  0  0  0  0  0  0  0  0
   17.5809  -14.0523  -16.2170 O   0  0  0  0  0  0  0  0  0  0  0  0
   16.8885   -9.3978  -15.1063 C   0  0  0  0  0  0  0  0  0  0  0  0
   16.3264   -8.4529  -15.7139 O   0  0  0  0  0  0  0  0  0  0  0  0
   19.1717  -12.7880  -17.2997 O   0  0  0  0  0  0  0  0  0  0  0  0
   17.9048   -8.2464  -11.3701 O   0  0  0  0  0  0  0  0  0  0  0  0
   17.4475   -7.4601  -12.4223 C   0  0  0  0  0  0  0  0  0  0  0  0
   18.1407   -7.7809  -13.7294 C   0  0  2  0  0  0  0  0  0  0  0  0
   17.8435   -9.1288  -14.0882 N   0  0  0  0  0  0  0  0  0  0  0  0
   19.5942   -7.4931  -13.6728 C   0  0  0  0  0  0  0  0  0  0  0  0
   20.3413   -8.3368  -13.1135 O   0  0  0  0  0  0  0  0  0  0  0  0
   21.4664   -4.8728  -16.2502 C   0  0  0  0  0  0  0  0  0  0  0  0
   22.2647   -5.8889  -15.4481 C   0  0  2  0  0  0  0  0  0  0  0  0
   22.1425   -7.2176  -16.1558 C   0  0  0  0  0  0  0  0  0  0  0  0
   21.5955   -6.0084  -14.1008 C   0  0  2  0  0  0  0  0  0  0  0  0
   20.1974   -6.3368  -14.2035 N   0  0  0  0  0  0  0  0  0  0  0  0
   21.7070   -4.7316  -13.3282 C   0  0  0  0  0  0  0  0  0  0  0  0
   20.5874   -3.9424  -13.0541 O   0  0  0  0  0  0  0  0  0  0  0  0
   22.8053   -4.3020  -12.8866 O   0  0  0  0  0  0  0  0  0  0  0  0
  2  1  1  6
  2  7  1  0
  3  2  1  0
  4  3  1  0
  5  6  2  0
  5  4  1  0
  7 13  1  0
  8  7  2  0
  9  5  1  0
 10 11  1  0
 12 11  1  1
 12 14  1  0
 13 12  1  0
 14 20  1  0
 14 15  2  0
 17 16  1  6
 17 18  1  0
 19 17  1  0
 19 20  1  6
 21 19  1  0
 21 22  1  0
 23 21  2  0
M  END
$$$$
