ESV.pdb
     RDKit          3D

 23 22  0  0  1  0  0  0  0  0999 V2000
   15.2455  -11.5676  -17.3792 N   0  0  0  0  0  0  0  0  0  0  0  0
   15.7517  -10.7505  -16.2959 C   0  0  1  0  0  0  0  0  0  0  0  0
   16.0402  -11.6498  -15.1270 C   0  0  0  0  0  0  0  0  0  0  0  0
   14.8672  -12.3709  -14.5684 C   0  0  0  0  0  0  0  0  0  0  0  0
   15.0427  -13.8182  -14.5017 C   0  0  0  0  0  0  0  0  0  0  0  0
   16.0697  -14.3267  -14.0480 O   0  0  0  0  0  0  0  0  0  0  0  0
   17.0380  -10.0977  -16.6540 C   0  0  0  0  0  0  0  0  0  0  0  0
   17.4080  -10.1871  -17.8511 O   0  0  0  0  0  0  0  0  0  0  0  0
   13.9842  -14.6160  -14.9798 O   0  0  0  0  0  0  0  0  0  0  0  0
   18.7538   -6.3053  -17.3812 O   0  0  0  0  0  0  0  0  0  0  0  0
   17.9718   -7.3899  -16.9984 C   0  0  0  0  0  0  0  0  0  0  0  0
   18.7344   -8.3823  -16.1465 C   0  0  2  0  0  0  0  0  0  0  0  0
   17.8344   -9.3976  -15.7072 N   0  0  0  0  0  0  0  0  0  0  0  0
   19.4614   -7.7191  -15.0373 C   0  0  0  0  0  0  0  0  0  0  0  0
   18.7843   -7.2419  -14.0903 O   0  0  0  0  0  0  0  0  0  0  0  0
   23.6456   -8.1147  -14.7123 C   0  0  0  0  0  0  0  0  0  0  0  0
   22.7536   -8.0606  -13.4816 C   0  0  2  0  0  0  0  0  0  0  0  0
   22.2068   -9.4510  -13.2602 C   0  0  0  0  0  0  0  0  0  0  0  0
   21.5998   -7.1472  -13.8154 C   0  0  2  0  0  0  0  0  0  0  0  0
   20.8615   -7.5863  -14.9710 N   0  0  0  0  0  0  0  0  0  0  0  0
   22.0750   -5.7534  -14.0821 C   0  0  0  0  0  0  0  0  0  0  0  0
   22.5741   -4.9426  -13.0599 O   0  0  0  0  0  0  0  0  0  0  0  0
   22.0514   -5.2392  -15.2315 O   0  0  0  0  0  0  0  0  0  0  0  0
  2  1  1  6
  2  7  1  0
  3  2  1  0
  4  3  1  0
  5  6  2  0
  5  4  1  0
  7 13  1  0
  8  7  2  0
  9  5  1  0
 10 11  1  0
 12 11  1  1
 12 14  1  0
 13 12  1  0
 14 20  1  0
 14 15  2  0
 17 16  1  6
 17 18  1  0
 19 17  1  0
 19 20  1  6
 21 19  1  0
 21 22  1  0
 23 21  2  0
M  END
$$$$
