ESV.pdb
     RDKit          3D

 23 22  0  0  1  0  0  0  0  0999 V2000
   16.6059  -12.4034  -18.4589 N   0  0  0  0  0  0  0  0  0  0  0  0
   16.6462  -11.9367  -17.0884 C   0  0  1  0  0  0  0  0  0  0  0  0
   16.8147  -13.1311  -16.1922 C   0  0  0  0  0  0  0  0  0  0  0  0
   15.6981  -14.1112  -16.2139 C   0  0  0  0  0  0  0  0  0  0  0  0
   15.9108  -15.2655  -15.3466 C   0  0  0  0  0  0  0  0  0  0  0  0
   16.3067  -16.3453  -15.7897 O   0  0  0  0  0  0  0  0  0  0  0  0
   17.8172  -11.0551  -16.8418 C   0  0  0  0  0  0  0  0  0  0  0  0
   18.3246  -11.0905  -15.6933 O   0  0  0  0  0  0  0  0  0  0  0  0
   15.6436  -15.0949  -13.9737 O   0  0  0  0  0  0  0  0  0  0  0  0
   21.1729   -8.0563  -18.6826 O   0  0  0  0  0  0  0  0  0  0  0  0
   20.0194   -8.8132  -18.8586 C   0  0  0  0  0  0  0  0  0  0  0  0
   19.5490   -9.4601  -17.5732 C   0  0  2  0  0  0  0  0  0  0  0  0
   18.3598  -10.2008  -17.8401 N   0  0  0  0  0  0  0  0  0  0  0  0
   19.3944   -8.4722  -16.4782 C   0  0  0  0  0  0  0  0  0  0  0  0
   18.3135   -7.8321  -16.4095 O   0  0  0  0  0  0  0  0  0  0  0  0
   21.8760   -8.4940  -13.1360 C   0  0  0  0  0  0  0  0  0  0  0  0
   20.5023   -7.8432  -13.0825 C   0  0  2  0  0  0  0  0  0  0  0  0
   19.4916   -8.9426  -12.8573 C   0  0  0  0  0  0  0  0  0  0  0  0
   20.2489   -7.2401  -14.4424 C   0  0  2  0  0  0  0  0  0  0  0  0
   20.3773   -8.2006  -15.5073 N   0  0  0  0  0  0  0  0  0  0  0  0
   21.2021   -6.1209  -14.7222 C   0  0  0  0  0  0  0  0  0  0  0  0
   22.1271   -6.1918  -15.7667 O   0  0  0  0  0  0  0  0  0  0  0  0
   21.2231   -5.0635  -14.0385 O   0  0  0  0  0  0  0  0  0  0  0  0
  2  1  1  6
  2  7  1  0
  3  2  1  0
  4  3  1  0
  5  6  2  0
  5  4  1  0
  7 13  1  0
  8  7  2  0
  9  5  1  0
 10 11  1  0
 12 11  1  6
 12 14  1  0
 13 12  1  0
 14 20  1  0
 14 15  2  0
 17 16  1  6
 17 18  1  0
 19 17  1  0
 19 20  1  6
 21 19  1  0
 21 22  1  0
 23 21  2  0
M  END
$$$$
