GNF.pdb
     RDKit          3D

 24 24  0  0  1  0  0  0  0  0999 V2000
   16.6307   -9.5325  -20.1833 N   0  0  0  0  0  0  0  0  0  0  0  0
   17.3301  -10.6510  -19.6199 C   0  0  0  0  0  0  0  0  0  0  0  0
   17.6265  -10.5169  -18.1707 C   0  0  0  0  0  0  0  0  0  0  0  0
   16.8095  -11.0190  -17.3479 O   0  0  0  0  0  0  0  0  0  0  0  0
   17.1110  -11.6459  -15.1161 N   0  0  0  0  0  0  0  0  0  0  0  0
   18.4907  -11.4735  -14.7857 C   0  0  0  0  0  0  0  0  0  0  0  0
   18.8609  -11.6172  -13.5729 O   0  0  0  0  0  0  0  0  0  0  0  0
   19.4811  -11.1319  -15.8307 C   0  0  0  0  0  0  0  0  0  0  0  0
   19.2058   -9.7859  -16.4088 C   0  0  2  0  0  0  0  0  0  0  0  0
   18.8092   -9.8347  -17.7917 N   0  0  0  0  0  0  0  0  0  0  0  0
   20.3662   -8.8964  -16.1755 C   0  0  0  0  0  0  0  0  0  0  0  0
   21.4962   -9.2250  -16.6773 O   0  0  0  0  0  0  0  0  0  0  0  0
   20.2129   -7.7165  -15.4145 N   0  0  0  0  0  0  0  0  0  0  0  0
   21.2775   -6.7114  -15.4924 C   0  0  1  0  0  0  0  0  0  0  0  0
   21.0167   -5.7465  -16.6000 C   0  0  0  0  0  0  0  0  0  0  0  0
   22.0060   -4.6626  -16.5962 C   0  0  0  0  0  0  0  0  0  0  0  0
   23.2962   -4.8796  -17.0594 C   0  0  0  0  0  0  0  0  0  0  0  0
   24.2294   -3.8651  -17.0862 C   0  0  0  0  0  0  0  0  0  0  0  0
   23.9093   -2.5838  -16.6490 C   0  0  0  0  0  0  0  0  0  0  0  0
   22.6352   -2.3638  -16.1909 C   0  0  0  0  0  0  0  0  0  0  0  0
   21.7026   -3.3915  -16.1677 C   0  0  0  0  0  0  0  0  0  0  0  0
   21.3050   -6.0277  -14.1906 C   0  0  0  0  0  0  0  0  0  0  0  0
   20.3226   -6.1924  -13.2472 O   0  0  0  0  0  0  0  0  0  0  0  0
   22.2514   -5.2571  -13.9036 O   0  0  0  0  0  0  0  0  0  0  0  0
  2  1  1  0
  3  2  1  0
  4  3  2  0
  6  5  1  0
  7  6  2  0
  9  8  1  6
  8  6  1  0
  9 10  1  0
 10  3  1  0
 11  9  1  0
 11 12  2  0
 13 11  1  0
 14 13  1  0
 14 15  1  6
 16 21  2  0
 16 15  1  0
 17 16  1  0
 18 19  1  0
 18 17  2  0
 19 20  2  0
 20 21  1  0
 22 14  1  0
 23 22  1  0
 24 22  2  0
M  END
$$$$
