GNF.pdb
     RDKit          3D

 24 24  0  0  1  0  0  0  0  0999 V2000
   23.8599  -18.2180  -14.4968 N   0  0  0  0  0  0  0  0  0  0  0  0
   23.7455  -18.8457  -13.2121 C   0  0  0  0  0  0  0  0  0  0  0  0
   24.6861  -19.9755  -13.0001 C   0  0  0  0  0  0  0  0  0  0  0  0
   24.2884  -21.1411  -13.2828 O   0  0  0  0  0  0  0  0  0  0  0  0
   28.3429  -18.4867  -14.6021 N   0  0  0  0  0  0  0  0  0  0  0  0
   28.0320  -19.8574  -14.3438 C   0  0  0  0  0  0  0  0  0  0  0  0
   27.5643  -20.5763  -15.2888 O   0  0  0  0  0  0  0  0  0  0  0  0
   28.2461  -20.4409  -13.0009 C   0  0  0  0  0  0  0  0  0  0  0  0
   26.9467  -20.7346  -12.3322 C   0  0  2  0  0  0  0  0  0  0  0  0
   25.9770  -19.6832  -12.4941 N   0  0  0  0  0  0  0  0  0  0  0  0
   27.1841  -21.0831  -10.9129 C   0  0  0  0  0  0  0  0  0  0  0  0
   28.3779  -21.3593  -10.5450 O   0  0  0  0  0  0  0  0  0  0  0  0
   26.1075  -21.1055   -9.9991 N   0  0  0  0  0  0  0  0  0  0  0  0
   26.4142  -20.9107   -8.5786 C   0  0  1  0  0  0  0  0  0  0  0  0
   27.2939  -19.7217   -8.3836 C   0  0  0  0  0  0  0  0  0  0  0  0
   27.8354  -19.6867   -7.0202 C   0  0  0  0  0  0  0  0  0  0  0  0
   27.4490  -18.6946   -6.1298 C   0  0  0  0  0  0  0  0  0  0  0  0
   27.9291  -18.6631   -4.8378 C   0  0  0  0  0  0  0  0  0  0  0  0
   28.8202  -19.6280   -4.3795 C   0  0  0  0  0  0  0  0  0  0  0  0
   29.2048  -20.6112   -5.2552 C   0  0  0  0  0  0  0  0  0  0  0  0
   28.7161  -20.6346   -6.5542 C   0  0  0  0  0  0  0  0  0  0  0  0
   25.1260  -20.7341   -7.8917 C   0  0  0  0  0  0  0  0  0  0  0  0
   24.9027  -21.1763   -6.6122 O   0  0  0  0  0  0  0  0  0  0  0  0
   24.1750  -20.1606   -8.4736 O   0  0  0  0  0  0  0  0  0  0  0  0
  2  1  1  0
  3  2  1  0
  4  3  2  0
  6  5  1  0
  7  6  2  0
  9  8  1  1
  8  6  1  0
  9 10  1  0
 10  3  1  0
 11  9  1  0
 11 12  2  0
 13 11  1  0
 14 13  1  0
 14 15  1  6
 16 21  2  0
 16 15  1  0
 17 16  1  0
 18 19  1  0
 18 17  2  0
 19 20  2  0
 20 21  1  0
 22 14  1  0
 23 22  1  0
 24 22  2  0
M  END
$$$$
