GNF.pdb
     RDKit          3D

 24 24  0  0  1  0  0  0  0  0999 V2000
   45.6748  -10.4626   -6.1869 N   0  0  0  0  0  0  0  0  0  0  0  0
   44.8583   -9.8287   -5.1923 C   0  0  0  0  0  0  0  0  0  0  0  0
   44.3550   -8.4867   -5.5821 C   0  0  0  0  0  0  0  0  0  0  0  0
   43.5508   -7.9036   -4.8012 O   0  0  0  0  0  0  0  0  0  0  0  0
   47.7716   -5.6201   -8.3403 N   0  0  0  0  0  0  0  0  0  0  0  0
   46.5248   -5.4840   -7.6552 C   0  0  0  0  0  0  0  0  0  0  0  0
   46.5003   -4.8977   -6.5220 O   0  0  0  0  0  0  0  0  0  0  0  0
   45.2761   -6.0145   -8.2458 C   0  0  0  0  0  0  0  0  0  0  0  0
   44.3997   -6.6102   -7.1975 C   0  0  2  0  0  0  0  0  0  0  0  0
   44.8054   -7.9350   -6.8070 N   0  0  0  0  0  0  0  0  0  0  0  0
   42.9865   -6.5482   -7.6348 C   0  0  0  0  0  0  0  0  0  0  0  0
   42.5499   -7.4625   -8.4160 O   0  0  0  0  0  0  0  0  0  0  0  0
   42.1530   -5.4979   -7.1914 N   0  0  0  0  0  0  0  0  0  0  0  0
   40.7270   -5.5715   -7.5246 C   0  0  1  0  0  0  0  0  0  0  0  0
   40.0136   -6.5022   -6.6023 C   0  0  0  0  0  0  0  0  0  0  0  0
   38.5793   -6.5490   -6.9092 C   0  0  0  0  0  0  0  0  0  0  0  0
   38.0929   -7.3980   -7.8936 C   0  0  0  0  0  0  0  0  0  0  0  0
   36.7455   -7.4720   -8.1758 C   0  0  0  0  0  0  0  0  0  0  0  0
   35.8230   -6.6963   -7.4813 C   0  0  0  0  0  0  0  0  0  0  0  0
   36.2984   -5.8560   -6.5069 C   0  0  0  0  0  0  0  0  0  0  0  0
   37.6568   -5.7882   -6.2298 C   0  0  0  0  0  0  0  0  0  0  0  0
   40.1982   -4.2041   -7.4097 C   0  0  0  0  0  0  0  0  0  0  0  0
   39.1127   -3.7676   -8.1264 O   0  0  0  0  0  0  0  0  0  0  0  0
   40.7407   -3.3819   -6.6340 O   0  0  0  0  0  0  0  0  0  0  0  0
  2  1  1  0
  3  2  1  0
  4  3  2  0
  6  5  1  0
  7  6  2  0
  9  8  1  6
  8  6  1  0
  9 10  1  0
 10  3  1  0
 11  9  1  0
 11 12  2  0
 13 11  1  0
 14 13  1  0
 14 15  1  1
 16 21  2  0
 16 15  1  0
 17 16  1  0
 18 19  1  0
 18 17  2  0
 19 20  2  0
 20 21  1  0
 22 14  1  0
 23 22  1  0
 24 22  2  0
M  END
$$$$
