GNF.pdb
     RDKit          3D

 24 24  0  0  1  0  0  0  0  0999 V2000
   22.5094  -19.1029  -12.0087 N   0  0  0  0  0  0  0  0  0  0  0  0
   22.6460  -20.3351  -12.7302 C   0  0  0  0  0  0  0  0  0  0  0  0
   23.8928  -21.0834  -12.4273 C   0  0  0  0  0  0  0  0  0  0  0  0
   23.8103  -22.3331  -12.2601 O   0  0  0  0  0  0  0  0  0  0  0  0
   26.2325  -21.7896  -14.8633 N   0  0  0  0  0  0  0  0  0  0  0  0
   27.2792  -20.8943  -14.4825 C   0  0  0  0  0  0  0  0  0  0  0  0
   28.0821  -20.4627  -15.3757 O   0  0  0  0  0  0  0  0  0  0  0  0
   27.4362  -20.4708  -13.0734 C   0  0  0  0  0  0  0  0  0  0  0  0
   26.3602  -21.0480  -12.2185 C   0  0  2  0  0  0  0  0  0  0  0  0
   25.1051  -20.3544  -12.3440 N   0  0  0  0  0  0  0  0  0  0  0  0
   26.8300  -21.1355  -10.8171 C   0  0  0  0  0  0  0  0  0  0  0  0
   27.8063  -21.9179  -10.5498 O   0  0  0  0  0  0  0  0  0  0  0  0
   26.2046  -20.3670   -9.8108 N   0  0  0  0  0  0  0  0  0  0  0  0
   26.6543  -20.5577   -8.4283 C   0  0  1  0  0  0  0  0  0  0  0  0
   27.4301  -19.3747   -7.9544 C   0  0  0  0  0  0  0  0  0  0  0  0
   27.8997  -19.5715   -6.5781 C   0  0  0  0  0  0  0  0  0  0  0  0
   27.4290  -18.7697   -5.5476 C   0  0  0  0  0  0  0  0  0  0  0  0
   27.8411  -18.9587   -4.2456 C   0  0  0  0  0  0  0  0  0  0  0  0
   28.7457  -19.9634   -3.9178 C   0  0  0  0  0  0  0  0  0  0  0  0
   29.2134  -20.7592   -4.9324 C   0  0  0  0  0  0  0  0  0  0  0  0
   28.7928  -20.5612   -6.2403 C   0  0  0  0  0  0  0  0  0  0  0  0
   25.4439  -20.7562   -7.6170 C   0  0  0  0  0  0  0  0  0  0  0  0
   25.4688  -21.3626   -6.3865 O   0  0  0  0  0  0  0  0  0  0  0  0
   24.3302  -20.3665   -8.0411 O   0  0  0  0  0  0  0  0  0  0  0  0
  2  1  1  0
  3  2  1  0
  4  3  2  0
  6  5  1  0
  7  6  2  0
  9  8  1  6
  8  6  1  0
  9 10  1  0
 10  3  1  0
 11  9  1  0
 11 12  2  0
 13 11  1  0
 14 13  1  0
 14 15  1  1
 16 21  2  0
 16 15  1  0
 17 16  1  0
 18 19  1  0
 18 17  2  0
 19 20  2  0
 20 21  1  0
 22 14  1  0
 23 22  1  0
 24 22  2  0
M  END
$$$$
