GNF.pdb
     RDKit          3D

 24 24  0  0  1  0  0  0  0  0999 V2000
   21.8585  -12.2477  -17.3165 N   0  0  0  0  0  0  0  0  0  0  0  0
   22.5975  -11.6695  -18.4015 C   0  0  0  0  0  0  0  0  0  0  0  0
   22.3609  -10.2158  -18.5934 C   0  0  0  0  0  0  0  0  0  0  0  0
   23.1937   -9.5642  -19.2852 O   0  0  0  0  0  0  0  0  0  0  0  0
   20.0402   -6.0815  -20.4759 N   0  0  0  0  0  0  0  0  0  0  0  0
   19.4005   -6.6597  -19.3363 C   0  0  0  0  0  0  0  0  0  0  0  0
   18.6378   -5.9319  -18.6172 O   0  0  0  0  0  0  0  0  0  0  0  0
   19.6164   -8.0817  -18.9889 C   0  0  0  0  0  0  0  0  0  0  0  0
   20.8865   -8.2597  -18.2291 C   0  0  2  0  0  0  0  0  0  0  0  0
   21.2142   -9.6411  -17.9912 N   0  0  0  0  0  0  0  0  0  0  0  0
   20.8396   -7.4583  -16.9850 C   0  0  0  0  0  0  0  0  0  0  0  0
   20.0261   -7.8119  -16.0630 O   0  0  0  0  0  0  0  0  0  0  0  0
   21.6794   -6.3329  -16.8350 N   0  0  0  0  0  0  0  0  0  0  0  0
   21.7335   -5.6928  -15.5170 C   0  0  1  0  0  0  0  0  0  0  0  0
   23.0958   -5.8178  -14.9216 C   0  0  0  0  0  0  0  0  0  0  0  0
   23.4420   -7.2254  -14.6928 C   0  0  0  0  0  0  0  0  0  0  0  0
   24.4351   -7.8413  -15.4417 C   0  0  0  0  0  0  0  0  0  0  0  0
   24.7894   -9.1553  -15.2214 C   0  0  0  0  0  0  0  0  0  0  0  0
   24.1623   -9.9123  -14.2371 C   0  0  0  0  0  0  0  0  0  0  0  0
   23.1806   -9.3082  -13.4936 C   0  0  0  0  0  0  0  0  0  0  0  0
   22.8306   -7.9847  -13.7228 C   0  0  0  0  0  0  0  0  0  0  0  0
   21.3725   -4.2819  -15.7207 C   0  0  0  0  0  0  0  0  0  0  0  0
   21.2084   -3.4022  -14.6806 O   0  0  0  0  0  0  0  0  0  0  0  0
   21.2007   -3.8365  -16.8800 O   0  0  0  0  0  0  0  0  0  0  0  0
  2  1  1  0
  3  2  1  0
  4  3  2  0
  6  5  1  0
  7  6  2  0
  9  8  1  1
  8  6  1  0
  9 10  1  0
 10  3  1  0
 11  9  1  0
 11 12  2  0
 13 11  1  0
 14 13  1  0
 14 15  1  6
 16 21  2  0
 16 15  1  0
 17 16  1  0
 18 19  1  0
 18 17  2  0
 19 20  2  0
 20 21  1  0
 22 14  1  0
 23 22  1  0
 24 22  2  0
M  END
$$$$
