GNF.pdb
     RDKit          3D

 24 24  0  0  1  0  0  0  0  0999 V2000
   26.7715  -16.0627  -14.0678 N   0  0  0  0  0  0  0  0  0  0  0  0
   27.3514  -17.3194  -13.6910 C   0  0  0  0  0  0  0  0  0  0  0  0
   26.3587  -18.3786  -13.3766 C   0  0  0  0  0  0  0  0  0  0  0  0
   25.4106  -18.5652  -14.1907 O   0  0  0  0  0  0  0  0  0  0  0  0
   25.1196  -21.5357  -14.4157 N   0  0  0  0  0  0  0  0  0  0  0  0
   26.5372  -21.7063  -14.3566 C   0  0  0  0  0  0  0  0  0  0  0  0
   27.1312  -22.3014  -15.3166 O   0  0  0  0  0  0  0  0  0  0  0  0
   27.3115  -21.2031  -13.2003 C   0  0  0  0  0  0  0  0  0  0  0  0
   26.4171  -20.5561  -12.1986 C   0  0  2  0  0  0  0  0  0  0  0  0
   26.5310  -19.1212  -12.1822 N   0  0  0  0  0  0  0  0  0  0  0  0
   26.6374  -21.1648  -10.8670 C   0  0  0  0  0  0  0  0  0  0  0  0
   27.6695  -21.9014  -10.6972 O   0  0  0  0  0  0  0  0  0  0  0  0
   25.7204  -20.9281   -9.8193 N   0  0  0  0  0  0  0  0  0  0  0  0
   26.2389  -20.9197   -8.4478 C   0  0  1  0  0  0  0  0  0  0  0  0
   26.9308  -19.6320   -8.1497 C   0  0  0  0  0  0  0  0  0  0  0  0
   27.4680  -19.6281   -6.7841 C   0  0  0  0  0  0  0  0  0  0  0  0
   28.1377  -18.5176   -6.2895 C   0  0  0  0  0  0  0  0  0  0  0  0
   28.6257  -18.4889   -5.0004 C   0  0  0  0  0  0  0  0  0  0  0  0
   28.4629  -19.5755   -4.1471 C   0  0  0  0  0  0  0  0  0  0  0  0
   27.8011  -20.6753   -4.6307 C   0  0  0  0  0  0  0  0  0  0  0  0
   27.3134  -20.6949   -5.9301 C   0  0  0  0  0  0  0  0  0  0  0  0
   25.0826  -21.1167   -7.5609 C   0  0  0  0  0  0  0  0  0  0  0  0
   23.7906  -20.9039   -7.9707 O   0  0  0  0  0  0  0  0  0  0  0  0
   25.2533  -21.4934   -6.3773 O   0  0  0  0  0  0  0  0  0  0  0  0
  2  1  1  0
  3  2  1  0
  4  3  2  0
  6  5  1  0
  7  6  2  0
  9  8  1  6
  8  6  1  0
  9 10  1  0
 10  3  1  0
 11  9  1  0
 11 12  2  0
 13 11  1  0
 14 13  1  0
 14 15  1  1
 16 21  2  0
 16 15  1  0
 17 16  1  0
 18 19  1  0
 18 17  2  0
 19 20  2  0
 20 21  1  0
 22 14  1  0
 23 22  1  0
 24 22  2  0
M  END
$$$$
