GNF.pdb
     RDKit          3D

 24 24  0  0  1  0  0  0  0  0999 V2000
   17.9151  -12.4720  -16.1120 N   0  0  0  0  0  0  0  0  0  0  0  0
   17.8605  -11.3282  -15.2480 C   0  0  0  0  0  0  0  0  0  0  0  0
   18.6465  -10.1633  -15.7290 C   0  0  0  0  0  0  0  0  0  0  0  0
   19.9036  -10.2772  -15.7862 O   0  0  0  0  0  0  0  0  0  0  0  0
   16.3933   -7.9041  -19.3829 N   0  0  0  0  0  0  0  0  0  0  0  0
   17.6952   -7.7467  -18.8150 C   0  0  0  0  0  0  0  0  0  0  0  0
   18.7011   -8.2460  -19.4213 O   0  0  0  0  0  0  0  0  0  0  0  0
   17.8810   -7.0170  -17.5412 C   0  0  0  0  0  0  0  0  0  0  0  0
   18.6594   -7.8327  -16.5662 C   0  0  2  0  0  0  0  0  0  0  0  0
   17.9429   -8.9900  -16.0978 N   0  0  0  0  0  0  0  0  0  0  0  0
   19.1380   -6.9686  -15.4633 C   0  0  0  0  0  0  0  0  0  0  0  0
   18.3020   -6.6103  -14.5636 O   0  0  0  0  0  0  0  0  0  0  0  0
   20.4886   -6.5582  -15.4197 N   0  0  0  0  0  0  0  0  0  0  0  0
   20.9034   -5.6935  -14.3106 C   0  0  1  0  0  0  0  0  0  0  0  0
   21.7496   -6.4457  -13.3389 C   0  0  0  0  0  0  0  0  0  0  0  0
   22.6855   -7.3353  -14.0361 C   0  0  0  0  0  0  0  0  0  0  0  0
   22.6053   -8.7119  -13.8780 C   0  0  0  0  0  0  0  0  0  0  0  0
   23.4608   -9.5621  -14.5459 C   0  0  0  0  0  0  0  0  0  0  0  0
   24.4372   -9.0686  -15.4050 C   0  0  0  0  0  0  0  0  0  0  0  0
   24.5203   -7.7088  -15.5654 C   0  0  0  0  0  0  0  0  0  0  0  0
   23.6547   -6.8607  -14.8886 C   0  0  0  0  0  0  0  0  0  0  0  0
   21.6493   -4.5751  -14.9068 C   0  0  0  0  0  0  0  0  0  0  0  0
   21.9078   -4.4911  -16.2516 O   0  0  0  0  0  0  0  0  0  0  0  0
   22.0790   -3.6468  -14.1818 O   0  0  0  0  0  0  0  0  0  0  0  0
  2  1  1  0
  3  2  1  0
  4  3  2  0
  6  5  1  0
  7  6  2  0
  9  8  1  6
  8  6  1  0
  9 10  1  0
 10  3  1  0
 11  9  1  0
 11 12  2  0
 13 11  1  0
 14 13  1  0
 14 15  1  1
 16 21  2  0
 16 15  1  0
 17 16  1  0
 18 19  1  0
 18 17  2  0
 19 20  2  0
 20 21  1  0
 22 14  1  0
 23 22  1  0
 24 22  2  0
M  END
$$$$
