GNF.pdb
     RDKit          3D

 24 24  0  0  1  0  0  0  0  0999 V2000
   29.2602  -23.2494  -16.6248 N   0  0  0  0  0  0  0  0  0  0  0  0
   28.2280  -22.2535  -16.6031 C   0  0  0  0  0  0  0  0  0  0  0  0
   28.1656  -21.4681  -15.3440 C   0  0  0  0  0  0  0  0  0  0  0  0
   28.8777  -21.8468  -14.3713 O   0  0  0  0  0  0  0  0  0  0  0  0
   28.7093  -18.0801  -15.6175 N   0  0  0  0  0  0  0  0  0  0  0  0
   27.5233  -17.4778  -15.0952 C   0  0  0  0  0  0  0  0  0  0  0  0
   27.2750  -16.2565  -15.3696 O   0  0  0  0  0  0  0  0  0  0  0  0
   26.5925  -18.2539  -14.2461 C   0  0  0  0  0  0  0  0  0  0  0  0
   27.0765  -19.6515  -14.0609 C   0  0  2  0  0  0  0  0  0  0  0  0
   27.3122  -20.3377  -15.3042 N   0  0  0  0  0  0  0  0  0  0  0  0
   26.1519  -20.3849  -13.1668 C   0  0  0  0  0  0  0  0  0  0  0  0
   25.1078  -20.9200  -13.6768 O   0  0  0  0  0  0  0  0  0  0  0  0
   26.4301  -20.4823  -11.7856 N   0  0  0  0  0  0  0  0  0  0  0  0
   25.5118  -21.2713  -10.9587 C   0  0  1  0  0  0  0  0  0  0  0  0
   26.2469  -21.9602   -9.8583 C   0  0  0  0  0  0  0  0  0  0  0  0
   26.8698  -20.9875   -8.9532 C   0  0  0  0  0  0  0  0  0  0  0  0
   26.0914  -20.1938   -8.1221 C   0  0  0  0  0  0  0  0  0  0  0  0
   26.6627  -19.2936   -7.2480 C   0  0  0  0  0  0  0  0  0  0  0  0
   28.0440  -19.1491   -7.1677 C   0  0  0  0  0  0  0  0  0  0  0  0
   28.8179  -19.9315   -7.9864 C   0  0  0  0  0  0  0  0  0  0  0  0
   28.2336  -20.8350   -8.8633 C   0  0  0  0  0  0  0  0  0  0  0  0
   24.5167  -20.3307  -10.4224 C   0  0  0  0  0  0  0  0  0  0  0  0
   23.3383  -20.7441   -9.8541 O   0  0  0  0  0  0  0  0  0  0  0  0
   24.7258  -19.0956  -10.4730 O   0  0  0  0  0  0  0  0  0  0  0  0
  2  1  1  0
  3  2  1  0
  4  3  2  0
  6  5  1  0
  7  6  2  0
  9  8  1  6
  8  6  1  0
  9 10  1  0
 10  3  1  0
 11  9  1  0
 11 12  2  0
 13 11  1  0
 14 13  1  0
 14 15  1  1
 16 21  2  0
 16 15  1  0
 17 16  1  0
 18 19  1  0
 18 17  2  0
 19 20  2  0
 20 21  1  0
 22 14  1  0
 23 22  1  0
 24 22  2  0
M  END
$$$$
