GNF.pdb
     RDKit          3D

 24 24  0  0  1  0  0  0  0  0999 V2000
   19.8803  -21.3718  -13.9666 N   0  0  0  0  0  0  0  0  0  0  0  0
   21.1573  -20.7548  -14.1814 C   0  0  0  0  0  0  0  0  0  0  0  0
   22.2059  -21.1725  -13.2160 C   0  0  0  0  0  0  0  0  0  0  0  0
   22.0083  -20.9457  -11.9887 O   0  0  0  0  0  0  0  0  0  0  0  0
   24.4827  -24.8428  -15.1762 N   0  0  0  0  0  0  0  0  0  0  0  0
   24.5219  -24.4303  -13.8085 C   0  0  0  0  0  0  0  0  0  0  0  0
   23.8627  -25.0946  -12.9409 O   0  0  0  0  0  0  0  0  0  0  0  0
   25.3130  -23.2492  -13.3977 C   0  0  0  0  0  0  0  0  0  0  0  0
   24.4332  -22.1857  -12.8348 C   0  0  2  0  0  0  0  0  0  0  0  0
   23.3685  -21.8029  -13.7247 N   0  0  0  0  0  0  0  0  0  0  0  0
   25.2578  -21.0360  -12.3983 C   0  0  0  0  0  0  0  0  0  0  0  0
   25.5130  -20.1126  -13.2462 O   0  0  0  0  0  0  0  0  0  0  0  0
   25.7436  -20.9749  -11.0736 N   0  0  0  0  0  0  0  0  0  0  0  0
   26.6586  -19.8812  -10.7323 C   0  0  1  0  0  0  0  0  0  0  0  0
   26.1536  -19.1140   -9.5566 C   0  0  0  0  0  0  0  0  0  0  0  0
   26.7902  -19.5735   -8.3168 C   0  0  0  0  0  0  0  0  0  0  0  0
   27.9408  -18.9595   -7.8416 C   0  0  0  0  0  0  0  0  0  0  0  0
   28.5360  -19.3629   -6.6653 C   0  0  0  0  0  0  0  0  0  0  0  0
   28.0023  -20.4023   -5.9104 C   0  0  0  0  0  0  0  0  0  0  0  0
   26.8648  -21.0120   -6.3752 C   0  0  0  0  0  0  0  0  0  0  0  0
   26.2727  -20.5990   -7.5607 C   0  0  0  0  0  0  0  0  0  0  0  0
   27.9609  -20.4991  -10.4412 C   0  0  0  0  0  0  0  0  0  0  0  0
   29.1512  -19.8473  -10.6433 O   0  0  0  0  0  0  0  0  0  0  0  0
   28.0171  -21.6674   -9.9897 O   0  0  0  0  0  0  0  0  0  0  0  0
  2  1  1  0
  3  2  1  0
  4  3  2  0
  6  5  1  0
  7  6  2  0
  9  8  1  6
  8  6  1  0
  9 10  1  0
 10  3  1  0
 11  9  1  0
 11 12  2  0
 13 11  1  0
 14 13  1  0
 14 15  1  1
 16 21  2  0
 16 15  1  0
 17 16  1  0
 18 19  1  0
 18 17  2  0
 19 20  2  0
 20 21  1  0
 22 14  1  0
 23 22  1  0
 24 22  2  0
M  END
$$$$
