GNF.pdb
     RDKit          3D

 24 24  0  0  1  0  0  0  0  0999 V2000
   17.5224  -12.7787  -15.2978 N   0  0  0  0  0  0  0  0  0  0  0  0
   17.2879  -11.4822  -15.8650 C   0  0  0  0  0  0  0  0  0  0  0  0
   18.5082  -10.8165  -16.3884 C   0  0  0  0  0  0  0  0  0  0  0  0
   19.4966  -11.5420  -16.6937 O   0  0  0  0  0  0  0  0  0  0  0  0
   21.7303   -8.5785  -19.6625 N   0  0  0  0  0  0  0  0  0  0  0  0
   20.7127   -7.7797  -19.0554 C   0  0  0  0  0  0  0  0  0  0  0  0
   20.8772   -6.5164  -18.9814 O   0  0  0  0  0  0  0  0  0  0  0  0
   19.4833   -8.4029  -18.5170 C   0  0  0  0  0  0  0  0  0  0  0  0
   19.6340   -8.7180  -17.0679 C   0  0  2  0  0  0  0  0  0  0  0  0
   18.4954   -9.4055  -16.5174 N   0  0  0  0  0  0  0  0  0  0  0  0
   19.9759   -7.4852  -16.3226 C   0  0  0  0  0  0  0  0  0  0  0  0
   19.0309   -6.6830  -16.0062 O   0  0  0  0  0  0  0  0  0  0  0  0
   21.3183   -7.2157  -15.9766 N   0  0  0  0  0  0  0  0  0  0  0  0
   21.5761   -6.0988  -15.0623 C   0  0  1  0  0  0  0  0  0  0  0  0
   22.5044   -6.5108  -13.9694 C   0  0  0  0  0  0  0  0  0  0  0  0
   23.4928   -7.4797  -14.4571 C   0  0  0  0  0  0  0  0  0  0  0  0
   24.4820   -7.0935  -15.3509 C   0  0  0  0  0  0  0  0  0  0  0  0
   25.4330   -7.9857  -15.7984 C   0  0  0  0  0  0  0  0  0  0  0  0
   25.4350   -9.3085  -15.3680 C   0  0  0  0  0  0  0  0  0  0  0  0
   24.4599   -9.6952  -14.4841 C   0  0  0  0  0  0  0  0  0  0  0  0
   23.5065   -8.7898  -14.0392 C   0  0  0  0  0  0  0  0  0  0  0  0
   22.1591   -5.0191  -15.8728 C   0  0  0  0  0  0  0  0  0  0  0  0
   22.5079   -5.1873  -17.1890 O   0  0  0  0  0  0  0  0  0  0  0  0
   22.3574   -3.8889  -15.3676 O   0  0  0  0  0  0  0  0  0  0  0  0
  2  1  1  0
  3  2  1  0
  4  3  2  0
  6  5  1  0
  7  6  2  0
  9  8  1  6
  8  6  1  0
  9 10  1  0
 10  3  1  0
 11  9  1  0
 11 12  2  0
 13 11  1  0
 14 13  1  0
 14 15  1  1
 16 21  2  0
 16 15  1  0
 17 16  1  0
 18 19  1  0
 18 17  2  0
 19 20  2  0
 20 21  1  0
 22 14  1  0
 23 22  1  0
 24 22  2  0
M  END
$$$$
