GNF.pdb
     RDKit          3D

 24 24  0  0  1  0  0  0  0  0999 V2000
   28.7868  -22.5868  -17.9549 N   0  0  0  0  0  0  0  0  0  0  0  0
   27.5570  -22.5813  -17.2165 C   0  0  0  0  0  0  0  0  0  0  0  0
   27.6536  -21.9471  -15.8769 C   0  0  0  0  0  0  0  0  0  0  0  0
   28.3848  -22.5013  -15.0081 O   0  0  0  0  0  0  0  0  0  0  0  0
   29.1847  -18.1617  -15.2429 N   0  0  0  0  0  0  0  0  0  0  0  0
   27.7755  -18.0237  -15.4364 C   0  0  0  0  0  0  0  0  0  0  0  0
   27.3487  -17.3820  -16.4536 O   0  0  0  0  0  0  0  0  0  0  0  0
   26.8191  -18.6133  -14.4735 C   0  0  0  0  0  0  0  0  0  0  0  0
   27.0012  -20.0895  -14.3747 C   0  0  2  0  0  0  0  0  0  0  0  0
   26.9216  -20.7555  -15.6483 N   0  0  0  0  0  0  0  0  0  0  0  0
   26.0568  -20.6426  -13.3775 C   0  0  0  0  0  0  0  0  0  0  0  0
   24.8758  -20.9496  -13.7619 O   0  0  0  0  0  0  0  0  0  0  0  0
   26.4654  -20.8211  -12.0375 N   0  0  0  0  0  0  0  0  0  0  0  0
   25.5460  -21.5154  -11.1306 C   0  0  1  0  0  0  0  0  0  0  0  0
   26.2827  -22.0988   -9.9719 C   0  0  0  0  0  0  0  0  0  0  0  0
   26.9313  -21.0480   -9.1789 C   0  0  0  0  0  0  0  0  0  0  0  0
   26.1901  -20.0005   -8.6499 C   0  0  0  0  0  0  0  0  0  0  0  0
   26.7804  -19.0197   -7.8816 C   0  0  0  0  0  0  0  0  0  0  0  0
   28.1441  -19.0460   -7.6081 C   0  0  0  0  0  0  0  0  0  0  0  0
   28.8812  -20.0795   -8.1279 C   0  0  0  0  0  0  0  0  0  0  0  0
   28.2779  -21.0623   -8.9005 C   0  0  0  0  0  0  0  0  0  0  0  0
   24.5632  -20.5167  -10.6842 C   0  0  0  0  0  0  0  0  0  0  0  0
   24.7236  -19.1716  -10.9018 O   0  0  0  0  0  0  0  0  0  0  0  0
   23.5276  -20.8793  -10.0774 O   0  0  0  0  0  0  0  0  0  0  0  0
  2  1  1  0
  3  2  1  0
  4  3  2  0
  6  5  1  0
  7  6  2  0
  9  8  1  6
  8  6  1  0
  9 10  1  0
 10  3  1  0
 11  9  1  0
 11 12  2  0
 13 11  1  0
 14 13  1  0
 14 15  1  1
 16 21  2  0
 16 15  1  0
 17 16  1  0
 18 19  1  0
 18 17  2  0
 19 20  2  0
 20 21  1  0
 22 14  1  0
 23 22  1  0
 24 22  2  0
M  END
$$$$
