GNF.pdb
     RDKit          3D

 24 24  0  0  1  0  0  0  0  0999 V2000
   11.5150   -9.9940  -14.2816 N   0  0  0  0  0  0  0  0  0  0  0  0
   12.6146   -9.2795  -13.7003 C   0  0  0  0  0  0  0  0  0  0  0  0
   13.7675   -9.0854  -14.6165 C   0  0  0  0  0  0  0  0  0  0  0  0
   14.3927  -10.1102  -15.0107 O   0  0  0  0  0  0  0  0  0  0  0  0
   12.9772   -5.3792  -17.7547 N   0  0  0  0  0  0  0  0  0  0  0  0
   14.0350   -6.3378  -17.6891 C   0  0  0  0  0  0  0  0  0  0  0  0
   14.0690   -7.2837  -18.5451 O   0  0  0  0  0  0  0  0  0  0  0  0
   15.0788   -6.2413  -16.6447 C   0  0  0  0  0  0  0  0  0  0  0  0
   15.2030   -7.5223  -15.8928 C   0  0  2  0  0  0  0  0  0  0  0  0
   14.1010   -7.7622  -14.9983 N   0  0  0  0  0  0  0  0  0  0  0  0
   16.5169   -7.5755  -15.2123 C   0  0  0  0  0  0  0  0  0  0  0  0
   16.6245   -7.0445  -14.0533 O   0  0  0  0  0  0  0  0  0  0  0  0
   17.6158   -8.2012  -15.8411 N   0  0  0  0  0  0  0  0  0  0  0  0
   18.8352   -8.3944  -15.0501 C   0  0  1  0  0  0  0  0  0  0  0  0
   19.5366   -9.6479  -15.4535 C   0  0  0  0  0  0  0  0  0  0  0  0
   20.8692   -9.7236  -14.8438 C   0  0  0  0  0  0  0  0  0  0  0  0
   21.0438  -10.2969  -13.5918 C   0  0  0  0  0  0  0  0  0  0  0  0
   22.2927  -10.3985  -13.0168 C   0  0  0  0  0  0  0  0  0  0  0  0
   23.4256   -9.9291  -13.6736 C   0  0  0  0  0  0  0  0  0  0  0  0
   23.2587   -9.3623  -14.9115 C   0  0  0  0  0  0  0  0  0  0  0  0
   21.9973   -9.2642  -15.4823 C   0  0  0  0  0  0  0  0  0  0  0  0
   19.6807   -7.2150  -15.2877 C   0  0  0  0  0  0  0  0  0  0  0  0
   20.5287   -6.7082  -14.3356 O   0  0  0  0  0  0  0  0  0  0  0  0
   19.6463   -6.6278  -16.3949 O   0  0  0  0  0  0  0  0  0  0  0  0
  2  1  1  0
  3  2  1  0
  4  3  2  0
  6  5  1  0
  7  6  2  0
  9  8  1  1
  8  6  1  0
  9 10  1  0
 10  3  1  0
 11  9  1  0
 11 12  2  0
 13 11  1  0
 14 13  1  0
 14 15  1  6
 16 21  2  0
 16 15  1  0
 17 16  1  0
 18 19  1  0
 18 17  2  0
 19 20  2  0
 20 21  1  0
 22 14  1  0
 23 22  1  0
 24 22  2  0
M  END
$$$$
