GNF.pdb
     RDKit          3D

 24 24  0  0  1  0  0  0  0  0999 V2000
   22.4067  -18.9435  -14.1018 N   0  0  0  0  0  0  0  0  0  0  0  0
   23.3128  -18.8780  -12.9917 C   0  0  0  0  0  0  0  0  0  0  0  0
   24.1461  -20.0945  -12.8129 C   0  0  0  0  0  0  0  0  0  0  0  0
   23.5782  -21.2206  -12.8898 O   0  0  0  0  0  0  0  0  0  0  0  0
   26.9427  -22.3148  -15.4205 N   0  0  0  0  0  0  0  0  0  0  0  0
   27.1255  -21.0859  -14.7144 C   0  0  0  0  0  0  0  0  0  0  0  0
   26.9132  -19.9838  -15.3218 O   0  0  0  0  0  0  0  0  0  0  0  0
   27.5559  -21.0844  -13.2987 C   0  0  0  0  0  0  0  0  0  0  0  0
   26.3804  -21.0719  -12.3823 C   0  0  2  0  0  0  0  0  0  0  0  0
   25.5312  -19.9244  -12.5675 N   0  0  0  0  0  0  0  0  0  0  0  0
   26.8376  -21.2279  -10.9828 C   0  0  0  0  0  0  0  0  0  0  0  0
   27.5247  -22.2632  -10.6783 O   0  0  0  0  0  0  0  0  0  0  0  0
   26.5146  -20.2480  -10.0184 N   0  0  0  0  0  0  0  0  0  0  0  0
   26.8948  -20.5091   -8.6266 C   0  0  1  0  0  0  0  0  0  0  0  0
   27.6490  -19.3548   -8.0568 C   0  0  0  0  0  0  0  0  0  0  0  0
   28.0685  -19.6306   -6.6779 C   0  0  0  0  0  0  0  0  0  0  0  0
   27.6288  -18.8326   -5.6308 C   0  0  0  0  0  0  0  0  0  0  0  0
   27.9934  -19.0941   -4.3271 C   0  0  0  0  0  0  0  0  0  0  0  0
   28.8169  -20.1707   -4.0143 C   0  0  0  0  0  0  0  0  0  0  0  0
   29.2537  -20.9629   -5.0454 C   0  0  0  0  0  0  0  0  0  0  0  0
   28.8814  -20.6917   -6.3548 C   0  0  0  0  0  0  0  0  0  0  0  0
   25.6453  -20.7417   -7.8869 C   0  0  0  0  0  0  0  0  0  0  0  0
   25.5973  -21.4714   -6.7260 O   0  0  0  0  0  0  0  0  0  0  0  0
   24.5649  -20.2670   -8.3101 O   0  0  0  0  0  0  0  0  0  0  0  0
  2  1  1  0
  3  2  1  0
  4  3  2  0
  6  5  1  0
  7  6  2  0
  9  8  1  6
  8  6  1  0
  9 10  1  0
 10  3  1  0
 11  9  1  0
 11 12  2  0
 13 11  1  0
 14 13  1  0
 14 15  1  1
 16 21  2  0
 16 15  1  0
 17 16  1  0
 18 19  1  0
 18 17  2  0
 19 20  2  0
 20 21  1  0
 22 14  1  0
 23 22  1  0
 24 22  2  0
M  END
$$$$
