GNF.pdb
     RDKit          3D

 24 24  0  0  1  0  0  0  0  0999 V2000
   19.2095  -18.4095  -15.5764 N   0  0  0  0  0  0  0  0  0  0  0  0
   20.5564  -18.0194  -15.8785 C   0  0  0  0  0  0  0  0  0  0  0  0
   21.5792  -19.0363  -15.5239 C   0  0  0  0  0  0  0  0  0  0  0  0
   21.1877  -20.1114  -14.9877 O   0  0  0  0  0  0  0  0  0  0  0  0
   24.1072  -20.6136  -17.9797 N   0  0  0  0  0  0  0  0  0  0  0  0
   25.2745  -19.9793  -17.4534 C   0  0  0  0  0  0  0  0  0  0  0  0
   26.3237  -19.9121  -18.1767 O   0  0  0  0  0  0  0  0  0  0  0  0
   25.2736  -19.4074  -16.0886 C   0  0  0  0  0  0  0  0  0  0  0  0
   23.9733  -19.6584  -15.4045 C   0  0  2  0  0  0  0  0  0  0  0  0
   22.9365  -18.7448  -15.8077 N   0  0  0  0  0  0  0  0  0  0  0  0
   24.1781  -19.6834  -13.9383 C   0  0  0  0  0  0  0  0  0  0  0  0
   24.5185  -18.5983  -13.3523 O   0  0  0  0  0  0  0  0  0  0  0  0
   23.9980  -20.8848  -13.2181 N   0  0  0  0  0  0  0  0  0  0  0  0
   24.2050  -20.8478  -11.7670 C   0  0  1  0  0  0  0  0  0  0  0  0
   22.9923  -21.3319  -11.0453 C   0  0  0  0  0  0  0  0  0  0  0  0
   21.8653  -20.4115  -11.2357 C   0  0  0  0  0  0  0  0  0  0  0  0
   21.7010  -19.3116  -10.4053 C   0  0  0  0  0  0  0  0  0  0  0  0
   20.6621  -18.4237  -10.5874 C   0  0  0  0  0  0  0  0  0  0  0  0
   19.7394  -18.5992  -11.6135 C   0  0  0  0  0  0  0  0  0  0  0  0
   19.8976  -19.6843  -12.4375 C   0  0  0  0  0  0  0  0  0  0  0  0
   20.9467  -20.5730  -12.2464 C   0  0  0  0  0  0  0  0  0  0  0  0
   25.3654  -21.7065  -11.4867 C   0  0  0  0  0  0  0  0  0  0  0  0
   26.0277  -22.3996  -12.4683 O   0  0  0  0  0  0  0  0  0  0  0  0
   25.7890  -21.8300  -10.3131 O   0  0  0  0  0  0  0  0  0  0  0  0
  2  1  1  0
  3  2  1  0
  4  3  2  0
  6  5  1  0
  7  6  2  0
  9  8  1  6
  8  6  1  0
  9 10  1  0
 10  3  1  0
 11  9  1  0
 11 12  2  0
 13 11  1  0
 14 13  1  0
 14 15  1  1
 16 21  2  0
 16 15  1  0
 17 16  1  0
 18 19  1  0
 18 17  2  0
 19 20  2  0
 20 21  1  0
 22 14  1  0
 23 22  1  0
 24 22  2  0
M  END
$$$$
