GNF.pdb
     RDKit          3D

 24 24  0  0  1  0  0  0  0  0999 V2000
   16.8999  -12.8741  -15.7117 N   0  0  0  0  0  0  0  0  0  0  0  0
   16.9224  -11.4403  -15.7499 C   0  0  0  0  0  0  0  0  0  0  0  0
   18.2795  -10.8560  -15.9011 C   0  0  0  0  0  0  0  0  0  0  0  0
   19.1276  -11.0797  -14.9915 O   0  0  0  0  0  0  0  0  0  0  0  0
   19.8501  -10.3757  -20.8236 N   0  0  0  0  0  0  0  0  0  0  0  0
   20.3700  -10.2899  -19.4952 C   0  0  0  0  0  0  0  0  0  0  0  0
   21.0621  -11.2587  -19.0359 O   0  0  0  0  0  0  0  0  0  0  0  0
   20.1120   -9.0972  -18.6582 C   0  0  0  0  0  0  0  0  0  0  0  0
   19.8440   -9.4842  -17.2439 C   0  0  2  0  0  0  0  0  0  0  0  0
   18.5478  -10.0817  -17.0570 N   0  0  0  0  0  0  0  0  0  0  0  0
   20.0732   -8.3211  -16.3568 C   0  0  0  0  0  0  0  0  0  0  0  0
   19.0663   -7.6131  -16.0083 O   0  0  0  0  0  0  0  0  0  0  0  0
   21.3788   -8.0137  -15.9145 N   0  0  0  0  0  0  0  0  0  0  0  0
   21.5342   -6.9096  -14.9624 C   0  0  1  0  0  0  0  0  0  0  0  0
   22.5248   -7.2580  -13.9025 C   0  0  0  0  0  0  0  0  0  0  0  0
   23.6432   -8.0266  -14.4611 C   0  0  0  0  0  0  0  0  0  0  0  0
   24.5605   -7.4258  -15.3120 C   0  0  0  0  0  0  0  0  0  0  0  0
   25.6308   -8.1276  -15.8244 C   0  0  0  0  0  0  0  0  0  0  0  0
   25.8300   -9.4668  -15.5051 C   0  0  0  0  0  0  0  0  0  0  0  0
   24.9268  -10.0652  -14.6639 C   0  0  0  0  0  0  0  0  0  0  0  0
   23.8521   -9.3504  -14.1530 C   0  0  0  0  0  0  0  0  0  0  0  0
   21.9798   -5.7441  -15.7405 C   0  0  0  0  0  0  0  0  0  0  0  0
   22.0612   -4.4836  -15.2049 O   0  0  0  0  0  0  0  0  0  0  0  0
   22.3044   -5.8770  -16.9443 O   0  0  0  0  0  0  0  0  0  0  0  0
  2  1  1  0
  3  2  1  0
  4  3  2  0
  6  5  1  0
  7  6  2  0
  9  8  1  6
  8  6  1  0
  9 10  1  0
 10  3  1  0
 11  9  1  0
 11 12  2  0
 13 11  1  0
 14 13  1  0
 14 15  1  1
 16 21  2  0
 16 15  1  0
 17 16  1  0
 18 19  1  0
 18 17  2  0
 19 20  2  0
 20 21  1  0
 22 14  1  0
 23 22  1  0
 24 22  2  0
M  END
$$$$
