ACQ.pdb
     RDKit          3D

 21 20  0  0  1  0  0  0  0  0999 V2000
   27.5077  -23.7982  -18.4519 C   0  0  0  0  0  0  0  0  0  0  0  0
   28.4602  -23.0916  -17.5275 C   0  0  2  0  0  0  0  0  0  0  0  0
   29.3221  -24.0551  -16.8386 N   0  0  0  0  0  0  0  0  0  0  0  0
   27.7474  -22.3035  -16.4881 C   0  0  0  0  0  0  0  0  0  0  0  0
   27.4924  -22.8633  -15.3803 O   0  0  0  0  0  0  0  0  0  0  0  0
   27.3343  -20.9731  -16.6495 N   0  0  0  0  0  0  0  0  0  0  0  0
   26.6582  -20.2316  -15.5590 C   0  0  1  0  0  0  0  0  0  0  0  0
   27.2415  -18.8262  -15.6666 C   0  0  0  0  0  0  0  0  0  0  0  0
   28.2653  -18.4564  -14.2504 S   0  0  0  0  0  0  0  0  0  0  0  0
   25.2181  -20.2421  -15.8137 C   0  0  0  0  0  0  0  0  0  0  0  0
   24.7848  -20.1415  -16.9978 O   0  0  0  0  0  0  0  0  0  0  0  0
   20.5813  -21.3064  -11.4828 N   0  0  0  0  0  0  0  0  0  0  0  0
   19.9020  -20.9601  -12.6741 C   0  0  0  0  0  0  0  0  0  0  0  0
   18.6514  -20.8967  -12.6396 O   0  0  0  0  0  0  0  0  0  0  0  0
   20.5945  -20.6728  -13.9466 C   0  0  0  0  0  0  0  0  0  0  0  0
   22.0752  -20.6620  -13.8780 C   0  0  0  0  0  0  0  0  0  0  0  0
   22.8003  -20.2444  -15.1114 C   0  0  2  0  0  0  0  0  0  0  0  0
   24.2380  -20.3615  -14.8045 N   0  0  0  0  0  0  0  0  0  0  0  0
   22.4780  -18.8855  -15.5670 C   0  0  0  0  0  0  0  0  0  0  0  0
   21.6634  -18.7549  -16.5116 O   0  0  0  0  0  0  0  0  0  0  0  0
   23.0101  -17.7284  -15.0279 O   0  0  0  0  0  0  0  0  0  0  0  0
  2  1  1  6
  3  2  1  0
  4  2  1  0
  4  5  2  0
  6  4  1  0
  7  6  1  0
  7 10  1  0
  7  8  1  6
  9  8  1  0
 10 18  1  0
 11 10  2  0
 13 12  1  0
 13 15  1  0
 14 13  2  0
 15 16  1  0
 17 16  1  1
 17 19  1  0
 18 17  1  0
 19 20  2  0
 19 21  1  0
M  END
$$$$
