ACQ.pdb
     RDKit          3D

 21 20  0  0  1  0  0  0  0  0999 V2000
   13.9272  -12.2334  -14.1115 C   0  0  0  0  0  0  0  0  0  0  0  0
   15.3262  -12.1101  -14.6488 C   0  0  2  0  0  0  0  0  0  0  0  0
   16.0250  -13.3952  -14.5702 N   0  0  0  0  0  0  0  0  0  0  0  0
   16.1292  -11.1153  -13.8904 C   0  0  0  0  0  0  0  0  0  0  0  0
   16.5412  -11.4322  -12.7348 O   0  0  0  0  0  0  0  0  0  0  0  0
   16.4652   -9.8406  -14.3687 N   0  0  0  0  0  0  0  0  0  0  0  0
   17.3212   -8.9178  -13.5864 C   0  0  1  0  0  0  0  0  0  0  0  0
   18.2885   -8.3595  -14.6256 C   0  0  0  0  0  0  0  0  0  0  0  0
   19.7214   -9.4138  -14.7863 S   0  0  0  0  0  0  0  0  0  0  0  0
   16.4747   -7.8707  -13.0157 C   0  0  0  0  0  0  0  0  0  0  0  0
   15.3517   -7.6114  -13.5370 O   0  0  0  0  0  0  0  0  0  0  0  0
   15.3902   -6.8767   -7.0801 N   0  0  0  0  0  0  0  0  0  0  0  0
   14.7473   -5.7753   -7.6916 C   0  0  0  0  0  0  0  0  0  0  0  0
   14.0588   -5.0207   -6.9665 O   0  0  0  0  0  0  0  0  0  0  0  0
   14.8494   -5.4773   -9.1346 C   0  0  0  0  0  0  0  0  0  0  0  0
   15.6884   -6.4130   -9.9207 C   0  0  0  0  0  0  0  0  0  0  0  0
   15.9205   -6.0648  -11.3512 C   0  0  2  0  0  0  0  0  0  0  0  0
   16.8250   -7.0995  -11.8862 N   0  0  0  0  0  0  0  0  0  0  0  0
   16.4867   -4.7254  -11.5595 C   0  0  0  0  0  0  0  0  0  0  0  0
   17.7346   -4.6113  -11.6125 O   0  0  0  0  0  0  0  0  0  0  0  0
   15.7406   -3.5698  -11.7030 O   0  0  0  0  0  0  0  0  0  0  0  0
  2  1  1  1
  3  2  1  0
  4  2  1  0
  4  5  2  0
  6  4  1  0
  7  6  1  0
  7 10  1  0
  7  8  1  6
  9  8  1  0
 10 18  1  0
 11 10  2  0
 13 12  1  0
 13 15  1  0
 14 13  2  0
 15 16  1  0
 17 16  1  1
 17 19  1  0
 18 17  1  0
 19 20  2  0
 19 21  1  0
M  END
$$$$
