ACQ.pdb
     RDKit          3D

 21 20  0  0  1  0  0  0  0  0999 V2000
   17.0013  -13.1921  -13.4921 C   0  0  0  0  0  0  0  0  0  0  0  0
   15.8603  -12.9621  -12.5401 C   0  0  2  0  0  0  0  0  0  0  0  0
   14.7048  -13.7827  -12.9105 N   0  0  0  0  0  0  0  0  0  0  0  0
   15.4186  -11.5428  -12.5314 C   0  0  0  0  0  0  0  0  0  0  0  0
   14.8952  -11.0708  -13.5845 O   0  0  0  0  0  0  0  0  0  0  0  0
   15.5418  -10.6831  -11.4303 N   0  0  0  0  0  0  0  0  0  0  0  0
   15.1373   -9.2595  -11.5067 C   0  0  1  0  0  0  0  0  0  0  0  0
   14.4000   -9.0259  -10.1919 C   0  0  0  0  0  0  0  0  0  0  0  0
   12.8606   -9.9313  -10.1608 S   0  0  0  0  0  0  0  0  0  0  0  0
   16.3437   -8.4387  -11.6054 C   0  0  0  0  0  0  0  0  0  0  0  0
   17.3804   -8.7577  -10.9546 O   0  0  0  0  0  0  0  0  0  0  0  0
   20.4868   -9.5482  -14.3501 N   0  0  0  0  0  0  0  0  0  0  0  0
   20.8665   -8.1918  -14.2213 C   0  0  0  0  0  0  0  0  0  0  0  0
   22.0195   -7.8675  -14.5882 O   0  0  0  0  0  0  0  0  0  0  0  0
   19.9727   -7.1491  -13.6777 C   0  0  0  0  0  0  0  0  0  0  0  0
   18.6419   -7.6219  -13.2274 C   0  0  0  0  0  0  0  0  0  0  0  0
   17.7405   -6.6042  -12.6165 C   0  0  2  0  0  0  0  0  0  0  0  0
   16.4458   -7.2764  -12.4003 N   0  0  0  0  0  0  0  0  0  0  0  0
   17.5646   -5.3926  -13.4283 C   0  0  0  0  0  0  0  0  0  0  0  0
   16.5949   -5.3470  -14.2225 O   0  0  0  0  0  0  0  0  0  0  0  0
   18.3953   -4.2878  -13.3827 O   0  0  0  0  0  0  0  0  0  0  0  0
  2  1  1  6
  3  2  1  0
  4  2  1  0
  4  5  2  0
  6  4  1  0
  7  6  1  0
  7 10  1  0
  7  8  1  1
  9  8  1  0
 10 18  1  0
 11 10  2  0
 13 12  1  0
 13 15  1  0
 14 13  2  0
 15 16  1  0
 17 16  1  6
 17 19  1  0
 18 17  1  0
 19 20  2  0
 19 21  1  0
M  END
$$$$
