ACQ.pdb
     RDKit          3D

 21 20  0  0  1  0  0  0  0  0999 V2000
   20.6051  -12.6498  -18.7434 C   0  0  0  0  0  0  0  0  0  0  0  0
   22.0832  -12.8309  -18.5352 C   0  0  2  0  0  0  0  0  0  0  0  0
   22.3721  -14.1722  -18.0220 N   0  0  0  0  0  0  0  0  0  0  0  0
   22.6339  -11.8502  -17.5635 C   0  0  0  0  0  0  0  0  0  0  0  0
   22.3428  -11.9912  -16.3383 O   0  0  0  0  0  0  0  0  0  0  0  0
   23.4596  -10.7713  -17.9110 N   0  0  0  0  0  0  0  0  0  0  0  0
   23.9654   -9.8203  -16.8931 C   0  0  1  0  0  0  0  0  0  0  0  0
   25.3811   -9.5077  -17.3675 C   0  0  0  0  0  0  0  0  0  0  0  0
   26.0794   -8.1587  -16.4277 S   0  0  0  0  0  0  0  0  0  0  0  0
   23.1142   -8.6311  -16.9051 C   0  0  0  0  0  0  0  0  0  0  0  0
   22.7411   -8.1319  -18.0059 O   0  0  0  0  0  0  0  0  0  0  0  0
   17.6300   -7.8974  -15.7960 N   0  0  0  0  0  0  0  0  0  0  0  0
   18.0077   -6.5349  -15.7578 C   0  0  0  0  0  0  0  0  0  0  0  0
   17.0984   -5.6733  -15.7580 O   0  0  0  0  0  0  0  0  0  0  0  0
   19.4142   -6.0855  -15.7186 C   0  0  0  0  0  0  0  0  0  0  0  0
   20.4296   -7.1636  -15.7812 C   0  0  0  0  0  0  0  0  0  0  0  0
   21.8575   -6.7380  -15.8209 C   0  0  2  0  0  0  0  0  0  0  0  0
   22.6587   -7.9736  -15.7418 N   0  0  0  0  0  0  0  0  0  0  0  0
   22.2369   -5.8065  -14.7504 C   0  0  0  0  0  0  0  0  0  0  0  0
   21.8327   -4.6215  -14.8251 O   0  0  0  0  0  0  0  0  0  0  0  0
   23.0134   -6.1405  -13.6558 O   0  0  0  0  0  0  0  0  0  0  0  0
  2  1  1  1
  3  2  1  0
  4  2  1  0
  4  5  2  0
  6  4  1  0
  7  6  1  0
  7 10  1  0
  7  8  1  6
  9  8  1  0
 10 18  1  0
 11 10  2  0
 13 12  1  0
 13 15  1  0
 14 13  2  0
 15 16  1  0
 17 16  1  1
 17 19  1  0
 18 17  1  0
 19 20  2  0
 19 21  1  0
M  END
$$$$
