ACQ.pdb
     RDKit          3D

 21 20  0  0  1  0  0  0  0  0999 V2000
   17.1208  -13.4814  -18.1605 C   0  0  0  0  0  0  0  0  0  0  0  0
   18.5981  -13.5867  -17.9009 C   0  0  2  0  0  0  0  0  0  0  0  0
   18.9342  -14.9036  -17.3545 N   0  0  0  0  0  0  0  0  0  0  0  0
   19.0680  -12.5644  -16.9295 C   0  0  0  0  0  0  0  0  0  0  0  0
   18.5159  -12.5212  -15.7897 O   0  0  0  0  0  0  0  0  0  0  0  0
   20.0877  -11.6372  -17.1886 N   0  0  0  0  0  0  0  0  0  0  0  0
   20.4885  -10.6223  -16.1858 C   0  0  1  0  0  0  0  0  0  0  0  0
   22.0003  -10.7988  -16.0827 C   0  0  0  0  0  0  0  0  0  0  0  0
   22.5798  -10.3484  -14.4543 S   0  0  0  0  0  0  0  0  0  0  0  0
   20.1303   -9.2992  -16.6956 C   0  0  0  0  0  0  0  0  0  0  0  0
   20.3120   -9.0215  -17.9162 O   0  0  0  0  0  0  0  0  0  0  0  0
   15.1174   -6.0320  -15.2725 N   0  0  0  0  0  0  0  0  0  0  0  0
   15.9006   -5.0795  -15.9652 C   0  0  0  0  0  0  0  0  0  0  0  0
   15.3887   -3.9619  -16.2060 O   0  0  0  0  0  0  0  0  0  0  0  0
   17.2831   -5.3409  -16.4144 C   0  0  0  0  0  0  0  0  0  0  0  0
   17.8391   -6.6604  -16.0308 C   0  0  0  0  0  0  0  0  0  0  0  0
   19.2288   -6.9584  -16.4797 C   0  0  2  0  0  0  0  0  0  0  0  0
   19.5763   -8.2705  -15.9031 N   0  0  0  0  0  0  0  0  0  0  0  0
   20.2170   -5.9441  -16.0891 C   0  0  0  0  0  0  0  0  0  0  0  0
   20.3010   -4.9014  -16.7809 O   0  0  0  0  0  0  0  0  0  0  0  0
   21.0698   -6.0531  -15.0058 O   0  0  0  0  0  0  0  0  0  0  0  0
  2  1  1  1
  3  2  1  0
  4  2  1  0
  4  5  2  0
  6  4  1  0
  7  6  1  0
  7 10  1  0
  7  8  1  6
  9  8  1  0
 10 18  1  0
 11 10  2  0
 13 12  1  0
 13 15  1  0
 14 13  2  0
 15 16  1  0
 17 16  1  1
 17 19  1  0
 18 17  1  0
 19 20  2  0
 19 21  1  0
M  END
$$$$
