ACQ.pdb
     RDKit          3D

 21 20  0  0  1  0  0  0  0  0999 V2000
   15.4316  -12.1087  -15.1428 C   0  0  0  0  0  0  0  0  0  0  0  0
   16.9205  -11.9755  -15.3052 C   0  0  2  0  0  0  0  0  0  0  0  0
   17.5818  -13.2637  -15.0834 N   0  0  0  0  0  0  0  0  0  0  0  0
   17.5014  -11.0015  -14.3442 C   0  0  0  0  0  0  0  0  0  0  0  0
   17.6597  -11.3669  -13.1413 O   0  0  0  0  0  0  0  0  0  0  0  0
   17.8894   -9.6961  -14.6789 N   0  0  0  0  0  0  0  0  0  0  0  0
   18.4914   -8.7836  -13.6783 C   0  0  1  0  0  0  0  0  0  0  0  0
   19.6148   -8.0980  -14.4495 C   0  0  0  0  0  0  0  0  0  0  0  0
   20.3774   -6.8239  -13.4566 S   0  0  0  0  0  0  0  0  0  0  0  0
   17.4701   -7.8304  -13.2456 C   0  0  0  0  0  0  0  0  0  0  0  0
   16.5796   -7.4460  -14.0575 O   0  0  0  0  0  0  0  0  0  0  0  0
   15.2921   -7.0776   -7.3871 N   0  0  0  0  0  0  0  0  0  0  0  0
   14.6563   -6.0476   -8.1188 C   0  0  0  0  0  0  0  0  0  0  0  0
   13.8169   -5.3351   -7.5215 O   0  0  0  0  0  0  0  0  0  0  0  0
   14.9346   -5.7765   -9.5438 C   0  0  0  0  0  0  0  0  0  0  0  0
   15.9663   -6.6394  -10.1670 C   0  0  0  0  0  0  0  0  0  0  0  0
   16.3463   -6.3213  -11.5727 C   0  0  2  0  0  0  0  0  0  0  0  0
   17.3972   -7.2868  -11.9447 N   0  0  0  0  0  0  0  0  0  0  0  0
   16.8162   -4.9438  -11.7712 C   0  0  0  0  0  0  0  0  0  0  0  0
   18.0524   -4.7436  -11.8405 O   0  0  0  0  0  0  0  0  0  0  0  0
   15.9907   -3.8404  -11.8885 O   0  0  0  0  0  0  0  0  0  0  0  0
  2  1  1  1
  3  2  1  0
  4  2  1  0
  4  5  2  0
  6  4  1  0
  7  6  1  0
  7 10  1  0
  7  8  1  6
  9  8  1  0
 10 18  1  0
 11 10  2  0
 13 12  1  0
 13 15  1  0
 14 13  2  0
 15 16  1  0
 17 16  1  1
 17 19  1  0
 18 17  1  0
 19 20  2  0
 19 21  1  0
M  END
$$$$
