ACQ.pdb
     RDKit          3D

 21 20  0  0  1  0  0  0  0  0999 V2000
   20.0809  -16.1367  -17.4976 C   0  0  0  0  0  0  0  0  0  0  0  0
   21.3735  -16.5905  -16.8776 C   0  0  2  0  0  0  0  0  0  0  0  0
   21.1645  -17.7950  -16.0704 N   0  0  0  0  0  0  0  0  0  0  0  0
   21.9615  -15.5524  -15.9909 C   0  0  0  0  0  0  0  0  0  0  0  0
   21.4482  -15.3811  -14.8451 O   0  0  0  0  0  0  0  0  0  0  0  0
   23.0533  -14.7432  -16.3370 N   0  0  0  0  0  0  0  0  0  0  0  0
   23.5190  -13.6474  -15.4546 C   0  0  1  0  0  0  0  0  0  0  0  0
   25.0271  -13.6205  -15.6830 C   0  0  0  0  0  0  0  0  0  0  0  0
   25.7633  -12.2058  -14.8785 S   0  0  0  0  0  0  0  0  0  0  0  0
   22.8830  -12.4028  -15.8847 C   0  0  0  0  0  0  0  0  0  0  0  0
   22.6655  -12.1957  -17.1135 O   0  0  0  0  0  0  0  0  0  0  0  0
   18.7102  -10.5675  -17.9923 N   0  0  0  0  0  0  0  0  0  0  0  0
   18.6783   -9.4174  -17.1697 C   0  0  0  0  0  0  0  0  0  0  0  0
   17.8547   -8.5166  -17.4515 O   0  0  0  0  0  0  0  0  0  0  0  0
   19.5654   -9.2314  -16.0034 C   0  0  0  0  0  0  0  0  0  0  0  0
   20.4224  -10.3921  -15.6631 C   0  0  0  0  0  0  0  0  0  0  0  0
   21.8801  -10.1251  -15.5038 C   0  0  2  0  0  0  0  0  0  0  0  0
   22.4767  -11.3774  -15.0033 N   0  0  0  0  0  0  0  0  0  0  0  0
   22.1914   -9.0078  -14.6024 C   0  0  0  0  0  0  0  0  0  0  0  0
   22.5679   -9.2746  -13.4361 O   0  0  0  0  0  0  0  0  0  0  0  0
   22.0998   -7.6712  -14.9457 O   0  0  0  0  0  0  0  0  0  0  0  0
  2  1  1  1
  3  2  1  0
  4  2  1  0
  4  5  2  0
  6  4  1  0
  7  6  1  0
  7 10  1  0
  7  8  1  6
  9  8  1  0
 10 18  1  0
 11 10  2  0
 13 12  1  0
 13 15  1  0
 14 13  2  0
 15 16  1  0
 17 16  1  1
 17 19  1  0
 18 17  1  0
 19 20  2  0
 19 21  1  0
M  END
$$$$
