ACQ.pdb
     RDKit          3D

 21 20  0  0  1  0  0  0  0  0999 V2000
   18.1216  -14.1429  -16.9513 C   0  0  0  0  0  0  0  0  0  0  0  0
   18.8596  -13.0377  -16.2479 C   0  0  2  0  0  0  0  0  0  0  0  0
   18.6144  -13.0895  -14.8047 N   0  0  0  0  0  0  0  0  0  0  0  0
   18.4403  -11.6943  -16.7266 C   0  0  0  0  0  0  0  0  0  0  0  0
   18.9231  -11.2685  -17.8180 O   0  0  0  0  0  0  0  0  0  0  0  0
   17.5406  -10.8589  -16.0490 N   0  0  0  0  0  0  0  0  0  0  0  0
   17.1552   -9.5329  -16.5870 C   0  0  1  0  0  0  0  0  0  0  0  0
   15.6367   -9.6209  -16.7019 C   0  0  0  0  0  0  0  0  0  0  0  0
   14.9349   -8.0158  -17.0509 S   0  0  0  0  0  0  0  0  0  0  0  0
   17.5683   -8.5061  -15.6312 C   0  0  0  0  0  0  0  0  0  0  0  0
   17.7034   -8.7987  -14.4079 O   0  0  0  0  0  0  0  0  0  0  0  0
   22.6584   -6.8758  -14.6031 N   0  0  0  0  0  0  0  0  0  0  0  0
   22.0298   -5.8101  -13.9179 C   0  0  0  0  0  0  0  0  0  0  0  0
   22.7456   -5.0619  -13.2130 O   0  0  0  0  0  0  0  0  0  0  0  0
   20.5793   -5.5419  -13.9946 C   0  0  0  0  0  0  0  0  0  0  0  0
   19.8001   -6.4859  -14.8307 C   0  0  0  0  0  0  0  0  0  0  0  0
   18.3457   -6.1998  -14.9866 C   0  0  2  0  0  0  0  0  0  0  0  0
   17.8393   -7.1651  -15.9799 N   0  0  0  0  0  0  0  0  0  0  0  0
   18.0453   -4.8236  -15.4035 C   0  0  0  0  0  0  0  0  0  0  0  0
   17.7624   -4.6177  -16.6079 O   0  0  0  0  0  0  0  0  0  0  0  0
   18.0509   -3.7274  -14.5603 O   0  0  0  0  0  0  0  0  0  0  0  0
  2  1  1  6
  3  2  1  0
  4  2  1  0
  4  5  2  0
  6  4  1  0
  7  6  1  0
  7 10  1  0
  7  8  1  1
  9  8  1  0
 10 18  1  0
 11 10  2  0
 13 12  1  0
 13 15  1  0
 14 13  2  0
 15 16  1  0
 17 16  1  6
 17 19  1  0
 18 17  1  0
 19 20  2  0
 19 21  1  0
M  END
$$$$
