ACQ.pdb
     RDKit          3D

 21 20  0  0  1  0  0  0  0  0999 V2000
   19.4130  -16.1171  -17.5246 C   0  0  0  0  0  0  0  0  0  0  0  0
   19.7439  -15.0988  -16.4688 C   0  0  2  0  0  0  0  0  0  0  0  0
   18.9982  -15.3702  -15.2375 N   0  0  0  0  0  0  0  0  0  0  0  0
   19.4081  -13.7171  -16.9018 C   0  0  0  0  0  0  0  0  0  0  0  0
   20.0240  -13.2341  -17.8983 O   0  0  0  0  0  0  0  0  0  0  0  0
   18.4495  -12.9045  -16.2794 N   0  0  0  0  0  0  0  0  0  0  0  0
   18.1977  -11.5153  -16.7298 C   0  0  1  0  0  0  0  0  0  0  0  0
   16.7177  -11.5217  -17.0993 C   0  0  0  0  0  0  0  0  0  0  0  0
   16.5041  -11.8085  -18.8494 S   0  0  0  0  0  0  0  0  0  0  0  0
   18.4749  -10.6086  -15.6163 C   0  0  0  0  0  0  0  0  0  0  0  0
   18.1695  -10.9454  -14.4358 O   0  0  0  0  0  0  0  0  0  0  0  0
   22.8289   -5.9941  -15.7984 N   0  0  0  0  0  0  0  0  0  0  0  0
   22.2967   -5.9199  -14.4901 C   0  0  0  0  0  0  0  0  0  0  0  0
   22.7607   -5.0514  -13.7158 O   0  0  0  0  0  0  0  0  0  0  0  0
   21.2278   -6.8132  -13.9991 C   0  0  0  0  0  0  0  0  0  0  0  0
   20.6577   -7.7387  -15.0070 C   0  0  0  0  0  0  0  0  0  0  0  0
   19.4715   -8.5379  -14.5880 C   0  0  2  0  0  0  0  0  0  0  0  0
   19.0798   -9.3413  -15.7610 N   0  0  0  0  0  0  0  0  0  0  0  0
   18.3399   -7.7302  -14.1135 C   0  0  0  0  0  0  0  0  0  0  0  0
   17.4915   -7.3472  -14.9541 O   0  0  0  0  0  0  0  0  0  0  0  0
   18.1373   -7.3567  -12.7974 O   0  0  0  0  0  0  0  0  0  0  0  0
  2  1  1  6
  3  2  1  0
  4  2  1  0
  4  5  2  0
  6  4  1  0
  7  6  1  0
  7 10  1  0
  7  8  1  1
  9  8  1  0
 10 18  1  0
 11 10  2  0
 13 12  1  0
 13 15  1  0
 14 13  2  0
 15 16  1  0
 17 16  1  6
 17 19  1  0
 18 17  1  0
 19 20  2  0
 19 21  1  0
M  END
$$$$
