ACQ.pdb
     RDKit          3D

 21 20  0  0  1  0  0  0  0  0999 V2000
   30.4025  -22.9331  -18.0226 C   0  0  0  0  0  0  0  0  0  0  0  0
   28.9128  -22.8440  -17.8386 C   0  0  2  0  0  0  0  0  0  0  0  0
   28.2717  -22.3349  -19.0534 N   0  0  0  0  0  0  0  0  0  0  0  0
   28.5421  -21.9364  -16.7213 C   0  0  0  0  0  0  0  0  0  0  0  0
   28.9181  -22.2417  -15.5503 O   0  0  0  0  0  0  0  0  0  0  0  0
   27.7995  -20.7567  -16.8741 N   0  0  0  0  0  0  0  0  0  0  0  0
   27.5196  -19.8605  -15.7274 C   0  0  1  0  0  0  0  0  0  0  0  0
   27.2817  -18.5040  -16.3833 C   0  0  0  0  0  0  0  0  0  0  0  0
   27.6506  -17.1779  -15.2448 S   0  0  0  0  0  0  0  0  0  0  0  0
   26.3248  -20.3471  -15.0387 C   0  0  0  0  0  0  0  0  0  0  0  0
   25.3618  -20.8255  -15.7050 O   0  0  0  0  0  0  0  0  0  0  0  0
   25.3770  -20.3597   -8.6676 N   0  0  0  0  0  0  0  0  0  0  0  0
   24.3080  -21.1152   -9.2031 C   0  0  0  0  0  0  0  0  0  0  0  0
   23.5023  -21.6423   -8.4018 O   0  0  0  0  0  0  0  0  0  0  0  0
   24.1007  -21.3099  -10.6525 C   0  0  0  0  0  0  0  0  0  0  0  0
   25.1548  -20.7454  -11.5285 C   0  0  0  0  0  0  0  0  0  0  0  0
   24.9542  -20.8916  -12.9982 C   0  0  2  0  0  0  0  0  0  0  0  0
   26.1565  -20.3251  -13.6371 N   0  0  0  0  0  0  0  0  0  0  0  0
   23.7414  -20.2372  -13.5071 C   0  0  0  0  0  0  0  0  0  0  0  0
   23.8052  -19.0206  -13.8052 O   0  0  0  0  0  0  0  0  0  0  0  0
   22.5231  -20.8673  -13.6841 O   0  0  0  0  0  0  0  0  0  0  0  0
  2  1  1  6
  3  2  1  0
  4  2  1  0
  4  5  2  0
  6  4  1  0
  7  6  1  0
  7 10  1  0
  7  8  1  6
  9  8  1  0
 10 18  1  0
 11 10  2  0
 13 12  1  0
 13 15  1  0
 14 13  2  0
 15 16  1  0
 17 16  1  1
 17 19  1  0
 18 17  1  0
 19 20  2  0
 19 21  1  0
M  END
$$$$
