ACQ.pdb
     RDKit          3D

 21 20  0  0  1  0  0  0  0  0999 V2000
   18.1417  -10.1123  -16.4005 C   0  0  0  0  0  0  0  0  0  0  0  0
   19.5867   -9.7932  -16.1333 C   0  0  2  0  0  0  0  0  0  0  0  0
   20.4051  -11.0062  -16.2027 N   0  0  0  0  0  0  0  0  0  0  0  0
   19.7859   -9.1936  -14.7878 C   0  0  0  0  0  0  0  0  0  0  0  0
   19.7414   -9.9576  -13.7779 O   0  0  0  0  0  0  0  0  0  0  0  0
   20.0214   -7.8307  -14.5567 N   0  0  0  0  0  0  0  0  0  0  0  0
   20.1475   -7.2856  -13.1843 C   0  0  1  0  0  0  0  0  0  0  0  0
   21.3460   -6.3468  -13.2809 C   0  0  0  0  0  0  0  0  0  0  0  0
   21.4722   -5.3300  -11.8178 S   0  0  0  0  0  0  0  0  0  0  0  0
   18.9184   -6.5641  -12.8565 C   0  0  0  0  0  0  0  0  0  0  0  0
   18.4265   -5.7442  -13.6848 O   0  0  0  0  0  0  0  0  0  0  0  0
   14.9579   -7.8864   -7.9965 N   0  0  0  0  0  0  0  0  0  0  0  0
   14.4808   -6.6633   -8.5229 C   0  0  0  0  0  0  0  0  0  0  0  0
   13.4912   -6.1319   -7.9687 O   0  0  0  0  0  0  0  0  0  0  0  0
   15.0911   -5.9903   -9.6874 C   0  0  0  0  0  0  0  0  0  0  0  0
   16.3017   -6.6441  -10.2391 C   0  0  0  0  0  0  0  0  0  0  0  0
   16.9836   -5.9490  -11.3675 C   0  0  2  0  0  0  0  0  0  0  0  0
   18.2114   -6.7177  -11.6442 N   0  0  0  0  0  0  0  0  0  0  0  0
   17.3048   -4.5408  -11.0998 C   0  0  0  0  0  0  0  0  0  0  0  0
   16.5859   -3.6585  -11.6268 O   0  0  0  0  0  0  0  0  0  0  0  0
   18.3499   -4.1103  -10.3028 O   0  0  0  0  0  0  0  0  0  0  0  0
  2  1  1  1
  3  2  1  0
  4  2  1  0
  4  5  2  0
  6  4  1  0
  7  6  1  0
  7 10  1  0
  7  8  1  6
  9  8  1  0
 10 18  1  0
 11 10  2  0
 13 12  1  0
 13 15  1  0
 14 13  2  0
 15 16  1  0
 17 16  1  1
 17 19  1  0
 18 17  1  0
 19 20  2  0
 19 21  1  0
M  END
$$$$
