ACQ.pdb
     RDKit          3D

 21 20  0  0  1  0  0  0  0  0999 V2000
   16.8990  -14.8049  -16.1869 C   0  0  0  0  0  0  0  0  0  0  0  0
   17.1315  -13.4957  -15.4848 C   0  0  2  0  0  0  0  0  0  0  0  0
   15.9472  -12.6392  -15.5832 N   0  0  0  0  0  0  0  0  0  0  0  0
   18.2766  -12.7469  -16.0658 C   0  0  0  0  0  0  0  0  0  0  0  0
   19.4155  -13.3022  -16.0720 O   0  0  0  0  0  0  0  0  0  0  0  0
   18.1833  -11.4586  -16.6118 N   0  0  0  0  0  0  0  0  0  0  0  0
   19.3334  -10.8178  -17.2922 C   0  0  1  0  0  0  0  0  0  0  0  0
   19.0223  -11.0049  -18.7738 C   0  0  0  0  0  0  0  0  0  0  0  0
   17.4061  -10.3541  -19.1676 S   0  0  0  0  0  0  0  0  0  0  0  0
   19.3649   -9.4041  -16.9189 C   0  0  0  0  0  0  0  0  0  0  0  0
   18.2886   -8.7981  -16.6463 O   0  0  0  0  0  0  0  0  0  0  0  0
   22.7846   -6.7995  -12.7336 N   0  0  0  0  0  0  0  0  0  0  0  0
   22.3518   -5.6581  -13.4480 C   0  0  0  0  0  0  0  0  0  0  0  0
   22.6852   -4.5318  -13.0128 O   0  0  0  0  0  0  0  0  0  0  0  0
   21.5309   -5.7334  -14.6735 C   0  0  0  0  0  0  0  0  0  0  0  0
   21.2410   -7.1021  -15.1634 C   0  0  0  0  0  0  0  0  0  0  0  0
   20.5102   -7.2099  -16.4578 C   0  0  2  0  0  0  0  0  0  0  0  0
   20.5460   -8.6353  -16.8345 N   0  0  0  0  0  0  0  0  0  0  0  0
   21.0658   -6.3771  -17.5329 C   0  0  0  0  0  0  0  0  0  0  0  0
   21.8233   -6.9203  -18.3719 O   0  0  0  0  0  0  0  0  0  0  0  0
   20.8142   -5.0264  -17.6912 O   0  0  0  0  0  0  0  0  0  0  0  0
  2  1  1  6
  3  2  1  0
  4  2  1  0
  4  5  2  0
  6  4  1  0
  7  6  1  0
  7 10  1  0
  7  8  1  6
  9  8  1  0
 10 18  1  0
 11 10  2  0
 13 12  1  0
 13 15  1  0
 14 13  2  0
 15 16  1  0
 17 16  1  1
 17 19  1  0
 18 17  1  0
 19 20  2  0
 19 21  1  0
M  END
$$$$
