ACQ.pdb
     RDKit          3D

 21 20  0  0  1  0  0  0  0  0999 V2000
   19.3476  -12.5588  -16.0691 C   0  0  0  0  0  0  0  0  0  0  0  0
   18.3823  -11.4130  -15.9417 C   0  0  2  0  0  0  0  0  0  0  0  0
   18.3581  -10.6185  -17.1722 N   0  0  0  0  0  0  0  0  0  0  0  0
   18.7438  -10.5006  -14.8253 C   0  0  0  0  0  0  0  0  0  0  0  0
   18.8189  -10.9834  -13.6561 O   0  0  0  0  0  0  0  0  0  0  0  0
   19.0096   -9.1321  -14.9771 N   0  0  0  0  0  0  0  0  0  0  0  0
   19.3137   -8.2657  -13.8138 C   0  0  1  0  0  0  0  0  0  0  0  0
   20.4451   -7.3748  -14.3171 C   0  0  0  0  0  0  0  0  0  0  0  0
   22.0260   -8.1775  -14.1002 S   0  0  0  0  0  0  0  0  0  0  0  0
   18.1174   -7.4906  -13.4869 C   0  0  0  0  0  0  0  0  0  0  0  0
   17.3227   -7.1370  -14.4053 O   0  0  0  0  0  0  0  0  0  0  0  0
   15.6105   -6.9983   -7.6422 N   0  0  0  0  0  0  0  0  0  0  0  0
   14.7166   -6.2838   -8.4735 C   0  0  0  0  0  0  0  0  0  0  0  0
   13.6712   -5.8273   -7.9559 O   0  0  0  0  0  0  0  0  0  0  0  0
   14.9575   -6.0540   -9.9124 C   0  0  0  0  0  0  0  0  0  0  0  0
   16.1794   -6.6874  -10.4631 C   0  0  0  0  0  0  0  0  0  0  0  0
   16.4851   -6.4196  -11.8971 C   0  0  2  0  0  0  0  0  0  0  0  0
   17.7668   -7.0927  -12.1785 N   0  0  0  0  0  0  0  0  0  0  0  0
   16.5645   -4.9931  -12.2384 C   0  0  0  0  0  0  0  0  0  0  0  0
   15.5360   -4.4330  -12.6874 O   0  0  0  0  0  0  0  0  0  0  0  0
   17.6985   -4.2134  -12.1007 O   0  0  0  0  0  0  0  0  0  0  0  0
  2  1  1  6
  3  2  1  0
  4  2  1  0
  4  5  2  0
  6  4  1  0
  7  6  1  0
  7 10  1  0
  7  8  1  6
  9  8  1  0
 10 18  1  0
 11 10  2  0
 13 12  1  0
 13 15  1  0
 14 13  2  0
 15 16  1  0
 17 16  1  1
 17 19  1  0
 18 17  1  0
 19 20  2  0
 19 21  1  0
M  END
$$$$
