PKY.pdb
     RDKit          3D

 29 30  0  0  1  0  0  0  0  0999 V2000
   23.4011  -12.7594  -16.7447 N   0  0  0  0  0  0  0  0  0  0  0  0
   24.2375  -13.6982  -17.4393 C   0  0  0  0  0  0  0  0  0  0  0  0
   25.6216  -13.5571  -16.8246 C   0  0  0  0  0  0  0  0  0  0  0  0
   25.6150  -12.1321  -16.3841 C   0  0  0  0  0  0  0  0  0  0  0  0
   24.2035  -11.8365  -16.0222 C   0  0  1  0  0  0  0  0  0  0  0  0
   23.8286  -10.4182  -16.2531 C   0  0  0  0  0  0  0  0  0  0  0  0
   24.4840   -9.5249  -15.6526 O   0  0  0  0  0  0  0  0  0  0  0  0
   22.7802   -9.9963  -17.1060 N   0  0  0  0  0  0  0  0  0  0  0  0
   22.3827   -8.6403  -17.2948 C   0  0  1  0  0  0  0  0  0  0  0  0
   21.6102   -8.4169  -18.5712 C   0  0  0  0  0  0  0  0  0  0  0  0
   22.4901   -8.6942  -19.7693 C   0  0  0  0  0  0  0  0  0  0  0  0
   21.6458   -8.4073  -20.9961 C   0  0  0  0  0  0  0  0  0  0  0  0
   22.4524   -8.7493  -22.2400 C   0  0  0  0  0  0  0  0  0  0  0  0
   21.6321   -8.4162  -23.3800 N   0  0  0  0  0  0  0  0  0  0  0  0
   21.5776   -8.1245  -16.1295 C   0  0  0  0  0  0  0  0  0  0  0  0
   20.6484   -8.8588  -15.7091 O   0  0  0  0  0  0  0  0  0  0  0  0
   18.3773   -3.9900   -9.1741 O   0  0  0  0  0  0  0  0  0  0  0  0
   19.2155   -4.5303  -10.1647 C   0  0  0  0  0  0  0  0  0  0  0  0
   19.7953   -3.7014  -11.0831 C   0  0  0  0  0  0  0  0  0  0  0  0
   20.6330   -4.2095  -12.0789 C   0  0  0  0  0  0  0  0  0  0  0  0
   20.9027   -5.5549  -12.1712 C   0  0  0  0  0  0  0  0  0  0  0  0
   21.7782   -6.0781  -13.2339 C   0  0  0  0  0  0  0  0  0  0  0  0
   20.9935   -6.3462  -14.4754 C   0  0  2  0  0  0  0  0  0  0  0  0
   21.8402   -6.8877  -15.5326 N   0  0  0  0  0  0  0  0  0  0  0  0
   20.2451   -5.1671  -14.9529 C   0  0  0  0  0  0  0  0  0  0  0  0
   18.8983   -5.0626  -14.5531 O   0  0  0  0  0  0  0  0  0  0  0  0
   20.2956   -6.3771  -11.2184 C   0  0  0  0  0  0  0  0  0  0  0  0
   19.4751   -5.8728  -10.2437 C   0  0  0  0  0  0  0  0  0  0  0  0
   20.7101   -4.2572  -15.6813 O   0  0  0  0  0  0  0  0  0  0  0  0
  1  5  1  0
  2  1  1  0
  3  2  1  0
  3  4  1  0
  4  5  1  0
  5  6  1  6
  6  7  2  0
  8  9  1  0
  8  6  1  0
  9 15  1  0
 10 11  1  0
  9 10  1  6
 11 12  1  0
 13 12  1  0
 14 13  1  0
 15 16  2  0
 15 24  1  0
 17 18  1  0
 18 19  2  0
 18 28  1  0
 19 20  1  0
 20 21  2  0
 21 22  1  0
 23 22  1  1
 23 25  1  0
 24 23  1  0
 25 29  2  0
 25 26  1  0
 27 21  1  0
 28 27  2  0
M  END
$$$$
