PKY.pdb
     RDKit          3D

 29 30  0  0  1  0  0  0  0  0999 V2000
   22.0421  -12.2840  -18.1547 N   0  0  0  0  0  0  0  0  0  0  0  0
   21.9930  -13.1904  -19.2681 C   0  0  0  0  0  0  0  0  0  0  0  0
   22.9313  -12.6129  -20.3167 C   0  0  0  0  0  0  0  0  0  0  0  0
   22.8570  -11.1530  -20.0206 C   0  0  0  0  0  0  0  0  0  0  0  0
   22.6379  -11.0577  -18.5530 C   0  0  1  0  0  0  0  0  0  0  0  0
   21.8513   -9.8614  -18.1588 C   0  0  0  0  0  0  0  0  0  0  0  0
   22.3408   -8.7243  -18.3939 O   0  0  0  0  0  0  0  0  0  0  0  0
   20.5819   -9.9088  -17.5334 N   0  0  0  0  0  0  0  0  0  0  0  0
   19.7955   -8.7661  -17.2043 C   0  0  1  0  0  0  0  0  0  0  0  0
   18.3108   -9.0280  -17.2571 C   0  0  0  0  0  0  0  0  0  0  0  0
   17.8386   -9.0690  -18.6930 C   0  0  0  0  0  0  0  0  0  0  0  0
   16.3536   -9.3736  -18.6468 C   0  0  0  0  0  0  0  0  0  0  0  0
   15.8074   -9.3780  -20.0668 C   0  0  0  0  0  0  0  0  0  0  0  0
   14.4228   -9.7782  -19.9855 N   0  0  0  0  0  0  0  0  0  0  0  0
   20.1545   -8.2094  -15.8502 C   0  0  0  0  0  0  0  0  0  0  0  0
   19.8224   -8.8905  -14.8476 O   0  0  0  0  0  0  0  0  0  0  0  0
   25.9614   -4.3196  -18.0064 O   0  0  0  0  0  0  0  0  0  0  0  0
   25.1365   -4.8881  -17.0204 C   0  0  0  0  0  0  0  0  0  0  0  0
   24.8195   -6.2153  -17.0897 C   0  0  0  0  0  0  0  0  0  0  0  0
   24.0022   -6.8081  -16.1241 C   0  0  0  0  0  0  0  0  0  0  0  0
   23.4893   -6.0816  -15.0751 C   0  0  0  0  0  0  0  0  0  0  0  0
   22.6188   -6.7171  -14.0711 C   0  0  0  0  0  0  0  0  0  0  0  0
   21.1818   -6.4646  -14.3875 C   0  0  2  0  0  0  0  0  0  0  0  0
   20.8262   -6.9924  -15.7001 N   0  0  0  0  0  0  0  0  0  0  0  0
   20.8053   -5.0422  -14.2728 C   0  0  0  0  0  0  0  0  0  0  0  0
   20.8910   -4.4618  -12.9920 O   0  0  0  0  0  0  0  0  0  0  0  0
   23.8309   -4.7275  -15.0312 C   0  0  0  0  0  0  0  0  0  0  0  0
   24.6333   -4.1517  -15.9810 C   0  0  0  0  0  0  0  0  0  0  0  0
   20.4178   -4.3143  -15.2187 O   0  0  0  0  0  0  0  0  0  0  0  0
  1  5  1  0
  2  1  1  0
  3  2  1  0
  3  4  1  0
  4  5  1  0
  5  6  1  6
  6  7  2  0
  8  9  1  0
  8  6  1  0
  9 15  1  0
 10 11  1  0
  9 10  1  1
 11 12  1  0
 13 12  1  0
 14 13  1  0
 15 16  2  0
 15 24  1  0
 17 18  1  0
 18 19  2  0
 18 28  1  0
 19 20  1  0
 20 21  2  0
 21 22  1  0
 23 22  1  6
 23 25  1  0
 24 23  1  0
 25 29  2  0
 25 26  1  0
 27 21  1  0
 28 27  2  0
M  END
$$$$
