PKY.pdb
     RDKit          3D

 29 30  0  0  1  0  0  0  0  0999 V2000
   24.4183  -19.9825  -20.0190 N   0  0  0  0  0  0  0  0  0  0  0  0
   25.6576  -20.2244  -20.7039 C   0  0  0  0  0  0  0  0  0  0  0  0
   25.6451  -21.6984  -21.0790 C   0  0  0  0  0  0  0  0  0  0  0  0
   24.7982  -22.2803  -19.9979 C   0  0  0  0  0  0  0  0  0  0  0  0
   23.8222  -21.2160  -19.6440 C   0  0  1  0  0  0  0  0  0  0  0  0
   23.4020  -21.2621  -18.2204 C   0  0  0  0  0  0  0  0  0  0  0  0
   22.7953  -22.2886  -17.8128 O   0  0  0  0  0  0  0  0  0  0  0  0
   23.6367  -20.2275  -17.2827 N   0  0  0  0  0  0  0  0  0  0  0  0
   23.3037  -20.2952  -15.8983 C   0  0  1  0  0  0  0  0  0  0  0  0
   24.5080  -20.2408  -14.9912 C   0  0  0  0  0  0  0  0  0  0  0  0
   24.0839  -20.4105  -13.5497 C   0  0  0  0  0  0  0  0  0  0  0  0
   25.3600  -20.4676  -12.7320 C   0  0  0  0  0  0  0  0  0  0  0  0
   24.9992  -20.6955  -11.2716 C   0  0  0  0  0  0  0  0  0  0  0  0
   26.2393  -20.8547  -10.5501 N   0  0  0  0  0  0  0  0  0  0  0  0
   22.3329  -19.2125  -15.5014 C   0  0  0  0  0  0  0  0  0  0  0  0
   22.6342  -18.0336  -15.8156 O   0  0  0  0  0  0  0  0  0  0  0  0
   20.1371  -21.1832   -8.7693 O   0  0  0  0  0  0  0  0  0  0  0  0
   19.8331  -20.6279  -10.0243 C   0  0  0  0  0  0  0  0  0  0  0  0
   19.8715  -21.4179  -11.1384 C   0  0  0  0  0  0  0  0  0  0  0  0
   19.5740  -20.8941  -12.3989 C   0  0  0  0  0  0  0  0  0  0  0  0
   19.2341  -19.5717  -12.5636 C   0  0  0  0  0  0  0  0  0  0  0  0
   18.9348  -19.0302  -13.9003 C   0  0  0  0  0  0  0  0  0  0  0  0
   20.1647  -18.4538  -14.5203 C   0  0  2  0  0  0  0  0  0  0  0  0
   21.1472  -19.4910  -14.8148 N   0  0  0  0  0  0  0  0  0  0  0  0
   20.7661  -17.3727  -13.7156 C   0  0  0  0  0  0  0  0  0  0  0  0
   20.0374  -16.1712  -13.6167 O   0  0  0  0  0  0  0  0  0  0  0  0
   19.2033  -18.7892  -11.4064 C   0  0  0  0  0  0  0  0  0  0  0  0
   19.4958  -19.3087  -10.1727 C   0  0  0  0  0  0  0  0  0  0  0  0
   21.8671  -17.4386  -13.1169 O   0  0  0  0  0  0  0  0  0  0  0  0
  1  5  1  0
  2  1  1  0
  3  2  1  0
  3  4  1  0
  4  5  1  0
  5  6  1  1
  6  7  2  0
  8  9  1  0
  8  6  1  0
  9 15  1  0
 10 11  1  0
  9 10  1  1
 11 12  1  0
 13 12  1  0
 14 13  1  0
 15 16  2  0
 15 24  1  0
 17 18  1  0
 18 19  2  0
 18 28  1  0
 19 20  1  0
 20 21  2  0
 21 22  1  0
 23 22  1  1
 23 25  1  0
 24 23  1  0
 25 29  2  0
 25 26  1  0
 27 21  1  0
 28 27  2  0
M  END
$$$$
