PKY.pdb
     RDKit          3D

 29 30  0  0  1  0  0  0  0  0999 V2000
   14.5187  -12.2065   11.4477 N   0  0  0  0  0  0  0  0  0  0  0  0
   14.4131  -11.3758   12.6148 C   0  0  0  0  0  0  0  0  0  0  0  0
   13.4629  -10.2490   12.2392 C   0  0  0  0  0  0  0  0  0  0  0  0
   13.6867  -10.1398   10.7686 C   0  0  0  0  0  0  0  0  0  0  0  0
   14.0097  -11.5182   10.3143 C   0  0  1  0  0  0  0  0  0  0  0  0
   14.9243  -11.5457    9.1446 C   0  0  0  0  0  0  0  0  0  0  0  0
   14.5044  -11.0817    8.0508 O   0  0  0  0  0  0  0  0  0  0  0  0
   16.2433  -12.0596    9.1720 N   0  0  0  0  0  0  0  0  0  0  0  0
   17.1451  -12.0416    8.0680 C   0  0  1  0  0  0  0  0  0  0  0  0
   18.5551  -11.6701    8.4549 C   0  0  0  0  0  0  0  0  0  0  0  0
   19.4309  -11.5934    7.2246 C   0  0  0  0  0  0  0  0  0  0  0  0
   20.8131  -11.1971    7.7072 C   0  0  0  0  0  0  0  0  0  0  0  0
   21.7353  -11.0641    6.5044 C   0  0  0  0  0  0  0  0  0  0  0  0
   23.0464  -10.7363    7.0116 N   0  0  0  0  0  0  0  0  0  0  0  0
   17.1611  -13.3590    7.3355 C   0  0  0  0  0  0  0  0  0  0  0  0
   17.1971  -14.4010    8.0373 O   0  0  0  0  0  0  0  0  0  0  0  0
   16.8560  -19.5455    1.1000 O   0  0  0  0  0  0  0  0  0  0  0  0
   16.9002  -18.3048    1.7592 C   0  0  0  0  0  0  0  0  0  0  0  0
   18.0783  -17.6155    1.8204 C   0  0  0  0  0  0  0  0  0  0  0  0
   18.1527  -16.3800    2.4684 C   0  0  0  0  0  0  0  0  0  0  0  0
   17.0496  -15.8161    3.0655 C   0  0  0  0  0  0  0  0  0  0  0  0
   17.1455  -14.5185    3.7558 C   0  0  0  0  0  0  0  0  0  0  0  0
   17.1690  -14.7123    5.2360 C   0  0  2  0  0  0  0  0  0  0  0  0
   17.1374  -13.4349    5.9396 N   0  0  0  0  0  0  0  0  0  0  0  0
   18.3041  -15.5370    5.6937 C   0  0  0  0  0  0  0  0  0  0  0  0
   18.0468  -16.9026    5.9253 O   0  0  0  0  0  0  0  0  0  0  0  0
   15.8598  -16.5444    2.9863 C   0  0  0  0  0  0  0  0  0  0  0  0
   15.7928  -17.7555    2.3490 C   0  0  0  0  0  0  0  0  0  0  0  0
   19.4714  -15.1213    5.8915 O   0  0  0  0  0  0  0  0  0  0  0  0
  1  5  1  0
  2  1  1  0
  3  2  1  0
  3  4  1  0
  4  5  1  0
  5  6  1  6
  6  7  2  0
  8  9  1  0
  8  6  1  0
  9 15  1  0
 10 11  1  0
  9 10  1  1
 11 12  1  0
 13 12  1  0
 14 13  1  0
 15 16  2  0
 15 24  1  0
 17 18  1  0
 18 19  2  0
 18 28  1  0
 19 20  1  0
 20 21  2  0
 21 22  1  0
 23 22  1  6
 23 25  1  0
 24 23  1  0
 25 29  2  0
 25 26  1  0
 27 21  1  0
 28 27  2  0
M  END
$$$$
