PKY.pdb
     RDKit          3D

 29 30  0  0  1  0  0  0  0  0999 V2000
   23.9382  -15.9466  -19.2357 N   0  0  0  0  0  0  0  0  0  0  0  0
   25.2364  -15.4070  -19.5310 C   0  0  0  0  0  0  0  0  0  0  0  0
   25.6116  -15.9511  -20.9009 C   0  0  0  0  0  0  0  0  0  0  0  0
   24.8741  -17.2473  -20.9260 C   0  0  0  0  0  0  0  0  0  0  0  0
   23.6458  -17.0191  -20.1197 C   0  0  1  0  0  0  0  0  0  0  0  0
   23.1683  -18.2434  -19.4281 C   0  0  0  0  0  0  0  0  0  0  0  0
   22.3490  -18.9862  -20.0323 O   0  0  0  0  0  0  0  0  0  0  0  0
   23.5714  -18.6376  -18.1293 N   0  0  0  0  0  0  0  0  0  0  0  0
   23.1918  -19.8572  -17.4962 C   0  0  1  0  0  0  0  0  0  0  0  0
   24.2579  -20.4142  -16.5857 C   0  0  0  0  0  0  0  0  0  0  0  0
   25.3566  -21.0580  -17.4012 C   0  0  0  0  0  0  0  0  0  0  0  0
   26.4174  -21.5043  -16.4134 C   0  0  0  0  0  0  0  0  0  0  0  0
   27.5146  -22.2401  -17.1680 C   0  0  0  0  0  0  0  0  0  0  0  0
   28.4889  -22.6631  -16.1905 N   0  0  0  0  0  0  0  0  0  0  0  0
   21.9051  -19.7116  -16.7245 C   0  0  0  0  0  0  0  0  0  0  0  0
   21.5475  -18.5440  -16.4276 O   0  0  0  0  0  0  0  0  0  0  0  0
   18.3939  -14.6145  -17.3377 O   0  0  0  0  0  0  0  0  0  0  0  0
   18.5324  -16.0133  -17.3246 C   0  0  0  0  0  0  0  0  0  0  0  0
   17.9666  -16.7374  -16.3136 C   0  0  0  0  0  0  0  0  0  0  0  0
   18.0873  -18.1287  -16.2741 C   0  0  0  0  0  0  0  0  0  0  0  0
   18.7767  -18.8162  -17.2455 C   0  0  0  0  0  0  0  0  0  0  0  0
   18.9063  -20.2822  -17.1846 C   0  0  0  0  0  0  0  0  0  0  0  0
   19.7224  -20.6879  -16.0020 C   0  0  2  0  0  0  0  0  0  0  0  0
   21.1335  -20.8154  -16.3488 N   0  0  0  0  0  0  0  0  0  0  0  0
   19.2274  -21.9167  -15.3515 C   0  0  0  0  0  0  0  0  0  0  0  0
   18.2557  -21.7571  -14.3441 O   0  0  0  0  0  0  0  0  0  0  0  0
   19.3439  -18.0486  -18.2660 C   0  0  0  0  0  0  0  0  0  0  0  0
   19.2218  -16.6842  -18.2995 C   0  0  0  0  0  0  0  0  0  0  0  0
   19.6008  -23.0836  -15.6226 O   0  0  0  0  0  0  0  0  0  0  0  0
  1  5  1  0
  2  1  1  0
  3  2  1  0
  3  4  1  0
  4  5  1  0
  5  6  1  1
  6  7  2  0
  8  9  1  0
  8  6  1  0
  9 15  1  0
 10 11  1  0
  9 10  1  1
 11 12  1  0
 13 12  1  0
 14 13  1  0
 15 16  2  0
 15 24  1  0
 17 18  1  0
 18 19  2  0
 18 28  1  0
 19 20  1  0
 20 21  2  0
 21 22  1  0
 23 22  1  6
 23 25  1  0
 24 23  1  0
 25 29  2  0
 25 26  1  0
 27 21  1  0
 28 27  2  0
M  END
$$$$
