PKY.pdb
     RDKit          3D

 29 30  0  0  1  0  0  0  0  0999 V2000
   18.0749  -15.6221  -18.1741 N   0  0  0  0  0  0  0  0  0  0  0  0
   19.1299  -16.2856  -18.8885 C   0  0  0  0  0  0  0  0  0  0  0  0
   18.7673  -16.1775  -20.3617 C   0  0  0  0  0  0  0  0  0  0  0  0
   17.2779  -16.1208  -20.3051 C   0  0  0  0  0  0  0  0  0  0  0  0
   16.9566  -15.4296  -19.0285 C   0  0  1  0  0  0  0  0  0  0  0  0
   15.6720  -15.8764  -18.4324 C   0  0  0  0  0  0  0  0  0  0  0  0
   14.6181  -15.7188  -19.1050 O   0  0  0  0  0  0  0  0  0  0  0  0
   15.5472  -16.4709  -17.1534 N   0  0  0  0  0  0  0  0  0  0  0  0
   14.3317  -16.9800  -16.6096 C   0  0  1  0  0  0  0  0  0  0  0  0
   14.5416  -18.1138  -15.6369 C   0  0  0  0  0  0  0  0  0  0  0  0
   15.1302  -19.3107  -16.3494 C   0  0  0  0  0  0  0  0  0  0  0  0
   15.2710  -20.4030  -15.3067 C   0  0  0  0  0  0  0  0  0  0  0  0
   15.9091  -21.6229  -15.9545 C   0  0  0  0  0  0  0  0  0  0  0  0
   16.1730  -22.5719  -14.8993 N   0  0  0  0  0  0  0  0  0  0  0  0
   13.5184  -15.8987  -15.9449 C   0  0  0  0  0  0  0  0  0  0  0  0
   14.1389  -15.0875  -15.2126 O   0  0  0  0  0  0  0  0  0  0  0  0
    7.1784  -10.1744  -13.9520 O   0  0  0  0  0  0  0  0  0  0  0  0
    7.9238  -11.1991  -14.5603 C   0  0  0  0  0  0  0  0  0  0  0  0
    7.6589  -12.5024  -14.2474 C   0  0  0  0  0  0  0  0  0  0  0  0
    8.3829  -13.5421  -14.8361 C   0  0  0  0  0  0  0  0  0  0  0  0
    9.3833  -13.2932  -15.7464 C   0  0  0  0  0  0  0  0  0  0  0  0
   10.1468  -14.3989  -16.3500 C   0  0  0  0  0  0  0  0  0  0  0  0
   11.3660  -14.6972  -15.5415 C   0  0  2  0  0  0  0  0  0  0  0  0
   12.1362  -15.7899  -16.1251 N   0  0  0  0  0  0  0  0  0  0  0  0
   11.0674  -14.9641  -14.1211 C   0  0  0  0  0  0  0  0  0  0  0  0
   10.9972  -13.8482  -13.2642 O   0  0  0  0  0  0  0  0  0  0  0  0
    9.6310  -11.9511  -16.0461 C   0  0  0  0  0  0  0  0  0  0  0  0
    8.9172  -10.9357  -15.4657 C   0  0  0  0  0  0  0  0  0  0  0  0
   10.8725  -16.0980  -13.6199 O   0  0  0  0  0  0  0  0  0  0  0  0
  1  5  1  0
  2  1  1  0
  3  2  1  0
  3  4  1  0
  4  5  1  0
  5  6  1  1
  6  7  2  0
  8  9  1  0
  8  6  1  0
  9 15  1  0
 10 11  1  0
  9 10  1  1
 11 12  1  0
 13 12  1  0
 14 13  1  0
 15 16  2  0
 15 24  1  0
 17 18  1  0
 18 19  2  0
 18 28  1  0
 19 20  1  0
 20 21  2  0
 21 22  1  0
 23 22  1  6
 23 25  1  0
 24 23  1  0
 25 29  2  0
 25 26  1  0
 27 21  1  0
 28 27  2  0
M  END
$$$$
