PKY.pdb
     RDKit          3D

 29 30  0  0  1  0  0  0  0  0999 V2000
   27.2085  -20.5122  -16.0790 N   0  0  0  0  0  0  0  0  0  0  0  0
   26.8825  -20.2732  -17.4575 C   0  0  0  0  0  0  0  0  0  0  0  0
   27.0146  -18.7718  -17.6623 C   0  0  0  0  0  0  0  0  0  0  0  0
   26.6997  -18.2502  -16.3009 C   0  0  0  0  0  0  0  0  0  0  0  0
   27.1879  -19.2895  -15.3564 C   0  0  1  0  0  0  0  0  0  0  0  0
   26.3941  -19.3556  -14.1031 C   0  0  0  0  0  0  0  0  0  0  0  0
   26.2125  -18.2886  -13.4577 O   0  0  0  0  0  0  0  0  0  0  0  0
   25.8230  -20.5404  -13.5790 N   0  0  0  0  0  0  0  0  0  0  0  0
   24.9574  -20.5933  -12.4475 C   0  0  1  0  0  0  0  0  0  0  0  0
   23.8050  -21.5511  -12.6218 C   0  0  0  0  0  0  0  0  0  0  0  0
   22.7070  -20.9041  -13.4358 C   0  0  0  0  0  0  0  0  0  0  0  0
   21.6048  -21.9377  -13.5658 C   0  0  0  0  0  0  0  0  0  0  0  0
   20.4262  -21.3115  -14.2963 C   0  0  0  0  0  0  0  0  0  0  0  0
   20.2984  -21.9990  -15.5592 N   0  0  0  0  0  0  0  0  0  0  0  0
   25.7050  -20.9393  -11.1851 C   0  0  0  0  0  0  0  0  0  0  0  0
   26.3274  -22.0311  -11.1723 O   0  0  0  0  0  0  0  0  0  0  0  0
   29.7343  -20.5725   -3.4042 O   0  0  0  0  0  0  0  0  0  0  0  0
   29.1597  -20.2792   -4.6530 C   0  0  0  0  0  0  0  0  0  0  0  0
   28.0992  -19.4206   -4.7223 C   0  0  0  0  0  0  0  0  0  0  0  0
   27.5077  -19.1100   -5.9493 C   0  0  0  0  0  0  0  0  0  0  0  0
   27.9682  -19.6544   -7.1253 C   0  0  0  0  0  0  0  0  0  0  0  0
   27.3269  -19.3275   -8.4104 C   0  0  0  0  0  0  0  0  0  0  0  0
   26.4324  -20.4397   -8.8483 C   0  0  2  0  0  0  0  0  0  0  0  0
   25.7153  -20.0948  -10.0709 N   0  0  0  0  0  0  0  0  0  0  0  0
   25.4960  -20.8779   -7.7951 C   0  0  0  0  0  0  0  0  0  0  0  0
   26.0210  -21.6975   -6.7767 O   0  0  0  0  0  0  0  0  0  0  0  0
   29.0534  -20.5285   -7.0224 C   0  0  0  0  0  0  0  0  0  0  0  0
   29.6296  -20.8291   -5.8161 C   0  0  0  0  0  0  0  0  0  0  0  0
   24.2783  -20.5805   -7.7355 O   0  0  0  0  0  0  0  0  0  0  0  0
  1  5  1  0
  2  1  1  0
  3  2  1  0
  3  4  1  0
  4  5  1  0
  5  6  1  1
  6  7  2  0
  8  9  1  0
  8  6  1  0
  9 15  1  0
 10 11  1  0
  9 10  1  6
 11 12  1  0
 13 12  1  0
 14 13  1  0
 15 16  2  0
 15 24  1  0
 17 18  1  0
 18 19  2  0
 18 28  1  0
 19 20  1  0
 20 21  2  0
 21 22  1  0
 23 22  1  1
 23 25  1  0
 24 23  1  0
 25 29  2  0
 25 26  1  0
 27 21  1  0
 28 27  2  0
M  END
$$$$
