PKY.pdb
     RDKit          3D

 29 30  0  0  1  0  0  0  0  0999 V2000
   23.9144  -16.2475  -17.8966 N   0  0  0  0  0  0  0  0  0  0  0  0
   23.4974  -15.8754  -19.2199 C   0  0  0  0  0  0  0  0  0  0  0  0
   22.0806  -15.3414  -19.0753 C   0  0  0  0  0  0  0  0  0  0  0  0
   21.5901  -16.0978  -17.8871 C   0  0  0  0  0  0  0  0  0  0  0  0
   22.7882  -16.3139  -17.0335 C   0  0  1  0  0  0  0  0  0  0  0  0
   22.7207  -17.5694  -16.2433 C   0  0  0  0  0  0  0  0  0  0  0  0
   21.7648  -17.7120  -15.4347 O   0  0  0  0  0  0  0  0  0  0  0  0
   23.6607  -18.6243  -16.3353 N   0  0  0  0  0  0  0  0  0  0  0  0
   23.5937  -19.8388  -15.5918 C   0  0  1  0  0  0  0  0  0  0  0  0
   23.9863  -21.0534  -16.3959 C   0  0  0  0  0  0  0  0  0  0  0  0
   22.9588  -21.3210  -17.4726 C   0  0  0  0  0  0  0  0  0  0  0  0
   23.4863  -22.4862  -18.2876 C   0  0  0  0  0  0  0  0  0  0  0  0
   22.5033  -22.7880  -19.4089 C   0  0  0  0  0  0  0  0  0  0  0  0
   23.0029  -23.9480  -20.1078 N   0  0  0  0  0  0  0  0  0  0  0  0
   24.4331  -19.7778  -14.3412 C   0  0  0  0  0  0  0  0  0  0  0  0
   25.0562  -18.7081  -14.1245 O   0  0  0  0  0  0  0  0  0  0  0  0
   27.6602  -19.3876   -6.4471 O   0  0  0  0  0  0  0  0  0  0  0  0
   26.9136  -19.5024   -7.6326 C   0  0  0  0  0  0  0  0  0  0  0  0
   27.0824  -18.5814   -8.6275 C   0  0  0  0  0  0  0  0  0  0  0  0
   26.3548  -18.6699   -9.8168 C   0  0  0  0  0  0  0  0  0  0  0  0
   25.4468  -19.6810  -10.0281 C   0  0  0  0  0  0  0  0  0  0  0  0
   24.6776  -19.7548  -11.2821 C   0  0  0  0  0  0  0  0  0  0  0  0
   25.2766  -20.7628  -12.2063 C   0  0  2  0  0  0  0  0  0  0  0  0
   24.5245  -20.8536  -13.4529 N   0  0  0  0  0  0  0  0  0  0  0  0
   25.4331  -22.0937  -11.5882 C   0  0  0  0  0  0  0  0  0  0  0  0
   26.7254  -22.4453  -11.1512 O   0  0  0  0  0  0  0  0  0  0  0  0
   25.2962  -20.6073   -8.9929 C   0  0  0  0  0  0  0  0  0  0  0  0
   26.0130  -20.5155   -7.8287 C   0  0  0  0  0  0  0  0  0  0  0  0
   24.5131  -22.9308  -11.4222 O   0  0  0  0  0  0  0  0  0  0  0  0
  1  5  1  0
  2  1  1  0
  3  2  1  0
  3  4  1  0
  4  5  1  0
  5  6  1  6
  6  7  2  0
  8  9  1  0
  8  6  1  0
  9 15  1  0
 10 11  1  0
  9 10  1  6
 11 12  1  0
 13 12  1  0
 14 13  1  0
 15 16  2  0
 15 24  1  0
 17 18  1  0
 18 19  2  0
 18 28  1  0
 19 20  1  0
 20 21  2  0
 21 22  1  0
 23 22  1  1
 23 25  1  0
 24 23  1  0
 25 29  2  0
 25 26  1  0
 27 21  1  0
 28 27  2  0
M  END
$$$$
