PKY.pdb
     RDKit          3D

 29 30  0  0  1  0  0  0  0  0999 V2000
   28.8658  -24.1909  -18.2947 N   0  0  0  0  0  0  0  0  0  0  0  0
   29.8529  -24.3292  -19.3292 C   0  0  0  0  0  0  0  0  0  0  0  0
   31.1319  -23.7277  -18.7673 C   0  0  0  0  0  0  0  0  0  0  0  0
   30.5977  -22.7079  -17.8190 C   0  0  0  0  0  0  0  0  0  0  0  0
   29.3188  -23.2715  -17.3114 C   0  0  1  0  0  0  0  0  0  0  0  0
   28.3183  -22.2285  -16.9702 C   0  0  0  0  0  0  0  0  0  0  0  0
   28.6143  -21.3906  -16.0767 O   0  0  0  0  0  0  0  0  0  0  0  0
   27.0472  -22.1082  -17.5821 N   0  0  0  0  0  0  0  0  0  0  0  0
   26.0915  -21.0954  -17.2770 C   0  0  1  0  0  0  0  0  0  0  0  0
   25.0667  -20.8942  -18.3657 C   0  0  0  0  0  0  0  0  0  0  0  0
   24.1892  -19.7057  -18.0434 C   0  0  0  0  0  0  0  0  0  0  0  0
   23.2060  -19.5757  -19.1910 C   0  0  0  0  0  0  0  0  0  0  0  0
   22.3390  -18.3470  -18.9598 C   0  0  0  0  0  0  0  0  0  0  0  0
   21.1642  -18.7874  -18.2460 N   0  0  0  0  0  0  0  0  0  0  0  0
   25.3852  -21.3653  -15.9730 C   0  0  0  0  0  0  0  0  0  0  0  0
   24.7103  -22.4229  -15.8985 O   0  0  0  0  0  0  0  0  0  0  0  0
   22.8330  -21.1776   -7.5814 O   0  0  0  0  0  0  0  0  0  0  0  0
   23.4537  -20.8512   -8.7996 C   0  0  0  0  0  0  0  0  0  0  0  0
   22.7517  -20.1687   -9.7525 C   0  0  0  0  0  0  0  0  0  0  0  0
   23.3422  -19.8303  -10.9726 C   0  0  0  0  0  0  0  0  0  0  0  0
   24.6440  -20.1704  -11.2577 C   0  0  0  0  0  0  0  0  0  0  0  0
   25.2498  -19.8177  -12.5531 C   0  0  0  0  0  0  0  0  0  0  0  0
   24.8179  -20.7769  -13.6126 C   0  0  2  0  0  0  0  0  0  0  0  0
   25.4674  -20.4890  -14.8866 N   0  0  0  0  0  0  0  0  0  0  0  0
   23.3522  -20.8416  -13.7721 C   0  0  0  0  0  0  0  0  0  0  0  0
   22.7511  -19.8339  -14.5518 O   0  0  0  0  0  0  0  0  0  0  0  0
   25.3359  -20.8676  -10.2640 C   0  0  0  0  0  0  0  0  0  0  0  0
   24.7515  -21.1964   -9.0691 C   0  0  0  0  0  0  0  0  0  0  0  0
   22.6045  -21.7166  -13.2720 O   0  0  0  0  0  0  0  0  0  0  0  0
  1  5  1  0
  2  1  1  0
  3  2  1  0
  3  4  1  0
  4  5  1  0
  5  6  1  6
  6  7  2  0
  8  9  1  0
  8  6  1  0
  9 15  1  0
 10 11  1  0
  9 10  1  6
 11 12  1  0
 13 12  1  0
 14 13  1  0
 15 16  2  0
 15 24  1  0
 17 18  1  0
 18 19  2  0
 18 28  1  0
 19 20  1  0
 20 21  2  0
 21 22  1  0
 23 22  1  1
 23 25  1  0
 24 23  1  0
 25 29  2  0
 25 26  1  0
 27 21  1  0
 28 27  2  0
M  END
$$$$
