PKY.pdb
     RDKit          3D

 29 30  0  0  1  0  0  0  0  0999 V2000
   27.5691  -27.5826  -21.9944 N   0  0  0  0  0  0  0  0  0  0  0  0
   27.6455  -26.9933  -23.3022 C   0  0  0  0  0  0  0  0  0  0  0  0
   26.7771  -27.8603  -24.2010 C   0  0  0  0  0  0  0  0  0  0  0  0
   26.8803  -29.1899  -23.5330 C   0  0  0  0  0  0  0  0  0  0  0  0
   27.0301  -28.8938  -22.0837 C   0  0  1  0  0  0  0  0  0  0  0  0
   27.8317  -29.9141  -21.3613 C   0  0  0  0  0  0  0  0  0  0  0  0
   27.3482  -31.0712  -21.2374 O   0  0  0  0  0  0  0  0  0  0  0  0
   29.1091  -29.6768  -20.7987 N   0  0  0  0  0  0  0  0  0  0  0  0
   29.8782  -30.6471  -20.0920 C   0  0  1  0  0  0  0  0  0  0  0  0
   31.3303  -30.2656  -19.9443 C   0  0  0  0  0  0  0  0  0  0  0  0
   32.0970  -31.3809  -19.2699 C   0  0  0  0  0  0  0  0  0  0  0  0
   33.5457  -30.9347  -19.2192 C   0  0  0  0  0  0  0  0  0  0  0  0
   34.3837  -32.0506  -18.6132 C   0  0  0  0  0  0  0  0  0  0  0  0
   35.7601  -31.6179  -18.6593 N   0  0  0  0  0  0  0  0  0  0  0  0
   29.2997  -30.9383  -18.7308 C   0  0  0  0  0  0  0  0  0  0  0  0
   29.0006  -29.9495  -18.0152 O   0  0  0  0  0  0  0  0  0  0  0  0
   24.7207  -34.1709  -12.0948 O   0  0  0  0  0  0  0  0  0  0  0  0
   25.2983  -33.8302  -13.3301 C   0  0  0  0  0  0  0  0  0  0  0  0
   25.1851  -32.5513  -13.7974 C   0  0  0  0  0  0  0  0  0  0  0  0
   25.7490  -32.1831  -15.0215 C   0  0  0  0  0  0  0  0  0  0  0  0
   26.4342  -33.0894  -15.7965 C   0  0  0  0  0  0  0  0  0  0  0  0
   27.0131  -32.6902  -17.0908 C   0  0  0  0  0  0  0  0  0  0  0  0
   28.4916  -32.5192  -16.9737 C   0  0  2  0  0  0  0  0  0  0  0  0
   29.0989  -32.2434  -18.2711 N   0  0  0  0  0  0  0  0  0  0  0  0
   29.1557  -33.6601  -16.3140 C   0  0  0  0  0  0  0  0  0  0  0  0
   29.4436  -33.5232  -14.9418 O   0  0  0  0  0  0  0  0  0  0  0  0
   26.5332  -34.3887  -15.2923 C   0  0  0  0  0  0  0  0  0  0  0  0
   25.9783  -34.7438  -14.0909 C   0  0  0  0  0  0  0  0  0  0  0  0
   29.4817  -34.7346  -16.8743 O   0  0  0  0  0  0  0  0  0  0  0  0
  1  5  1  0
  2  1  1  0
  3  2  1  0
  3  4  1  0
  4  5  1  0
  5  6  1  6
  6  7  2  0
  8  9  1  0
  8  6  1  0
  9 15  1  0
 10 11  1  0
  9 10  1  1
 11 12  1  0
 13 12  1  0
 14 13  1  0
 15 16  2  0
 15 24  1  0
 17 18  1  0
 18 19  2  0
 18 28  1  0
 19 20  1  0
 20 21  2  0
 21 22  1  0
 23 22  1  6
 23 25  1  0
 24 23  1  0
 25 29  2  0
 25 26  1  0
 27 21  1  0
 28 27  2  0
M  END
$$$$
