PKY.pdb
     RDKit          3D

 29 30  0  0  1  0  0  0  0  0999 V2000
   26.5255  -23.1348  -19.0656 N   0  0  0  0  0  0  0  0  0  0  0  0
   26.3874  -23.1549  -20.4953 C   0  0  0  0  0  0  0  0  0  0  0  0
   27.6423  -22.4934  -21.0441 C   0  0  0  0  0  0  0  0  0  0  0  0
   28.0023  -21.5594  -19.9384 C   0  0  0  0  0  0  0  0  0  0  0  0
   27.5574  -22.2339  -18.6903 C   0  0  1  0  0  0  0  0  0  0  0  0
   27.1531  -21.2803  -17.6261 C   0  0  0  0  0  0  0  0  0  0  0  0
   28.0605  -20.6932  -16.9780 O   0  0  0  0  0  0  0  0  0  0  0  0
   25.8113  -20.9822  -17.2864 N   0  0  0  0  0  0  0  0  0  0  0  0
   25.4116  -19.9572  -16.3798 C   0  0  1  0  0  0  0  0  0  0  0  0
   24.1452  -19.2516  -16.7972 C   0  0  0  0  0  0  0  0  0  0  0  0
   24.4233  -18.3228  -17.9576 C   0  0  0  0  0  0  0  0  0  0  0  0
   23.0852  -17.7394  -18.3692 C   0  0  0  0  0  0  0  0  0  0  0  0
   23.2908  -16.8424  -19.5807 C   0  0  0  0  0  0  0  0  0  0  0  0
   21.9952  -16.3197  -19.9440 N   0  0  0  0  0  0  0  0  0  0  0  0
   25.2488  -20.4822  -14.9761 C   0  0  0  0  0  0  0  0  0  0  0  0
   24.3652  -21.3571  -14.7937 O   0  0  0  0  0  0  0  0  0  0  0  0
   25.3184  -20.7292   -6.1732 O   0  0  0  0  0  0  0  0  0  0  0  0
   25.6712  -20.4941   -7.5134 C   0  0  0  0  0  0  0  0  0  0  0  0
   26.2705  -21.4860   -8.2368 C   0  0  0  0  0  0  0  0  0  0  0  0
   26.6321  -21.2817   -9.5707 C   0  0  0  0  0  0  0  0  0  0  0  0
   26.4001  -20.0813  -10.2005 C   0  0  0  0  0  0  0  0  0  0  0  0
   26.7978  -19.8758  -11.6038 C   0  0  0  0  0  0  0  0  0  0  0  0
   25.7278  -20.3556  -12.5279 C   0  0  2  0  0  0  0  0  0  0  0  0
   26.0371  -20.0267  -13.9150 N   0  0  0  0  0  0  0  0  0  0  0  0
   24.3840  -19.8696  -12.1591 C   0  0  0  0  0  0  0  0  0  0  0  0
   23.6253  -20.6864  -11.2979 O   0  0  0  0  0  0  0  0  0  0  0  0
   25.7860  -19.0865   -9.4351 C   0  0  0  0  0  0  0  0  0  0  0  0
   25.4333  -19.2930   -8.1273 C   0  0  0  0  0  0  0  0  0  0  0  0
   23.8676  -18.7944  -12.5490 O   0  0  0  0  0  0  0  0  0  0  0  0
  1  5  1  0
  2  1  1  0
  3  2  1  0
  3  4  1  0
  4  5  1  0
  5  6  1  1
  6  7  2  0
  8  9  1  0
  8  6  1  0
  9 15  1  0
 10 11  1  0
  9 10  1  6
 11 12  1  0
 13 12  1  0
 14 13  1  0
 15 16  2  0
 15 24  1  0
 17 18  1  0
 18 19  2  0
 18 28  1  0
 19 20  1  0
 20 21  2  0
 21 22  1  0
 23 22  1  1
 23 25  1  0
 24 23  1  0
 25 29  2  0
 25 26  1  0
 27 21  1  0
 28 27  2  0
M  END
$$$$
