PKY.pdb
     RDKit          3D

 29 30  0  0  1  0  0  0  0  0999 V2000
   44.8770  -16.9200  -10.7327 N   0  0  0  0  0  0  0  0  0  0  0  0
   45.3078  -18.2867  -10.6325 C   0  0  0  0  0  0  0  0  0  0  0  0
   44.0484  -19.1032  -10.3856 C   0  0  0  0  0  0  0  0  0  0  0  0
   43.1809  -18.1179   -9.6775 C   0  0  0  0  0  0  0  0  0  0  0  0
   43.5527  -16.7908  -10.2355 C   0  0  1  0  0  0  0  0  0  0  0  0
   43.3921  -15.6835   -9.2591 C   0  0  0  0  0  0  0  0  0  0  0  0
   42.2552  -15.5038   -8.7461 O   0  0  0  0  0  0  0  0  0  0  0  0
   44.4330  -14.8101   -8.8612 N   0  0  0  0  0  0  0  0  0  0  0  0
   44.3015  -13.7833   -7.8810 C   0  0  1  0  0  0  0  0  0  0  0  0
   45.6247  -13.3024   -7.3390 C   0  0  0  0  0  0  0  0  0  0  0  0
   46.3575  -14.4407   -6.6653 C   0  0  0  0  0  0  0  0  0  0  0  0
   47.6712  -13.8690   -6.1675 C   0  0  0  0  0  0  0  0  0  0  0  0
   48.4522  -14.9693   -5.4645 C   0  0  0  0  0  0  0  0  0  0  0  0
   49.6040  -14.3471   -4.8563 N   0  0  0  0  0  0  0  0  0  0  0  0
   43.5207  -12.6049   -8.4045 C   0  0  0  0  0  0  0  0  0  0  0  0
   43.7842  -12.2195   -9.5713 O   0  0  0  0  0  0  0  0  0  0  0  0
   38.0629   -5.7721   -9.2676 O   0  0  0  0  0  0  0  0  0  0  0  0
   38.6768   -6.9576   -8.8277 C   0  0  0  0  0  0  0  0  0  0  0  0
   38.6018   -8.0824   -9.5996 C   0  0  0  0  0  0  0  0  0  0  0  0
   39.2023   -9.2749   -9.1885 C   0  0  0  0  0  0  0  0  0  0  0  0
   39.8864   -9.3600   -7.9985 C   0  0  0  0  0  0  0  0  0  0  0  0
   40.5042  -10.6273   -7.5719 C   0  0  0  0  0  0  0  0  0  0  0  0
   41.9014  -10.7295   -8.0879 C   0  0  2  0  0  0  0  0  0  0  0  0
   42.5448  -11.9594   -7.6392 N   0  0  0  0  0  0  0  0  0  0  0  0
   42.7280   -9.5525   -7.7573 C   0  0  0  0  0  0  0  0  0  0  0  0
   42.6794   -8.4675   -8.6545 O   0  0  0  0  0  0  0  0  0  0  0  0
   39.9460   -8.1937   -7.2313 C   0  0  0  0  0  0  0  0  0  0  0  0
   39.3553   -7.0269   -7.6399 C   0  0  0  0  0  0  0  0  0  0  0  0
   43.4652   -9.4424   -6.7477 O   0  0  0  0  0  0  0  0  0  0  0  0
  1  5  1  0
  2  1  1  0
  3  2  1  0
  3  4  1  0
  4  5  1  0
  5  6  1  1
  6  7  2  0
  8  9  1  0
  8  6  1  0
  9 15  1  0
 10 11  1  0
  9 10  1  6
 11 12  1  0
 13 12  1  0
 14 13  1  0
 15 16  2  0
 15 24  1  0
 17 18  1  0
 18 19  2  0
 18 28  1  0
 19 20  1  0
 20 21  2  0
 21 22  1  0
 23 22  1  1
 23 25  1  0
 24 23  1  0
 25 29  2  0
 25 26  1  0
 27 21  1  0
 28 27  2  0
M  END
$$$$
