PKY.pdb
     RDKit          3D

 29 30  0  0  1  0  0  0  0  0999 V2000
   29.6934  -21.8863  -18.9145 N   0  0  0  0  0  0  0  0  0  0  0  0
   30.9785  -22.4674  -18.6415 C   0  0  0  0  0  0  0  0  0  0  0  0
   30.7088  -23.6822  -17.7668 C   0  0  0  0  0  0  0  0  0  0  0  0
   29.4584  -23.2777  -17.0615 C   0  0  0  0  0  0  0  0  0  0  0  0
   28.7219  -22.4167  -18.0243 C   0  0  1  0  0  0  0  0  0  0  0  0
   27.8960  -21.3762  -17.3605 C   0  0  0  0  0  0  0  0  0  0  0  0
   28.4852  -20.3866  -16.8492 O   0  0  0  0  0  0  0  0  0  0  0  0
   26.4843  -21.4181  -17.2612 N   0  0  0  0  0  0  0  0  0  0  0  0
   25.6896  -20.4549  -16.5734 C   0  0  1  0  0  0  0  0  0  0  0  0
   24.4943  -19.9902  -17.3679 C   0  0  0  0  0  0  0  0  0  0  0  0
   24.9042  -18.9110  -18.3446 C   0  0  0  0  0  0  0  0  0  0  0  0
   23.6404  -18.4846  -19.0666 C   0  0  0  0  0  0  0  0  0  0  0  0
   24.0079  -17.4872  -20.1552 C   0  0  0  0  0  0  0  0  0  0  0  0
   22.7935  -17.1776  -20.8716 N   0  0  0  0  0  0  0  0  0  0  0  0
   25.2276  -20.9640  -15.2318 C   0  0  0  0  0  0  0  0  0  0  0  0
   24.7334  -22.1190  -15.1999 O   0  0  0  0  0  0  0  0  0  0  0  0
   22.9585  -21.4601   -6.7534 O   0  0  0  0  0  0  0  0  0  0  0  0
   23.5743  -21.0747   -7.9568 C   0  0  0  0  0  0  0  0  0  0  0  0
   22.9411  -20.1925   -8.7859 C   0  0  0  0  0  0  0  0  0  0  0  0
   23.5287  -19.7910   -9.9882 C   0  0  0  0  0  0  0  0  0  0  0  0
   24.7584  -20.2668  -10.3791 C   0  0  0  0  0  0  0  0  0  0  0  0
   25.3604  -19.8442  -11.6553 C   0  0  0  0  0  0  0  0  0  0  0  0
   24.8394  -20.6745  -12.7814 C   0  0  2  0  0  0  0  0  0  0  0  0
   25.3373  -20.1983  -14.0671 N   0  0  0  0  0  0  0  0  0  0  0  0
   23.3671  -20.7763  -12.7924 C   0  0  0  0  0  0  0  0  0  0  0  0
   22.6628  -19.7545  -13.4591 O   0  0  0  0  0  0  0  0  0  0  0  0
   25.3811  -21.1671   -9.5107 C   0  0  0  0  0  0  0  0  0  0  0  0
   24.8000  -21.5569   -8.3326 C   0  0  0  0  0  0  0  0  0  0  0  0
   22.6980  -21.6942  -12.2590 O   0  0  0  0  0  0  0  0  0  0  0  0
  1  5  1  0
  2  1  1  0
  3  2  1  0
  3  4  1  0
  4  5  1  0
  5  6  1  1
  6  7  2  0
  8  9  1  0
  8  6  1  0
  9 15  1  0
 10 11  1  0
  9 10  1  6
 11 12  1  0
 13 12  1  0
 14 13  1  0
 15 16  2  0
 15 24  1  0
 17 18  1  0
 18 19  2  0
 18 28  1  0
 19 20  1  0
 20 21  2  0
 21 22  1  0
 23 22  1  1
 23 25  1  0
 24 23  1  0
 25 29  2  0
 25 26  1  0
 27 21  1  0
 28 27  2  0
M  END
$$$$
