PKY.pdb
     RDKit          3D

 29 30  0  0  1  0  0  0  0  0999 V2000
   40.6468  -26.1352    3.8704 N   0  0  0  0  0  0  0  0  0  0  0  0
   41.4308  -27.1916    3.2935 C   0  0  0  0  0  0  0  0  0  0  0  0
   41.1496  -27.1503    1.7992 C   0  0  0  0  0  0  0  0  0  0  0  0
   39.7642  -26.5987    1.7654 C   0  0  0  0  0  0  0  0  0  0  0  0
   39.6716  -25.6900    2.9386 C   0  0  1  0  0  0  0  0  0  0  0  0
   38.3018  -25.6115    3.5068 C   0  0  0  0  0  0  0  0  0  0  0  0
   37.3678  -25.2240    2.7548 O   0  0  0  0  0  0  0  0  0  0  0  0
   37.9692  -25.9436    4.8424 N   0  0  0  0  0  0  0  0  0  0  0  0
   36.6401  -26.0342    5.3498 C   0  0  1  0  0  0  0  0  0  0  0  0
   36.4691  -27.1176    6.3856 C   0  0  0  0  0  0  0  0  0  0  0  0
   35.0165  -27.2278    6.7909 C   0  0  0  0  0  0  0  0  0  0  0  0
   34.9429  -28.3368    7.8229 C   0  0  0  0  0  0  0  0  0  0  0  0
   33.4865  -28.5616    8.2012 C   0  0  0  0  0  0  0  0  0  0  0  0
   33.4705  -29.5568    9.2467 N   0  0  0  0  0  0  0  0  0  0  0  0
   36.1669  -24.7216    5.9204 C   0  0  0  0  0  0  0  0  0  0  0  0
   36.9154  -24.1626    6.7610 O   0  0  0  0  0  0  0  0  0  0  0  0
   31.5998  -17.3938    7.5627 O   0  0  0  0  0  0  0  0  0  0  0  0
   32.0794  -18.5753    6.9713 C   0  0  0  0  0  0  0  0  0  0  0  0
   31.3992  -19.7458    7.1556 C   0  0  0  0  0  0  0  0  0  0  0  0
   31.8516  -20.9357    6.5801 C   0  0  0  0  0  0  0  0  0  0  0  0
   32.9919  -20.9723    5.8120 C   0  0  0  0  0  0  0  0  0  0  0  0
   33.4638  -22.2365    5.2215 C   0  0  0  0  0  0  0  0  0  0  0  0
   34.5071  -22.8624    6.0869 C   0  0  2  0  0  0  0  0  0  0  0  0
   34.9532  -24.1397    5.5417 N   0  0  0  0  0  0  0  0  0  0  0  0
   34.0810  -23.0102    7.4921 C   0  0  0  0  0  0  0  0  0  0  0  0
   34.4682  -21.9923    8.3857 O   0  0  0  0  0  0  0  0  0  0  0  0
   33.6655  -19.7601    5.6417 C   0  0  0  0  0  0  0  0  0  0  0  0
   33.2167  -18.5961    6.2083 C   0  0  0  0  0  0  0  0  0  0  0  0
   33.4062  -23.9637    7.9506 O   0  0  0  0  0  0  0  0  0  0  0  0
  1  5  1  0
  2  1  1  0
  3  2  1  0
  3  4  1  0
  4  5  1  0
  5  6  1  1
  6  7  2  0
  8  9  1  0
  8  6  1  0
  9 15  1  0
 10 11  1  0
  9 10  1  1
 11 12  1  0
 13 12  1  0
 14 13  1  0
 15 16  2  0
 15 24  1  0
 17 18  1  0
 18 19  2  0
 18 28  1  0
 19 20  1  0
 20 21  2  0
 21 22  1  0
 23 22  1  6
 23 25  1  0
 24 23  1  0
 25 29  2  0
 25 26  1  0
 27 21  1  0
 28 27  2  0
M  END
$$$$
