GKD.pdb
     RDKit          3D

 22 21  0  0  1  0  0  0  0  0999 V2000
   10.7897  -17.9031   16.8070 N   0  0  0  0  0  0  0  0  0  0  0  0
    9.7471  -17.8986   17.7907 C   0  0  0  0  0  0  0  0  0  0  0  0
   10.0423  -16.9159   18.8937 C   0  0  0  0  0  0  0  0  0  0  0  0
   11.1480  -16.3276   18.9768 O   0  0  0  0  0  0  0  0  0  0  0  0
    9.0498  -16.6501   19.8587 N   0  0  0  0  0  0  0  0  0  0  0  0
    9.3062  -15.7681   21.0336 C   0  0  1  0  0  0  0  0  0  0  0  0
    7.9618  -15.2017   21.3647 C   0  0  0  0  0  0  0  0  0  0  0  0
    7.4232  -14.1652   20.4519 C   0  0  0  0  0  0  0  0  0  0  0  0
    8.3381  -12.9585   20.3260 C   0  0  0  0  0  0  0  0  0  0  0  0
    7.7325  -11.8959   19.4188 C   0  0  0  0  0  0  0  0  0  0  0  0
    8.6917  -10.8015   19.3722 N   0  0  0  0  0  0  0  0  0  0  0  0
    9.9001  -16.6384   22.0572 C   0  0  0  0  0  0  0  0  0  0  0  0
    9.4668  -17.7984   22.2259 O   0  0  0  0  0  0  0  0  0  0  0  0
   10.9613  -16.1940   22.8617 N   0  0  0  0  0  0  0  0  0  0  0  0
   11.5874  -17.1552   23.8181 C   0  0  1  0  0  0  0  0  0  0  0  0
   13.0676  -16.9487   23.7885 C   0  0  0  0  0  0  0  0  0  0  0  0
   13.7520  -17.8060   24.7482 C   0  0  0  0  0  0  0  0  0  0  0  0
   13.6011  -19.0384   24.7641 O   0  0  0  0  0  0  0  0  0  0  0  0
   11.0735  -16.8186   25.1613 C   0  0  0  0  0  0  0  0  0  0  0  0
   10.3538  -15.8147   25.3590 O   0  0  0  0  0  0  0  0  0  0  0  0
   14.6316  -17.2935   25.7227 O   0  0  0  0  0  0  0  0  0  0  0  0
   11.4152  -17.6650   26.2280 O   0  0  0  0  0  0  0  0  0  0  0  0
  2  1  1  0
  2  3  1  0
  3  4  2  0
  5  3  1  0
  5  6  1  0
  6 12  1  0
  6  7  1  1
  8  7  1  0
  9  8  1  0
  9 10  1  0
 10 11  1  0
 12 13  2  0
 14 12  1  0
 14 15  1  0
 15 19  1  0
 15 16  1  1
 17 18  2  0
 17 16  1  0
 19 20  2  0
 19 22  1  0
 21 17  1  0
M  END
$$$$
