GKD.pdb
     RDKit          3D

 22 21  0  0  1  0  0  0  0  0999 V2000
    8.2556  -16.5354   18.3822 N   0  0  0  0  0  0  0  0  0  0  0  0
    7.5816  -16.6586   19.6412 C   0  0  0  0  0  0  0  0  0  0  0  0
    8.3121  -15.9112   20.7262 C   0  0  0  0  0  0  0  0  0  0  0  0
    9.5329  -15.6349   20.6321 O   0  0  0  0  0  0  0  0  0  0  0  0
    7.6053  -15.5116   21.8785 N   0  0  0  0  0  0  0  0  0  0  0  0
    8.2772  -14.8242   23.0188 C   0  0  1  0  0  0  0  0  0  0  0  0
    7.1545  -14.1796   23.7686 C   0  0  0  0  0  0  0  0  0  0  0  0
    7.4996  -13.4780   25.0280 C   0  0  0  0  0  0  0  0  0  0  0  0
    6.2911  -12.8512   25.7030 C   0  0  0  0  0  0  0  0  0  0  0  0
    6.6700  -12.2042   27.0284 C   0  0  0  0  0  0  0  0  0  0  0  0
    5.4468  -11.6265   27.5671 N   0  0  0  0  0  0  0  0  0  0  0  0
    9.0034  -15.8773   23.7408 C   0  0  0  0  0  0  0  0  0  0  0  0
    8.4621  -16.9837   23.9523 O   0  0  0  0  0  0  0  0  0  0  0  0
   10.3122  -15.6701   24.2042 N   0  0  0  0  0  0  0  0  0  0  0  0
   11.0179  -16.7958   24.8866 C   0  0  1  0  0  0  0  0  0  0  0  0
   12.4892  -16.6073   24.7014 C   0  0  0  0  0  0  0  0  0  0  0  0
   12.8855  -16.7826   23.3097 C   0  0  0  0  0  0  0  0  0  0  0  0
   12.4421  -17.7027   22.6034 O   0  0  0  0  0  0  0  0  0  0  0  0
   10.6896  -16.6988   26.3233 C   0  0  0  0  0  0  0  0  0  0  0  0
   10.0365  -15.7377   26.7867 O   0  0  0  0  0  0  0  0  0  0  0  0
   13.7986  -15.9192   22.6720 O   0  0  0  0  0  0  0  0  0  0  0  0
   11.1328  -17.7266   27.1707 O   0  0  0  0  0  0  0  0  0  0  0  0
  2  1  1  0
  2  3  1  0
  3  4  2  0
  5  3  1  0
  5  6  1  0
  6 12  1  0
  6  7  1  1
  8  7  1  0
  9  8  1  0
  9 10  1  0
 10 11  1  0
 12 13  2  0
 14 12  1  0
 14 15  1  0
 15 19  1  0
 15 16  1  1
 17 18  2  0
 17 16  1  0
 19 20  2  0
 19 22  1  0
 21 17  1  0
M  END
$$$$
