GKD.pdb
     RDKit          3D

 22 21  0  0  1  0  0  0  0  0999 V2000
    4.9867  -19.8021   23.2168 N   0  0  0  0  0  0  0  0  0  0  0  0
    5.1529  -18.4638   23.7027 C   0  0  0  0  0  0  0  0  0  0  0  0
    6.3772  -17.8165   23.1098 C   0  0  0  0  0  0  0  0  0  0  0  0
    7.1950  -18.4639   22.4115 O   0  0  0  0  0  0  0  0  0  0  0  0
    6.6107  -16.4466   23.3461 N   0  0  0  0  0  0  0  0  0  0  0  0
    7.7807  -15.7318   22.7594 C   0  0  1  0  0  0  0  0  0  0  0  0
    7.3481  -14.3005   22.7135 C   0  0  0  0  0  0  0  0  0  0  0  0
    8.0624  -13.4099   21.7680 C   0  0  0  0  0  0  0  0  0  0  0  0
    7.7992  -13.7629   20.3136 C   0  0  0  0  0  0  0  0  0  0  0  0
    8.5805  -12.8554   19.3728 C   0  0  0  0  0  0  0  0  0  0  0  0
    8.2834  -13.3117   18.0224 N   0  0  0  0  0  0  0  0  0  0  0  0
    8.9103  -16.0274   23.6508 C   0  0  0  0  0  0  0  0  0  0  0  0
    9.0006  -15.4615   24.7614 O   0  0  0  0  0  0  0  0  0  0  0  0
    9.9053  -16.9465   23.2821 N   0  0  0  0  0  0  0  0  0  0  0  0
   11.1783  -16.9768   24.0627 C   0  0  1  0  0  0  0  0  0  0  0  0
   11.8302  -15.6365   23.9479 C   0  0  0  0  0  0  0  0  0  0  0  0
   12.8901  -15.6352   22.9473 C   0  0  0  0  0  0  0  0  0  0  0  0
   13.9864  -16.1855   23.1397 O   0  0  0  0  0  0  0  0  0  0  0  0
   10.8107  -17.2226   25.4719 C   0  0  0  0  0  0  0  0  0  0  0  0
   10.4393  -18.3492   25.8692 O   0  0  0  0  0  0  0  0  0  0  0  0
   12.7414  -15.0090   21.6936 O   0  0  0  0  0  0  0  0  0  0  0  0
   10.8900  -16.1467   26.3703 O   0  0  0  0  0  0  0  0  0  0  0  0
  2  1  1  0
  2  3  1  0
  3  4  2  0
  5  3  1  0
  5  6  1  0
  6 12  1  0
  6  7  1  1
  8  7  1  0
  9  8  1  0
  9 10  1  0
 10 11  1  0
 12 13  2  0
 14 12  1  0
 14 15  1  0
 15 19  1  0
 15 16  1  1
 17 18  2  0
 17 16  1  0
 19 20  2  0
 19 22  1  0
 21 17  1  0
M  END
$$$$
