GKD.pdb
     RDKit          3D

 22 21  0  0  1  0  0  0  0  0999 V2000
   10.6136  -20.0216   17.3177 N   0  0  0  0  0  0  0  0  0  0  0  0
    9.8792  -19.4641   18.4152 C   0  0  0  0  0  0  0  0  0  0  0  0
   10.5628  -18.2383   18.9623 C   0  0  0  0  0  0  0  0  0  0  0  0
   11.6784  -17.8560   18.5324 O   0  0  0  0  0  0  0  0  0  0  0  0
    9.9324  -17.5008   19.9849 N   0  0  0  0  0  0  0  0  0  0  0  0
   10.5719  -16.3052   20.6059 C   0  0  1  0  0  0  0  0  0  0  0  0
    9.4259  -15.3888   20.8974 C   0  0  0  0  0  0  0  0  0  0  0  0
    8.7764  -14.7313   19.7384 C   0  0  0  0  0  0  0  0  0  0  0  0
    7.5942  -13.8648   20.1395 C   0  0  0  0  0  0  0  0  0  0  0  0
    7.0519  -13.0824   18.9508 C   0  0  0  0  0  0  0  0  0  0  0  0
    5.8744  -12.3727   19.4301 N   0  0  0  0  0  0  0  0  0  0  0  0
   11.2970  -16.8110   21.7790 C   0  0  0  0  0  0  0  0  0  0  0  0
   10.8726  -17.8096   22.3991 O   0  0  0  0  0  0  0  0  0  0  0  0
   12.4754  -16.1930   22.2265 N   0  0  0  0  0  0  0  0  0  0  0  0
   13.3316  -16.9133   23.2160 C   0  0  1  0  0  0  0  0  0  0  0  0
   14.7353  -16.4217   23.0664 C   0  0  0  0  0  0  0  0  0  0  0  0
   15.6232  -17.0117   24.0605 C   0  0  0  0  0  0  0  0  0  0  0  0
   16.1664  -16.3370   24.9501 O   0  0  0  0  0  0  0  0  0  0  0  0
   12.8287  -16.5556   24.5578 C   0  0  0  0  0  0  0  0  0  0  0  0
   13.2756  -17.0947   25.5944 O   0  0  0  0  0  0  0  0  0  0  0  0
   15.9246  -18.3882   24.0787 O   0  0  0  0  0  0  0  0  0  0  0  0
   11.8226  -15.5803   24.6454 O   0  0  0  0  0  0  0  0  0  0  0  0
  2  1  1  0
  2  3  1  0
  3  4  2  0
  5  3  1  0
  5  6  1  0
  6 12  1  0
  6  7  1  1
  8  7  1  0
  9  8  1  0
  9 10  1  0
 10 11  1  0
 12 13  2  0
 14 12  1  0
 14 15  1  0
 15 19  1  0
 15 16  1  1
 17 18  2  0
 17 16  1  0
 19 20  2  0
 19 22  1  0
 21 17  1  0
M  END
$$$$
