GKD.pdb
     RDKit          3D

 22 21  0  0  1  0  0  0  0  0999 V2000
   10.5569  -19.3315   16.7793 N   0  0  0  0  0  0  0  0  0  0  0  0
    9.9437  -19.2189   18.0700 C   0  0  0  0  0  0  0  0  0  0  0  0
   10.5505  -18.0929   18.8658 C   0  0  0  0  0  0  0  0  0  0  0  0
   11.7235  -17.6958   18.6610 O   0  0  0  0  0  0  0  0  0  0  0  0
    9.7800  -17.4686   19.8676 N   0  0  0  0  0  0  0  0  0  0  0  0
   10.2971  -16.3141   20.6574 C   0  0  1  0  0  0  0  0  0  0  0  0
    9.0863  -15.4717   20.9071 C   0  0  0  0  0  0  0  0  0  0  0  0
    8.6056  -14.6319   19.7841 C   0  0  0  0  0  0  0  0  0  0  0  0
    7.3447  -13.8561   20.1268 C   0  0  0  0  0  0  0  0  0  0  0  0
    6.8162  -13.0954   18.9180 C   0  0  0  0  0  0  0  0  0  0  0  0
    5.6546  -12.3486   19.3794 N   0  0  0  0  0  0  0  0  0  0  0  0
   10.9214  -16.9012   21.8505 C   0  0  0  0  0  0  0  0  0  0  0  0
   10.5482  -18.0169   22.2719 O   0  0  0  0  0  0  0  0  0  0  0  0
   11.9453  -16.2312   22.5386 N   0  0  0  0  0  0  0  0  0  0  0  0
   12.7015  -16.9688   23.5944 C   0  0  1  0  0  0  0  0  0  0  0  0
   14.1377  -16.5623   23.5126 C   0  0  0  0  0  0  0  0  0  0  0  0
   14.9232  -17.1319   24.6004 C   0  0  0  0  0  0  0  0  0  0  0  0
   14.5296  -18.1030   25.2665 O   0  0  0  0  0  0  0  0  0  0  0  0
   12.1462  -16.5432   24.8952 C   0  0  0  0  0  0  0  0  0  0  0  0
   11.3462  -15.5860   24.9888 O   0  0  0  0  0  0  0  0  0  0  0  0
   16.1827  -16.6184   24.9689 O   0  0  0  0  0  0  0  0  0  0  0  0
   12.5416  -17.2491   26.0425 O   0  0  0  0  0  0  0  0  0  0  0  0
  2  1  1  0
  2  3  1  0
  3  4  2  0
  5  3  1  0
  5  6  1  0
  6 12  1  0
  6  7  1  1
  8  7  1  0
  9  8  1  0
  9 10  1  0
 10 11  1  0
 12 13  2  0
 14 12  1  0
 14 15  1  0
 15 19  1  0
 15 16  1  1
 17 18  2  0
 17 16  1  0
 19 20  2  0
 19 22  1  0
 21 17  1  0
M  END
$$$$
