GKD.pdb
     RDKit          3D

 22 21  0  0  1  0  0  0  0  0999 V2000
    8.0403  -19.0487   17.8082 N   0  0  0  0  0  0  0  0  0  0  0  0
    7.2844  -18.5078   18.8994 C   0  0  0  0  0  0  0  0  0  0  0  0
    8.1072  -17.5353   19.7036 C   0  0  0  0  0  0  0  0  0  0  0  0
    9.3309  -17.3638   19.4829 O   0  0  0  0  0  0  0  0  0  0  0  0
    7.4858  -16.7983   20.7321 N   0  0  0  0  0  0  0  0  0  0  0  0
    8.2516  -15.8684   21.6112 C   0  0  1  0  0  0  0  0  0  0  0  0
    7.2344  -14.8649   22.0544 C   0  0  0  0  0  0  0  0  0  0  0  0
    6.8170  -13.8447   21.0633 C   0  0  0  0  0  0  0  0  0  0  0  0
    7.9501  -13.4173   20.1454 C   0  0  0  0  0  0  0  0  0  0  0  0
    7.4653  -12.4366   19.0860 C   0  0  0  0  0  0  0  0  0  0  0  0
    8.5971  -12.1950   18.2025 N   0  0  0  0  0  0  0  0  0  0  0  0
    8.8211  -16.7092   22.6726 C   0  0  0  0  0  0  0  0  0  0  0  0
    8.2084  -17.7237   23.0690 O   0  0  0  0  0  0  0  0  0  0  0  0
   10.0576  -16.3987   23.2603 N   0  0  0  0  0  0  0  0  0  0  0  0
   10.8816  -17.5085   23.8259 C   0  0  1  0  0  0  0  0  0  0  0  0
   12.1592  -17.5841   23.0535 C   0  0  0  0  0  0  0  0  0  0  0  0
   13.1238  -18.4723   23.6903 C   0  0  0  0  0  0  0  0  0  0  0  0
   12.7836  -19.5149   24.2724 O   0  0  0  0  0  0  0  0  0  0  0  0
   11.1782  -17.1502   25.2277 C   0  0  0  0  0  0  0  0  0  0  0  0
   11.8710  -17.8871   25.9638 O   0  0  0  0  0  0  0  0  0  0  0  0
   14.5078  -18.2071   23.6876 O   0  0  0  0  0  0  0  0  0  0  0  0
   10.6580  -15.9440   25.7231 O   0  0  0  0  0  0  0  0  0  0  0  0
  2  1  1  0
  2  3  1  0
  3  4  2  0
  5  3  1  0
  5  6  1  0
  6 12  1  0
  6  7  1  1
  8  7  1  0
  9  8  1  0
  9 10  1  0
 10 11  1  0
 12 13  2  0
 14 12  1  0
 14 15  1  0
 15 19  1  0
 15 16  1  6
 17 18  2  0
 17 16  1  0
 19 20  2  0
 19 22  1  0
 21 17  1  0
M  END
$$$$
