GKD.pdb
     RDKit          3D

 22 21  0  0  1  0  0  0  0  0999 V2000
    6.7599  -21.0473   20.2943 N   0  0  0  0  0  0  0  0  0  0  0  0
    6.8516  -19.8832   21.1257 C   0  0  0  0  0  0  0  0  0  0  0  0
    8.1137  -19.1103   20.8445 C   0  0  0  0  0  0  0  0  0  0  0  0
    9.0828  -19.6256   20.2355 O   0  0  0  0  0  0  0  0  0  0  0  0
    8.2089  -17.7722   21.2775 N   0  0  0  0  0  0  0  0  0  0  0  0
    9.4037  -16.9297   20.9831 C   0  0  1  0  0  0  0  0  0  0  0  0
    8.8579  -15.5393   20.9000 C   0  0  0  0  0  0  0  0  0  0  0  0
    8.2181  -15.1410   19.6235 C   0  0  0  0  0  0  0  0  0  0  0  0
    7.6414  -13.7358   19.6672 C   0  0  0  0  0  0  0  0  0  0  0  0
    7.0144  -13.3522   18.3335 C   0  0  0  0  0  0  0  0  0  0  0  0
    6.4437  -12.0252   18.5154 N   0  0  0  0  0  0  0  0  0  0  0  0
   10.3432  -17.1801   22.0843 C   0  0  0  0  0  0  0  0  0  0  0  0
    9.9261  -17.2739   23.2586 O   0  0  0  0  0  0  0  0  0  0  0  0
   11.7195  -17.3221   21.8467 N   0  0  0  0  0  0  0  0  0  0  0  0
   12.6198  -17.6166   23.0014 C   0  0  1  0  0  0  0  0  0  0  0  0
   13.7407  -18.4771   22.5139 C   0  0  0  0  0  0  0  0  0  0  0  0
   13.2743  -19.8015   22.1224 C   0  0  0  0  0  0  0  0  0  0  0  0
   12.4009  -20.4133   22.7586 O   0  0  0  0  0  0  0  0  0  0  0  0
   13.1619  -16.3225   23.4625 C   0  0  0  0  0  0  0  0  0  0  0  0
   12.9335  -15.2562   22.8494 O   0  0  0  0  0  0  0  0  0  0  0  0
   13.7834  -20.4765   20.9950 O   0  0  0  0  0  0  0  0  0  0  0  0
   13.9508  -16.3154   24.6238 O   0  0  0  0  0  0  0  0  0  0  0  0
  2  1  1  0
  2  3  1  0
  3  4  2  0
  5  3  1  0
  5  6  1  0
  6 12  1  0
  6  7  1  1
  8  7  1  0
  9  8  1  0
  9 10  1  0
 10 11  1  0
 12 13  2  0
 14 12  1  0
 14 15  1  0
 15 19  1  0
 15 16  1  6
 17 18  2  0
 17 16  1  0
 19 20  2  0
 19 22  1  0
 21 17  1  0
M  END
$$$$
