GKD.pdb
     RDKit          3D

 22 21  0  0  1  0  0  0  0  0999 V2000
    5.0068  -20.0442   22.4611 N   0  0  0  0  0  0  0  0  0  0  0  0
    5.3058  -18.7671   23.0393 C   0  0  0  0  0  0  0  0  0  0  0  0
    6.2075  -17.9600   22.1421 C   0  0  0  0  0  0  0  0  0  0  0  0
    6.6651  -18.4277   21.0710 O   0  0  0  0  0  0  0  0  0  0  0  0
    6.5466  -16.6438   22.5161 N   0  0  0  0  0  0  0  0  0  0  0  0
    7.5583  -15.8452   21.7659 C   0  0  1  0  0  0  0  0  0  0  0  0
    7.1492  -14.4255   22.0008 C   0  0  0  0  0  0  0  0  0  0  0  0
    7.9300  -13.3746   21.3055 C   0  0  0  0  0  0  0  0  0  0  0  0
    8.0622  -13.6296   19.8133 C   0  0  0  0  0  0  0  0  0  0  0  0
    8.7474  -12.4652   19.1106 C   0  0  0  0  0  0  0  0  0  0  0  0
    8.7830  -12.8043   17.6951 N   0  0  0  0  0  0  0  0  0  0  0  0
    8.8600  -16.2335   22.3251 C   0  0  0  0  0  0  0  0  0  0  0  0
    9.0238  -16.2834   23.5630 O   0  0  0  0  0  0  0  0  0  0  0  0
    9.9411  -16.5584   21.4906 N   0  0  0  0  0  0  0  0  0  0  0  0
   11.2011  -17.0636   22.1134 C   0  0  1  0  0  0  0  0  0  0  0  0
   11.8200  -18.0546   21.1811 C   0  0  0  0  0  0  0  0  0  0  0  0
   13.0926  -18.5523   21.6886 C   0  0  0  0  0  0  0  0  0  0  0  0
   14.1756  -18.0121   21.4113 O   0  0  0  0  0  0  0  0  0  0  0  0
   12.1016  -15.9022   22.2605 C   0  0  0  0  0  0  0  0  0  0  0  0
   12.0145  -14.9020   21.5141 O   0  0  0  0  0  0  0  0  0  0  0  0
   13.1789  -19.6804   22.5287 O   0  0  0  0  0  0  0  0  0  0  0  0
   13.0722  -15.9458   23.2739 O   0  0  0  0  0  0  0  0  0  0  0  0
  2  1  1  0
  2  3  1  0
  3  4  2  0
  5  3  1  0
  5  6  1  0
  6 12  1  0
  6  7  1  1
  8  7  1  0
  9  8  1  0
  9 10  1  0
 10 11  1  0
 12 13  2  0
 14 12  1  0
 14 15  1  0
 15 19  1  0
 15 16  1  6
 17 18  2  0
 17 16  1  0
 19 20  2  0
 19 22  1  0
 21 17  1  0
M  END
$$$$
