GKD.pdb
     RDKit          3D

 22 21  0  0  1  0  0  0  0  0999 V2000
    5.3520  -19.1791   24.8380 N   0  0  0  0  0  0  0  0  0  0  0  0
    5.6342  -17.7802   24.7031 C   0  0  0  0  0  0  0  0  0  0  0  0
    6.5399  -17.5175   23.5283 C   0  0  0  0  0  0  0  0  0  0  0  0
    7.0753  -18.4522   22.8841 O   0  0  0  0  0  0  0  0  0  0  0  0
    6.7930  -16.1855   23.1425 N   0  0  0  0  0  0  0  0  0  0  0  0
    7.8064  -15.8430   22.1033 C   0  0  1  0  0  0  0  0  0  0  0  0
    7.3104  -14.5578   21.5200 C   0  0  0  0  0  0  0  0  0  0  0  0
    7.8727  -14.1499   20.2105 C   0  0  0  0  0  0  0  0  0  0  0  0
    7.2234  -12.8926   19.6568 C   0  0  0  0  0  0  0  0  0  0  0  0
    7.7165  -12.5882   18.2485 C   0  0  0  0  0  0  0  0  0  0  0  0
    9.1710  -12.6139   18.3091 N   0  0  0  0  0  0  0  0  0  0  0  0
    9.0894  -15.7664   22.8144 C   0  0  0  0  0  0  0  0  0  0  0  0
    9.1220  -15.4434   24.0212 O   0  0  0  0  0  0  0  0  0  0  0  0
   10.2992  -16.0543   22.1631 N   0  0  0  0  0  0  0  0  0  0  0  0
   11.5572  -16.0846   22.9675 C   0  0  1  0  0  0  0  0  0  0  0  0
   11.4599  -17.2095   23.9472 C   0  0  0  0  0  0  0  0  0  0  0  0
   12.7162  -17.4186   24.6562 C   0  0  0  0  0  0  0  0  0  0  0  0
   13.2745  -16.5152   25.2996 O   0  0  0  0  0  0  0  0  0  0  0  0
   12.6621  -16.3517   22.0246 C   0  0  0  0  0  0  0  0  0  0  0  0
   13.8512  -16.4240   22.4061 O   0  0  0  0  0  0  0  0  0  0  0  0
   13.3816  -18.6608   24.6591 O   0  0  0  0  0  0  0  0  0  0  0  0
   12.3426  -16.5269   20.6687 O   0  0  0  0  0  0  0  0  0  0  0  0
  2  1  1  0
  2  3  1  0
  3  4  2  0
  5  3  1  0
  5  6  1  0
  6 12  1  0
  6  7  1  1
  8  7  1  0
  9  8  1  0
  9 10  1  0
 10 11  1  0
 12 13  2  0
 14 12  1  0
 14 15  1  0
 15 19  1  0
 15 16  1  1
 17 18  2  0
 17 16  1  0
 19 20  2  0
 19 22  1  0
 21 17  1  0
M  END
$$$$
