GKD.pdb
     RDKit          3D

 22 21  0  0  1  0  0  0  0  0999 V2000
   10.2440  -18.8981   17.2819 N   0  0  0  0  0  0  0  0  0  0  0  0
    9.5147  -18.5214   18.4570 C   0  0  0  0  0  0  0  0  0  0  0  0
   10.2949  -17.5395   19.2917 C   0  0  0  0  0  0  0  0  0  0  0  0
   11.5331  -17.3896   19.1512 O   0  0  0  0  0  0  0  0  0  0  0  0
    9.6157  -16.7686   20.2568 N   0  0  0  0  0  0  0  0  0  0  0  0
   10.3323  -15.8206   21.1578 C   0  0  1  0  0  0  0  0  0  0  0  0
    9.2619  -14.8902   21.6338 C   0  0  0  0  0  0  0  0  0  0  0  0
    8.8970  -13.7671   20.7377 C   0  0  0  0  0  0  0  0  0  0  0  0
    7.4227  -13.7626   20.3697 C   0  0  0  0  0  0  0  0  0  0  0  0
    7.0756  -12.5720   19.4860 C   0  0  0  0  0  0  0  0  0  0  0  0
    5.6338  -12.6151   19.2879 N   0  0  0  0  0  0  0  0  0  0  0  0
   10.9561  -16.6561   22.1925 C   0  0  0  0  0  0  0  0  0  0  0  0
   10.3380  -17.6307   22.6720 O   0  0  0  0  0  0  0  0  0  0  0  0
   12.2511  -16.3851   22.6618 N   0  0  0  0  0  0  0  0  0  0  0  0
   12.8798  -17.3396   23.6233 C   0  0  1  0  0  0  0  0  0  0  0  0
   14.1838  -17.7921   23.0494 C   0  0  0  0  0  0  0  0  0  0  0  0
   14.9138  -18.6483   23.9760 C   0  0  0  0  0  0  0  0  0  0  0  0
   14.3904  -19.1187   24.9990 O   0  0  0  0  0  0  0  0  0  0  0  0
   13.1288  -16.5889   24.8707 C   0  0  0  0  0  0  0  0  0  0  0  0
   13.4471  -15.3791   24.8594 O   0  0  0  0  0  0  0  0  0  0  0  0
   16.2632  -18.9999   23.7727 O   0  0  0  0  0  0  0  0  0  0  0  0
   12.9969  -17.2741   26.0889 O   0  0  0  0  0  0  0  0  0  0  0  0
  2  1  1  0
  2  3  1  0
  3  4  2  0
  5  3  1  0
  5  6  1  0
  6 12  1  0
  6  7  1  1
  8  7  1  0
  9  8  1  0
  9 10  1  0
 10 11  1  0
 12 13  2  0
 14 12  1  0
 14 15  1  0
 15 19  1  0
 15 16  1  6
 17 18  2  0
 17 16  1  0
 19 20  2  0
 19 22  1  0
 21 17  1  0
M  END
$$$$
