GKD.pdb
     RDKit          3D

 22 21  0  0  1  0  0  0  0  0999 V2000
    9.0210  -17.1658   18.8359 N   0  0  0  0  0  0  0  0  0  0  0  0
    8.1463  -17.0069   19.9604 C   0  0  0  0  0  0  0  0  0  0  0  0
    8.7448  -16.0853   20.9909 C   0  0  0  0  0  0  0  0  0  0  0  0
    9.9285  -15.6768   20.9047 O   0  0  0  0  0  0  0  0  0  0  0  0
    7.9539  -15.6709   22.0816 N   0  0  0  0  0  0  0  0  0  0  0  0
    8.5238  -14.8963   23.2216 C   0  0  1  0  0  0  0  0  0  0  0  0
    7.3236  -14.3415   23.9215 C   0  0  0  0  0  0  0  0  0  0  0  0
    7.5675  -13.5274   25.1361 C   0  0  0  0  0  0  0  0  0  0  0  0
    6.2845  -13.0143   25.7684 C   0  0  0  0  0  0  0  0  0  0  0  0
    6.5605  -12.3146   27.0925 C   0  0  0  0  0  0  0  0  0  0  0  0
    5.2608  -12.0012   27.6692 N   0  0  0  0  0  0  0  0  0  0  0  0
    9.3218  -15.8591   23.9921 C   0  0  0  0  0  0  0  0  0  0  0  0
    9.0004  -17.0666   24.0164 O   0  0  0  0  0  0  0  0  0  0  0  0
   10.4566  -15.4514   24.7109 N   0  0  0  0  0  0  0  0  0  0  0  0
   11.2284  -16.4769   25.4747 C   0  0  1  0  0  0  0  0  0  0  0  0
   10.2609  -17.4658   26.0408 C   0  0  0  0  0  0  0  0  0  0  0  0
   10.6654  -17.9198   27.3656 C   0  0  0  0  0  0  0  0  0  0  0  0
   11.6890  -17.4989   27.9284 O   0  0  0  0  0  0  0  0  0  0  0  0
   12.1120  -17.1568   24.5060 C   0  0  0  0  0  0  0  0  0  0  0  0
   13.2927  -16.7879   24.3192 O   0  0  0  0  0  0  0  0  0  0  0  0
    9.9212  -18.8670   28.0968 O   0  0  0  0  0  0  0  0  0  0  0  0
   11.5893  -18.2448   23.7891 O   0  0  0  0  0  0  0  0  0  0  0  0
  2  1  1  0
  2  3  1  0
  3  4  2  0
  5  3  1  0
  5  6  1  0
  6 12  1  0
  6  7  1  1
  8  7  1  0
  9  8  1  0
  9 10  1  0
 10 11  1  0
 12 13  2  0
 14 12  1  0
 14 15  1  0
 15 19  1  0
 15 16  1  6
 17 18  2  0
 17 16  1  0
 19 20  2  0
 19 22  1  0
 21 17  1  0
M  END
$$$$
