GKD.pdb
     RDKit          3D

 22 21  0  0  1  0  0  0  0  0999 V2000
   11.8709  -17.6504   16.8817 N   0  0  0  0  0  0  0  0  0  0  0  0
   11.5240  -18.2242   18.1487 C   0  0  0  0  0  0  0  0  0  0  0  0
   11.7324  -17.2388   19.2690 C   0  0  0  0  0  0  0  0  0  0  0  0
   12.8737  -16.8127   19.5711 O   0  0  0  0  0  0  0  0  0  0  0  0
   10.6150  -16.7833   19.9978 N   0  0  0  0  0  0  0  0  0  0  0  0
   10.7344  -15.7398   21.0565 C   0  0  1  0  0  0  0  0  0  0  0  0
    9.3515  -15.1816   21.1757 C   0  0  0  0  0  0  0  0  0  0  0  0
    8.9050  -14.2524   20.1106 C   0  0  0  0  0  0  0  0  0  0  0  0
    7.3987  -14.0525   20.0970 C   0  0  0  0  0  0  0  0  0  0  0  0
    6.9765  -13.0960   18.9897 C   0  0  0  0  0  0  0  0  0  0  0  0
    5.5238  -13.0173   19.0480 N   0  0  0  0  0  0  0  0  0  0  0  0
   11.2431  -16.4396   22.2436 C   0  0  0  0  0  0  0  0  0  0  0  0
   10.9061  -17.6214   22.4705 O   0  0  0  0  0  0  0  0  0  0  0  0
   12.1149  -15.8052   23.1427 N   0  0  0  0  0  0  0  0  0  0  0  0
   12.7378  -16.6166   24.2309 C   0  0  1  0  0  0  0  0  0  0  0  0
   14.0465  -15.9907   24.5916 C   0  0  0  0  0  0  0  0  0  0  0  0
   15.1722  -16.8351   24.2115 C   0  0  0  0  0  0  0  0  0  0  0  0
   15.0667  -17.7460   23.3743 O   0  0  0  0  0  0  0  0  0  0  0  0
   11.8267  -16.5479   25.3913 C   0  0  0  0  0  0  0  0  0  0  0  0
   12.0172  -17.2334   26.4203 O   0  0  0  0  0  0  0  0  0  0  0  0
   16.4565  -16.6739   24.7688 O   0  0  0  0  0  0  0  0  0  0  0  0
   10.7252  -15.6810   25.3130 O   0  0  0  0  0  0  0  0  0  0  0  0
  2  1  1  0
  2  3  1  0
  3  4  2  0
  5  3  1  0
  5  6  1  0
  6 12  1  0
  6  7  1  1
  8  7  1  0
  9  8  1  0
  9 10  1  0
 10 11  1  0
 12 13  2  0
 14 12  1  0
 14 15  1  0
 15 19  1  0
 15 16  1  1
 17 18  2  0
 17 16  1  0
 19 20  2  0
 19 22  1  0
 21 17  1  0
M  END
$$$$
