IIS.pdb
     RDKit          3D

 23 22  0  0  1  0  0  0  0  0999 V2000
   28.6249  -18.4287  -17.9239 C   0  0  0  0  0  0  0  0  0  0  0  0
   28.8509  -19.3058  -16.7418 C   0  0  0  0  0  0  0  0  0  0  0  0
   27.5995  -19.6799  -15.9828 C   0  0  2  0  0  0  0  0  0  0  0  0
   26.9301  -18.4094  -15.5815 C   0  0  0  0  0  0  0  0  0  0  0  0
   27.9567  -20.6017  -14.8515 C   0  0  2  0  0  0  0  0  0  0  0  0
   28.5152  -21.8117  -15.4809 N   0  0  0  0  0  0  0  0  0  0  0  0
   26.7839  -21.0550  -14.0642 C   0  0  0  0  0  0  0  0  0  0  0  0
   25.9849  -21.9498  -14.5102 O   0  0  0  0  0  0  0  0  0  0  0  0
   26.7309  -20.5254   -8.5700 C   0  0  0  0  0  0  0  0  0  0  0  0
   26.5694  -21.2089   -9.9320 C   0  0  0  0  0  0  0  0  0  0  0  0
   25.4277  -20.5148  -10.6191 C   0  0  2  0  0  0  0  0  0  0  0  0
   24.1502  -20.8806   -9.8603 C   0  0  0  0  0  0  0  0  0  0  0  0
   25.2522  -20.9581  -12.0563 C   0  0  2  0  0  0  0  0  0  0  0  0
   26.4376  -20.5616  -12.7783 N   0  0  0  0  0  0  0  0  0  0  0  0
   24.0391  -20.2922  -12.6180 C   0  0  0  0  0  0  0  0  0  0  0  0
   23.9197  -19.0461  -12.6551 O   0  0  0  0  0  0  0  0  0  0  0  0
   21.1235  -22.6837  -14.6685 O   0  0  0  0  0  0  0  0  0  0  0  0
   21.4423  -21.3711  -15.0231 C   0  0  0  0  0  0  0  0  0  0  0  0
   21.8053  -20.6323  -13.7779 C   0  0  2  0  0  0  0  0  0  0  0  0
   22.9957  -21.0910  -13.1224 N   0  0  0  0  0  0  0  0  0  0  0  0
   20.6510  -20.4173  -12.8532 C   0  0  0  0  0  0  0  0  0  0  0  0
   20.7468  -20.8713  -11.6925 O   0  0  0  0  0  0  0  0  0  0  0  0
   19.5429  -19.7462  -13.2950 O   0  0  0  0  0  0  0  0  0  0  0  0
  1  2  1  0
  2  3  1  0
  3  5  1  0
  3  4  1  1
  5  7  1  0
  5  6  1  6
  7  8  2  0
  9 10  1  0
 10 11  1  0
 11 13  1  0
 11 12  1  1
 13 14  1  6
 14  7  1  0
 15 16  2  0
 15 13  1  0
 17 18  1  0
 19 18  1  6
 19 20  1  0
 19 21  1  0
 20 15  1  0
 21 23  1  0
 22 21  2  0
M  END
$$$$
