IIS.pdb
     RDKit          3D

 23 22  0  0  1  0  0  0  0  0999 V2000
   10.6930  -13.2403  -10.7052 C   0  0  0  0  0  0  0  0  0  0  0  0
   11.9412  -12.9977  -11.4803 C   0  0  0  0  0  0  0  0  0  0  0  0
   12.8563  -11.9484  -10.8942 C   0  0  2  0  0  0  0  0  0  0  0  0
   12.0299  -10.7333  -10.6415 C   0  0  0  0  0  0  0  0  0  0  0  0
   14.0335  -11.7452  -11.8054 C   0  0  2  0  0  0  0  0  0  0  0  0
   14.7376  -13.0393  -11.8460 N   0  0  0  0  0  0  0  0  0  0  0  0
   15.0172  -10.7608  -11.2914 C   0  0  0  0  0  0  0  0  0  0  0  0
   15.7434  -11.0136  -10.2682 O   0  0  0  0  0  0  0  0  0  0  0  0
   18.9987   -9.0954  -13.9789 C   0  0  0  0  0  0  0  0  0  0  0  0
   17.9925   -9.5384  -12.9115 C   0  0  0  0  0  0  0  0  0  0  0  0
   17.2152   -8.3106  -12.5297 C   0  0  2  0  0  0  0  0  0  0  0  0
   18.2254   -7.2585  -12.0670 C   0  0  0  0  0  0  0  0  0  0  0  0
   16.2528   -8.5583  -11.3872 C   0  0  2  0  0  0  0  0  0  0  0  0
   15.2485   -9.4806  -11.8609 N   0  0  0  0  0  0  0  0  0  0  0  0
   15.6358   -7.2573  -10.9903 C   0  0  0  0  0  0  0  0  0  0  0  0
   14.9749   -6.5604  -11.7939 O   0  0  0  0  0  0  0  0  0  0  0  0
   14.2449   -6.4980   -7.3205 O   0  0  0  0  0  0  0  0  0  0  0  0
   15.1748   -5.5118   -7.6568 C   0  0  0  0  0  0  0  0  0  0  0  0
   15.3639   -5.5419   -9.1371 C   0  0  2  0  0  0  0  0  0  0  0  0
   15.8025   -6.7994   -9.6699 N   0  0  0  0  0  0  0  0  0  0  0  0
   16.1180   -4.3653   -9.6669 C   0  0  0  0  0  0  0  0  0  0  0  0
   17.2156   -4.5842  -10.2235 O   0  0  0  0  0  0  0  0  0  0  0  0
   15.5981   -3.1069   -9.5275 O   0  0  0  0  0  0  0  0  0  0  0  0
  1  2  1  0
  2  3  1  0
  3  5  1  0
  3  4  1  6
  5  7  1  0
  5  6  1  1
  7  8  2  0
  9 10  1  0
 10 11  1  0
 11 13  1  0
 11 12  1  1
 13 14  1  6
 14  7  1  0
 15 16  2  0
 15 13  1  0
 17 18  1  0
 19 18  1  1
 19 20  1  0
 19 21  1  0
 20 15  1  0
 21 23  1  0
 22 21  2  0
M  END
$$$$
