IIS.pdb
     RDKit          3D

 23 22  0  0  1  0  0  0  0  0999 V2000
   17.3954  -12.5470  -19.2753 C   0  0  0  0  0  0  0  0  0  0  0  0
   18.7775  -12.8018  -18.7826 C   0  0  0  0  0  0  0  0  0  0  0  0
   19.3137  -11.7563  -17.8332 C   0  0  2  0  0  0  0  0  0  0  0  0
   19.1893  -10.4358  -18.5145 C   0  0  0  0  0  0  0  0  0  0  0  0
   20.7057  -12.1309  -17.4100 C   0  0  2  0  0  0  0  0  0  0  0  0
   20.5850  -13.4432  -16.7500 N   0  0  0  0  0  0  0  0  0  0  0  0
   21.2830  -11.2151  -16.3957 C   0  0  0  0  0  0  0  0  0  0  0  0
   20.7900  -11.1261  -15.2180 O   0  0  0  0  0  0  0  0  0  0  0  0
   26.2656  -10.8993  -14.8503 C   0  0  0  0  0  0  0  0  0  0  0  0
   24.7342  -10.8626  -14.8911 C   0  0  0  0  0  0  0  0  0  0  0  0
   24.3608   -9.5540  -15.5281 C   0  0  2  0  0  0  0  0  0  0  0  0
   24.8712   -8.4401  -14.6116 C   0  0  0  0  0  0  0  0  0  0  0  0
   22.8638   -9.3799  -15.6744 C   0  0  2  0  0  0  0  0  0  0  0  0
   22.4038  -10.3716  -16.6172 N   0  0  0  0  0  0  0  0  0  0  0  0
   22.5891   -8.0004  -16.1766 C   0  0  0  0  0  0  0  0  0  0  0  0
   23.0230   -7.5934  -17.2786 O   0  0  0  0  0  0  0  0  0  0  0  0
   19.4261   -5.6899  -14.5089 O   0  0  0  0  0  0  0  0  0  0  0  0
   19.9512   -5.5626  -15.7967 C   0  0  0  0  0  0  0  0  0  0  0  0
   21.4243   -5.7902  -15.7186 C   0  0  2  0  0  0  0  0  0  0  0  0
   21.8172   -7.1289  -15.3855 N   0  0  0  0  0  0  0  0  0  0  0  0
   22.1511   -4.7373  -14.9460 C   0  0  0  0  0  0  0  0  0  0  0  0
   22.8420   -5.1072  -13.9721 O   0  0  0  0  0  0  0  0  0  0  0  0
   22.0395   -3.4244  -15.3167 O   0  0  0  0  0  0  0  0  0  0  0  0
  1  2  1  0
  2  3  1  0
  3  5  1  0
  3  4  1  6
  5  7  1  0
  5  6  1  1
  7  8  2  0
  9 10  1  0
 10 11  1  0
 11 13  1  0
 11 12  1  1
 13 14  1  6
 14  7  1  0
 15 16  2  0
 15 13  1  0
 17 18  1  0
 19 18  1  1
 19 20  1  0
 19 21  1  0
 20 15  1  0
 21 23  1  0
 22 21  2  0
M  END
$$$$
