IIS.pdb
     RDKit          3D

 23 22  0  0  1  0  0  0  0  0999 V2000
   20.0074  -21.7798  -11.6590 C   0  0  0  0  0  0  0  0  0  0  0  0
   21.3184  -21.8178  -10.9536 C   0  0  0  0  0  0  0  0  0  0  0  0
   22.4569  -21.1610  -11.6981 C   0  0  2  0  0  0  0  0  0  0  0  0
   22.4822  -21.7444  -13.0701 C   0  0  0  0  0  0  0  0  0  0  0  0
   23.7268  -21.3182  -10.9109 C   0  0  2  0  0  0  0  0  0  0  0  0
   23.4934  -20.6267   -9.6305 N   0  0  0  0  0  0  0  0  0  0  0  0
   24.8950  -20.6462  -11.5310 C   0  0  0  0  0  0  0  0  0  0  0  0
   24.9768  -19.3705  -11.5935 O   0  0  0  0  0  0  0  0  0  0  0  0
   29.9310  -21.4368  -10.4757 C   0  0  0  0  0  0  0  0  0  0  0  0
   28.5945  -20.8050  -10.8790 C   0  0  0  0  0  0  0  0  0  0  0  0
   28.3747  -21.1677  -12.3204 C   0  0  2  0  0  0  0  0  0  0  0  0
   29.4844  -20.4962  -13.1324 C   0  0  0  0  0  0  0  0  0  0  0  0
   27.0482  -20.6696  -12.8541 C   0  0  2  0  0  0  0  0  0  0  0  0
   26.0060  -21.3240  -12.0995 N   0  0  0  0  0  0  0  0  0  0  0  0
   26.9542  -21.0174  -14.3036 C   0  0  0  0  0  0  0  0  0  0  0  0
   27.1047  -22.1892  -14.7190 O   0  0  0  0  0  0  0  0  0  0  0  0
   25.2247  -19.7791  -18.5689 O   0  0  0  0  0  0  0  0  0  0  0  0
   25.2909  -19.4827  -17.2057 C   0  0  0  0  0  0  0  0  0  0  0  0
   26.5045  -20.1487  -16.6476 C   0  0  2  0  0  0  0  0  0  0  0  0
   26.6879  -19.9948  -15.2333 N   0  0  0  0  0  0  0  0  0  0  0  0
   27.7424  -19.9019  -17.4477 C   0  0  0  0  0  0  0  0  0  0  0  0
   28.4110  -18.8803  -17.1795 O   0  0  0  0  0  0  0  0  0  0  0  0
   28.1002  -20.7813  -18.4337 O   0  0  0  0  0  0  0  0  0  0  0  0
  1  2  1  0
  2  3  1  0
  3  5  1  0
  3  4  1  6
  5  7  1  0
  5  6  1  1
  7  8  2  0
  9 10  1  0
 10 11  1  0
 11 13  1  0
 11 12  1  6
 13 14  1  1
 14  7  1  0
 15 16  2  0
 15 13  1  0
 17 18  1  0
 19 18  1  6
 19 20  1  0
 19 21  1  0
 20 15  1  0
 21 23  1  0
 22 21  2  0
M  END
$$$$
