IIS.pdb
     RDKit          3D

 23 22  0  0  1  0  0  0  0  0999 V2000
   18.6534  -21.5304  -12.4452 C   0  0  0  0  0  0  0  0  0  0  0  0
   19.9231  -21.6148  -11.6716 C   0  0  0  0  0  0  0  0  0  0  0  0
   21.0786  -20.8441  -12.2656 C   0  0  2  0  0  0  0  0  0  0  0  0
   21.1498  -21.2001  -13.7118 C   0  0  0  0  0  0  0  0  0  0  0  0
   22.3253  -21.1221  -11.4746 C   0  0  2  0  0  0  0  0  0  0  0  0
   22.0820  -20.5634  -10.1326 N   0  0  0  0  0  0  0  0  0  0  0  0
   23.5257  -20.4237  -11.9963 C   0  0  0  0  0  0  0  0  0  0  0  0
   23.6940  -19.1664  -11.8265 O   0  0  0  0  0  0  0  0  0  0  0  0
   28.2620  -21.4022  -10.6025 C   0  0  0  0  0  0  0  0  0  0  0  0
   26.9848  -20.7240  -11.1096 C   0  0  0  0  0  0  0  0  0  0  0  0
   26.9553  -20.9389  -12.5964 C   0  0  2  0  0  0  0  0  0  0  0  0
   28.1737  -20.2232  -13.1835 C   0  0  0  0  0  0  0  0  0  0  0  0
   25.7199  -20.3545  -13.2484 C   0  0  2  0  0  0  0  0  0  0  0  0
   24.5768  -21.0549  -12.7129 N   0  0  0  0  0  0  0  0  0  0  0  0
   25.8201  -20.5504  -14.7256 C   0  0  0  0  0  0  0  0  0  0  0  0
   25.9822  -21.6812  -15.2386 O   0  0  0  0  0  0  0  0  0  0  0  0
   26.0035  -17.1011  -17.1244 O   0  0  0  0  0  0  0  0  0  0  0  0
   25.2873  -18.1769  -17.6537 C   0  0  0  0  0  0  0  0  0  0  0  0
   25.7822  -19.4254  -17.0025 C   0  0  2  0  0  0  0  0  0  0  0  0
   25.7293  -19.4273  -15.5691 N   0  0  0  0  0  0  0  0  0  0  0  0
   27.0795  -19.9157  -17.5597 C   0  0  0  0  0  0  0  0  0  0  0  0
   28.0700  -19.9261  -16.7972 O   0  0  0  0  0  0  0  0  0  0  0  0
   27.1461  -20.3277  -18.8633 O   0  0  0  0  0  0  0  0  0  0  0  0
  1  2  1  0
  2  3  1  0
  3  5  1  0
  3  4  1  6
  5  7  1  0
  5  6  1  1
  7  8  2  0
  9 10  1  0
 10 11  1  0
 11 13  1  0
 11 12  1  6
 13 14  1  1
 14  7  1  0
 15 16  2  0
 15 13  1  0
 17 18  1  0
 19 18  1  1
 19 20  1  0
 19 21  1  0
 20 15  1  0
 21 23  1  0
 22 21  2  0
M  END
$$$$
