IIS.pdb
     RDKit          3D

 23 22  0  0  1  0  0  0  0  0999 V2000
   16.7735  -14.6869  -17.0450 C   0  0  0  0  0  0  0  0  0  0  0  0
   17.7559  -13.6864  -17.5465 C   0  0  0  0  0  0  0  0  0  0  0  0
   18.0646  -12.5646  -16.5830 C   0  0  2  0  0  0  0  0  0  0  0  0
   16.7636  -11.9564  -16.1820 C   0  0  0  0  0  0  0  0  0  0  0  0
   19.0472  -11.6190  -17.2136 C   0  0  2  0  0  0  0  0  0  0  0  0
   20.0839  -12.4680  -17.8273 N   0  0  0  0  0  0  0  0  0  0  0  0
   19.7525  -10.7573  -16.2334 C   0  0  0  0  0  0  0  0  0  0  0  0
   19.1343  -10.2182  -15.2509 O   0  0  0  0  0  0  0  0  0  0  0  0
   25.0476  -11.5507  -15.0069 C   0  0  0  0  0  0  0  0  0  0  0  0
   23.5457  -11.3073  -14.8244 C   0  0  0  0  0  0  0  0  0  0  0  0
   23.2741   -9.9292  -15.3581 C   0  0  2  0  0  0  0  0  0  0  0  0
   23.9993   -8.9374  -14.4460 C   0  0  0  0  0  0  0  0  0  0  0  0
   21.8019   -9.5754  -15.3445 C   0  0  2  0  0  0  0  0  0  0  0  0
   21.1386  -10.4517  -16.2804 N   0  0  0  0  0  0  0  0  0  0  0  0
   21.6491   -8.1469  -15.7527 C   0  0  0  0  0  0  0  0  0  0  0  0
   21.9371   -7.7483  -16.9045 O   0  0  0  0  0  0  0  0  0  0  0  0
   19.5117   -3.9826  -15.1369 O   0  0  0  0  0  0  0  0  0  0  0  0
   19.5647   -5.3361  -14.7968 C   0  0  0  0  0  0  0  0  0  0  0  0
   20.9608   -5.8138  -15.0219 C   0  0  2  0  0  0  0  0  0  0  0  0
   21.1656   -7.2179  -14.8123 N   0  0  0  0  0  0  0  0  0  0  0  0
   21.9982   -4.9497  -14.3810 C   0  0  0  0  0  0  0  0  0  0  0  0
   22.5423   -5.3747  -13.3390 O   0  0  0  0  0  0  0  0  0  0  0  0
   22.3144   -3.7407  -14.9395 O   0  0  0  0  0  0  0  0  0  0  0  0
  1  2  1  0
  2  3  1  0
  3  5  1  0
  3  4  1  6
  5  7  1  0
  5  6  1  1
  7  8  2  0
  9 10  1  0
 10 11  1  0
 11 13  1  0
 11 12  1  1
 13 14  1  6
 14  7  1  0
 15 16  2  0
 15 13  1  0
 17 18  1  0
 19 18  1  1
 19 20  1  0
 19 21  1  0
 20 15  1  0
 21 23  1  0
 22 21  2  0
M  END
$$$$
