IIS.pdb
     RDKit          3D

 23 22  0  0  1  0  0  0  0  0999 V2000
   28.5850  -18.7831  -18.1803 C   0  0  0  0  0  0  0  0  0  0  0  0
   28.8044  -19.5148  -16.9019 C   0  0  0  0  0  0  0  0  0  0  0  0
   27.5411  -19.9165  -16.1777 C   0  0  2  0  0  0  0  0  0  0  0  0
   26.7477  -18.6744  -15.9518 C   0  0  0  0  0  0  0  0  0  0  0  0
   27.8979  -20.6842  -14.9365 C   0  0  2  0  0  0  0  0  0  0  0  0
   28.5917  -21.8986  -15.4013 N   0  0  0  0  0  0  0  0  0  0  0  0
   26.7173  -21.1556  -14.1719 C   0  0  0  0  0  0  0  0  0  0  0  0
   26.0412  -22.1753  -14.5476 O   0  0  0  0  0  0  0  0  0  0  0  0
   26.4869  -20.6715   -8.7421 C   0  0  0  0  0  0  0  0  0  0  0  0
   26.3667  -21.2950  -10.1367 C   0  0  0  0  0  0  0  0  0  0  0  0
   25.2327  -20.5843  -10.8198 C   0  0  2  0  0  0  0  0  0  0  0  0
   23.9485  -20.9572  -10.0760 C   0  0  0  0  0  0  0  0  0  0  0  0
   25.0652  -21.0024  -12.2654 C   0  0  2  0  0  0  0  0  0  0  0  0
   26.2311  -20.5468  -12.9845 N   0  0  0  0  0  0  0  0  0  0  0  0
   23.8253  -20.3695  -12.8063 C   0  0  0  0  0  0  0  0  0  0  0  0
   23.6449  -19.1304  -12.7835 O   0  0  0  0  0  0  0  0  0  0  0  0
   21.1863  -22.7387  -15.1393 O   0  0  0  0  0  0  0  0  0  0  0  0
   21.3018  -21.3559  -15.2971 C   0  0  0  0  0  0  0  0  0  0  0  0
   21.5967  -20.7621  -13.9598 C   0  0  2  0  0  0  0  0  0  0  0  0
   22.8265  -21.1924  -13.3599 N   0  0  0  0  0  0  0  0  0  0  0  0
   20.4295  -20.7832  -13.0266 C   0  0  0  0  0  0  0  0  0  0  0  0
   20.5896  -21.3251  -11.9116 O   0  0  0  0  0  0  0  0  0  0  0  0
   19.2417  -20.2232  -13.4123 O   0  0  0  0  0  0  0  0  0  0  0  0
  1  2  1  0
  2  3  1  0
  3  5  1  0
  3  4  1  1
  5  7  1  0
  5  6  1  6
  7  8  2  0
  9 10  1  0
 10 11  1  0
 11 13  1  0
 11 12  1  1
 13 14  1  6
 14  7  1  0
 15 16  2  0
 15 13  1  0
 17 18  1  0
 19 18  1  6
 19 20  1  0
 19 21  1  0
 20 15  1  0
 21 23  1  0
 22 21  2  0
M  END
$$$$
