IIS.pdb
     RDKit          3D

 23 22  0  0  1  0  0  0  0  0999 V2000
   25.2594  -34.2589  -12.6793 C   0  0  0  0  0  0  0  0  0  0  0  0
   25.1109  -33.4194  -13.9002 C   0  0  0  0  0  0  0  0  0  0  0  0
   26.2918  -33.4569  -14.8416 C   0  0  2  0  0  0  0  0  0  0  0  0
   27.5024  -33.1044  -14.0455 C   0  0  0  0  0  0  0  0  0  0  0  0
   26.0196  -32.5685  -16.0221 C   0  0  2  0  0  0  0  0  0  0  0  0
   24.8521  -33.1545  -16.7046 N   0  0  0  0  0  0  0  0  0  0  0  0
   27.1154  -32.5599  -17.0220 C   0  0  0  0  0  0  0  0  0  0  0  0
   27.4345  -33.6147  -17.6730 O   0  0  0  0  0  0  0  0  0  0  0  0
   27.6601  -28.9825  -20.8225 C   0  0  0  0  0  0  0  0  0  0  0  0
   27.7051  -30.3140  -20.0655 C   0  0  0  0  0  0  0  0  0  0  0  0
   28.9051  -30.2459  -19.1639 C   0  0  2  0  0  0  0  0  0  0  0  0
   30.1456  -30.2166  -20.0594 C   0  0  0  0  0  0  0  0  0  0  0  0
   29.0231  -31.4502  -18.2536 C   0  0  2  0  0  0  0  0  0  0  0  0
   27.8972  -31.4207  -17.3506 N   0  0  0  0  0  0  0  0  0  0  0  0
   30.3105  -31.3581  -17.5022 C   0  0  0  0  0  0  0  0  0  0  0  0
   30.5210  -30.4679  -16.6469 O   0  0  0  0  0  0  0  0  0  0  0  0
   33.7683  -33.2568  -15.2327 O   0  0  0  0  0  0  0  0  0  0  0  0
   32.5163  -33.3076  -15.8493 C   0  0  0  0  0  0  0  0  0  0  0  0
   32.5653  -32.4424  -17.0646 C   0  0  2  0  0  0  0  0  0  0  0  0
   31.3206  -32.3027  -17.7637 N   0  0  0  0  0  0  0  0  0  0  0  0
   33.7299  -32.7302  -17.9559 C   0  0  0  0  0  0  0  0  0  0  0  0
   33.5054  -33.3436  -19.0217 O   0  0  0  0  0  0  0  0  0  0  0  0
   34.9841  -32.3256  -17.5863 O   0  0  0  0  0  0  0  0  0  0  0  0
  1  2  1  0
  2  3  1  0
  3  5  1  0
  3  4  1  1
  5  7  1  0
  5  6  1  6
  7  8  2  0
  9 10  1  0
 10 11  1  0
 11 13  1  0
 11 12  1  6
 13 14  1  1
 14  7  1  0
 15 16  2  0
 15 13  1  0
 17 18  1  0
 19 18  1  1
 19 20  1  0
 19 21  1  0
 20 15  1  0
 21 23  1  0
 22 21  2  0
M  END
$$$$
