IIS.pdb
     RDKit          3D

 23 22  0  0  1  0  0  0  0  0999 V2000
   20.7070  -21.0397  -10.1485 C   0  0  0  0  0  0  0  0  0  0  0  0
   22.1266  -21.2127   -9.7329 C   0  0  0  0  0  0  0  0  0  0  0  0
   23.1432  -20.6847  -10.7177 C   0  0  2  0  0  0  0  0  0  0  0  0
   22.8393  -21.3030  -12.0401 C   0  0  0  0  0  0  0  0  0  0  0  0
   24.5278  -20.9400  -10.1934 C   0  0  2  0  0  0  0  0  0  0  0  0
   24.6138  -20.2106   -8.9157 N   0  0  0  0  0  0  0  0  0  0  0  0
   25.5993  -20.3828  -11.0549 C   0  0  0  0  0  0  0  0  0  0  0  0
   25.8312  -19.1251  -11.1038 O   0  0  0  0  0  0  0  0  0  0  0  0
   30.4527  -21.8134  -10.8221 C   0  0  0  0  0  0  0  0  0  0  0  0
   29.1836  -20.9828  -11.0405 C   0  0  0  0  0  0  0  0  0  0  0  0
   28.7626  -21.2224  -12.4628 C   0  0  2  0  0  0  0  0  0  0  0  0
   29.8140  -20.5711  -13.3639 C   0  0  0  0  0  0  0  0  0  0  0  0
   27.4237  -20.5960  -12.7908 C   0  0  2  0  0  0  0  0  0  0  0  0
   26.4502  -21.1590  -11.8856 N   0  0  0  0  0  0  0  0  0  0  0  0
   27.0798  -20.9162  -14.2085 C   0  0  0  0  0  0  0  0  0  0  0  0
   27.0345  -22.0932  -14.6340 O   0  0  0  0  0  0  0  0  0  0  0  0
   24.9616  -18.0744  -16.3448 O   0  0  0  0  0  0  0  0  0  0  0  0
   24.9463  -19.4314  -16.6749 C   0  0  0  0  0  0  0  0  0  0  0  0
   26.3155  -19.9780  -16.4416 C   0  0  2  0  0  0  0  0  0  0  0  0
   26.7974  -19.8606  -15.0957 N   0  0  0  0  0  0  0  0  0  0  0  0
   27.3092  -19.5618  -17.4775 C   0  0  0  0  0  0  0  0  0  0  0  0
   28.3277  -18.9497  -17.0896 O   0  0  0  0  0  0  0  0  0  0  0  0
   27.0791  -19.8532  -18.7949 O   0  0  0  0  0  0  0  0  0  0  0  0
  1  2  1  0
  2  3  1  0
  3  5  1  0
  3  4  1  6
  5  7  1  0
  5  6  1  1
  7  8  2  0
  9 10  1  0
 10 11  1  0
 11 13  1  0
 11 12  1  6
 13 14  1  1
 14  7  1  0
 15 16  2  0
 15 13  1  0
 17 18  1  0
 19 18  1  1
 19 20  1  0
 19 21  1  0
 20 15  1  0
 21 23  1  0
 22 21  2  0
M  END
$$$$
