IIS.pdb
     RDKit          3D

 23 22  0  0  1  0  0  0  0  0999 V2000
   22.8891  -12.8866  -21.8758 C   0  0  0  0  0  0  0  0  0  0  0  0
   23.1942  -12.4678  -20.4797 C   0  0  0  0  0  0  0  0  0  0  0  0
   22.4755  -11.2205  -20.0217 C   0  0  2  0  0  0  0  0  0  0  0  0
   22.8129  -10.1364  -20.9883 C   0  0  0  0  0  0  0  0  0  0  0  0
   22.8294  -10.9358  -18.5896 C   0  0  2  0  0  0  0  0  0  0  0  0
   22.7180  -12.2254  -17.8848 N   0  0  0  0  0  0  0  0  0  0  0  0
   21.8781  -10.0184  -17.9156 C   0  0  0  0  0  0  0  0  0  0  0  0
   21.1987   -9.1575  -18.5753 O   0  0  0  0  0  0  0  0  0  0  0  0
   18.1685  -11.4056  -14.5075 C   0  0  0  0  0  0  0  0  0  0  0  0
   18.8826  -10.6022  -15.5997 C   0  0  0  0  0  0  0  0  0  0  0  0
   19.8992   -9.7472  -14.8975 C   0  0  2  0  0  0  0  0  0  0  0  0
   19.1313   -8.6985  -14.0900 C   0  0  0  0  0  0  0  0  0  0  0  0
   20.8102   -9.0121  -15.8579 C   0  0  2  0  0  0  0  0  0  0  0  0
   21.6300  -10.0005  -16.5175 N   0  0  0  0  0  0  0  0  0  0  0  0
   21.6526   -8.0546  -15.0808 C   0  0  0  0  0  0  0  0  0  0  0  0
   22.6582   -8.4253  -14.4330 O   0  0  0  0  0  0  0  0  0  0  0  0
   22.2590   -4.3127  -16.4939 O   0  0  0  0  0  0  0  0  0  0  0  0
   23.0240   -4.9751  -15.5313 C   0  0  0  0  0  0  0  0  0  0  0  0
   22.0891   -5.6083  -14.5551 C   0  0  2  0  0  0  0  0  0  0  0  0
   21.3052   -6.6906  -15.0761 N   0  0  0  0  0  0  0  0  0  0  0  0
   21.3007   -4.6210  -13.7568 C   0  0  0  0  0  0  0  0  0  0  0  0
   20.0596   -4.6154  -13.9057 O   0  0  0  0  0  0  0  0  0  0  0  0
   21.9466   -3.7659  -12.9052 O   0  0  0  0  0  0  0  0  0  0  0  0
  1  2  1  0
  2  3  1  0
  3  5  1  0
  3  4  1  6
  5  7  1  0
  5  6  1  1
  7  8  2  0
  9 10  1  0
 10 11  1  0
 11 13  1  0
 11 12  1  6
 13 14  1  1
 14  7  1  0
 15 16  2  0
 15 13  1  0
 17 18  1  0
 19 18  1  6
 19 20  1  0
 19 21  1  0
 20 15  1  0
 21 23  1  0
 22 21  2  0
M  END
$$$$
