IIS.pdb
     RDKit          3D

 23 22  0  0  1  0  0  0  0  0999 V2000
   25.3694  -14.3787  -18.6024 C   0  0  0  0  0  0  0  0  0  0  0  0
   25.4152  -13.2335  -17.6515 C   0  0  0  0  0  0  0  0  0  0  0  0
   24.2462  -12.2818  -17.7502 C   0  0  2  0  0  0  0  0  0  0  0  0
   24.1337  -11.8673  -19.1781 C   0  0  0  0  0  0  0  0  0  0  0  0
   24.4304  -11.1590  -16.7691 C   0  0  2  0  0  0  0  0  0  0  0  0
   24.5258  -11.7960  -15.4435 N   0  0  0  0  0  0  0  0  0  0  0  0
   23.2690  -10.2388  -16.6974 C   0  0  0  0  0  0  0  0  0  0  0  0
   22.9528   -9.4837  -17.6812 O   0  0  0  0  0  0  0  0  0  0  0  0
   18.6256  -11.8027  -14.7548 C   0  0  0  0  0  0  0  0  0  0  0  0
   19.5871  -11.0289  -15.6630 C   0  0  0  0  0  0  0  0  0  0  0  0
   20.1589   -9.9208  -14.8248 C   0  0  2  0  0  0  0  0  0  0  0  0
   19.0378   -8.9072  -14.5853 C   0  0  0  0  0  0  0  0  0  0  0  0
   21.2969   -9.1947  -15.5108 C   0  0  2  0  0  0  0  0  0  0  0  0
   22.4162  -10.1044  -15.5698 N   0  0  0  0  0  0  0  0  0  0  0  0
   21.6399   -7.9798  -14.7127 C   0  0  0  0  0  0  0  0  0  0  0  0
   22.0079   -8.0493  -13.5177 O   0  0  0  0  0  0  0  0  0  0  0  0
   23.1033   -3.4643  -14.7655 O   0  0  0  0  0  0  0  0  0  0  0  0
   22.7928   -4.5917  -15.5290 C   0  0  0  0  0  0  0  0  0  0  0  0
   21.8704   -5.4505  -14.7293 C   0  0  2  0  0  0  0  0  0  0  0  0
   21.5466   -6.7152  -15.3235 N   0  0  0  0  0  0  0  0  0  0  0  0
   20.6858   -4.7149  -14.1913 C   0  0  0  0  0  0  0  0  0  0  0  0
   20.7191   -4.3620  -12.9925 O   0  0  0  0  0  0  0  0  0  0  0  0
   19.6184   -4.4566  -15.0082 O   0  0  0  0  0  0  0  0  0  0  0  0
  1  2  1  0
  2  3  1  0
  3  5  1  0
  3  4  1  6
  5  7  1  0
  5  6  1  1
  7  8  2  0
  9 10  1  0
 10 11  1  0
 11 13  1  0
 11 12  1  6
 13 14  1  1
 14  7  1  0
 15 16  2  0
 15 13  1  0
 17 18  1  0
 19 18  1  6
 19 20  1  0
 19 21  1  0
 20 15  1  0
 21 23  1  0
 22 21  2  0
M  END
$$$$
