IIS.pdb
     RDKit          3D

 23 22  0  0  1  0  0  0  0  0999 V2000
   17.0836  -25.3095   -8.4531 C   0  0  0  0  0  0  0  0  0  0  0  0
   18.3835  -24.8219   -7.9141 C   0  0  0  0  0  0  0  0  0  0  0  0
   18.9387  -23.6010   -8.6090 C   0  0  2  0  0  0  0  0  0  0  0  0
   19.0574  -23.9332  -10.0578 C   0  0  0  0  0  0  0  0  0  0  0  0
   20.2173  -23.1823   -7.9404 C   0  0  2  0  0  0  0  0  0  0  0  0
   19.8383  -22.7547   -6.5818 N   0  0  0  0  0  0  0  0  0  0  0  0
   20.8595  -22.0051   -8.5748 C   0  0  0  0  0  0  0  0  0  0  0  0
   20.2902  -20.8589   -8.5872 O   0  0  0  0  0  0  0  0  0  0  0  0
   25.9928  -20.5899   -8.0524 C   0  0  0  0  0  0  0  0  0  0  0  0
   24.4663  -20.5954   -8.1858 C   0  0  0  0  0  0  0  0  0  0  0  0
   24.1706  -20.8695   -9.6332 C   0  0  2  0  0  0  0  0  0  0  0  0
   24.7807  -19.7258  -10.4464 C   0  0  0  0  0  0  0  0  0  0  0  0
   22.6865  -20.9055   -9.9314 C   0  0  2  0  0  0  0  0  0  0  0  0
   22.1286  -22.0257   -9.2118 N   0  0  0  0  0  0  0  0  0  0  0  0
   22.4978  -21.0714  -11.4036 C   0  0  0  0  0  0  0  0  0  0  0  0
   22.9878  -22.0363  -12.0339 O   0  0  0  0  0  0  0  0  0  0  0  0
   20.1254  -19.3648  -15.2898 O   0  0  0  0  0  0  0  0  0  0  0  0
   20.3316  -19.2039  -13.9179 C   0  0  0  0  0  0  0  0  0  0  0  0
   21.4308  -20.1256  -13.5055 C   0  0  2  0  0  0  0  0  0  0  0  0
   21.7446  -20.1120  -12.1060 N   0  0  0  0  0  0  0  0  0  0  0  0
   22.6306  -20.0594  -14.3943 C   0  0  0  0  0  0  0  0  0  0  0  0
   23.5531  -19.2831  -14.0646 O   0  0  0  0  0  0  0  0  0  0  0  0
   22.6830  -20.8321  -15.5229 O   0  0  0  0  0  0  0  0  0  0  0  0
  1  2  1  0
  2  3  1  0
  3  5  1  0
  3  4  1  6
  5  7  1  0
  5  6  1  1
  7  8  2  0
  9 10  1  0
 10 11  1  0
 11 13  1  0
 11 12  1  6
 13 14  1  1
 14  7  1  0
 15 16  2  0
 15 13  1  0
 17 18  1  0
 19 18  1  1
 19 20  1  0
 19 21  1  0
 20 15  1  0
 21 23  1  0
 22 21  2  0
M  END
$$$$
