IIS.pdb
     RDKit          3D

 23 22  0  0  1  0  0  0  0  0999 V2000
   27.9283  -20.1988   -7.5095 C   0  0  0  0  0  0  0  0  0  0  0  0
   27.7343  -20.8965   -8.8108 C   0  0  0  0  0  0  0  0  0  0  0  0
   26.5563  -20.4088   -9.6210 C   0  0  2  0  0  0  0  0  0  0  0  0
   25.3374  -20.5914   -8.7818 C   0  0  0  0  0  0  0  0  0  0  0  0
   26.5338  -21.1148  -10.9469 C   0  0  2  0  0  0  0  0  0  0  0  0
   27.8727  -20.9166  -11.5300 N   0  0  0  0  0  0  0  0  0  0  0  0
   25.5756  -20.5267  -11.9148 C   0  0  0  0  0  0  0  0  0  0  0  0
   25.5270  -19.2650  -12.1244 O   0  0  0  0  0  0  0  0  0  0  0  0
   25.6269  -20.5914  -16.7814 C   0  0  0  0  0  0  0  0  0  0  0  0
   25.3225  -20.2103  -15.3287 C   0  0  0  0  0  0  0  0  0  0  0  0
   24.0495  -20.9205  -14.9645 C   0  0  2  0  0  0  0  0  0  0  0  0
   22.9447  -20.3638  -15.8651 C   0  0  0  0  0  0  0  0  0  0  0  0
   23.6360  -20.6817  -13.5276 C   0  0  2  0  0  0  0  0  0  0  0  0
   24.6454  -21.2754  -12.6835 N   0  0  0  0  0  0  0  0  0  0  0  0
   22.3066  -21.3229  -13.2992 C   0  0  0  0  0  0  0  0  0  0  0  0
   22.1392  -22.5607  -13.3894 O   0  0  0  0  0  0  0  0  0  0  0  0
   18.9596  -18.8477  -12.2036 O   0  0  0  0  0  0  0  0  0  0  0  0
   19.1690  -20.1049  -11.6326 C   0  0  0  0  0  0  0  0  0  0  0  0
   19.8841  -20.9520  -12.6321 C   0  0  2  0  0  0  0  0  0  0  0  0
   21.2056  -20.5095  -12.9716 N   0  0  0  0  0  0  0  0  0  0  0  0
   19.0462  -21.3157  -13.8151 C   0  0  0  0  0  0  0  0  0  0  0  0
   19.3591  -20.8215  -14.9199 O   0  0  0  0  0  0  0  0  0  0  0  0
   17.9799  -22.1593  -13.6584 O   0  0  0  0  0  0  0  0  0  0  0  0
  1  2  1  0
  2  3  1  0
  3  5  1  0
  3  4  1  1
  5  7  1  0
  5  6  1  6
  7  8  2  0
  9 10  1  0
 10 11  1  0
 11 13  1  0
 11 12  1  6
 13 14  1  1
 14  7  1  0
 15 16  2  0
 15 13  1  0
 17 18  1  0
 19 18  1  6
 19 20  1  0
 19 21  1  0
 20 15  1  0
 21 23  1  0
 22 21  2  0
M  END
$$$$
