IIS.pdb
     RDKit          3D

 23 22  0  0  1  0  0  0  0  0999 V2000
   19.2815  -16.5139  -18.5355 C   0  0  0  0  0  0  0  0  0  0  0  0
   20.6817  -16.4115  -18.0388 C   0  0  0  0  0  0  0  0  0  0  0  0
   20.9737  -15.1765  -17.2193 C   0  0  2  0  0  0  0  0  0  0  0  0
   20.4809  -14.0037  -17.9971 C   0  0  0  0  0  0  0  0  0  0  0  0
   22.4335  -15.1439  -16.8657 C   0  0  2  0  0  0  0  0  0  0  0  0
   22.6782  -16.3528  -16.0590 N   0  0  0  0  0  0  0  0  0  0  0  0
   22.8088  -13.9955  -16.0047 C   0  0  0  0  0  0  0  0  0  0  0  0
   22.3384  -13.8655  -14.8215 O   0  0  0  0  0  0  0  0  0  0  0  0
   27.7177  -12.2579  -15.2794 C   0  0  0  0  0  0  0  0  0  0  0  0
   26.2477  -12.6287  -15.0566 C   0  0  0  0  0  0  0  0  0  0  0  0
   25.4368  -11.5073  -15.6417 C   0  0  2  0  0  0  0  0  0  0  0  0
   25.7095  -10.2605  -14.7975 C   0  0  0  0  0  0  0  0  0  0  0  0
   23.9473  -11.7763  -15.5973 C   0  0  2  0  0  0  0  0  0  0  0  0
   23.6981  -12.9572  -16.3892 N   0  0  0  0  0  0  0  0  0  0  0  0
   23.2304  -10.5947  -16.1635 C   0  0  0  0  0  0  0  0  0  0  0  0
   23.3729  -10.2366  -17.3551 O   0  0  0  0  0  0  0  0  0  0  0  0
   19.4641   -7.7755  -16.0670 O   0  0  0  0  0  0  0  0  0  0  0  0
   20.0953   -8.9125  -15.5576 C   0  0  0  0  0  0  0  0  0  0  0  0
   21.5688   -8.7284  -15.7084 C   0  0  2  0  0  0  0  0  0  0  0  0
   22.3660   -9.8595  -15.3309 N   0  0  0  0  0  0  0  0  0  0  0  0
   22.0672   -7.4291  -15.1632 C   0  0  0  0  0  0  0  0  0  0  0  0
   22.3642   -7.3864  -13.9498 O   0  0  0  0  0  0  0  0  0  0  0  0
   22.1787   -6.3440  -15.9899 O   0  0  0  0  0  0  0  0  0  0  0  0
  1  2  1  0
  2  3  1  0
  3  5  1  0
  3  4  1  6
  5  7  1  0
  5  6  1  1
  7  8  2  0
  9 10  1  0
 10 11  1  0
 11 13  1  0
 11 12  1  1
 13 14  1  6
 14  7  1  0
 15 16  2  0
 15 13  1  0
 17 18  1  0
 19 18  1  1
 19 20  1  0
 19 21  1  0
 20 15  1  0
 21 23  1  0
 22 21  2  0
M  END
$$$$
