LTL.pdb
     RDKit          3D

 24 23  0  0  1  0  0  0  0  0999 V2000
   17.3790  -19.5086  -15.0632 C   0  0  0  0  0  0  0  0  0  0  0  0
   18.3614  -20.6305  -15.2030 C   0  0  2  0  0  0  0  0  0  0  0  0
   18.4170  -21.3862  -13.8973 C   0  0  0  0  0  0  0  0  0  0  0  0
   19.7083  -20.1838  -15.6794 C   0  0  0  0  0  0  0  0  0  0  0  0
   19.6446  -19.4740  -17.0135 C   0  0  2  0  0  0  0  0  0  0  0  0
   19.1623  -20.4041  -18.0174 N   0  0  0  0  0  0  0  0  0  0  0  0
   20.9576  -18.9772  -17.4359 C   0  0  0  0  0  0  0  0  0  0  0  0
   21.8531  -19.7614  -17.9025 O   0  0  0  0  0  0  0  0  0  0  0  0
   22.3690  -18.5550  -20.0182 C   0  0  0  0  0  0  0  0  0  0  0  0
   22.3948  -17.1565  -19.4944 C   0  0  1  0  0  0  0  0  0  0  0  0
   21.2409  -16.4574  -19.8468 O   0  0  0  0  0  0  0  0  0  0  0  0
   22.5674  -17.1028  -17.9828 C   0  0  2  0  0  0  0  0  0  0  0  0
   21.3456  -17.6055  -17.3658 N   0  0  0  0  0  0  0  0  0  0  0  0
   22.9071  -15.7498  -17.5046 C   0  0  0  0  0  0  0  0  0  0  0  0
   22.0220  -15.0762  -16.9186 O   0  0  0  0  0  0  0  0  0  0  0  0
   25.8917  -14.2481  -14.4991 C   0  0  0  0  0  0  0  0  0  0  0  0
   26.4990  -14.6574  -15.8524 C   0  0  2  0  0  0  0  0  0  0  0  0
   27.9972  -14.5316  -15.6766 C   0  0  0  0  0  0  0  0  0  0  0  0
   25.9571  -13.6869  -16.8487 C   0  0  0  0  0  0  0  0  0  0  0  0
   24.4936  -13.8314  -17.1466 C   0  0  2  0  0  0  0  0  0  0  0  0
   24.1858  -15.1578  -17.6682 N   0  0  0  0  0  0  0  0  0  0  0  0
   23.9767  -12.8606  -18.1310 C   0  0  0  0  0  0  0  0  0  0  0  0
   23.7929  -13.1475  -19.3521 O   0  0  0  0  0  0  0  0  0  0  0  0
   23.6706  -11.5811  -17.7400 O   0  0  0  0  0  0  0  0  0  0  0  0
  2  1  1  1
  2  3  1  0
  4  5  1  0
  4  2  1  0
  5  7  1  0
  5  6  1  6
  7  8  2  0
 10  9  1  1
 10 12  1  0
 11 10  1  0
 12 13  1  1
 13  7  1  0
 14 15  2  0
 14 12  1  0
 17 16  1  1
 17 19  1  0
 18 17  1  0
 20 19  1  6
 20 21  1  0
 20 22  1  0
 21 14  1  0
 22 24  1  0
 23 22  2  0
M  END
$$$$
