LTL.pdb
     RDKit          3D

 24 23  0  0  1  0  0  0  0  0999 V2000
   14.7857  -12.7591   -9.5224 C   0  0  0  0  0  0  0  0  0  0  0  0
   13.8815  -12.1624  -10.5566 C   0  0  2  0  0  0  0  0  0  0  0  0
   13.6763  -13.1748  -11.6575 C   0  0  0  0  0  0  0  0  0  0  0  0
   14.3528  -10.8346  -11.0620 C   0  0  0  0  0  0  0  0  0  0  0  0
   14.4108   -9.7875   -9.9721 C   0  0  2  0  0  0  0  0  0  0  0  0
   13.0584   -9.4757   -9.5486 N   0  0  0  0  0  0  0  0  0  0  0  0
   15.0488   -8.5500  -10.4311 C   0  0  0  0  0  0  0  0  0  0  0  0
   14.5090   -7.8071  -11.3208 O   0  0  0  0  0  0  0  0  0  0  0  0
   15.3916   -5.4017   -9.0828 C   0  0  0  0  0  0  0  0  0  0  0  0
   16.8090   -5.7861   -9.3549 C   0  0  1  0  0  0  0  0  0  0  0  0
   17.4483   -6.2326   -8.1989 O   0  0  0  0  0  0  0  0  0  0  0  0
   16.9270   -6.8540  -10.4333 C   0  0  2  0  0  0  0  0  0  0  0  0
   16.3006   -8.0741   -9.9379 N   0  0  0  0  0  0  0  0  0  0  0  0
   18.3243   -7.0830  -10.8457 C   0  0  0  0  0  0  0  0  0  0  0  0
   18.9924   -7.9669  -10.2517 O   0  0  0  0  0  0  0  0  0  0  0  0
   21.5226   -9.0929  -14.9431 C   0  0  0  0  0  0  0  0  0  0  0  0
   21.7502   -8.1291  -13.7654 C   0  0  2  0  0  0  0  0  0  0  0  0
   22.5915   -8.8998  -12.7706 C   0  0  0  0  0  0  0  0  0  0  0  0
   20.3915   -7.8081  -13.2373 C   0  0  0  0  0  0  0  0  0  0  0  0
   20.3351   -6.6448  -12.2913 C   0  0  2  0  0  0  0  0  0  0  0  0
   18.9651   -6.3579  -11.8829 N   0  0  0  0  0  0  0  0  0  0  0  0
   20.8831   -5.3893  -12.8411 C   0  0  0  0  0  0  0  0  0  0  0  0
   22.1239   -5.1953  -13.0138 O   0  0  0  0  0  0  0  0  0  0  0  0
   20.0388   -4.3658  -13.1921 O   0  0  0  0  0  0  0  0  0  0  0  0
  2  1  1  1
  2  3  1  0
  4  5  1  0
  4  2  1  0
  5  7  1  0
  5  6  1  6
  7  8  2  0
 10  9  1  1
 10 12  1  0
 11 10  1  0
 12 13  1  1
 13  7  1  0
 14 15  2  0
 14 12  1  0
 17 16  1  6
 17 19  1  0
 18 17  1  0
 20 19  1  6
 20 21  1  0
 20 22  1  0
 21 14  1  0
 22 24  1  0
 23 22  2  0
M  END
$$$$
