LTL.pdb
     RDKit          3D

 24 23  0  0  1  0  0  0  0  0999 V2000
   21.8413  -15.7719  -17.6160 C   0  0  0  0  0  0  0  0  0  0  0  0
   20.7665  -16.6632  -17.0741 C   0  0  2  0  0  0  0  0  0  0  0  0
   19.8258  -15.8286  -16.2388 C   0  0  0  0  0  0  0  0  0  0  0  0
   21.2976  -17.8564  -16.3429 C   0  0  0  0  0  0  0  0  0  0  0  0
   22.4127  -18.5476  -17.0955 C   0  0  2  0  0  0  0  0  0  0  0  0
   21.8393  -19.3059  -18.1917 N   0  0  0  0  0  0  0  0  0  0  0  0
   23.1658  -19.4692  -16.2395 C   0  0  0  0  0  0  0  0  0  0  0  0
   22.6350  -20.5333  -15.7695 O   0  0  0  0  0  0  0  0  0  0  0  0
   27.4118  -19.0727  -15.6545 C   0  0  0  0  0  0  0  0  0  0  0  0
   26.6654  -20.3663  -15.6344 C   0  0  1  0  0  0  0  0  0  0  0  0
   27.3595  -21.3458  -14.9251 O   0  0  0  0  0  0  0  0  0  0  0  0
   25.2674  -20.2241  -15.0489 C   0  0  2  0  0  0  0  0  0  0  0  0
   24.5272  -19.2666  -15.8624 N   0  0  0  0  0  0  0  0  0  0  0  0
   25.2916  -19.8333  -13.6272 C   0  0  0  0  0  0  0  0  0  0  0  0
   25.2720  -18.6103  -13.3364 O   0  0  0  0  0  0  0  0  0  0  0  0
   22.7100  -21.0301  -12.0580 C   0  0  0  0  0  0  0  0  0  0  0  0
   22.9348  -20.4455  -10.6525 C   0  0  2  0  0  0  0  0  0  0  0  0
   21.6956  -19.6297  -10.3523 C   0  0  0  0  0  0  0  0  0  0  0  0
   24.1624  -19.6027  -10.7567 C   0  0  0  0  0  0  0  0  0  0  0  0
   25.4053  -20.3370  -11.1657 C   0  0  2  0  0  0  0  0  0  0  0  0
   25.3361  -20.7645  -12.5581 N   0  0  0  0  0  0  0  0  0  0  0  0
   25.6858  -21.5460  -10.3667 C   0  0  0  0  0  0  0  0  0  0  0  0
   25.8167  -22.6976  -10.8804 O   0  0  0  0  0  0  0  0  0  0  0  0
   25.8172  -21.4545   -9.0037 O   0  0  0  0  0  0  0  0  0  0  0  0
  2  1  1  1
  2  3  1  0
  4  5  1  0
  4  2  1  0
  5  7  1  0
  5  6  1  6
  7  8  2  0
 10  9  1  1
 10 12  1  0
 11 10  1  0
 12 13  1  6
 13  7  1  0
 14 15  2  0
 14 12  1  0
 17 16  1  6
 17 19  1  0
 18 17  1  0
 20 19  1  1
 20 21  1  0
 20 22  1  0
 21 14  1  0
 22 24  1  0
 23 22  2  0
M  END
$$$$
