LTL.pdb
     RDKit          3D

 24 23  0  0  1  0  0  0  0  0999 V2000
   29.2730  -17.6954  -16.4329 C   0  0  0  0  0  0  0  0  0  0  0  0
   27.8096  -17.3761  -16.4367 C   0  0  2  0  0  0  0  0  0  0  0  0
   27.5992  -16.0949  -17.2069 C   0  0  0  0  0  0  0  0  0  0  0  0
   27.2062  -17.3424  -15.0673 C   0  0  0  0  0  0  0  0  0  0  0  0
   27.5047  -18.5938  -14.2720 C   0  0  2  0  0  0  0  0  0  0  0  0
   27.2396  -19.7529  -15.1038 N   0  0  0  0  0  0  0  0  0  0  0  0
   26.6763  -18.6904  -13.0663 C   0  0  0  0  0  0  0  0  0  0  0  0
   26.1465  -17.6567  -12.5320 O   0  0  0  0  0  0  0  0  0  0  0  0
   23.4909  -20.3985  -12.6280 C   0  0  0  0  0  0  0  0  0  0  0  0
   24.3711  -20.9269  -11.5431 C   0  0  1  0  0  0  0  0  0  0  0  0
   24.8771  -22.1862  -11.8634 O   0  0  0  0  0  0  0  0  0  0  0  0
   25.5290  -19.9915  -11.2238 C   0  0  2  0  0  0  0  0  0  0  0  0
   26.3931  -19.9182  -12.3961 N   0  0  0  0  0  0  0  0  0  0  0  0
   26.2716  -20.4086  -10.0199 C   0  0  0  0  0  0  0  0  0  0  0  0
   27.2456  -21.1924  -10.1522 O   0  0  0  0  0  0  0  0  0  0  0  0
   28.3642  -18.5421   -4.7946 C   0  0  0  0  0  0  0  0  0  0  0  0
   27.9855  -19.8518   -5.5080 C   0  0  2  0  0  0  0  0  0  0  0  0
   29.2812  -20.6207   -5.6539 C   0  0  0  0  0  0  0  0  0  0  0  0
   27.4117  -19.4440   -6.8243 C   0  0  0  0  0  0  0  0  0  0  0  0
   26.6236  -20.5070   -7.5316 C   0  0  2  0  0  0  0  0  0  0  0  0
   25.9488  -19.9734   -8.7089 N   0  0  0  0  0  0  0  0  0  0  0  0
   25.5825  -21.1434   -6.7009 C   0  0  0  0  0  0  0  0  0  0  0  0
   25.8471  -21.8235   -5.6642 O   0  0  0  0  0  0  0  0  0  0  0  0
   24.2585  -21.0123   -7.0375 O   0  0  0  0  0  0  0  0  0  0  0  0
  2  1  1  1
  2  3  1  0
  4  5  1  0
  4  2  1  0
  5  7  1  0
  5  6  1  6
  7  8  2  0
 10  9  1  6
 10 12  1  0
 11 10  1  0
 12 13  1  6
 13  7  1  0
 14 15  2  0
 14 12  1  0
 17 16  1  1
 17 19  1  0
 18 17  1  0
 20 19  1  1
 20 21  1  0
 20 22  1  0
 21 14  1  0
 22 24  1  0
 23 22  2  0
M  END
$$$$
