LTL.pdb
     RDKit          3D

 24 23  0  0  1  0  0  0  0  0999 V2000
   22.1099  -22.1791  -12.5639 C   0  0  0  0  0  0  0  0  0  0  0  0
   22.2004  -21.9365  -11.0887 C   0  0  2  0  0  0  0  0  0  0  0  0
   20.8586  -21.4479  -10.5988 C   0  0  0  0  0  0  0  0  0  0  0  0
   23.3294  -21.0321  -10.7042 C   0  0  0  0  0  0  0  0  0  0  0  0
   24.6433  -21.4495  -11.3263 C   0  0  2  0  0  0  0  0  0  0  0  0
   25.5407  -21.8918  -10.2753 N   0  0  0  0  0  0  0  0  0  0  0  0
   25.2850  -20.3470  -12.0489 C   0  0  0  0  0  0  0  0  0  0  0  0
   25.8674  -19.3901  -11.4325 O   0  0  0  0  0  0  0  0  0  0  0  0
   28.2041  -20.5941  -13.8929 C   0  0  0  0  0  0  0  0  0  0  0  0
   27.2698  -19.9449  -14.8607 C   0  0  1  0  0  0  0  0  0  0  0  0
   26.7628  -20.8653  -15.7773 O   0  0  0  0  0  0  0  0  0  0  0  0
   26.1108  -19.2403  -14.1695 C   0  0  2  0  0  0  0  0  0  0  0  0
   25.3167  -20.2449  -13.4720 N   0  0  0  0  0  0  0  0  0  0  0  0
   25.2938  -18.4503  -15.1092 C   0  0  0  0  0  0  0  0  0  0  0  0
   24.1496  -18.8711  -15.4162 O   0  0  0  0  0  0  0  0  0  0  0  0
   23.1912  -14.1976  -15.4422 C   0  0  0  0  0  0  0  0  0  0  0  0
   24.7196  -14.3046  -15.3002 C   0  0  2  0  0  0  0  0  0  0  0  0
   25.2173  -12.8777  -15.2129 C   0  0  0  0  0  0  0  0  0  0  0  0
   25.1925  -15.0003  -16.5333 C   0  0  0  0  0  0  0  0  0  0  0  0
   24.8776  -16.4659  -16.5973 C   0  0  2  0  0  0  0  0  0  0  0  0
   25.7267  -17.2319  -15.6927 N   0  0  0  0  0  0  0  0  0  0  0  0
   25.0418  -17.0632  -17.9371 C   0  0  0  0  0  0  0  0  0  0  0  0
   26.0737  -17.7147  -18.2804 O   0  0  0  0  0  0  0  0  0  0  0  0
   24.0514  -16.9264  -18.8773 O   0  0  0  0  0  0  0  0  0  0  0  0
  2  1  1  6
  2  3  1  0
  4  5  1  0
  4  2  1  0
  5  7  1  0
  5  6  1  1
  7  8  2  0
 10  9  1  1
 10 12  1  0
 11 10  1  0
 12 13  1  6
 13  7  1  0
 14 15  2  0
 14 12  1  0
 17 16  1  6
 17 19  1  0
 18 17  1  0
 20 19  1  6
 20 21  1  0
 20 22  1  0
 21 14  1  0
 22 24  1  0
 23 22  2  0
M  END
$$$$
