LTL.pdb
     RDKit          3D

 24 23  0  0  1  0  0  0  0  0999 V2000
   30.6580  -21.6033   -8.5154 C   0  0  0  0  0  0  0  0  0  0  0  0
   30.4114  -21.9981   -9.9390 C   0  0  2  0  0  0  0  0  0  0  0  0
   31.7385  -22.3060  -10.5892 C   0  0  0  0  0  0  0  0  0  0  0  0
   29.6039  -20.9947  -10.7017 C   0  0  0  0  0  0  0  0  0  0  0  0
   29.0926  -21.5414  -12.0161 C   0  0  2  0  0  0  0  0  0  0  0  0
   30.1874  -21.5755  -12.9678 N   0  0  0  0  0  0  0  0  0  0  0  0
   28.0189  -20.7148  -12.5755 C   0  0  0  0  0  0  0  0  0  0  0  0
   28.2361  -19.5264  -12.9942 O   0  0  0  0  0  0  0  0  0  0  0  0
   26.3453  -21.6193  -15.5202 C   0  0  0  0  0  0  0  0  0  0  0  0
   26.1198  -20.2852  -14.8875 C   0  0  1  0  0  0  0  0  0  0  0  0
   25.1910  -19.5306  -15.6032 O   0  0  0  0  0  0  0  0  0  0  0  0
   25.6619  -20.3960  -13.4399 C   0  0  2  0  0  0  0  0  0  0  0  0
   26.6660  -21.1518  -12.7003 N   0  0  0  0  0  0  0  0  0  0  0  0
   24.3220  -21.0001  -13.3200 C   0  0  0  0  0  0  0  0  0  0  0  0
   24.2302  -22.2487  -13.2050 O   0  0  0  0  0  0  0  0  0  0  0  0
   21.0974  -20.2831  -10.1996 C   0  0  0  0  0  0  0  0  0  0  0  0
   21.1985  -19.1917  -11.2795 C   0  0  2  0  0  0  0  0  0  0  0  0
   20.2016  -18.1279  -10.8721 C   0  0  0  0  0  0  0  0  0  0  0  0
   20.8304  -19.8581  -12.5635 C   0  0  0  0  0  0  0  0  0  0  0  0
   21.8235  -20.8646  -13.0654 C   0  0  2  0  0  0  0  0  0  0  0  0
   23.1190  -20.2484  -13.3267 N   0  0  0  0  0  0  0  0  0  0  0  0
   21.4205  -21.5441  -14.3123 C   0  0  0  0  0  0  0  0  0  0  0  0
   21.9305  -21.2742  -15.4411 O   0  0  0  0  0  0  0  0  0  0  0  0
   20.4531  -22.5172  -14.2837 O   0  0  0  0  0  0  0  0  0  0  0  0
  2  1  1  1
  2  3  1  0
  4  5  1  0
  4  2  1  0
  5  7  1  0
  5  6  1  6
  7  8  2  0
 10  9  1  6
 10 12  1  0
 11 10  1  0
 12 13  1  1
 13  7  1  0
 14 15  2  0
 14 12  1  0
 17 16  1  1
 17 19  1  0
 18 17  1  0
 20 19  1  6
 20 21  1  0
 20 22  1  0
 21 14  1  0
 22 24  1  0
 23 22  2  0
M  END
$$$$
