LTL.pdb
     RDKit          3D

 24 23  0  0  1  0  0  0  0  0999 V2000
   14.0190  -11.0643  -15.3454 C   0  0  0  0  0  0  0  0  0  0  0  0
   14.9264  -12.0114  -14.6223 C   0  0  2  0  0  0  0  0  0  0  0  0
   14.0809  -13.0535  -13.9307 C   0  0  0  0  0  0  0  0  0  0  0  0
   15.8844  -11.3266  -13.6984 C   0  0  0  0  0  0  0  0  0  0  0  0
   16.7242  -10.2847  -14.4034 C   0  0  2  0  0  0  0  0  0  0  0  0
   17.9135  -10.9226  -14.9363 N   0  0  0  0  0  0  0  0  0  0  0  0
   17.1419   -9.2099  -13.4981 C   0  0  0  0  0  0  0  0  0  0  0  0
   18.0791   -9.3780  -12.6448 O   0  0  0  0  0  0  0  0  0  0  0  0
   18.8975   -6.1765  -14.1359 C   0  0  0  0  0  0  0  0  0  0  0  0
   17.6291   -5.7470  -13.4743 C   0  0  1  0  0  0  0  0  0  0  0  0
   16.6831   -5.3254  -14.4079 O   0  0  0  0  0  0  0  0  0  0  0  0
   17.0217   -6.8432  -12.6101 C   0  0  2  0  0  0  0  0  0  0  0  0
   16.5538   -7.9095  -13.4878 N   0  0  0  0  0  0  0  0  0  0  0  0
   15.9452   -6.3383  -11.7379 C   0  0  0  0  0  0  0  0  0  0  0  0
   14.7563   -6.4143  -12.1397 O   0  0  0  0  0  0  0  0  0  0  0  0
   13.4237   -7.1823   -7.9452 C   0  0  0  0  0  0  0  0  0  0  0  0
   14.9558   -7.0720   -7.8547 C   0  0  2  0  0  0  0  0  0  0  0  0
   15.3015   -7.4239   -6.4236 C   0  0  0  0  0  0  0  0  0  0  0  0
   15.2795   -5.6536   -8.1885 C   0  0  0  0  0  0  0  0  0  0  0  0
   15.0812   -5.2775   -9.6275 C   0  0  2  0  0  0  0  0  0  0  0  0
   16.1739   -5.7664  -10.4600 N   0  0  0  0  0  0  0  0  0  0  0  0
   14.9865   -3.8240   -9.8666 C   0  0  0  0  0  0  0  0  0  0  0  0
   13.9281   -3.1579   -9.6581 O   0  0  0  0  0  0  0  0  0  0  0  0
   16.0749   -3.1316  -10.3350 O   0  0  0  0  0  0  0  0  0  0  0  0
  2  1  1  1
  2  3  1  0
  4  5  1  0
  4  2  1  0
  5  7  1  0
  5  6  1  1
  7  8  2  0
 10  9  1  6
 10 12  1  0
 11 10  1  0
 12 13  1  6
 13  7  1  0
 14 15  2  0
 14 12  1  0
 17 16  1  1
 17 19  1  0
 18 17  1  0
 20 19  1  1
 20 21  1  0
 20 22  1  0
 21 14  1  0
 22 24  1  0
 23 22  2  0
M  END
$$$$
