LTL.pdb
     RDKit          3D

 24 23  0  0  1  0  0  0  0  0999 V2000
   27.9136  -32.3634  -14.5889 C   0  0  0  0  0  0  0  0  0  0  0  0
   26.8457  -32.1897  -15.6246 C   0  0  2  0  0  0  0  0  0  0  0  0
   26.1944  -33.5289  -15.8727 C   0  0  0  0  0  0  0  0  0  0  0  0
   27.3358  -31.5352  -16.8783 C   0  0  0  0  0  0  0  0  0  0  0  0
   26.2546  -31.4139  -17.9290 C   0  0  2  0  0  0  0  0  0  0  0  0
   26.8439  -30.9013  -19.1518 N   0  0  0  0  0  0  0  0  0  0  0  0
   25.1837  -30.5028  -17.5142 C   0  0  0  0  0  0  0  0  0  0  0  0
   25.4039  -29.2612  -17.3025 O   0  0  0  0  0  0  0  0  0  0  0  0
   22.6924  -28.9997  -19.2852 C   0  0  0  0  0  0  0  0  0  0  0  0
   21.9333  -29.7220  -18.2208 C   0  0  1  0  0  0  0  0  0  0  0  0
   21.4356  -30.9392  -18.6847 O   0  0  0  0  0  0  0  0  0  0  0  0
   22.7699  -29.9690  -16.9732 C   0  0  2  0  0  0  0  0  0  0  0  0
   23.8305  -30.9098  -17.3139 N   0  0  0  0  0  0  0  0  0  0  0  0
   21.9576  -30.4452  -15.8382 C   0  0  0  0  0  0  0  0  0  0  0  0
   22.1133  -31.6266  -15.4374 O   0  0  0  0  0  0  0  0  0  0  0  0
   20.9921  -30.2460  -11.1260 C   0  0  0  0  0  0  0  0  0  0  0  0
   21.0971  -28.9485  -11.9464 C   0  0  2  0  0  0  0  0  0  0  0  0
   20.8320  -27.8278  -10.9640 C   0  0  0  0  0  0  0  0  0  0  0  0
   20.0421  -29.0483  -12.9976 C   0  0  0  0  0  0  0  0  0  0  0  0
   20.2561  -30.1324  -14.0127 C   0  0  2  0  0  0  0  0  0  0  0  0
   21.0018  -29.6413  -15.1655 N   0  0  0  0  0  0  0  0  0  0  0  0
   19.0106  -30.7257  -14.5376 C   0  0  0  0  0  0  0  0  0  0  0  0
   18.3133  -31.5579  -13.8830 O   0  0  0  0  0  0  0  0  0  0  0  0
   18.5582  -30.3821  -15.7870 O   0  0  0  0  0  0  0  0  0  0  0  0
  2  1  1  1
  2  3  1  0
  4  5  1  0
  4  2  1  0
  5  7  1  0
  5  6  1  6
  7  8  2  0
 10  9  1  6
 10 12  1  0
 11 10  1  0
 12 13  1  6
 13  7  1  0
 14 15  2  0
 14 12  1  0
 17 16  1  1
 17 19  1  0
 18 17  1  0
 20 19  1  1
 20 21  1  0
 20 22  1  0
 21 14  1  0
 22 24  1  0
 23 22  2  0
M  END
$$$$
