LTL.pdb
     RDKit          3D

 24 23  0  0  1  0  0  0  0  0999 V2000
   22.8963  -17.2258  -16.0248 C   0  0  0  0  0  0  0  0  0  0  0  0
   21.5186  -17.7080  -15.6891 C   0  0  2  0  0  0  0  0  0  0  0  0
   20.5783  -16.5271  -15.7073 C   0  0  0  0  0  0  0  0  0  0  0  0
   21.4571  -18.4864  -14.4120 C   0  0  0  0  0  0  0  0  0  0  0  0
   22.5770  -19.4962  -14.2949 C   0  0  2  0  0  0  0  0  0  0  0  0
   22.1897  -20.7093  -14.9904 N   0  0  0  0  0  0  0  0  0  0  0  0
   22.8678  -19.8362  -12.8988 C   0  0  0  0  0  0  0  0  0  0  0  0
   21.9494  -20.2215  -12.0970 O   0  0  0  0  0  0  0  0  0  0  0  0
   25.6128  -22.1638  -13.1879 C   0  0  0  0  0  0  0  0  0  0  0  0
   24.6747  -22.1129  -12.0268 C   0  0  1  0  0  0  0  0  0  0  0  0
   24.9848  -23.0849  -11.0763 O   0  0  0  0  0  0  0  0  0  0  0  0
   24.6530  -20.7475  -11.3539 C   0  0  2  0  0  0  0  0  0  0  0  0
   24.1716  -19.7692  -12.3222 N   0  0  0  0  0  0  0  0  0  0  0  0
   25.9685  -20.3726  -10.8027 C   0  0  0  0  0  0  0  0  0  0  0  0
   26.7511  -19.6943  -11.5155 O   0  0  0  0  0  0  0  0  0  0  0  0
   27.3272  -18.3766   -6.9098 C   0  0  0  0  0  0  0  0  0  0  0  0
   26.9258  -19.8484   -6.7085 C   0  0  2  0  0  0  0  0  0  0  0  0
   27.1006  -20.1152   -5.2287 C   0  0  0  0  0  0  0  0  0  0  0  0
   27.8699  -20.6434   -7.5479 C   0  0  0  0  0  0  0  0  0  0  0  0
   27.7486  -20.4204   -9.0268 C   0  0  2  0  0  0  0  0  0  0  0  0
   26.4071  -20.7355   -9.5035 N   0  0  0  0  0  0  0  0  0  0  0  0
   28.6843  -21.2223   -9.8394 C   0  0  0  0  0  0  0  0  0  0  0  0
   28.3465  -22.2966  -10.4216 O   0  0  0  0  0  0  0  0  0  0  0  0
   29.9858  -20.8146   -9.9927 O   0  0  0  0  0  0  0  0  0  0  0  0
  2  1  1  1
  2  3  1  0
  4  5  1  0
  4  2  1  0
  5  7  1  0
  5  6  1  6
  7  8  2  0
 10  9  1  6
 10 12  1  0
 11 10  1  0
 12 13  1  6
 13  7  1  0
 14 15  2  0
 14 12  1  0
 17 16  1  1
 17 19  1  0
 18 17  1  0
 20 19  1  1
 20 21  1  0
 20 22  1  0
 21 14  1  0
 22 24  1  0
 23 22  2  0
M  END
$$$$
