LTL.pdb
     RDKit          3D

 24 23  0  0  1  0  0  0  0  0999 V2000
   27.6571  -20.2674  -17.2960 C   0  0  0  0  0  0  0  0  0  0  0  0
   26.2477  -20.3159  -16.7915 C   0  0  2  0  0  0  0  0  0  0  0  0
   25.3191  -19.9461  -17.9228 C   0  0  0  0  0  0  0  0  0  0  0  0
   26.0293  -19.4921  -15.5610 C   0  0  0  0  0  0  0  0  0  0  0  0
   26.9793  -19.8586  -14.4425 C   0  0  2  0  0  0  0  0  0  0  0  0
   27.2207  -21.2888  -14.4817 N   0  0  0  0  0  0  0  0  0  0  0  0
   26.4357  -19.5171  -13.1246 C   0  0  0  0  0  0  0  0  0  0  0  0
   25.8021  -18.4250  -12.9229 O   0  0  0  0  0  0  0  0  0  0  0  0
   23.6745  -19.8946  -12.0043 C   0  0  0  0  0  0  0  0  0  0  0  0
   24.4059  -20.6116  -10.9171 C   0  0  1  0  0  0  0  0  0  0  0  0
   24.4374  -21.9871  -11.1435 O   0  0  0  0  0  0  0  0  0  0  0  0
   25.8298  -20.1035  -10.7386 C   0  0  2  0  0  0  0  0  0  0  0  0
   26.5617  -20.3531  -11.9748 N   0  0  0  0  0  0  0  0  0  0  0  0
   26.4995  -20.7090   -9.5725 C   0  0  0  0  0  0  0  0  0  0  0  0
   27.3095  -21.6514   -9.7630 O   0  0  0  0  0  0  0  0  0  0  0  0
   28.7296  -17.9188   -6.0970 C   0  0  0  0  0  0  0  0  0  0  0  0
   27.7927  -19.0668   -5.6824 C   0  0  2  0  0  0  0  0  0  0  0  0
   28.1510  -19.3808   -4.2456 C   0  0  0  0  0  0  0  0  0  0  0  0
   28.1024  -20.1959   -6.6084 C   0  0  0  0  0  0  0  0  0  0  0  0
   26.9087  -20.9583   -7.1036 C   0  0  2  0  0  0  0  0  0  0  0  0
   26.2816  -20.2869   -8.2359 N   0  0  0  0  0  0  0  0  0  0  0  0
   25.8522  -21.1544   -6.0916 C   0  0  0  0  0  0  0  0  0  0  0  0
   26.0499  -21.7618   -4.9965 O   0  0  0  0  0  0  0  0  0  0  0  0
   24.5878  -20.6694   -6.3143 O   0  0  0  0  0  0  0  0  0  0  0  0
  2  1  1  6
  2  3  1  0
  4  5  1  0
  4  2  1  0
  5  7  1  0
  5  6  1  1
  7  8  2  0
 10  9  1  6
 10 12  1  0
 11 10  1  0
 12 13  1  6
 13  7  1  0
 14 15  2  0
 14 12  1  0
 17 16  1  6
 17 19  1  0
 18 17  1  0
 20 19  1  1
 20 21  1  0
 20 22  1  0
 21 14  1  0
 22 24  1  0
 23 22  2  0
M  END
$$$$
