LTL.pdb
     RDKit          3D

 24 23  0  0  1  0  0  0  0  0999 V2000
   29.1990  -16.7650  -17.0803 C   0  0  0  0  0  0  0  0  0  0  0  0
   27.8484  -16.1200  -17.0233 C   0  0  2  0  0  0  0  0  0  0  0  0
   28.0317  -14.6216  -17.0044 C   0  0  0  0  0  0  0  0  0  0  0  0
   26.9988  -16.6207  -15.8972 C   0  0  0  0  0  0  0  0  0  0  0  0
   26.8978  -18.1297  -15.8747 C   0  0  2  0  0  0  0  0  0  0  0  0
   26.3132  -18.5796  -17.1242 N   0  0  0  0  0  0  0  0  0  0  0  0
   26.0585  -18.6087  -14.7723 C   0  0  0  0  0  0  0  0  0  0  0  0
   24.9049  -18.1082  -14.5411 O   0  0  0  0  0  0  0  0  0  0  0  0
   24.3825  -21.4315  -14.9410 C   0  0  0  0  0  0  0  0  0  0  0  0
   25.0800  -21.6304  -13.6353 C   0  0  1  0  0  0  0  0  0  0  0  0
   26.2021  -22.4463  -13.7744 O   0  0  0  0  0  0  0  0  0  0  0  0
   25.4970  -20.3158  -12.9906 C   0  0  2  0  0  0  0  0  0  0  0  0
   26.4444  -19.6524  -13.8786 N   0  0  0  0  0  0  0  0  0  0  0  0
   26.0531  -20.5058  -11.6380 C   0  0  0  0  0  0  0  0  0  0  0  0
   27.2939  -20.3883  -11.4730 O   0  0  0  0  0  0  0  0  0  0  0  0
   27.5403  -18.3509   -7.0284 C   0  0  0  0  0  0  0  0  0  0  0  0
   27.2755  -19.8102   -7.4383 C   0  0  2  0  0  0  0  0  0  0  0  0
   28.6375  -20.4687   -7.4876 C   0  0  0  0  0  0  0  0  0  0  0  0
   26.6251  -19.7415   -8.7801 C   0  0  0  0  0  0  0  0  0  0  0  0
   25.8475  -20.9630   -9.1735 C   0  0  2  0  0  0  0  0  0  0  0  0
   25.2633  -20.8163  -10.5014 N   0  0  0  0  0  0  0  0  0  0  0  0
   24.7377  -21.2956   -8.2588 C   0  0  0  0  0  0  0  0  0  0  0  0
   23.5216  -21.0750   -8.5406 O   0  0  0  0  0  0  0  0  0  0  0  0
   24.9993  -21.8713   -7.0407 O   0  0  0  0  0  0  0  0  0  0  0  0
  2  1  1  1
  2  3  1  0
  4  5  1  0
  4  2  1  0
  5  7  1  0
  5  6  1  6
  7  8  2  0
 10  9  1  6
 10 12  1  0
 11 10  1  0
 12 13  1  6
 13  7  1  0
 14 15  2  0
 14 12  1  0
 17 16  1  6
 17 19  1  0
 18 17  1  0
 20 19  1  1
 20 21  1  0
 20 22  1  0
 21 14  1  0
 22 24  1  0
 23 22  2  0
M  END
$$$$
