LTL.pdb
     RDKit          3D

 24 23  0  0  1  0  0  0  0  0999 V2000
   29.2775  -18.0881  -16.6928 C   0  0  0  0  0  0  0  0  0  0  0  0
   28.5476  -18.9577  -17.6697 C   0  0  2  0  0  0  0  0  0  0  0  0
   28.2888  -18.1590  -18.9243 C   0  0  0  0  0  0  0  0  0  0  0  0
   27.3081  -19.5764  -17.1028 C   0  0  0  0  0  0  0  0  0  0  0  0
   27.5950  -20.4545  -15.9050 C   0  0  2  0  0  0  0  0  0  0  0  0
   28.4324  -21.5625  -16.3252 N   0  0  0  0  0  0  0  0  0  0  0  0
   26.3682  -20.9993  -15.3156 C   0  0  0  0  0  0  0  0  0  0  0  0
   25.8070  -22.0480  -15.7848 O   0  0  0  0  0  0  0  0  0  0  0  0
   25.9012  -21.8221  -11.6832 C   0  0  0  0  0  0  0  0  0  0  0  0
   24.6907  -21.0480  -12.0910 C   0  0  1  0  0  0  0  0  0  0  0  0
   24.7290  -19.7435  -11.5998 O   0  0  0  0  0  0  0  0  0  0  0  0
   24.5065  -21.0061  -13.6015 C   0  0  2  0  0  0  0  0  0  0  0  0
   25.7053  -20.4219  -14.1914 N   0  0  0  0  0  0  0  0  0  0  0  0
   23.2881  -20.2762  -13.9982 C   0  0  0  0  0  0  0  0  0  0  0  0
   23.4031  -19.1075  -14.4469 O   0  0  0  0  0  0  0  0  0  0  0  0
   19.7458  -19.5330  -17.9469 C   0  0  0  0  0  0  0  0  0  0  0  0
   19.7479  -19.1209  -16.4644 C   0  0  2  0  0  0  0  0  0  0  0  0
   19.8790  -17.6129  -16.4653 C   0  0  0  0  0  0  0  0  0  0  0  0
   20.9326  -19.7972  -15.8585 C   0  0  0  0  0  0  0  0  0  0  0  0
   20.8105  -20.1042  -14.3949 C   0  0  2  0  0  0  0  0  0  0  0  0
   21.9814  -20.8201  -13.9025 N   0  0  0  0  0  0  0  0  0  0  0  0
   19.6354  -20.9257  -14.0439 C   0  0  0  0  0  0  0  0  0  0  0  0
   18.5150  -20.4262  -13.7240 O   0  0  0  0  0  0  0  0  0  0  0  0
   19.7254  -22.2951  -14.0549 O   0  0  0  0  0  0  0  0  0  0  0  0
  2  1  1  1
  2  3  1  0
  4  5  1  0
  4  2  1  0
  5  7  1  0
  5  6  1  6
  7  8  2  0
 10  9  1  6
 10 12  1  0
 11 10  1  0
 12 13  1  6
 13  7  1  0
 14 15  2  0
 14 12  1  0
 17 16  1  6
 17 19  1  0
 18 17  1  0
 20 19  1  6
 20 21  1  0
 20 22  1  0
 21 14  1  0
 22 24  1  0
 23 22  2  0
M  END
$$$$
