VLM.pdb
     RDKit          3D

 24 23  0  0  1  0  0  0  0  0999 V2000
   21.0565  -21.3908  -12.7216 C   0  0  0  0  0  0  0  0  0  0  0  0
   20.9131  -20.7529  -14.0591 C   0  0  2  0  0  0  0  0  0  0  0  0
   19.6824  -21.3410  -14.7280 C   0  0  0  0  0  0  0  0  0  0  0  0
   22.1074  -20.8655  -14.9632 C   0  0  2  0  0  0  0  0  0  0  0  0
   22.3383  -22.3122  -15.2579 N   0  0  0  0  0  0  0  0  0  0  0  0
   23.3410  -20.2832  -14.4251 C   0  0  0  0  0  0  0  0  0  0  0  0
   23.4326  -19.0354  -14.2456 O   0  0  0  0  0  0  0  0  0  0  0  0
   25.9512  -21.9282  -10.0543 C   0  0  0  0  0  0  0  0  0  0  0  0
   25.1737  -21.2712  -11.2198 C   0  0  1  0  0  0  0  0  0  0  0  0
   24.6945  -19.9494  -10.6445 C   0  0  0  0  0  0  0  0  0  0  0  0
   26.1816  -21.0925  -12.3056 C   0  0  0  0  0  0  0  0  0  0  0  0
   25.6971  -20.5462  -13.5980 C   0  0  2  0  0  0  0  0  0  0  0  0
   24.4547  -21.0827  -14.0881 N   0  0  0  0  0  0  0  0  0  0  0  0
   26.7553  -20.7357  -14.6081 C   0  0  0  0  0  0  0  0  0  0  0  0
   27.9481  -20.8340  -14.2429 O   0  0  0  0  0  0  0  0  0  0  0  0
   30.2866  -25.5568  -16.1190 C   0  0  0  0  0  0  0  0  0  0  0  0
   28.9555  -24.7164  -16.9974 S   0  0  0  0  0  0  0  0  0  0  0  0
   28.8890  -22.9655  -16.5998 C   0  0  0  0  0  0  0  0  0  0  0  0
   27.8188  -22.3058  -17.4325 C   0  0  0  0  0  0  0  0  0  0  0  0
   27.6056  -20.8736  -16.9431 C   0  0  2  0  0  0  0  0  0  0  0  0
   26.4999  -20.8158  -16.0050 N   0  0  0  0  0  0  0  0  0  0  0  0
   27.4096  -19.9307  -18.0611 C   0  0  0  0  0  0  0  0  0  0  0  0
   26.1515  -19.4749  -18.3553 O   0  0  0  0  0  0  0  0  0  0  0  0
   28.4148  -19.5623  -18.7269 O   0  0  0  0  0  0  0  0  0  0  0  0
  2  1  1  1
  2  3  1  0
  4  6  1  0
  4  2  1  0
  4  5  1  1
  6  7  2  0
  9 11  1  0
  9  8  1  1
 10  9  1  0
 12 11  1  1
 13 12  1  0
 13  6  1  0
 14 15  2  0
 14 12  1  0
 16 17  1  0
 17 18  1  0
 18 19  1  0
 20 19  1  6
 20 21  1  0
 20 22  1  0
 21 14  1  0
 22 24  2  0
 22 23  1  0
M  END
$$$$
