VLM.pdb
     RDKit          3D

 24 23  0  0  1  0  0  0  0  0999 V2000
   29.0352  -21.2047  -15.1246 C   0  0  0  0  0  0  0  0  0  0  0  0
   28.2375  -19.9572  -15.2791 C   0  0  2  0  0  0  0  0  0  0  0  0
   28.2966  -19.1986  -13.9643 C   0  0  0  0  0  0  0  0  0  0  0  0
   26.8119  -20.1480  -15.7125 C   0  0  2  0  0  0  0  0  0  0  0  0
   26.2333  -18.8065  -16.0263 N   0  0  0  0  0  0  0  0  0  0  0  0
   25.9568  -20.8208  -14.7294 C   0  0  0  0  0  0  0  0  0  0  0  0
   25.8639  -22.0813  -14.7205 O   0  0  0  0  0  0  0  0  0  0  0  0
   25.6652  -19.9000   -9.3705 C   0  0  0  0  0  0  0  0  0  0  0  0
   25.7765  -20.5527  -10.7691 C   0  0  1  0  0  0  0  0  0  0  0  0
   26.0202  -22.0224  -10.4717 C   0  0  0  0  0  0  0  0  0  0  0  0
   24.4539  -20.3101  -11.4161 C   0  0  0  0  0  0  0  0  0  0  0  0
   24.3096  -20.7130  -12.8374 C   0  0  2  0  0  0  0  0  0  0  0  0
   25.2194  -20.0972  -13.7672 N   0  0  0  0  0  0  0  0  0  0  0  0
   22.9186  -20.4539  -13.2546 C   0  0  0  0  0  0  0  0  0  0  0  0
   22.0089  -20.4348  -12.3955 O   0  0  0  0  0  0  0  0  0  0  0  0
   21.0680  -16.3593  -17.7801 C   0  0  0  0  0  0  0  0  0  0  0  0
   19.5637  -17.3466  -17.6719 S   0  0  0  0  0  0  0  0  0  0  0  0
   19.6416  -18.5451  -16.3356 C   0  0  0  0  0  0  0  0  0  0  0  0
   21.0850  -18.8288  -16.0041 C   0  0  0  0  0  0  0  0  0  0  0  0
   21.1553  -19.9077  -14.9238 C   0  0  2  0  0  0  0  0  0  0  0  0
   22.5362  -20.2186  -14.6042 N   0  0  0  0  0  0  0  0  0  0  0  0
   20.4072  -21.1212  -15.3050 C   0  0  0  0  0  0  0  0  0  0  0  0
   19.0861  -21.2427  -14.9627 O   0  0  0  0  0  0  0  0  0  0  0  0
   21.0070  -22.0278  -15.9434 O   0  0  0  0  0  0  0  0  0  0  0  0
  2  1  1  1
  2  3  1  0
  4  6  1  0
  4  2  1  0
  4  5  1  1
  6  7  2  0
  9 11  1  0
  9  8  1  1
 10  9  1  0
 12 11  1  1
 13 12  1  0
 13  6  1  0
 14 15  2  0
 14 12  1  0
 16 17  1  0
 17 18  1  0
 18 19  1  0
 20 19  1  6
 20 21  1  0
 20 22  1  0
 21 14  1  0
 22 24  2  0
 22 23  1  0
M  END
$$$$
