VLM.pdb
     RDKit          3D

 24 23  0  0  1  0  0  0  0  0999 V2000
   24.4733  -19.9934  -12.9922 C   0  0  0  0  0  0  0  0  0  0  0  0
   25.9249  -19.6748  -12.9043 C   0  0  2  0  0  0  0  0  0  0  0  0
   26.4072  -19.3032  -14.2961 C   0  0  0  0  0  0  0  0  0  0  0  0
   26.7915  -20.7526  -12.3179 C   0  0  2  0  0  0  0  0  0  0  0  0
   26.5641  -22.0106  -13.0917 N   0  0  0  0  0  0  0  0  0  0  0  0
   26.5615  -21.0176  -10.8941 C   0  0  0  0  0  0  0  0  0  0  0  0
   25.8695  -22.0119  -10.5334 O   0  0  0  0  0  0  0  0  0  0  0  0
   28.2957  -21.1299   -5.7397 C   0  0  0  0  0  0  0  0  0  0  0  0
   27.5267  -19.8343   -6.0926 C   0  0  1  0  0  0  0  0  0  0  0  0
   28.2017  -18.7643   -5.2515 C   0  0  0  0  0  0  0  0  0  0  0  0
   27.7481  -19.6386   -7.5552 C   0  0  0  0  0  0  0  0  0  0  0  0
   26.8653  -20.3905   -8.4818 C   0  0  2  0  0  0  0  0  0  0  0  0
   27.0999  -20.1873   -9.8872 N   0  0  0  0  0  0  0  0  0  0  0  0
   25.4643  -20.0622   -8.1573 C   0  0  0  0  0  0  0  0  0  0  0  0
   24.9972  -18.9497   -8.4892 O   0  0  0  0  0  0  0  0  0  0  0  0
   21.8750  -20.3867  -12.0872 C   0  0  0  0  0  0  0  0  0  0  0  0
   20.7680  -21.1949  -10.9164 S   0  0  0  0  0  0  0  0  0  0  0  0
   21.2498  -20.8857   -9.2133 C   0  0  0  0  0  0  0  0  0  0  0  0
   22.7450  -21.0326   -9.0840 C   0  0  0  0  0  0  0  0  0  0  0  0
   23.1523  -20.8154   -7.6269 C   0  0  2  0  0  0  0  0  0  0  0  0
   24.5890  -20.9513   -7.4744 N   0  0  0  0  0  0  0  0  0  0  0  0
   22.4285  -21.7174   -6.7102 C   0  0  0  0  0  0  0  0  0  0  0  0
   21.1628  -21.3953   -6.2961 O   0  0  0  0  0  0  0  0  0  0  0  0
   22.9972  -22.7745   -6.3252 O   0  0  0  0  0  0  0  0  0  0  0  0
  2  1  1  6
  2  3  1  0
  4  6  1  0
  4  2  1  0
  4  5  1  6
  6  7  2  0
  9 11  1  0
  9  8  1  1
 10  9  1  0
 12 11  1  1
 13 12  1  0
 13  6  1  0
 14 15  2  0
 14 12  1  0
 16 17  1  0
 17 18  1  0
 18 19  1  0
 20 19  1  6
 20 21  1  0
 20 22  1  0
 21 14  1  0
 22 24  2  0
 22 23  1  0
M  END
$$$$
