VLM.pdb
     RDKit          3D

 24 23  0  0  1  0  0  0  0  0999 V2000
   23.4982  -18.1373  -17.9311 C   0  0  0  0  0  0  0  0  0  0  0  0
   24.7238  -17.5692  -17.3055 C   0  0  2  0  0  0  0  0  0  0  0  0
   25.3449  -16.5963  -18.2932 C   0  0  0  0  0  0  0  0  0  0  0  0
   25.7421  -18.5728  -16.8448 C   0  0  2  0  0  0  0  0  0  0  0  0
   26.2501  -19.3093  -18.0417 N   0  0  0  0  0  0  0  0  0  0  0  0
   25.2475  -19.5410  -15.8608 C   0  0  0  0  0  0  0  0  0  0  0  0
   24.8153  -20.6681  -16.2356 O   0  0  0  0  0  0  0  0  0  0  0  0
   25.5301  -22.2079  -11.2844 C   0  0  0  0  0  0  0  0  0  0  0  0
   24.7765  -20.8797  -11.0346 C   0  0  1  0  0  0  0  0  0  0  0  0
   25.2188  -20.4610   -9.6428 C   0  0  0  0  0  0  0  0  0  0  0  0
   25.2658  -19.9512  -12.0954 C   0  0  0  0  0  0  0  0  0  0  0  0
   24.7843  -20.1882  -13.4794 C   0  0  2  0  0  0  0  0  0  0  0  0
   25.2395  -19.2569  -14.4779 N   0  0  0  0  0  0  0  0  0  0  0  0
   23.3096  -20.2171  -13.4594 C   0  0  0  0  0  0  0  0  0  0  0  0
   22.6758  -19.1943  -13.1158 O   0  0  0  0  0  0  0  0  0  0  0  0
   19.3439  -22.6066  -17.8412 C   0  0  0  0  0  0  0  0  0  0  0  0
   18.3045  -22.7661  -16.3771 S   0  0  0  0  0  0  0  0  0  0  0  0
   18.9988  -21.9022  -14.9631 C   0  0  0  0  0  0  0  0  0  0  0  0
   20.5019  -22.0182  -14.9971 C   0  0  0  0  0  0  0  0  0  0  0  0
   21.0938  -21.3033  -13.7827 C   0  0  2  0  0  0  0  0  0  0  0  0
   22.5435  -21.3616  -13.8145 N   0  0  0  0  0  0  0  0  0  0  0  0
   20.5638  -21.8383  -12.5136 C   0  0  0  0  0  0  0  0  0  0  0  0
   21.1302  -22.9538  -11.9552 O   0  0  0  0  0  0  0  0  0  0  0  0
   19.5919  -21.2504  -11.9667 O   0  0  0  0  0  0  0  0  0  0  0  0
  2  1  1  6
  2  3  1  0
  4  6  1  0
  4  2  1  0
  4  5  1  6
  6  7  2  0
  9 11  1  0
  9  8  1  6
 10  9  1  0
 12 11  1  1
 13 12  1  0
 13  6  1  0
 14 15  2  0
 14 12  1  0
 16 17  1  0
 17 18  1  0
 18 19  1  0
 20 19  1  6
 20 21  1  0
 20 22  1  0
 21 14  1  0
 22 24  2  0
 22 23  1  0
M  END
$$$$
