VLM.pdb
     RDKit          3D

 24 23  0  0  1  0  0  0  0  0999 V2000
   28.1361  -18.9761  -14.2269 C   0  0  0  0  0  0  0  0  0  0  0  0
   27.8348  -19.5437  -15.5698 C   0  0  2  0  0  0  0  0  0  0  0  0
   28.4458  -18.6247  -16.6137 C   0  0  0  0  0  0  0  0  0  0  0  0
   26.3806  -19.7795  -15.8632 C   0  0  2  0  0  0  0  0  0  0  0  0
   25.7016  -18.4524  -15.9673 N   0  0  0  0  0  0  0  0  0  0  0  0
   25.6796  -20.5998  -14.8701 C   0  0  0  0  0  0  0  0  0  0  0  0
   25.9365  -21.8328  -14.7645 O   0  0  0  0  0  0  0  0  0  0  0  0
   25.5095  -20.1444   -9.6132 C   0  0  0  0  0  0  0  0  0  0  0  0
   25.5767  -20.6658  -11.0686 C   0  0  1  0  0  0  0  0  0  0  0  0
   25.9469  -22.1315  -10.9183 C   0  0  0  0  0  0  0  0  0  0  0  0
   24.2003  -20.4746  -11.6124 C   0  0  0  0  0  0  0  0  0  0  0  0
   23.9786  -20.8270  -13.0372 C   0  0  2  0  0  0  0  0  0  0  0  0
   24.7091  -20.0507  -14.0042 N   0  0  0  0  0  0  0  0  0  0  0  0
   22.5330  -20.7407  -13.3174 C   0  0  0  0  0  0  0  0  0  0  0  0
   21.9409  -19.6468  -13.1803 O   0  0  0  0  0  0  0  0  0  0  0  0
   19.0955  -25.1415  -16.6407 C   0  0  0  0  0  0  0  0  0  0  0  0
   17.8514  -23.8529  -16.4375 S   0  0  0  0  0  0  0  0  0  0  0  0
   18.4198  -22.5351  -15.3566 C   0  0  0  0  0  0  0  0  0  0  0  0
   19.8397  -22.8152  -14.9333 C   0  0  0  0  0  0  0  0  0  0  0  0
   20.3458  -21.6659  -14.0621 C   0  0  2  0  0  0  0  0  0  0  0  0
   21.7499  -21.8487  -13.7440 N   0  0  0  0  0  0  0  0  0  0  0  0
   19.5364  -21.5013  -12.8393 C   0  0  0  0  0  0  0  0  0  0  0  0
   18.3825  -20.7637  -12.8804 O   0  0  0  0  0  0  0  0  0  0  0  0
   19.9292  -22.0487  -11.7738 O   0  0  0  0  0  0  0  0  0  0  0  0
  2  1  1  1
  2  3  1  0
  4  6  1  0
  4  2  1  0
  4  5  1  1
  6  7  2  0
  9 11  1  0
  9  8  1  1
 10  9  1  0
 12 11  1  1
 13 12  1  0
 13  6  1  0
 14 15  2  0
 14 12  1  0
 16 17  1  0
 17 18  1  0
 18 19  1  0
 20 19  1  1
 20 21  1  0
 20 22  1  0
 21 14  1  0
 22 24  2  0
 22 23  1  0
M  END
$$$$
