VLM.pdb
     RDKit          3D

 24 23  0  0  1  0  0  0  0  0999 V2000
   22.6551  -21.7553  -14.3967 C   0  0  0  0  0  0  0  0  0  0  0  0
   23.9934  -21.3252  -14.8869 C   0  0  2  0  0  0  0  0  0  0  0  0
   24.3443  -22.1762  -16.0953 C   0  0  0  0  0  0  0  0  0  0  0  0
   25.1009  -21.3694  -13.8730 C   0  0  2  0  0  0  0  0  0  0  0  0
   25.2067  -22.7668  -13.3542 N   0  0  0  0  0  0  0  0  0  0  0  0
   24.9349  -20.4499  -12.7428 C   0  0  0  0  0  0  0  0  0  0  0  0
   24.8751  -19.2026  -12.9381 O   0  0  0  0  0  0  0  0  0  0  0  0
   21.5661  -21.3020   -8.4732 C   0  0  0  0  0  0  0  0  0  0  0  0
   22.3230  -20.8226   -9.7349 C   0  0  1  0  0  0  0  0  0  0  0  0
   21.5367  -19.6076  -10.1970 C   0  0  0  0  0  0  0  0  0  0  0  0
   23.6918  -20.4716   -9.2555 C   0  0  0  0  0  0  0  0  0  0  0  0
   24.6806  -20.0464  -10.2777 C   0  0  2  0  0  0  0  0  0  0  0  0
   24.8325  -20.9162  -11.4143 N   0  0  0  0  0  0  0  0  0  0  0  0
   25.9846  -19.8610   -9.6135 C   0  0  0  0  0  0  0  0  0  0  0  0
   26.0499  -19.1989   -8.5536 O   0  0  0  0  0  0  0  0  0  0  0  0
   28.6814  -19.1742   -4.4881 C   0  0  0  0  0  0  0  0  0  0  0  0
   29.0937  -20.7103   -5.3365 S   0  0  0  0  0  0  0  0  0  0  0  0
   29.4335  -20.4441   -7.0805 C   0  0  0  0  0  0  0  0  0  0  0  0
   28.1564  -20.6016   -7.8667 C   0  0  0  0  0  0  0  0  0  0  0  0
   28.4223  -20.2792   -9.3370 C   0  0  2  0  0  0  0  0  0  0  0  0
   27.2022  -20.4001  -10.1132 N   0  0  0  0  0  0  0  0  0  0  0  0
   29.5006  -21.1148   -9.8999 C   0  0  0  0  0  0  0  0  0  0  0  0
   30.7934  -20.9281   -9.4865 O   0  0  0  0  0  0  0  0  0  0  0  0
   29.2044  -21.9903  -10.7572 O   0  0  0  0  0  0  0  0  0  0  0  0
  2  1  1  1
  2  3  1  0
  4  6  1  0
  4  2  1  0
  4  5  1  1
  6  7  2  0
  9 11  1  0
  9  8  1  1
 10  9  1  0
 12 11  1  1
 13 12  1  0
 13  6  1  0
 14 15  2  0
 14 12  1  0
 16 17  1  0
 17 18  1  0
 18 19  1  0
 20 19  1  1
 20 21  1  0
 20 22  1  0
 21 14  1  0
 22 24  2  0
 22 23  1  0
M  END
$$$$
