VLM.pdb
     RDKit          3D

 24 23  0  0  1  0  0  0  0  0999 V2000
   20.8181  -14.4266  -17.4371 C   0  0  0  0  0  0  0  0  0  0  0  0
   19.6018  -13.5990  -17.2092 C   0  0  2  0  0  0  0  0  0  0  0  0
   18.5239  -14.0786  -18.1663 C   0  0  0  0  0  0  0  0  0  0  0  0
   19.7940  -12.1145  -17.3348 C   0  0  2  0  0  0  0  0  0  0  0  0
   20.0734  -11.7970  -18.7681 N   0  0  0  0  0  0  0  0  0  0  0  0
   20.8686  -11.5627  -16.5034 C   0  0  0  0  0  0  0  0  0  0  0  0
   20.7931  -11.6183  -15.2430 O   0  0  0  0  0  0  0  0  0  0  0  0
   25.3853  -10.6656  -14.3519 C   0  0  0  0  0  0  0  0  0  0  0  0
   25.4913  -10.0244  -15.7563 C   0  0  1  0  0  0  0  0  0  0  0  0
   26.8909  -10.3872  -16.2225 C   0  0  0  0  0  0  0  0  0  0  0  0
   24.4272  -10.6870  -16.5659 C   0  0  0  0  0  0  0  0  0  0  0  0
   23.0227  -10.2895  -16.2961 C   0  0  2  0  0  0  0  0  0  0  0  0
   22.0129  -10.9614  -17.0709 N   0  0  0  0  0  0  0  0  0  0  0  0
   22.9084   -8.8311  -16.4851 C   0  0  0  0  0  0  0  0  0  0  0  0
   23.0134   -8.3465  -17.6341 O   0  0  0  0  0  0  0  0  0  0  0  0
   17.9483   -5.9555  -17.3456 C   0  0  0  0  0  0  0  0  0  0  0  0
   19.3144   -4.9225  -17.9076 S   0  0  0  0  0  0  0  0  0  0  0  0
   20.7247   -5.0119  -16.7981 C   0  0  0  0  0  0  0  0  0  0  0  0
   21.0767   -6.4579  -16.5552 C   0  0  0  0  0  0  0  0  0  0  0  0
   22.3447   -6.5359  -15.7052 C   0  0  2  0  0  0  0  0  0  0  0  0
   22.6809   -7.9181  -15.4185 N   0  0  0  0  0  0  0  0  0  0  0  0
   22.2285   -5.7443  -14.4652 C   0  0  0  0  0  0  0  0  0  0  0  0
   22.1377   -4.3791  -14.5345 O   0  0  0  0  0  0  0  0  0  0  0  0
   22.2154   -6.3489  -13.3590 O   0  0  0  0  0  0  0  0  0  0  0  0
  2  1  1  6
  2  3  1  0
  4  6  1  0
  4  2  1  0
  4  5  1  6
  6  7  2  0
  9 11  1  0
  9  8  1  1
 10  9  1  0
 12 11  1  6
 13 12  1  0
 13  6  1  0
 14 15  2  0
 14 12  1  0
 16 17  1  0
 17 18  1  0
 18 19  1  0
 20 19  1  1
 20 21  1  0
 20 22  1  0
 21 14  1  0
 22 24  2  0
 22 23  1  0
M  END
$$$$
