VLM.pdb
     RDKit          3D

 24 23  0  0  1  0  0  0  0  0999 V2000
   24.7839  -33.5440  -18.5861 C   0  0  0  0  0  0  0  0  0  0  0  0
   23.7369  -33.5855  -17.5286 C   0  0  2  0  0  0  0  0  0  0  0  0
   22.5251  -32.8257  -18.0404 C   0  0  0  0  0  0  0  0  0  0  0  0
   24.1534  -33.0657  -16.1822 C   0  0  2  0  0  0  0  0  0  0  0  0
   24.2119  -31.5742  -16.2525 N   0  0  0  0  0  0  0  0  0  0  0  0
   25.4419  -33.5736  -15.7004 C   0  0  0  0  0  0  0  0  0  0  0  0
   25.5977  -34.8075  -15.4750 O   0  0  0  0  0  0  0  0  0  0  0  0
   30.5386  -31.6373  -17.1302 C   0  0  0  0  0  0  0  0  0  0  0  0
   29.3215  -32.5665  -16.9069 C   0  0  1  0  0  0  0  0  0  0  0  0
   29.8349  -33.9445  -17.2885 C   0  0  0  0  0  0  0  0  0  0  0  0
   29.0095  -32.4532  -15.4521 C   0  0  0  0  0  0  0  0  0  0  0  0
   27.8061  -33.1685  -14.9584 C   0  0  2  0  0  0  0  0  0  0  0  0
   26.5419  -32.7173  -15.4777 N   0  0  0  0  0  0  0  0  0  0  0  0
   27.7948  -33.0963  -13.4851 C   0  0  0  0  0  0  0  0  0  0  0  0
   27.8352  -31.9802  -12.9205 O   0  0  0  0  0  0  0  0  0  0  0  0
   24.8272  -31.7581   -7.1482 C   0  0  0  0  0  0  0  0  0  0  0  0
   24.9111  -32.0958   -8.9169 S   0  0  0  0  0  0  0  0  0  0  0  0
   26.3373  -33.1024   -9.3416 C   0  0  0  0  0  0  0  0  0  0  0  0
   26.4396  -33.2139  -10.8420 C   0  0  0  0  0  0  0  0  0  0  0  0
   27.6428  -34.0836  -11.2056 C   0  0  2  0  0  0  0  0  0  0  0  0
   27.7395  -34.2424  -12.6448 N   0  0  0  0  0  0  0  0  0  0  0  0
   27.6058  -35.3915  -10.5233 C   0  0  0  0  0  0  0  0  0  0  0  0
   27.9568  -35.4808   -9.2020 O   0  0  0  0  0  0  0  0  0  0  0  0
   27.2484  -36.4074  -11.1788 O   0  0  0  0  0  0  0  0  0  0  0  0
  2  1  1  6
  2  3  1  0
  4  6  1  0
  4  2  1  0
  4  5  1  6
  6  7  2  0
  9 11  1  0
  9  8  1  1
 10  9  1  0
 12 11  1  6
 13 12  1  0
 13  6  1  0
 14 15  2  0
 14 12  1  0
 16 17  1  0
 17 18  1  0
 18 19  1  0
 20 19  1  6
 20 21  1  0
 20 22  1  0
 21 14  1  0
 22 24  2  0
 22 23  1  0
M  END
$$$$
