VLM.pdb
     RDKit          3D

 24 23  0  0  1  0  0  0  0  0999 V2000
   20.2683  -13.1651  -17.3683 C   0  0  0  0  0  0  0  0  0  0  0  0
   18.9529  -12.4688  -17.3339 C   0  0  2  0  0  0  0  0  0  0  0  0
   18.1140  -12.9970  -18.4848 C   0  0  0  0  0  0  0  0  0  0  0  0
   19.0118  -10.9682  -17.3714 C   0  0  2  0  0  0  0  0  0  0  0  0
   19.5276  -10.5521  -18.7108 N   0  0  0  0  0  0  0  0  0  0  0  0
   19.8437  -10.3608  -16.3277 C   0  0  0  0  0  0  0  0  0  0  0  0
   19.4993  -10.4340  -15.1137 O   0  0  0  0  0  0  0  0  0  0  0  0
   25.2367  -10.7374  -15.5826 C   0  0  0  0  0  0  0  0  0  0  0  0
   23.7063  -10.7062  -15.3562 C   0  0  1  0  0  0  0  0  0  0  0  0
   23.5440  -11.0515  -13.8857 C   0  0  0  0  0  0  0  0  0  0  0  0
   23.2976   -9.3046  -15.6648 C   0  0  0  0  0  0  0  0  0  0  0  0
   21.8443   -9.0028  -15.6508 C   0  0  2  0  0  0  0  0  0  0  0  0
   21.0448   -9.6852  -16.6341 N   0  0  0  0  0  0  0  0  0  0  0  0
   21.6714   -7.5447  -15.7919 C   0  0  0  0  0  0  0  0  0  0  0  0
   22.2193   -6.7750  -14.9713 O   0  0  0  0  0  0  0  0  0  0  0  0
   20.5201   -1.1813  -20.2259 C   0  0  0  0  0  0  0  0  0  0  0  0
   20.5368   -2.9788  -20.0907 S   0  0  0  0  0  0  0  0  0  0  0  0
   20.6827   -3.5226  -18.3845 C   0  0  0  0  0  0  0  0  0  0  0  0
   20.7618   -5.0280  -18.3464 C   0  0  0  0  0  0  0  0  0  0  0  0
   20.7784   -5.4988  -16.8923 C   0  0  2  0  0  0  0  0  0  0  0  0
   20.9029   -6.9431  -16.8265 N   0  0  0  0  0  0  0  0  0  0  0  0
   19.5959   -5.0283  -16.1454 C   0  0  0  0  0  0  0  0  0  0  0  0
   18.6016   -5.9119  -15.8171 O   0  0  0  0  0  0  0  0  0  0  0  0
   19.5269   -3.8114  -15.8231 O   0  0  0  0  0  0  0  0  0  0  0  0
  2  1  1  6
  2  3  1  0
  4  6  1  0
  4  2  1  0
  4  5  1  6
  6  7  2  0
  9 11  1  0
  9  8  1  1
 10  9  1  0
 12 11  1  6
 13 12  1  0
 13  6  1  0
 14 15  2  0
 14 12  1  0
 16 17  1  0
 17 18  1  0
 18 19  1  0
 20 19  1  6
 20 21  1  0
 20 22  1  0
 21 14  1  0
 22 24  2  0
 22 23  1  0
M  END
$$$$
