VLM.pdb
     RDKit          3D

 24 23  0  0  1  0  0  0  0  0999 V2000
   23.4255  -21.0254  -14.8213 C   0  0  0  0  0  0  0  0  0  0  0  0
   22.3856  -21.5225  -13.8790 C   0  0  2  0  0  0  0  0  0  0  0  0
   21.0341  -21.0403  -14.3774 C   0  0  0  0  0  0  0  0  0  0  0  0
   22.5807  -21.1434  -12.4386 C   0  0  2  0  0  0  0  0  0  0  0  0
   22.2577  -19.6923  -12.2873 N   0  0  0  0  0  0  0  0  0  0  0  0
   23.9283  -21.3914  -11.9162 C   0  0  0  0  0  0  0  0  0  0  0  0
   24.3886  -22.5676  -11.8701 O   0  0  0  0  0  0  0  0  0  0  0  0
   28.6257  -19.7807  -13.7307 C   0  0  0  0  0  0  0  0  0  0  0  0
   27.4548  -20.5918  -13.1261 C   0  0  1  0  0  0  0  0  0  0  0  0
   28.0150  -21.9966  -12.9822 C   0  0  0  0  0  0  0  0  0  0  0  0
   27.1766  -19.9475  -11.8092 C   0  0  0  0  0  0  0  0  0  0  0  0
   26.0959  -20.5373  -10.9800 C   0  0  2  0  0  0  0  0  0  0  0  0
   24.7518  -20.3412  -11.4560 N   0  0  0  0  0  0  0  0  0  0  0  0
   26.2216  -20.0084   -9.6087 C   0  0  0  0  0  0  0  0  0  0  0  0
   25.8093  -18.8555   -9.3505 O   0  0  0  0  0  0  0  0  0  0  0  0
   27.0636  -22.8352   -3.3024 C   0  0  0  0  0  0  0  0  0  0  0  0
   28.3253  -21.6093   -3.6956 S   0  0  0  0  0  0  0  0  0  0  0  0
   27.7469  -20.4147   -4.9065 C   0  0  0  0  0  0  0  0  0  0  0  0
   27.5096  -21.1133   -6.2217 C   0  0  0  0  0  0  0  0  0  0  0  0
   27.0426  -20.0943   -7.2608 C   0  0  2  0  0  0  0  0  0  0  0  0
   26.7957  -20.7435   -8.5349 N   0  0  0  0  0  0  0  0  0  0  0  0
   27.9944  -18.9758   -7.4048 C   0  0  0  0  0  0  0  0  0  0  0  0
   27.8981  -17.8886   -6.5768 O   0  0  0  0  0  0  0  0  0  0  0  0
   28.8834  -19.0471   -8.2958 O   0  0  0  0  0  0  0  0  0  0  0  0
  2  1  1  6
  2  3  1  0
  4  6  1  0
  4  2  1  0
  4  5  1  6
  6  7  2  0
  9 11  1  0
  9  8  1  1
 10  9  1  0
 12 11  1  6
 13 12  1  0
 13  6  1  0
 14 15  2  0
 14 12  1  0
 16 17  1  0
 17 18  1  0
 18 19  1  0
 20 19  1  1
 20 21  1  0
 20 22  1  0
 21 14  1  0
 22 24  2  0
 22 23  1  0
M  END
$$$$
