VLM.pdb
     RDKit          3D

 24 23  0  0  1  0  0  0  0  0999 V2000
   16.1988  -11.0396  -19.9025 C   0  0  0  0  0  0  0  0  0  0  0  0
   17.3818  -11.7611  -19.3581 C   0  0  2  0  0  0  0  0  0  0  0  0
   17.0412  -13.2405  -19.3004 C   0  0  0  0  0  0  0  0  0  0  0  0
   17.8757  -11.2827  -18.0226 C   0  0  2  0  0  0  0  0  0  0  0  0
   16.8532  -11.6333  -16.9909 N   0  0  0  0  0  0  0  0  0  0  0  0
   18.1551   -9.8449  -17.9512 C   0  0  0  0  0  0  0  0  0  0  0  0
   19.1145   -9.3476  -18.6068 O   0  0  0  0  0  0  0  0  0  0  0  0
   14.5947   -5.5624  -18.1910 C   0  0  0  0  0  0  0  0  0  0  0  0
   15.8945   -6.3580  -18.4594 C   0  0  1  0  0  0  0  0  0  0  0  0
   16.7699   -5.3848  -19.2305 C   0  0  0  0  0  0  0  0  0  0  0  0
   16.4413   -6.6741  -17.1074 C   0  0  0  0  0  0  0  0  0  0  0  0
   17.6288   -7.5626  -17.0464 C   0  0  2  0  0  0  0  0  0  0  0  0
   17.3721   -8.9740  -17.1628 N   0  0  0  0  0  0  0  0  0  0  0  0
   18.3496   -7.2886  -15.7890 C   0  0  0  0  0  0  0  0  0  0  0  0
   18.0230   -7.8952  -14.7443 O   0  0  0  0  0  0  0  0  0  0  0  0
   23.8255   -9.6534  -11.8667 C   0  0  0  0  0  0  0  0  0  0  0  0
   22.7721   -9.4618  -13.3170 S   0  0  0  0  0  0  0  0  0  0  0  0
   21.9672   -7.8559  -13.3549 C   0  0  0  0  0  0  0  0  0  0  0  0
   20.9942   -7.8133  -14.5062 C   0  0  0  0  0  0  0  0  0  0  0  0
   20.3431   -6.4320  -14.5697 C   0  0  2  0  0  0  0  0  0  0  0  0
   19.4186   -6.3560  -15.6857 N   0  0  0  0  0  0  0  0  0  0  0  0
   21.3454   -5.3506  -14.6297 C   0  0  0  0  0  0  0  0  0  0  0  0
   22.1153   -5.0737  -13.5307 O   0  0  0  0  0  0  0  0  0  0  0  0
   21.4715   -4.6995  -15.7018 O   0  0  0  0  0  0  0  0  0  0  0  0
  2  1  1  1
  2  3  1  0
  4  6  1  0
  4  2  1  0
  4  5  1  1
  6  7  2  0
  9 11  1  0
  9  8  1  1
 10  9  1  0
 12 11  1  1
 13 12  1  0
 13  6  1  0
 14 15  2  0
 14 12  1  0
 16 17  1  0
 17 18  1  0
 18 19  1  0
 20 19  1  6
 20 21  1  0
 20 22  1  0
 21 14  1  0
 22 24  2  0
 22 23  1  0
M  END
$$$$
