VLM.pdb
     RDKit          3D

 24 23  0  0  1  0  0  0  0  0999 V2000
   27.3406  -17.7098  -17.4144 C   0  0  0  0  0  0  0  0  0  0  0  0
   26.0008  -18.3147  -17.6500 C   0  0  2  0  0  0  0  0  0  0  0  0
   25.1722  -17.3203  -18.4452 C   0  0  0  0  0  0  0  0  0  0  0  0
   25.2598  -18.7506  -16.4182 C   0  0  2  0  0  0  0  0  0  0  0  0
   24.8819  -17.5310  -15.6417 N   0  0  0  0  0  0  0  0  0  0  0  0
   26.0050  -19.6629  -15.5449 C   0  0  0  0  0  0  0  0  0  0  0  0
   26.2966  -20.8280  -15.9389 O   0  0  0  0  0  0  0  0  0  0  0  0
   29.4924  -22.0779  -12.9684 C   0  0  0  0  0  0  0  0  0  0  0  0
   29.2642  -20.7788  -12.1591 C   0  0  1  0  0  0  0  0  0  0  0  0
   30.6675  -20.2894  -11.8442 C   0  0  0  0  0  0  0  0  0  0  0  0
   28.5337  -19.8673  -13.0877 C   0  0  0  0  0  0  0  0  0  0  0  0
   27.1016  -20.1635  -13.3423 C   0  0  2  0  0  0  0  0  0  0  0  0
   26.4225  -19.2789  -14.2521 N   0  0  0  0  0  0  0  0  0  0  0  0
   26.3949  -20.1864  -12.0477 C   0  0  0  0  0  0  0  0  0  0  0  0
   25.8784  -19.1354  -11.6066 O   0  0  0  0  0  0  0  0  0  0  0  0
   28.3063  -19.6396   -6.4910 C   0  0  0  0  0  0  0  0  0  0  0  0
   26.5729  -19.1584   -6.6071 S   0  0  0  0  0  0  0  0  0  0  0  0
   25.6492  -20.2359   -7.7088 C   0  0  0  0  0  0  0  0  0  0  0  0
   26.4115  -20.4008   -8.9994 C   0  0  0  0  0  0  0  0  0  0  0  0
   25.6064  -21.2801   -9.9558 C   0  0  2  0  0  0  0  0  0  0  0  0
   26.2596  -21.3558  -11.2494 N   0  0  0  0  0  0  0  0  0  0  0  0
   24.2102  -20.8204  -10.0866 C   0  0  0  0  0  0  0  0  0  0  0  0
   23.8294  -20.1047  -11.1909 O   0  0  0  0  0  0  0  0  0  0  0  0
   23.3915  -21.0997   -9.1695 O   0  0  0  0  0  0  0  0  0  0  0  0
  2  1  1  1
  2  3  1  0
  4  6  1  0
  4  2  1  0
  4  5  1  1
  6  7  2  0
  9 11  1  0
  9  8  1  6
 10  9  1  0
 12 11  1  1
 13 12  1  0
 13  6  1  0
 14 15  2  0
 14 12  1  0
 16 17  1  0
 17 18  1  0
 18 19  1  0
 20 19  1  1
 20 21  1  0
 20 22  1  0
 21 14  1  0
 22 24  2  0
 22 23  1  0
M  END
$$$$
