VLM.pdb
     RDKit          3D

 24 23  0  0  1  0  0  0  0  0999 V2000
   22.9556  -17.7050  -17.2565 C   0  0  0  0  0  0  0  0  0  0  0  0
   22.7964  -19.1301  -17.6568 C   0  0  2  0  0  0  0  0  0  0  0  0
   23.5500  -19.3368  -18.9595 C   0  0  0  0  0  0  0  0  0  0  0  0
   21.3800  -19.6134  -17.7862 C   0  0  2  0  0  0  0  0  0  0  0  0
   20.7316  -18.8712  -18.9095 N   0  0  0  0  0  0  0  0  0  0  0  0
   20.5660  -19.4584  -16.5764 C   0  0  0  0  0  0  0  0  0  0  0  0
   20.8395  -20.1189  -15.5340 O   0  0  0  0  0  0  0  0  0  0  0  0
   19.5496  -15.2506  -13.4142 C   0  0  0  0  0  0  0  0  0  0  0  0
   19.8153  -16.7011  -13.8835 C   0  0  1  0  0  0  0  0  0  0  0  0
   19.8419  -17.5063  -12.5956 C   0  0  0  0  0  0  0  0  0  0  0  0
   18.6519  -17.0463  -14.7519 C   0  0  0  0  0  0  0  0  0  0  0  0
   18.6396  -18.3987  -15.3638 C   0  0  2  0  0  0  0  0  0  0  0  0
   19.4654  -18.5756  -16.5293 N   0  0  0  0  0  0  0  0  0  0  0  0
   17.2433  -18.7510  -15.6836 C   0  0  0  0  0  0  0  0  0  0  0  0
   16.7009  -18.2659  -16.7016 O   0  0  0  0  0  0  0  0  0  0  0  0
   14.2862  -24.3277  -15.5546 C   0  0  0  0  0  0  0  0  0  0  0  0
   12.8468  -23.2774  -15.2817 S   0  0  0  0  0  0  0  0  0  0  0  0
   13.2515  -21.5328  -15.4244 C   0  0  0  0  0  0  0  0  0  0  0  0
   14.6894  -21.3203  -15.0229 C   0  0  0  0  0  0  0  0  0  0  0  0
   15.0593  -19.8503  -15.2191 C   0  0  2  0  0  0  0  0  0  0  0  0
   16.4549  -19.6284  -14.8889 N   0  0  0  0  0  0  0  0  0  0  0  0
   14.1773  -18.9509  -14.4506 C   0  0  0  0  0  0  0  0  0  0  0  0
   12.9179  -18.6733  -14.9130 O   0  0  0  0  0  0  0  0  0  0  0  0
   14.6073  -18.4534  -13.3750 O   0  0  0  0  0  0  0  0  0  0  0  0
  2  1  1  6
  2  3  1  0
  4  6  1  0
  4  2  1  0
  4  5  1  6
  6  7  2  0
  9 11  1  0
  9  8  1  1
 10  9  1  0
 12 11  1  6
 13 12  1  0
 13  6  1  0
 14 15  2  0
 14 12  1  0
 16 17  1  0
 17 18  1  0
 18 19  1  0
 20 19  1  1
 20 21  1  0
 20 22  1  0
 21 14  1  0
 22 24  2  0
 22 23  1  0
M  END
$$$$
