VLM.pdb
     RDKit          3D

 24 23  0  0  1  0  0  0  0  0999 V2000
   17.8085  -14.2788  -16.0633 C   0  0  0  0  0  0  0  0  0  0  0  0
   16.7150  -13.4747  -16.6750 C   0  0  2  0  0  0  0  0  0  0  0  0
   16.0586  -14.3213  -17.7521 C   0  0  0  0  0  0  0  0  0  0  0  0
   17.1236  -12.1404  -17.2310 C   0  0  2  0  0  0  0  0  0  0  0  0
   17.9869  -12.3752  -18.4279 N   0  0  0  0  0  0  0  0  0  0  0  0
   17.8383  -11.2754  -16.2869 C   0  0  0  0  0  0  0  0  0  0  0  0
   17.2727  -10.8827  -15.2269 O   0  0  0  0  0  0  0  0  0  0  0  0
   21.3876   -9.4603  -13.0597 C   0  0  0  0  0  0  0  0  0  0  0  0
   22.0770   -9.4737  -14.4450 C   0  0  1  0  0  0  0  0  0  0  0  0
   23.4714  -10.0038  -14.1578 C   0  0  0  0  0  0  0  0  0  0  0  0
   21.2653  -10.4135  -15.2725 C   0  0  0  0  0  0  0  0  0  0  0  0
   19.8912   -9.9849  -15.6351 C   0  0  2  0  0  0  0  0  0  0  0  0
   19.1667  -10.8584  -16.5204 N   0  0  0  0  0  0  0  0  0  0  0  0
   19.9655   -8.6324  -16.2192 C   0  0  0  0  0  0  0  0  0  0  0  0
   20.6015   -8.4520  -17.2817 O   0  0  0  0  0  0  0  0  0  0  0  0
   14.1522   -5.0226  -15.4951 C   0  0  0  0  0  0  0  0  0  0  0  0
   15.4640   -5.2955  -16.7010 S   0  0  0  0  0  0  0  0  0  0  0  0
   17.0403   -5.6424  -15.9118 C   0  0  0  0  0  0  0  0  0  0  0  0
   18.0894   -5.8674  -16.9714 C   0  0  0  0  0  0  0  0  0  0  0  0
   19.4218   -6.2052  -16.3030 C   0  0  2  0  0  0  0  0  0  0  0  0
   19.3452   -7.4924  -15.6374 N   0  0  0  0  0  0  0  0  0  0  0  0
   19.8578   -5.1460  -15.3727 C   0  0  0  0  0  0  0  0  0  0  0  0
   20.2169   -3.9168  -15.8600 O   0  0  0  0  0  0  0  0  0  0  0  0
   19.8904   -5.3990  -14.1381 O   0  0  0  0  0  0  0  0  0  0  0  0
  2  1  1  6
  2  3  1  0
  4  6  1  0
  4  2  1  0
  4  5  1  6
  6  7  2  0
  9 11  1  0
  9  8  1  1
 10  9  1  0
 12 11  1  6
 13 12  1  0
 13  6  1  0
 14 15  2  0
 14 12  1  0
 16 17  1  0
 17 18  1  0
 18 19  1  0
 20 19  1  1
 20 21  1  0
 20 22  1  0
 21 14  1  0
 22 24  2  0
 22 23  1  0
M  END
$$$$
