FSL.pdb
     RDKit          3D

 26 26  0  0  1  0  0  0  0  0999 V2000
    6.6899  -17.3714   20.2031 N   0  0  0  0  0  0  0  0  0  0  0  0
    6.6607  -16.4905   21.3529 C   0  0  1  0  0  0  0  0  0  0  0  0
    5.7726  -15.3311   20.9709 C   0  0  0  0  0  0  0  0  0  0  0  0
    6.6813  -14.2894   20.4078 C   0  0  0  0  0  0  0  0  0  0  0  0
    7.0427  -14.2260   19.0785 C   0  0  0  0  0  0  0  0  0  0  0  0
    7.8851  -13.2472   18.5811 C   0  0  0  0  0  0  0  0  0  0  0  0
    8.4001  -12.2831   19.4239 C   0  0  0  0  0  0  0  0  0  0  0  0
    8.0557  -12.3241   20.7525 C   0  0  0  0  0  0  0  0  0  0  0  0
    7.2263  -13.2937   21.2230 C   0  0  0  0  0  0  0  0  0  0  0  0
    6.2654  -17.1714   22.5800 C   0  0  0  0  0  0  0  0  0  0  0  0
    5.4762  -18.1760   22.5277 O   0  0  0  0  0  0  0  0  0  0  0  0
    7.1218  -20.1814   25.3528 O   0  0  0  0  0  0  0  0  0  0  0  0
    6.8816  -19.2193   24.4372 C   0  0  0  0  0  0  0  0  0  0  0  0
    7.0369  -17.7921   24.9015 C   0  0  2  0  0  0  0  0  0  0  0  0
    6.6834  -16.8232   23.9047 N   0  0  0  0  0  0  0  0  0  0  0  0
    8.3554  -17.5427   25.5207 C   0  0  0  0  0  0  0  0  0  0  0  0
    9.3549  -17.3083   24.7610 O   0  0  0  0  0  0  0  0  0  0  0  0
    9.4085  -13.4598   29.4551 C   0  0  0  0  0  0  0  0  0  0  0  0
   10.1446  -14.5010   28.6382 C   0  0  2  0  0  0  0  0  0  0  0  0
   10.9070  -13.8029   27.5451 C   0  0  0  0  0  0  0  0  0  0  0  0
    9.1198  -15.4741   28.1328 C   0  0  0  0  0  0  0  0  0  0  0  0
    9.7059  -16.6997   27.4722 C   0  0  2  0  0  0  0  0  0  0  0  0
    8.6310  -17.5364   26.9093 N   0  0  0  0  0  0  0  0  0  0  0  0
   10.5833  -17.4977   28.3490 C   0  0  0  0  0  0  0  0  0  0  0  0
   11.9628  -17.3839   28.2733 O   0  0  0  0  0  0  0  0  0  0  0  0
   10.1035  -18.2956   29.1809 O   0  0  0  0  0  0  0  0  0  0  0  0
  2  1  1  6
  2 10  1  0
  3  2  1  0
  3  4  1  0
  4  9  2  0
  5  4  1  0
  5  6  2  0
  6  7  1  0
  7  8  2  0
  9  8  1  0
 10 11  2  0
 12 13  1  0
 14 13  1  6
 14 16  1  0
 15 14  1  0
 15 10  1  0
 16 23  1  0
 16 17  2  0
 19 18  1  6
 19 20  1  0
 21 19  1  0
 22 21  1  1
 22 24  1  0
 23 22  1  0
 24 26  2  0
 24 25  1  0
M  END
$$$$
