FSL.pdb
     RDKit          3D

 26 26  0  0  1  0  0  0  0  0999 V2000
    6.3613  -18.2135   20.8295 N   0  0  0  0  0  0  0  0  0  0  0  0
    7.0942  -16.9851   21.0589 C   0  0  1  0  0  0  0  0  0  0  0  0
    6.0576  -15.9243   21.3402 C   0  0  0  0  0  0  0  0  0  0  0  0
    6.8004  -14.6305   21.3888 C   0  0  0  0  0  0  0  0  0  0  0  0
    7.0409  -13.9288   22.5513 C   0  0  0  0  0  0  0  0  0  0  0  0
    7.7354  -12.7320   22.5692 C   0  0  0  0  0  0  0  0  0  0  0  0
    8.2185  -12.1940   21.3934 C   0  0  0  0  0  0  0  0  0  0  0  0
    7.9922  -12.8734   20.2218 C   0  0  0  0  0  0  0  0  0  0  0  0
    7.3076  -14.0484   20.2240 C   0  0  0  0  0  0  0  0  0  0  0  0
    8.1146  -17.1171   22.0917 C   0  0  0  0  0  0  0  0  0  0  0  0
    7.7777  -17.4144   23.2887 O   0  0  0  0  0  0  0  0  0  0  0  0
   12.4524  -16.0765   22.0275 O   0  0  0  0  0  0  0  0  0  0  0  0
   11.9124  -17.2496   22.4198 C   0  0  0  0  0  0  0  0  0  0  0  0
   10.4935  -17.2020   22.9306 C   0  0  2  0  0  0  0  0  0  0  0  0
    9.5238  -16.9419   21.9061 N   0  0  0  0  0  0  0  0  0  0  0  0
   10.3499  -16.3241   24.1107 C   0  0  0  0  0  0  0  0  0  0  0  0
   10.2416  -15.0647   23.9285 O   0  0  0  0  0  0  0  0  0  0  0  0
    7.1836  -13.5937   27.4213 C   0  0  0  0  0  0  0  0  0  0  0  0
    8.5950  -14.1130   27.5993 C   0  0  2  0  0  0  0  0  0  0  0  0
    9.5335  -12.9391   27.6683 C   0  0  0  0  0  0  0  0  0  0  0  0
    8.8736  -15.0420   26.4540 C   0  0  0  0  0  0  0  0  0  0  0  0
   10.1863  -15.7814   26.5647 C   0  0  2  0  0  0  0  0  0  0  0  0
   10.3188  -16.7491   25.4608 N   0  0  0  0  0  0  0  0  0  0  0  0
   10.4002  -16.4418   27.8660 C   0  0  0  0  0  0  0  0  0  0  0  0
    9.9535  -17.7344   28.0927 O   0  0  0  0  0  0  0  0  0  0  0  0
   10.9891  -15.8513   28.7951 O   0  0  0  0  0  0  0  0  0  0  0  0
  2  1  1  1
  2 10  1  0
  3  2  1  0
  3  4  1  0
  4  9  2  0
  5  4  1  0
  5  6  2  0
  6  7  1  0
  7  8  2  0
  9  8  1  0
 10 11  2  0
 12 13  1  0
 14 13  1  6
 14 16  1  0
 15 14  1  0
 15 10  1  0
 16 23  1  0
 16 17  2  0
 19 18  1  6
 19 20  1  0
 21 19  1  0
 22 21  1  1
 22 24  1  0
 23 22  1  0
 24 26  2  0
 24 25  1  0
M  END
$$$$
