FSL.pdb
     RDKit          3D

 26 26  0  0  1  0  0  0  0  0999 V2000
    6.2002  -18.0882   20.1832 N   0  0  0  0  0  0  0  0  0  0  0  0
    6.8933  -16.9048   20.6502 C   0  0  1  0  0  0  0  0  0  0  0  0
    5.9217  -15.7602   20.4935 C   0  0  0  0  0  0  0  0  0  0  0  0
    6.6774  -14.5290   20.8694 C   0  0  0  0  0  0  0  0  0  0  0  0
    7.4965  -13.8385   20.0012 C   0  0  0  0  0  0  0  0  0  0  0  0
    8.1843  -12.6970   20.3744 C   0  0  0  0  0  0  0  0  0  0  0  0
    8.0662  -12.2064   21.6592 C   0  0  0  0  0  0  0  0  0  0  0  0
    7.2566  -12.8760   22.5432 C   0  0  0  0  0  0  0  0  0  0  0  0
    6.5885  -13.9961   22.1581 C   0  0  0  0  0  0  0  0  0  0  0  0
    7.4315  -17.0563   21.9967 C   0  0  0  0  0  0  0  0  0  0  0  0
    6.6523  -17.3489   22.9672 O   0  0  0  0  0  0  0  0  0  0  0  0
   11.5772  -17.7008   22.8823 O   0  0  0  0  0  0  0  0  0  0  0  0
   10.5322  -18.1569   23.6043 C   0  0  0  0  0  0  0  0  0  0  0  0
    9.3142  -17.2685   23.6640 C   0  0  2  0  0  0  0  0  0  0  0  0
    8.8050  -16.9061   22.3730 N   0  0  0  0  0  0  0  0  0  0  0  0
    9.5050  -16.1127   24.5650 C   0  0  0  0  0  0  0  0  0  0  0  0
   10.2789  -15.1670   24.1937 O   0  0  0  0  0  0  0  0  0  0  0  0
    8.5423  -12.2627   25.6653 C   0  0  0  0  0  0  0  0  0  0  0  0
    7.5363  -13.2782   26.1651 C   0  0  2  0  0  0  0  0  0  0  0  0
    6.3035  -12.5477   26.6235 C   0  0  0  0  0  0  0  0  0  0  0  0
    8.2067  -14.0702   27.2495 C   0  0  0  0  0  0  0  0  0  0  0  0
    9.3699  -14.9077   26.7725 C   0  0  2  0  0  0  0  0  0  0  0  0
    8.8998  -15.9419   25.8334 N   0  0  0  0  0  0  0  0  0  0  0  0
   10.1654  -15.5113   27.8580 C   0  0  0  0  0  0  0  0  0  0  0  0
   10.9503  -14.7272   28.6890 O   0  0  0  0  0  0  0  0  0  0  0  0
   10.1505  -16.7443   28.0539 O   0  0  0  0  0  0  0  0  0  0  0  0
  2  1  1  1
  2 10  1  0
  3  2  1  0
  3  4  1  0
  4  9  2  0
  5  4  1  0
  5  6  2  0
  6  7  1  0
  7  8  2  0
  9  8  1  0
 10 11  2  0
 12 13  1  0
 14 13  1  6
 14 16  1  0
 15 14  1  0
 15 10  1  0
 16 23  1  0
 16 17  2  0
 19 18  1  1
 19 20  1  0
 21 19  1  0
 22 21  1  1
 22 24  1  0
 23 22  1  0
 24 26  2  0
 24 25  1  0
M  END
$$$$
