FSL.pdb
     RDKit          3D

 26 26  0  0  1  0  0  0  0  0999 V2000
   10.6426  -17.5934   19.3433 N   0  0  0  0  0  0  0  0  0  0  0  0
    9.9840  -16.4559   19.9526 C   0  0  1  0  0  0  0  0  0  0  0  0
    8.8407  -16.0926   19.0362 C   0  0  0  0  0  0  0  0  0  0  0  0
    8.2752  -14.8202   19.5741 C   0  0  0  0  0  0  0  0  0  0  0  0
    7.2186  -14.7654   20.4584 C   0  0  0  0  0  0  0  0  0  0  0  0
    6.7148  -13.5717   20.9446 C   0  0  0  0  0  0  0  0  0  0  0  0
    7.2705  -12.3724   20.5469 C   0  0  0  0  0  0  0  0  0  0  0  0
    8.3239  -12.3997   19.6665 C   0  0  0  0  0  0  0  0  0  0  0  0
    8.8054  -13.5826   19.1996 C   0  0  0  0  0  0  0  0  0  0  0  0
    9.5916  -16.7005   21.3352 C   0  0  0  0  0  0  0  0  0  0  0  0
    9.0997  -15.7520   22.0373 O   0  0  0  0  0  0  0  0  0  0  0  0
   10.3136  -20.2954   23.7785 O   0  0  0  0  0  0  0  0  0  0  0  0
    9.1610  -19.5933   23.7808 C   0  0  0  0  0  0  0  0  0  0  0  0
    9.2541  -18.1419   23.3793 C   0  0  2  0  0  0  0  0  0  0  0  0
    9.7014  -17.9478   22.0303 N   0  0  0  0  0  0  0  0  0  0  0  0
    9.9984  -17.3322   24.3664 C   0  0  0  0  0  0  0  0  0  0  0  0
   11.1891  -16.9654   24.0857 O   0  0  0  0  0  0  0  0  0  0  0  0
    9.4725  -13.3560   28.9549 C   0  0  0  0  0  0  0  0  0  0  0  0
   10.4187  -14.3171   28.2661 C   0  0  2  0  0  0  0  0  0  0  0  0
   11.5292  -13.5254   27.6310 C   0  0  0  0  0  0  0  0  0  0  0  0
    9.6070  -15.1123   27.2855 C   0  0  0  0  0  0  0  0  0  0  0  0
   10.3818  -16.2038   26.5852 C   0  0  2  0  0  0  0  0  0  0  0  0
    9.5120  -16.9092   25.6269 N   0  0  0  0  0  0  0  0  0  0  0  0
   11.0371  -17.1602   27.4969 C   0  0  0  0  0  0  0  0  0  0  0  0
   10.3318  -18.2180   28.0493 O   0  0  0  0  0  0  0  0  0  0  0  0
   12.2440  -17.0391   27.7929 O   0  0  0  0  0  0  0  0  0  0  0  0
  2  1  1  6
  2 10  1  0
  3  2  1  0
  3  4  1  0
  4  9  2  0
  5  4  1  0
  5  6  2  0
  6  7  1  0
  7  8  2  0
  9  8  1  0
 10 11  2  0
 12 13  1  0
 14 13  1  1
 14 16  1  0
 15 14  1  0
 15 10  1  0
 16 23  1  0
 16 17  2  0
 19 18  1  6
 19 20  1  0
 21 19  1  0
 22 21  1  1
 22 24  1  0
 23 22  1  0
 24 26  2  0
 24 25  1  0
M  END
$$$$
