FSL.pdb
     RDKit          3D

 26 26  0  0  1  0  0  0  0  0999 V2000
    7.8017  -16.5981   27.0029 N   0  0  0  0  0  0  0  0  0  0  0  0
    7.3355  -16.1316   25.7129 C   0  0  1  0  0  0  0  0  0  0  0  0
    8.2051  -14.9508   25.3545 C   0  0  0  0  0  0  0  0  0  0  0  0
    7.6886  -13.8046   26.1591 C   0  0  0  0  0  0  0  0  0  0  0  0
    8.4826  -13.0143   26.9633 C   0  0  0  0  0  0  0  0  0  0  0  0
    7.9788  -11.9548   27.6974 C   0  0  0  0  0  0  0  0  0  0  0  0
    6.6330  -11.6528   27.6434 C   0  0  0  0  0  0  0  0  0  0  0  0
    5.8208  -12.4248   26.8499 C   0  0  0  0  0  0  0  0  0  0  0  0
    6.3340  -13.4619   26.1356 C   0  0  0  0  0  0  0  0  0  0  0  0
    7.3064  -17.1845   24.7050 C   0  0  0  0  0  0  0  0  0  0  0  0
    8.1902  -18.1084   24.7200 O   0  0  0  0  0  0  0  0  0  0  0  0
    4.4384  -17.3089   21.5781 O   0  0  0  0  0  0  0  0  0  0  0  0
    5.3770  -18.2784   21.6035 C   0  0  0  0  0  0  0  0  0  0  0  0
    6.6159  -17.9971   22.4174 C   0  0  2  0  0  0  0  0  0  0  0  0
    6.3502  -17.3059   23.6459 N   0  0  0  0  0  0  0  0  0  0  0  0
    7.6873  -17.3732   21.6132 C   0  0  0  0  0  0  0  0  0  0  0  0
    8.0601  -17.9496   20.5361 O   0  0  0  0  0  0  0  0  0  0  0  0
    8.1756  -12.3982   19.5909 C   0  0  0  0  0  0  0  0  0  0  0  0
    8.2916  -13.9042   19.6992 C   0  0  2  0  0  0  0  0  0  0  0  0
    6.9215  -14.4750   19.9454 C   0  0  0  0  0  0  0  0  0  0  0  0
    9.2731  -14.1957   20.7966 C   0  0  0  0  0  0  0  0  0  0  0  0
    9.4620  -15.6674   21.0804 C   0  0  2  0  0  0  0  0  0  0  0  0
    8.3613  -16.1675   21.9234 N   0  0  0  0  0  0  0  0  0  0  0  0
   10.7691  -16.0056   21.6742 C   0  0  0  0  0  0  0  0  0  0  0  0
   10.8569  -16.5391   22.9506 O   0  0  0  0  0  0  0  0  0  0  0  0
   11.8284  -15.8187   21.0403 O   0  0  0  0  0  0  0  0  0  0  0  0
  2  1  1  1
  2 10  1  0
  3  2  1  0
  3  4  1  0
  4  9  2  0
  5  4  1  0
  5  6  2  0
  6  7  1  0
  7  8  2  0
  9  8  1  0
 10 11  2  0
 12 13  1  0
 14 13  1  6
 14 16  1  0
 15 14  1  0
 15 10  1  0
 16 23  1  0
 16 17  2  0
 19 18  1  1
 19 20  1  0
 21 19  1  0
 22 21  1  1
 22 24  1  0
 23 22  1  0
 24 26  2  0
 24 25  1  0
M  END
$$$$
