FSL.pdb
     RDKit          3D

 26 26  0  0  1  0  0  0  0  0999 V2000
    5.5869  -17.7754   23.7983 N   0  0  0  0  0  0  0  0  0  0  0  0
    6.4677  -16.6832   24.1591 C   0  0  1  0  0  0  0  0  0  0  0  0
    6.1347  -16.3304   25.5886 C   0  0  0  0  0  0  0  0  0  0  0  0
    6.6542  -14.9469   25.7991 C   0  0  0  0  0  0  0  0  0  0  0  0
    5.9486  -13.9542   26.4456 C   0  0  0  0  0  0  0  0  0  0  0  0
    6.4548  -12.6795   26.6303 C   0  0  0  0  0  0  0  0  0  0  0  0
    7.7123  -12.3589   26.1599 C   0  0  0  0  0  0  0  0  0  0  0  0
    8.4355  -13.3300   25.5122 C   0  0  0  0  0  0  0  0  0  0  0  0
    7.9213  -14.5771   25.3403 C   0  0  0  0  0  0  0  0  0  0  0  0
    7.8745  -16.9880   23.9274 C   0  0  0  0  0  0  0  0  0  0  0  0
    8.4529  -17.8979   24.6144 O   0  0  0  0  0  0  0  0  0  0  0  0
   10.2730  -16.5091   20.4580 O   0  0  0  0  0  0  0  0  0  0  0  0
   10.7653  -16.0422   21.6247 C   0  0  0  0  0  0  0  0  0  0  0  0
   10.1373  -16.5815   22.8861 C   0  0  2  0  0  0  0  0  0  0  0  0
    8.7241  -16.3494   22.9676 N   0  0  0  0  0  0  0  0  0  0  0  0
   10.8707  -16.1677   24.1006 C   0  0  0  0  0  0  0  0  0  0  0  0
   11.3700  -14.9930   24.1449 O   0  0  0  0  0  0  0  0  0  0  0  0
    9.1556  -13.8384   28.4429 C   0  0  0  0  0  0  0  0  0  0  0  0
   10.4283  -14.6158   28.1799 C   0  0  2  0  0  0  0  0  0  0  0  0
   11.5897  -13.6598   28.2086 C   0  0  0  0  0  0  0  0  0  0  0  0
   10.2560  -15.3169   26.8641 C   0  0  0  0  0  0  0  0  0  0  0  0
   11.3180  -16.3508   26.5723 C   0  0  2  0  0  0  0  0  0  0  0  0
   11.0817  -16.9631   25.2526 N   0  0  0  0  0  0  0  0  0  0  0  0
   11.4536  -17.3881   27.6120 C   0  0  0  0  0  0  0  0  0  0  0  0
   10.3921  -18.2195   27.9339 O   0  0  0  0  0  0  0  0  0  0  0  0
   12.5290  -17.5417   28.2275 O   0  0  0  0  0  0  0  0  0  0  0  0
  2  1  1  1
  2 10  1  0
  3  2  1  0
  3  4  1  0
  4  9  2  0
  5  4  1  0
  5  6  2  0
  6  7  1  0
  7  8  2  0
  9  8  1  0
 10 11  2  0
 12 13  1  0
 14 13  1  6
 14 16  1  0
 15 14  1  0
 15 10  1  0
 16 23  1  0
 16 17  2  0
 19 18  1  6
 19 20  1  0
 21 19  1  0
 22 21  1  1
 22 24  1  0
 23 22  1  0
 24 26  2  0
 24 25  1  0
M  END
$$$$
