FSL.pdb
     RDKit          3D

 26 26  0  0  1  0  0  0  0  0999 V2000
    5.7780  -17.1132   24.2877 N   0  0  0  0  0  0  0  0  0  0  0  0
    6.6621  -16.5760   23.2736 C   0  0  1  0  0  0  0  0  0  0  0  0
    6.2507  -15.1368   23.0778 C   0  0  0  0  0  0  0  0  0  0  0  0
    6.6042  -14.4350   24.3469 C   0  0  0  0  0  0  0  0  0  0  0  0
    7.7516  -13.6888   24.5152 C   0  0  0  0  0  0  0  0  0  0  0  0
    8.0545  -13.0452   25.7023 C   0  0  0  0  0  0  0  0  0  0  0  0
    7.1943  -13.1354   26.7780 C   0  0  0  0  0  0  0  0  0  0  0  0
    6.0447  -13.8728   26.6361 C   0  0  0  0  0  0  0  0  0  0  0  0
    5.7639  -14.4982   25.4617 C   0  0  0  0  0  0  0  0  0  0  0  0
    8.0723  -16.7596   23.5947 C   0  0  0  0  0  0  0  0  0  0  0  0
    8.4187  -17.1121   24.7738 O   0  0  0  0  0  0  0  0  0  0  0  0
   12.8152  -16.7746   22.2018 O   0  0  0  0  0  0  0  0  0  0  0  0
   11.5129  -16.5386   21.9376 C   0  0  0  0  0  0  0  0  0  0  0  0
   10.5323  -16.8579   23.0390 C   0  0  2  0  0  0  0  0  0  0  0  0
    9.1688  -16.5798   22.6912 N   0  0  0  0  0  0  0  0  0  0  0  0
   10.9365  -16.2784   24.3370 C   0  0  0  0  0  0  0  0  0  0  0  0
   10.9841  -15.0074   24.4528 O   0  0  0  0  0  0  0  0  0  0  0  0
    9.7493  -13.5746   28.5818 C   0  0  0  0  0  0  0  0  0  0  0  0
   10.9082  -14.5233   28.3581 C   0  0  2  0  0  0  0  0  0  0  0  0
   12.1872  -13.7310   28.3723 C   0  0  0  0  0  0  0  0  0  0  0  0
   10.6542  -15.2361   27.0620 C   0  0  0  0  0  0  0  0  0  0  0  0
   11.6535  -16.3255   26.7509 C   0  0  2  0  0  0  0  0  0  0  0  0
   11.2857  -17.0093   25.4981 N   0  0  0  0  0  0  0  0  0  0  0  0
   11.8438  -17.3005   27.8411 C   0  0  0  0  0  0  0  0  0  0  0  0
   11.0381  -18.4239   27.9430 O   0  0  0  0  0  0  0  0  0  0  0  0
   12.7361  -17.1364   28.6989 O   0  0  0  0  0  0  0  0  0  0  0  0
  2  1  1  1
  2 10  1  0
  3  2  1  0
  3  4  1  0
  4  9  2  0
  5  4  1  0
  5  6  2  0
  6  7  1  0
  7  8  2  0
  9  8  1  0
 10 11  2  0
 12 13  1  0
 14 13  1  6
 14 16  1  0
 15 14  1  0
 15 10  1  0
 16 23  1  0
 16 17  2  0
 19 18  1  6
 19 20  1  0
 21 19  1  0
 22 21  1  1
 22 24  1  0
 23 22  1  0
 24 26  2  0
 24 25  1  0
M  END
$$$$
