FSL.pdb
     RDKit          3D

 26 26  0  0  1  0  0  0  0  0999 V2000
    5.9265  -18.1106   23.1857 N   0  0  0  0  0  0  0  0  0  0  0  0
    6.6373  -16.9285   23.6286 C   0  0  1  0  0  0  0  0  0  0  0  0
    5.8589  -16.3863   24.8029 C   0  0  0  0  0  0  0  0  0  0  0  0
    6.3179  -14.9771   24.9810 C   0  0  0  0  0  0  0  0  0  0  0  0
    7.1437  -14.3226   24.0915 C   0  0  0  0  0  0  0  0  0  0  0  0
    7.5525  -13.0138   24.2789 C   0  0  0  0  0  0  0  0  0  0  0  0
    7.1341  -12.3099   25.3900 C   0  0  0  0  0  0  0  0  0  0  0  0
    6.3113  -12.9392   26.2913 C   0  0  0  0  0  0  0  0  0  0  0  0
    5.9200  -14.2260   26.0902 C   0  0  0  0  0  0  0  0  0  0  0  0
    8.0454  -17.1837   23.9072 C   0  0  0  0  0  0  0  0  0  0  0  0
    8.3884  -17.7465   25.0028 O   0  0  0  0  0  0  0  0  0  0  0  0
   11.5125  -15.8214   21.5924 O   0  0  0  0  0  0  0  0  0  0  0  0
   11.4445  -17.0306   22.1881 C   0  0  0  0  0  0  0  0  0  0  0  0
   10.5105  -17.1505   23.3670 C   0  0  2  0  0  0  0  0  0  0  0  0
    9.1432  -16.8576   23.0474 N   0  0  0  0  0  0  0  0  0  0  0  0
   11.0053  -16.4202   24.5527 C   0  0  0  0  0  0  0  0  0  0  0  0
   10.7198  -15.1811   24.6728 O   0  0  0  0  0  0  0  0  0  0  0  0
    9.3795  -13.7738   28.3751 C   0  0  0  0  0  0  0  0  0  0  0  0
   10.5619  -14.7191   28.4177 C   0  0  2  0  0  0  0  0  0  0  0  0
   11.7895  -13.9360   28.7962 C   0  0  0  0  0  0  0  0  0  0  0  0
   10.6551  -15.3737   27.0704 C   0  0  0  0  0  0  0  0  0  0  0  0
   11.7709  -16.3851   26.9518 C   0  0  2  0  0  0  0  0  0  0  0  0
   11.7848  -16.9698   25.5989 N   0  0  0  0  0  0  0  0  0  0  0  0
   11.7382  -17.4443   27.9777 C   0  0  0  0  0  0  0  0  0  0  0  0
   10.7870  -18.4518   27.9337 O   0  0  0  0  0  0  0  0  0  0  0  0
   12.5674  -17.4582   28.9110 O   0  0  0  0  0  0  0  0  0  0  0  0
  2  1  1  1
  2 10  1  0
  3  2  1  0
  3  4  1  0
  4  9  2  0
  5  4  1  0
  5  6  2  0
  6  7  1  0
  7  8  2  0
  9  8  1  0
 10 11  2  0
 12 13  1  0
 14 13  1  6
 14 16  1  0
 15 14  1  0
 15 10  1  0
 16 23  1  0
 16 17  2  0
 19 18  1  6
 19 20  1  0
 21 19  1  0
 22 21  1  6
 22 24  1  0
 23 22  1  0
 24 26  2  0
 24 25  1  0
M  END
$$$$
