FSL.pdb
     RDKit          3D

 26 26  0  0  1  0  0  0  0  0999 V2000
    7.1662  -17.6345   19.2127 N   0  0  0  0  0  0  0  0  0  0  0  0
    7.6767  -16.5754   20.0591 C   0  0  1  0  0  0  0  0  0  0  0  0
    6.5503  -15.5825   20.2143 C   0  0  0  0  0  0  0  0  0  0  0  0
    7.0934  -14.4780   21.0589 C   0  0  0  0  0  0  0  0  0  0  0  0
    6.9232  -14.4045   22.4253 C   0  0  0  0  0  0  0  0  0  0  0  0
    7.4399  -13.3704   23.1861 C   0  0  0  0  0  0  0  0  0  0  0  0
    8.1580  -12.3581   22.5820 C   0  0  0  0  0  0  0  0  0  0  0  0
    8.3415  -12.4079   21.2222 C   0  0  0  0  0  0  0  0  0  0  0  0
    7.8262  -13.4323   20.4912 C   0  0  0  0  0  0  0  0  0  0  0  0
    8.2217  -17.0678   21.3185 C   0  0  0  0  0  0  0  0  0  0  0  0
    7.4353  -17.4959   22.2312 O   0  0  0  0  0  0  0  0  0  0  0  0
   12.4110  -17.9128   22.1869 O   0  0  0  0  0  0  0  0  0  0  0  0
   11.3369  -18.5294   22.7233 C   0  0  0  0  0  0  0  0  0  0  0  0
   10.0931  -17.6923   22.8926 C   0  0  2  0  0  0  0  0  0  0  0  0
    9.6098  -17.1287   21.6653 N   0  0  0  0  0  0  0  0  0  0  0  0
   10.2261  -16.7014   23.9809 C   0  0  0  0  0  0  0  0  0  0  0  0
   10.7779  -15.5786   23.7237 O   0  0  0  0  0  0  0  0  0  0  0  0
    8.1499  -13.2217   28.0810 C   0  0  0  0  0  0  0  0  0  0  0  0
    9.3995  -14.0390   27.8285 C   0  0  2  0  0  0  0  0  0  0  0  0
   10.5383  -13.0989   27.5406 C   0  0  0  0  0  0  0  0  0  0  0  0
    9.0937  -14.9801   26.7001 C   0  0  0  0  0  0  0  0  0  0  0  0
   10.2099  -15.9476   26.3839 C   0  0  2  0  0  0  0  0  0  0  0  0
    9.7916  -16.8746   25.3171 N   0  0  0  0  0  0  0  0  0  0  0  0
   10.7143  -16.6915   27.5534 C   0  0  0  0  0  0  0  0  0  0  0  0
   10.1269  -17.8831   27.9493 O   0  0  0  0  0  0  0  0  0  0  0  0
   11.6833  -16.2648   28.2150 O   0  0  0  0  0  0  0  0  0  0  0  0
  2  1  1  6
  2 10  1  0
  3  2  1  0
  3  4  1  0
  4  9  2  0
  5  4  1  0
  5  6  2  0
  6  7  1  0
  7  8  2  0
  9  8  1  0
 10 11  2  0
 12 13  1  0
 14 13  1  6
 14 16  1  0
 15 14  1  0
 15 10  1  0
 16 23  1  0
 16 17  2  0
 19 18  1  6
 19 20  1  0
 21 19  1  0
 22 21  1  1
 22 24  1  0
 23 22  1  0
 24 26  2  0
 24 25  1  0
M  END
$$$$
