FSL.pdb
     RDKit          3D

 26 26  0  0  1  0  0  0  0  0999 V2000
   10.4438  -16.0389   18.2663 N   0  0  0  0  0  0  0  0  0  0  0  0
   10.8961  -15.6652   19.5910 C   0  0  1  0  0  0  0  0  0  0  0  0
   11.4301  -14.2584   19.4707 C   0  0  0  0  0  0  0  0  0  0  0  0
   12.9134  -14.3922   19.3700 C   0  0  0  0  0  0  0  0  0  0  0  0
   13.6272  -14.1513   18.2150 C   0  0  0  0  0  0  0  0  0  0  0  0
   15.0036  -14.2799   18.1491 C   0  0  0  0  0  0  0  0  0  0  0  0
   15.7176  -14.6629   19.2666 C   0  0  0  0  0  0  0  0  0  0  0  0
   15.0301  -14.9089   20.4295 C   0  0  0  0  0  0  0  0  0  0  0  0
   13.6774  -14.7771   20.4750 C   0  0  0  0  0  0  0  0  0  0  0  0
    9.8674  -15.8325   20.6104 C   0  0  0  0  0  0  0  0  0  0  0  0
    8.6673  -15.4603   20.3745 O   0  0  0  0  0  0  0  0  0  0  0  0
    9.6771  -18.7964   23.6020 O   0  0  0  0  0  0  0  0  0  0  0  0
    8.6737  -18.0310   23.1236 C   0  0  0  0  0  0  0  0  0  0  0  0
    8.9983  -16.5816   22.8584 C   0  0  2  0  0  0  0  0  0  0  0  0
   10.0607  -16.3956   21.9129 N   0  0  0  0  0  0  0  0  0  0  0  0
    9.1804  -15.8090   24.1050 C   0  0  0  0  0  0  0  0  0  0  0  0
   10.3662  -15.6118   24.5364 O   0  0  0  0  0  0  0  0  0  0  0  0
    8.2402  -11.7392   25.8151 C   0  0  0  0  0  0  0  0  0  0  0  0
    7.0223  -12.6366   25.7461 C   0  0  2  0  0  0  0  0  0  0  0  0
    5.8085  -11.8282   26.1164 C   0  0  0  0  0  0  0  0  0  0  0  0
    7.2754  -13.7991   26.6610 C   0  0  0  0  0  0  0  0  0  0  0  0
    8.4171  -14.6882   26.2273 C   0  0  2  0  0  0  0  0  0  0  0  0
    8.1451  -15.2489   24.8917 N   0  0  0  0  0  0  0  0  0  0  0  0
    8.7465  -15.7597   27.1859 C   0  0  0  0  0  0  0  0  0  0  0  0
    9.5201  -15.5019   28.3069 O   0  0  0  0  0  0  0  0  0  0  0  0
    8.3358  -16.9255   27.0097 O   0  0  0  0  0  0  0  0  0  0  0  0
  2  1  1  6
  2 10  1  0
  3  2  1  0
  3  4  1  0
  4  9  2  0
  5  4  1  0
  5  6  2  0
  6  7  1  0
  7  8  2  0
  9  8  1  0
 10 11  2  0
 12 13  1  0
 14 13  1  1
 14 16  1  0
 15 14  1  0
 15 10  1  0
 16 23  1  0
 16 17  2  0
 19 18  1  1
 19 20  1  0
 21 19  1  0
 22 21  1  1
 22 24  1  0
 23 22  1  0
 24 26  2  0
 24 25  1  0
M  END
$$$$
