FSL.pdb
     RDKit          3D

 26 26  0  0  1  0  0  0  0  0999 V2000
    7.2819  -13.8142   17.7354 N   0  0  0  0  0  0  0  0  0  0  0  0
    8.3492  -14.2987   18.5868 C   0  0  1  0  0  0  0  0  0  0  0  0
    9.4358  -13.2521   18.5343 C   0  0  0  0  0  0  0  0  0  0  0  0
   10.5340  -13.7597   19.4086 C   0  0  0  0  0  0  0  0  0  0  0  0
   11.2364  -14.9199   19.1599 C   0  0  0  0  0  0  0  0  0  0  0  0
   12.2530  -15.3672   19.9856 C   0  0  0  0  0  0  0  0  0  0  0  0
   12.6001  -14.6454   21.1098 C   0  0  0  0  0  0  0  0  0  0  0  0
   11.9155  -13.4862   21.3800 C   0  0  0  0  0  0  0  0  0  0  0  0
   10.9194  -13.0626   20.5568 C   0  0  0  0  0  0  0  0  0  0  0  0
    7.8966  -14.6281   19.9330 C   0  0  0  0  0  0  0  0  0  0  0  0
    7.2971  -13.7469   20.6392 O   0  0  0  0  0  0  0  0  0  0  0  0
    7.8290  -18.5907   21.8856 O   0  0  0  0  0  0  0  0  0  0  0  0
    6.9696  -17.5608   22.0349 C   0  0  0  0  0  0  0  0  0  0  0  0
    7.5479  -16.1740   21.8972 C   0  0  2  0  0  0  0  0  0  0  0  0
    8.0568  -15.8925   20.5861 N   0  0  0  0  0  0  0  0  0  0  0  0
    8.5029  -15.8533   22.9785 C   0  0  0  0  0  0  0  0  0  0  0  0
    9.7539  -15.8993   22.7253 O   0  0  0  0  0  0  0  0  0  0  0  0
    9.1728  -12.9916   28.3536 C   0  0  0  0  0  0  0  0  0  0  0  0
    9.7878  -14.0061   27.4124 C   0  0  2  0  0  0  0  0  0  0  0  0
   11.1294  -13.4937   26.9639 C   0  0  0  0  0  0  0  0  0  0  0  0
    8.8152  -14.2154   26.2887 C   0  0  0  0  0  0  0  0  0  0  0  0
    9.1961  -15.3297   25.3425 C   0  0  2  0  0  0  0  0  0  0  0  0
    8.1627  -15.4895   24.3038 N   0  0  0  0  0  0  0  0  0  0  0  0
    9.4727  -16.6177   26.0058 C   0  0  0  0  0  0  0  0  0  0  0  0
   10.7712  -17.0079   26.2944 O   0  0  0  0  0  0  0  0  0  0  0  0
    8.5426  -17.3878   26.3231 O   0  0  0  0  0  0  0  0  0  0  0  0
  2  1  1  6
  2 10  1  0
  3  2  1  0
  3  4  1  0
  4  9  2  0
  5  4  1  0
  5  6  2  0
  6  7  1  0
  7  8  2  0
  9  8  1  0
 10 11  2  0
 12 13  1  0
 14 13  1  6
 14 16  1  0
 15 14  1  0
 15 10  1  0
 16 23  1  0
 16 17  2  0
 19 18  1  1
 19 20  1  0
 21 19  1  0
 22 21  1  1
 22 24  1  0
 23 22  1  0
 24 26  2  0
 24 25  1  0
M  END
$$$$
