FSL.pdb
     RDKit          3D

 26 26  0  0  1  0  0  0  0  0999 V2000
    7.2191  -17.7674   19.3829 N   0  0  0  0  0  0  0  0  0  0  0  0
    7.7218  -16.5891   20.0594 C   0  0  1  0  0  0  0  0  0  0  0  0
    6.5366  -15.6720   20.2414 C   0  0  0  0  0  0  0  0  0  0  0  0
    7.0727  -14.4343   20.8807 C   0  0  0  0  0  0  0  0  0  0  0  0
    7.6212  -13.3841   20.1752 C   0  0  0  0  0  0  0  0  0  0  0  0
    8.1088  -12.2456   20.7926 C   0  0  0  0  0  0  0  0  0  0  0  0
    8.0584  -12.1274   22.1669 C   0  0  0  0  0  0  0  0  0  0  0  0
    7.5169  -13.1597   22.8926 C   0  0  0  0  0  0  0  0  0  0  0  0
    7.0426  -14.2708   22.2682 C   0  0  0  0  0  0  0  0  0  0  0  0
    8.4340  -16.9026   21.2922 C   0  0  0  0  0  0  0  0  0  0  0  0
    7.8840  -17.6433   22.1774 O   0  0  0  0  0  0  0  0  0  0  0  0
   12.6217  -17.6033   23.6364 O   0  0  0  0  0  0  0  0  0  0  0  0
   11.9047  -17.1891   22.5706 C   0  0  0  0  0  0  0  0  0  0  0  0
   10.4470  -16.8860   22.8146 C   0  0  2  0  0  0  0  0  0  0  0  0
    9.7475  -16.4506   21.6405 N   0  0  0  0  0  0  0  0  0  0  0  0
   10.2443  -16.0006   23.9804 C   0  0  0  0  0  0  0  0  0  0  0  0
   10.2145  -14.7376   23.7932 O   0  0  0  0  0  0  0  0  0  0  0  0
    6.7621  -13.2962   27.0268 C   0  0  0  0  0  0  0  0  0  0  0  0
    8.1465  -13.8282   27.3325 C   0  0  2  0  0  0  0  0  0  0  0  0
    9.0810  -12.6623   27.5087 C   0  0  0  0  0  0  0  0  0  0  0  0
    8.5289  -14.7433   26.2060 C   0  0  0  0  0  0  0  0  0  0  0  0
    9.8492  -15.4496   26.4059 C   0  0  2  0  0  0  0  0  0  0  0  0
   10.0745  -16.4218   25.3213 N   0  0  0  0  0  0  0  0  0  0  0  0
    9.9960  -16.0950   27.7240 C   0  0  0  0  0  0  0  0  0  0  0  0
    9.4670  -17.3533   27.9657 O   0  0  0  0  0  0  0  0  0  0  0  0
   10.6007  -15.5223   28.6541 O   0  0  0  0  0  0  0  0  0  0  0  0
  2  1  1  1
  2 10  1  0
  3  2  1  0
  3  4  1  0
  4  9  2  0
  5  4  1  0
  5  6  2  0
  6  7  1  0
  7  8  2  0
  9  8  1  0
 10 11  2  0
 12 13  1  0
 14 13  1  6
 14 16  1  0
 15 14  1  0
 15 10  1  0
 16 23  1  0
 16 17  2  0
 19 18  1  6
 19 20  1  0
 21 19  1  0
 22 21  1  6
 22 24  1  0
 23 22  1  0
 24 26  2  0
 24 25  1  0
M  END
$$$$
