FSL.pdb
     RDKit          3D

 26 26  0  0  1  0  0  0  0  0999 V2000
    7.3113  -17.4086   19.5194 N   0  0  0  0  0  0  0  0  0  0  0  0
    7.7623  -16.3463   20.3951 C   0  0  1  0  0  0  0  0  0  0  0  0
    6.5338  -15.5429   20.7475 C   0  0  0  0  0  0  0  0  0  0  0  0
    7.0201  -14.3884   21.5591 C   0  0  0  0  0  0  0  0  0  0  0  0
    7.5749  -13.2495   21.0147 C   0  0  0  0  0  0  0  0  0  0  0  0
    8.0156  -12.1913   21.7901 C   0  0  0  0  0  0  0  0  0  0  0  0
    7.9092  -12.2488   23.1651 C   0  0  0  0  0  0  0  0  0  0  0  0
    7.3603  -13.3725   23.7321 C   0  0  0  0  0  0  0  0  0  0  0  0
    6.9327  -14.4023   22.9538 C   0  0  0  0  0  0  0  0  0  0  0  0
    8.5094  -16.8382   21.5464 C   0  0  0  0  0  0  0  0  0  0  0  0
    7.8991  -17.4424   22.4936 O   0  0  0  0  0  0  0  0  0  0  0  0
   12.9042  -16.8503   22.1581 O   0  0  0  0  0  0  0  0  0  0  0  0
   12.0003  -17.7864   22.5165 C   0  0  0  0  0  0  0  0  0  0  0  0
   10.6167  -17.2919   22.8592 C   0  0  2  0  0  0  0  0  0  0  0  0
    9.9221  -16.7138   21.7453 N   0  0  0  0  0  0  0  0  0  0  0  0
   10.6078  -16.4364   24.0642 C   0  0  0  0  0  0  0  0  0  0  0  0
   10.8719  -15.1934   23.9356 O   0  0  0  0  0  0  0  0  0  0  0  0
    8.0869  -13.1196   27.5198 C   0  0  0  0  0  0  0  0  0  0  0  0
    9.3464  -13.9530   27.6310 C   0  0  2  0  0  0  0  0  0  0  0  0
   10.5319  -13.0278   27.6781 C   0  0  0  0  0  0  0  0  0  0  0  0
    9.3608  -14.8933   26.4614 C   0  0  0  0  0  0  0  0  0  0  0  0
   10.4427  -15.9455   26.5289 C   0  0  2  0  0  0  0  0  0  0  0  0
   10.3279  -16.8662   25.3837 N   0  0  0  0  0  0  0  0  0  0  0  0
   10.4790  -16.6944   27.7990 C   0  0  0  0  0  0  0  0  0  0  0  0
   11.3566  -16.3402   28.8119 O   0  0  0  0  0  0  0  0  0  0  0  0
    9.7193  -17.6663   27.9917 O   0  0  0  0  0  0  0  0  0  0  0  0
  2  1  1  6
  2 10  1  0
  3  2  1  0
  3  4  1  0
  4  9  2  0
  5  4  1  0
  5  6  2  0
  6  7  1  0
  7  8  2  0
  9  8  1  0
 10 11  2  0
 12 13  1  0
 14 13  1  6
 14 16  1  0
 15 14  1  0
 15 10  1  0
 16 23  1  0
 16 17  2  0
 19 18  1  6
 19 20  1  0
 21 19  1  0
 22 21  1  1
 22 24  1  0
 23 22  1  0
 24 26  2  0
 24 25  1  0
M  END
$$$$
