SCS.pdb
     RDKit          3D

 19 18  0  0  1  0  0  0  0  0999 V2000
    8.5304  -20.1072   19.2608 O   0  0  0  0  0  0  0  0  0  0  0  0
    8.5716  -19.5078   17.9999 C   0  0  0  0  0  0  0  0  0  0  0  0
    8.0087  -18.1167   18.1501 C   0  0  2  0  0  0  0  0  0  0  0  0
    7.9876  -17.4459   16.8879 N   0  0  0  0  0  0  0  0  0  0  0  0
    8.7107  -17.3074   19.1450 C   0  0  0  0  0  0  0  0  0  0  0  0
    9.7292  -16.5881   18.8585 O   0  0  0  0  0  0  0  0  0  0  0  0
    8.2498  -17.3130   20.4909 N   0  0  0  0  0  0  0  0  0  0  0  0
    8.9255  -16.5431   21.5209 C   0  0  1  0  0  0  0  0  0  0  0  0
    7.9483  -15.7929   22.3906 C   0  0  0  0  0  0  0  0  0  0  0  0
    8.9099  -14.9617   23.6928 S   0  0  0  0  0  0  0  0  0  0  0  0
    9.8447  -17.3995   22.3193 C   0  0  0  0  0  0  0  0  0  0  0  0
    9.4293  -18.4962   22.7719 O   0  0  0  0  0  0  0  0  0  0  0  0
   13.8079  -16.4592   22.8700 O   0  0  0  0  0  0  0  0  0  0  0  0
   13.4611  -17.8087   22.8399 C   0  0  0  0  0  0  0  0  0  0  0  0
   12.0501  -17.9280   23.3272 C   0  0  2  0  0  0  0  0  0  0  0  0
   11.1864  -17.0300   22.5970 N   0  0  0  0  0  0  0  0  0  0  0  0
   11.9989  -17.6396   24.7966 C   0  0  0  0  0  0  0  0  0  0  0  0
   12.6444  -18.4439   25.7227 O   0  0  0  0  0  0  0  0  0  0  0  0
   11.3617  -16.6488   25.2335 O   0  0  0  0  0  0  0  0  0  0  0  0
  2  1  1  0
  3  2  1  0
  3  4  1  6
  5  6  2  0
  5  3  1  0
  7  5  1  0
  8  7  1  0
  8  9  1  1
 10  9  1  0
 11  8  1  0
 11 12  2  0
 13 14  1  0
 15 16  1  0
 15 14  1  6
 16 11  1  0
 17 15  1  0
 18 17  1  0
 19 17  2  0
M  END
$$$$
