SCS.pdb
     RDKit          3D

 19 18  0  0  1  0  0  0  0  0999 V2000
    6.9967  -15.8830   20.6456 O   0  0  0  0  0  0  0  0  0  0  0  0
    6.1827  -14.7492   20.6984 C   0  0  0  0  0  0  0  0  0  0  0  0
    7.0753  -13.5752   21.0144 C   0  0  2  0  0  0  0  0  0  0  0  0
    7.8892  -13.2468   19.8861 N   0  0  0  0  0  0  0  0  0  0  0  0
    7.9065  -13.7767   22.2003 C   0  0  0  0  0  0  0  0  0  0  0  0
    9.1649  -13.9977   22.1341 O   0  0  0  0  0  0  0  0  0  0  0  0
    7.3001  -13.7268   23.4862 N   0  0  0  0  0  0  0  0  0  0  0  0
    8.0868  -13.8929   24.6960 C   0  0  1  0  0  0  0  0  0  0  0  0
    7.4764  -13.1621   25.8654 C   0  0  0  0  0  0  0  0  0  0  0  0
    5.7143  -13.6126   25.9253 S   0  0  0  0  0  0  0  0  0  0  0  0
    8.3212  -15.3323   24.9943 C   0  0  0  0  0  0  0  0  0  0  0  0
    7.3972  -16.1617   24.7978 O   0  0  0  0  0  0  0  0  0  0  0  0
   11.8491  -16.8787   24.7278 O   0  0  0  0  0  0  0  0  0  0  0  0
   10.7707  -17.7614   24.7298 C   0  0  0  0  0  0  0  0  0  0  0  0
    9.7524  -17.2353   25.6937 C   0  0  2  0  0  0  0  0  0  0  0  0
    9.5562  -15.8182   25.4968 N   0  0  0  0  0  0  0  0  0  0  0  0
   10.1918  -17.5228   27.0969 C   0  0  0  0  0  0  0  0  0  0  0  0
   10.4336  -18.8145   27.5375 O   0  0  0  0  0  0  0  0  0  0  0  0
   10.3547  -16.5889   27.9216 O   0  0  0  0  0  0  0  0  0  0  0  0
  2  1  1  0
  3  2  1  0
  3  4  1  6
  5  6  2  0
  5  3  1  0
  7  5  1  0
  8  7  1  0
  8  9  1  1
 10  9  1  0
 11  8  1  0
 11 12  2  0
 13 14  1  0
 15 16  1  0
 15 14  1  6
 16 11  1  0
 17 15  1  0
 18 17  1  0
 19 17  2  0
M  END
$$$$
