SCS.pdb
     RDKit          3D

 19 18  0  0  1  0  0  0  0  0999 V2000
    6.4081  -15.3521   18.9125 O   0  0  0  0  0  0  0  0  0  0  0  0
    7.4729  -15.1389   19.7908 C   0  0  0  0  0  0  0  0  0  0  0  0
    7.2992  -13.7586   20.3735 C   0  0  2  0  0  0  0  0  0  0  0  0
    7.6823  -12.7619   19.4231 N   0  0  0  0  0  0  0  0  0  0  0  0
    8.0150  -13.5627   21.6332 C   0  0  0  0  0  0  0  0  0  0  0  0
    9.1796  -13.0365   21.6930 O   0  0  0  0  0  0  0  0  0  0  0  0
    7.3992  -13.9709   22.8490 N   0  0  0  0  0  0  0  0  0  0  0  0
    8.1392  -13.9866   24.0989 C   0  0  1  0  0  0  0  0  0  0  0  0
    7.4441  -13.1856   25.1710 C   0  0  0  0  0  0  0  0  0  0  0  0
    5.7174  -13.7559   25.2392 S   0  0  0  0  0  0  0  0  0  0  0  0
    8.4284  -15.3793   24.5377 C   0  0  0  0  0  0  0  0  0  0  0  0
    7.4864  -16.2071   24.6247 O   0  0  0  0  0  0  0  0  0  0  0  0
   11.8870  -16.6222   24.0289 O   0  0  0  0  0  0  0  0  0  0  0  0
   11.2051  -17.7157   24.5597 C   0  0  0  0  0  0  0  0  0  0  0  0
    9.9664  -17.2014   25.2257 C   0  0  2  0  0  0  0  0  0  0  0  0
    9.7361  -15.8218   24.8666 N   0  0  0  0  0  0  0  0  0  0  0  0
   10.0943  -17.3514   26.7110 C   0  0  0  0  0  0  0  0  0  0  0  0
   10.3184  -18.5834   27.3051 O   0  0  0  0  0  0  0  0  0  0  0  0
   10.0005  -16.3519   27.4665 O   0  0  0  0  0  0  0  0  0  0  0  0
  2  1  1  0
  3  2  1  0
  3  4  1  6
  5  6  2  0
  5  3  1  0
  7  5  1  0
  8  7  1  0
  8  9  1  1
 10  9  1  0
 11  8  1  0
 11 12  2  0
 13 14  1  0
 15 16  1  0
 15 14  1  6
 16 11  1  0
 17 15  1  0
 18 17  1  0
 19 17  2  0
M  END
$$$$
