SCS.pdb
     RDKit          3D

 19 18  0  0  1  0  0  0  0  0999 V2000
   15.1052  -16.4853   18.9771 O   0  0  0  0  0  0  0  0  0  0  0  0
   14.4123  -16.3759   17.7693 C   0  0  0  0  0  0  0  0  0  0  0  0
   14.0369  -14.9247   17.6019 C   0  0  2  0  0  0  0  0  0  0  0  0
   15.2045  -14.1001   17.6195 N   0  0  0  0  0  0  0  0  0  0  0  0
   13.0670  -14.4551   18.5899 C   0  0  0  0  0  0  0  0  0  0  0  0
   13.4043  -13.7878   19.6280 O   0  0  0  0  0  0  0  0  0  0  0  0
   11.6879  -14.7471   18.3980 N   0  0  0  0  0  0  0  0  0  0  0  0
   10.6998  -14.4102   19.4082 C   0  0  1  0  0  0  0  0  0  0  0  0
    9.3105  -14.3295   18.8271 C   0  0  0  0  0  0  0  0  0  0  0  0
    8.2050  -13.7406   20.1471 S   0  0  0  0  0  0  0  0  0  0  0  0
   10.7708  -15.3437   20.5654 C   0  0  0  0  0  0  0  0  0  0  0  0
   11.1536  -16.5269   20.3813 O   0  0  0  0  0  0  0  0  0  0  0  0
   10.0396  -16.2696   25.2309 O   0  0  0  0  0  0  0  0  0  0  0  0
   10.0406  -15.2812   24.2484 C   0  0  0  0  0  0  0  0  0  0  0  0
   10.4305  -15.9252   22.9539 C   0  0  2  0  0  0  0  0  0  0  0  0
   10.4217  -14.9545   21.8847 N   0  0  0  0  0  0  0  0  0  0  0  0
    9.4965  -17.0576   22.6535 C   0  0  0  0  0  0  0  0  0  0  0  0
    9.7432  -18.3468   23.0987 O   0  0  0  0  0  0  0  0  0  0  0  0
    8.4520  -16.8660   21.9819 O   0  0  0  0  0  0  0  0  0  0  0  0
  2  1  1  0
  3  2  1  0
  3  4  1  1
  5  6  2  0
  5  3  1  0
  7  5  1  0
  8  7  1  0
  8  9  1  6
 10  9  1  0
 11  8  1  0
 11 12  2  0
 13 14  1  0
 15 16  1  0
 15 14  1  1
 16 11  1  0
 17 15  1  0
 18 17  1  0
 19 17  2  0
M  END
$$$$
