SCS.pdb
     RDKit          3D

 19 18  0  0  1  0  0  0  0  0999 V2000
    9.1095  -18.0166   22.0079 O   0  0  0  0  0  0  0  0  0  0  0  0
    8.1832  -17.0442   21.6244 C   0  0  0  0  0  0  0  0  0  0  0  0
    8.8890  -15.7123   21.6774 C   0  0  2  0  0  0  0  0  0  0  0  0
    9.8925  -15.6365   20.6622 N   0  0  0  0  0  0  0  0  0  0  0  0
    9.4651  -15.4087   22.9864 C   0  0  0  0  0  0  0  0  0  0  0  0
   10.7251  -15.4213   23.2078 O   0  0  0  0  0  0  0  0  0  0  0  0
    8.5967  -15.0847   24.0656 N   0  0  0  0  0  0  0  0  0  0  0  0
    9.1175  -14.8068   25.3930 C   0  0  1  0  0  0  0  0  0  0  0  0
    8.2676  -13.8011   26.1284 C   0  0  0  0  0  0  0  0  0  0  0  0
    9.0619  -13.4940   27.7365 S   0  0  0  0  0  0  0  0  0  0  0  0
    9.3046  -16.0607   26.1730 C   0  0  0  0  0  0  0  0  0  0  0  0
    8.3660  -16.8946   26.2352 O   0  0  0  0  0  0  0  0  0  0  0  0
   11.8103  -18.4011   25.8637 O   0  0  0  0  0  0  0  0  0  0  0  0
   11.7783  -18.3801   27.2568 C   0  0  0  0  0  0  0  0  0  0  0  0
   10.6030  -17.5509   27.6737 C   0  0  2  0  0  0  0  0  0  0  0  0
   10.5098  -16.3623   26.8588 N   0  0  0  0  0  0  0  0  0  0  0  0
   10.7272  -17.1948   29.1237 C   0  0  0  0  0  0  0  0  0  0  0  0
   10.8630  -18.1635   30.1057 O   0  0  0  0  0  0  0  0  0  0  0  0
   10.7113  -15.9937   29.4923 O   0  0  0  0  0  0  0  0  0  0  0  0
  2  1  1  0
  3  2  1  0
  3  4  1  6
  5  6  2  0
  5  3  1  0
  7  5  1  0
  8  7  1  0
  8  9  1  1
 10  9  1  0
 11  8  1  0
 11 12  2  0
 13 14  1  0
 15 16  1  0
 15 14  1  6
 16 11  1  0
 17 15  1  0
 18 17  1  0
 19 17  2  0
M  END
$$$$
