SCS.pdb
     RDKit          3D

 19 18  0  0  1  0  0  0  0  0999 V2000
    9.7699  -17.9299   14.2389 O   0  0  0  0  0  0  0  0  0  0  0  0
    9.6176  -17.3445   15.4978 C   0  0  0  0  0  0  0  0  0  0  0  0
    8.1813  -16.8981   15.6099 C   0  0  2  0  0  0  0  0  0  0  0  0
    7.8527  -15.9968   14.5501 N   0  0  0  0  0  0  0  0  0  0  0  0
    7.8547  -16.3023   16.9045 C   0  0  0  0  0  0  0  0  0  0  0  0
    7.7600  -15.0387   17.0808 O   0  0  0  0  0  0  0  0  0  0  0  0
    7.6309  -17.1548   18.0212 N   0  0  0  0  0  0  0  0  0  0  0  0
    7.1792  -16.6229   19.2953 C   0  0  1  0  0  0  0  0  0  0  0  0
    5.9505  -17.3393   19.7968 C   0  0  0  0  0  0  0  0  0  0  0  0
    6.3867  -19.0960   19.9839 S   0  0  0  0  0  0  0  0  0  0  0  0
    8.2775  -16.6219   20.2999 C   0  0  0  0  0  0  0  0  0  0  0  0
    9.2417  -17.4164   20.1610 O   0  0  0  0  0  0  0  0  0  0  0  0
    7.9298  -14.5353   23.7139 O   0  0  0  0  0  0  0  0  0  0  0  0
    9.2682  -14.6922   23.3587 C   0  0  0  0  0  0  0  0  0  0  0  0
    9.3531  -15.8335   22.3929 C   0  0  2  0  0  0  0  0  0  0  0  0
    8.2866  -15.7537   21.4225 N   0  0  0  0  0  0  0  0  0  0  0  0
    9.2977  -17.1307   23.1405 C   0  0  0  0  0  0  0  0  0  0  0  0
   10.3142  -17.5259   23.9959 O   0  0  0  0  0  0  0  0  0  0  0  0
    8.3162  -17.9042   23.0100 O   0  0  0  0  0  0  0  0  0  0  0  0
  2  1  1  0
  3  2  1  0
  3  4  1  6
  5  6  2  0
  5  3  1  0
  7  5  1  0
  8  7  1  0
  8  9  1  1
 10  9  1  0
 11  8  1  0
 11 12  2  0
 13 14  1  0
 15 16  1  0
 15 14  1  1
 16 11  1  0
 17 15  1  0
 18 17  1  0
 19 17  2  0
M  END
$$$$
