SCS.pdb
     RDKit          3D

 19 18  0  0  1  0  0  0  0  0999 V2000
    7.2168  -15.8459   20.4329 O   0  0  0  0  0  0  0  0  0  0  0  0
    6.3106  -14.7869   20.5234 C   0  0  0  0  0  0  0  0  0  0  0  0
    7.1107  -13.5396   20.8036 C   0  0  2  0  0  0  0  0  0  0  0  0
    7.8833  -13.1722   19.6583 N   0  0  0  0  0  0  0  0  0  0  0  0
    7.9685  -13.6491   21.9825 C   0  0  0  0  0  0  0  0  0  0  0  0
    9.2403  -13.7647   21.9049 O   0  0  0  0  0  0  0  0  0  0  0  0
    7.3739  -13.6271   23.2747 N   0  0  0  0  0  0  0  0  0  0  0  0
    8.1800  -13.7562   24.4763 C   0  0  1  0  0  0  0  0  0  0  0  0
    7.5650  -13.0263   25.6439 C   0  0  0  0  0  0  0  0  0  0  0  0
    5.8776  -13.6727   25.8585 S   0  0  0  0  0  0  0  0  0  0  0  0
    8.4565  -15.1848   24.7901 C   0  0  0  0  0  0  0  0  0  0  0  0
    7.5504  -16.0399   24.6228 O   0  0  0  0  0  0  0  0  0  0  0  0
   11.4123  -18.7926   24.8339 O   0  0  0  0  0  0  0  0  0  0  0  0
   11.2238  -17.4205   24.6784 C   0  0  0  0  0  0  0  0  0  0  0  0
    9.9753  -17.0452   25.4153 C   0  0  2  0  0  0  0  0  0  0  0  0
    9.7126  -15.6320   25.2758 N   0  0  0  0  0  0  0  0  0  0  0  0
   10.1102  -17.4223   26.8590 C   0  0  0  0  0  0  0  0  0  0  0  0
   10.2085  -18.7444   27.2634 O   0  0  0  0  0  0  0  0  0  0  0  0
   10.1381  -16.5392   27.7522 O   0  0  0  0  0  0  0  0  0  0  0  0
  2  1  1  0
  3  2  1  0
  3  4  1  6
  5  6  2  0
  5  3  1  0
  7  5  1  0
  8  7  1  0
  8  9  1  1
 10  9  1  0
 11  8  1  0
 11 12  2  0
 13 14  1  0
 15 16  1  0
 15 14  1  6
 16 11  1  0
 17 15  1  0
 18 17  1  0
 19 17  2  0
M  END
$$$$
