SCS.pdb
     RDKit          3D

 19 18  0  0  1  0  0  0  0  0999 V2000
    7.5300  -17.7756   20.3782 O   0  0  0  0  0  0  0  0  0  0  0  0
    6.7881  -16.6335   20.0684 C   0  0  0  0  0  0  0  0  0  0  0  0
    7.7304  -15.4580   20.1405 C   0  0  2  0  0  0  0  0  0  0  0  0
    8.7235  -15.5487   19.1162 N   0  0  0  0  0  0  0  0  0  0  0  0
    8.3620  -15.2958   21.4490 C   0  0  0  0  0  0  0  0  0  0  0  0
    9.5800  -15.6163   21.6743 O   0  0  0  0  0  0  0  0  0  0  0  0
    7.5989  -14.7599   22.5234 N   0  0  0  0  0  0  0  0  0  0  0  0
    8.1665  -14.6206   23.8534 C   0  0  1  0  0  0  0  0  0  0  0  0
    7.2857  -13.7910   24.7536 C   0  0  0  0  0  0  0  0  0  0  0  0
    8.1994  -13.5188   26.3036 S   0  0  0  0  0  0  0  0  0  0  0  0
    8.4836  -15.9483   24.4469 C   0  0  0  0  0  0  0  0  0  0  0  0
    7.6014  -16.8437   24.4630 O   0  0  0  0  0  0  0  0  0  0  0  0
   12.1856  -17.2958   24.8153 O   0  0  0  0  0  0  0  0  0  0  0  0
   11.1499  -18.2236   24.9081 C   0  0  0  0  0  0  0  0  0  0  0  0
    9.9957  -17.5526   25.5865 C   0  0  2  0  0  0  0  0  0  0  0  0
    9.7529  -16.2541   25.0029 N   0  0  0  0  0  0  0  0  0  0  0  0
   10.2740  -17.4339   27.0539 C   0  0  0  0  0  0  0  0  0  0  0  0
   10.5146  -18.5463   27.8450 O   0  0  0  0  0  0  0  0  0  0  0  0
   10.2970  -16.3089   27.6130 O   0  0  0  0  0  0  0  0  0  0  0  0
  2  1  1  0
  3  2  1  0
  3  4  1  6
  5  6  2  0
  5  3  1  0
  7  5  1  0
  8  7  1  0
  8  9  1  1
 10  9  1  0
 11  8  1  0
 11 12  2  0
 13 14  1  0
 15 16  1  0
 15 14  1  6
 16 11  1  0
 17 15  1  0
 18 17  1  0
 19 17  2  0
M  END
$$$$
