SCS.pdb
     RDKit          3D

 19 18  0  0  1  0  0  0  0  0999 V2000
    7.7115  -15.4057   18.9365 O   0  0  0  0  0  0  0  0  0  0  0  0
    6.7546  -14.4077   19.1341 C   0  0  0  0  0  0  0  0  0  0  0  0
    7.4612  -13.2320   19.7612 C   0  0  2  0  0  0  0  0  0  0  0  0
    8.4335  -12.6941   18.8620 N   0  0  0  0  0  0  0  0  0  0  0  0
    8.0765  -13.5411   21.0510 C   0  0  0  0  0  0  0  0  0  0  0  0
    9.3172  -13.8275   21.1750 O   0  0  0  0  0  0  0  0  0  0  0  0
    7.2704  -13.5255   22.2231 N   0  0  0  0  0  0  0  0  0  0  0  0
    7.8317  -13.8356   23.5265 C   0  0  1  0  0  0  0  0  0  0  0  0
    6.9228  -13.3954   24.6465 C   0  0  0  0  0  0  0  0  0  0  0  0
    7.7664  -13.7815   26.2119 S   0  0  0  0  0  0  0  0  0  0  0  0
    8.1928  -15.2760   23.6300 C   0  0  0  0  0  0  0  0  0  0  0  0
    7.3452  -16.1490   23.3140 O   0  0  0  0  0  0  0  0  0  0  0  0
   11.9098  -16.5624   23.4245 O   0  0  0  0  0  0  0  0  0  0  0  0
   10.8796  -17.4776   23.2164 C   0  0  0  0  0  0  0  0  0  0  0  0
    9.7623  -17.1268   24.1497 C   0  0  2  0  0  0  0  0  0  0  0  0
    9.4667  -15.7152   24.0749 N   0  0  0  0  0  0  0  0  0  0  0  0
   10.1313  -17.5209   25.5473 C   0  0  0  0  0  0  0  0  0  0  0  0
   10.1038  -16.6132   26.5945 O   0  0  0  0  0  0  0  0  0  0  0  0
   10.4797  -18.6991   25.8102 O   0  0  0  0  0  0  0  0  0  0  0  0
  2  1  1  0
  3  2  1  0
  3  4  1  6
  5  6  2  0
  5  3  1  0
  7  5  1  0
  8  7  1  0
  8  9  1  1
 10  9  1  0
 11  8  1  0
 11 12  2  0
 13 14  1  0
 15 16  1  0
 15 14  1  6
 16 11  1  0
 17 15  1  0
 18 17  1  0
 19 17  2  0
M  END
$$$$
