SCS.pdb
     RDKit          3D

 19 18  0  0  1  0  0  0  0  0999 V2000
    7.4312  -15.5738   19.8321 O   0  0  0  0  0  0  0  0  0  0  0  0
    6.4106  -14.6511   20.0726 C   0  0  0  0  0  0  0  0  0  0  0  0
    7.0649  -13.3780   20.5477 C   0  0  2  0  0  0  0  0  0  0  0  0
    7.7498  -12.7346   19.4705 N   0  0  0  0  0  0  0  0  0  0  0  0
    7.9681  -13.5736   21.6807 C   0  0  0  0  0  0  0  0  0  0  0  0
    9.2396  -13.6297   21.5506 O   0  0  0  0  0  0  0  0  0  0  0  0
    7.4200  -13.7084   22.9866 N   0  0  0  0  0  0  0  0  0  0  0  0
    8.2723  -13.9385   24.1402 C   0  0  1  0  0  0  0  0  0  0  0  0
    7.6424  -13.4285   25.4120 C   0  0  0  0  0  0  0  0  0  0  0  0
    5.9330  -14.0508   25.4569 S   0  0  0  0  0  0  0  0  0  0  0  0
    8.6658  -15.3703   24.2438 C   0  0  0  0  0  0  0  0  0  0  0  0
    7.8356  -16.2624   23.9351 O   0  0  0  0  0  0  0  0  0  0  0  0
   12.4378  -16.5615   24.2566 O   0  0  0  0  0  0  0  0  0  0  0  0
   11.4723  -17.5374   24.0162 C   0  0  0  0  0  0  0  0  0  0  0  0
   10.2580  -17.1851   24.8187 C   0  0  2  0  0  0  0  0  0  0  0  0
    9.9521  -15.7804   24.6808 N   0  0  0  0  0  0  0  0  0  0  0  0
   10.4832  -17.5430   26.2560 C   0  0  0  0  0  0  0  0  0  0  0  0
   10.8223  -18.8294   26.6449 O   0  0  0  0  0  0  0  0  0  0  0  0
   10.3691  -16.6757   27.1579 O   0  0  0  0  0  0  0  0  0  0  0  0
  2  1  1  0
  3  2  1  0
  3  4  1  6
  5  6  2  0
  5  3  1  0
  7  5  1  0
  8  7  1  0
  8  9  1  1
 10  9  1  0
 11  8  1  0
 11 12  2  0
 13 14  1  0
 15 16  1  0
 15 14  1  6
 16 11  1  0
 17 15  1  0
 18 17  1  0
 19 17  2  0
M  END
$$$$
