SCS.pdb
     RDKit          3D

 19 18  0  0  1  0  0  0  0  0999 V2000
    7.2977  -15.3847   19.8521 O   0  0  0  0  0  0  0  0  0  0  0  0
    6.4335  -14.3025   20.0334 C   0  0  0  0  0  0  0  0  0  0  0  0
    7.2542  -13.1666   20.5910 C   0  0  2  0  0  0  0  0  0  0  0  0
    8.2258  -12.7346   19.6357 N   0  0  0  0  0  0  0  0  0  0  0  0
    7.8982  -13.4825   21.8650 C   0  0  0  0  0  0  0  0  0  0  0  0
    9.1521  -13.7151   21.9678 O   0  0  0  0  0  0  0  0  0  0  0  0
    7.1063  -13.5360   23.0456 N   0  0  0  0  0  0  0  0  0  0  0  0
    7.6799  -13.9358   24.3189 C   0  0  1  0  0  0  0  0  0  0  0  0
    6.7399  -13.6635   25.4663 C   0  0  0  0  0  0  0  0  0  0  0  0
    6.7641  -11.8698   25.7720 S   0  0  0  0  0  0  0  0  0  0  0  0
    8.1301  -15.3542   24.2868 C   0  0  0  0  0  0  0  0  0  0  0  0
    7.3462  -16.2410   23.8631 O   0  0  0  0  0  0  0  0  0  0  0  0
   11.9052  -16.3672   23.8916 O   0  0  0  0  0  0  0  0  0  0  0  0
   10.9079  -17.2934   23.5922 C   0  0  0  0  0  0  0  0  0  0  0  0
    9.8221  -17.1403   24.6121 C   0  0  2  0  0  0  0  0  0  0  0  0
    9.4206  -15.7572   24.7180 N   0  0  0  0  0  0  0  0  0  0  0  0
   10.2968  -17.6603   25.9346 C   0  0  0  0  0  0  0  0  0  0  0  0
   10.3205  -16.8631   27.0682 O   0  0  0  0  0  0  0  0  0  0  0  0
   10.6909  -18.8476   26.0524 O   0  0  0  0  0  0  0  0  0  0  0  0
  2  1  1  0
  3  2  1  0
  3  4  1  6
  5  6  2  0
  5  3  1  0
  7  5  1  0
  8  7  1  0
  8  9  1  1
 10  9  1  0
 11  8  1  0
 11 12  2  0
 13 14  1  0
 15 16  1  0
 15 14  1  6
 16 11  1  0
 17 15  1  0
 18 17  1  0
 19 17  2  0
M  END
$$$$
