SCS.pdb
     RDKit          3D

 19 18  0  0  1  0  0  0  0  0999 V2000
    9.3610  -19.3973   18.6437 O   0  0  0  0  0  0  0  0  0  0  0  0
    8.0484  -18.9795   18.4130 C   0  0  0  0  0  0  0  0  0  0  0  0
    8.1004  -17.5070   18.0908 C   0  0  2  0  0  0  0  0  0  0  0  0
    8.8086  -17.2864   16.8688 N   0  0  0  0  0  0  0  0  0  0  0  0
    8.6713  -16.6946   19.1639 C   0  0  0  0  0  0  0  0  0  0  0  0
    9.8467  -16.1934   19.1021 O   0  0  0  0  0  0  0  0  0  0  0  0
    7.8953  -16.4453   20.3300 N   0  0  0  0  0  0  0  0  0  0  0  0
    8.4349  -15.6858   21.4446 C   0  0  1  0  0  0  0  0  0  0  0  0
    7.3492  -14.9844   22.2216 C   0  0  0  0  0  0  0  0  0  0  0  0
    8.1564  -14.0573   23.5633 S   0  0  0  0  0  0  0  0  0  0  0  0
    9.2875  -16.5389   22.3168 C   0  0  0  0  0  0  0  0  0  0  0  0
    8.9253  -17.7150   22.5739 O   0  0  0  0  0  0  0  0  0  0  0  0
   13.1491  -16.4887   22.3437 O   0  0  0  0  0  0  0  0  0  0  0  0
   12.7419  -16.5382   23.6756 C   0  0  0  0  0  0  0  0  0  0  0  0
   11.3056  -16.9614   23.6981 C   0  0  2  0  0  0  0  0  0  0  0  0
   10.5069  -16.0799   22.8792 N   0  0  0  0  0  0  0  0  0  0  0  0
   10.8067  -16.9744   25.1108 C   0  0  0  0  0  0  0  0  0  0  0  0
   11.3729  -17.7889   26.0789 O   0  0  0  0  0  0  0  0  0  0  0  0
    9.8501  -16.2382   25.4595 O   0  0  0  0  0  0  0  0  0  0  0  0
  2  1  1  0
  3  2  1  0
  3  4  1  6
  5  6  2  0
  5  3  1  0
  7  5  1  0
  8  7  1  0
  8  9  1  1
 10  9  1  0
 11  8  1  0
 11 12  2  0
 13 14  1  0
 15 16  1  0
 15 14  1  1
 16 11  1  0
 17 15  1  0
 18 17  1  0
 19 17  2  0
M  END
$$$$
