SCS.pdb
     RDKit          3D

 19 18  0  0  1  0  0  0  0  0999 V2000
    6.7880  -16.8042   21.2929 O   0  0  0  0  0  0  0  0  0  0  0  0
    6.1748  -15.5912   20.9717 C   0  0  0  0  0  0  0  0  0  0  0  0
    7.2344  -14.5212   21.0556 C   0  0  2  0  0  0  0  0  0  0  0  0
    8.0659  -14.5475   19.8931 N   0  0  0  0  0  0  0  0  0  0  0  0
    8.0497  -14.6009   22.2666 C   0  0  0  0  0  0  0  0  0  0  0  0
    9.2515  -15.0396   22.2643 O   0  0  0  0  0  0  0  0  0  0  0  0
    7.4925  -14.1754   23.5045 N   0  0  0  0  0  0  0  0  0  0  0  0
    8.2580  -14.2437   24.7372 C   0  0  1  0  0  0  0  0  0  0  0  0
    7.5996  -13.4655   25.8486 C   0  0  0  0  0  0  0  0  0  0  0  0
    5.9270  -14.1473   26.0698 S   0  0  0  0  0  0  0  0  0  0  0  0
    8.5315  -15.6544   25.1255 C   0  0  0  0  0  0  0  0  0  0  0  0
    7.7176  -16.5540   24.7961 O   0  0  0  0  0  0  0  0  0  0  0  0
   11.0969  -19.3384   25.4567 O   0  0  0  0  0  0  0  0  0  0  0  0
   10.9623  -17.9760   25.1958 C   0  0  0  0  0  0  0  0  0  0  0  0
    9.9373  -17.4296   26.1410 C   0  0  2  0  0  0  0  0  0  0  0  0
    9.6841  -16.0359   25.8602 N   0  0  0  0  0  0  0  0  0  0  0  0
   10.4057  -17.6125   27.5524 C   0  0  0  0  0  0  0  0  0  0  0  0
   10.6349  -18.8694   28.0898 O   0  0  0  0  0  0  0  0  0  0  0  0
   10.6057  -16.6190   28.2951 O   0  0  0  0  0  0  0  0  0  0  0  0
  2  1  1  0
  3  2  1  0
  3  4  1  6
  5  6  2  0
  5  3  1  0
  7  5  1  0
  8  7  1  0
  8  9  1  1
 10  9  1  0
 11  8  1  0
 11 12  2  0
 13 14  1  0
 15 16  1  0
 15 14  1  6
 16 11  1  0
 17 15  1  0
 18 17  1  0
 19 17  2  0
M  END
$$$$
