VAN.pdb
     RDKit          3D

 21 20  0  0  1  0  0  0  0  0999 V2000
   15.3047  -12.9163  -16.8001 C   0  0  0  0  0  0  0  0  0  0  0  0
   16.0629  -11.7094  -16.3564 C   0  0  2  0  0  0  0  0  0  0  0  0
   16.4902  -10.9080  -17.5417 C   0  0  0  0  0  0  0  0  0  0  0  0
   17.2785  -12.0743  -15.4969 C   0  0  2  0  0  0  0  0  0  0  0  0
   16.8352  -12.8298  -14.3399 N   0  0  0  0  0  0  0  0  0  0  0  0
   18.0032  -10.8510  -15.1222 C   0  0  0  0  0  0  0  0  0  0  0  0
   17.4043   -9.9832  -14.4361 O   0  0  0  0  0  0  0  0  0  0  0  0
   21.4984   -9.3969  -15.2765 C   0  0  0  0  0  0  0  0  0  0  0  0
   19.9994   -9.3162  -15.1302 C   0  0  2  0  0  0  0  0  0  0  0  0
   19.3472  -10.5578  -15.4742 N   0  0  0  0  0  0  0  0  0  0  0  0
   19.4825   -8.1679  -15.9090 C   0  0  0  0  0  0  0  0  0  0  0  0
   19.1031   -8.2682  -17.1203 O   0  0  0  0  0  0  0  0  0  0  0  0
   16.6352   -3.1603  -15.8054 N   0  0  0  0  0  0  0  0  0  0  0  0
   18.0520   -3.4047  -15.5914 C   0  0  0  0  0  0  0  0  0  0  0  0
   18.7840   -2.4715  -15.9933 O   0  0  0  0  0  0  0  0  0  0  0  0
   18.5023   -4.6571  -14.9553 C   0  0  0  0  0  0  0  0  0  0  0  0
   18.9385   -5.6930  -15.9228 C   0  0  2  0  0  0  0  0  0  0  0  0
   19.4046   -6.9075  -15.2890 N   0  0  0  0  0  0  0  0  0  0  0  0
   20.0120   -5.1740  -16.7872 C   0  0  0  0  0  0  0  0  0  0  0  0
   19.8936   -4.3928  -17.7507 O   0  0  0  0  0  0  0  0  0  0  0  0
   21.3306   -5.6069  -16.4972 O   0  0  0  0  0  0  0  0  0  0  0  0
  2  4  1  0
  2  1  1  6
  3  2  1  0
  4  6  1  0
  4  5  1  1
  6  7  2  0
  9  8  1  6
  9 11  1  0
 10  9  1  0
 10  6  1  0
 11 12  2  0
 11 18  1  0
 13 14  1  0
 14 16  1  0
 14 15  2  0
 17 16  1  1
 17 19  1  0
 18 17  1  0
 19 20  2  0
 19 21  1  0
M  END
$$$$
