VAN.pdb
     RDKit          3D

 21 20  0  0  1  0  0  0  0  0999 V2000
   17.9302  -14.4211  -17.5555 C   0  0  0  0  0  0  0  0  0  0  0  0
   18.9955  -13.4084  -17.2948 C   0  0  2  0  0  0  0  0  0  0  0  0
   20.3069  -14.0884  -17.0767 C   0  0  0  0  0  0  0  0  0  0  0  0
   18.6587  -12.5100  -16.0992 C   0  0  2  0  0  0  0  0  0  0  0  0
   17.2605  -12.6831  -15.7515 N   0  0  0  0  0  0  0  0  0  0  0  0
   18.9860  -11.1137  -16.4235 C   0  0  0  0  0  0  0  0  0  0  0  0
   20.1921  -10.8043  -16.6020 O   0  0  0  0  0  0  0  0  0  0  0  0
   17.2723   -7.8963  -17.4102 C   0  0  0  0  0  0  0  0  0  0  0  0
   18.4140   -8.6962  -16.8345 C   0  0  2  0  0  0  0  0  0  0  0  0
   18.0402  -10.0628  -16.5553 N   0  0  0  0  0  0  0  0  0  0  0  0
   18.9609   -8.0025  -15.6462 C   0  0  0  0  0  0  0  0  0  0  0  0
   18.6272   -8.3037  -14.4548 O   0  0  0  0  0  0  0  0  0  0  0  0
   22.5037   -5.1403  -12.6849 N   0  0  0  0  0  0  0  0  0  0  0  0
   22.2620   -4.6565  -14.0342 C   0  0  0  0  0  0  0  0  0  0  0  0
   22.5256   -3.4411  -14.1813 O   0  0  0  0  0  0  0  0  0  0  0  0
   21.7546   -5.5730  -15.0726 C   0  0  0  0  0  0  0  0  0  0  0  0
   20.3953   -6.0958  -14.7928 C   0  0  2  0  0  0  0  0  0  0  0  0
   19.8906   -6.9637  -15.8349 N   0  0  0  0  0  0  0  0  0  0  0  0
   19.4437   -4.9877  -14.6044 C   0  0  0  0  0  0  0  0  0  0  0  0
   18.7308   -4.4495  -15.4732 O   0  0  0  0  0  0  0  0  0  0  0  0
   19.3189   -4.4698  -13.2905 O   0  0  0  0  0  0  0  0  0  0  0  0
  2  4  1  0
  2  1  1  1
  3  2  1  0
  4  6  1  0
  4  5  1  6
  6  7  2  0
  9  8  1  1
  9 11  1  0
 10  9  1  0
 10  6  1  0
 11 12  2  0
 11 18  1  0
 13 14  1  0
 14 16  1  0
 14 15  2  0
 17 16  1  6
 17 19  1  0
 18 17  1  0
 19 20  2  0
 19 21  1  0
M  END
$$$$
