VAN.pdb
     RDKit          3D

 21 20  0  0  1  0  0  0  0  0999 V2000
   27.3269  -14.4671  -17.6911 C   0  0  0  0  0  0  0  0  0  0  0  0
   26.6974  -14.5833  -16.3424 C   0  0  2  0  0  0  0  0  0  0  0  0
   27.0493  -15.8959  -15.7238 C   0  0  0  0  0  0  0  0  0  0  0  0
   25.1748  -14.4149  -16.3989 C   0  0  2  0  0  0  0  0  0  0  0  0
   24.6083  -15.4702  -17.2182 N   0  0  0  0  0  0  0  0  0  0  0  0
   24.8449  -13.0747  -16.9060 C   0  0  0  0  0  0  0  0  0  0  0  0
   25.1327  -12.0758  -16.1977 O   0  0  0  0  0  0  0  0  0  0  0  0
   23.4577  -11.4280  -20.0329 C   0  0  0  0  0  0  0  0  0  0  0  0
   23.8577  -11.4730  -18.5794 C   0  0  2  0  0  0  0  0  0  0  0  0
   24.2172  -12.8043  -18.1506 N   0  0  0  0  0  0  0  0  0  0  0  0
   22.7869  -10.8779  -17.7478 C   0  0  0  0  0  0  0  0  0  0  0  0
   21.7607  -11.5305  -17.3704 O   0  0  0  0  0  0  0  0  0  0  0  0
   20.0740   -7.4652  -14.9430 N   0  0  0  0  0  0  0  0  0  0  0  0
   21.3630   -7.8199  -14.3724 C   0  0  0  0  0  0  0  0  0  0  0  0
   21.5109   -7.4242  -13.1936 O   0  0  0  0  0  0  0  0  0  0  0  0
   22.3470   -8.5746  -15.1713 C   0  0  0  0  0  0  0  0  0  0  0  0
   21.9245   -8.8041  -16.5742 C   0  0  2  0  0  0  0  0  0  0  0  0
   22.9022   -9.5323  -17.3540 N   0  0  0  0  0  0  0  0  0  0  0  0
   21.6482   -7.5237  -17.2472 C   0  0  0  0  0  0  0  0  0  0  0  0
   20.8457   -6.6405  -16.8884 O   0  0  0  0  0  0  0  0  0  0  0  0
   22.3722   -7.2586  -18.4370 O   0  0  0  0  0  0  0  0  0  0  0  0
  2  4  1  0
  2  1  1  6
  3  2  1  0
  4  6  1  0
  4  5  1  6
  6  7  2  0
  9  8  1  6
  9 11  1  0
 10  9  1  0
 10  6  1  0
 11 12  2  0
 11 18  1  0
 13 14  1  0
 14 16  1  0
 14 15  2  0
 17 16  1  1
 17 19  1  0
 18 17  1  0
 19 20  2  0
 19 21  1  0
M  END
$$$$
