VAN.pdb
     RDKit          3D

 21 20  0  0  1  0  0  0  0  0999 V2000
   13.8346  -13.4312  -11.0793 C   0  0  0  0  0  0  0  0  0  0  0  0
   12.8007  -12.4434  -11.5079 C   0  0  2  0  0  0  0  0  0  0  0  0
   11.7683  -13.1155  -12.3519 C   0  0  0  0  0  0  0  0  0  0  0  0
   13.4122  -11.2573  -12.2622 C   0  0  2  0  0  0  0  0  0  0  0  0
   14.1853  -11.7537  -13.3854 N   0  0  0  0  0  0  0  0  0  0  0  0
   14.2225  -10.4498  -11.3385 C   0  0  0  0  0  0  0  0  0  0  0  0
   13.6846  -10.0178  -10.2866 O   0  0  0  0  0  0  0  0  0  0  0  0
   17.7598   -9.0780  -11.0536 C   0  0  0  0  0  0  0  0  0  0  0  0
   16.3197   -9.2449  -10.6380 C   0  0  2  0  0  0  0  0  0  0  0  0
   15.5868  -10.1083  -11.5340 N   0  0  0  0  0  0  0  0  0  0  0  0
   15.6864   -7.9153  -10.4852 C   0  0  0  0  0  0  0  0  0  0  0  0
   15.1253   -7.3014  -11.4494 O   0  0  0  0  0  0  0  0  0  0  0  0
   14.1966   -3.4419   -8.2514 N   0  0  0  0  0  0  0  0  0  0  0  0
   14.6158   -4.3261   -7.1765 C   0  0  0  0  0  0  0  0  0  0  0  0
   14.4598   -3.8318   -6.0365 O   0  0  0  0  0  0  0  0  0  0  0  0
   15.1622   -5.6615   -7.4830 C   0  0  0  0  0  0  0  0  0  0  0  0
   15.1879   -5.9760   -8.9321 C   0  0  2  0  0  0  0  0  0  0  0  0
   15.7020   -7.2974   -9.2214 N   0  0  0  0  0  0  0  0  0  0  0  0
   15.9999   -4.9874   -9.6615 C   0  0  0  0  0  0  0  0  0  0  0  0
   15.6051   -3.9323  -10.1943 O   0  0  0  0  0  0  0  0  0  0  0  0
   17.3867   -5.2591   -9.7748 O   0  0  0  0  0  0  0  0  0  0  0  0
  2  4  1  0
  2  1  1  6
  3  2  1  0
  4  6  1  0
  4  5  1  6
  6  7  2  0
  9  8  1  6
  9 11  1  0
 10  9  1  0
 10  6  1  0
 11 12  2  0
 11 18  1  0
 13 14  1  0
 14 16  1  0
 14 15  2  0
 17 16  1  1
 17 19  1  0
 18 17  1  0
 19 20  2  0
 19 21  1  0
M  END
$$$$
