VAN.pdb
     RDKit          3D

 21 20  0  0  1  0  0  0  0  0999 V2000
   14.6893  -11.9263  -16.1102 C   0  0  0  0  0  0  0  0  0  0  0  0
   16.0993  -11.7250  -15.6631 C   0  0  2  0  0  0  0  0  0  0  0  0
   16.7192  -13.0381  -15.3153 C   0  0  0  0  0  0  0  0  0  0  0  0
   16.1968  -10.7612  -14.4750 C   0  0  2  0  0  0  0  0  0  0  0  0
   15.6616  -11.4077  -13.2912 N   0  0  0  0  0  0  0  0  0  0  0  0
   15.4941   -9.5101  -14.7954 C   0  0  0  0  0  0  0  0  0  0  0  0
   15.9551   -8.7780  -15.7086 O   0  0  0  0  0  0  0  0  0  0  0  0
   12.2347   -7.7566  -14.2751 C   0  0  0  0  0  0  0  0  0  0  0  0
   13.7373   -7.7488  -14.4056 C   0  0  2  0  0  0  0  0  0  0  0  0
   14.3166   -9.0468  -14.1511 N   0  0  0  0  0  0  0  0  0  0  0  0
   14.3085   -6.6919  -13.5402 C   0  0  0  0  0  0  0  0  0  0  0  0
   13.9231   -5.4790  -13.5834 O   0  0  0  0  0  0  0  0  0  0  0  0
   17.3309   -4.4289   -9.9367 N   0  0  0  0  0  0  0  0  0  0  0  0
   17.0316   -5.7865   -9.5120 C   0  0  0  0  0  0  0  0  0  0  0  0
   17.4014   -6.0343   -8.3415 O   0  0  0  0  0  0  0  0  0  0  0  0
   16.3553   -6.7208  -10.4316 C   0  0  0  0  0  0  0  0  0  0  0  0
   15.9898   -6.1140  -11.7345 C   0  0  2  0  0  0  0  0  0  0  0  0
   15.3223   -7.0363  -12.6277 N   0  0  0  0  0  0  0  0  0  0  0  0
   17.1859   -5.5873  -12.4134 C   0  0  0  0  0  0  0  0  0  0  0  0
   17.7071   -6.0130  -13.4621 O   0  0  0  0  0  0  0  0  0  0  0  0
   17.8213   -4.4712  -11.8128 O   0  0  0  0  0  0  0  0  0  0  0  0
  2  4  1  0
  2  1  1  1
  3  2  1  0
  4  6  1  0
  4  5  1  1
  6  7  2  0
  9  8  1  1
  9 11  1  0
 10  9  1  0
 10  6  1  0
 11 12  2  0
 11 18  1  0
 13 14  1  0
 14 16  1  0
 14 15  2  0
 17 16  1  1
 17 19  1  0
 18 17  1  0
 19 20  2  0
 19 21  1  0
M  END
$$$$
