VAN.pdb
     RDKit          3D

 21 20  0  0  1  0  0  0  0  0999 V2000
   25.1331  -10.4370  -17.2155 C   0  0  0  0  0  0  0  0  0  0  0  0
   24.8031  -11.2671  -16.0194 C   0  0  2  0  0  0  0  0  0  0  0  0
   26.0482  -11.8616  -15.4487 C   0  0  0  0  0  0  0  0  0  0  0  0
   23.7891  -12.3701  -16.3435 C   0  0  2  0  0  0  0  0  0  0  0  0
   24.3902  -13.3142  -17.2671 N   0  0  0  0  0  0  0  0  0  0  0  0
   22.5595  -11.7681  -16.8799 C   0  0  0  0  0  0  0  0  0  0  0  0
   22.5110  -11.4899  -18.1057 O   0  0  0  0  0  0  0  0  0  0  0  0
   18.9502  -11.5396  -16.2390 C   0  0  0  0  0  0  0  0  0  0  0  0
   20.2189  -10.8594  -16.6889 C   0  0  2  0  0  0  0  0  0  0  0  0
   21.3986  -11.4674  -16.1196 N   0  0  0  0  0  0  0  0  0  0  0  0
   20.1349   -9.4083  -16.4069 C   0  0  0  0  0  0  0  0  0  0  0  0
   19.1445   -8.6909  -16.7615 O   0  0  0  0  0  0  0  0  0  0  0  0
   21.5313   -4.6765  -14.6923 N   0  0  0  0  0  0  0  0  0  0  0  0
   22.0119   -5.6792  -13.7561 C   0  0  0  0  0  0  0  0  0  0  0  0
   22.5341   -5.1903  -12.7283 O   0  0  0  0  0  0  0  0  0  0  0  0
   21.8610   -7.1144  -14.0619 C   0  0  0  0  0  0  0  0  0  0  0  0
   21.2675   -7.3799  -15.3948 C   0  0  2  0  0  0  0  0  0  0  0  0
   21.1930   -8.7887  -15.7172 N   0  0  0  0  0  0  0  0  0  0  0  0
   22.0377   -6.6983  -16.4489 C   0  0  0  0  0  0  0  0  0  0  0  0
   22.6898   -7.2280  -17.3692 O   0  0  0  0  0  0  0  0  0  0  0  0
   22.0428   -5.2808  -16.4205 O   0  0  0  0  0  0  0  0  0  0  0  0
  2  4  1  0
  2  1  1  6
  3  2  1  0
  4  6  1  0
  4  5  1  6
  6  7  2  0
  9  8  1  1
  9 11  1  0
 10  9  1  0
 10  6  1  0
 11 12  2  0
 11 18  1  0
 13 14  1  0
 14 16  1  0
 14 15  2  0
 17 16  1  1
 17 19  1  0
 18 17  1  0
 19 20  2  0
 19 21  1  0
M  END
$$$$
