VAN.pdb
     RDKit          3D

 21 20  0  0  1  0  0  0  0  0999 V2000
   17.5589  -13.8184  -17.4867 C   0  0  0  0  0  0  0  0  0  0  0  0
   18.4940  -12.7043  -17.1507 C   0  0  2  0  0  0  0  0  0  0  0  0
   17.7983  -11.3907  -17.2927 C   0  0  0  0  0  0  0  0  0  0  0  0
   19.7589  -12.7306  -18.0163 C   0  0  2  0  0  0  0  0  0  0  0  0
   20.4896  -13.9571  -17.7559 N   0  0  0  0  0  0  0  0  0  0  0  0
   20.5656  -11.5310  -17.7480 C   0  0  0  0  0  0  0  0  0  0  0  0
   21.1186  -11.4168  -16.6239 O   0  0  0  0  0  0  0  0  0  0  0  0
   21.7819   -8.4157  -19.5570 C   0  0  0  0  0  0  0  0  0  0  0  0
   21.5953   -9.3166  -18.3619 C   0  0  2  0  0  0  0  0  0  0  0  0
   20.7793  -10.4686  -18.6656 N   0  0  0  0  0  0  0  0  0  0  0  0
   21.0689   -8.5319  -17.2220 C   0  0  0  0  0  0  0  0  0  0  0  0
   19.8243   -8.4103  -16.9818 O   0  0  0  0  0  0  0  0  0  0  0  0
   20.8835   -5.5418  -12.9921 N   0  0  0  0  0  0  0  0  0  0  0  0
   21.1392   -6.9610  -12.8094 C   0  0  0  0  0  0  0  0  0  0  0  0
   21.0084   -7.3413  -11.6235 O   0  0  0  0  0  0  0  0  0  0  0  0
   21.5119   -7.8033  -13.9616 C   0  0  0  0  0  0  0  0  0  0  0  0
   21.6168   -7.0545  -15.2374 C   0  0  2  0  0  0  0  0  0  0  0  0
   21.9787   -7.8896  -16.3625 N   0  0  0  0  0  0  0  0  0  0  0  0
   22.6070   -5.9706  -15.1209 C   0  0  0  0  0  0  0  0  0  0  0  0
   23.7435   -5.9290  -15.6303 O   0  0  0  0  0  0  0  0  0  0  0  0
   22.2330   -4.8451  -14.3441 O   0  0  0  0  0  0  0  0  0  0  0  0
  2  4  1  0
  2  1  1  6
  3  2  1  0
  4  6  1  0
  4  5  1  1
  6  7  2  0
  9  8  1  6
  9 11  1  0
 10  9  1  0
 10  6  1  0
 11 12  2  0
 11 18  1  0
 13 14  1  0
 14 16  1  0
 14 15  2  0
 17 16  1  1
 17 19  1  0
 18 17  1  0
 19 20  2  0
 19 21  1  0
M  END
$$$$
