VAN.pdb
     RDKit          3D

 21 20  0  0  1  0  0  0  0  0999 V2000
   19.7629  -15.0654  -19.9618 C   0  0  0  0  0  0  0  0  0  0  0  0
   19.9977  -13.9529  -18.9944 C   0  0  2  0  0  0  0  0  0  0  0  0
   20.5011  -12.7454  -19.7143 C   0  0  0  0  0  0  0  0  0  0  0  0
   20.9730  -14.3515  -17.8810 C   0  0  2  0  0  0  0  0  0  0  0  0
   20.4928  -15.5596  -17.2362 N   0  0  0  0  0  0  0  0  0  0  0  0
   21.1256  -13.2356  -16.9358 C   0  0  0  0  0  0  0  0  0  0  0  0
   20.0997  -12.7903  -16.3599 O   0  0  0  0  0  0  0  0  0  0  0  0
   23.8862  -11.2164  -15.2892 C   0  0  0  0  0  0  0  0  0  0  0  0
   22.4566  -11.5183  -15.6630 C   0  0  2  0  0  0  0  0  0  0  0  0
   22.3549  -12.6040  -16.6097 N   0  0  0  0  0  0  0  0  0  0  0  0
   21.7937  -10.2836  -16.1408 C   0  0  0  0  0  0  0  0  0  0  0  0
   21.8342   -9.9022  -17.3550 O   0  0  0  0  0  0  0  0  0  0  0  0
   17.6725   -6.5276  -16.2649 N   0  0  0  0  0  0  0  0  0  0  0  0
   18.4692   -6.7894  -15.0776 C   0  0  0  0  0  0  0  0  0  0  0  0
   18.5449   -5.8082  -14.3032 O   0  0  0  0  0  0  0  0  0  0  0  0
   19.0949   -8.1103  -14.8789 C   0  0  0  0  0  0  0  0  0  0  0  0
   20.4236   -8.2430  -15.5243 C   0  0  2  0  0  0  0  0  0  0  0  0
   21.0862   -9.4923  -15.2176 N   0  0  0  0  0  0  0  0  0  0  0  0
   21.3061   -7.1341  -15.1239 C   0  0  0  0  0  0  0  0  0  0  0  0
   22.2402   -7.1730  -14.3000 O   0  0  0  0  0  0  0  0  0  0  0  0
   21.0734   -5.8786  -15.7400 O   0  0  0  0  0  0  0  0  0  0  0  0
  2  4  1  0
  2  1  1  6
  3  2  1  0
  4  6  1  0
  4  5  1  1
  6  7  2  0
  9  8  1  6
  9 11  1  0
 10  9  1  0
 10  6  1  0
 11 12  2  0
 11 18  1  0
 13 14  1  0
 14 16  1  0
 14 15  2  0
 17 16  1  1
 17 19  1  0
 18 17  1  0
 19 20  2  0
 19 21  1  0
M  END
$$$$
