VAN.pdb
     RDKit          3D

 21 20  0  0  1  0  0  0  0  0999 V2000
   14.6207  -13.6855  -17.2586 C   0  0  0  0  0  0  0  0  0  0  0  0
   15.8993  -14.3660  -16.8971 C   0  0  2  0  0  0  0  0  0  0  0  0
   15.6721  -15.8334  -16.7392 C   0  0  0  0  0  0  0  0  0  0  0  0
   16.5224  -13.7858  -15.6224 C   0  0  2  0  0  0  0  0  0  0  0  0
   15.7319  -14.1946  -14.4762 N   0  0  0  0  0  0  0  0  0  0  0  0
   16.6198  -12.3235  -15.7421 C   0  0  0  0  0  0  0  0  0  0  0  0
   17.4296  -11.8407  -16.5748 O   0  0  0  0  0  0  0  0  0  0  0  0
   14.9254   -9.1892  -14.4465 C   0  0  0  0  0  0  0  0  0  0  0  0
   16.0602   -9.9620  -15.0709 C   0  0  2  0  0  0  0  0  0  0  0  0
   15.8640  -11.3901  -14.9846 N   0  0  0  0  0  0  0  0  0  0  0  0
   17.3458   -9.5281  -14.4783 C   0  0  0  0  0  0  0  0  0  0  0  0
   17.9883  -10.2284  -13.6308 O   0  0  0  0  0  0  0  0  0  0  0  0
   21.8057   -7.0589  -13.7410 N   0  0  0  0  0  0  0  0  0  0  0  0
   21.6456   -8.1962  -14.6319 C   0  0  0  0  0  0  0  0  0  0  0  0
   22.7323   -8.6597  -15.0469 O   0  0  0  0  0  0  0  0  0  0  0  0
   20.2980   -8.6952  -14.9653 C   0  0  0  0  0  0  0  0  0  0  0  0
   19.2036   -7.8049  -14.5082 C   0  0  2  0  0  0  0  0  0  0  0  0
   17.8869   -8.2882  -14.8643 N   0  0  0  0  0  0  0  0  0  0  0  0
   19.3718   -6.4514  -15.0637 C   0  0  0  0  0  0  0  0  0  0  0  0
   18.9182   -6.0156  -16.1394 O   0  0  0  0  0  0  0  0  0  0  0  0
   20.1337   -5.5359  -14.2948 O   0  0  0  0  0  0  0  0  0  0  0  0
  2  4  1  0
  2  1  1  1
  3  2  1  0
  4  6  1  0
  4  5  1  1
  6  7  2  0
  9  8  1  1
  9 11  1  0
 10  9  1  0
 10  6  1  0
 11 12  2  0
 11 18  1  0
 13 14  1  0
 14 16  1  0
 14 15  2  0
 17 16  1  6
 17 19  1  0
 18 17  1  0
 19 20  2  0
 19 21  1  0
M  END
$$$$
