VAN.pdb
     RDKit          3D

 21 20  0  0  1  0  0  0  0  0999 V2000
   16.3971   -9.1258  -16.1987 C   0  0  0  0  0  0  0  0  0  0  0  0
   16.8873  -10.3246  -16.9409 C   0  0  2  0  0  0  0  0  0  0  0  0
   15.7326  -11.1634  -17.3799 C   0  0  0  0  0  0  0  0  0  0  0  0
   17.8637  -11.1615  -16.1066 C   0  0  2  0  0  0  0  0  0  0  0  0
   17.1248  -11.8768  -15.0829 N   0  0  0  0  0  0  0  0  0  0  0  0
   18.9025  -10.2886  -15.5401 C   0  0  0  0  0  0  0  0  0  0  0  0
   18.6121   -9.5750  -14.5457 O   0  0  0  0  0  0  0  0  0  0  0  0
   22.6105   -9.5877  -15.9471 C   0  0  0  0  0  0  0  0  0  0  0  0
   21.2203   -9.3105  -15.4321 C   0  0  2  0  0  0  0  0  0  0  0  0
   20.2318  -10.1789  -16.0271 N   0  0  0  0  0  0  0  0  0  0  0  0
   20.8981   -7.8764  -15.6105 C   0  0  0  0  0  0  0  0  0  0  0  0
   20.3889   -7.4096  -16.6802 O   0  0  0  0  0  0  0  0  0  0  0  0
   20.3404   -2.8104  -14.5855 N   0  0  0  0  0  0  0  0  0  0  0  0
   19.6002   -3.6721  -13.6785 C   0  0  0  0  0  0  0  0  0  0  0  0
   18.8135   -3.0479  -12.9305 O   0  0  0  0  0  0  0  0  0  0  0  0
   19.8134   -5.1316  -13.7001 C   0  0  0  0  0  0  0  0  0  0  0  0
   20.9226   -5.5583  -14.5872 C   0  0  2  0  0  0  0  0  0  0  0  0
   21.1639   -6.9848  -14.5553 N   0  0  0  0  0  0  0  0  0  0  0  0
   22.1701   -4.8640  -14.2258 C   0  0  0  0  0  0  0  0  0  0  0  0
   23.1808   -5.3584  -13.6902 O   0  0  0  0  0  0  0  0  0  0  0  0
   22.2366   -3.4780  -14.5166 O   0  0  0  0  0  0  0  0  0  0  0  0
  2  4  1  0
  2  1  1  1
  3  2  1  0
  4  6  1  0
  4  5  1  1
  6  7  2  0
  9  8  1  6
  9 11  1  0
 10  9  1  0
 10  6  1  0
 11 12  2  0
 11 18  1  0
 13 14  1  0
 14 16  1  0
 14 15  2  0
 17 16  1  1
 17 19  1  0
 18 17  1  0
 19 20  2  0
 19 21  1  0
M  END
$$$$
