VCA.pdb
     RDKit          3D

 19 18  0  0  1  0  0  0  0  0999 V2000
   20.4755   -8.9770  -19.1819 C   0  0  0  0  0  0  0  0  0  0  0  0
   21.8697   -9.2823  -18.6641 C   0  0  2  0  0  0  0  0  0  0  0  0
   22.4061  -10.4293  -19.4853 C   0  0  0  0  0  0  0  0  0  0  0  0
   21.7397   -9.6449  -17.2106 C   0  0  2  0  0  0  0  0  0  0  0  0
   20.8721  -10.7990  -17.0976 N   0  0  0  0  0  0  0  0  0  0  0  0
   21.2679   -8.5124  -16.3773 C   0  0  0  0  0  0  0  0  0  0  0  0
   20.0405   -8.2546  -16.2886 O   0  0  0  0  0  0  0  0  0  0  0  0
   22.1493   -7.6698  -15.6463 N   0  0  0  0  0  0  0  0  0  0  0  0
   21.7003   -6.5221  -14.8788 C   0  0  1  0  0  0  0  0  0  0  0  0
   22.1734   -6.7646  -13.4517 C   0  0  0  0  0  0  0  0  0  0  0  0
   21.9265   -5.3073  -12.4128 S   0  0  0  0  0  0  0  0  0  0  0  0
   22.2292   -5.2522  -15.4228 C   0  0  0  0  0  0  0  0  0  0  0  0
   23.4804   -5.1212  -15.4536 O   0  0  0  0  0  0  0  0  0  0  0  0
   20.8548   -2.3461  -17.2778 C   0  0  0  0  0  0  0  0  0  0  0  0
   21.9794   -2.9648  -16.4646 C   0  0  2  0  0  0  0  0  0  0  0  0
   21.4440   -4.1921  -15.9028 N   0  0  0  0  0  0  0  0  0  0  0  0
   22.3302   -1.9846  -15.4050 C   0  0  0  0  0  0  0  0  0  0  0  0
   21.8930   -2.2698  -14.1186 O   0  0  0  0  0  0  0  0  0  0  0  0
   22.9839   -0.9480  -15.6295 O   0  0  0  0  0  0  0  0  0  0  0  0
  2  3  1  6
  2  1  1  0
  4  5  1  6
  4  2  1  0
  6  4  1  0
  7  6  2  0
  8  6  1  0
  9  8  1  0
  9 12  1  0
  9 10  1  1
 11 10  1  0
 12 16  1  0
 13 12  2  0
 15 14  1  6
 16 15  1  0
 17 18  1  0
 17 15  1  0
 19 17  2  0
M  END
$$$$
