VCA.pdb
     RDKit          3D

 19 18  0  0  1  0  0  0  0  0999 V2000
   19.0727  -10.0119  -17.4386 C   0  0  0  0  0  0  0  0  0  0  0  0
   19.3113  -11.1025  -16.4097 C   0  0  2  0  0  0  0  0  0  0  0  0
   19.2781  -12.4202  -17.1448 C   0  0  0  0  0  0  0  0  0  0  0  0
   18.2140  -11.0026  -15.3864 C   0  0  2  0  0  0  0  0  0  0  0  0
   16.9478  -11.2636  -16.0390 N   0  0  0  0  0  0  0  0  0  0  0  0
   18.2128   -9.7026  -14.6725 C   0  0  0  0  0  0  0  0  0  0  0  0
   17.7012   -8.6844  -15.2039 O   0  0  0  0  0  0  0  0  0  0  0  0
   18.7744   -9.5302  -13.3779 N   0  0  0  0  0  0  0  0  0  0  0  0
   18.8089   -8.2531  -12.6882 C   0  0  1  0  0  0  0  0  0  0  0  0
   18.6455   -8.5744  -11.2086 C   0  0  0  0  0  0  0  0  0  0  0  0
   17.0425   -9.3342  -10.8664 S   0  0  0  0  0  0  0  0  0  0  0  0
   20.0634   -7.5155  -12.9532 C   0  0  0  0  0  0  0  0  0  0  0  0
   21.0950   -8.2027  -13.1706 O   0  0  0  0  0  0  0  0  0  0  0  0
   21.6496   -5.8987  -14.8384 C   0  0  0  0  0  0  0  0  0  0  0  0
   21.3702   -5.4068  -13.4282 C   0  0  2  0  0  0  0  0  0  0  0  0
   20.1859   -6.1173  -12.9795 N   0  0  0  0  0  0  0  0  0  0  0  0
   21.1275   -3.9444  -13.5256 C   0  0  0  0  0  0  0  0  0  0  0  0
   22.2432   -3.1337  -13.6845 O   0  0  0  0  0  0  0  0  0  0  0  0
   19.9892   -3.4407  -13.4707 O   0  0  0  0  0  0  0  0  0  0  0  0
  2  3  1  6
  2  1  1  0
  4  5  1  6
  4  2  1  0
  6  4  1  0
  7  6  2  0
  8  6  1  0
  9  8  1  0
  9 12  1  0
  9 10  1  1
 11 10  1  0
 12 16  1  0
 13 12  2  0
 15 14  1  6
 16 15  1  0
 17 18  1  0
 17 15  1  0
 19 17  2  0
M  END
$$$$
