VCA.pdb
     RDKit          3D

 19 18  0  0  1  0  0  0  0  0999 V2000
   18.6036  -13.5280  -16.1067 C   0  0  0  0  0  0  0  0  0  0  0  0
   17.3487  -12.6742  -16.0707 C   0  0  2  0  0  0  0  0  0  0  0  0
   16.3469  -13.3196  -16.9968 C   0  0  0  0  0  0  0  0  0  0  0  0
   17.7307  -11.2944  -16.5305 C   0  0  2  0  0  0  0  0  0  0  0  0
   18.1238  -11.3630  -17.9226 N   0  0  0  0  0  0  0  0  0  0  0  0
   18.7839  -10.6801  -15.6861 C   0  0  0  0  0  0  0  0  0  0  0  0
   18.5749  -10.4610  -14.4657 O   0  0  0  0  0  0  0  0  0  0  0  0
   20.0612  -10.3102  -16.1891 N   0  0  0  0  0  0  0  0  0  0  0  0
   21.0833   -9.6744  -15.3775 C   0  0  1  0  0  0  0  0  0  0  0  0
   22.3773  -10.4187  -15.6791 C   0  0  0  0  0  0  0  0  0  0  0  0
   23.7920   -9.6523  -14.8575 S   0  0  0  0  0  0  0  0  0  0  0  0
   21.2018   -8.2292  -15.6700 C   0  0  0  0  0  0  0  0  0  0  0  0
   21.4163   -7.9045  -16.8668 O   0  0  0  0  0  0  0  0  0  0  0  0
   20.0039   -5.1101  -14.9994 C   0  0  0  0  0  0  0  0  0  0  0  0
   21.3571   -5.8012  -14.9914 C   0  0  2  0  0  0  0  0  0  0  0  0
   21.0935   -7.2028  -14.7185 N   0  0  0  0  0  0  0  0  0  0  0  0
   22.1522   -5.1720  -13.9057 C   0  0  0  0  0  0  0  0  0  0  0  0
   22.6745   -3.9114  -14.1618 O   0  0  0  0  0  0  0  0  0  0  0  0
   22.3573   -5.7243  -12.8078 O   0  0  0  0  0  0  0  0  0  0  0  0
  2  3  1  6
  2  1  1  0
  4  5  1  6
  4  2  1  0
  6  4  1  0
  7  6  2  0
  8  6  1  0
  9  8  1  0
  9 12  1  0
  9 10  1  6
 11 10  1  0
 12 16  1  0
 13 12  2  0
 15 14  1  1
 16 15  1  0
 17 18  1  0
 17 15  1  0
 19 17  2  0
M  END
$$$$
