VCA.pdb
     RDKit          3D

 19 18  0  0  1  0  0  0  0  0999 V2000
   18.8763  -12.8745  -19.6328 C   0  0  0  0  0  0  0  0  0  0  0  0
   18.6049  -11.9176  -18.4858 C   0  0  2  0  0  0  0  0  0  0  0  0
   18.2240  -10.5909  -19.0961 C   0  0  0  0  0  0  0  0  0  0  0  0
   19.8666  -11.8204  -17.6736 C   0  0  2  0  0  0  0  0  0  0  0  0
   20.2043  -13.1408  -17.1840 N   0  0  0  0  0  0  0  0  0  0  0  0
   19.7658  -10.8299  -16.5743 C   0  0  0  0  0  0  0  0  0  0  0  0
   19.0821  -11.0826  -15.5498 O   0  0  0  0  0  0  0  0  0  0  0  0
   20.4178   -9.5671  -16.6084 N   0  0  0  0  0  0  0  0  0  0  0  0
   20.4307   -8.6467  -15.4857 C   0  0  1  0  0  0  0  0  0  0  0  0
   21.8983   -8.4293  -15.1423 C   0  0  0  0  0  0  0  0  0  0  0  0
   22.4342   -9.5122  -13.7991 S   0  0  0  0  0  0  0  0  0  0  0  0
   19.7489   -7.3737  -15.8067 C   0  0  0  0  0  0  0  0  0  0  0  0
   20.0769   -6.8051  -16.8804 O   0  0  0  0  0  0  0  0  0  0  0  0
   16.8423   -5.4867  -14.4569 C   0  0  0  0  0  0  0  0  0  0  0  0
   18.0485   -5.5558  -15.3783 C   0  0  2  0  0  0  0  0  0  0  0  0
   18.7716   -6.7593  -15.0079 N   0  0  0  0  0  0  0  0  0  0  0  0
   18.8526   -4.3332  -15.1226 C   0  0  0  0  0  0  0  0  0  0  0  0
   18.3539   -3.1391  -15.6254 O   0  0  0  0  0  0  0  0  0  0  0  0
   19.9264   -4.3475  -14.4909 O   0  0  0  0  0  0  0  0  0  0  0  0
  2  3  1  6
  2  1  1  0
  4  5  1  1
  4  2  1  0
  6  4  1  0
  7  6  2  0
  8  6  1  0
  9  8  1  0
  9 12  1  0
  9 10  1  6
 11 10  1  0
 12 16  1  0
 13 12  2  0
 15 14  1  1
 16 15  1  0
 17 18  1  0
 17 15  1  0
 19 17  2  0
M  END
$$$$
