VCA.pdb
     RDKit          3D

 19 18  0  0  1  0  0  0  0  0999 V2000
   20.3026  -10.2774  -19.7447 C   0  0  0  0  0  0  0  0  0  0  0  0
   19.6149  -11.4420  -19.0549 C   0  0  2  0  0  0  0  0  0  0  0  0
   18.1297  -11.2587  -19.2507 C   0  0  0  0  0  0  0  0  0  0  0  0
   19.9999  -11.3945  -17.6021 C   0  0  2  0  0  0  0  0  0  0  0  0
   19.5822  -12.6298  -16.9723 N   0  0  0  0  0  0  0  0  0  0  0  0
   19.4564  -10.2043  -16.9038 C   0  0  0  0  0  0  0  0  0  0  0  0
   18.4199   -9.6338  -17.3296 O   0  0  0  0  0  0  0  0  0  0  0  0
   20.0563   -9.6483  -15.7410 N   0  0  0  0  0  0  0  0  0  0  0  0
   19.5609   -8.4525  -15.0833 C   0  0  1  0  0  0  0  0  0  0  0  0
   18.8341   -8.9347  -13.8349 C   0  0  0  0  0  0  0  0  0  0  0  0
   18.5089   -7.5766  -12.6887 S   0  0  0  0  0  0  0  0  0  0  0  0
   20.6529   -7.5112  -14.7521 C   0  0  0  0  0  0  0  0  0  0  0  0
   21.5997   -7.9578  -14.0536 O   0  0  0  0  0  0  0  0  0  0  0  0
   21.4415   -3.9304  -15.4764 C   0  0  0  0  0  0  0  0  0  0  0  0
   21.7703   -5.2463  -14.7915 C   0  0  2  0  0  0  0  0  0  0  0  0
   20.7093   -6.1681  -15.1565 N   0  0  0  0  0  0  0  0  0  0  0  0
   21.7831   -4.9767  -13.3307 C   0  0  0  0  0  0  0  0  0  0  0  0
   23.0248   -4.7853  -12.7400 O   0  0  0  0  0  0  0  0  0  0  0  0
   20.7460   -4.9191  -12.6426 O   0  0  0  0  0  0  0  0  0  0  0  0
  2  3  1  1
  2  1  1  0
  4  5  1  1
  4  2  1  0
  6  4  1  0
  7  6  2  0
  8  6  1  0
  9  8  1  0
  9 12  1  0
  9 10  1  1
 11 10  1  0
 12 16  1  0
 13 12  2  0
 15 14  1  6
 16 15  1  0
 17 18  1  0
 17 15  1  0
 19 17  2  0
M  END
$$$$
