VCA.pdb
     RDKit          3D

 19 18  0  0  1  0  0  0  0  0999 V2000
   22.1862   -9.1915  -20.2238 C   0  0  0  0  0  0  0  0  0  0  0  0
   21.3004  -10.4245  -20.2060 C   0  0  2  0  0  0  0  0  0  0  0  0
   19.9032   -9.9713  -20.5528 C   0  0  0  0  0  0  0  0  0  0  0  0
   21.3737  -11.0104  -18.8231 C   0  0  2  0  0  0  0  0  0  0  0  0
   20.7197  -12.3024  -18.8329 N   0  0  0  0  0  0  0  0  0  0  0  0
   20.8088  -10.1103  -17.7886 C   0  0  0  0  0  0  0  0  0  0  0  0
   19.5694   -9.9071  -17.7289 O   0  0  0  0  0  0  0  0  0  0  0  0
   21.6105   -9.4387  -16.8257 N   0  0  0  0  0  0  0  0  0  0  0  0
   21.0617   -8.5814  -15.7905 C   0  0  1  0  0  0  0  0  0  0  0  0
   21.4192   -9.2451  -14.4673 C   0  0  0  0  0  0  0  0  0  0  0  0
   21.0252   -8.1805  -13.0618 S   0  0  0  0  0  0  0  0  0  0  0  0
   21.5942   -7.2038  -15.8737 C   0  0  0  0  0  0  0  0  0  0  0  0
   22.8460   -7.0756  -15.8926 O   0  0  0  0  0  0  0  0  0  0  0  0
   20.1565   -3.7655  -16.1432 C   0  0  0  0  0  0  0  0  0  0  0  0
   21.3507   -4.6924  -15.9898 C   0  0  2  0  0  0  0  0  0  0  0  0
   20.8119   -6.0397  -15.9327 N   0  0  0  0  0  0  0  0  0  0  0  0
   22.0229   -4.3171  -14.7194 C   0  0  0  0  0  0  0  0  0  0  0  0
   21.5022   -4.8580  -13.5517 O   0  0  0  0  0  0  0  0  0  0  0  0
   23.0082   -3.5559  -14.6726 O   0  0  0  0  0  0  0  0  0  0  0  0
  2  3  1  1
  2  1  1  0
  4  5  1  6
  4  2  1  0
  6  4  1  0
  7  6  2  0
  8  6  1  0
  9  8  1  0
  9 12  1  0
  9 10  1  1
 11 10  1  0
 12 16  1  0
 13 12  2  0
 15 14  1  1
 16 15  1  0
 17 18  1  0
 17 15  1  0
 19 17  2  0
M  END
$$$$
