VCA.pdb
     RDKit          3D

 19 18  0  0  1  0  0  0  0  0999 V2000
   16.7877  -10.2641  -18.7500 C   0  0  0  0  0  0  0  0  0  0  0  0
   17.0386   -9.3129  -17.5935 C   0  0  2  0  0  0  0  0  0  0  0  0
   17.3331   -7.9582  -18.1900 C   0  0  0  0  0  0  0  0  0  0  0  0
   18.2079   -9.8502  -16.8156 C   0  0  2  0  0  0  0  0  0  0  0  0
   17.8594  -11.1582  -16.3010 N   0  0  0  0  0  0  0  0  0  0  0  0
   18.6516   -8.9308  -15.7397 C   0  0  0  0  0  0  0  0  0  0  0  0
   17.9127   -8.7081  -14.7470 O   0  0  0  0  0  0  0  0  0  0  0  0
   19.9057   -8.2615  -15.7620 N   0  0  0  0  0  0  0  0  0  0  0  0
   20.3063   -7.2868  -14.7634 C   0  0  1  0  0  0  0  0  0  0  0  0
   21.6217   -7.7957  -14.1891 C   0  0  0  0  0  0  0  0  0  0  0  0
   22.3206   -6.6324  -12.9964 S   0  0  0  0  0  0  0  0  0  0  0  0
   20.4479   -5.9316  -15.3393 C   0  0  0  0  0  0  0  0  0  0  0  0
   21.1370   -5.8255  -16.3869 O   0  0  0  0  0  0  0  0  0  0  0  0
   18.9655   -2.5714  -14.7576 C   0  0  0  0  0  0  0  0  0  0  0  0
   20.0612   -3.4357  -15.3586 C   0  0  2  0  0  0  0  0  0  0  0  0
   19.8749   -4.7659  -14.8070 N   0  0  0  0  0  0  0  0  0  0  0  0
   21.3552   -2.8427  -14.9333 C   0  0  0  0  0  0  0  0  0  0  0  0
   21.7653   -1.6937  -15.5957 O   0  0  0  0  0  0  0  0  0  0  0  0
   22.0601   -3.3305  -14.0290 O   0  0  0  0  0  0  0  0  0  0  0  0
  2  3  1  6
  2  1  1  0
  4  5  1  1
  4  2  1  0
  6  4  1  0
  7  6  2  0
  8  6  1  0
  9  8  1  0
  9 12  1  0
  9 10  1  6
 11 10  1  0
 12 16  1  0
 13 12  2  0
 15 14  1  1
 16 15  1  0
 17 18  1  0
 17 15  1  0
 19 17  2  0
M  END
$$$$
