VCA.pdb
     RDKit          3D

 19 18  0  0  1  0  0  0  0  0999 V2000
   18.1375   -8.5763  -17.6971 C   0  0  0  0  0  0  0  0  0  0  0  0
   19.6156   -8.7862  -17.9729 C   0  0  2  0  0  0  0  0  0  0  0  0
   19.7215   -9.8644  -19.0237 C   0  0  0  0  0  0  0  0  0  0  0  0
   20.2600   -9.1985  -16.6783 C   0  0  2  0  0  0  0  0  0  0  0  0
   19.6516  -10.4345  -16.2319 N   0  0  0  0  0  0  0  0  0  0  0  0
   20.1918   -8.1402  -15.6416 C   0  0  0  0  0  0  0  0  0  0  0  0
   19.2136   -8.0823  -14.8537 O   0  0  0  0  0  0  0  0  0  0  0  0
   21.2000   -7.1515  -15.4775 N   0  0  0  0  0  0  0  0  0  0  0  0
   21.0728   -6.0274  -14.5675 C   0  0  1  0  0  0  0  0  0  0  0  0
   22.3917   -5.9540  -13.8096 C   0  0  0  0  0  0  0  0  0  0  0  0
   22.5202   -4.4318  -12.8449 S   0  0  0  0  0  0  0  0  0  0  0  0
   20.7819   -4.7663  -15.2839 C   0  0  0  0  0  0  0  0  0  0  0  0
   21.5991   -4.4131  -16.1733 O   0  0  0  0  0  0  0  0  0  0  0  0
   17.9074   -2.5870  -15.8827 C   0  0  0  0  0  0  0  0  0  0  0  0
   19.4163   -2.6901  -15.7358 C   0  0  2  0  0  0  0  0  0  0  0  0
   19.6706   -3.9423  -15.0459 N   0  0  0  0  0  0  0  0  0  0  0  0
   19.8480   -1.5215  -14.9265 C   0  0  0  0  0  0  0  0  0  0  0  0
   20.4074   -1.7918  -13.6850 O   0  0  0  0  0  0  0  0  0  0  0  0
   19.7267   -0.3445  -15.3167 O   0  0  0  0  0  0  0  0  0  0  0  0
  2  3  1  6
  2  1  1  0
  4  5  1  1
  4  2  1  0
  6  4  1  0
  7  6  2  0
  8  6  1  0
  9  8  1  0
  9 12  1  0
  9 10  1  6
 11 10  1  0
 12 16  1  0
 13 12  2  0
 15 14  1  1
 16 15  1  0
 17 18  1  0
 17 15  1  0
 19 17  2  0
M  END
$$$$
