VCA.pdb
     RDKit          3D

 19 18  0  0  1  0  0  0  0  0999 V2000
   19.3026  -13.6643  -19.0792 C   0  0  0  0  0  0  0  0  0  0  0  0
   19.1350  -12.6676  -17.9462 C   0  0  2  0  0  0  0  0  0  0  0  0
   18.9190  -11.3131  -18.5758 C   0  0  0  0  0  0  0  0  0  0  0  0
   20.3916  -12.7095  -17.1214 C   0  0  2  0  0  0  0  0  0  0  0  0
   20.6252  -14.0763  -16.7035 N   0  0  0  0  0  0  0  0  0  0  0  0
   20.3525  -11.7761  -15.9696 C   0  0  0  0  0  0  0  0  0  0  0  0
   19.7895  -12.1115  -14.8965 O   0  0  0  0  0  0  0  0  0  0  0  0
   20.9332  -10.4789  -16.0048 N   0  0  0  0  0  0  0  0  0  0  0  0
   20.9011   -9.5610  -14.8804 C   0  0  1  0  0  0  0  0  0  0  0  0
   21.8111  -10.1683  -13.8210 C   0  0  0  0  0  0  0  0  0  0  0  0
   23.5119  -10.3173  -14.4118 S   0  0  0  0  0  0  0  0  0  0  0  0
   21.3388   -8.2011  -15.2642 C   0  0  0  0  0  0  0  0  0  0  0  0
   22.3582   -8.1149  -15.9971 O   0  0  0  0  0  0  0  0  0  0  0  0
   20.0143   -4.7416  -15.0134 C   0  0  0  0  0  0  0  0  0  0  0  0
   21.1961   -5.6805  -15.1883 C   0  0  2  0  0  0  0  0  0  0  0  0
   20.7057   -7.0106  -14.8739 N   0  0  0  0  0  0  0  0  0  0  0  0
   22.2386   -5.2395  -14.2264 C   0  0  0  0  0  0  0  0  0  0  0  0
   22.9847   -4.1232  -14.5794 O   0  0  0  0  0  0  0  0  0  0  0  0
   22.4560   -5.8230  -13.1472 O   0  0  0  0  0  0  0  0  0  0  0  0
  2  3  1  6
  2  1  1  0
  4  5  1  1
  4  2  1  0
  6  4  1  0
  7  6  2  0
  8  6  1  0
  9  8  1  0
  9 12  1  0
  9 10  1  1
 11 10  1  0
 12 16  1  0
 13 12  2  0
 15 14  1  1
 16 15  1  0
 17 18  1  0
 17 15  1  0
 19 17  2  0
M  END
$$$$
