VCA.pdb
     RDKit          3D

 19 18  0  0  1  0  0  0  0  0999 V2000
   16.8606  -10.5719  -17.2856 C   0  0  0  0  0  0  0  0  0  0  0  0
   17.1305   -9.3366  -16.4452 C   0  0  2  0  0  0  0  0  0  0  0  0
   17.6487   -8.2700  -17.3788 C   0  0  0  0  0  0  0  0  0  0  0  0
   18.1479   -9.7147  -15.4046 C   0  0  2  0  0  0  0  0  0  0  0  0
   17.5893  -10.7571  -14.5688 N   0  0  0  0  0  0  0  0  0  0  0  0
   18.6113   -8.5530  -14.6074 C   0  0  0  0  0  0  0  0  0  0  0  0
   17.8828   -8.0687  -13.7044 O   0  0  0  0  0  0  0  0  0  0  0  0
   19.8737   -7.9307  -14.8084 N   0  0  0  0  0  0  0  0  0  0  0  0
   20.3007   -6.7447  -14.0882 C   0  0  1  0  0  0  0  0  0  0  0  0
   21.6914   -7.0603  -13.5536 C   0  0  0  0  0  0  0  0  0  0  0  0
   22.4296   -5.6290  -12.7349 S   0  0  0  0  0  0  0  0  0  0  0  0
   20.3059   -5.5447  -14.9531 C   0  0  0  0  0  0  0  0  0  0  0  0
   20.9678   -5.6133  -16.0212 O   0  0  0  0  0  0  0  0  0  0  0  0
   18.4549   -2.3328  -15.1279 C   0  0  0  0  0  0  0  0  0  0  0  0
   19.6581   -3.1714  -15.5255 C   0  0  2  0  0  0  0  0  0  0  0  0
   19.6322   -4.3456  -14.6717 N   0  0  0  0  0  0  0  0  0  0  0  0
   20.8619   -2.3380  -15.2744 C   0  0  0  0  0  0  0  0  0  0  0  0
   21.6574   -2.6962  -14.1945 O   0  0  0  0  0  0  0  0  0  0  0  0
   21.1686   -1.3591  -15.9815 O   0  0  0  0  0  0  0  0  0  0  0  0
  2  3  1  6
  2  1  1  0
  4  5  1  1
  4  2  1  0
  6  4  1  0
  7  6  2  0
  8  6  1  0
  9  8  1  0
  9 12  1  0
  9 10  1  6
 11 10  1  0
 12 16  1  0
 13 12  2  0
 15 14  1  1
 16 15  1  0
 17 18  1  0
 17 15  1  0
 19 17  2  0
M  END
$$$$
