VCA.pdb
     RDKit          3D

 19 18  0  0  1  0  0  0  0  0999 V2000
   19.1688  -11.0961  -14.3306 C   0  0  0  0  0  0  0  0  0  0  0  0
   18.5019  -10.9067  -15.6813 C   0  0  2  0  0  0  0  0  0  0  0  0
   18.5162  -12.2473  -16.3744 C   0  0  0  0  0  0  0  0  0  0  0  0
   19.2973   -9.8766  -16.4346 C   0  0  2  0  0  0  0  0  0  0  0  0
   20.6082  -10.4220  -16.7196 N   0  0  0  0  0  0  0  0  0  0  0  0
   19.3793   -8.5801  -15.7191 C   0  0  0  0  0  0  0  0  0  0  0  0
   18.3340   -7.9402  -15.4382 O   0  0  0  0  0  0  0  0  0  0  0  0
   20.6108   -7.9948  -15.3167 N   0  0  0  0  0  0  0  0  0  0  0  0
   20.7048   -6.6885  -14.6902 C   0  0  1  0  0  0  0  0  0  0  0  0
   21.9701   -6.7228  -13.8435 C   0  0  0  0  0  0  0  0  0  0  0  0
   22.3074   -5.1173  -13.0867 S   0  0  0  0  0  0  0  0  0  0  0  0
   20.7435   -5.5979  -15.6888 C   0  0  0  0  0  0  0  0  0  0  0  0
   21.5113   -5.7525  -16.6739 O   0  0  0  0  0  0  0  0  0  0  0  0
   18.8300   -3.4255  -17.4396 C   0  0  0  0  0  0  0  0  0  0  0  0
   20.0799   -3.3299  -16.5809 C   0  0  2  0  0  0  0  0  0  0  0  0
   19.9928   -4.4137  -15.6184 N   0  0  0  0  0  0  0  0  0  0  0  0
   20.0412   -2.0023  -15.9156 C   0  0  0  0  0  0  0  0  0  0  0  0
   20.3025   -0.8951  -16.7114 O   0  0  0  0  0  0  0  0  0  0  0  0
   19.7894   -1.8579  -14.7039 O   0  0  0  0  0  0  0  0  0  0  0  0
  2  3  1  6
  2  1  1  0
  4  5  1  1
  4  2  1  0
  6  4  1  0
  7  6  2  0
  8  6  1  0
  9  8  1  0
  9 12  1  0
  9 10  1  6
 11 10  1  0
 12 16  1  0
 13 12  2  0
 15 14  1  6
 16 15  1  0
 17 18  1  0
 17 15  1  0
 19 17  2  0
M  END
$$$$
