VCA.pdb
     RDKit          3D

 19 18  0  0  1  0  0  0  0  0999 V2000
   17.8814   -9.6676  -17.1198 C   0  0  0  0  0  0  0  0  0  0  0  0
   19.2983   -9.5760  -17.6574 C   0  0  2  0  0  0  0  0  0  0  0  0
   19.4736  -10.7083  -18.6398 C   0  0  0  0  0  0  0  0  0  0  0  0
   20.2324   -9.6998  -16.4855 C   0  0  2  0  0  0  0  0  0  0  0  0
   19.9820  -10.9645  -15.8259 N   0  0  0  0  0  0  0  0  0  0  0  0
   20.1304   -8.5552  -15.5479 C   0  0  0  0  0  0  0  0  0  0  0  0
   19.2531   -8.5456  -14.6472 O   0  0  0  0  0  0  0  0  0  0  0  0
   20.9941   -7.4275  -15.6066 N   0  0  0  0  0  0  0  0  0  0  0  0
   20.9153   -6.3146  -14.6775 C   0  0  1  0  0  0  0  0  0  0  0  0
   22.3542   -5.9734  -14.3135 C   0  0  0  0  0  0  0  0  0  0  0  0
   22.4536   -4.4413  -13.3614 S   0  0  0  0  0  0  0  0  0  0  0  0
   20.2087   -5.1545  -15.2632 C   0  0  0  0  0  0  0  0  0  0  0  0
   20.6195   -4.7388  -16.3778 O   0  0  0  0  0  0  0  0  0  0  0  0
   16.9744   -3.4995  -14.8913 C   0  0  0  0  0  0  0  0  0  0  0  0
   18.4410   -3.3503  -15.2596 C   0  0  2  0  0  0  0  0  0  0  0  0
   19.1232   -4.4895  -14.6717 N   0  0  0  0  0  0  0  0  0  0  0  0
   18.9028   -2.0693  -14.6660 C   0  0  0  0  0  0  0  0  0  0  0  0
   18.3467   -0.9051  -15.1785 O   0  0  0  0  0  0  0  0  0  0  0  0
   19.7470   -2.0109  -13.7514 O   0  0  0  0  0  0  0  0  0  0  0  0
  2  3  1  6
  2  1  1  0
  4  5  1  1
  4  2  1  0
  6  4  1  0
  7  6  2  0
  8  6  1  0
  9  8  1  0
  9 12  1  0
  9 10  1  6
 11 10  1  0
 12 16  1  0
 13 12  2  0
 15 14  1  1
 16 15  1  0
 17 18  1  0
 17 15  1  0
 19 17  2  0
M  END
$$$$
