KGK.pdb
     RDKit          3D

 23 22  0  0  1  0  0  0  0  0999 V2000
   28.8323  -25.1676  -19.3727 N   0  0  0  0  0  0  0  0  0  0  0  0
   27.4378  -25.4191  -19.1024 C   0  0  1  0  0  0  0  0  0  0  0  0
   26.8399  -26.0278  -20.3528 C   0  0  0  0  0  0  0  0  0  0  0  0
   26.6224  -24.9691  -21.4340 C   0  0  0  0  0  0  0  0  0  0  0  0
   25.2001  -25.1514  -21.9305 C   0  0  0  0  0  0  0  0  0  0  0  0
   24.9968  -24.5037  -23.2813 C   0  0  0  0  0  0  0  0  0  0  0  0
   23.6582  -24.7156  -23.7722 N   0  0  0  0  0  0  0  0  0  0  0  0
   27.3153  -26.4240  -18.0242 C   0  0  0  0  0  0  0  0  0  0  0  0
   26.1861  -26.6860  -17.5613 O   0  0  0  0  0  0  0  0  0  0  0  0
   28.4760  -27.0690  -17.5374 N   0  0  0  0  0  0  0  0  0  0  0  0
   28.4535  -28.0250  -16.4631 C   0  0  0  0  0  0  0  0  0  0  0  0
   28.2970  -29.4158  -16.9950 C   0  0  0  0  0  0  0  0  0  0  0  0
   27.9004  -29.5561  -18.1773 O   0  0  0  0  0  0  0  0  0  0  0  0
   28.5813  -30.5432  -16.2067 N   0  0  0  0  0  0  0  0  0  0  0  0
   28.7168  -31.9178  -16.8283 C   0  0  1  0  0  0  0  0  0  0  0  0
   29.7607  -32.5436  -15.9939 C   0  0  0  0  0  0  0  0  0  0  0  0
   30.9574  -33.1776  -16.5142 C   0  0  0  0  0  0  0  0  0  0  0  0
   32.2929  -32.9585  -15.9195 C   0  0  0  0  0  0  0  0  0  0  0  0
   33.2891  -33.8367  -16.7512 C   0  0  0  0  0  0  0  0  0  0  0  0
   34.6427  -33.5215  -16.3752 N   0  0  0  0  0  0  0  0  0  0  0  0
   27.3576  -32.4464  -16.7754 C   0  0  0  0  0  0  0  0  0  0  0  0
   26.8901  -33.4369  -17.6688 O   0  0  0  0  0  0  0  0  0  0  0  0
   26.5216  -32.0640  -15.9460 O   0  0  0  0  0  0  0  0  0  0  0  0
  2  1  1  6
  3  4  1  0
  3  2  1  0
  5  4  1  0
  5  6  1  0
  7  6  1  0
  8  2  1  0
  8  9  2  0
 10  8  1  0
 11 10  1  0
 11 12  1  0
 12 13  2  0
 12 14  1  0
 14 15  1  0
 15 16  1  1
 15 21  1  0
 17 16  1  0
 18 17  1  0
 19 18  1  0
 20 19  1  0
 21 23  2  0
 21 22  1  0
M  END
$$$$
