KGK.pdb
     RDKit          3D

 23 22  0  0  1  0  0  0  0  0999 V2000
   14.7949  -21.6160    1.4009 N   0  0  0  0  0  0  0  0  0  0  0  0
   15.1545  -20.9545    2.6314 C   0  0  1  0  0  0  0  0  0  0  0  0
   16.0602  -21.8937    3.3990 C   0  0  0  0  0  0  0  0  0  0  0  0
   15.4261  -23.2768    3.5461 C   0  0  0  0  0  0  0  0  0  0  0  0
   16.4232  -24.1246    4.3140 C   0  0  0  0  0  0  0  0  0  0  0  0
   15.8821  -25.5102    4.5833 C   0  0  0  0  0  0  0  0  0  0  0  0
   16.8544  -26.3354    5.2552 N   0  0  0  0  0  0  0  0  0  0  0  0
   15.9396  -19.7381    2.3291 C   0  0  0  0  0  0  0  0  0  0  0  0
   16.3416  -19.5469    1.1630 O   0  0  0  0  0  0  0  0  0  0  0  0
   16.2206  -18.8151    3.3632 N   0  0  0  0  0  0  0  0  0  0  0  0
   16.7899  -17.5158    3.1255 C   0  0  0  0  0  0  0  0  0  0  0  0
   16.9702  -16.7731    4.4129 C   0  0  0  0  0  0  0  0  0  0  0  0
   16.6539  -17.3530    5.4800 O   0  0  0  0  0  0  0  0  0  0  0  0
   17.4776  -15.4636    4.4441 N   0  0  0  0  0  0  0  0  0  0  0  0
   17.7156  -14.7483    5.7579 C   0  0  1  0  0  0  0  0  0  0  0  0
   18.8907  -13.9085    5.4554 C   0  0  0  0  0  0  0  0  0  0  0  0
   19.5640  -13.0601    6.4206 C   0  0  0  0  0  0  0  0  0  0  0  0
   20.6715  -12.1560    6.0445 C   0  0  0  0  0  0  0  0  0  0  0  0
   21.0534  -11.3710    7.3457 C   0  0  0  0  0  0  0  0  0  0  0  0
   22.1535  -10.4838    7.0708 N   0  0  0  0  0  0  0  0  0  0  0  0
   16.4347  -14.1026    6.0263 C   0  0  0  0  0  0  0  0  0  0  0  0
   16.0198  -13.7455    7.3293 O   0  0  0  0  0  0  0  0  0  0  0  0
   15.6244  -13.8238    5.1325 O   0  0  0  0  0  0  0  0  0  0  0  0
  2  1  1  6
  3  4  1  0
  3  2  1  0
  5  4  1  0
  5  6  1  0
  7  6  1  0
  8  2  1  0
  8  9  2  0
 10  8  1  0
 11 10  1  0
 11 12  1  0
 12 13  2  0
 12 14  1  0
 14 15  1  0
 15 16  1  6
 15 21  1  0
 17 16  1  0
 18 17  1  0
 19 18  1  0
 20 19  1  0
 21 23  2  0
 21 22  1  0
M  END
$$$$
