KGK.pdb
     RDKit          3D

 23 22  0  0  1  0  0  0  0  0999 V2000
   18.0648  -22.7515  -12.8686 N   0  0  0  0  0  0  0  0  0  0  0  0
   18.9529  -23.7402  -12.3076 C   0  0  1  0  0  0  0  0  0  0  0  0
   20.2786  -23.6141  -13.0274 C   0  0  0  0  0  0  0  0  0  0  0  0
   20.3188  -24.5005  -14.2722 C   0  0  0  0  0  0  0  0  0  0  0  0
   20.8101  -25.8606  -13.8126 C   0  0  0  0  0  0  0  0  0  0  0  0
   20.9076  -26.8339  -14.9653 C   0  0  0  0  0  0  0  0  0  0  0  0
   21.2353  -28.1614  -14.5090 N   0  0  0  0  0  0  0  0  0  0  0  0
   19.1978  -23.4341  -10.8815 C   0  0  0  0  0  0  0  0  0  0  0  0
   19.8499  -22.4130  -10.5811 O   0  0  0  0  0  0  0  0  0  0  0  0
   18.6906  -24.3007   -9.8856 N   0  0  0  0  0  0  0  0  0  0  0  0
   18.9352  -24.1140   -8.4805 C   0  0  0  0  0  0  0  0  0  0  0  0
   18.1328  -25.0839   -7.6699 C   0  0  0  0  0  0  0  0  0  0  0  0
   17.3654  -25.8699   -8.2768 O   0  0  0  0  0  0  0  0  0  0  0  0
   18.2240  -25.1267   -6.2688 N   0  0  0  0  0  0  0  0  0  0  0  0
   17.3661  -26.0760   -5.4581 C   0  0  1  0  0  0  0  0  0  0  0  0
   18.1671  -26.2623   -4.2329 C   0  0  0  0  0  0  0  0  0  0  0  0
   17.9878  -27.3523   -3.2923 C   0  0  0  0  0  0  0  0  0  0  0  0
   18.8247  -27.5012   -2.0829 C   0  0  0  0  0  0  0  0  0  0  0  0
   18.2691  -28.7524   -1.3206 C   0  0  0  0  0  0  0  0  0  0  0  0
   19.0219  -28.9558   -0.1103 N   0  0  0  0  0  0  0  0  0  0  0  0
   16.0868  -25.3797   -5.3680 C   0  0  0  0  0  0  0  0  0  0  0  0
   14.8528  -26.0624   -5.2738 O   0  0  0  0  0  0  0  0  0  0  0  0
   15.9943  -24.1450   -5.3681 O   0  0  0  0  0  0  0  0  0  0  0  0
  2  1  1  6
  3  4  1  0
  3  2  1  0
  5  4  1  0
  5  6  1  0
  7  6  1  0
  8  2  1  0
  8  9  2  0
 10  8  1  0
 11 10  1  0
 11 12  1  0
 12 13  2  0
 12 14  1  0
 14 15  1  0
 15 16  1  1
 15 21  1  0
 17 16  1  0
 18 17  1  0
 19 18  1  0
 20 19  1  0
 21 23  2  0
 21 22  1  0
M  END
$$$$
