KGK.pdb
     RDKit          3D

 23 22  0  0  1  0  0  0  0  0999 V2000
   26.4524  -19.6501  -14.4808 N   0  0  0  0  0  0  0  0  0  0  0  0
   25.0121  -19.7306  -14.4758 C   0  0  1  0  0  0  0  0  0  0  0  0
   24.5871  -20.1013  -13.0710 C   0  0  0  0  0  0  0  0  0  0  0  0
   25.6583  -20.9382  -12.3716 C   0  0  0  0  0  0  0  0  0  0  0  0
   25.1131  -21.2652  -10.9938 C   0  0  0  0  0  0  0  0  0  0  0  0
   26.0824  -22.1111  -10.2000 C   0  0  0  0  0  0  0  0  0  0  0  0
   25.5976  -22.3573   -8.8650 N   0  0  0  0  0  0  0  0  0  0  0  0
   24.4403  -18.3986  -14.7695 C   0  0  0  0  0  0  0  0  0  0  0  0
   23.2011  -18.2725  -14.8515 O   0  0  0  0  0  0  0  0  0  0  0  0
   25.3043  -17.2939  -14.9518 N   0  0  0  0  0  0  0  0  0  0  0  0
   24.8332  -15.9622  -15.2228 C   0  0  0  0  0  0  0  0  0  0  0  0
   24.3033  -15.8620  -16.6195 C   0  0  0  0  0  0  0  0  0  0  0  0
   25.0196  -16.2908  -17.5565 O   0  0  0  0  0  0  0  0  0  0  0  0
   23.0421  -15.3064  -16.8917 N   0  0  0  0  0  0  0  0  0  0  0  0
   22.4826  -15.2893  -18.2992 C   0  0  1  0  0  0  0  0  0  0  0  0
   21.0747  -14.9066  -18.0779 C   0  0  0  0  0  0  0  0  0  0  0  0
   20.0935  -14.7396  -19.1335 C   0  0  0  0  0  0  0  0  0  0  0  0
   18.6903  -14.3641  -18.8590 C   0  0  0  0  0  0  0  0  0  0  0  0
   17.9929  -14.2352  -20.2563 C   0  0  0  0  0  0  0  0  0  0  0  0
   16.5809  -14.0206  -20.0748 N   0  0  0  0  0  0  0  0  0  0  0  0
   23.3655  -14.3633  -19.0011 C   0  0  0  0  0  0  0  0  0  0  0  0
   23.8787  -13.1936  -18.3961 O   0  0  0  0  0  0  0  0  0  0  0  0
   23.7251  -14.5382  -20.1729 O   0  0  0  0  0  0  0  0  0  0  0  0
  2  1  1  1
  3  4  1  0
  3  2  1  0
  5  4  1  0
  5  6  1  0
  7  6  1  0
  8  2  1  0
  8  9  2  0
 10  8  1  0
 11 10  1  0
 11 12  1  0
 12 13  2  0
 12 14  1  0
 14 15  1  0
 15 16  1  1
 15 21  1  0
 17 16  1  0
 18 17  1  0
 19 18  1  0
 20 19  1  0
 21 23  2  0
 21 22  1  0
M  END
$$$$
