KGK.pdb
     RDKit          3D

 23 22  0  0  1  0  0  0  0  0999 V2000
   19.8793  -18.9464  -13.7747 N   0  0  0  0  0  0  0  0  0  0  0  0
   21.1382  -19.6484  -13.8335 C   0  0  1  0  0  0  0  0  0  0  0  0
   20.8398  -21.1224  -13.6613 C   0  0  0  0  0  0  0  0  0  0  0  0
   20.1309  -21.3921  -12.3340 C   0  0  0  0  0  0  0  0  0  0  0  0
   19.8868  -22.8886  -12.2763 C   0  0  0  0  0  0  0  0  0  0  0  0
   19.3732  -23.3151  -10.9199 C   0  0  0  0  0  0  0  0  0  0  0  0
   19.1615  -24.7396  -10.8595 N   0  0  0  0  0  0  0  0  0  0  0  0
   21.7393  -19.4766  -15.1738 C   0  0  0  0  0  0  0  0  0  0  0  0
   20.9926  -19.4049  -16.1715 O   0  0  0  0  0  0  0  0  0  0  0  0
   23.1455  -19.3967  -15.3021 N   0  0  0  0  0  0  0  0  0  0  0  0
   23.8098  -19.1651  -16.5565 C   0  0  0  0  0  0  0  0  0  0  0  0
   23.6558  -17.7378  -16.9817 C   0  0  0  0  0  0  0  0  0  0  0  0
   23.2220  -16.9133  -16.1409 O   0  0  0  0  0  0  0  0  0  0  0  0
   23.9828  -17.3160  -18.2811 N   0  0  0  0  0  0  0  0  0  0  0  0
   23.9126  -15.8535  -18.6693 C   0  0  1  0  0  0  0  0  0  0  0  0
   25.1751  -15.6587  -19.4078 C   0  0  0  0  0  0  0  0  0  0  0  0
   25.7664  -14.3657  -19.6968 C   0  0  0  0  0  0  0  0  0  0  0  0
   26.9558  -14.2136  -20.5613 C   0  0  0  0  0  0  0  0  0  0  0  0
   27.2548  -12.6767  -20.6236 C   0  0  0  0  0  0  0  0  0  0  0  0
   28.3099  -12.4266  -21.5708 N   0  0  0  0  0  0  0  0  0  0  0  0
   22.6483  -15.7575  -19.3917 C   0  0  0  0  0  0  0  0  0  0  0  0
   21.9873  -14.5275  -19.6104 O   0  0  0  0  0  0  0  0  0  0  0  0
   22.0683  -16.7454  -19.8618 O   0  0  0  0  0  0  0  0  0  0  0  0
  2  1  1  6
  3  4  1  0
  3  2  1  0
  5  4  1  0
  5  6  1  0
  7  6  1  0
  8  2  1  0
  8  9  2  0
 10  8  1  0
 11 10  1  0
 11 12  1  0
 12 13  2  0
 12 14  1  0
 14 15  1  0
 15 16  1  6
 15 21  1  0
 17 16  1  0
 18 17  1  0
 19 18  1  0
 20 19  1  0
 21 23  2  0
 21 22  1  0
M  END
$$$$
