KGK.pdb
     RDKit          3D

 23 22  0  0  1  0  0  0  0  0999 V2000
   20.7946  -15.2934  -16.7887 N   0  0  0  0  0  0  0  0  0  0  0  0
   19.4210  -15.0538  -17.1586 C   0  0  1  0  0  0  0  0  0  0  0  0
   18.6578  -16.3373  -16.9104 C   0  0  0  0  0  0  0  0  0  0  0  0
   18.7886  -17.2964  -18.0936 C   0  0  0  0  0  0  0  0  0  0  0  0
   18.0041  -18.5414  -17.7233 C   0  0  0  0  0  0  0  0  0  0  0  0
   18.1639  -19.6274  -18.7626 C   0  0  0  0  0  0  0  0  0  0  0  0
   17.3939  -20.7984  -18.4253 N   0  0  0  0  0  0  0  0  0  0  0  0
   18.8419  -14.0213  -16.2720 C   0  0  0  0  0  0  0  0  0  0  0  0
   18.2868  -14.3718  -15.2104 O   0  0  0  0  0  0  0  0  0  0  0  0
   18.9266  -12.6586  -16.6410 N   0  0  0  0  0  0  0  0  0  0  0  0
   18.5045  -11.5832  -15.7842 C   0  0  0  0  0  0  0  0  0  0  0  0
   18.7022  -10.2607  -16.4576 C   0  0  0  0  0  0  0  0  0  0  0  0
   19.1768  -10.2533  -17.6194 O   0  0  0  0  0  0  0  0  0  0  0  0
   18.3713   -9.0526  -15.8219 N   0  0  0  0  0  0  0  0  0  0  0  0
   18.4294   -7.7353  -16.5674 C   0  0  1  0  0  0  0  0  0  0  0  0
   17.3664   -6.9502  -15.9108 C   0  0  0  0  0  0  0  0  0  0  0  0
   15.9499   -7.0898  -16.1916 C   0  0  0  0  0  0  0  0  0  0  0  0
   14.9233   -6.2680  -15.5165 C   0  0  0  0  0  0  0  0  0  0  0  0
   13.5462   -6.7099  -16.1196 C   0  0  0  0  0  0  0  0  0  0  0  0
   12.5010   -5.8573  -15.6160 N   0  0  0  0  0  0  0  0  0  0  0  0
   19.8187   -7.3187  -16.4063 C   0  0  0  0  0  0  0  0  0  0  0  0
   20.4172   -6.3309  -17.2210 O   0  0  0  0  0  0  0  0  0  0  0  0
   20.5677   -7.8012  -15.5464 O   0  0  0  0  0  0  0  0  0  0  0  0
  2  1  1  1
  3  4  1  0
  3  2  1  0
  5  4  1  0
  5  6  1  0
  7  6  1  0
  8  2  1  0
  8  9  2  0
 10  8  1  0
 11 10  1  0
 11 12  1  0
 12 13  2  0
 12 14  1  0
 14 15  1  0
 15 16  1  1
 15 21  1  0
 17 16  1  0
 18 17  1  0
 19 18  1  0
 20 19  1  0
 21 23  2  0
 21 22  1  0
M  END
$$$$
