KGK.pdb
     RDKit          3D

 23 22  0  0  1  0  0  0  0  0999 V2000
   25.9884  -19.1495  -12.1553 N   0  0  0  0  0  0  0  0  0  0  0  0
   25.8598  -20.5473  -12.4879 C   0  0  1  0  0  0  0  0  0  0  0  0
   24.9549  -21.1753  -11.4495 C   0  0  0  0  0  0  0  0  0  0  0  0
   25.3556  -20.7504  -10.0368 C   0  0  0  0  0  0  0  0  0  0  0  0
   24.5334  -21.6001   -9.0856 C   0  0  0  0  0  0  0  0  0  0  0  0
   24.8572  -21.2884   -7.6422 C   0  0  0  0  0  0  0  0  0  0  0  0
   24.1165  -22.1344   -6.7405 N   0  0  0  0  0  0  0  0  0  0  0  0
   25.1861  -20.6853  -13.7973 C   0  0  0  0  0  0  0  0  0  0  0  0
   25.5641  -21.5759  -14.5858 O   0  0  0  0  0  0  0  0  0  0  0  0
   24.1282  -19.8085  -14.1326 N   0  0  0  0  0  0  0  0  0  0  0  0
   23.3061  -19.9772  -15.3007 C   0  0  0  0  0  0  0  0  0  0  0  0
   23.7731  -19.0866  -16.4100 C   0  0  0  0  0  0  0  0  0  0  0  0
   24.2374  -17.9602  -16.1090 O   0  0  0  0  0  0  0  0  0  0  0  0
   23.7009  -19.4845  -17.7552 N   0  0  0  0  0  0  0  0  0  0  0  0
   24.2767  -18.6205  -18.8582 C   0  0  1  0  0  0  0  0  0  0  0  0
   24.8860  -19.6178  -19.7591 C   0  0  0  0  0  0  0  0  0  0  0  0
   26.0884  -19.3933  -20.5393 C   0  0  0  0  0  0  0  0  0  0  0  0
   26.6380  -20.4118  -21.4590 C   0  0  0  0  0  0  0  0  0  0  0  0
   27.9784  -19.8193  -22.0136 C   0  0  0  0  0  0  0  0  0  0  0  0
   28.6480  -20.8072  -22.8191 N   0  0  0  0  0  0  0  0  0  0  0  0
   23.1235  -17.8572  -19.3242 C   0  0  0  0  0  0  0  0  0  0  0  0
   23.2506  -16.6794  -20.0951 O   0  0  0  0  0  0  0  0  0  0  0  0
   21.9563  -18.1880  -19.0765 O   0  0  0  0  0  0  0  0  0  0  0  0
  2  1  1  1
  3  4  1  0
  3  2  1  0
  5  4  1  0
  5  6  1  0
  7  6  1  0
  8  2  1  0
  8  9  2  0
 10  8  1  0
 11 10  1  0
 11 12  1  0
 12 13  2  0
 12 14  1  0
 14 15  1  0
 15 16  1  6
 15 21  1  0
 17 16  1  0
 18 17  1  0
 19 18  1  0
 20 19  1  0
 21 23  2  0
 21 22  1  0
M  END
$$$$
