KGK.pdb
     RDKit          3D

 23 22  0  0  1  0  0  0  0  0999 V2000
   27.7695  -24.2505  -18.1486 N   0  0  0  0  0  0  0  0  0  0  0  0
   27.2253  -25.1392  -17.1511 C   0  0  1  0  0  0  0  0  0  0  0  0
   28.3898  -25.8646  -16.5115 C   0  0  0  0  0  0  0  0  0  0  0  0
   28.7715  -27.1107  -17.3105 C   0  0  0  0  0  0  0  0  0  0  0  0
   27.7577  -28.1793  -16.9458 C   0  0  0  0  0  0  0  0  0  0  0  0
   28.0611  -29.4901  -17.6350 C   0  0  0  0  0  0  0  0  0  0  0  0
   27.0869  -30.4992  -17.3026 N   0  0  0  0  0  0  0  0  0  0  0  0
   26.5654  -24.3483  -16.0897 C   0  0  0  0  0  0  0  0  0  0  0  0
   25.9407  -24.9422  -15.1870 O   0  0  0  0  0  0  0  0  0  0  0  0
   26.6532  -22.9370  -16.1155 N   0  0  0  0  0  0  0  0  0  0  0  0
   26.1116  -22.0954  -15.0825 C   0  0  0  0  0  0  0  0  0  0  0  0
   24.6768  -21.7711  -15.3617 C   0  0  0  0  0  0  0  0  0  0  0  0
   24.3161  -21.6653  -16.5591 O   0  0  0  0  0  0  0  0  0  0  0  0
   23.7470  -21.5871  -14.3250 N   0  0  0  0  0  0  0  0  0  0  0  0
   22.2939  -21.2807  -14.6231 C   0  0  1  0  0  0  0  0  0  0  0  0
   21.6070  -21.7936  -13.4221 C   0  0  0  0  0  0  0  0  0  0  0  0
   20.2442  -22.2911  -13.4050 C   0  0  0  0  0  0  0  0  0  0  0  0
   19.6008  -22.7975  -12.1743 C   0  0  0  0  0  0  0  0  0  0  0  0
   18.1298  -23.1635  -12.5712 C   0  0  0  0  0  0  0  0  0  0  0  0
   17.3946  -23.5556  -11.3970 N   0  0  0  0  0  0  0  0  0  0  0  0
   22.2982  -19.8435  -14.8761 C   0  0  0  0  0  0  0  0  0  0  0  0
   21.3280  -19.2094  -15.6851 O   0  0  0  0  0  0  0  0  0  0  0  0
   23.1508  -19.0818  -14.4006 O   0  0  0  0  0  0  0  0  0  0  0  0
  2  1  1  6
  3  4  1  0
  3  2  1  0
  5  4  1  0
  5  6  1  0
  7  6  1  0
  8  2  1  0
  8  9  2  0
 10  8  1  0
 11 10  1  0
 11 12  1  0
 12 13  2  0
 12 14  1  0
 14 15  1  0
 15 16  1  1
 15 21  1  0
 17 16  1  0
 18 17  1  0
 19 18  1  0
 20 19  1  0
 21 23  2  0
 21 22  1  0
M  END
$$$$
