KGK.pdb
     RDKit          3D

 23 22  0  0  1  0  0  0  0  0999 V2000
   19.8656  -10.5313  -19.7524 N   0  0  0  0  0  0  0  0  0  0  0  0
   19.5672  -11.4246  -18.6597 C   0  0  1  0  0  0  0  0  0  0  0  0
   20.7928  -12.2836  -18.4332 C   0  0  0  0  0  0  0  0  0  0  0  0
   21.0254  -13.2359  -19.6063 C   0  0  0  0  0  0  0  0  0  0  0  0
   21.6401  -14.4934  -19.0205 C   0  0  0  0  0  0  0  0  0  0  0  0
   21.9565  -15.5088  -20.0949 C   0  0  0  0  0  0  0  0  0  0  0  0
   22.5236  -16.7101  -19.5355 N   0  0  0  0  0  0  0  0  0  0  0  0
   19.3471  -10.6409  -17.4248 C   0  0  0  0  0  0  0  0  0  0  0  0
   18.9959  -11.2319  -16.3830 O   0  0  0  0  0  0  0  0  0  0  0  0
   19.5378   -9.2397  -17.4452 N   0  0  0  0  0  0  0  0  0  0  0  0
   19.2911   -8.3949  -16.3076 C   0  0  0  0  0  0  0  0  0  0  0  0
   18.4656   -7.2084  -16.6982 C   0  0  0  0  0  0  0  0  0  0  0  0
   18.2586   -7.0077  -17.9196 O   0  0  0  0  0  0  0  0  0  0  0  0
   17.9300   -6.3342  -15.7379 N   0  0  0  0  0  0  0  0  0  0  0  0
   17.1924   -5.0771  -16.1499 C   0  0  1  0  0  0  0  0  0  0  0  0
   16.2071   -4.9150  -15.0635 C   0  0  0  0  0  0  0  0  0  0  0  0
   14.7860   -4.7064  -15.2681 C   0  0  0  0  0  0  0  0  0  0  0  0
   13.8410   -4.5306  -14.1450 C   0  0  0  0  0  0  0  0  0  0  0  0
   12.4569   -4.1813  -14.7913 C   0  0  0  0  0  0  0  0  0  0  0  0
   11.4468   -4.1166  -13.7675 N   0  0  0  0  0  0  0  0  0  0  0  0
   18.2595   -4.0915  -16.2901 C   0  0  0  0  0  0  0  0  0  0  0  0
   18.1339   -2.9434  -17.1047 O   0  0  0  0  0  0  0  0  0  0  0  0
   19.3467   -4.1933  -15.7063 O   0  0  0  0  0  0  0  0  0  0  0  0
  2  1  1  6
  3  4  1  0
  3  2  1  0
  5  4  1  0
  5  6  1  0
  7  6  1  0
  8  2  1  0
  8  9  2  0
 10  8  1  0
 11 10  1  0
 11 12  1  0
 12 13  2  0
 12 14  1  0
 14 15  1  0
 15 16  1  1
 15 21  1  0
 17 16  1  0
 18 17  1  0
 19 18  1  0
 20 19  1  0
 21 23  2  0
 21 22  1  0
M  END
$$$$
