KGK.pdb
     RDKit          3D

 23 22  0  0  1  0  0  0  0  0999 V2000
   19.4249  -19.8707  -12.0687 N   0  0  0  0  0  0  0  0  0  0  0  0
   20.1022  -20.9974  -12.6628 C   0  0  1  0  0  0  0  0  0  0  0  0
   21.3314  -20.4633  -13.3665 C   0  0  0  0  0  0  0  0  0  0  0  0
   21.0142  -20.0642  -14.8078 C   0  0  0  0  0  0  0  0  0  0  0  0
   22.3363  -19.6796  -15.4455 C   0  0  0  0  0  0  0  0  0  0  0  0
   22.1545  -19.2499  -16.8834 C   0  0  0  0  0  0  0  0  0  0  0  0
   23.4020  -18.8296  -17.4706 N   0  0  0  0  0  0  0  0  0  0  0  0
   20.5693  -21.9122  -11.5987 C   0  0  0  0  0  0  0  0  0  0  0  0
   21.7954  -22.0605  -11.4179 O   0  0  0  0  0  0  0  0  0  0  0  0
   19.6218  -22.6014  -10.8066 N   0  0  0  0  0  0  0  0  0  0  0  0
   19.9282  -23.1524   -9.5138 C   0  0  0  0  0  0  0  0  0  0  0  0
   18.7074  -23.7577   -8.8933 C   0  0  0  0  0  0  0  0  0  0  0  0
   17.5897  -23.2687   -9.1872 O   0  0  0  0  0  0  0  0  0  0  0  0
   18.7924  -24.8428   -8.0052 N   0  0  0  0  0  0  0  0  0  0  0  0
   17.5591  -25.3849   -7.3128 C   0  0  1  0  0  0  0  0  0  0  0  0
   18.0263  -26.6889   -6.8042 C   0  0  0  0  0  0  0  0  0  0  0  0
   17.1521  -27.7783   -6.4118 C   0  0  0  0  0  0  0  0  0  0  0  0
   17.6692  -29.1010   -6.0016 C   0  0  0  0  0  0  0  0  0  0  0  0
   16.4112  -29.9939   -5.7264 C   0  0  0  0  0  0  0  0  0  0  0  0
   16.8248  -31.3510   -5.4814 N   0  0  0  0  0  0  0  0  0  0  0  0
   17.2195  -24.3340   -6.3589 C   0  0  0  0  0  0  0  0  0  0  0  0
   15.9199  -24.1809   -5.8248 O   0  0  0  0  0  0  0  0  0  0  0  0
   18.0449  -23.5052   -5.9528 O   0  0  0  0  0  0  0  0  0  0  0  0
  2  1  1  1
  3  4  1  0
  3  2  1  0
  5  4  1  0
  5  6  1  0
  7  6  1  0
  8  2  1  0
  8  9  2  0
 10  8  1  0
 11 10  1  0
 11 12  1  0
 12 13  2  0
 12 14  1  0
 14 15  1  0
 15 16  1  1
 15 21  1  0
 17 16  1  0
 18 17  1  0
 19 18  1  0
 20 19  1  0
 21 23  2  0
 21 22  1  0
M  END
$$$$
