KGK.pdb
     RDKit          3D

 23 22  0  0  1  0  0  0  0  0999 V2000
   25.8685  -22.1730  -12.6945 N   0  0  0  0  0  0  0  0  0  0  0  0
   25.5349  -20.7809  -12.5164 C   0  0  1  0  0  0  0  0  0  0  0  0
   25.2602  -20.5692  -11.0429 C   0  0  0  0  0  0  0  0  0  0  0  0
   24.0558  -21.3897  -10.5811 C   0  0  0  0  0  0  0  0  0  0  0  0
   23.7292  -20.9161   -9.1769 C   0  0  0  0  0  0  0  0  0  0  0  0
   22.5631  -21.6792   -8.5912 C   0  0  0  0  0  0  0  0  0  0  0  0
   22.2512  -21.2259   -7.2589 N   0  0  0  0  0  0  0  0  0  0  0  0
   26.7010  -19.9426  -12.8696 C   0  0  0  0  0  0  0  0  0  0  0  0
   27.8127  -20.2019  -12.3647 O   0  0  0  0  0  0  0  0  0  0  0  0
   26.5373  -18.8649  -13.7706 N   0  0  0  0  0  0  0  0  0  0  0  0
   27.6371  -18.2268  -14.4430 C   0  0  0  0  0  0  0  0  0  0  0  0
   27.1541  -17.4488  -15.6275 C   0  0  0  0  0  0  0  0  0  0  0  0
   27.9943  -17.1108  -16.4962 O   0  0  0  0  0  0  0  0  0  0  0  0
   25.8021  -17.0985  -15.7783 N   0  0  0  0  0  0  0  0  0  0  0  0
   25.1444  -17.0887  -17.1427 C   0  0  1  0  0  0  0  0  0  0  0  0
   25.1703  -18.5152  -17.5194 C   0  0  0  0  0  0  0  0  0  0  0  0
   24.5691  -19.0577  -18.7232 C   0  0  0  0  0  0  0  0  0  0  0  0
   24.5856  -20.5025  -19.0354 C   0  0  0  0  0  0  0  0  0  0  0  0
   23.8255  -20.6624  -20.3963 C   0  0  0  0  0  0  0  0  0  0  0  0
   23.7658  -22.0550  -20.7571 N   0  0  0  0  0  0  0  0  0  0  0  0
   23.8583  -16.4465  -16.8917 C   0  0  0  0  0  0  0  0  0  0  0  0
   23.1719  -16.5706  -15.6623 O   0  0  0  0  0  0  0  0  0  0  0  0
   23.2805  -15.7501  -17.7369 O   0  0  0  0  0  0  0  0  0  0  0  0
  2  1  1  1
  3  4  1  0
  3  2  1  0
  5  4  1  0
  5  6  1  0
  7  6  1  0
  8  2  1  0
  8  9  2  0
 10  8  1  0
 11 10  1  0
 11 12  1  0
 12 13  2  0
 12 14  1  0
 14 15  1  0
 15 16  1  1
 15 21  1  0
 17 16  1  0
 18 17  1  0
 19 18  1  0
 20 19  1  0
 21 23  2  0
 21 22  1  0
M  END
$$$$
