KGK.pdb
     RDKit          3D

 23 22  0  0  1  0  0  0  0  0999 V2000
   28.1634  -22.3409  -16.2692 N   0  0  0  0  0  0  0  0  0  0  0  0
   29.1718  -21.3959  -16.6829 C   0  0  1  0  0  0  0  0  0  0  0  0
   29.6490  -21.8194  -18.0556 C   0  0  0  0  0  0  0  0  0  0  0  0
   30.3695  -23.1665  -17.9997 C   0  0  0  0  0  0  0  0  0  0  0  0
   30.8781  -23.4377  -19.4034 C   0  0  0  0  0  0  0  0  0  0  0  0
   31.6061  -24.7601  -19.4838 C   0  0  0  0  0  0  0  0  0  0  0  0
   32.1167  -25.0019  -20.8100 N   0  0  0  0  0  0  0  0  0  0  0  0
   28.5656  -20.0543  -16.8243 C   0  0  0  0  0  0  0  0  0  0  0  0
   29.2033  -19.1568  -17.4124 O   0  0  0  0  0  0  0  0  0  0  0  0
   27.2778  -19.8118  -16.2926 N   0  0  0  0  0  0  0  0  0  0  0  0
   26.2446  -19.1205  -17.0161 C   0  0  0  0  0  0  0  0  0  0  0  0
   24.9802  -19.0707  -16.2157 C   0  0  0  0  0  0  0  0  0  0  0  0
   24.9419  -19.6990  -15.1300 O   0  0  0  0  0  0  0  0  0  0  0  0
   23.8589  -18.3461  -16.6525 N   0  0  0  0  0  0  0  0  0  0  0  0
   22.5279  -18.4595  -15.9384 C   0  0  1  0  0  0  0  0  0  0  0  0
   21.7421  -17.3730  -16.5544 C   0  0  0  0  0  0  0  0  0  0  0  0
   20.4032  -16.9935  -16.1441 C   0  0  0  0  0  0  0  0  0  0  0  0
   19.6361  -15.9307  -16.8278 C   0  0  0  0  0  0  0  0  0  0  0  0
   18.2759  -15.8126  -16.0590 C   0  0  0  0  0  0  0  0  0  0  0  0
   17.5032  -14.7276  -16.6057 N   0  0  0  0  0  0  0  0  0  0  0  0
   22.1330  -19.8433  -16.1805 C   0  0  0  0  0  0  0  0  0  0  0  0
   22.6184  -20.5936  -17.2755 O   0  0  0  0  0  0  0  0  0  0  0  0
   21.3465  -20.4544  -15.4448 O   0  0  0  0  0  0  0  0  0  0  0  0
  2  1  1  6
  3  4  1  0
  3  2  1  0
  5  4  1  0
  5  6  1  0
  7  6  1  0
  8  2  1  0
  8  9  2  0
 10  8  1  0
 11 10  1  0
 11 12  1  0
 12 13  2  0
 12 14  1  0
 14 15  1  0
 15 16  1  6
 15 21  1  0
 17 16  1  0
 18 17  1  0
 19 18  1  0
 20 19  1  0
 21 23  2  0
 21 22  1  0
M  END
$$$$
