KGK.pdb
     RDKit          3D

 23 22  0  0  1  0  0  0  0  0999 V2000
   17.3159  -23.0358   -8.3503 N   0  0  0  0  0  0  0  0  0  0  0  0
   17.2153  -24.3984   -8.8131 C   0  0  1  0  0  0  0  0  0  0  0  0
   18.5506  -24.7656   -9.4242 C   0  0  0  0  0  0  0  0  0  0  0  0
   18.7557  -24.0653  -10.7675 C   0  0  0  0  0  0  0  0  0  0  0  0
   19.3468  -25.1024  -11.7043 C   0  0  0  0  0  0  0  0  0  0  0  0
   19.6343  -24.5180  -13.0685 C   0  0  0  0  0  0  0  0  0  0  0  0
   20.1725  -25.5101  -13.9651 N   0  0  0  0  0  0  0  0  0  0  0  0
   16.9987  -25.2987   -7.6599 C   0  0  0  0  0  0  0  0  0  0  0  0
   16.8489  -26.5214   -7.8616 O   0  0  0  0  0  0  0  0  0  0  0  0
   16.9651  -24.7609   -6.3523 N   0  0  0  0  0  0  0  0  0  0  0  0
   16.2414  -25.3699   -5.2688 C   0  0  0  0  0  0  0  0  0  0  0  0
   17.1833  -25.8712   -4.2185 C   0  0  0  0  0  0  0  0  0  0  0  0
   18.4157  -25.7553   -4.4247 O   0  0  0  0  0  0  0  0  0  0  0  0
   16.7180  -26.4575   -3.0298 N   0  0  0  0  0  0  0  0  0  0  0  0
   17.6663  -26.7793   -1.8933 C   0  0  1  0  0  0  0  0  0  0  0  0
   16.8279  -26.5436   -0.7021 C   0  0  0  0  0  0  0  0  0  0  0  0
   17.3455  -26.2602    0.6233 C   0  0  0  0  0  0  0  0  0  0  0  0
   16.4632  -26.0552    1.7916 C   0  0  0  0  0  0  0  0  0  0  0  0
   17.4004  -25.6432    2.9778 C   0  0  0  0  0  0  0  0  0  0  0  0
   16.6107  -25.3981    4.1564 N   0  0  0  0  0  0  0  0  0  0  0  0
   18.1022  -28.1392   -2.1938 C   0  0  0  0  0  0  0  0  0  0  0  0
   19.3482  -28.6517   -1.7667 O   0  0  0  0  0  0  0  0  0  0  0  0
   17.4119  -28.9363   -2.8428 O   0  0  0  0  0  0  0  0  0  0  0  0
  2  1  1  1
  3  4  1  0
  3  2  1  0
  5  4  1  0
  5  6  1  0
  7  6  1  0
  8  2  1  0
  8  9  2  0
 10  8  1  0
 11 10  1  0
 11 12  1  0
 12 13  2  0
 12 14  1  0
 14 15  1  0
 15 16  1  1
 15 21  1  0
 17 16  1  0
 18 17  1  0
 19 18  1  0
 20 19  1  0
 21 23  2  0
 21 22  1  0
M  END
$$$$
