KGK.pdb
     RDKit          3D

 23 22  0  0  1  0  0  0  0  0999 V2000
   14.6188  -23.5155   -3.3512 N   0  0  0  0  0  0  0  0  0  0  0  0
   14.2138  -23.5129   -1.9667 C   0  0  1  0  0  0  0  0  0  0  0  0
   14.2414  -24.9484   -1.4872 C   0  0  0  0  0  0  0  0  0  0  0  0
   13.5681  -25.8811   -2.4940 C   0  0  0  0  0  0  0  0  0  0  0  0
   12.7281  -26.8504   -1.6832 C   0  0  0  0  0  0  0  0  0  0  0  0
   11.9443  -27.7859   -2.5753 C   0  0  0  0  0  0  0  0  0  0  0  0
   11.1396  -28.7001   -1.8043 N   0  0  0  0  0  0  0  0  0  0  0  0
   15.2029  -22.7632   -1.1624 C   0  0  0  0  0  0  0  0  0  0  0  0
   16.3859  -22.7004   -1.5558 O   0  0  0  0  0  0  0  0  0  0  0  0
   14.7931  -22.1320    0.0350 N   0  0  0  0  0  0  0  0  0  0  0  0
   15.6619  -21.3006    0.8241 C   0  0  0  0  0  0  0  0  0  0  0  0
   14.9658  -20.8351    2.0652 C   0  0  0  0  0  0  0  0  0  0  0  0
   13.7621  -21.1529    2.2233 O   0  0  0  0  0  0  0  0  0  0  0  0
   15.6261  -20.0636    3.0359 N   0  0  0  0  0  0  0  0  0  0  0  0
   14.8925  -19.5481    4.2567 C   0  0  1  0  0  0  0  0  0  0  0  0
   15.5370  -20.2943    5.3546 C   0  0  0  0  0  0  0  0  0  0  0  0
   15.1036  -20.2562    6.7387 C   0  0  0  0  0  0  0  0  0  0  0  0
   15.7709  -21.0394    7.8000 C   0  0  0  0  0  0  0  0  0  0  0  0
   14.9293  -20.8132    9.1022 C   0  0  0  0  0  0  0  0  0  0  0  0
   15.5339  -21.5235   10.1990 N   0  0  0  0  0  0  0  0  0  0  0  0
   15.0811  -18.1032    4.1772 C   0  0  0  0  0  0  0  0  0  0  0  0
   14.1864  -17.1843    4.7713 O   0  0  0  0  0  0  0  0  0  0  0  0
   16.0360  -17.5835    3.5845 O   0  0  0  0  0  0  0  0  0  0  0  0
  2  1  1  6
  3  4  1  0
  3  2  1  0
  5  4  1  0
  5  6  1  0
  7  6  1  0
  8  2  1  0
  8  9  2  0
 10  8  1  0
 11 10  1  0
 11 12  1  0
 12 13  2  0
 12 14  1  0
 14 15  1  0
 15 16  1  1
 15 21  1  0
 17 16  1  0
 18 17  1  0
 19 18  1  0
 20 19  1  0
 21 23  2  0
 21 22  1  0
M  END
$$$$
