MKF.pdb
     RDKit          3D

 29 29  0  0  1  0  0  0  0  0999 V2000
    8.7253  -11.5965   19.7629 C   0  0  0  0  0  0  0  0  0  0  0  0
    7.6128  -12.3854   18.5625 S   0  0  0  0  0  0  0  0  0  0  0  0
    7.6905  -14.1950   18.7005 C   0  0  0  0  0  0  0  0  0  0  0  0
    7.0321  -14.5913   20.0013 C   0  0  0  0  0  0  0  0  0  0  0  0
    8.0242  -15.4101   20.8117 C   0  0  2  0  0  0  0  0  0  0  0  0
    8.4216  -16.5793   20.0843 N   0  0  0  0  0  0  0  0  0  0  0  0
    7.4243  -15.8121   22.0993 C   0  0  0  0  0  0  0  0  0  0  0  0
    6.8883  -14.9852   22.8920 O   0  0  0  0  0  0  0  0  0  0  0  0
    7.4244  -17.1730   22.5098 N   0  0  0  0  0  0  0  0  0  0  0  0
    6.9874  -17.6118   23.8203 C   0  0  1  0  0  0  0  0  0  0  0  0
    6.9951  -19.1495   23.7503 C   0  0  0  0  0  0  0  0  0  0  0  0
    5.8029  -19.6390   22.9725 C   0  0  0  0  0  0  0  0  0  0  0  0
    5.8671  -21.1366   22.8448 C   0  0  0  0  0  0  0  0  0  0  0  0
    4.7193  -21.6623   22.0606 C   0  0  0  0  0  0  0  0  0  0  0  0
    4.7618  -23.0997   21.8778 N   0  0  0  0  0  0  0  0  0  0  0  0
    8.0051  -17.2613   24.8281 C   0  0  0  0  0  0  0  0  0  0  0  0
    9.2135  -17.3937   24.5504 O   0  0  0  0  0  0  0  0  0  0  0  0
    7.6416  -16.7779   26.1046 N   0  0  0  0  0  0  0  0  0  0  0  0
    8.6984  -16.4843   27.0621 C   0  0  1  0  0  0  0  0  0  0  0  0
    8.3158  -15.3729   27.9823 C   0  0  0  0  0  0  0  0  0  0  0  0
    7.9149  -14.1753   27.2126 C   0  0  0  0  0  0  0  0  0  0  0  0
    6.8076  -14.2024   26.3669 C   0  0  0  0  0  0  0  0  0  0  0  0
    6.4068  -13.0954   25.6649 C   0  0  0  0  0  0  0  0  0  0  0  0
    7.1073  -11.9138   25.7871 C   0  0  0  0  0  0  0  0  0  0  0  0
    8.2057  -11.8857   26.6259 C   0  0  0  0  0  0  0  0  0  0  0  0
    8.6016  -12.9815   27.3203 C   0  0  0  0  0  0  0  0  0  0  0  0
    9.0266  -17.7164   27.7989 C   0  0  0  0  0  0  0  0  0  0  0  0
    9.9380  -17.7800   28.6418 O   0  0  0  0  0  0  0  0  0  0  0  0
    8.2874  -18.8961   27.5567 O   0  0  0  0  0  0  0  0  0  0  0  0
  2  1  1  0
  3  2  1  0
  4  5  1  0
  4  3  1  0
  5  6  1  6
  7  5  1  0
  7  8  2  0
  9  7  1  0
 10  9  1  0
 10 11  1  6
 12 11  1  0
 12 13  1  0
 13 14  1  0
 14 15  1  0
 16 18  1  0
 16 10  1  0
 17 16  2  0
 19 18  1  0
 19 27  1  0
 19 20  1  1
 21 20  1  0
 21 22  2  0
 23 22  1  0
 24 23  2  0
 25 26  2  0
 25 24  1  0
 26 21  1  0
 27 29  1  0
 28 27  2  0
M  END
$$$$
