MKF.pdb
     RDKit          3D

 29 29  0  0  1  0  0  0  0  0999 V2000
    6.6692  -11.4489   26.1872 C   0  0  0  0  0  0  0  0  0  0  0  0
    5.2340  -12.5155   25.8656 S   0  0  0  0  0  0  0  0  0  0  0  0
    5.4873  -14.1707   26.5699 C   0  0  0  0  0  0  0  0  0  0  0  0
    6.7620  -14.7345   25.9870 C   0  0  0  0  0  0  0  0  0  0  0  0
    6.3965  -15.8553   25.0271 C   0  0  2  0  0  0  0  0  0  0  0  0
    5.6679  -16.8831   25.7106 N   0  0  0  0  0  0  0  0  0  0  0  0
    7.6155  -16.4327   24.4270 C   0  0  0  0  0  0  0  0  0  0  0  0
    8.2314  -17.4120   24.9378 O   0  0  0  0  0  0  0  0  0  0  0  0
    8.1583  -15.9010   23.2257 N   0  0  0  0  0  0  0  0  0  0  0  0
    9.3480  -16.4264   22.5859 C   0  0  1  0  0  0  0  0  0  0  0  0
    9.3878  -15.7542   21.2017 C   0  0  0  0  0  0  0  0  0  0  0  0
    8.6517  -14.4418   21.2415 C   0  0  0  0  0  0  0  0  0  0  0  0
    8.6548  -13.8226   19.8704 C   0  0  0  0  0  0  0  0  0  0  0  0
    7.7739  -12.6268   19.8149 C   0  0  0  0  0  0  0  0  0  0  0  0
    7.7639  -11.9834   18.5159 N   0  0  0  0  0  0  0  0  0  0  0  0
   10.5487  -15.9407   23.2909 C   0  0  0  0  0  0  0  0  0  0  0  0
   11.0181  -14.8221   23.0023 O   0  0  0  0  0  0  0  0  0  0  0  0
   11.1810  -16.7157   24.2882 N   0  0  0  0  0  0  0  0  0  0  0  0
   12.4793  -16.2822   24.7845 C   0  0  1  0  0  0  0  0  0  0  0  0
   12.5927  -16.4607   26.2622 C   0  0  0  0  0  0  0  0  0  0  0  0
   11.6418  -15.5745   26.9675 C   0  0  0  0  0  0  0  0  0  0  0  0
   11.8495  -14.1977   27.0239 C   0  0  0  0  0  0  0  0  0  0  0  0
   10.9663  -13.3583   27.6519 C   0  0  0  0  0  0  0  0  0  0  0  0
    9.8355  -13.8738   28.2498 C   0  0  0  0  0  0  0  0  0  0  0  0
    9.6283  -15.2394   28.1943 C   0  0  0  0  0  0  0  0  0  0  0  0
   10.5027  -16.0693   27.5726 C   0  0  0  0  0  0  0  0  0  0  0  0
   13.5323  -17.0159   24.0622 C   0  0  0  0  0  0  0  0  0  0  0  0
   13.2904  -17.8342   23.1583 O   0  0  0  0  0  0  0  0  0  0  0  0
   14.8894  -16.7993   24.3912 O   0  0  0  0  0  0  0  0  0  0  0  0
  2  1  1  0
  3  2  1  0
  4  5  1  0
  4  3  1  0
  5  6  1  1
  7  5  1  0
  7  8  2  0
  9  7  1  0
 10  9  1  0
 10 11  1  6
 12 11  1  0
 12 13  1  0
 13 14  1  0
 14 15  1  0
 16 18  1  0
 16 10  1  0
 17 16  2  0
 19 18  1  0
 19 27  1  0
 19 20  1  1
 21 20  1  0
 21 22  2  0
 23 22  1  0
 24 23  2  0
 25 26  2  0
 25 24  1  0
 26 21  1  0
 27 29  1  0
 28 27  2  0
M  END
$$$$
