MKF.pdb
     RDKit          3D

 29 29  0  0  1  0  0  0  0  0999 V2000
    7.7634  -11.3914   20.1886 C   0  0  0  0  0  0  0  0  0  0  0  0
    8.3946  -12.7164   19.1178 S   0  0  0  0  0  0  0  0  0  0  0  0
    7.0938  -13.9322   18.7576 C   0  0  0  0  0  0  0  0  0  0  0  0
    6.6985  -14.5901   20.0590 C   0  0  0  0  0  0  0  0  0  0  0  0
    7.9531  -15.1367   20.7212 C   0  0  2  0  0  0  0  0  0  0  0  0
    8.6669  -15.9888   19.8164 N   0  0  0  0  0  0  0  0  0  0  0  0
    7.6003  -15.8960   21.9370 C   0  0  0  0  0  0  0  0  0  0  0  0
    6.7127  -15.5100   22.7511 O   0  0  0  0  0  0  0  0  0  0  0  0
    8.2570  -17.1174   22.2495 N   0  0  0  0  0  0  0  0  0  0  0  0
    8.0133  -17.8665   23.4662 C   0  0  1  0  0  0  0  0  0  0  0  0
    8.6455  -19.2480   23.2187 C   0  0  0  0  0  0  0  0  0  0  0  0
    8.4116  -20.1451   24.4047 C   0  0  0  0  0  0  0  0  0  0  0  0
    8.9812  -21.5086   24.1229 C   0  0  0  0  0  0  0  0  0  0  0  0
    8.7829  -22.4263   25.2750 C   0  0  0  0  0  0  0  0  0  0  0  0
    8.1635  -23.6836   24.9049 N   0  0  0  0  0  0  0  0  0  0  0  0
    8.7839  -17.2773   24.5768 C   0  0  0  0  0  0  0  0  0  0  0  0
    9.9605  -16.9135   24.3810 O   0  0  0  0  0  0  0  0  0  0  0  0
    8.2184  -17.1152   25.8610 N   0  0  0  0  0  0  0  0  0  0  0  0
    8.9903  -16.4111   26.8750 C   0  0  1  0  0  0  0  0  0  0  0  0
    8.1210  -15.5512   27.7315 C   0  0  0  0  0  0  0  0  0  0  0  0
    7.5934  -14.4085   26.9551 C   0  0  0  0  0  0  0  0  0  0  0  0
    8.3211  -13.2264   26.8320 C   0  0  0  0  0  0  0  0  0  0  0  0
    7.8590  -12.1662   26.0962 C   0  0  0  0  0  0  0  0  0  0  0  0
    6.6422  -12.2546   25.4533 C   0  0  0  0  0  0  0  0  0  0  0  0
    5.9195  -13.4268   25.5745 C   0  0  0  0  0  0  0  0  0  0  0  0
    6.3776  -14.4755   26.3027 C   0  0  0  0  0  0  0  0  0  0  0  0
    9.7387  -17.3980   27.6716 C   0  0  0  0  0  0  0  0  0  0  0  0
   10.5541  -17.0791   28.5540 O   0  0  0  0  0  0  0  0  0  0  0  0
    9.5406  -18.7784   27.4437 O   0  0  0  0  0  0  0  0  0  0  0  0
  2  1  1  0
  3  2  1  0
  4  5  1  0
  4  3  1  0
  5  6  1  6
  7  5  1  0
  7  8  2  0
  9  7  1  0
 10  9  1  0
 10 11  1  6
 12 11  1  0
 12 13  1  0
 13 14  1  0
 14 15  1  0
 16 18  1  0
 16 10  1  0
 17 16  2  0
 19 18  1  0
 19 27  1  0
 19 20  1  1
 21 20  1  0
 21 22  2  0
 23 22  1  0
 24 23  2  0
 25 26  2  0
 25 24  1  0
 26 21  1  0
 27 29  1  0
 28 27  2  0
M  END
$$$$
