MKF.pdb
     RDKit          3D

 29 29  0  0  1  0  0  0  0  0999 V2000
    7.5560  -12.0594   19.9473 C   0  0  0  0  0  0  0  0  0  0  0  0
    8.1113  -13.0378   18.5207 S   0  0  0  0  0  0  0  0  0  0  0  0
    7.6501  -14.7841   18.7148 C   0  0  0  0  0  0  0  0  0  0  0  0
    7.4074  -15.0409   20.1837 C   0  0  0  0  0  0  0  0  0  0  0  0
    6.9368  -16.4771   20.3487 C   0  0  2  0  0  0  0  0  0  0  0  0
    5.7292  -16.6972   19.6088 N   0  0  0  0  0  0  0  0  0  0  0  0
    6.7014  -16.7775   21.7748 C   0  0  0  0  0  0  0  0  0  0  0  0
    5.6533  -16.4195   22.3853 O   0  0  0  0  0  0  0  0  0  0  0  0
    7.6627  -17.4963   22.5364 N   0  0  0  0  0  0  0  0  0  0  0  0
    7.5279  -17.7506   23.9570 C   0  0  1  0  0  0  0  0  0  0  0  0
    7.5186  -19.2841   24.0896 C   0  0  0  0  0  0  0  0  0  0  0  0
    6.1852  -19.8337   23.6586 C   0  0  0  0  0  0  0  0  0  0  0  0
    6.2276  -21.3371   23.6907 C   0  0  0  0  0  0  0  0  0  0  0  0
    4.9622  -21.9250   23.1788 C   0  0  0  0  0  0  0  0  0  0  0  0
    4.9673  -23.3746   23.1699 N   0  0  0  0  0  0  0  0  0  0  0  0
    8.7447  -17.3047   24.6605 C   0  0  0  0  0  0  0  0  0  0  0  0
    9.8592  -17.7081   24.2728 O   0  0  0  0  0  0  0  0  0  0  0  0
    8.6767  -16.4291   25.7667 N   0  0  0  0  0  0  0  0  0  0  0  0
    9.9205  -16.0090   26.3964 C   0  0  1  0  0  0  0  0  0  0  0  0
   10.2122  -14.5685   26.1346 C   0  0  0  0  0  0  0  0  0  0  0  0
    9.0185  -13.7386   26.4056 C   0  0  0  0  0  0  0  0  0  0  0  0
    8.9100  -12.9984   27.5813 C   0  0  0  0  0  0  0  0  0  0  0  0
    7.8223  -12.2047   27.8383 C   0  0  0  0  0  0  0  0  0  0  0  0
    6.7978  -12.1247   26.9186 C   0  0  0  0  0  0  0  0  0  0  0  0
    6.9044  -12.8584   25.7518 C   0  0  0  0  0  0  0  0  0  0  0  0
    7.9811  -13.6434   25.4983 C   0  0  0  0  0  0  0  0  0  0  0  0
    9.8435  -16.2984   27.8383 C   0  0  0  0  0  0  0  0  0  0  0  0
   10.7537  -16.0155   28.6362 O   0  0  0  0  0  0  0  0  0  0  0  0
    8.6931  -16.9262   28.3669 O   0  0  0  0  0  0  0  0  0  0  0  0
  2  1  1  0
  3  2  1  0
  4  5  1  0
  4  3  1  0
  5  6  1  6
  7  5  1  0
  7  8  2  0
  9  7  1  0
 10  9  1  0
 10 11  1  6
 12 11  1  0
 12 13  1  0
 13 14  1  0
 14 15  1  0
 16 18  1  0
 16 10  1  0
 17 16  2  0
 19 18  1  0
 19 27  1  0
 19 20  1  1
 21 20  1  0
 21 22  2  0
 23 22  1  0
 24 23  2  0
 25 26  2  0
 25 24  1  0
 26 21  1  0
 27 29  1  0
 28 27  2  0
M  END
$$$$
