MKF.pdb
     RDKit          3D

 29 29  0  0  1  0  0  0  0  0999 V2000
    7.1236  -13.8074   16.7772 C   0  0  0  0  0  0  0  0  0  0  0  0
    8.2407  -12.8357   17.8302 S   0  0  0  0  0  0  0  0  0  0  0  0
    7.3835  -12.2597   19.3246 C   0  0  0  0  0  0  0  0  0  0  0  0
    7.0949  -13.4646   20.1892 C   0  0  0  0  0  0  0  0  0  0  0  0
    8.3447  -13.7904   20.9912 C   0  0  2  0  0  0  0  0  0  0  0  0
    9.3903  -14.2503   20.1255 N   0  0  0  0  0  0  0  0  0  0  0  0
    8.0494  -14.8274   21.9996 C   0  0  0  0  0  0  0  0  0  0  0  0
    7.1168  -14.7126   22.8460 O   0  0  0  0  0  0  0  0  0  0  0  0
    8.8168  -16.0224   22.0622 N   0  0  0  0  0  0  0  0  0  0  0  0
    8.6347  -17.0357   23.0824 C   0  0  1  0  0  0  0  0  0  0  0  0
    9.5363  -18.2058   22.6492 C   0  0  0  0  0  0  0  0  0  0  0  0
    8.8802  -18.9824   21.5391 C   0  0  0  0  0  0  0  0  0  0  0  0
    7.6083  -19.6055   22.0460 C   0  0  0  0  0  0  0  0  0  0  0  0
    6.9097  -20.3588   20.9720 C   0  0  0  0  0  0  0  0  0  0  0  0
    5.7016  -21.0176   21.4282 N   0  0  0  0  0  0  0  0  0  0  0  0
    9.1963  -16.5621   24.3609 C   0  0  0  0  0  0  0  0  0  0  0  0
   10.3453  -16.0779   24.3836 O   0  0  0  0  0  0  0  0  0  0  0  0
    8.4607  -16.6446   25.5639 N   0  0  0  0  0  0  0  0  0  0  0  0
    9.0823  -16.1676   26.7912 C   0  0  1  0  0  0  0  0  0  0  0  0
    8.1249  -15.3826   27.6252 C   0  0  0  0  0  0  0  0  0  0  0  0
    7.6493  -14.1915   26.8889 C   0  0  0  0  0  0  0  0  0  0  0  0
    8.4568  -13.0646   26.7474 C   0  0  0  0  0  0  0  0  0  0  0  0
    8.0422  -11.9612   26.0476 C   0  0  0  0  0  0  0  0  0  0  0  0
    6.7942  -11.9490   25.4608 C   0  0  0  0  0  0  0  0  0  0  0  0
    5.9924  -13.0664   25.6003 C   0  0  0  0  0  0  0  0  0  0  0  0
    6.4035  -14.1578   26.2929 C   0  0  0  0  0  0  0  0  0  0  0  0
    9.6292  -17.3212   27.5253 C   0  0  0  0  0  0  0  0  0  0  0  0
   10.2773  -17.2083   28.5799 O   0  0  0  0  0  0  0  0  0  0  0  0
    9.4226  -18.6288   27.0308 O   0  0  0  0  0  0  0  0  0  0  0  0
  2  1  1  0
  3  2  1  0
  4  5  1  0
  4  3  1  0
  5  6  1  6
  7  5  1  0
  7  8  2  0
  9  7  1  0
 10  9  1  0
 10 11  1  6
 12 11  1  0
 12 13  1  0
 13 14  1  0
 14 15  1  0
 16 18  1  0
 16 10  1  0
 17 16  2  0
 19 18  1  0
 19 27  1  0
 19 20  1  1
 21 20  1  0
 21 22  2  0
 23 22  1  0
 24 23  2  0
 25 26  2  0
 25 24  1  0
 26 21  1  0
 27 29  1  0
 28 27  2  0
M  END
$$$$
