MKF.pdb
     RDKit          3D

 29 29  0  0  1  0  0  0  0  0999 V2000
    6.9006  -12.4513   27.1497 C   0  0  0  0  0  0  0  0  0  0  0  0
    5.3472  -13.3640   26.9154 S   0  0  0  0  0  0  0  0  0  0  0  0
    5.6407  -15.1566   26.9340 C   0  0  0  0  0  0  0  0  0  0  0  0
    6.7903  -15.4496   25.9985 C   0  0  0  0  0  0  0  0  0  0  0  0
    6.3047  -16.4147   24.9288 C   0  0  2  0  0  0  0  0  0  0  0  0
    6.0565  -17.7076   25.4953 N   0  0  0  0  0  0  0  0  0  0  0  0
    7.3090  -16.5336   23.8533 C   0  0  0  0  0  0  0  0  0  0  0  0
    8.1066  -17.5112   23.7673 O   0  0  0  0  0  0  0  0  0  0  0  0
    7.4233  -15.5337   22.8494 N   0  0  0  0  0  0  0  0  0  0  0  0
    8.3479  -15.6216   21.7366 C   0  0  1  0  0  0  0  0  0  0  0  0
    8.0219  -14.4069   20.8489 C   0  0  0  0  0  0  0  0  0  0  0  0
    8.6631  -14.5663   19.4964 C   0  0  0  0  0  0  0  0  0  0  0  0
    8.2394  -13.4324   18.6031 C   0  0  0  0  0  0  0  0  0  0  0  0
    8.8328  -13.5617   17.2466 C   0  0  0  0  0  0  0  0  0  0  0  0
    8.4305  -12.5021   16.3428 N   0  0  0  0  0  0  0  0  0  0  0  0
    9.7250  -15.3983   22.2141 C   0  0  0  0  0  0  0  0  0  0  0  0
   10.2963  -14.3206   21.9548 O   0  0  0  0  0  0  0  0  0  0  0  0
   10.4139  -16.3799   22.9605 N   0  0  0  0  0  0  0  0  0  0  0  0
   10.8896  -16.0320   24.2918 C   0  0  1  0  0  0  0  0  0  0  0  0
    9.7983  -15.4620   25.1360 C   0  0  0  0  0  0  0  0  0  0  0  0
   10.3416  -14.9517   26.4133 C   0  0  0  0  0  0  0  0  0  0  0  0
   10.5076  -15.7941   27.5110 C   0  0  0  0  0  0  0  0  0  0  0  0
   11.0324  -15.3443   28.6948 C   0  0  0  0  0  0  0  0  0  0  0  0
   11.4120  -14.0245   28.8204 C   0  0  0  0  0  0  0  0  0  0  0  0
   11.2480  -13.1880   27.7321 C   0  0  0  0  0  0  0  0  0  0  0  0
   10.7287  -13.6339   26.5611 C   0  0  0  0  0  0  0  0  0  0  0  0
   11.4907  -17.2269   24.9080 C   0  0  0  0  0  0  0  0  0  0  0  0
   11.0449  -18.3746   24.7375 O   0  0  0  0  0  0  0  0  0  0  0  0
   12.6278  -17.0920   25.7360 O   0  0  0  0  0  0  0  0  0  0  0  0
  2  1  1  0
  3  2  1  0
  4  5  1  0
  4  3  1  0
  5  6  1  1
  7  5  1  0
  7  8  2  0
  9  7  1  0
 10  9  1  0
 10 11  1  6
 12 11  1  0
 12 13  1  0
 13 14  1  0
 14 15  1  0
 16 18  1  0
 16 10  1  0
 17 16  2  0
 19 18  1  0
 19 27  1  0
 19 20  1  1
 21 20  1  0
 21 22  2  0
 23 22  1  0
 24 23  2  0
 25 26  2  0
 25 24  1  0
 26 21  1  0
 27 29  1  0
 28 27  2  0
M  END
$$$$
