MKF.pdb
     RDKit          3D

 29 29  0  0  1  0  0  0  0  0999 V2000
    8.9391  -11.2422   20.4978 C   0  0  0  0  0  0  0  0  0  0  0  0
    8.0650  -11.8477   19.0247 S   0  0  0  0  0  0  0  0  0  0  0  0
    8.1537  -13.6590   18.9184 C   0  0  0  0  0  0  0  0  0  0  0  0
    7.9694  -14.2164   20.3105 C   0  0  0  0  0  0  0  0  0  0  0  0
    8.0569  -15.7324   20.2361 C   0  0  2  0  0  0  0  0  0  0  0  0
    7.0365  -16.2518   19.3741 N   0  0  0  0  0  0  0  0  0  0  0  0
    7.9094  -16.3199   21.5824 C   0  0  0  0  0  0  0  0  0  0  0  0
    6.7873  -16.4581   22.1492 O   0  0  0  0  0  0  0  0  0  0  0  0
    9.0457  -16.7635   22.3123 N   0  0  0  0  0  0  0  0  0  0  0  0
    8.9577  -17.4718   23.5738 C   0  0  1  0  0  0  0  0  0  0  0  0
    9.9147  -18.6687   23.4280 C   0  0  0  0  0  0  0  0  0  0  0  0
    9.4694  -19.5533   22.2944 C   0  0  0  0  0  0  0  0  0  0  0  0
   10.3580  -20.7652   22.2244 C   0  0  0  0  0  0  0  0  0  0  0  0
   10.0029  -21.6303   21.0692 C   0  0  0  0  0  0  0  0  0  0  0  0
   10.8671  -22.7861   20.9331 N   0  0  0  0  0  0  0  0  0  0  0  0
    9.5294  -16.6433   24.6514 C   0  0  0  0  0  0  0  0  0  0  0  0
   10.4798  -15.8773   24.3967 O   0  0  0  0  0  0  0  0  0  0  0  0
    9.0238  -16.6978   25.9692 N   0  0  0  0  0  0  0  0  0  0  0  0
    9.6737  -15.8947   26.9952 C   0  0  1  0  0  0  0  0  0  0  0  0
    8.6814  -15.2841   27.9284 C   0  0  0  0  0  0  0  0  0  0  0  0
    7.8534  -14.2815   27.2238 C   0  0  0  0  0  0  0  0  0  0  0  0
    6.6098  -14.6209   26.6945 C   0  0  0  0  0  0  0  0  0  0  0  0
    5.8182  -13.6991   26.0599 C   0  0  0  0  0  0  0  0  0  0  0  0
    6.2489  -12.3952   25.9328 C   0  0  0  0  0  0  0  0  0  0  0  0
    7.4823  -12.0574   26.4577 C   0  0  0  0  0  0  0  0  0  0  0  0
    8.2650  -12.9701   27.0856 C   0  0  0  0  0  0  0  0  0  0  0  0
   10.6499  -16.7358   27.7082 C   0  0  0  0  0  0  0  0  0  0  0  0
   10.7512  -17.9610   27.5246 O   0  0  0  0  0  0  0  0  0  0  0  0
   11.5246  -16.1493   28.6505 O   0  0  0  0  0  0  0  0  0  0  0  0
  2  1  1  0
  3  2  1  0
  4  5  1  0
  4  3  1  0
  5  6  1  6
  7  5  1  0
  7  8  2  0
  9  7  1  0
 10  9  1  0
 10 11  1  6
 12 11  1  0
 12 13  1  0
 13 14  1  0
 14 15  1  0
 16 18  1  0
 16 10  1  0
 17 16  2  0
 19 18  1  0
 19 27  1  0
 19 20  1  1
 21 20  1  0
 21 22  2  0
 23 22  1  0
 24 23  2  0
 25 26  2  0
 25 24  1  0
 26 21  1  0
 27 29  1  0
 28 27  2  0
M  END
$$$$
