MKF.pdb
     RDKit          3D

 29 29  0  0  1  0  0  0  0  0999 V2000
    8.5847  -11.8980   19.6610 C   0  0  0  0  0  0  0  0  0  0  0  0
    7.9697  -12.4490   18.0426 S   0  0  0  0  0  0  0  0  0  0  0  0
    8.4961  -14.1528   17.6962 C   0  0  0  0  0  0  0  0  0  0  0  0
    8.1551  -14.9992   18.9003 C   0  0  0  0  0  0  0  0  0  0  0  0
    8.6499  -16.4144   18.6481 C   0  0  2  0  0  0  0  0  0  0  0  0
    7.8479  -17.0552   17.6479 N   0  0  0  0  0  0  0  0  0  0  0  0
    8.6030  -17.2026   19.8955 C   0  0  0  0  0  0  0  0  0  0  0  0
    7.5469  -17.7582   20.3141 O   0  0  0  0  0  0  0  0  0  0  0  0
    9.7667  -17.3730   20.6939 N   0  0  0  0  0  0  0  0  0  0  0  0
    9.7479  -17.9660   22.0163 C   0  0  1  0  0  0  0  0  0  0  0  0
   11.0906  -18.7084   22.1409 C   0  0  0  0  0  0  0  0  0  0  0  0
   11.1917  -19.3744   23.4870 C   0  0  0  0  0  0  0  0  0  0  0  0
   12.5061  -20.0987   23.5913 C   0  0  0  0  0  0  0  0  0  0  0  0
   12.6511  -20.7692   24.9098 C   0  0  0  0  0  0  0  0  0  0  0  0
   13.9114  -21.4695   25.0600 N   0  0  0  0  0  0  0  0  0  0  0  0
    9.7918  -16.9045   23.0390 C   0  0  0  0  0  0  0  0  0  0  0  0
   10.5112  -15.9032   22.8523 O   0  0  0  0  0  0  0  0  0  0  0  0
    9.0358  -16.9963   24.2286 N   0  0  0  0  0  0  0  0  0  0  0  0
    9.0866  -15.8868   25.1701 C   0  0  1  0  0  0  0  0  0  0  0  0
    7.7394  -15.5818   25.7363 C   0  0  0  0  0  0  0  0  0  0  0  0
    7.8120  -14.4281   26.6587 C   0  0  0  0  0  0  0  0  0  0  0  0
    8.4364  -14.5386   27.8996 C   0  0  0  0  0  0  0  0  0  0  0  0
    8.5347  -13.4736   28.7569 C   0  0  0  0  0  0  0  0  0  0  0  0
    8.0066  -12.2514   28.3974 C   0  0  0  0  0  0  0  0  0  0  0  0
    7.3872  -12.1405   27.1666 C   0  0  0  0  0  0  0  0  0  0  0  0
    7.2905  -13.1949   26.3188 C   0  0  0  0  0  0  0  0  0  0  0  0
   10.0643  -16.2041   26.2246 C   0  0  0  0  0  0  0  0  0  0  0  0
    9.9838  -17.2163   26.9416 O   0  0  0  0  0  0  0  0  0  0  0  0
   11.1548  -15.3352   26.4540 O   0  0  0  0  0  0  0  0  0  0  0  0
  2  1  1  0
  3  2  1  0
  4  5  1  0
  4  3  1  0
  5  6  1  6
  7  5  1  0
  7  8  2  0
  9  7  1  0
 10  9  1  0
 10 11  1  6
 12 11  1  0
 12 13  1  0
 13 14  1  0
 14 15  1  0
 16 18  1  0
 16 10  1  0
 17 16  2  0
 19 18  1  0
 19 27  1  0
 19 20  1  1
 21 20  1  0
 21 22  2  0
 23 22  1  0
 24 23  2  0
 25 26  2  0
 25 24  1  0
 26 21  1  0
 27 29  1  0
 28 27  2  0
M  END
$$$$
