MKF.pdb
     RDKit          3D

 29 29  0  0  1  0  0  0  0  0999 V2000
    7.7964  -11.4358   20.8669 C   0  0  0  0  0  0  0  0  0  0  0  0
    7.6369  -11.9324   19.1265 S   0  0  0  0  0  0  0  0  0  0  0  0
    7.9619  -13.7086   18.9281 C   0  0  0  0  0  0  0  0  0  0  0  0
    7.6958  -14.3814   20.2544 C   0  0  0  0  0  0  0  0  0  0  0  0
    7.9536  -15.8715   20.0972 C   0  0  2  0  0  0  0  0  0  0  0  0
    7.0356  -16.4426   19.1563 N   0  0  0  0  0  0  0  0  0  0  0  0
    7.8131  -16.5549   21.3982 C   0  0  0  0  0  0  0  0  0  0  0  0
    6.6893  -16.8064   21.9209 O   0  0  0  0  0  0  0  0  0  0  0  0
    8.9585  -16.9669   22.1323 N   0  0  0  0  0  0  0  0  0  0  0  0
    8.8857  -17.6937   23.3843 C   0  0  1  0  0  0  0  0  0  0  0  0
    9.8715  -18.8651   23.2246 C   0  0  0  0  0  0  0  0  0  0  0  0
    9.8092  -19.7631   24.4311 C   0  0  0  0  0  0  0  0  0  0  0  0
   10.8230  -20.8654   24.2894 C   0  0  0  0  0  0  0  0  0  0  0  0
   10.7594  -21.8094   25.4357 C   0  0  0  0  0  0  0  0  0  0  0  0
   11.3246  -21.2671   26.6555 N   0  0  0  0  0  0  0  0  0  0  0  0
    9.4356  -16.8657   24.4736 C   0  0  0  0  0  0  0  0  0  0  0  0
   10.4764  -16.2076   24.2774 O   0  0  0  0  0  0  0  0  0  0  0  0
    8.8089  -16.8011   25.7378 N   0  0  0  0  0  0  0  0  0  0  0  0
    9.4845  -16.0864   26.8113 C   0  0  1  0  0  0  0  0  0  0  0  0
    8.5326  -15.2523   27.6030 C   0  0  0  0  0  0  0  0  0  0  0  0
    8.0806  -14.0870   26.8125 C   0  0  0  0  0  0  0  0  0  0  0  0
    6.8678  -14.1111   26.1264 C   0  0  0  0  0  0  0  0  0  0  0  0
    6.4215  -13.0318   25.4089 C   0  0  0  0  0  0  0  0  0  0  0  0
    7.1809  -11.8821   25.3537 C   0  0  0  0  0  0  0  0  0  0  0  0
    8.3840  -11.8569   26.0341 C   0  0  0  0  0  0  0  0  0  0  0  0
    8.8250  -12.9253   26.7439 C   0  0  0  0  0  0  0  0  0  0  0  0
   10.1927  -17.0612   27.6579 C   0  0  0  0  0  0  0  0  0  0  0  0
   10.0664  -18.2908   27.5271 O   0  0  0  0  0  0  0  0  0  0  0  0
   11.0628  -16.6058   28.6740 O   0  0  0  0  0  0  0  0  0  0  0  0
  2  1  1  0
  3  2  1  0
  4  5  1  0
  4  3  1  0
  5  6  1  6
  7  5  1  0
  7  8  2  0
  9  7  1  0
 10  9  1  0
 10 11  1  6
 12 11  1  0
 12 13  1  0
 13 14  1  0
 14 15  1  0
 16 18  1  0
 16 10  1  0
 17 16  2  0
 19 18  1  0
 19 27  1  0
 19 20  1  1
 21 20  1  0
 21 22  2  0
 23 22  1  0
 24 23  2  0
 25 26  2  0
 25 24  1  0
 26 21  1  0
 27 29  1  0
 28 27  2  0
M  END
$$$$
