MKF.pdb
     RDKit          3D

 29 29  0  0  1  0  0  0  0  0999 V2000
    5.9937  -18.1095   27.4194 C   0  0  0  0  0  0  0  0  0  0  0  0
    6.4390  -19.7905   26.8934 S   0  0  0  0  0  0  0  0  0  0  0  0
    6.6347  -19.8735   25.0893 C   0  0  0  0  0  0  0  0  0  0  0  0
    6.0456  -18.6138   24.4989 C   0  0  0  0  0  0  0  0  0  0  0  0
    6.2413  -18.6529   22.9917 C   0  0  2  0  0  0  0  0  0  0  0  0
    6.5527  -19.9840   22.5609 N   0  0  0  0  0  0  0  0  0  0  0  0
    7.3306  -17.7396   22.5935 C   0  0  0  0  0  0  0  0  0  0  0  0
    8.5079  -18.1393   22.3616 O   0  0  0  0  0  0  0  0  0  0  0  0
    7.0967  -16.3448   22.4513 N   0  0  0  0  0  0  0  0  0  0  0  0
    8.1367  -15.3901   22.1229 C   0  0  1  0  0  0  0  0  0  0  0  0
    7.4009  -14.0551   21.9084 C   0  0  0  0  0  0  0  0  0  0  0  0
    6.7533  -14.0327   20.5497 C   0  0  0  0  0  0  0  0  0  0  0  0
    7.8012  -13.7903   19.4980 C   0  0  0  0  0  0  0  0  0  0  0  0
    7.2105  -13.7968   18.1342 C   0  0  0  0  0  0  0  0  0  0  0  0
    8.1904  -13.5937   17.0853 N   0  0  0  0  0  0  0  0  0  0  0  0
    9.0036  -15.1744   23.2962 C   0  0  0  0  0  0  0  0  0  0  0  0
   10.0510  -14.5096   23.1701 O   0  0  0  0  0  0  0  0  0  0  0  0
    8.6739  -15.7053   24.5629 N   0  0  0  0  0  0  0  0  0  0  0  0
    9.6038  -15.5003   25.6643 C   0  0  1  0  0  0  0  0  0  0  0  0
    8.8927  -15.1407   26.9267 C   0  0  0  0  0  0  0  0  0  0  0  0
    8.1818  -13.8528   26.7743 C   0  0  0  0  0  0  0  0  0  0  0  0
    6.7981  -13.8106   26.6145 C   0  0  0  0  0  0  0  0  0  0  0  0
    6.1198  -12.6253   26.4964 C   0  0  0  0  0  0  0  0  0  0  0  0
    6.8101  -11.4320   26.5348 C   0  0  0  0  0  0  0  0  0  0  0  0
    8.1827  -11.4727   26.6935 C   0  0  0  0  0  0  0  0  0  0  0  0
    8.8532  -12.6460   26.8103 C   0  0  0  0  0  0  0  0  0  0  0  0
   10.4240  -16.7128   25.8246 C   0  0  0  0  0  0  0  0  0  0  0  0
   10.2743  -17.7299   25.1259 O   0  0  0  0  0  0  0  0  0  0  0  0
   11.4357  -16.7496   26.8106 O   0  0  0  0  0  0  0  0  0  0  0  0
  2  1  1  0
  3  2  1  0
  4  5  1  0
  4  3  1  0
  5  6  1  1
  7  5  1  0
  7  8  2  0
  9  7  1  0
 10  9  1  0
 10 11  1  1
 12 11  1  0
 12 13  1  0
 13 14  1  0
 14 15  1  0
 16 18  1  0
 16 10  1  0
 17 16  2  0
 19 18  1  0
 19 27  1  0
 19 20  1  1
 21 20  1  0
 21 22  2  0
 23 22  1  0
 24 23  2  0
 25 26  2  0
 25 24  1  0
 26 21  1  0
 27 29  1  0
 28 27  2  0
M  END
$$$$
