MKF.pdb
     RDKit          3D

 29 29  0  0  1  0  0  0  0  0999 V2000
    9.2010  -12.2284   20.4488 C   0  0  0  0  0  0  0  0  0  0  0  0
    8.1105  -12.5421   19.0299 S   0  0  0  0  0  0  0  0  0  0  0  0
    7.6485  -14.2969   18.9445 C   0  0  0  0  0  0  0  0  0  0  0  0
    8.8576  -15.0744   18.4796 C   0  0  0  0  0  0  0  0  0  0  0  0
    8.5464  -16.5583   18.5917 C   0  0  2  0  0  0  0  0  0  0  0  0
    7.3775  -16.8844   17.8291 N   0  0  0  0  0  0  0  0  0  0  0  0
    8.3320  -16.9307   20.0040 C   0  0  0  0  0  0  0  0  0  0  0  0
    7.1964  -16.8845   20.5587 O   0  0  0  0  0  0  0  0  0  0  0  0
    9.4151  -17.3655   20.8155 N   0  0  0  0  0  0  0  0  0  0  0  0
    9.2539  -17.8378   22.1763 C   0  0  1  0  0  0  0  0  0  0  0  0
   10.3302  -18.9241   22.3527 C   0  0  0  0  0  0  0  0  0  0  0  0
    9.7449  -20.2833   22.0774 C   0  0  0  0  0  0  0  0  0  0  0  0
   10.8275  -21.3239   22.1682 C   0  0  0  0  0  0  0  0  0  0  0  0
   10.2773  -22.6935   21.9938 C   0  0  0  0  0  0  0  0  0  0  0  0
   11.2842  -23.7316   22.0932 N   0  0  0  0  0  0  0  0  0  0  0  0
    9.6204  -16.7673   23.1219 C   0  0  0  0  0  0  0  0  0  0  0  0
   10.1181  -15.7098   22.6872 O   0  0  0  0  0  0  0  0  0  0  0  0
    9.4202  -16.9127   24.5125 N   0  0  0  0  0  0  0  0  0  0  0  0
    9.0135  -15.7447   25.2807 C   0  0  1  0  0  0  0  0  0  0  0  0
    7.7342  -15.1679   24.7717 C   0  0  0  0  0  0  0  0  0  0  0  0
    7.3075  -14.0276   25.6113 C   0  0  0  0  0  0  0  0  0  0  0  0
    8.1962  -13.0062   25.9413 C   0  0  0  0  0  0  0  0  0  0  0  0
    7.8118  -11.9297   26.6977 C   0  0  0  0  0  0  0  0  0  0  0  0
    6.5133  -11.8387   27.1531 C   0  0  0  0  0  0  0  0  0  0  0  0
    5.6307  -12.8512   26.8262 C   0  0  0  0  0  0  0  0  0  0  0  0
    6.0119  -13.9161   26.0776 C   0  0  0  0  0  0  0  0  0  0  0  0
    8.9171  -16.1212   26.7012 C   0  0  0  0  0  0  0  0  0  0  0  0
    8.1992  -17.0504   27.1091 O   0  0  0  0  0  0  0  0  0  0  0  0
    9.6645  -15.4105   27.6672 O   0  0  0  0  0  0  0  0  0  0  0  0
  2  1  1  0
  3  2  1  0
  4  5  1  0
  4  3  1  0
  5  6  1  6
  7  5  1  0
  7  8  2  0
  9  7  1  0
 10  9  1  0
 10 11  1  6
 12 11  1  0
 12 13  1  0
 13 14  1  0
 14 15  1  0
 16 18  1  0
 16 10  1  0
 17 16  2  0
 19 18  1  0
 19 27  1  0
 19 20  1  6
 21 20  1  0
 21 22  2  0
 23 22  1  0
 24 23  2  0
 25 26  2  0
 25 24  1  0
 26 21  1  0
 27 29  1  0
 28 27  2  0
M  END
$$$$
