MKF.pdb
     RDKit          3D

 29 29  0  0  1  0  0  0  0  0999 V2000
    8.9521  -11.7960   19.5064 C   0  0  0  0  0  0  0  0  0  0  0  0
    8.1414  -12.4016   17.9975 S   0  0  0  0  0  0  0  0  0  0  0  0
    8.4846  -14.1672   17.7427 C   0  0  0  0  0  0  0  0  0  0  0  0
    8.3019  -14.8726   19.0661 C   0  0  0  0  0  0  0  0  0  0  0  0
    8.6590  -16.3389   18.8820 C   0  0  2  0  0  0  0  0  0  0  0  0
    7.7354  -16.9712   17.9868 N   0  0  0  0  0  0  0  0  0  0  0  0
    8.6398  -17.0372   20.1825 C   0  0  0  0  0  0  0  0  0  0  0  0
    7.5699  -17.4205   20.7374 O   0  0  0  0  0  0  0  0  0  0  0  0
    9.8477  -17.3132   20.8792 N   0  0  0  0  0  0  0  0  0  0  0  0
    9.8909  -17.9436   22.1837 C   0  0  1  0  0  0  0  0  0  0  0  0
   11.3186  -18.5053   22.3093 C   0  0  0  0  0  0  0  0  0  0  0  0
   11.4995  -19.1664   23.6496 C   0  0  0  0  0  0  0  0  0  0  0  0
   12.9019  -19.6991   23.7614 C   0  0  0  0  0  0  0  0  0  0  0  0
   13.1045  -20.4242   25.0429 C   0  0  0  0  0  0  0  0  0  0  0  0
   14.3733  -21.1219   25.1111 N   0  0  0  0  0  0  0  0  0  0  0  0
    9.7806  -16.9174   23.2368 C   0  0  0  0  0  0  0  0  0  0  0  0
   10.3472  -15.8174   23.0822 O   0  0  0  0  0  0  0  0  0  0  0  0
    9.0460  -17.1525   24.4202 N   0  0  0  0  0  0  0  0  0  0  0  0
    8.8222  -16.0386   25.3307 C   0  0  1  0  0  0  0  0  0  0  0  0
    7.4106  -15.5559   25.2751 C   0  0  0  0  0  0  0  0  0  0  0  0
    7.2465  -14.3339   26.0917 C   0  0  0  0  0  0  0  0  0  0  0  0
    8.2657  -13.8885   26.9312 C   0  0  0  0  0  0  0  0  0  0  0  0
    8.1407  -12.7449   27.6765 C   0  0  0  0  0  0  0  0  0  0  0  0
    6.9808  -12.0023   27.6057 C   0  0  0  0  0  0  0  0  0  0  0  0
    5.9691  -12.4430   26.7731 C   0  0  0  0  0  0  0  0  0  0  0  0
    6.0937  -13.5746   26.0358 C   0  0  0  0  0  0  0  0  0  0  0  0
    9.2056  -16.4533   26.6907 C   0  0  0  0  0  0  0  0  0  0  0  0
   10.3347  -16.2491   27.1688 O   0  0  0  0  0  0  0  0  0  0  0  0
    8.2664  -17.1159   27.5126 O   0  0  0  0  0  0  0  0  0  0  0  0
  2  1  1  0
  3  2  1  0
  4  5  1  0
  4  3  1  0
  5  6  1  6
  7  5  1  0
  7  8  2  0
  9  7  1  0
 10  9  1  0
 10 11  1  1
 12 11  1  0
 12 13  1  0
 13 14  1  0
 14 15  1  0
 16 18  1  0
 16 10  1  0
 17 16  2  0
 19 18  1  0
 19 27  1  0
 19 20  1  1
 21 20  1  0
 21 22  2  0
 23 22  1  0
 24 23  2  0
 25 26  2  0
 25 24  1  0
 26 21  1  0
 27 29  1  0
 28 27  2  0
M  END
$$$$
