IEL.pdb
     RDKit          3D

 26 25  0  0  1  0  0  0  0  0999 V2000
    5.8671  -11.6587   26.6107 C   0  0  0  0  0  0  0  0  0  0  0  0
    5.5689  -12.9268   25.8765 C   0  0  0  0  0  0  0  0  0  0  0  0
    6.7972  -13.7060   25.5189 C   0  0  2  0  0  0  0  0  0  0  0  0
    7.7615  -12.8307   24.7441 C   0  0  0  0  0  0  0  0  0  0  0  0
    6.5204  -14.9985   24.8199 C   0  0  2  0  0  0  0  0  0  0  0  0
    5.5127  -15.6825   25.6696 N   0  0  0  0  0  0  0  0  0  0  0  0
    7.6974  -15.9220   24.7805 C   0  0  0  0  0  0  0  0  0  0  0  0
    7.8424  -16.6827   25.7609 O   0  0  0  0  0  0  0  0  0  0  0  0
    8.6088  -15.9713   23.7316 N   0  0  0  0  0  0  0  0  0  0  0  0
    9.8736  -16.5947   23.6197 C   0  0  1  0  0  0  0  0  0  0  0  0
   10.6925  -16.2656   22.4234 C   0  0  0  0  0  0  0  0  0  0  0  0
   12.0160  -16.9074   22.2752 C   0  0  0  0  0  0  0  0  0  0  0  0
   12.5400  -16.9892   20.8949 C   0  0  0  0  0  0  0  0  0  0  0  0
   13.7516  -17.1240   20.6052 O   0  0  0  0  0  0  0  0  0  0  0  0
   10.7176  -16.7707   24.7973 C   0  0  0  0  0  0  0  0  0  0  0  0
   11.9061  -17.2281   24.5790 O   0  0  0  0  0  0  0  0  0  0  0  0
   11.6515  -16.9148   19.8104 O   0  0  0  0  0  0  0  0  0  0  0  0
   10.1816  -14.0351   29.6099 C   0  0  0  0  0  0  0  0  0  0  0  0
   10.4822  -14.5917   28.2064 C   0  0  1  0  0  0  0  0  0  0  0  0
   11.3149  -13.5286   27.5271 C   0  0  0  0  0  0  0  0  0  0  0  0
   11.2091  -15.8683   28.4196 C   0  0  0  0  0  0  0  0  0  0  0  0
   11.4341  -16.7169   27.2100 C   0  0  2  0  0  0  0  0  0  0  0  0
   10.4588  -16.5364   26.1510 N   0  0  0  0  0  0  0  0  0  0  0  0
   11.3558  -18.1247   27.6431 C   0  0  0  0  0  0  0  0  0  0  0  0
   12.1591  -18.5785   28.4741 O   0  0  0  0  0  0  0  0  0  0  0  0
   10.3788  -18.9465   27.1187 O   0  0  0  0  0  0  0  0  0  0  0  0
  1  2  1  0
  2  3  1  0
  3  5  1  0
  3  4  1  6
  5  6  1  1
  7  5  1  0
  7  8  2  0
  9 10  1  0
  9  7  1  0
 11 12  1  0
 10 11  1  6
 12 13  1  0
 13 14  2  0
 13 17  1  0
 15 16  2  0
 15 10  1  0
 19 18  1  1
 19 20  1  0
 19 21  1  0
 22 21  1  1
 22 23  1  0
 22 24  1  0
 23 15  1  0
 24 26  1  0
 25 24  2  0
M  END
$$$$
