IEL.pdb
     RDKit          3D

 26 25  0  0  1  0  0  0  0  0999 V2000
    5.9020  -11.7421   26.8804 C   0  0  0  0  0  0  0  0  0  0  0  0
    5.6614  -12.8751   25.9345 C   0  0  0  0  0  0  0  0  0  0  0  0
    6.9050  -13.6397   25.5991 C   0  0  2  0  0  0  0  0  0  0  0  0
    7.9354  -12.7138   24.9846 C   0  0  0  0  0  0  0  0  0  0  0  0
    6.6687  -14.8567   24.7631 C   0  0  2  0  0  0  0  0  0  0  0  0
    5.5295  -15.5511   25.4154 N   0  0  0  0  0  0  0  0  0  0  0  0
    7.8005  -15.8353   24.7968 C   0  0  0  0  0  0  0  0  0  0  0  0
    7.8455  -16.6023   25.7819 O   0  0  0  0  0  0  0  0  0  0  0  0
    8.7745  -15.9277   23.8088 N   0  0  0  0  0  0  0  0  0  0  0  0
    9.9996  -16.6335   23.7659 C   0  0  1  0  0  0  0  0  0  0  0  0
   10.7428  -16.6318   22.4785 C   0  0  0  0  0  0  0  0  0  0  0  0
   11.9738  -17.4435   22.3726 C   0  0  0  0  0  0  0  0  0  0  0  0
   12.6488  -17.4191   21.0571 C   0  0  0  0  0  0  0  0  0  0  0  0
   13.8919  -17.4012   20.9003 O   0  0  0  0  0  0  0  0  0  0  0  0
   10.9186  -16.5885   24.8989 C   0  0  0  0  0  0  0  0  0  0  0  0
   12.0189  -15.9381   24.7100 O   0  0  0  0  0  0  0  0  0  0  0  0
   11.8793  -17.4152   19.8829 O   0  0  0  0  0  0  0  0  0  0  0  0
    9.4006  -15.1172   28.0432 C   0  0  0  0  0  0  0  0  0  0  0  0
   10.8633  -14.7743   27.7071 C   0  0  1  0  0  0  0  0  0  0  0  0
   11.1550  -13.4961   28.4596 C   0  0  0  0  0  0  0  0  0  0  0  0
   11.6710  -15.9314   28.1679 C   0  0  0  0  0  0  0  0  0  0  0  0
   11.8564  -17.0462   27.1899 C   0  0  2  0  0  0  0  0  0  0  0  0
   10.8216  -17.1451   26.1776 N   0  0  0  0  0  0  0  0  0  0  0  0
   11.8426  -18.3066   27.9559 C   0  0  0  0  0  0  0  0  0  0  0  0
   12.7205  -18.5450   28.8011 O   0  0  0  0  0  0  0  0  0  0  0  0
   10.8427  -19.2308   27.7307 O   0  0  0  0  0  0  0  0  0  0  0  0
  1  2  1  0
  2  3  1  0
  3  5  1  0
  3  4  1  6
  5  6  1  1
  7  5  1  0
  7  8  2  0
  9 10  1  0
  9  7  1  0
 11 12  1  0
 10 11  1  6
 12 13  1  0
 13 14  2  0
 13 17  1  0
 15 16  2  0
 15 10  1  0
 19 18  1  1
 19 20  1  0
 19 21  1  0
 22 21  1  1
 22 23  1  0
 22 24  1  0
 23 15  1  0
 24 26  1  0
 25 24  2  0
M  END
$$$$
