IEL.pdb
     RDKit          3D

 26 25  0  0  1  0  0  0  0  0999 V2000
    7.3359  -11.8422   20.6198 C   0  0  0  0  0  0  0  0  0  0  0  0
    7.2772  -13.3331   20.7191 C   0  0  0  0  0  0  0  0  0  0  0  0
    8.2082  -14.0260   19.7721 C   0  0  2  0  0  0  0  0  0  0  0  0
    8.0049  -13.5012   18.3651 C   0  0  0  0  0  0  0  0  0  0  0  0
    8.1446  -15.5187   19.8333 C   0  0  2  0  0  0  0  0  0  0  0  0
    6.7765  -15.8607   19.3678 N   0  0  0  0  0  0  0  0  0  0  0  0
    8.2381  -16.0655   21.2233 C   0  0  0  0  0  0  0  0  0  0  0  0
    7.1621  -16.1960   21.8447 O   0  0  0  0  0  0  0  0  0  0  0  0
    9.4334  -16.4261   21.8353 N   0  0  0  0  0  0  0  0  0  0  0  0
    9.7019  -16.9872   23.1057 C   0  0  1  0  0  0  0  0  0  0  0  0
   10.7287  -18.0600   23.1739 C   0  0  0  0  0  0  0  0  0  0  0  0
   12.1549  -17.6786   23.0953 C   0  0  0  0  0  0  0  0  0  0  0  0
   13.1106  -18.7946   22.9284 C   0  0  0  0  0  0  0  0  0  0  0  0
   14.1278  -18.7514   22.1978 O   0  0  0  0  0  0  0  0  0  0  0  0
    9.7539  -16.1391   24.2923 C   0  0  0  0  0  0  0  0  0  0  0  0
   10.6958  -15.2551   24.3157 O   0  0  0  0  0  0  0  0  0  0  0  0
   12.8978  -19.9988   23.6181 O   0  0  0  0  0  0  0  0  0  0  0  0
    6.1979  -12.6937   26.1875 C   0  0  0  0  0  0  0  0  0  0  0  0
    7.5614  -13.2776   25.7755 C   0  0  1  0  0  0  0  0  0  0  0  0
    8.5201  -12.1092   25.8069 C   0  0  0  0  0  0  0  0  0  0  0  0
    7.8751  -14.3292   26.7751 C   0  0  0  0  0  0  0  0  0  0  0  0
    9.0927  -15.1554   26.5133 C   0  0  2  0  0  0  0  0  0  0  0  0
    8.9533  -16.1198   25.4381 N   0  0  0  0  0  0  0  0  0  0  0  0
    9.3811  -15.9119   27.7462 C   0  0  0  0  0  0  0  0  0  0  0  0
    9.6530  -15.3212   28.8041 O   0  0  0  0  0  0  0  0  0  0  0  0
    9.3481  -17.2914   27.7237 O   0  0  0  0  0  0  0  0  0  0  0  0
  1  2  1  0
  2  3  1  0
  3  5  1  0
  3  4  1  6
  5  6  1  1
  7  5  1  0
  7  8  2  0
  9 10  1  0
  9  7  1  0
 11 12  1  0
 10 11  1  6
 12 13  1  0
 13 14  2  0
 13 17  1  0
 15 16  2  0
 15 10  1  0
 19 18  1  1
 19 20  1  0
 19 21  1  0
 22 21  1  1
 22 23  1  0
 22 24  1  0
 23 15  1  0
 24 26  1  0
 25 24  2  0
M  END
$$$$
