IEL.pdb
     RDKit          3D

 26 25  0  0  1  0  0  0  0  0999 V2000
    7.4732  -11.7886   20.6220 C   0  0  0  0  0  0  0  0  0  0  0  0
    7.4705  -13.2838   20.6015 C   0  0  0  0  0  0  0  0  0  0  0  0
    8.4928  -13.8645   19.6733 C   0  0  2  0  0  0  0  0  0  0  0  0
    8.3049  -13.3061   18.2771 C   0  0  0  0  0  0  0  0  0  0  0  0
    8.5489  -15.3586   19.6817 C   0  0  2  0  0  0  0  0  0  0  0  0
    7.2375  -15.7917   19.1355 N   0  0  0  0  0  0  0  0  0  0  0  0
    8.6194  -15.9475   21.0558 C   0  0  0  0  0  0  0  0  0  0  0  0
    7.5303  -16.1366   21.6381 O   0  0  0  0  0  0  0  0  0  0  0  0
    9.8076  -16.2857   21.6938 N   0  0  0  0  0  0  0  0  0  0  0  0
   10.0579  -16.8607   22.9617 C   0  0  1  0  0  0  0  0  0  0  0  0
   11.1569  -17.8576   23.0532 C   0  0  0  0  0  0  0  0  0  0  0  0
   11.3407  -18.5914   24.3234 C   0  0  0  0  0  0  0  0  0  0  0  0
   12.4079  -19.6150   24.3260 C   0  0  0  0  0  0  0  0  0  0  0  0
   12.2184  -20.8348   24.1108 O   0  0  0  0  0  0  0  0  0  0  0  0
    9.9923  -16.0441   24.1696 C   0  0  0  0  0  0  0  0  0  0  0  0
   11.0466  -15.3482   24.4406 O   0  0  0  0  0  0  0  0  0  0  0  0
   13.7343  -19.2331   24.5826 O   0  0  0  0  0  0  0  0  0  0  0  0
    6.0160  -12.9200   26.3871 C   0  0  0  0  0  0  0  0  0  0  0  0
    7.3595  -13.3972   25.8064 C   0  0  1  0  0  0  0  0  0  0  0  0
    8.2077  -12.1512   25.6911 C   0  0  0  0  0  0  0  0  0  0  0  0
    7.8929  -14.3904   26.7721 C   0  0  0  0  0  0  0  0  0  0  0  0
    9.1139  -15.1416   26.3494 C   0  0  2  0  0  0  0  0  0  0  0  0
    8.9718  -15.8855   25.1117 N   0  0  0  0  0  0  0  0  0  0  0  0
    9.4184  -16.1157   27.4142 C   0  0  0  0  0  0  0  0  0  0  0  0
    9.3078  -17.3353   27.2090 O   0  0  0  0  0  0  0  0  0  0  0  0
    9.8309  -15.6664   28.6522 O   0  0  0  0  0  0  0  0  0  0  0  0
  1  2  1  0
  2  3  1  0
  3  5  1  0
  3  4  1  6
  5  6  1  1
  7  5  1  0
  7  8  2  0
  9 10  1  0
  9  7  1  0
 11 12  1  0
 10 11  1  6
 12 13  1  0
 13 14  2  0
 13 17  1  0
 15 16  2  0
 15 10  1  0
 19 18  1  1
 19 20  1  0
 19 21  1  0
 22 21  1  1
 22 23  1  0
 22 24  1  0
 23 15  1  0
 24 26  1  0
 25 24  2  0
M  END
$$$$
