IEL.pdb
     RDKit          3D

 26 25  0  0  1  0  0  0  0  0999 V2000
    7.2723  -11.6853   19.1391 C   0  0  0  0  0  0  0  0  0  0  0  0
    7.5086  -13.1617   19.1225 C   0  0  0  0  0  0  0  0  0  0  0  0
    7.8795  -13.7164   20.4636 C   0  0  2  0  0  0  0  0  0  0  0  0
    9.0545  -12.9501   21.0369 C   0  0  0  0  0  0  0  0  0  0  0  0
    8.1096  -15.1938   20.4728 C   0  0  2  0  0  0  0  0  0  0  0  0
    6.8375  -15.7801   19.9791 N   0  0  0  0  0  0  0  0  0  0  0  0
    8.3011  -15.7615   21.8442 C   0  0  0  0  0  0  0  0  0  0  0  0
    7.2971  -15.7746   22.5876 O   0  0  0  0  0  0  0  0  0  0  0  0
    9.5104  -16.2622   22.3136 N   0  0  0  0  0  0  0  0  0  0  0  0
    9.8836  -16.7726   23.5789 C   0  0  1  0  0  0  0  0  0  0  0  0
   10.9912  -17.7635   23.6146 C   0  0  0  0  0  0  0  0  0  0  0  0
   11.4435  -18.2701   24.9278 C   0  0  0  0  0  0  0  0  0  0  0  0
   12.5128  -19.2907   24.8896 C   0  0  0  0  0  0  0  0  0  0  0  0
   13.0110  -19.8314   25.9043 O   0  0  0  0  0  0  0  0  0  0  0  0
    9.9297  -15.8963   24.7451 C   0  0  0  0  0  0  0  0  0  0  0  0
   10.9455  -15.1010   24.8160 O   0  0  0  0  0  0  0  0  0  0  0  0
   13.0299  -19.7073   23.6526 O   0  0  0  0  0  0  0  0  0  0  0  0
    6.0673  -12.7886   26.8361 C   0  0  0  0  0  0  0  0  0  0  0  0
    7.3720  -13.3347   26.2282 C   0  0  1  0  0  0  0  0  0  0  0  0
    8.1227  -12.1173   25.7390 C   0  0  0  0  0  0  0  0  0  0  0  0
    8.0636  -14.0568   27.3253 C   0  0  0  0  0  0  0  0  0  0  0  0
    9.2632  -14.8613   26.9410 C   0  0  2  0  0  0  0  0  0  0  0  0
    9.0553  -15.7691   25.8283 N   0  0  0  0  0  0  0  0  0  0  0  0
    9.6341  -15.6793   28.1110 C   0  0  0  0  0  0  0  0  0  0  0  0
    9.9706  -15.1430   29.1792 O   0  0  0  0  0  0  0  0  0  0  0  0
    9.6066  -17.0560   28.0173 O   0  0  0  0  0  0  0  0  0  0  0  0
  1  2  1  0
  2  3  1  0
  3  5  1  0
  3  4  1  6
  5  6  1  1
  7  5  1  0
  7  8  2  0
  9 10  1  0
  9  7  1  0
 11 12  1  0
 10 11  1  6
 12 13  1  0
 13 14  2  0
 13 17  1  0
 15 16  2  0
 15 10  1  0
 19 18  1  1
 19 20  1  0
 19 21  1  0
 22 21  1  1
 22 23  1  0
 22 24  1  0
 23 15  1  0
 24 26  1  0
 25 24  2  0
M  END
$$$$
