IEL.pdb
     RDKit          3D

 26 25  0  0  1  0  0  0  0  0999 V2000
    7.7617  -11.6433   20.9029 C   0  0  0  0  0  0  0  0  0  0  0  0
    7.4952  -13.1134   20.9666 C   0  0  0  0  0  0  0  0  0  0  0  0
    8.1806  -13.8863   19.8820 C   0  0  2  0  0  0  0  0  0  0  0  0
    7.7863  -13.3399   18.5247 C   0  0  0  0  0  0  0  0  0  0  0  0
    7.9916  -15.3668   19.9720 C   0  0  2  0  0  0  0  0  0  0  0  0
    6.5318  -15.5754   19.7961 N   0  0  0  0  0  0  0  0  0  0  0  0
    8.3123  -15.9306   21.3207 C   0  0  0  0  0  0  0  0  0  0  0  0
    7.3949  -15.9048   22.1685 O   0  0  0  0  0  0  0  0  0  0  0  0
    9.5485  -16.4678   21.6620 N   0  0  0  0  0  0  0  0  0  0  0  0
   10.0488  -16.9570   22.8913 C   0  0  1  0  0  0  0  0  0  0  0  0
   11.2288  -17.8597   22.8364 C   0  0  0  0  0  0  0  0  0  0  0  0
   11.8139  -18.3352   24.1080 C   0  0  0  0  0  0  0  0  0  0  0  0
   13.0027  -19.2057   23.9829 C   0  0  0  0  0  0  0  0  0  0  0  0
   13.0302  -20.4160   24.3064 O   0  0  0  0  0  0  0  0  0  0  0  0
   10.1107  -16.0882   24.0624 C   0  0  0  0  0  0  0  0  0  0  0  0
   11.0418  -15.1925   24.0545 O   0  0  0  0  0  0  0  0  0  0  0  0
   14.1986  -18.6770   23.4718 O   0  0  0  0  0  0  0  0  0  0  0  0
    6.4428  -13.4232   26.6281 C   0  0  0  0  0  0  0  0  0  0  0  0
    7.5954  -13.9775   25.7712 C   0  0  1  0  0  0  0  0  0  0  0  0
    7.8311  -12.9365   24.7007 C   0  0  0  0  0  0  0  0  0  0  0  0
    8.7451  -14.1498   26.6942 C   0  0  0  0  0  0  0  0  0  0  0  0
    9.6626  -15.2948   26.4091 C   0  0  2  0  0  0  0  0  0  0  0  0
    9.3298  -16.0592   25.2216 N   0  0  0  0  0  0  0  0  0  0  0  0
    9.5840  -16.2148   27.5593 C   0  0  0  0  0  0  0  0  0  0  0  0
    9.9092  -15.8378   28.6968 O   0  0  0  0  0  0  0  0  0  0  0  0
    9.1438  -17.5089   27.3688 O   0  0  0  0  0  0  0  0  0  0  0  0
  1  2  1  0
  2  3  1  0
  3  5  1  0
  3  4  1  6
  5  6  1  1
  7  5  1  0
  7  8  2  0
  9 10  1  0
  9  7  1  0
 11 12  1  0
 10 11  1  6
 12 13  1  0
 13 14  2  0
 13 17  1  0
 15 16  2  0
 15 10  1  0
 19 18  1  1
 19 20  1  0
 19 21  1  0
 22 21  1  1
 22 23  1  0
 22 24  1  0
 23 15  1  0
 24 26  1  0
 25 24  2  0
M  END
$$$$
