IEL.pdb
     RDKit          3D

 26 25  0  0  1  0  0  0  0  0999 V2000
    6.5892  -12.5180   24.6200 C   0  0  0  0  0  0  0  0  0  0  0  0
    6.8219  -13.8397   23.9604 C   0  0  0  0  0  0  0  0  0  0  0  0
    7.5612  -13.7309   22.6623 C   0  0  2  0  0  0  0  0  0  0  0  0
    6.8246  -12.7998   21.7204 C   0  0  0  0  0  0  0  0  0  0  0  0
    7.8763  -15.0463   22.0249 C   0  0  2  0  0  0  0  0  0  0  0  0
    6.5612  -15.7183   21.8690 N   0  0  0  0  0  0  0  0  0  0  0  0
    8.6846  -15.9556   22.8965 C   0  0  0  0  0  0  0  0  0  0  0  0
    8.0780  -16.5116   23.8366 O   0  0  0  0  0  0  0  0  0  0  0  0
   10.0401  -16.2036   22.7110 N   0  0  0  0  0  0  0  0  0  0  0  0
   10.9713  -16.9363   23.4835 C   0  0  1  0  0  0  0  0  0  0  0  0
   12.2390  -17.3405   22.8204 C   0  0  0  0  0  0  0  0  0  0  0  0
   13.1504  -18.2568   23.5382 C   0  0  0  0  0  0  0  0  0  0  0  0
   14.3848  -18.6323   22.8157 C   0  0  0  0  0  0  0  0  0  0  0  0
   15.5129  -18.7387   23.3507 O   0  0  0  0  0  0  0  0  0  0  0  0
   11.2009  -16.5951   24.8839 C   0  0  0  0  0  0  0  0  0  0  0  0
   12.1939  -15.8026   25.1182 O   0  0  0  0  0  0  0  0  0  0  0  0
   14.3290  -18.8948   21.4376 O   0  0  0  0  0  0  0  0  0  0  0  0
    9.4586  -13.3446   28.3031 C   0  0  0  0  0  0  0  0  0  0  0  0
   10.5015  -14.2348   27.6033 C   0  0  1  0  0  0  0  0  0  0  0  0
   11.8435  -13.6786   28.0213 C   0  0  0  0  0  0  0  0  0  0  0  0
   10.2539  -15.6151   28.0902 C   0  0  0  0  0  0  0  0  0  0  0  0
   10.9907  -16.7108   27.3899 C   0  0  2  0  0  0  0  0  0  0  0  0
   10.5277  -16.9907   26.0435 N   0  0  0  0  0  0  0  0  0  0  0  0
   10.8027  -17.9402   28.1828 C   0  0  0  0  0  0  0  0  0  0  0  0
   11.2561  -18.0274   29.3354 O   0  0  0  0  0  0  0  0  0  0  0  0
   10.1149  -19.0053   27.6373 O   0  0  0  0  0  0  0  0  0  0  0  0
  1  2  1  0
  2  3  1  0
  3  5  1  0
  3  4  1  6
  5  6  1  1
  7  5  1  0
  7  8  2  0
  9 10  1  0
  9  7  1  0
 11 12  1  0
 10 11  1  6
 12 13  1  0
 13 14  2  0
 13 17  1  0
 15 16  2  0
 15 10  1  0
 19 18  1  1
 19 20  1  0
 19 21  1  0
 22 21  1  1
 22 23  1  0
 22 24  1  0
 23 15  1  0
 24 26  1  0
 25 24  2  0
M  END
$$$$
