IEL.pdb
     RDKit          3D

 26 25  0  0  1  0  0  0  0  0999 V2000
    7.9248  -11.6766   21.1284 C   0  0  0  0  0  0  0  0  0  0  0  0
    7.5826  -13.1189   21.3253 C   0  0  0  0  0  0  0  0  0  0  0  0
    8.1480  -14.0111   20.2633 C   0  0  2  0  0  0  0  0  0  0  0  0
    7.6869  -13.5492   18.8956 C   0  0  0  0  0  0  0  0  0  0  0  0
    7.8892  -15.4670   20.4851 C   0  0  2  0  0  0  0  0  0  0  0  0
    6.4105  -15.6001   20.4513 N   0  0  0  0  0  0  0  0  0  0  0  0
    8.2991  -15.9482   21.8416 C   0  0  0  0  0  0  0  0  0  0  0  0
    7.4064  -15.9803   22.7152 O   0  0  0  0  0  0  0  0  0  0  0  0
    9.5903  -16.3513   22.1633 N   0  0  0  0  0  0  0  0  0  0  0  0
   10.1413  -16.8541   23.3652 C   0  0  1  0  0  0  0  0  0  0  0  0
   11.4028  -17.6340   23.2630 C   0  0  0  0  0  0  0  0  0  0  0  0
   11.9350  -18.2790   24.4822 C   0  0  0  0  0  0  0  0  0  0  0  0
   13.2272  -18.9807   24.3264 C   0  0  0  0  0  0  0  0  0  0  0  0
   14.3232  -18.5473   24.7522 O   0  0  0  0  0  0  0  0  0  0  0  0
   10.1243  -16.0465   24.5807 C   0  0  0  0  0  0  0  0  0  0  0  0
   10.9665  -15.0676   24.6221 O   0  0  0  0  0  0  0  0  0  0  0  0
   13.2692  -20.2174   23.6631 O   0  0  0  0  0  0  0  0  0  0  0  0
    6.3180  -13.1403   26.7438 C   0  0  0  0  0  0  0  0  0  0  0  0
    7.7146  -13.5622   26.2524 C   0  0  1  0  0  0  0  0  0  0  0  0
    8.5193  -12.2837   26.1964 C   0  0  0  0  0  0  0  0  0  0  0  0
    8.2213  -14.5387   27.2489 C   0  0  0  0  0  0  0  0  0  0  0  0
    9.4712  -15.2735   26.8859 C   0  0  2  0  0  0  0  0  0  0  0  0
    9.3477  -16.1528   25.7383 N   0  0  0  0  0  0  0  0  0  0  0  0
    9.8374  -16.1114   28.0431 C   0  0  0  0  0  0  0  0  0  0  0  0
    9.7792  -17.3498   27.9736 O   0  0  0  0  0  0  0  0  0  0  0  0
   10.2496  -15.5122   29.2160 O   0  0  0  0  0  0  0  0  0  0  0  0
  1  2  1  0
  2  3  1  0
  3  5  1  0
  3  4  1  6
  5  6  1  1
  7  5  1  0
  7  8  2  0
  9 10  1  0
  9  7  1  0
 11 12  1  0
 10 11  1  6
 12 13  1  0
 13 14  2  0
 13 17  1  0
 15 16  2  0
 15 10  1  0
 19 18  1  1
 19 20  1  0
 19 21  1  0
 22 21  1  1
 22 23  1  0
 22 24  1  0
 23 15  1  0
 24 26  1  0
 25 24  2  0
M  END
$$$$
