IEL.pdb
     RDKit          3D

 26 25  0  0  1  0  0  0  0  0999 V2000
    7.4768  -11.9241   18.5021 C   0  0  0  0  0  0  0  0  0  0  0  0
    7.6981  -13.4011   18.4264 C   0  0  0  0  0  0  0  0  0  0  0  0
    8.0160  -14.0202   19.7528 C   0  0  2  0  0  0  0  0  0  0  0  0
    9.1520  -13.2699   20.4184 C   0  0  0  0  0  0  0  0  0  0  0  0
    8.2678  -15.4930   19.6964 C   0  0  2  0  0  0  0  0  0  0  0  0
    7.0181  -16.0717   19.1406 N   0  0  0  0  0  0  0  0  0  0  0  0
    8.4316  -16.1245   21.0433 C   0  0  0  0  0  0  0  0  0  0  0  0
    7.4297  -16.1144   21.7896 O   0  0  0  0  0  0  0  0  0  0  0  0
    9.6136  -16.7067   21.4875 N   0  0  0  0  0  0  0  0  0  0  0  0
   10.0320  -17.1068   22.7782 C   0  0  1  0  0  0  0  0  0  0  0  0
   11.2873  -17.8975   22.8733 C   0  0  0  0  0  0  0  0  0  0  0  0
   11.7533  -18.3245   24.2098 C   0  0  0  0  0  0  0  0  0  0  0  0
   13.0131  -19.0985   24.2344 C   0  0  0  0  0  0  0  0  0  0  0  0
   14.0392  -18.7595   24.8688 O   0  0  0  0  0  0  0  0  0  0  0  0
    9.9007  -16.1979   23.9125 C   0  0  0  0  0  0  0  0  0  0  0  0
   10.5495  -15.0842   23.8240 O   0  0  0  0  0  0  0  0  0  0  0  0
   13.1039  -20.2984   23.5112 O   0  0  0  0  0  0  0  0  0  0  0  0
    8.3912  -12.2643   26.6353 C   0  0  0  0  0  0  0  0  0  0  0  0
    7.4330  -13.4397   26.9004 C   0  0  1  0  0  0  0  0  0  0  0  0
    6.0441  -12.8557   26.7784 C   0  0  0  0  0  0  0  0  0  0  0  0
    7.7406  -14.4595   25.8665 C   0  0  0  0  0  0  0  0  0  0  0  0
    8.9952  -15.2481   26.0609 C   0  0  2  0  0  0  0  0  0  0  0  0
    9.1893  -16.3259   25.1091 N   0  0  0  0  0  0  0  0  0  0  0  0
    8.9262  -15.8554   27.4033 C   0  0  0  0  0  0  0  0  0  0  0  0
    8.9380  -15.1458   28.4221 O   0  0  0  0  0  0  0  0  0  0  0  0
    8.8474  -17.2276   27.5280 O   0  0  0  0  0  0  0  0  0  0  0  0
  1  2  1  0
  2  3  1  0
  3  5  1  0
  3  4  1  6
  5  6  1  1
  7  5  1  0
  7  8  2  0
  9 10  1  0
  9  7  1  0
 11 12  1  0
 10 11  1  6
 12 13  1  0
 13 14  2  0
 13 17  1  0
 15 16  2  0
 15 10  1  0
 19 18  1  6
 19 20  1  0
 19 21  1  0
 22 21  1  6
 22 23  1  0
 22 24  1  0
 23 15  1  0
 24 26  1  0
 25 24  2  0
M  END
$$$$
