IEL.pdb
     RDKit          3D

 26 25  0  0  1  0  0  0  0  0999 V2000
    7.0029  -11.7002   19.5552 C   0  0  0  0  0  0  0  0  0  0  0  0
    7.2494  -13.1588   19.3361 C   0  0  0  0  0  0  0  0  0  0  0  0
    7.8359  -13.8455   20.5311 C   0  0  2  0  0  0  0  0  0  0  0  0
    9.0636  -13.0977   21.0107 C   0  0  0  0  0  0  0  0  0  0  0  0
    8.1045  -15.3025   20.3295 C   0  0  2  0  0  0  0  0  0  0  0  0
    6.8036  -15.8728   19.8960 N   0  0  0  0  0  0  0  0  0  0  0  0
    8.4536  -16.0273   21.5915 C   0  0  0  0  0  0  0  0  0  0  0  0
    7.5083  -16.2838   22.3671 O   0  0  0  0  0  0  0  0  0  0  0  0
    9.7446  -16.4184   21.9286 N   0  0  0  0  0  0  0  0  0  0  0  0
   10.2722  -16.9808   23.1144 C   0  0  1  0  0  0  0  0  0  0  0  0
   11.6130  -17.6171   23.0294 C   0  0  0  0  0  0  0  0  0  0  0  0
   12.1868  -18.2211   24.2506 C   0  0  0  0  0  0  0  0  0  0  0  0
   13.5164  -18.8490   24.0937 C   0  0  0  0  0  0  0  0  0  0  0  0
   13.7058  -20.0807   23.9626 O   0  0  0  0  0  0  0  0  0  0  0  0
   10.0962  -16.3039   24.3954 C   0  0  0  0  0  0  0  0  0  0  0  0
   10.9607  -15.3851   24.6739 O   0  0  0  0  0  0  0  0  0  0  0  0
   14.6667  -18.0442   24.0862 O   0  0  0  0  0  0  0  0  0  0  0  0
    6.1700  -13.2761   26.0275 C   0  0  0  0  0  0  0  0  0  0  0  0
    7.6207  -13.7524   25.8310 C   0  0  1  0  0  0  0  0  0  0  0  0
    8.4810  -12.5559   26.1678 C   0  0  0  0  0  0  0  0  0  0  0  0
    7.8053  -14.8958   26.7595 C   0  0  0  0  0  0  0  0  0  0  0  0
    9.0681  -15.6806   26.6072 C   0  0  2  0  0  0  0  0  0  0  0  0
    9.1425  -16.4844   25.4015 N   0  0  0  0  0  0  0  0  0  0  0  0
    9.1505  -16.6031   27.7551 C   0  0  0  0  0  0  0  0  0  0  0  0
    9.2710  -16.1677   28.9117 O   0  0  0  0  0  0  0  0  0  0  0  0
    9.0929  -17.9653   27.5411 O   0  0  0  0  0  0  0  0  0  0  0  0
  1  2  1  0
  2  3  1  0
  3  5  1  0
  3  4  1  6
  5  6  1  1
  7  5  1  0
  7  8  2  0
  9 10  1  0
  9  7  1  0
 11 12  1  0
 10 11  1  6
 12 13  1  0
 13 14  2  0
 13 17  1  0
 15 16  2  0
 15 10  1  0
 19 18  1  1
 19 20  1  0
 19 21  1  0
 22 21  1  6
 22 23  1  0
 22 24  1  0
 23 15  1  0
 24 26  1  0
 25 24  2  0
M  END
$$$$
