IEL.pdb
     RDKit          3D

 26 25  0  0  1  0  0  0  0  0999 V2000
    7.5059  -11.9573   20.4315 C   0  0  0  0  0  0  0  0  0  0  0  0
    7.4241  -13.4489   20.4997 C   0  0  0  0  0  0  0  0  0  0  0  0
    8.2784  -14.1354   19.4787 C   0  0  2  0  0  0  0  0  0  0  0  0
    7.9524  -13.6158   18.0930 C   0  0  0  0  0  0  0  0  0  0  0  0
    8.2342  -15.6284   19.5474 C   0  0  2  0  0  0  0  0  0  0  0  0
    6.8269  -15.9824   19.2314 N   0  0  0  0  0  0  0  0  0  0  0  0
    8.4805  -16.1723   20.9197 C   0  0  0  0  0  0  0  0  0  0  0  0
    7.4740  -16.3494   21.6384 O   0  0  0  0  0  0  0  0  0  0  0  0
    9.7421  -16.4822   21.4154 N   0  0  0  0  0  0  0  0  0  0  0  0
   10.1793  -16.8151   22.7188 C   0  0  1  0  0  0  0  0  0  0  0  0
   11.4951  -17.4957   22.8435 C   0  0  0  0  0  0  0  0  0  0  0  0
   11.6172  -18.8895   22.3659 C   0  0  0  0  0  0  0  0  0  0  0  0
   11.7772  -19.9175   23.4168 C   0  0  0  0  0  0  0  0  0  0  0  0
   10.9203  -20.7904   23.6885 O   0  0  0  0  0  0  0  0  0  0  0  0
    9.9612  -15.8937   23.8294 C   0  0  0  0  0  0  0  0  0  0  0  0
   10.7319  -14.8573   23.8652 O   0  0  0  0  0  0  0  0  0  0  0  0
   12.9539  -19.9496   24.1819 O   0  0  0  0  0  0  0  0  0  0  0  0
    8.1250  -11.8742   26.1901 C   0  0  0  0  0  0  0  0  0  0  0  0
    7.2451  -13.0552   26.6386 C   0  0  1  0  0  0  0  0  0  0  0  0
    5.8254  -12.5398   26.5752 C   0  0  0  0  0  0  0  0  0  0  0  0
    7.5196  -14.1564   25.6818 C   0  0  0  0  0  0  0  0  0  0  0  0
    8.8352  -14.8512   25.8251 C   0  0  2  0  0  0  0  0  0  0  0  0
    9.0525  -15.9398   24.8908 N   0  0  0  0  0  0  0  0  0  0  0  0
    8.8815  -15.4234   27.1838 C   0  0  0  0  0  0  0  0  0  0  0  0
    8.8450  -14.6880   28.1836 O   0  0  0  0  0  0  0  0  0  0  0  0
    8.9662  -16.7914   27.3453 O   0  0  0  0  0  0  0  0  0  0  0  0
  1  2  1  0
  2  3  1  0
  3  5  1  0
  3  4  1  6
  5  6  1  1
  7  5  1  0
  7  8  2  0
  9 10  1  0
  9  7  1  0
 11 12  1  0
 10 11  1  6
 12 13  1  0
 13 14  2  0
 13 17  1  0
 15 16  2  0
 15 10  1  0
 19 18  1  6
 19 20  1  0
 19 21  1  0
 22 21  1  6
 22 23  1  0
 22 24  1  0
 23 15  1  0
 24 26  1  0
 25 24  2  0
M  END
$$$$
