IEL.pdb
     RDKit          3D

 26 25  0  0  1  0  0  0  0  0999 V2000
    7.6052  -12.0139   21.9704 C   0  0  0  0  0  0  0  0  0  0  0  0
    7.5880  -13.4933   21.7532 C   0  0  0  0  0  0  0  0  0  0  0  0
    8.2797  -13.9141   20.4929 C   0  0  2  0  0  0  0  0  0  0  0  0
    7.6522  -13.2229   19.2992 C   0  0  0  0  0  0  0  0  0  0  0  0
    8.3663  -15.3952   20.3073 C   0  0  2  0  0  0  0  0  0  0  0  0
    6.9625  -15.8365   20.1072 N   0  0  0  0  0  0  0  0  0  0  0  0
    8.8407  -16.1246   21.5251 C   0  0  0  0  0  0  0  0  0  0  0  0
    7.9651  -16.4596   22.3509 O   0  0  0  0  0  0  0  0  0  0  0  0
   10.1728  -16.4387   21.7702 N   0  0  0  0  0  0  0  0  0  0  0  0
   10.7893  -17.1320   22.8380 C   0  0  1  0  0  0  0  0  0  0  0  0
   11.9495  -18.0007   22.5072 C   0  0  0  0  0  0  0  0  0  0  0  0
   12.4953  -18.8817   23.5615 C   0  0  0  0  0  0  0  0  0  0  0  0
   13.6619  -19.7030   23.1728 C   0  0  0  0  0  0  0  0  0  0  0  0
   13.6546  -20.9542   23.1040 O   0  0  0  0  0  0  0  0  0  0  0  0
   10.9761  -16.4821   24.1313 C   0  0  0  0  0  0  0  0  0  0  0  0
   11.3973  -15.2612   24.0961 O   0  0  0  0  0  0  0  0  0  0  0  0
   14.8760  -19.0751   22.8523 O   0  0  0  0  0  0  0  0  0  0  0  0
   10.4189  -13.3326   27.8298 C   0  0  0  0  0  0  0  0  0  0  0  0
    9.2149  -14.2766   27.6590 C   0  0  1  0  0  0  0  0  0  0  0  0
    8.0180  -13.3682   27.4931 C   0  0  0  0  0  0  0  0  0  0  0  0
    9.5066  -15.0985   26.4578 C   0  0  0  0  0  0  0  0  0  0  0  0
   10.5977  -16.1111   26.5924 C   0  0  2  0  0  0  0  0  0  0  0  0
   10.7854  -16.9604   25.4310 N   0  0  0  0  0  0  0  0  0  0  0  0
   10.2433  -16.9878   27.7243 C   0  0  0  0  0  0  0  0  0  0  0  0
    9.3323  -17.8248   27.6176 O   0  0  0  0  0  0  0  0  0  0  0  0
   10.9321  -16.8767   28.9151 O   0  0  0  0  0  0  0  0  0  0  0  0
  1  2  1  0
  2  3  1  0
  3  5  1  0
  3  4  1  6
  5  6  1  1
  7  5  1  0
  7  8  2  0
  9 10  1  0
  9  7  1  0
 11 12  1  0
 10 11  1  6
 12 13  1  0
 13 14  2  0
 13 17  1  0
 15 16  2  0
 15 10  1  0
 19 18  1  6
 19 20  1  0
 19 21  1  0
 22 21  1  6
 22 23  1  0
 22 24  1  0
 23 15  1  0
 24 26  1  0
 25 24  2  0
M  END
$$$$
