IEL.pdb
     RDKit          3D

 26 25  0  0  1  0  0  0  0  0999 V2000
    5.8603  -11.8464   26.1346 C   0  0  0  0  0  0  0  0  0  0  0  0
    5.6422  -13.1177   25.3780 C   0  0  0  0  0  0  0  0  0  0  0  0
    6.9065  -13.8804   25.1262 C   0  0  2  0  0  0  0  0  0  0  0  0
    7.8795  -13.0288   24.3359 C   0  0  0  0  0  0  0  0  0  0  0  0
    6.6974  -15.2241   24.5045 C   0  0  2  0  0  0  0  0  0  0  0  0
    5.6688  -15.8795   25.3518 N   0  0  0  0  0  0  0  0  0  0  0  0
    7.8989  -16.1131   24.5816 C   0  0  0  0  0  0  0  0  0  0  0  0
    8.0677  -16.7308   25.6544 O   0  0  0  0  0  0  0  0  0  0  0  0
    8.8079  -16.2790   23.5427 N   0  0  0  0  0  0  0  0  0  0  0  0
   10.0672  -16.9216   23.4951 C   0  0  1  0  0  0  0  0  0  0  0  0
   10.7244  -17.0361   22.1666 C   0  0  0  0  0  0  0  0  0  0  0  0
    9.9334  -17.5528   21.0295 C   0  0  0  0  0  0  0  0  0  0  0  0
   10.5989  -17.5072   19.7098 C   0  0  0  0  0  0  0  0  0  0  0  0
   10.0381  -17.1526   18.6468 O   0  0  0  0  0  0  0  0  0  0  0  0
   11.0531  -16.6946   24.5470 C   0  0  0  0  0  0  0  0  0  0  0  0
   11.8545  -15.6973   24.3665 O   0  0  0  0  0  0  0  0  0  0  0  0
   11.9485  -17.8784   19.6006 O   0  0  0  0  0  0  0  0  0  0  0  0
   11.4309  -13.9464   28.5087 C   0  0  0  0  0  0  0  0  0  0  0  0
   10.4789  -15.1370   28.7233 C   0  0  1  0  0  0  0  0  0  0  0  0
    9.1850  -14.5281   29.2136 C   0  0  0  0  0  0  0  0  0  0  0  0
   10.3569  -15.8063   27.4040 C   0  0  0  0  0  0  0  0  0  0  0  0
   11.4545  -16.7501   27.0317 C   0  0  2  0  0  0  0  0  0  0  0  0
   11.2959  -17.3864   25.7373 N   0  0  0  0  0  0  0  0  0  0  0  0
   11.4741  -17.8199   28.0468 C   0  0  0  0  0  0  0  0  0  0  0  0
   10.6220  -18.7229   28.0336 O   0  0  0  0  0  0  0  0  0  0  0  0
   12.4507  -17.8171   29.0221 O   0  0  0  0  0  0  0  0  0  0  0  0
  1  2  1  0
  2  3  1  0
  3  5  1  0
  3  4  1  6
  5  6  1  1
  7  5  1  0
  7  8  2  0
  9 10  1  0
  9  7  1  0
 11 12  1  0
 10 11  1  6
 12 13  1  0
 13 14  2  0
 13 17  1  0
 15 16  2  0
 15 10  1  0
 19 18  1  6
 19 20  1  0
 19 21  1  0
 22 21  1  1
 22 23  1  0
 22 24  1  0
 23 15  1  0
 24 26  1  0
 25 24  2  0
M  END
$$$$
