GYW.pdb
     RDKit          3D

 31 33  0  0  1  0  0  0  0  0999 V2000
   18.7362   -1.5698  -17.6898 N   0  0  0  0  0  0  0  0  0  0  0  0
   17.7586   -2.4011  -16.9978 C   0  0  0  0  0  0  0  0  0  0  0  0
   18.4048   -3.6495  -16.5061 C   0  0  0  0  0  0  0  0  0  0  0  0
   19.0822   -4.4014  -17.2404 O   0  0  0  0  0  0  0  0  0  0  0  0
   24.4678   -2.5814  -15.5092 O   0  0  0  0  0  0  0  0  0  0  0  0
   23.3382   -3.2579  -15.0544 C   0  0  0  0  0  0  0  0  0  0  0  0
   22.3345   -2.4710  -14.5200 C   0  0  0  0  0  0  0  0  0  0  0  0
   21.2114   -3.1194  -14.0655 C   0  0  0  0  0  0  0  0  0  0  0  0
   21.0409   -4.4890  -14.1158 C   0  0  0  0  0  0  0  0  0  0  0  0
   19.8093   -5.1535  -13.6068 C   0  0  0  0  0  0  0  0  0  0  0  0
   18.7503   -5.2817  -14.6316 C   0  0  2  0  0  0  0  0  0  0  0  0
   18.2669   -4.0311  -15.1548 N   0  0  0  0  0  0  0  0  0  0  0  0
   17.5935   -6.0736  -14.1740 C   0  0  0  0  0  0  0  0  0  0  0  0
   16.7414   -5.6623  -13.3385 O   0  0  0  0  0  0  0  0  0  0  0  0
   22.0751   -5.2290  -14.6600 C   0  0  0  0  0  0  0  0  0  0  0  0
   23.2024   -4.6143  -15.1194 C   0  0  0  0  0  0  0  0  0  0  0  0
   17.3952   -7.3712  -14.6781 N   0  0  0  0  0  0  0  0  0  0  0  0
   16.2018   -8.1703  -14.2881 C   0  0  1  0  0  0  0  0  0  0  0  0
   15.0919   -7.6177  -15.1096 C   0  0  0  0  0  0  0  0  0  0  0  0
   13.8115   -8.2779  -14.8862 C   0  0  0  0  0  0  0  0  0  0  0  0
   12.9232   -7.9392  -13.8967 C   0  0  0  0  0  0  0  0  0  0  0  0
   11.8917   -8.7794  -13.9710 N   0  0  0  0  0  0  0  0  0  0  0  0
   12.0886   -9.6546  -14.9856 C   0  0  0  0  0  0  0  0  0  0  0  0
   11.2983  -10.7003  -15.4704 C   0  0  0  0  0  0  0  0  0  0  0  0
   11.7059  -11.4466  -16.5439 C   0  0  0  0  0  0  0  0  0  0  0  0
   12.9188  -11.1178  -17.1130 C   0  0  0  0  0  0  0  0  0  0  0  0
   13.6945  -10.1100  -16.6547 C   0  0  0  0  0  0  0  0  0  0  0  0
   13.2938   -9.3455  -15.5666 C   0  0  0  0  0  0  0  0  0  0  0  0
   16.5000   -9.5636  -14.5976 C   0  0  0  0  0  0  0  0  0  0  0  0
   17.3224   -9.9746  -15.6422 O   0  0  0  0  0  0  0  0  0  0  0  0
   15.9979  -10.5018  -13.9040 O   0  0  0  0  0  0  0  0  0  0  0  0
  1  2  1  0
  3  4  2  0
  3  2  1  0
  6  5  1  0
  7  6  2  0
  8  7  1  0
  9 15  1  0
  9  8  2  0
 10  9  1  0
 11 10  1  1
 11 12  1  0
 12  3  1  0
 13 17  1  0
 13 11  1  0
 14 13  2  0
 15 16  2  0
 16  6  1  0
 18 17  1  0
 18 29  1  0
 18 19  1  6
 20 28  1  0
 20 19  1  0
 21 20  2  0
 22 21  1  0
 22 23  1  0
 23 28  2  0
 24 23  1  0
 24 25  2  0
 25 26  1  0
 26 27  2  0
 28 27  1  0
 29 30  1  0
 31 29  2  0
M  END
$$$$
