GYW.pdb
     RDKit          3D

 31 33  0  0  1  0  0  0  0  0999 V2000
   22.2355  -24.6982  -15.5597 N   0  0  0  0  0  0  0  0  0  0  0  0
   22.7569  -24.2705  -14.2671 C   0  0  0  0  0  0  0  0  0  0  0  0
   22.7149  -22.7854  -14.1642 C   0  0  0  0  0  0  0  0  0  0  0  0
   22.4587  -22.0417  -15.1361 O   0  0  0  0  0  0  0  0  0  0  0  0
   16.7650  -22.0793  -12.1185 O   0  0  0  0  0  0  0  0  0  0  0  0
   18.0857  -21.6617  -11.9710 C   0  0  0  0  0  0  0  0  0  0  0  0
   18.4675  -20.5758  -12.7373 C   0  0  0  0  0  0  0  0  0  0  0  0
   19.7669  -20.1482  -12.6062 C   0  0  0  0  0  0  0  0  0  0  0  0
   20.6893  -20.7381  -11.7645 C   0  0  0  0  0  0  0  0  0  0  0  0
   22.0909  -20.2469  -11.6560 C   0  0  0  0  0  0  0  0  0  0  0  0
   22.9631  -20.7274  -12.7498 C   0  0  2  0  0  0  0  0  0  0  0  0
   22.9710  -22.1556  -12.9279 N   0  0  0  0  0  0  0  0  0  0  0  0
   24.3580  -20.2659  -12.6244 C   0  0  0  0  0  0  0  0  0  0  0  0
   24.6975  -19.0521  -12.5552 O   0  0  0  0  0  0  0  0  0  0  0  0
   20.2555  -21.8205  -11.0206 C   0  0  0  0  0  0  0  0  0  0  0  0
   18.9719  -22.2683  -11.1289 C   0  0  0  0  0  0  0  0  0  0  0  0
   25.4010  -21.2078  -12.5755 N   0  0  0  0  0  0  0  0  0  0  0  0
   26.7982  -20.7887  -12.2803 C   0  0  1  0  0  0  0  0  0  0  0  0
   27.1773  -21.5639  -11.0688 C   0  0  0  0  0  0  0  0  0  0  0  0
   26.7570  -20.9423   -9.8190 C   0  0  0  0  0  0  0  0  0  0  0  0
   25.4992  -20.4487   -9.5795 C   0  0  0  0  0  0  0  0  0  0  0  0
   25.4952  -19.9219   -8.3555 N   0  0  0  0  0  0  0  0  0  0  0  0
   26.7197  -20.0626   -7.7945 C   0  0  0  0  0  0  0  0  0  0  0  0
   27.2079  -19.6955   -6.5376 C   0  0  0  0  0  0  0  0  0  0  0  0
   28.5020  -19.9684   -6.1818 C   0  0  0  0  0  0  0  0  0  0  0  0
   29.2866  -20.6146   -7.1145 C   0  0  0  0  0  0  0  0  0  0  0  0
   28.8288  -20.9751   -8.3342 C   0  0  0  0  0  0  0  0  0  0  0  0
   27.5191  -20.7039   -8.7085 C   0  0  0  0  0  0  0  0  0  0  0  0
   27.6025  -21.1283  -13.4480 C   0  0  0  0  0  0  0  0  0  0  0  0
   28.9698  -20.8911  -13.5526 O   0  0  0  0  0  0  0  0  0  0  0  0
   27.0692  -21.6719  -14.4647 O   0  0  0  0  0  0  0  0  0  0  0  0
  1  2  1  0
  3  4  2  0
  3  2  1  0
  6  5  1  0
  7  6  2  0
  8  7  1  0
  9 15  1  0
  9  8  2  0
 10  9  1  0
 11 10  1  1
 11 12  1  0
 12  3  1  0
 13 17  1  0
 13 11  1  0
 14 13  2  0
 15 16  2  0
 16  6  1  0
 18 17  1  0
 18 29  1  0
 18 19  1  1
 20 28  1  0
 20 19  1  0
 21 20  2  0
 22 21  1  0
 22 23  1  0
 23 28  2  0
 24 23  1  0
 24 25  2  0
 25 26  1  0
 26 27  2  0
 28 27  1  0
 29 30  1  0
 31 29  2  0
M  END
$$$$
