GYW.pdb
     RDKit          3D

 31 33  0  0  1  0  0  0  0  0999 V2000
   25.7126  -19.7799  -16.2796 N   0  0  0  0  0  0  0  0  0  0  0  0
   24.3146  -19.5872  -15.9133 C   0  0  0  0  0  0  0  0  0  0  0  0
   24.1960  -19.3642  -14.4456 C   0  0  0  0  0  0  0  0  0  0  0  0
   24.4667  -18.2734  -13.8977 O   0  0  0  0  0  0  0  0  0  0  0  0
   17.9658  -17.4389  -13.6952 O   0  0  0  0  0  0  0  0  0  0  0  0
   19.0014  -18.2138  -13.1782 C   0  0  0  0  0  0  0  0  0  0  0  0
   19.4633  -19.2305  -13.9937 C   0  0  0  0  0  0  0  0  0  0  0  0
   20.4851  -20.0067  -13.5017 C   0  0  0  0  0  0  0  0  0  0  0  0
   21.0599  -19.8241  -12.2593 C   0  0  0  0  0  0  0  0  0  0  0  0
   22.1626  -20.6919  -11.7609 C   0  0  0  0  0  0  0  0  0  0  0  0
   23.5017  -20.2420  -12.1996 C   0  0  2  0  0  0  0  0  0  0  0  0
   23.7610  -20.4107  -13.6052 N   0  0  0  0  0  0  0  0  0  0  0  0
   24.6009  -20.8713  -11.4444 C   0  0  0  0  0  0  0  0  0  0  0  0
   25.1073  -21.9908  -11.7339 O   0  0  0  0  0  0  0  0  0  0  0  0
   20.5606  -18.7930  -11.4841 C   0  0  0  0  0  0  0  0  0  0  0  0
   19.5469  -18.0055  -11.9446 C   0  0  0  0  0  0  0  0  0  0  0  0
   25.1439  -20.2127  -10.3269 N   0  0  0  0  0  0  0  0  0  0  0  0
   26.1452  -20.8839   -9.4541 C   0  0  1  0  0  0  0  0  0  0  0  0
   27.2245  -19.8767   -9.2731 C   0  0  0  0  0  0  0  0  0  0  0  0
   28.2952  -20.3167   -8.3871 C   0  0  0  0  0  0  0  0  0  0  0  0
   29.2439  -21.2516   -8.7171 C   0  0  0  0  0  0  0  0  0  0  0  0
   30.0271  -21.4292   -7.6538 N   0  0  0  0  0  0  0  0  0  0  0  0
   29.6103  -20.6313   -6.6420 C   0  0  0  0  0  0  0  0  0  0  0  0
   30.1065  -20.4430   -5.3492 C   0  0  0  0  0  0  0  0  0  0  0  0
   29.5185  -19.5466   -4.4970 C   0  0  0  0  0  0  0  0  0  0  0  0
   28.4274  -18.8499   -4.9737 C   0  0  0  0  0  0  0  0  0  0  0  0
   27.9357  -19.0218   -6.2210 C   0  0  0  0  0  0  0  0  0  0  0  0
   28.5215  -19.9280   -7.0954 C   0  0  0  0  0  0  0  0  0  0  0  0
   25.4680  -21.2226   -8.2081 C   0  0  0  0  0  0  0  0  0  0  0  0
   24.3741  -20.5297   -7.6984 O   0  0  0  0  0  0  0  0  0  0  0  0
   25.8654  -22.2002   -7.5012 O   0  0  0  0  0  0  0  0  0  0  0  0
  1  2  1  0
  3  4  2  0
  3  2  1  0
  6  5  1  0
  7  6  2  0
  8  7  1  0
  9 15  1  0
  9  8  2  0
 10  9  1  0
 11 10  1  1
 11 12  1  0
 12  3  1  0
 13 17  1  0
 13 11  1  0
 14 13  2  0
 15 16  2  0
 16  6  1  0
 18 17  1  0
 18 29  1  0
 18 19  1  1
 20 28  1  0
 20 19  1  0
 21 20  2  0
 22 21  1  0
 22 23  1  0
 23 28  2  0
 24 23  1  0
 24 25  2  0
 25 26  1  0
 26 27  2  0
 28 27  1  0
 29 30  1  0
 31 29  2  0
M  END
$$$$
