GYW.pdb
     RDKit          3D

 31 33  0  0  1  0  0  0  0  0999 V2000
   29.8178  -17.5428  -16.5578 N   0  0  0  0  0  0  0  0  0  0  0  0
   29.6688  -18.7754  -15.7933 C   0  0  0  0  0  0  0  0  0  0  0  0
   28.3706  -18.7712  -15.0636 C   0  0  0  0  0  0  0  0  0  0  0  0
   27.6560  -17.7515  -14.9492 O   0  0  0  0  0  0  0  0  0  0  0  0
   20.5290  -20.4174  -11.9596 O   0  0  0  0  0  0  0  0  0  0  0  0
   21.7741  -20.5341  -12.5733 C   0  0  0  0  0  0  0  0  0  0  0  0
   22.2081  -19.4271  -13.2793 C   0  0  0  0  0  0  0  0  0  0  0  0
   23.4344  -19.5220  -13.8922 C   0  0  0  0  0  0  0  0  0  0  0  0
   24.2362  -20.6452  -13.8381 C   0  0  0  0  0  0  0  0  0  0  0  0
   25.5576  -20.7093  -14.5219 C   0  0  0  0  0  0  0  0  0  0  0  0
   26.6383  -20.0404  -13.7652 C   0  0  2  0  0  0  0  0  0  0  0  0
   27.8949  -19.9553  -14.4617 N   0  0  0  0  0  0  0  0  0  0  0  0
   26.8792  -20.6446  -12.4418 C   0  0  0  0  0  0  0  0  0  0  0  0
   27.5132  -21.7210  -12.2610 O   0  0  0  0  0  0  0  0  0  0  0  0
   23.7547  -21.7240  -13.1187 C   0  0  0  0  0  0  0  0  0  0  0  0
   22.5414  -21.6603  -12.4994 C   0  0  0  0  0  0  0  0  0  0  0  0
   26.3872  -20.0104  -11.2872 N   0  0  0  0  0  0  0  0  0  0  0  0
   26.4176  -20.6944   -9.9658 C   0  0  1  0  0  0  0  0  0  0  0  0
   27.1088  -19.7376   -9.0607 C   0  0  0  0  0  0  0  0  0  0  0  0
   27.0331  -20.1036   -7.6516 C   0  0  0  0  0  0  0  0  0  0  0  0
   26.0542  -20.8941   -7.1042 C   0  0  0  0  0  0  0  0  0  0  0  0
   26.2837  -20.9772   -5.7942 N   0  0  0  0  0  0  0  0  0  0  0  0
   27.3884  -20.2604   -5.4784 C   0  0  0  0  0  0  0  0  0  0  0  0
   28.0383  -20.0536   -4.2586 C   0  0  0  0  0  0  0  0  0  0  0  0
   29.1750  -19.2927   -4.1908 C   0  0  0  0  0  0  0  0  0  0  0  0
   29.6380  -18.7490   -5.3712 C   0  0  0  0  0  0  0  0  0  0  0  0
   29.0198  -18.9394   -6.5581 C   0  0  0  0  0  0  0  0  0  0  0  0
   27.8660  -19.7080   -6.6414 C   0  0  0  0  0  0  0  0  0  0  0  0
   25.0334  -20.9432   -9.5809 C   0  0  0  0  0  0  0  0  0  0  0  0
   23.9613  -20.1363   -9.9495 O   0  0  0  0  0  0  0  0  0  0  0  0
   24.7331  -21.9439   -8.8585 O   0  0  0  0  0  0  0  0  0  0  0  0
  1  2  1  0
  3  4  2  0
  3  2  1  0
  6  5  1  0
  7  6  2  0
  8  7  1  0
  9 15  1  0
  9  8  2  0
 10  9  1  0
 11 10  1  6
 11 12  1  0
 12  3  1  0
 13 17  1  0
 13 11  1  0
 14 13  2  0
 15 16  2  0
 16  6  1  0
 18 17  1  0
 18 29  1  0
 18 19  1  1
 20 28  1  0
 20 19  1  0
 21 20  2  0
 22 21  1  0
 22 23  1  0
 23 28  2  0
 24 23  1  0
 24 25  2  0
 25 26  1  0
 26 27  2  0
 28 27  1  0
 29 30  1  0
 31 29  2  0
M  END
$$$$
