GYW.pdb
     RDKit          3D

 31 33  0  0  1  0  0  0  0  0999 V2000
   27.1744  -23.5852  -16.7936 N   0  0  0  0  0  0  0  0  0  0  0  0
   26.4575  -22.3547  -16.4810 C   0  0  0  0  0  0  0  0  0  0  0  0
   27.0233  -21.7307  -15.2528 C   0  0  0  0  0  0  0  0  0  0  0  0
   28.1518  -22.0203  -14.7989 O   0  0  0  0  0  0  0  0  0  0  0  0
   29.0218  -15.7890  -17.5534 O   0  0  0  0  0  0  0  0  0  0  0  0
   28.4384  -16.5201  -16.5212 C   0  0  0  0  0  0  0  0  0  0  0  0
   27.2301  -16.0425  -16.0477 C   0  0  0  0  0  0  0  0  0  0  0  0
   26.6380  -16.7498  -15.0290 C   0  0  0  0  0  0  0  0  0  0  0  0
   27.1800  -17.8894  -14.4679 C   0  0  0  0  0  0  0  0  0  0  0  0
   26.5083  -18.6240  -13.3603 C   0  0  0  0  0  0  0  0  0  0  0  0
   26.7749  -20.0789  -13.3802 C   0  0  2  0  0  0  0  0  0  0  0  0
   26.2786  -20.7642  -14.5444 N   0  0  0  0  0  0  0  0  0  0  0  0
   26.2752  -20.7762  -12.1808 C   0  0  0  0  0  0  0  0  0  0  0  0
   25.1827  -21.4070  -12.1335 O   0  0  0  0  0  0  0  0  0  0  0  0
   28.3898  -18.3241  -14.9786 C   0  0  0  0  0  0  0  0  0  0  0  0
   29.0020  -17.6435  -15.9893 C   0  0  0  0  0  0  0  0  0  0  0  0
   27.0359  -20.7592  -10.9983 N   0  0  0  0  0  0  0  0  0  0  0  0
   26.5927  -21.5093   -9.7917 C   0  0  1  0  0  0  0  0  0  0  0  0
   27.7520  -21.4486   -8.8618 C   0  0  0  0  0  0  0  0  0  0  0  0
   27.5608  -20.5320   -7.7445 C   0  0  0  0  0  0  0  0  0  0  0  0
   26.7170  -19.4501   -7.7608 C   0  0  0  0  0  0  0  0  0  0  0  0
   26.8337  -18.8255   -6.5896 N   0  0  0  0  0  0  0  0  0  0  0  0
   27.7322  -19.4765   -5.8131 C   0  0  0  0  0  0  0  0  0  0  0  0
   28.1809  -19.2289   -4.5130 C   0  0  0  0  0  0  0  0  0  0  0  0
   29.0957  -20.0565   -3.9182 C   0  0  0  0  0  0  0  0  0  0  0  0
   29.5446  -21.1309   -4.6580 C   0  0  0  0  0  0  0  0  0  0  0  0
   29.1206  -21.3828   -5.9166 C   0  0  0  0  0  0  0  0  0  0  0  0
   28.1939  -20.5514   -6.5322 C   0  0  0  0  0  0  0  0  0  0  0  0
   25.4119  -20.8281   -9.2742 C   0  0  0  0  0  0  0  0  0  0  0  0
   24.5110  -21.3951   -8.3779 O   0  0  0  0  0  0  0  0  0  0  0  0
   25.1385  -19.6420   -9.6374 O   0  0  0  0  0  0  0  0  0  0  0  0
  1  2  1  0
  3  4  2  0
  3  2  1  0
  6  5  1  0
  7  6  2  0
  8  7  1  0
  9 15  1  0
  9  8  2  0
 10  9  1  0
 11 10  1  1
 11 12  1  0
 12  3  1  0
 13 17  1  0
 13 11  1  0
 14 13  2  0
 15 16  2  0
 16  6  1  0
 18 17  1  0
 18 29  1  0
 18 19  1  1
 20 28  1  0
 20 19  1  0
 21 20  2  0
 22 21  1  0
 22 23  1  0
 23 28  2  0
 24 23  1  0
 24 25  2  0
 25 26  1  0
 26 27  2  0
 28 27  1  0
 29 30  1  0
 31 29  2  0
M  END
$$$$
