GYW.pdb
     RDKit          3D

 31 33  0  0  1  0  0  0  0  0999 V2000
   29.4265  -22.6705  -16.4061 N   0  0  0  0  0  0  0  0  0  0  0  0
   28.0682  -22.1693  -16.2341 C   0  0  0  0  0  0  0  0  0  0  0  0
   27.9849  -21.3264  -15.0092 C   0  0  0  0  0  0  0  0  0  0  0  0
   28.9654  -20.7101  -14.5378 O   0  0  0  0  0  0  0  0  0  0  0  0
   27.5710  -15.7411  -17.5272 O   0  0  0  0  0  0  0  0  0  0  0  0
   27.1312  -16.5601  -16.4898 C   0  0  0  0  0  0  0  0  0  0  0  0
   26.3048  -17.6076  -16.8529 C   0  0  0  0  0  0  0  0  0  0  0  0
   25.8599  -18.4274  -15.8438 C   0  0  0  0  0  0  0  0  0  0  0  0
   26.1912  -18.2589  -14.5137 C   0  0  0  0  0  0  0  0  0  0  0  0
   25.6826  -19.1674  -13.4490 C   0  0  0  0  0  0  0  0  0  0  0  0
   26.5711  -20.3224  -13.1952 C   0  0  2  0  0  0  0  0  0  0  0  0
   26.7584  -21.1951  -14.3243 N   0  0  0  0  0  0  0  0  0  0  0  0
   26.1473  -21.1375  -12.0418 C   0  0  0  0  0  0  0  0  0  0  0  0
   25.5502  -22.2453  -12.1403 O   0  0  0  0  0  0  0  0  0  0  0  0
   27.0206  -17.1958  -14.2050 C   0  0  0  0  0  0  0  0  0  0  0  0
   27.4784  -16.3646  -15.1845 C   0  0  0  0  0  0  0  0  0  0  0  0
   26.4075  -20.6845  -10.7362 N   0  0  0  0  0  0  0  0  0  0  0  0
   26.0974  -21.5345   -9.5546 C   0  0  1  0  0  0  0  0  0  0  0  0
   27.3244  -21.4781   -8.7158 C   0  0  0  0  0  0  0  0  0  0  0  0
   27.3367  -20.3712   -7.7674 C   0  0  0  0  0  0  0  0  0  0  0  0
   26.5880  -19.2284   -7.8951 C   0  0  0  0  0  0  0  0  0  0  0  0
   26.8873  -18.4295   -6.8715 N   0  0  0  0  0  0  0  0  0  0  0  0
   27.8114  -19.0267   -6.0819 C   0  0  0  0  0  0  0  0  0  0  0  0
   28.4230  -18.6090   -4.8969 C   0  0  0  0  0  0  0  0  0  0  0  0
   29.3283  -19.4118   -4.2552 C   0  0  0  0  0  0  0  0  0  0  0  0
   29.6010  -20.6355   -4.8308 C   0  0  0  0  0  0  0  0  0  0  0  0
   29.0181  -21.0528   -5.9768 C   0  0  0  0  0  0  0  0  0  0  0  0
   28.0990  -20.2487   -6.6384 C   0  0  0  0  0  0  0  0  0  0  0  0
   24.9333  -20.9490   -8.9002 C   0  0  0  0  0  0  0  0  0  0  0  0
   24.2251  -21.5597   -7.8696 O   0  0  0  0  0  0  0  0  0  0  0  0
   24.4925  -19.8133   -9.2596 O   0  0  0  0  0  0  0  0  0  0  0  0
  1  2  1  0
  3  4  2  0
  3  2  1  0
  6  5  1  0
  7  6  2  0
  8  7  1  0
  9 15  1  0
  9  8  2  0
 10  9  1  0
 11 10  1  6
 11 12  1  0
 12  3  1  0
 13 17  1  0
 13 11  1  0
 14 13  2  0
 15 16  2  0
 16  6  1  0
 18 17  1  0
 18 29  1  0
 18 19  1  1
 20 28  1  0
 20 19  1  0
 21 20  2  0
 22 21  1  0
 22 23  1  0
 23 28  2  0
 24 23  1  0
 24 25  2  0
 25 26  1  0
 26 27  2  0
 28 27  1  0
 29 30  1  0
 31 29  2  0
M  END
$$$$
