GYW.pdb
     RDKit          3D

 31 33  0  0  1  0  0  0  0  0999 V2000
   26.9947  -22.7448  -18.0387 N   0  0  0  0  0  0  0  0  0  0  0  0
   27.0797  -21.5155  -17.2593 C   0  0  0  0  0  0  0  0  0  0  0  0
   26.4238  -21.7025  -15.9354 C   0  0  0  0  0  0  0  0  0  0  0  0
   25.4653  -22.4846  -15.7538 O   0  0  0  0  0  0  0  0  0  0  0  0
   24.4548  -20.6981   -7.4074 O   0  0  0  0  0  0  0  0  0  0  0  0
   25.1139  -20.7464   -8.6336 C   0  0  0  0  0  0  0  0  0  0  0  0
   25.4512  -19.5258   -9.1891 C   0  0  0  0  0  0  0  0  0  0  0  0
   26.1022  -19.5518  -10.3990 C   0  0  0  0  0  0  0  0  0  0  0  0
   26.4285  -20.7129  -11.0719 C   0  0  0  0  0  0  0  0  0  0  0  0
   27.1301  -20.6974  -12.3853 C   0  0  0  0  0  0  0  0  0  0  0  0
   26.2470  -21.0392  -13.5217 C   0  0  2  0  0  0  0  0  0  0  0  0
   26.8800  -20.9796  -14.8129 N   0  0  0  0  0  0  0  0  0  0  0  0
   25.0188  -20.2243  -13.5670 C   0  0  0  0  0  0  0  0  0  0  0  0
   24.9995  -18.9885  -13.8238 O   0  0  0  0  0  0  0  0  0  0  0  0
   26.0684  -21.9063  -10.4721 C   0  0  0  0  0  0  0  0  0  0  0  0
   25.4213  -21.9130   -9.2717 C   0  0  0  0  0  0  0  0  0  0  0  0
   23.7738  -20.8271  -13.3139 N   0  0  0  0  0  0  0  0  0  0  0  0
   22.5633  -20.0027  -13.0499 C   0  0  1  0  0  0  0  0  0  0  0  0
   22.2550  -19.3555  -14.3532 C   0  0  0  0  0  0  0  0  0  0  0  0
   22.0254  -20.3015  -15.4383 C   0  0  0  0  0  0  0  0  0  0  0  0
   21.1338  -21.3432  -15.3873 C   0  0  0  0  0  0  0  0  0  0  0  0
   21.2250  -22.0134  -16.5354 N   0  0  0  0  0  0  0  0  0  0  0  0
   22.1538  -21.4312  -17.3308 C   0  0  0  0  0  0  0  0  0  0  0  0
   22.5939  -21.7445  -18.6196 C   0  0  0  0  0  0  0  0  0  0  0  0
   23.5464  -20.9802  -19.2394 C   0  0  0  0  0  0  0  0  0  0  0  0
   24.0415  -19.9016  -18.5361 C   0  0  0  0  0  0  0  0  0  0  0  0
   23.6262  -19.5867  -17.2889 C   0  0  0  0  0  0  0  0  0  0  0  0
   22.6616  -20.3533  -16.6480 C   0  0  0  0  0  0  0  0  0  0  0  0
   21.5147  -20.9126  -12.6042 C   0  0  0  0  0  0  0  0  0  0  0  0
   21.6842  -22.2847  -12.4462 O   0  0  0  0  0  0  0  0  0  0  0  0
   20.3522  -20.4773  -12.3353 O   0  0  0  0  0  0  0  0  0  0  0  0
  1  2  1  0
  3  4  2  0
  3  2  1  0
  6  5  1  0
  7  6  2  0
  8  7  1  0
  9 15  1  0
  9  8  2  0
 10  9  1  0
 11 10  1  1
 11 12  1  0
 12  3  1  0
 13 17  1  0
 13 11  1  0
 14 13  2  0
 15 16  2  0
 16  6  1  0
 18 17  1  0
 18 29  1  0
 18 19  1  6
 20 28  1  0
 20 19  1  0
 21 20  2  0
 22 21  1  0
 22 23  1  0
 23 28  2  0
 24 23  1  0
 24 25  2  0
 25 26  1  0
 26 27  2  0
 28 27  1  0
 29 30  1  0
 31 29  2  0
M  END
$$$$
