GYW.pdb
     RDKit          3D

 31 33  0  0  1  0  0  0  0  0999 V2000
   30.7490  -22.9027  -18.0261 N   0  0  0  0  0  0  0  0  0  0  0  0
   29.7104  -23.6545  -17.3319 C   0  0  0  0  0  0  0  0  0  0  0  0
   28.5455  -22.7724  -17.0444 C   0  0  0  0  0  0  0  0  0  0  0  0
   28.5748  -21.5321  -17.1999 O   0  0  0  0  0  0  0  0  0  0  0  0
   20.5358  -19.6921  -15.4103 O   0  0  0  0  0  0  0  0  0  0  0  0
   21.6111  -20.5034  -15.7651 C   0  0  0  0  0  0  0  0  0  0  0  0
   22.5203  -19.9525  -16.6494 C   0  0  0  0  0  0  0  0  0  0  0  0
   23.5887  -20.7371  -17.0121 C   0  0  0  0  0  0  0  0  0  0  0  0
   23.7931  -22.0210  -16.5460 C   0  0  0  0  0  0  0  0  0  0  0  0
   24.9623  -22.8408  -16.9687 C   0  0  0  0  0  0  0  0  0  0  0  0
   26.1923  -22.5390  -16.2046 C   0  0  2  0  0  0  0  0  0  0  0  0
   27.3374  -23.3288  -16.5739 N   0  0  0  0  0  0  0  0  0  0  0  0
   26.0077  -22.6402  -14.7451 C   0  0  0  0  0  0  0  0  0  0  0  0
   26.1283  -23.7124  -14.0900 O   0  0  0  0  0  0  0  0  0  0  0  0
   22.8539  -22.5237  -15.6637 C   0  0  0  0  0  0  0  0  0  0  0  0
   21.7828  -21.7693  -15.2850 C   0  0  0  0  0  0  0  0  0  0  0  0
   25.6763  -21.4919  -14.0042 N   0  0  0  0  0  0  0  0  0  0  0  0
   25.4873  -21.5601  -12.5295 C   0  0  1  0  0  0  0  0  0  0  0  0
   26.6813  -20.8772  -11.9635 C   0  0  0  0  0  0  0  0  0  0  0  0
   26.5898  -20.6270  -10.5303 C   0  0  0  0  0  0  0  0  0  0  0  0
   25.4251  -20.3437   -9.8624 C   0  0  0  0  0  0  0  0  0  0  0  0
   25.7308  -20.1342   -8.5824 N   0  0  0  0  0  0  0  0  0  0  0  0
   27.0657  -20.2756   -8.4033 C   0  0  0  0  0  0  0  0  0  0  0  0
   27.8601  -20.1754   -7.2580 C   0  0  0  0  0  0  0  0  0  0  0  0
   29.2117  -20.3869   -7.3224 C   0  0  0  0  0  0  0  0  0  0  0  0
   29.7401  -20.6991   -8.5579 C   0  0  0  0  0  0  0  0  0  0  0  0
   28.9848  -20.7987   -9.6744 C   0  0  0  0  0  0  0  0  0  0  0  0
   27.6132  -20.5860   -9.6238 C   0  0  0  0  0  0  0  0  0  0  0  0
   24.2395  -20.8698  -12.2257 C   0  0  0  0  0  0  0  0  0  0  0  0
   23.3038  -21.3164  -11.2975 O   0  0  0  0  0  0  0  0  0  0  0  0
   23.9358  -19.7904  -12.8224 O   0  0  0  0  0  0  0  0  0  0  0  0
  1  2  1  0
  3  4  2  0
  3  2  1  0
  6  5  1  0
  7  6  2  0
  8  7  1  0
  9 15  1  0
  9  8  2  0
 10  9  1  0
 11 10  1  6
 11 12  1  0
 12  3  1  0
 13 17  1  0
 13 11  1  0
 14 13  2  0
 15 16  2  0
 16  6  1  0
 18 17  1  0
 18 29  1  0
 18 19  1  1
 20 28  1  0
 20 19  1  0
 21 20  2  0
 22 21  1  0
 22 23  1  0
 23 28  2  0
 24 23  1  0
 24 25  2  0
 25 26  1  0
 26 27  2  0
 28 27  1  0
 29 30  1  0
 31 29  2  0
M  END
$$$$
