GYW.pdb
     RDKit          3D

 31 33  0  0  1  0  0  0  0  0999 V2000
   24.7590  -18.0936  -19.7163 N   0  0  0  0  0  0  0  0  0  0  0  0
   24.4741  -17.6760  -18.3488 C   0  0  0  0  0  0  0  0  0  0  0  0
   24.1634  -18.8633  -17.5052 C   0  0  0  0  0  0  0  0  0  0  0  0
   23.8145  -19.9655  -17.9814 O   0  0  0  0  0  0  0  0  0  0  0  0
   29.6749  -21.6717  -17.4958 O   0  0  0  0  0  0  0  0  0  0  0  0
   28.5767  -21.2898  -16.7286 C   0  0  0  0  0  0  0  0  0  0  0  0
   27.6596  -22.2851  -16.4450 C   0  0  0  0  0  0  0  0  0  0  0  0
   26.5688  -21.9285  -15.6891 C   0  0  0  0  0  0  0  0  0  0  0  0
   26.3494  -20.6520  -15.2099 C   0  0  0  0  0  0  0  0  0  0  0  0
   25.1500  -20.3054  -14.3981 C   0  0  0  0  0  0  0  0  0  0  0  0
   23.9941  -19.8817  -15.2179 C   0  0  2  0  0  0  0  0  0  0  0  0
   24.2572  -18.7754  -16.1001 N   0  0  0  0  0  0  0  0  0  0  0  0
   22.7993  -19.5629  -14.4146 C   0  0  0  0  0  0  0  0  0  0  0  0
   22.7771  -18.7019  -13.4918 O   0  0  0  0  0  0  0  0  0  0  0  0
   27.2975  -19.6945  -15.5224 C   0  0  0  0  0  0  0  0  0  0  0  0
   28.3908  -20.0176  -16.2708 C   0  0  0  0  0  0  0  0  0  0  0  0
   21.5921  -20.2397  -14.6637 N   0  0  0  0  0  0  0  0  0  0  0  0
   20.3250  -19.8111  -14.0113 C   0  0  1  0  0  0  0  0  0  0  0  0
   20.0491  -18.4612  -14.5715 C   0  0  0  0  0  0  0  0  0  0  0  0
   19.5551  -18.4847  -15.9429 C   0  0  0  0  0  0  0  0  0  0  0  0
   18.4896  -19.2343  -16.3737 C   0  0  0  0  0  0  0  0  0  0  0  0
   18.3566  -19.0364  -17.6847 N   0  0  0  0  0  0  0  0  0  0  0  0
   19.3096  -18.1756  -18.1149 C   0  0  0  0  0  0  0  0  0  0  0  0
   19.5738  -17.6474  -19.3815 C   0  0  0  0  0  0  0  0  0  0  0  0
   20.5991  -16.7593  -19.5699 C   0  0  0  0  0  0  0  0  0  0  0  0
   21.3462  -16.4184  -18.4613 C   0  0  0  0  0  0  0  0  0  0  0  0
   21.1032  -16.9216  -17.2305 C   0  0  0  0  0  0  0  0  0  0  0  0
   20.0673  -17.8237  -17.0252 C   0  0  0  0  0  0  0  0  0  0  0  0
   19.3076  -20.7934  -14.3660 C   0  0  0  0  0  0  0  0  0  0  0  0
   18.0690  -20.8983  -13.7403 O   0  0  0  0  0  0  0  0  0  0  0  0
   19.5167  -21.6345  -15.2946 O   0  0  0  0  0  0  0  0  0  0  0  0
  1  2  1  0
  3  4  2  0
  3  2  1  0
  6  5  1  0
  7  6  2  0
  8  7  1  0
  9 15  1  0
  9  8  2  0
 10  9  1  0
 11 10  1  1
 11 12  1  0
 12  3  1  0
 13 17  1  0
 13 11  1  0
 14 13  2  0
 15 16  2  0
 16  6  1  0
 18 17  1  0
 18 29  1  0
 18 19  1  6
 20 28  1  0
 20 19  1  0
 21 20  2  0
 22 21  1  0
 22 23  1  0
 23 28  2  0
 24 23  1  0
 24 25  2  0
 25 26  1  0
 26 27  2  0
 28 27  1  0
 29 30  1  0
 31 29  2  0
M  END
$$$$
