GYW.pdb
     RDKit          3D

 31 33  0  0  1  0  0  0  0  0999 V2000
   22.9828  -18.0724  -14.9548 N   0  0  0  0  0  0  0  0  0  0  0  0
   23.6745  -18.1576  -13.6741 C   0  0  0  0  0  0  0  0  0  0  0  0
   24.6215  -19.3069  -13.6794 C   0  0  0  0  0  0  0  0  0  0  0  0
   24.4547  -20.3245  -14.3867 O   0  0  0  0  0  0  0  0  0  0  0  0
   28.2982  -17.6370  -18.5517 O   0  0  0  0  0  0  0  0  0  0  0  0
   28.2527  -18.1067  -17.2411 C   0  0  0  0  0  0  0  0  0  0  0  0
   28.4702  -19.4622  -17.0750 C   0  0  0  0  0  0  0  0  0  0  0  0
   28.4295  -19.9456  -15.7892 C   0  0  0  0  0  0  0  0  0  0  0  0
   28.1870  -19.1598  -14.6797 C   0  0  0  0  0  0  0  0  0  0  0  0
   28.1456  -19.7245  -13.3023 C   0  0  0  0  0  0  0  0  0  0  0  0
   26.8183  -20.2630  -12.9330 C   0  0  2  0  0  0  0  0  0  0  0  0
   25.7703  -19.2792  -12.8608 N   0  0  0  0  0  0  0  0  0  0  0  0
   26.8320  -21.0226  -11.6692 C   0  0  0  0  0  0  0  0  0  0  0  0
   27.4997  -22.0781  -11.4860 O   0  0  0  0  0  0  0  0  0  0  0  0
   27.9761  -17.8109  -14.9018 C   0  0  0  0  0  0  0  0  0  0  0  0
   28.0102  -17.3014  -16.1663 C   0  0  0  0  0  0  0  0  0  0  0  0
   26.0663  -20.5732  -10.5787 N   0  0  0  0  0  0  0  0  0  0  0  0
   25.9738  -21.3725   -9.3267 C   0  0  1  0  0  0  0  0  0  0  0  0
   27.3415  -21.3228   -8.7445 C   0  0  0  0  0  0  0  0  0  0  0  0
   27.5180  -20.2722   -7.7495 C   0  0  0  0  0  0  0  0  0  0  0  0
   27.0809  -18.9797   -7.8962 C   0  0  0  0  0  0  0  0  0  0  0  0
   27.4532  -18.2990   -6.8129 N   0  0  0  0  0  0  0  0  0  0  0  0
   28.1204  -19.1186   -5.9662 C   0  0  0  0  0  0  0  0  0  0  0  0
   28.6865  -18.8865   -4.7097 C   0  0  0  0  0  0  0  0  0  0  0  0
   29.3020  -19.8979   -4.0213 C   0  0  0  0  0  0  0  0  0  0  0  0
   29.3338  -21.1387   -4.6234 C   0  0  0  0  0  0  0  0  0  0  0  0
   28.7916  -21.3781   -5.8383 C   0  0  0  0  0  0  0  0  0  0  0  0
   28.1651  -20.3617   -6.5478 C   0  0  0  0  0  0  0  0  0  0  0  0
   24.9723  -20.7314   -8.4829 C   0  0  0  0  0  0  0  0  0  0  0  0
   24.6653  -21.1361   -7.1873 O   0  0  0  0  0  0  0  0  0  0  0  0
   24.3048  -19.7394   -8.9115 O   0  0  0  0  0  0  0  0  0  0  0  0
  1  2  1  0
  3  4  2  0
  3  2  1  0
  6  5  1  0
  7  6  2  0
  8  7  1  0
  9 15  1  0
  9  8  2  0
 10  9  1  0
 11 10  1  1
 11 12  1  0
 12  3  1  0
 13 17  1  0
 13 11  1  0
 14 13  2  0
 15 16  2  0
 16  6  1  0
 18 17  1  0
 18 29  1  0
 18 19  1  1
 20 28  1  0
 20 19  1  0
 21 20  2  0
 22 21  1  0
 22 23  1  0
 23 28  2  0
 24 23  1  0
 24 25  2  0
 25 26  1  0
 26 27  2  0
 28 27  1  0
 29 30  1  0
 31 29  2  0
M  END
$$$$
