GYW.pdb
     RDKit          3D

 31 33  0  0  1  0  0  0  0  0999 V2000
   29.2355  -22.2419  -16.6242 N   0  0  0  0  0  0  0  0  0  0  0  0
   27.8584  -22.0755  -16.1751 C   0  0  0  0  0  0  0  0  0  0  0  0
   27.8245  -21.2976  -14.9056 C   0  0  0  0  0  0  0  0  0  0  0  0
   28.8506  -20.8312  -14.3642 O   0  0  0  0  0  0  0  0  0  0  0  0
   27.0645  -15.5831  -17.4874 O   0  0  0  0  0  0  0  0  0  0  0  0
   26.6532  -16.4636  -16.4894 C   0  0  0  0  0  0  0  0  0  0  0  0
   27.1937  -16.2526  -15.2342 C   0  0  0  0  0  0  0  0  0  0  0  0
   26.8005  -17.1108  -14.2355 C   0  0  0  0  0  0  0  0  0  0  0  0
   25.9112  -18.1509  -14.4214 C   0  0  0  0  0  0  0  0  0  0  0  0
   25.5151  -19.0627  -13.3126 C   0  0  0  0  0  0  0  0  0  0  0  0
   26.4561  -20.1875  -13.1189 C   0  0  2  0  0  0  0  0  0  0  0  0
   26.5947  -21.0571  -14.2573 N   0  0  0  0  0  0  0  0  0  0  0  0
   26.1384  -21.0124  -11.9385 C   0  0  0  0  0  0  0  0  0  0  0  0
   25.5156  -22.1091  -11.9895 O   0  0  0  0  0  0  0  0  0  0  0  0
   25.4004  -18.3176  -15.6960 C   0  0  0  0  0  0  0  0  0  0  0  0
   25.7715  -17.4822  -16.7079 C   0  0  0  0  0  0  0  0  0  0  0  0
   26.5384  -20.5824  -10.6608 N   0  0  0  0  0  0  0  0  0  0  0  0
   26.2347  -21.3929   -9.4501 C   0  0  1  0  0  0  0  0  0  0  0  0
   27.4749  -21.3289   -8.6315 C   0  0  0  0  0  0  0  0  0  0  0  0
   27.4682  -20.2615   -7.6387 C   0  0  0  0  0  0  0  0  0  0  0  0
   26.8229  -19.0602   -7.7915 C   0  0  0  0  0  0  0  0  0  0  0  0
   27.0705  -18.3247   -6.7083 N   0  0  0  0  0  0  0  0  0  0  0  0
   27.8602  -19.0201   -5.8556 C   0  0  0  0  0  0  0  0  0  0  0  0
   28.3727  -18.6945   -4.5970 C   0  0  0  0  0  0  0  0  0  0  0  0
   29.1441  -19.5878   -3.9024 C   0  0  0  0  0  0  0  0  0  0  0  0
   29.3855  -20.8071   -4.5007 C   0  0  0  0  0  0  0  0  0  0  0  0
   28.8975  -21.1360   -5.7177 C   0  0  0  0  0  0  0  0  0  0  0  0
   28.1145  -20.2396   -6.4334 C   0  0  0  0  0  0  0  0  0  0  0  0
   25.0885  -20.7724   -8.7964 C   0  0  0  0  0  0  0  0  0  0  0  0
   24.4256  -21.3138   -7.6991 O   0  0  0  0  0  0  0  0  0  0  0  0
   24.6217  -19.6695   -9.2194 O   0  0  0  0  0  0  0  0  0  0  0  0
  1  2  1  0
  3  4  2  0
  3  2  1  0
  6  5  1  0
  7  6  2  0
  8  7  1  0
  9 15  1  0
  9  8  2  0
 10  9  1  0
 11 10  1  6
 11 12  1  0
 12  3  1  0
 13 17  1  0
 13 11  1  0
 14 13  2  0
 15 16  2  0
 16  6  1  0
 18 17  1  0
 18 29  1  0
 18 19  1  1
 20 28  1  0
 20 19  1  0
 21 20  2  0
 22 21  1  0
 22 23  1  0
 23 28  2  0
 24 23  1  0
 24 25  2  0
 25 26  1  0
 26 27  2  0
 28 27  1  0
 29 30  1  0
 31 29  2  0
M  END
$$$$
