GYW.pdb
     RDKit          3D

 31 33  0  0  1  0  0  0  0  0999 V2000
   28.2186  -17.6812  -15.5181 N   0  0  0  0  0  0  0  0  0  0  0  0
   28.1878  -19.0309  -14.9674 C   0  0  0  0  0  0  0  0  0  0  0  0
   27.2009  -19.1073  -13.8547 C   0  0  0  0  0  0  0  0  0  0  0  0
   26.6592  -18.0980  -13.3534 O   0  0  0  0  0  0  0  0  0  0  0  0
   21.7163  -18.4871  -16.7230 O   0  0  0  0  0  0  0  0  0  0  0  0
   22.4541  -19.1943  -15.7764 C   0  0  0  0  0  0  0  0  0  0  0  0
   22.2051  -18.8777  -14.4536 C   0  0  0  0  0  0  0  0  0  0  0  0
   22.9230  -19.5643  -13.5041 C   0  0  0  0  0  0  0  0  0  0  0  0
   23.8605  -20.5340  -13.8012 C   0  0  0  0  0  0  0  0  0  0  0  0
   24.6218  -21.2515  -12.7414 C   0  0  0  0  0  0  0  0  0  0  0  0
   25.8327  -20.5251  -12.3007 C   0  0  2  0  0  0  0  0  0  0  0  0
   26.8374  -20.3605  -13.3179 N   0  0  0  0  0  0  0  0  0  0  0  0
   26.4673  -21.1237  -11.1118 C   0  0  0  0  0  0  0  0  0  0  0  0
   27.4253  -21.9442  -11.1595 O   0  0  0  0  0  0  0  0  0  0  0  0
   24.0708  -20.8121  -15.1398 C   0  0  0  0  0  0  0  0  0  0  0  0
   23.3739  -20.1474  -16.1053 C   0  0  0  0  0  0  0  0  0  0  0  0
   26.0029  -20.7827   -9.8290 N   0  0  0  0  0  0  0  0  0  0  0  0
   26.6494  -21.3365   -8.6082 C   0  0  1  0  0  0  0  0  0  0  0  0
   27.8979  -20.5438   -8.4490 C   0  0  0  0  0  0  0  0  0  0  0  0
   27.9387  -19.7528   -7.2252 C   0  0  0  0  0  0  0  0  0  0  0  0
   27.3185  -18.5398   -7.0614 C   0  0  0  0  0  0  0  0  0  0  0  0
   27.6077  -18.0970   -5.8383 N   0  0  0  0  0  0  0  0  0  0  0  0
   28.3998  -18.9938   -5.2040 C   0  0  0  0  0  0  0  0  0  0  0  0
   28.9480  -18.9959   -3.9186 C   0  0  0  0  0  0  0  0  0  0  0  0
   29.7137  -20.0455   -3.4854 C   0  0  0  0  0  0  0  0  0  0  0  0
   29.9128  -21.0847   -4.3705 C   0  0  0  0  0  0  0  0  0  0  0  0
   29.3900  -21.0965   -5.6170 C   0  0  0  0  0  0  0  0  0  0  0  0
   28.6123  -20.0385   -6.0696 C   0  0  0  0  0  0  0  0  0  0  0  0
   25.7128  -21.1506   -7.5063 C   0  0  0  0  0  0  0  0  0  0  0  0
   25.8437  -21.7515   -6.2580 O   0  0  0  0  0  0  0  0  0  0  0  0
   24.6921  -20.4072   -7.6437 O   0  0  0  0  0  0  0  0  0  0  0  0
  1  2  1  0
  3  4  2  0
  3  2  1  0
  6  5  1  0
  7  6  2  0
  8  7  1  0
  9 15  1  0
  9  8  2  0
 10  9  1  0
 11 10  1  6
 11 12  1  0
 12  3  1  0
 13 17  1  0
 13 11  1  0
 14 13  2  0
 15 16  2  0
 16  6  1  0
 18 17  1  0
 18 29  1  0
 18 19  1  1
 20 28  1  0
 20 19  1  0
 21 20  2  0
 22 21  1  0
 22 23  1  0
 23 28  2  0
 24 23  1  0
 24 25  2  0
 25 26  1  0
 26 27  2  0
 28 27  1  0
 29 30  1  0
 31 29  2  0
M  END
$$$$
