LKT.pdb
     RDKit          3D

 25 24  0  0  1  0  0  0  0  0999 V2000
   27.9909  -21.4556   -6.8768 C   0  0  0  0  0  0  0  0  0  0  0  0
   27.9972  -20.0978   -7.5346 C   0  0  2  0  0  0  0  0  0  0  0  0
   27.8069  -19.0657   -6.4502 C   0  0  0  0  0  0  0  0  0  0  0  0
   26.8436  -19.9877   -8.5102 C   0  0  0  0  0  0  0  0  0  0  0  0
   26.9734  -20.9864   -9.6362 C   0  0  2  0  0  0  0  0  0  0  0  0
   28.3475  -20.9600  -10.0811 N   0  0  0  0  0  0  0  0  0  0  0  0
   26.0418  -20.5039  -10.7227 C   0  0  0  0  0  0  0  0  0  0  0  0
   26.1885  -19.3098  -11.0584 O   0  0  0  0  0  0  0  0  0  0  0  0
   25.0877  -21.3537  -11.2993 N   0  0  0  0  0  0  0  0  0  0  0  0
   24.3663  -20.9599  -12.5116 C   0  0  1  0  0  0  0  0  0  0  0  0
   24.9352  -21.7659  -13.6278 C   0  0  0  0  0  0  0  0  0  0  0  0
   26.1454  -21.2269  -14.3090 C   0  0  0  0  0  0  0  0  0  0  0  0
   26.6805  -22.1207  -15.4024 C   0  0  0  0  0  0  0  0  0  0  0  0
   27.9421  -21.4661  -15.9499 C   0  0  0  0  0  0  0  0  0  0  0  0
   28.5433  -22.3306  -16.9490 N   0  0  0  0  0  0  0  0  0  0  0  0
   22.9160  -21.1301  -12.2661 C   0  0  0  0  0  0  0  0  0  0  0  0
   22.5418  -22.1552  -11.5812 O   0  0  0  0  0  0  0  0  0  0  0  0
   19.9746  -18.3990  -11.1345 C   0  0  0  0  0  0  0  0  0  0  0  0
   19.6829  -19.2916  -12.2941 C   0  0  1  0  0  0  0  0  0  0  0  0
   19.9487  -18.5937  -13.4715 O   0  0  0  0  0  0  0  0  0  0  0  0
   20.5169  -20.5495  -12.3163 C   0  0  2  0  0  0  0  0  0  0  0  0
   21.8909  -20.2809  -12.7023 N   0  0  0  0  0  0  0  0  0  0  0  0
   19.9356  -21.4964  -13.2857 C   0  0  0  0  0  0  0  0  0  0  0  0
   20.6515  -21.8410  -14.4154 O   0  0  0  0  0  0  0  0  0  0  0  0
   18.7825  -21.9698  -13.0478 O   0  0  0  0  0  0  0  0  0  0  0  0
  2  1  1  1
  2  3  1  0
  4  5  1  0
  4  2  1  0
  5  7  1  0
  5  6  1  6
  7  8  2  0
  9 10  1  0
  9  7  1  0
 11 12  1  0
 10 11  1  6
 13 14  1  0
 13 12  1  0
 15 14  1  0
 16 10  1  0
 17 16  2  0
 19 18  1  1
 19 21  1  0
 20 19  1  0
 21 23  1  0
 21 22  1  6
 22 16  1  0
 23 24  1  0
 25 23  2  0
M  END
$$$$
