LKT.pdb
     RDKit          3D

 25 24  0  0  1  0  0  0  0  0999 V2000
   26.2003  -18.2630  -13.4887 C   0  0  0  0  0  0  0  0  0  0  0  0
   27.4317  -19.0076  -13.0356 C   0  0  2  0  0  0  0  0  0  0  0  0
   28.4485  -18.9253  -14.1478 C   0  0  0  0  0  0  0  0  0  0  0  0
   27.0986  -20.4659  -12.7963 C   0  0  0  0  0  0  0  0  0  0  0  0
   25.9561  -20.6199  -11.8200 C   0  0  2  0  0  0  0  0  0  0  0  0
   26.4888  -21.2309  -10.6242 N   0  0  0  0  0  0  0  0  0  0  0  0
   24.9580  -21.5299  -12.4959 C   0  0  0  0  0  0  0  0  0  0  0  0
   25.2999  -22.7286  -12.5768 O   0  0  0  0  0  0  0  0  0  0  0  0
   23.7403  -21.0421  -12.9898 N   0  0  0  0  0  0  0  0  0  0  0  0
   22.7556  -21.9470  -13.5871 C   0  0  1  0  0  0  0  0  0  0  0  0
   21.4400  -21.2514  -13.5190 C   0  0  0  0  0  0  0  0  0  0  0  0
   20.2741  -21.9369  -14.1433 C   0  0  0  0  0  0  0  0  0  0  0  0
   19.0088  -21.1125  -14.1442 C   0  0  0  0  0  0  0  0  0  0  0  0
   17.8946  -21.9878  -14.7032 C   0  0  0  0  0  0  0  0  0  0  0  0
   16.6657  -21.2192  -14.7807 N   0  0  0  0  0  0  0  0  0  0  0  0
   23.2229  -22.3134  -14.9435 C   0  0  0  0  0  0  0  0  0  0  0  0
   23.7778  -21.3928  -15.6537 O   0  0  0  0  0  0  0  0  0  0  0  0
   26.0251  -24.4528  -16.1036 C   0  0  0  0  0  0  0  0  0  0  0  0
   24.7818  -24.8670  -16.8171 C   0  0  1  0  0  0  0  0  0  0  0  0
   24.2392  -25.9718  -16.1622 O   0  0  0  0  0  0  0  0  0  0  0  0
   23.7184  -23.7964  -16.8542 C   0  0  2  0  0  0  0  0  0  0  0  0
   23.1282  -23.5746  -15.5459 N   0  0  0  0  0  0  0  0  0  0  0  0
   22.6514  -24.2086  -17.7846 C   0  0  0  0  0  0  0  0  0  0  0  0
   22.9327  -24.3370  -19.1307 O   0  0  0  0  0  0  0  0  0  0  0  0
   21.4953  -24.4349  -17.3129 O   0  0  0  0  0  0  0  0  0  0  0  0
  2  1  1  6
  2  3  1  0
  4  5  1  0
  4  2  1  0
  5  7  1  0
  5  6  1  1
  7  8  2  0
  9 10  1  0
  9  7  1  0
 11 12  1  0
 10 11  1  6
 13 14  1  0
 13 12  1  0
 15 14  1  0
 16 10  1  0
 17 16  2  0
 19 18  1  1
 19 21  1  0
 20 19  1  0
 21 23  1  0
 21 22  1  1
 22 16  1  0
 23 24  1  0
 25 23  2  0
M  END
$$$$
