LKT.pdb
     RDKit          3D

 25 24  0  0  1  0  0  0  0  0999 V2000
   26.5953  -13.1330  -17.8943 C   0  0  0  0  0  0  0  0  0  0  0  0
   26.0642  -14.0686  -18.9520 C   0  0  2  0  0  0  0  0  0  0  0  0
   24.8023  -13.4566  -19.5092 C   0  0  0  0  0  0  0  0  0  0  0  0
   25.7164  -15.4075  -18.3345 C   0  0  0  0  0  0  0  0  0  0  0  0
   26.9257  -16.0573  -17.7040 C   0  0  2  0  0  0  0  0  0  0  0  0
   27.8167  -16.4421  -18.7741 N   0  0  0  0  0  0  0  0  0  0  0  0
   26.4045  -17.2697  -16.9694 C   0  0  0  0  0  0  0  0  0  0  0  0
   26.1177  -18.2475  -17.6917 O   0  0  0  0  0  0  0  0  0  0  0  0
   26.2612  -17.2747  -15.5750 N   0  0  0  0  0  0  0  0  0  0  0  0
   25.7567  -18.4590  -14.8763 C   0  0  1  0  0  0  0  0  0  0  0  0
   26.3914  -18.4622  -13.5285 C   0  0  0  0  0  0  0  0  0  0  0  0
   25.9324  -19.4987  -12.5621 C   0  0  0  0  0  0  0  0  0  0  0  0
   26.1940  -20.9154  -13.0150 C   0  0  0  0  0  0  0  0  0  0  0  0
   25.6541  -21.8460  -11.9368 C   0  0  0  0  0  0  0  0  0  0  0  0
   25.8262  -23.2253  -12.3549 N   0  0  0  0  0  0  0  0  0  0  0  0
   24.2768  -18.4140  -14.8930 C   0  0  0  0  0  0  0  0  0  0  0  0
   23.7059  -17.3493  -14.4454 O   0  0  0  0  0  0  0  0  0  0  0  0
   21.4344  -18.4683  -17.6055 C   0  0  0  0  0  0  0  0  0  0  0  0
   21.2976  -19.5473  -16.5838 C   0  0  1  0  0  0  0  0  0  0  0  0
   21.8760  -20.7122  -17.0858 O   0  0  0  0  0  0  0  0  0  0  0  0
   21.9789  -19.2325  -15.2741 C   0  0  2  0  0  0  0  0  0  0  0  0
   23.4169  -19.4193  -15.3538 N   0  0  0  0  0  0  0  0  0  0  0  0
   21.4487  -20.1260  -14.2279 C   0  0  0  0  0  0  0  0  0  0  0  0
   20.1163  -20.0450  -13.8732 O   0  0  0  0  0  0  0  0  0  0  0  0
   22.2431  -20.9504  -13.6806 O   0  0  0  0  0  0  0  0  0  0  0  0
  2  1  1  1
  2  3  1  0
  4  5  1  0
  4  2  1  0
  5  7  1  0
  5  6  1  6
  7  8  2  0
  9 10  1  0
  9  7  1  0
 11 12  1  0
 10 11  1  1
 13 14  1  0
 13 12  1  0
 15 14  1  0
 16 10  1  0
 17 16  2  0
 19 18  1  6
 19 21  1  0
 20 19  1  0
 21 23  1  0
 21 22  1  6
 22 16  1  0
 23 24  1  0
 25 23  2  0
M  END
$$$$
