LKT.pdb
     RDKit          3D

 25 24  0  0  1  0  0  0  0  0999 V2000
   18.4396  -12.6459  -14.2288 C   0  0  0  0  0  0  0  0  0  0  0  0
   17.5082  -11.8708  -15.1276 C   0  0  2  0  0  0  0  0  0  0  0  0
   18.3478  -11.2155  -16.1968 C   0  0  0  0  0  0  0  0  0  0  0  0
   16.8058  -10.7862  -14.3368 C   0  0  0  0  0  0  0  0  0  0  0  0
   15.9488  -11.3693  -13.2378 C   0  0  2  0  0  0  0  0  0  0  0  0
   14.9120  -12.1534  -13.8680 N   0  0  0  0  0  0  0  0  0  0  0  0
   15.3637  -10.1870  -12.5021 C   0  0  0  0  0  0  0  0  0  0  0  0
   14.8086   -9.3322  -13.2242 O   0  0  0  0  0  0  0  0  0  0  0  0
   15.4493  -10.0777  -11.1074 N   0  0  0  0  0  0  0  0  0  0  0  0
   14.7457   -9.0098  -10.3932 C   0  0  1  0  0  0  0  0  0  0  0  0
   13.8794   -9.6731   -9.3790 C   0  0  0  0  0  0  0  0  0  0  0  0
   12.5380  -10.1387   -9.8291 C   0  0  0  0  0  0  0  0  0  0  0  0
   11.7849  -10.9317   -8.7876 C   0  0  0  0  0  0  0  0  0  0  0  0
   10.4401  -11.3156   -9.3910 C   0  0  0  0  0  0  0  0  0  0  0  0
    9.7089  -12.1510   -8.4558 N   0  0  0  0  0  0  0  0  0  0  0  0
   15.7529   -8.0631   -9.8624 C   0  0  0  0  0  0  0  0  0  0  0  0
   16.6868   -8.5409   -9.1143 O   0  0  0  0  0  0  0  0  0  0  0  0
   18.7327   -6.5596  -11.0480 C   0  0  0  0  0  0  0  0  0  0  0  0
   17.8773   -5.4497  -10.5352 C   0  0  1  0  0  0  0  0  0  0  0  0
   17.1704   -4.9014  -11.6045 O   0  0  0  0  0  0  0  0  0  0  0  0
   16.8671   -5.8893   -9.5035 C   0  0  2  0  0  0  0  0  0  0  0  0
   15.8024   -6.6821  -10.0924 N   0  0  0  0  0  0  0  0  0  0  0  0
   16.2693   -4.6968   -8.8753 C   0  0  0  0  0  0  0  0  0  0  0  0
   17.0541   -3.8727   -8.0927 O   0  0  0  0  0  0  0  0  0  0  0  0
   15.0383   -4.4633   -9.0764 O   0  0  0  0  0  0  0  0  0  0  0  0
  2  1  1  1
  2  3  1  0
  4  5  1  0
  4  2  1  0
  5  7  1  0
  5  6  1  6
  7  8  2  0
  9 10  1  0
  9  7  1  0
 11 12  1  0
 10 11  1  1
 13 14  1  0
 13 12  1  0
 15 14  1  0
 16 10  1  0
 17 16  2  0
 19 18  1  6
 19 21  1  0
 20 19  1  0
 21 23  1  0
 21 22  1  6
 22 16  1  0
 23 24  1  0
 25 23  2  0
M  END
$$$$
