LKT.pdb
     RDKit          3D

 25 24  0  0  1  0  0  0  0  0999 V2000
   27.5111  -13.3282  -15.7491 C   0  0  0  0  0  0  0  0  0  0  0  0
   27.5862  -12.3440  -16.8901 C   0  0  2  0  0  0  0  0  0  0  0  0
   28.8637  -11.5568  -16.7290 C   0  0  0  0  0  0  0  0  0  0  0  0
   26.4179  -11.3819  -16.8243 C   0  0  0  0  0  0  0  0  0  0  0  0
   25.1029  -12.0916  -17.0467 C   0  0  2  0  0  0  0  0  0  0  0  0
   25.1594  -12.7070  -18.3525 N   0  0  0  0  0  0  0  0  0  0  0  0
   24.0427  -11.0171  -16.9985 C   0  0  0  0  0  0  0  0  0  0  0  0
   24.0725  -10.1971  -17.9403 O   0  0  0  0  0  0  0  0  0  0  0  0
   23.1021  -10.9632  -15.9608 N   0  0  0  0  0  0  0  0  0  0  0  0
   21.9984  -10.0009  -15.9968 C   0  0  1  0  0  0  0  0  0  0  0  0
   20.8228  -10.6761  -15.3793 C   0  0  0  0  0  0  0  0  0  0  0  0
   19.5952   -9.8569  -15.1777 C   0  0  0  0  0  0  0  0  0  0  0  0
   18.4153  -10.3099  -16.0043 C   0  0  0  0  0  0  0  0  0  0  0  0
   17.2870   -9.3130  -15.7735 C   0  0  0  0  0  0  0  0  0  0  0  0
   16.1294   -9.6992  -16.5593 N   0  0  0  0  0  0  0  0  0  0  0  0
   22.4468   -8.7535  -15.3370 C   0  0  0  0  0  0  0  0  0  0  0  0
   23.1221   -8.8640  -14.2453 O   0  0  0  0  0  0  0  0  0  0  0  0
   24.7307   -5.7745  -16.3863 C   0  0  0  0  0  0  0  0  0  0  0  0
   23.4128   -5.3054  -15.8668 C   0  0  1  0  0  0  0  0  0  0  0  0
   22.5808   -5.0262  -16.9501 O   0  0  0  0  0  0  0  0  0  0  0  0
   22.7049   -6.3209  -15.0031 C   0  0  2  0  0  0  0  0  0  0  0  0
   22.2152   -7.4452  -15.7810 N   0  0  0  0  0  0  0  0  0  0  0  0
   21.5567   -5.6745  -14.3416 C   0  0  0  0  0  0  0  0  0  0  0  0
   21.7788   -4.6954  -13.3933 O   0  0  0  0  0  0  0  0  0  0  0  0
   20.3873   -6.0430  -14.6689 O   0  0  0  0  0  0  0  0  0  0  0  0
  2  1  1  1
  2  3  1  0
  4  5  1  0
  4  2  1  0
  5  7  1  0
  5  6  1  6
  7  8  2  0
  9 10  1  0
  9  7  1  0
 11 12  1  0
 10 11  1  1
 13 14  1  0
 13 12  1  0
 15 14  1  0
 16 10  1  0
 17 16  2  0
 19 18  1  6
 19 21  1  0
 20 19  1  0
 21 23  1  0
 21 22  1  6
 22 16  1  0
 23 24  1  0
 25 23  2  0
M  END
$$$$
