LKT.pdb
     RDKit          3D

 25 24  0  0  1  0  0  0  0  0999 V2000
   27.6594  -19.2364  -10.0628 C   0  0  0  0  0  0  0  0  0  0  0  0
   28.1343  -20.5466  -10.6409 C   0  0  2  0  0  0  0  0  0  0  0  0
   29.5031  -20.3138  -11.2322 C   0  0  0  0  0  0  0  0  0  0  0  0
   27.2026  -20.9940  -11.7485 C   0  0  0  0  0  0  0  0  0  0  0  0
   25.7827  -21.1382  -11.2531 C   0  0  2  0  0  0  0  0  0  0  0  0
   25.7196  -22.3493  -10.4680 N   0  0  0  0  0  0  0  0  0  0  0  0
   24.9248  -21.2489  -12.4913 C   0  0  0  0  0  0  0  0  0  0  0  0
   25.0814  -22.2949  -13.1558 O   0  0  0  0  0  0  0  0  0  0  0  0
   24.0236  -20.2370  -12.8500 N   0  0  0  0  0  0  0  0  0  0  0  0
   23.1382  -20.3951  -14.0060 C   0  0  1  0  0  0  0  0  0  0  0  0
   21.7561  -20.1130  -13.5269 C   0  0  0  0  0  0  0  0  0  0  0  0
   20.6590  -20.1855  -14.5319 C   0  0  0  0  0  0  0  0  0  0  0  0
   20.1985  -21.5917  -14.8340 C   0  0  0  0  0  0  0  0  0  0  0  0
   19.1889  -21.5066  -15.9713 C   0  0  0  0  0  0  0  0  0  0  0  0
   18.7186  -22.8389  -16.3040 N   0  0  0  0  0  0  0  0  0  0  0  0
   23.6347  -19.5235  -15.0951 C   0  0  0  0  0  0  0  0  0  0  0  0
   23.9973  -18.3267  -14.7848 O   0  0  0  0  0  0  0  0  0  0  0  0
   26.7384  -19.3028  -17.1423 C   0  0  0  0  0  0  0  0  0  0  0  0
   25.5514  -19.3631  -18.0446 C   0  0  1  0  0  0  0  0  0  0  0  0
   25.3587  -20.6863  -18.4394 O   0  0  0  0  0  0  0  0  0  0  0  0
   24.2718  -18.8941  -17.3959 C   0  0  2  0  0  0  0  0  0  0  0  0
   23.7579  -19.8667  -16.4476 N   0  0  0  0  0  0  0  0  0  0  0  0
   23.2537  -18.6761  -18.4399 C   0  0  0  0  0  0  0  0  0  0  0  0
   23.4887  -17.7517  -19.4388 O   0  0  0  0  0  0  0  0  0  0  0  0
   22.1816  -19.3529  -18.3863 O   0  0  0  0  0  0  0  0  0  0  0  0
  2  1  1  6
  2  3  1  0
  4  5  1  0
  4  2  1  0
  5  7  1  0
  5  6  1  1
  7  8  2  0
  9 10  1  0
  9  7  1  0
 11 12  1  0
 10 11  1  1
 13 14  1  0
 13 12  1  0
 15 14  1  0
 16 10  1  0
 17 16  2  0
 19 18  1  1
 19 21  1  0
 20 19  1  0
 21 23  1  0
 21 22  1  1
 22 16  1  0
 23 24  1  0
 25 23  2  0
M  END
$$$$
