LKT.pdb
     RDKit          3D

 25 24  0  0  1  0  0  0  0  0999 V2000
   21.3068  -14.1152  -18.8220 C   0  0  0  0  0  0  0  0  0  0  0  0
   19.9367  -13.5114  -19.0074 C   0  0  2  0  0  0  0  0  0  0  0  0
   19.6028  -13.5827  -20.4774 C   0  0  0  0  0  0  0  0  0  0  0  0
   19.9490  -12.0558  -18.5878 C   0  0  0  0  0  0  0  0  0  0  0  0
   20.3253  -11.9021  -17.1328 C   0  0  2  0  0  0  0  0  0  0  0  0
   19.4267  -12.7318  -16.3640 N   0  0  0  0  0  0  0  0  0  0  0  0
   20.1255  -10.4405  -16.8089 C   0  0  0  0  0  0  0  0  0  0  0  0
   20.7536   -9.6431  -17.5369 O   0  0  0  0  0  0  0  0  0  0  0  0
   19.2896  -10.0309  -15.7610 N   0  0  0  0  0  0  0  0  0  0  0  0
   18.9402   -8.6191  -15.5871 C   0  0  1  0  0  0  0  0  0  0  0  0
   17.6117   -8.5878  -14.9138 C   0  0  0  0  0  0  0  0  0  0  0  0
   16.4338   -8.2203  -15.7484 C   0  0  0  0  0  0  0  0  0  0  0  0
   15.1200   -8.2657  -15.0052 C   0  0  0  0  0  0  0  0  0  0  0  0
   14.0290   -7.8454  -15.9815 C   0  0  0  0  0  0  0  0  0  0  0  0
   12.7268   -8.1226  -15.4033 N   0  0  0  0  0  0  0  0  0  0  0  0
   20.0465   -7.9516  -14.8639 C   0  0  0  0  0  0  0  0  0  0  0  0
   20.4558   -8.4911  -13.7678 O   0  0  0  0  0  0  0  0  0  0  0  0
   23.6751   -7.5524  -15.5145 C   0  0  0  0  0  0  0  0  0  0  0  0
   23.0955   -6.2100  -15.2170 C   0  0  1  0  0  0  0  0  0  0  0  0
   22.8332   -5.5607  -16.4226 O   0  0  0  0  0  0  0  0  0  0  0  0
   21.8008   -6.2662  -14.4429 C   0  0  2  0  0  0  0  0  0  0  0  0
   20.7091   -6.7798  -15.2513 N   0  0  0  0  0  0  0  0  0  0  0  0
   21.4494   -4.9071  -13.9919 C   0  0  0  0  0  0  0  0  0  0  0  0
   22.2558   -4.2638  -13.0735 O   0  0  0  0  0  0  0  0  0  0  0  0
   20.4049   -4.3659  -14.4677 O   0  0  0  0  0  0  0  0  0  0  0  0
  2  1  1  6
  2  3  1  0
  4  5  1  0
  4  2  1  0
  5  7  1  0
  5  6  1  1
  7  8  2  0
  9 10  1  0
  9  7  1  0
 11 12  1  0
 10 11  1  1
 13 14  1  0
 13 12  1  0
 15 14  1  0
 16 10  1  0
 17 16  2  0
 19 18  1  6
 19 21  1  0
 20 19  1  0
 21 23  1  0
 21 22  1  6
 22 16  1  0
 23 24  1  0
 25 23  2  0
M  END
$$$$
