LKT.pdb
     RDKit          3D

 25 24  0  0  1  0  0  0  0  0999 V2000
   26.9081  -20.6224   -5.9129 C   0  0  0  0  0  0  0  0  0  0  0  0
   27.7792  -19.8139   -6.8423 C   0  0  2  0  0  0  0  0  0  0  0  0
   28.1229  -18.5245   -6.1375 C   0  0  0  0  0  0  0  0  0  0  0  0
   27.0183  -19.4806   -8.1092 C   0  0  0  0  0  0  0  0  0  0  0  0
   26.5706  -20.7299   -8.8311 C   0  0  2  0  0  0  0  0  0  0  0  0
   27.7589  -21.4531   -9.2209 N   0  0  0  0  0  0  0  0  0  0  0  0
   25.8042  -20.2525  -10.0418 C   0  0  0  0  0  0  0  0  0  0  0  0
   25.7750  -19.0137  -10.1991 O   0  0  0  0  0  0  0  0  0  0  0  0
   25.1779  -21.1539  -10.9136 N   0  0  0  0  0  0  0  0  0  0  0  0
   24.7885  -20.7442  -12.2648 C   0  0  1  0  0  0  0  0  0  0  0  0
   25.5705  -21.5899  -13.2095 C   0  0  0  0  0  0  0  0  0  0  0  0
   25.3011  -21.4140  -14.6639 C   0  0  0  0  0  0  0  0  0  0  0  0
   26.0579  -22.3775  -15.5468 C   0  0  0  0  0  0  0  0  0  0  0  0
   25.7563  -22.0046  -16.9925 C   0  0  0  0  0  0  0  0  0  0  0  0
   26.5393  -22.8413  -17.8834 N   0  0  0  0  0  0  0  0  0  0  0  0
   23.3154  -20.8453  -12.3754 C   0  0  0  0  0  0  0  0  0  0  0  0
   22.7318  -21.7988  -11.7349 O   0  0  0  0  0  0  0  0  0  0  0  0
   20.3083  -18.2494  -11.6954 C   0  0  0  0  0  0  0  0  0  0  0  0
   20.2781  -18.9080  -13.0340 C   0  0  1  0  0  0  0  0  0  0  0  0
   20.8587  -18.0492  -13.9663 O   0  0  0  0  0  0  0  0  0  0  0  0
   21.0375  -20.2115  -13.0861 C   0  0  2  0  0  0  0  0  0  0  0  0
   22.4741  -20.0001  -13.1103 N   0  0  0  0  0  0  0  0  0  0  0  0
   20.6524  -20.9455  -14.3054 C   0  0  0  0  0  0  0  0  0  0  0  0
   19.3532  -21.3910  -14.4513 O   0  0  0  0  0  0  0  0  0  0  0  0
   21.5375  -21.1467  -15.1922 O   0  0  0  0  0  0  0  0  0  0  0  0
  2  1  1  1
  2  3  1  0
  4  5  1  0
  4  2  1  0
  5  7  1  0
  5  6  1  6
  7  8  2  0
  9 10  1  0
  9  7  1  0
 11 12  1  0
 10 11  1  6
 13 14  1  0
 13 12  1  0
 15 14  1  0
 16 10  1  0
 17 16  2  0
 19 18  1  1
 19 21  1  0
 20 19  1  0
 21 23  1  0
 21 22  1  6
 22 16  1  0
 23 24  1  0
 25 23  2  0
M  END
$$$$
