LKT.pdb
     RDKit          3D

 25 24  0  0  1  0  0  0  0  0999 V2000
   27.3092  -18.6210  -12.2696 C   0  0  0  0  0  0  0  0  0  0  0  0
   27.6225  -19.7476  -13.2228 C   0  0  2  0  0  0  0  0  0  0  0  0
   28.3946  -19.1633  -14.3804 C   0  0  0  0  0  0  0  0  0  0  0  0
   26.3386  -20.3489  -13.7567 C   0  0  0  0  0  0  0  0  0  0  0  0
   25.4807  -20.9014  -12.6427 C   0  0  2  0  0  0  0  0  0  0  0  0
   26.1675  -22.0492  -12.0969 N   0  0  0  0  0  0  0  0  0  0  0  0
   24.1773  -21.3059  -13.2898 C   0  0  0  0  0  0  0  0  0  0  0  0
   24.2322  -22.3298  -14.0031 O   0  0  0  0  0  0  0  0  0  0  0  0
   23.0016  -20.5695  -13.0899 N   0  0  0  0  0  0  0  0  0  0  0  0
   21.7211  -21.0398  -13.6232 C   0  0  1  0  0  0  0  0  0  0  0  0
   20.6818  -20.6790  -12.6187 C   0  0  0  0  0  0  0  0  0  0  0  0
   19.2699  -21.0233  -12.9458 C   0  0  0  0  0  0  0  0  0  0  0  0
   18.2992  -20.7570  -11.8200 C   0  0  0  0  0  0  0  0  0  0  0  0
   16.9294  -21.2445  -12.2740 C   0  0  0  0  0  0  0  0  0  0  0  0
   15.9990  -21.1838  -11.1616 N   0  0  0  0  0  0  0  0  0  0  0  0
   21.5401  -20.4637  -14.9751 C   0  0  0  0  0  0  0  0  0  0  0  0
   21.8510  -19.2247  -15.1435 O   0  0  0  0  0  0  0  0  0  0  0  0
   22.8734  -21.6656  -18.5820 C   0  0  0  0  0  0  0  0  0  0  0  0
   21.4136  -21.3611  -18.5275 C   0  0  1  0  0  0  0  0  0  0  0  0
   20.7152  -22.5561  -18.3594 O   0  0  0  0  0  0  0  0  0  0  0  0
   21.0265  -20.4476  -17.3899 C   0  0  2  0  0  0  0  0  0  0  0  0
   21.0629  -21.1323  -16.1098 N   0  0  0  0  0  0  0  0  0  0  0  0
   19.6569  -19.9504  -17.6155 C   0  0  0  0  0  0  0  0  0  0  0  0
   19.3847  -19.1851  -18.7325 O   0  0  0  0  0  0  0  0  0  0  0  0
   18.7616  -20.2453  -16.7659 O   0  0  0  0  0  0  0  0  0  0  0  0
  2  1  1  1
  2  3  1  0
  4  5  1  0
  4  2  1  0
  5  7  1  0
  5  6  1  6
  7  8  2  0
  9 10  1  0
  9  7  1  0
 11 12  1  0
 10 11  1  1
 13 14  1  0
 13 12  1  0
 15 14  1  0
 16 10  1  0
 17 16  2  0
 19 18  1  1
 19 21  1  0
 20 19  1  0
 21 23  1  0
 21 22  1  1
 22 16  1  0
 23 24  1  0
 25 23  2  0
M  END
$$$$
