LKT.pdb
     RDKit          3D

 25 24  0  0  1  0  0  0  0  0999 V2000
   24.8007  -19.8028  -10.1007 C   0  0  0  0  0  0  0  0  0  0  0  0
   24.7728  -21.1826  -10.7101 C   0  0  2  0  0  0  0  0  0  0  0  0
   25.3491  -22.1400   -9.6958 C   0  0  0  0  0  0  0  0  0  0  0  0
   25.6395  -21.2198  -11.9521 C   0  0  0  0  0  0  0  0  0  0  0  0
   25.2814  -20.1085  -12.9107 C   0  0  2  0  0  0  0  0  0  0  0  0
   24.5559  -19.1087  -12.1617 N   0  0  0  0  0  0  0  0  0  0  0  0
   24.4029  -20.7414  -13.9637 C   0  0  0  0  0  0  0  0  0  0  0  0
   24.9919  -21.4983  -14.7639 O   0  0  0  0  0  0  0  0  0  0  0  0
   23.0263  -20.4832  -14.0200 N   0  0  0  0  0  0  0  0  0  0  0  0
   22.1765  -21.1524  -15.0075 C   0  0  1  0  0  0  0  0  0  0  0  0
   21.2632  -22.0502  -14.2466 C   0  0  0  0  0  0  0  0  0  0  0  0
   20.2845  -22.8515  -15.0334 C   0  0  0  0  0  0  0  0  0  0  0  0
   19.4863  -23.8283  -14.2032 C   0  0  0  0  0  0  0  0  0  0  0  0
   18.4777  -24.4960  -15.1289 C   0  0  0  0  0  0  0  0  0  0  0  0
   17.6452  -25.4065  -14.3642 N   0  0  0  0  0  0  0  0  0  0  0  0
   21.5203  -20.1152  -15.8358 C   0  0  0  0  0  0  0  0  0  0  0  0
   21.0471  -19.0796  -15.2328 O   0  0  0  0  0  0  0  0  0  0  0  0
   22.8380  -17.7524  -18.5559 C   0  0  0  0  0  0  0  0  0  0  0  0
   21.6279  -18.4890  -19.0246 C   0  0  1  0  0  0  0  0  0  0  0  0
   22.0392  -19.5923  -19.7712 O   0  0  0  0  0  0  0  0  0  0  0  0
   20.7574  -19.0015  -17.9030 C   0  0  2  0  0  0  0  0  0  0  0  0
   21.3590  -20.1375  -17.2271 N   0  0  0  0  0  0  0  0  0  0  0  0
   19.4566  -19.4215  -18.4556 C   0  0  0  0  0  0  0  0  0  0  0  0
   18.6071  -18.4750  -18.9943 O   0  0  0  0  0  0  0  0  0  0  0  0
   19.1558  -20.6538  -18.4181 O   0  0  0  0  0  0  0  0  0  0  0  0
  2  1  1  1
  2  3  1  0
  4  5  1  0
  4  2  1  0
  5  7  1  0
  5  6  1  1
  7  8  2  0
  9 10  1  0
  9  7  1  0
 11 12  1  0
 10 11  1  1
 13 14  1  0
 13 12  1  0
 15 14  1  0
 16 10  1  0
 17 16  2  0
 19 18  1  1
 19 21  1  0
 20 19  1  0
 21 23  1  0
 21 22  1  6
 22 16  1  0
 23 24  1  0
 25 23  2  0
M  END
$$$$
