LKT.pdb
     RDKit          3D

 25 24  0  0  1  0  0  0  0  0999 V2000
   24.8166  -22.8080   -9.5435 C   0  0  0  0  0  0  0  0  0  0  0  0
   25.3712  -21.6444   -8.7595 C   0  0  2  0  0  0  0  0  0  0  0  0
   24.3086  -21.2066   -7.7814 C   0  0  0  0  0  0  0  0  0  0  0  0
   25.6732  -20.4876   -9.6899 C   0  0  0  0  0  0  0  0  0  0  0  0
   26.6745  -20.8779  -10.7518 C   0  0  2  0  0  0  0  0  0  0  0  0
   27.9929  -20.6417  -10.2104 N   0  0  0  0  0  0  0  0  0  0  0  0
   26.4004  -19.9712  -11.9281 C   0  0  0  0  0  0  0  0  0  0  0  0
   26.4346  -18.7481  -11.6769 O   0  0  0  0  0  0  0  0  0  0  0  0
   26.1291  -20.4877  -13.2026 N   0  0  0  0  0  0  0  0  0  0  0  0
   25.9096  -19.5956  -14.3434 C   0  0  1  0  0  0  0  0  0  0  0  0
   26.9795  -19.8990  -15.3346 C   0  0  0  0  0  0  0  0  0  0  0  0
   26.9696  -19.1230  -16.6061 C   0  0  0  0  0  0  0  0  0  0  0  0
   28.1253  -19.4404  -17.5250 C   0  0  0  0  0  0  0  0  0  0  0  0
   28.0342  -18.4948  -18.7157 C   0  0  0  0  0  0  0  0  0  0  0  0
   29.1362  -18.7513  -19.6249 N   0  0  0  0  0  0  0  0  0  0  0  0
   24.5190  -19.7798  -14.8174 C   0  0  0  0  0  0  0  0  0  0  0  0
   24.1245  -20.9820  -15.0604 O   0  0  0  0  0  0  0  0  0  0  0  0
   19.8118  -18.4527  -15.3871 C   0  0  0  0  0  0  0  0  0  0  0  0
   21.2254  -18.0537  -15.1238 C   0  0  1  0  0  0  0  0  0  0  0  0
   21.3653  -17.7809  -13.7637 O   0  0  0  0  0  0  0  0  0  0  0  0
   22.2328  -19.1210  -15.4766 C   0  0  2  0  0  0  0  0  0  0  0  0
   23.5698  -18.7718  -15.0300 N   0  0  0  0  0  0  0  0  0  0  0  0
   22.2591  -19.2940  -16.9406 C   0  0  0  0  0  0  0  0  0  0  0  0
   21.3982  -20.1948  -17.5363 O   0  0  0  0  0  0  0  0  0  0  0  0
   23.0819  -18.6014  -17.6142 O   0  0  0  0  0  0  0  0  0  0  0  0
  2  1  1  6
  2  3  1  0
  4  5  1  0
  4  2  1  0
  5  7  1  0
  5  6  1  1
  7  8  2  0
  9 10  1  0
  9  7  1  0
 11 12  1  0
 10 11  1  6
 13 14  1  0
 13 12  1  0
 15 14  1  0
 16 10  1  0
 17 16  2  0
 19 18  1  1
 19 21  1  0
 20 19  1  0
 21 23  1  0
 21 22  1  6
 22 16  1  0
 23 24  1  0
 25 23  2  0
M  END
$$$$
