LKT.pdb
     RDKit          3D

 25 24  0  0  1  0  0  0  0  0999 V2000
   21.2997  -15.0593  -15.0439 C   0  0  0  0  0  0  0  0  0  0  0  0
   22.4503  -14.3027  -15.6604 C   0  0  2  0  0  0  0  0  0  0  0  0
   23.6240  -14.4119  -14.7181 C   0  0  0  0  0  0  0  0  0  0  0  0
   22.0891  -12.8391  -15.8100 C   0  0  0  0  0  0  0  0  0  0  0  0
   20.9136  -12.6511  -16.7401 C   0  0  2  0  0  0  0  0  0  0  0  0
   21.3247  -13.0961  -18.0516 N   0  0  0  0  0  0  0  0  0  0  0  0
   20.6201  -11.1696  -16.7370 C   0  0  0  0  0  0  0  0  0  0  0  0
   21.4143  -10.4680  -17.3983 O   0  0  0  0  0  0  0  0  0  0  0  0
   19.5281  -10.6414  -16.0346 N   0  0  0  0  0  0  0  0  0  0  0  0
   19.0973   -9.2576  -16.2464 C   0  0  1  0  0  0  0  0  0  0  0  0
   17.6275   -9.2264  -16.0057 C   0  0  0  0  0  0  0  0  0  0  0  0
   16.7505   -9.7814  -17.0743 C   0  0  0  0  0  0  0  0  0  0  0  0
   15.2765   -9.7093  -16.7542 C   0  0  0  0  0  0  0  0  0  0  0  0
   14.5246  -10.3279  -17.9256 C   0  0  0  0  0  0  0  0  0  0  0  0
   13.0978  -10.2898  -17.6614 N   0  0  0  0  0  0  0  0  0  0  0  0
   19.9127   -8.3782  -15.3779 C   0  0  0  0  0  0  0  0  0  0  0  0
   19.9933   -8.6806  -14.1281 O   0  0  0  0  0  0  0  0  0  0  0  0
   23.6474   -7.4769  -15.3753 C   0  0  0  0  0  0  0  0  0  0  0  0
   22.8110   -6.2441  -15.2904 C   0  0  1  0  0  0  0  0  0  0  0  0
   22.7169   -5.6810  -16.5624 O   0  0  0  0  0  0  0  0  0  0  0  0
   21.4050   -6.4972  -14.8031 C   0  0  2  0  0  0  0  0  0  0  0  0
   20.6201   -7.2365  -15.7759 N   0  0  0  0  0  0  0  0  0  0  0  0
   20.7416   -5.2046  -14.5523 C   0  0  0  0  0  0  0  0  0  0  0  0
   19.6778   -4.8192  -15.3443 O   0  0  0  0  0  0  0  0  0  0  0  0
   21.1746   -4.4791  -13.6054 O   0  0  0  0  0  0  0  0  0  0  0  0
  2  1  1  1
  2  3  1  0
  4  5  1  0
  4  2  1  0
  5  7  1  0
  5  6  1  6
  7  8  2  0
  9 10  1  0
  9  7  1  0
 11 12  1  0
 10 11  1  1
 13 14  1  0
 13 12  1  0
 15 14  1  0
 16 10  1  0
 17 16  2  0
 19 18  1  6
 19 21  1  0
 20 19  1  0
 21 23  1  0
 21 22  1  6
 22 16  1  0
 23 24  1  0
 25 23  2  0
M  END
$$$$
