DLS.pdb
     RDKit          3D

 23 22  0  0  1  0  0  0  0  0999 V2000
    7.1995  -16.3902   21.4465 N   0  0  0  0  0  0  0  0  0  0  0  0
    8.5966  -16.0933   21.5621 C   0  0  1  0  0  0  0  0  0  0  0  0
    9.0132  -15.0227   20.5799 C   0  0  0  0  0  0  0  0  0  0  0  0
    8.8609  -15.4684   19.1806 C   0  0  0  0  0  0  0  0  0  0  0  0
    8.8752  -16.6780   18.9113 O   0  0  0  0  0  0  0  0  0  0  0  0
    8.9654  -15.6446   22.9332 C   0  0  0  0  0  0  0  0  0  0  0  0
   10.1762  -15.4344   23.1987 O   0  0  0  0  0  0  0  0  0  0  0  0
    8.7038  -14.5160   18.1900 O   0  0  0  0  0  0  0  0  0  0  0  0
    8.1294  -12.0767   25.7024 C   0  0  0  0  0  0  0  0  0  0  0  0
    7.0428  -13.0692   25.6599 C   0  0  2  0  0  0  0  0  0  0  0  0
    5.8430  -12.4999   26.4128 C   0  0  0  0  0  0  0  0  0  0  0  0
    7.3494  -14.4501   26.0861 C   0  0  0  0  0  0  0  0  0  0  0  0
    8.3683  -15.1887   25.2739 C   0  0  2  0  0  0  0  0  0  0  0  0
    7.9394  -15.4614   23.9207 N   0  0  0  0  0  0  0  0  0  0  0  0
    8.5912  -16.4926   25.9376 C   0  0  0  0  0  0  0  0  0  0  0  0
    7.6648  -17.3261   26.1379 O   0  0  0  0  0  0  0  0  0  0  0  0
   12.2394  -18.2435   25.8188 O   0  0  0  0  0  0  0  0  0  0  0  0
   11.0753  -18.9558   26.0665 C   0  0  0  0  0  0  0  0  0  0  0  0
   10.2099  -18.1010   27.0007 C   0  0  2  0  0  0  0  0  0  0  0  0
    9.8935  -16.8358   26.3730 N   0  0  0  0  0  0  0  0  0  0  0  0
   10.8747  -17.9061   28.3028 C   0  0  0  0  0  0  0  0  0  0  0  0
   11.1750  -19.0096   29.0768 O   0  0  0  0  0  0  0  0  0  0  0  0
   11.1672  -16.7718   28.7119 O   0  0  0  0  0  0  0  0  0  0  0  0
  2  1  1  1
  2  3  1  0
  3  4  1  0
  4  5  2  0
  4  8  1  0
  6 14  1  0
  6  2  1  0
  7  6  2  0
 10  9  1  1
 10 12  1  0
 11 10  1  0
 13 12  1  1
 13 14  1  0
 13 15  1  0
 15 16  2  0
 18 17  1  0
 19 18  1  6
 20 15  1  0
 20 19  1  0
 21 19  1  0
 21 22  1  0
 23 21  2  0
M  END
$$$$
