DLS.pdb
     RDKit          3D

 23 22  0  0  1  0  0  0  0  0999 V2000
   11.0848  -18.5220   17.5952 N   0  0  0  0  0  0  0  0  0  0  0  0
    9.8911  -18.1929   18.3165 C   0  0  1  0  0  0  0  0  0  0  0  0
    9.3066  -19.4105   18.9950 C   0  0  0  0  0  0  0  0  0  0  0  0
   10.3326  -20.4373   19.2652 C   0  0  0  0  0  0  0  0  0  0  0  0
   10.1435  -21.2829   20.1512 O   0  0  0  0  0  0  0  0  0  0  0  0
   10.1274  -17.1459   19.3486 C   0  0  0  0  0  0  0  0  0  0  0  0
   11.3071  -16.9040   19.7098 O   0  0  0  0  0  0  0  0  0  0  0  0
   11.4950  -20.4329   18.5157 O   0  0  0  0  0  0  0  0  0  0  0  0
    8.6657  -12.7091   19.3280 C   0  0  0  0  0  0  0  0  0  0  0  0
    7.7164  -13.6642   19.9233 C   0  0  2  0  0  0  0  0  0  0  0  0
    6.4096  -12.9281   20.2077 C   0  0  0  0  0  0  0  0  0  0  0  0
    8.1655  -14.4500   21.0910 C   0  0  0  0  0  0  0  0  0  0  0  0
    9.3079  -15.3913   20.8628 C   0  0  2  0  0  0  0  0  0  0  0  0
    9.0121  -16.4363   19.9090 N   0  0  0  0  0  0  0  0  0  0  0  0
    9.5978  -16.0452   22.1585 C   0  0  0  0  0  0  0  0  0  0  0  0
    8.7555  -16.7611   22.7676 O   0  0  0  0  0  0  0  0  0  0  0  0
   11.8909  -18.9978   24.2892 O   0  0  0  0  0  0  0  0  0  0  0  0
   11.4133  -18.2022   23.2583 C   0  0  0  0  0  0  0  0  0  0  0  0
   11.3951  -16.7568   23.7711 C   0  0  2  0  0  0  0  0  0  0  0  0
   10.8697  -15.8708   22.7544 N   0  0  0  0  0  0  0  0  0  0  0  0
   12.7390  -16.3370   24.2106 C   0  0  0  0  0  0  0  0  0  0  0  0
   13.3630  -15.2904   23.5610 O   0  0  0  0  0  0  0  0  0  0  0  0
   13.3152  -16.9067   25.1504 O   0  0  0  0  0  0  0  0  0  0  0  0
  2  1  1  1
  2  3  1  0
  3  4  1  0
  4  5  2  0
  4  8  1  0
  6 14  1  0
  6  2  1  0
  7  6  2  0
 10  9  1  1
 10 12  1  0
 11 10  1  0
 13 12  1  1
 13 14  1  0
 13 15  1  0
 15 16  2  0
 18 17  1  0
 19 18  1  6
 20 15  1  0
 20 19  1  0
 21 19  1  0
 21 22  1  0
 23 21  2  0
M  END
$$$$
