DLS.pdb
     RDKit          3D

 23 22  0  0  1  0  0  0  0  0999 V2000
   10.8586  -17.4262   15.7624 N   0  0  0  0  0  0  0  0  0  0  0  0
   11.9992  -16.9372   16.4788 C   0  0  1  0  0  0  0  0  0  0  0  0
   12.9005  -16.1191   15.5828 C   0  0  0  0  0  0  0  0  0  0  0  0
   13.1941  -16.8137   14.3133 C   0  0  0  0  0  0  0  0  0  0  0  0
   12.7742  -17.9645   14.1261 O   0  0  0  0  0  0  0  0  0  0  0  0
   11.6134  -16.1014   17.6492 C   0  0  0  0  0  0  0  0  0  0  0  0
   12.5187  -15.6155   18.3738 O   0  0  0  0  0  0  0  0  0  0  0  0
   13.9394  -16.1577   13.3504 O   0  0  0  0  0  0  0  0  0  0  0  0
    6.7608  -13.2667   20.3910 C   0  0  0  0  0  0  0  0  0  0  0  0
    8.1707  -13.6696   20.2584 C   0  0  2  0  0  0  0  0  0  0  0  0
    9.0409  -12.4224   20.3925 C   0  0  0  0  0  0  0  0  0  0  0  0
    8.5523  -14.4772   19.0817 C   0  0  0  0  0  0  0  0  0  0  0  0
    9.9098  -15.1089   19.1175 C   0  0  2  0  0  0  0  0  0  0  0  0
   10.2246  -15.8668   17.9276 N   0  0  0  0  0  0  0  0  0  0  0  0
    9.9202  -16.0526   20.2576 C   0  0  0  0  0  0  0  0  0  0  0  0
    9.1888  -17.0801   20.3025 O   0  0  0  0  0  0  0  0  0  0  0  0
   13.2351  -16.6123   22.3199 O   0  0  0  0  0  0  0  0  0  0  0  0
   12.1849  -17.5145   22.4027 C   0  0  0  0  0  0  0  0  0  0  0  0
   10.8898  -16.6974   22.4895 C   0  0  2  0  0  0  0  0  0  0  0  0
   10.7818  -15.8071   21.3534 N   0  0  0  0  0  0  0  0  0  0  0  0
   10.8183  -15.9576   23.7635 C   0  0  0  0  0  0  0  0  0  0  0  0
   10.8269  -16.6613   24.9516 O   0  0  0  0  0  0  0  0  0  0  0  0
   10.7509  -14.7187   23.7847 O   0  0  0  0  0  0  0  0  0  0  0  0
  2  1  1  6
  2  3  1  0
  3  4  1  0
  4  5  2  0
  4  8  1  0
  6 14  1  0
  6  2  1  0
  7  6  2  0
 10  9  1  6
 10 12  1  0
 11 10  1  0
 13 12  1  6
 13 14  1  0
 13 15  1  0
 15 16  2  0
 18 17  1  0
 19 18  1  6
 20 15  1  0
 20 19  1  0
 21 19  1  0
 21 22  1  0
 23 21  2  0
M  END
$$$$
