DLS.pdb
     RDKit          3D

 23 22  0  0  1  0  0  0  0  0999 V2000
   10.1290  -18.0747   18.8000 N   0  0  0  0  0  0  0  0  0  0  0  0
   11.2726  -17.5205   19.4623 C   0  0  1  0  0  0  0  0  0  0  0  0
   12.2788  -16.9891   18.4674 C   0  0  0  0  0  0  0  0  0  0  0  0
   12.7507  -18.0407   17.5448 C   0  0  0  0  0  0  0  0  0  0  0  0
   12.0027  -18.4605   16.6503 O   0  0  0  0  0  0  0  0  0  0  0  0
   10.9047  -16.4195   20.3947 C   0  0  0  0  0  0  0  0  0  0  0  0
   11.8175  -15.8213   21.0189 O   0  0  0  0  0  0  0  0  0  0  0  0
   14.0312  -18.5399   17.7005 O   0  0  0  0  0  0  0  0  0  0  0  0
    9.0037  -12.4737   19.8447 C   0  0  0  0  0  0  0  0  0  0  0  0
    7.9997  -13.5356   20.0235 C   0  0  2  0  0  0  0  0  0  0  0  0
    6.6242  -12.9540   19.7069 C   0  0  0  0  0  0  0  0  0  0  0  0
    7.9974  -14.2784   21.3006 C   0  0  0  0  0  0  0  0  0  0  0  0
    9.2135  -15.1010   21.5966 C   0  0  2  0  0  0  0  0  0  0  0  0
    9.5242  -16.0631   20.5635 N   0  0  0  0  0  0  0  0  0  0  0  0
    8.9341  -15.8593   22.8365 C   0  0  0  0  0  0  0  0  0  0  0  0
    7.8170  -16.3970   23.0732 O   0  0  0  0  0  0  0  0  0  0  0  0
   10.7189  -18.7282   24.0146 O   0  0  0  0  0  0  0  0  0  0  0  0
    9.5639  -18.2689   24.6301 C   0  0  0  0  0  0  0  0  0  0  0  0
    9.8016  -16.8006   25.0041 C   0  0  2  0  0  0  0  0  0  0  0  0
    9.9525  -15.9971   23.8098 N   0  0  0  0  0  0  0  0  0  0  0  0
   10.9690  -16.6666   25.8956 C   0  0  0  0  0  0  0  0  0  0  0  0
   10.9369  -17.2632   27.1406 O   0  0  0  0  0  0  0  0  0  0  0  0
   11.9749  -16.0294   25.5464 O   0  0  0  0  0  0  0  0  0  0  0  0
  2  1  1  6
  2  3  1  0
  3  4  1  0
  4  5  2  0
  4  8  1  0
  6 14  1  0
  6  2  1  0
  7  6  2  0
 10  9  1  1
 10 12  1  0
 11 10  1  0
 13 12  1  6
 13 14  1  0
 13 15  1  0
 15 16  2  0
 18 17  1  0
 19 18  1  6
 20 15  1  0
 20 19  1  0
 21 19  1  0
 21 22  1  0
 23 21  2  0
M  END
$$$$
