DLS.pdb
     RDKit          3D

 23 22  0  0  1  0  0  0  0  0999 V2000
    7.3677  -15.9332   21.3455 N   0  0  0  0  0  0  0  0  0  0  0  0
    8.7737  -15.9162   21.6218 C   0  0  1  0  0  0  0  0  0  0  0  0
    9.4956  -14.9296   20.7330 C   0  0  0  0  0  0  0  0  0  0  0  0
    9.8239  -15.5110   19.4161 C   0  0  0  0  0  0  0  0  0  0  0  0
    9.6507  -16.7212   19.2134 O   0  0  0  0  0  0  0  0  0  0  0  0
    9.0646  -15.5729   23.0411 C   0  0  0  0  0  0  0  0  0  0  0  0
   10.2627  -15.4971   23.4147 O   0  0  0  0  0  0  0  0  0  0  0  0
   10.3230  -14.6833   18.4267 O   0  0  0  0  0  0  0  0  0  0  0  0
    8.2357  -12.0634   25.9483 C   0  0  0  0  0  0  0  0  0  0  0  0
    7.0919  -12.9717   25.7630 C   0  0  2  0  0  0  0  0  0  0  0  0
    5.8802  -12.3678   26.4683 C   0  0  0  0  0  0  0  0  0  0  0  0
    7.2743  -14.3952   26.1139 C   0  0  0  0  0  0  0  0  0  0  0  0
    8.3179  -15.1441   25.3436 C   0  0  2  0  0  0  0  0  0  0  0  0
    7.9799  -15.3362   23.9515 N   0  0  0  0  0  0  0  0  0  0  0  0
    8.4334  -16.4852   25.9590 C   0  0  0  0  0  0  0  0  0  0  0  0
    7.4392  -17.2388   26.1501 O   0  0  0  0  0  0  0  0  0  0  0  0
   11.7329  -18.6578   25.5701 O   0  0  0  0  0  0  0  0  0  0  0  0
   10.5504  -19.2297   26.0158 C   0  0  0  0  0  0  0  0  0  0  0  0
    9.9092  -18.2407   26.9972 C   0  0  2  0  0  0  0  0  0  0  0  0
    9.7067  -16.9588   26.3564 N   0  0  0  0  0  0  0  0  0  0  0  0
   10.7231  -18.1100   28.2202 C   0  0  0  0  0  0  0  0  0  0  0  0
   11.2096  -16.8673   28.5752 O   0  0  0  0  0  0  0  0  0  0  0  0
   10.9766  -19.0942   28.9321 O   0  0  0  0  0  0  0  0  0  0  0  0
  2  1  1  1
  2  3  1  0
  3  4  1  0
  4  5  2  0
  4  8  1  0
  6 14  1  0
  6  2  1  0
  7  6  2  0
 10  9  1  1
 10 12  1  0
 11 10  1  0
 13 12  1  1
 13 14  1  0
 13 15  1  0
 15 16  2  0
 18 17  1  0
 19 18  1  6
 20 15  1  0
 20 19  1  0
 21 19  1  0
 21 22  1  0
 23 21  2  0
M  END
$$$$
