DLS.pdb
     RDKit          3D

 23 22  0  0  1  0  0  0  0  0999 V2000
    7.4375  -16.0453   21.4440 N   0  0  0  0  0  0  0  0  0  0  0  0
    8.8418  -16.1901   21.6899 C   0  0  1  0  0  0  0  0  0  0  0  0
    9.6597  -15.4867   20.6312 C   0  0  0  0  0  0  0  0  0  0  0  0
    9.4030  -16.0317   19.2832 C   0  0  0  0  0  0  0  0  0  0  0  0
    8.9666  -15.2924   18.3895 O   0  0  0  0  0  0  0  0  0  0  0  0
    9.2380  -15.6577   23.0228 C   0  0  0  0  0  0  0  0  0  0  0  0
   10.4493  -15.3984   23.2381 O   0  0  0  0  0  0  0  0  0  0  0  0
    9.6580  -17.3701   19.0445 O   0  0  0  0  0  0  0  0  0  0  0  0
    7.9238  -11.9951   25.3957 C   0  0  0  0  0  0  0  0  0  0  0  0
    7.0518  -13.1651   25.5920 C   0  0  2  0  0  0  0  0  0  0  0  0
    5.8172  -12.7182   26.3708 C   0  0  0  0  0  0  0  0  0  0  0  0
    7.6503  -14.3853   26.1711 C   0  0  0  0  0  0  0  0  0  0  0  0
    8.6970  -15.0708   25.3479 C   0  0  2  0  0  0  0  0  0  0  0  0
    8.2372  -15.4515   24.0314 N   0  0  0  0  0  0  0  0  0  0  0  0
    9.0675  -16.3129   26.0624 C   0  0  0  0  0  0  0  0  0  0  0  0
    8.2613  -17.2679   26.2383 O   0  0  0  0  0  0  0  0  0  0  0  0
   12.5783  -19.2146   27.4165 O   0  0  0  0  0  0  0  0  0  0  0  0
   12.2317  -18.0379   26.7692 C   0  0  0  0  0  0  0  0  0  0  0  0
   10.8358  -17.6407   27.2654 C   0  0  2  0  0  0  0  0  0  0  0  0
   10.3785  -16.4524   26.5772 N   0  0  0  0  0  0  0  0  0  0  0  0
   10.8306  -17.4527   28.7283 C   0  0  0  0  0  0  0  0  0  0  0  0
   11.1160  -18.5283   29.5459 O   0  0  0  0  0  0  0  0  0  0  0  0
   10.5752  -16.3487   29.2337 O   0  0  0  0  0  0  0  0  0  0  0  0
  2  1  1  6
  2  3  1  0
  3  4  1  0
  4  5  2  0
  4  8  1  0
  6 14  1  0
  6  2  1  0
  7  6  2  0
 10  9  1  1
 10 12  1  0
 11 10  1  0
 13 12  1  1
 13 14  1  0
 13 15  1  0
 15 16  2  0
 18 17  1  0
 19 18  1  6
 20 15  1  0
 20 19  1  0
 21 19  1  0
 21 22  1  0
 23 21  2  0
M  END
$$$$
