DLS.pdb
     RDKit          3D

 23 22  0  0  1  0  0  0  0  0999 V2000
   11.1037  -17.4371   18.0618 N   0  0  0  0  0  0  0  0  0  0  0  0
   12.0175  -16.3372   18.1545 C   0  0  1  0  0  0  0  0  0  0  0  0
   12.1052  -15.5850   16.8464 C   0  0  0  0  0  0  0  0  0  0  0  0
   12.5117  -16.4632   15.7313 C   0  0  0  0  0  0  0  0  0  0  0  0
   11.7612  -16.6133   14.7566 O   0  0  0  0  0  0  0  0  0  0  0  0
   11.6356  -15.3765   19.2262 C   0  0  0  0  0  0  0  0  0  0  0  0
   12.4912  -14.5513   19.6357 O   0  0  0  0  0  0  0  0  0  0  0  0
   13.7344  -17.1061   15.7995 O   0  0  0  0  0  0  0  0  0  0  0  0
    8.8941  -11.9781   19.3195 C   0  0  0  0  0  0  0  0  0  0  0  0
    8.1816  -13.2291   19.6277 C   0  0  2  0  0  0  0  0  0  0  0  0
    6.6830  -12.9379   19.6378 C   0  0  0  0  0  0  0  0  0  0  0  0
    8.5985  -13.9863   20.8258 C   0  0  0  0  0  0  0  0  0  0  0  0
   10.0101  -14.4865   20.8414 C   0  0  2  0  0  0  0  0  0  0  0  0
   10.3068  -15.4091   19.7689 N   0  0  0  0  0  0  0  0  0  0  0  0
   10.1989  -15.2154   22.1156 C   0  0  0  0  0  0  0  0  0  0  0  0
    9.9328  -14.7083   23.2404 O   0  0  0  0  0  0  0  0  0  0  0  0
   11.6959  -19.1271   21.9882 O   0  0  0  0  0  0  0  0  0  0  0  0
   10.7441  -18.8286   22.9519 C   0  0  0  0  0  0  0  0  0  0  0  0
   10.8851  -17.3376   23.2829 C   0  0  2  0  0  0  0  0  0  0  0  0
   10.6984  -16.5395   22.0901 N   0  0  0  0  0  0  0  0  0  0  0  0
   12.1863  -17.0603   23.9197 C   0  0  0  0  0  0  0  0  0  0  0  0
   12.4911  -17.6697   25.1207 O   0  0  0  0  0  0  0  0  0  0  0  0
   13.0076  -16.2917   23.3958 O   0  0  0  0  0  0  0  0  0  0  0  0
  2  1  1  6
  2  3  1  0
  3  4  1  0
  4  5  2  0
  4  8  1  0
  6 14  1  0
  6  2  1  0
  7  6  2  0
 10  9  1  1
 10 12  1  0
 11 10  1  0
 13 12  1  6
 13 14  1  0
 13 15  1  0
 15 16  2  0
 18 17  1  0
 19 18  1  6
 20 15  1  0
 20 19  1  0
 21 19  1  0
 21 22  1  0
 23 21  2  0
M  END
$$$$
