DLS.pdb
     RDKit          3D

 23 22  0  0  1  0  0  0  0  0999 V2000
    7.9038  -16.5187   21.8277 N   0  0  0  0  0  0  0  0  0  0  0  0
    9.2911  -16.2028   21.9981 C   0  0  1  0  0  0  0  0  0  0  0  0
    9.7510  -15.1847   20.9800 C   0  0  0  0  0  0  0  0  0  0  0  0
    9.6287  -15.6917   19.5987 C   0  0  0  0  0  0  0  0  0  0  0  0
    9.0863  -16.7856   19.3868 O   0  0  0  0  0  0  0  0  0  0  0  0
    9.5854  -15.6750   23.3590 C   0  0  0  0  0  0  0  0  0  0  0  0
   10.7546  -15.2960   23.6240 O   0  0  0  0  0  0  0  0  0  0  0  0
   10.1275  -14.9265   18.5601 O   0  0  0  0  0  0  0  0  0  0  0  0
    8.0720  -12.0256   25.5407 C   0  0  0  0  0  0  0  0  0  0  0  0
    7.1707  -13.1797   25.6934 C   0  0  2  0  0  0  0  0  0  0  0  0
    5.8980  -12.7058   26.3908 C   0  0  0  0  0  0  0  0  0  0  0  0
    7.7125  -14.4034   26.3192 C   0  0  0  0  0  0  0  0  0  0  0  0
    8.8731  -15.0493   25.6271 C   0  0  2  0  0  0  0  0  0  0  0  0
    8.5368  -15.6085   24.3373 N   0  0  0  0  0  0  0  0  0  0  0  0
    9.3263  -16.1650   26.4875 C   0  0  0  0  0  0  0  0  0  0  0  0
    9.6665  -16.0058   27.6924 O   0  0  0  0  0  0  0  0  0  0  0  0
   10.6312  -19.7144   24.7807 O   0  0  0  0  0  0  0  0  0  0  0  0
    9.7692  -19.8881   25.8533 C   0  0  0  0  0  0  0  0  0  0  0  0
    9.8475  -18.6178   26.7093 C   0  0  2  0  0  0  0  0  0  0  0  0
    9.3867  -17.4738   25.9519 N   0  0  0  0  0  0  0  0  0  0  0  0
   11.2154  -18.4110   27.2207 C   0  0  0  0  0  0  0  0  0  0  0  0
   11.7681  -19.3542   28.0644 O   0  0  0  0  0  0  0  0  0  0  0  0
   11.8744  -17.4077   26.9065 O   0  0  0  0  0  0  0  0  0  0  0  0
  2  1  1  1
  2  3  1  0
  3  4  1  0
  4  5  2  0
  4  8  1  0
  6 14  1  0
  6  2  1  0
  7  6  2  0
 10  9  1  1
 10 12  1  0
 11 10  1  0
 13 12  1  1
 13 14  1  0
 13 15  1  0
 15 16  2  0
 18 17  1  0
 19 18  1  6
 20 15  1  0
 20 19  1  0
 21 19  1  0
 21 22  1  0
 23 21  2  0
M  END
$$$$
