DLS.pdb
     RDKit          3D

 23 22  0  0  1  0  0  0  0  0999 V2000
    7.0606  -16.6558   22.1842 N   0  0  0  0  0  0  0  0  0  0  0  0
    8.4715  -16.4591   22.3391 C   0  0  1  0  0  0  0  0  0  0  0  0
    9.0381  -15.6339   21.2066 C   0  0  0  0  0  0  0  0  0  0  0  0
   10.4840  -15.8695   21.0221 C   0  0  0  0  0  0  0  0  0  0  0  0
   11.2887  -14.9424   21.1915 O   0  0  0  0  0  0  0  0  0  0  0  0
    8.8089  -15.7892   23.6254 C   0  0  0  0  0  0  0  0  0  0  0  0
   10.0160  -15.5626   23.8942 O   0  0  0  0  0  0  0  0  0  0  0  0
   10.9135  -17.1335   20.6602 O   0  0  0  0  0  0  0  0  0  0  0  0
    8.0061  -11.7135   25.3912 C   0  0  0  0  0  0  0  0  0  0  0  0
    6.8814  -12.6447   25.5802 C   0  0  2  0  0  0  0  0  0  0  0  0
    5.6976  -11.8602   26.1402 C   0  0  0  0  0  0  0  0  0  0  0  0
    7.1286  -13.8821   26.3485 C   0  0  0  0  0  0  0  0  0  0  0  0
    8.1499  -14.8232   25.7877 C   0  0  2  0  0  0  0  0  0  0  0  0
    7.7576  -15.4165   24.5294 N   0  0  0  0  0  0  0  0  0  0  0  0
    8.3092  -15.9240   26.7642 C   0  0  0  0  0  0  0  0  0  0  0  0
    8.7679  -15.7469   27.9266 O   0  0  0  0  0  0  0  0  0  0  0  0
    7.8499  -19.8918   25.4799 O   0  0  0  0  0  0  0  0  0  0  0  0
    7.3166  -19.5823   26.7224 C   0  0  0  0  0  0  0  0  0  0  0  0
    8.1006  -18.3818   27.2669 C   0  0  2  0  0  0  0  0  0  0  0  0
    7.9358  -17.2383   26.3950 N   0  0  0  0  0  0  0  0  0  0  0  0
    9.5244  -18.7212   27.4484 C   0  0  0  0  0  0  0  0  0  0  0  0
    9.8661  -19.7624   28.2887 O   0  0  0  0  0  0  0  0  0  0  0  0
   10.4160  -18.0891   26.8610 O   0  0  0  0  0  0  0  0  0  0  0  0
  2  1  1  6
  2  3  1  0
  3  4  1  0
  4  5  2  0
  4  8  1  0
  6 14  1  0
  6  2  1  0
  7  6  2  0
 10  9  1  1
 10 12  1  0
 11 10  1  0
 13 12  1  1
 13 14  1  0
 13 15  1  0
 15 16  2  0
 18 17  1  0
 19 18  1  6
 20 15  1  0
 20 19  1  0
 21 19  1  0
 21 22  1  0
 23 21  2  0
M  END
$$$$
