DLS.pdb
     RDKit          3D

 23 22  0  0  1  0  0  0  0  0999 V2000
    9.8790  -17.1850   16.7376 N   0  0  0  0  0  0  0  0  0  0  0  0
   11.1705  -16.9589   17.3158 C   0  0  1  0  0  0  0  0  0  0  0  0
   12.0580  -16.1665   16.3836 C   0  0  0  0  0  0  0  0  0  0  0  0
   12.3631  -16.9118   15.1461 C   0  0  0  0  0  0  0  0  0  0  0  0
   11.8683  -18.0328   14.9609 O   0  0  0  0  0  0  0  0  0  0  0  0
   11.0871  -16.2364   18.6151 C   0  0  0  0  0  0  0  0  0  0  0  0
   12.1502  -15.9667   19.2297 O   0  0  0  0  0  0  0  0  0  0  0  0
   13.2037  -16.3365   14.2104 O   0  0  0  0  0  0  0  0  0  0  0  0
    9.0978  -12.1844   19.6030 C   0  0  0  0  0  0  0  0  0  0  0  0
    8.1845  -13.3358   19.6910 C   0  0  2  0  0  0  0  0  0  0  0  0
    6.7668  -12.8091   19.8995 C   0  0  0  0  0  0  0  0  0  0  0  0
    8.5143  -14.4095   20.6506 C   0  0  0  0  0  0  0  0  0  0  0  0
    9.7867  -15.1594   20.4017 C   0  0  2  0  0  0  0  0  0  0  0  0
    9.8037  -15.8633   19.1394 N   0  0  0  0  0  0  0  0  0  0  0  0
    9.9111  -16.1723   21.4737 C   0  0  0  0  0  0  0  0  0  0  0  0
    9.0624  -17.0895   21.6507 O   0  0  0  0  0  0  0  0  0  0  0  0
   13.4556  -17.3327   22.7153 O   0  0  0  0  0  0  0  0  0  0  0  0
   12.3297  -18.0708   23.0492 C   0  0  0  0  0  0  0  0  0  0  0  0
   11.2264  -17.0728   23.4221 C   0  0  2  0  0  0  0  0  0  0  0  0
   11.0237  -16.1250   22.3473 N   0  0  0  0  0  0  0  0  0  0  0  0
   11.5407  -16.3904   24.6913 C   0  0  0  0  0  0  0  0  0  0  0  0
   11.6656  -17.1391   25.8449 O   0  0  0  0  0  0  0  0  0  0  0  0
   11.6939  -15.1599   24.7389 O   0  0  0  0  0  0  0  0  0  0  0  0
  2  1  1  6
  2  3  1  0
  3  4  1  0
  4  5  2  0
  4  8  1  0
  6 14  1  0
  6  2  1  0
  7  6  2  0
 10  9  1  1
 10 12  1  0
 11 10  1  0
 13 12  1  1
 13 14  1  0
 13 15  1  0
 15 16  2  0
 18 17  1  0
 19 18  1  6
 20 15  1  0
 20 19  1  0
 21 19  1  0
 21 22  1  0
 23 21  2  0
M  END
$$$$
