DLS.pdb
     RDKit          3D

 23 22  0  0  1  0  0  0  0  0999 V2000
    6.5596  -15.8048   21.3423 N   0  0  0  0  0  0  0  0  0  0  0  0
    7.9739  -15.9320   21.5352 C   0  0  1  0  0  0  0  0  0  0  0  0
    8.7409  -15.0783   20.5516 C   0  0  0  0  0  0  0  0  0  0  0  0
    8.4985  -15.4926   19.1553 C   0  0  0  0  0  0  0  0  0  0  0  0
    8.8690  -14.7671   18.2214 O   0  0  0  0  0  0  0  0  0  0  0  0
    8.3906  -15.5532   22.9136 C   0  0  0  0  0  0  0  0  0  0  0  0
    9.6170  -15.4516   23.1714 O   0  0  0  0  0  0  0  0  0  0  0  0
    7.8564  -16.6943   18.9175 O   0  0  0  0  0  0  0  0  0  0  0  0
    8.0100  -12.0324   25.7096 C   0  0  0  0  0  0  0  0  0  0  0  0
    6.8050  -12.8783   25.6977 C   0  0  2  0  0  0  0  0  0  0  0  0
    5.7105  -12.1658   26.4882 C   0  0  0  0  0  0  0  0  0  0  0  0
    6.9458  -14.2897   26.1109 C   0  0  0  0  0  0  0  0  0  0  0  0
    7.8515  -15.1423   25.2766 C   0  0  2  0  0  0  0  0  0  0  0  0
    7.3920  -15.3124   23.9167 N   0  0  0  0  0  0  0  0  0  0  0  0
    7.8845  -16.4832   25.9023 C   0  0  0  0  0  0  0  0  0  0  0  0
    6.8408  -17.1044   26.2455 O   0  0  0  0  0  0  0  0  0  0  0  0
   11.1173  -18.8287   25.4281 O   0  0  0  0  0  0  0  0  0  0  0  0
    9.9424  -19.4057   25.8869 C   0  0  0  0  0  0  0  0  0  0  0  0
    9.2641  -18.3840   26.8081 C   0  0  2  0  0  0  0  0  0  0  0  0
    9.1320  -17.1106   26.1331 N   0  0  0  0  0  0  0  0  0  0  0  0
   10.0027  -18.2479   28.0776 C   0  0  0  0  0  0  0  0  0  0  0  0
   10.1660  -19.3573   28.8834 O   0  0  0  0  0  0  0  0  0  0  0  0
   10.4773  -17.1574   28.4315 O   0  0  0  0  0  0  0  0  0  0  0  0
  2  1  1  1
  2  3  1  0
  3  4  1  0
  4  5  2  0
  4  8  1  0
  6 14  1  0
  6  2  1  0
  7  6  2  0
 10  9  1  1
 10 12  1  0
 11 10  1  0
 13 12  1  1
 13 14  1  0
 13 15  1  0
 15 16  2  0
 18 17  1  0
 19 18  1  6
 20 15  1  0
 20 19  1  0
 21 19  1  0
 21 22  1  0
 23 21  2  0
M  END
$$$$
