DLS.pdb
     RDKit          3D

 23 22  0  0  1  0  0  0  0  0999 V2000
    8.2086  -15.8865   21.4257 N   0  0  0  0  0  0  0  0  0  0  0  0
    9.3982  -16.2245   22.1497 C   0  0  1  0  0  0  0  0  0  0  0  0
   10.6054  -15.5114   21.5851 C   0  0  0  0  0  0  0  0  0  0  0  0
   10.8825  -15.9141   20.1919 C   0  0  0  0  0  0  0  0  0  0  0  0
   10.3843  -15.2771   19.2529 O   0  0  0  0  0  0  0  0  0  0  0  0
    9.2895  -15.8939   23.5974 C   0  0  0  0  0  0  0  0  0  0  0  0
   10.3344  -15.8746   24.2964 O   0  0  0  0  0  0  0  0  0  0  0  0
   11.7009  -17.0054   19.9627 O   0  0  0  0  0  0  0  0  0  0  0  0
    8.1378  -12.3398   26.1812 C   0  0  0  0  0  0  0  0  0  0  0  0
    6.9853  -13.0888   25.6538 C   0  0  2  0  0  0  0  0  0  0  0  0
    5.7173  -12.2945   25.9569 C   0  0  0  0  0  0  0  0  0  0  0  0
    6.8458  -14.5077   26.0407 C   0  0  0  0  0  0  0  0  0  0  0  0
    7.9397  -15.4306   25.5990 C   0  0  2  0  0  0  0  0  0  0  0  0
    8.0030  -15.6051   24.1655 N   0  0  0  0  0  0  0  0  0  0  0  0
    7.6563  -16.7563   26.1931 C   0  0  0  0  0  0  0  0  0  0  0  0
    6.4913  -17.2351   26.2744 O   0  0  0  0  0  0  0  0  0  0  0  0
    9.9068  -19.8786   25.8575 O   0  0  0  0  0  0  0  0  0  0  0  0
    8.6611  -19.9681   26.4609 C   0  0  0  0  0  0  0  0  0  0  0  0
    8.5323  -18.7748   27.4159 C   0  0  2  0  0  0  0  0  0  0  0  0
    8.7263  -17.5339   26.6966 N   0  0  0  0  0  0  0  0  0  0  0  0
    9.4754  -18.8983   28.5432 C   0  0  0  0  0  0  0  0  0  0  0  0
    9.3468  -19.9617   29.4146 O   0  0  0  0  0  0  0  0  0  0  0  0
   10.3782  -18.0657   28.7202 O   0  0  0  0  0  0  0  0  0  0  0  0
  2  1  1  6
  2  3  1  0
  3  4  1  0
  4  5  2  0
  4  8  1  0
  6 14  1  0
  6  2  1  0
  7  6  2  0
 10  9  1  1
 10 12  1  0
 11 10  1  0
 13 12  1  6
 13 14  1  0
 13 15  1  0
 15 16  2  0
 18 17  1  0
 19 18  1  6
 20 15  1  0
 20 19  1  0
 21 19  1  0
 21 22  1  0
 23 21  2  0
M  END
$$$$
