DLS.pdb
     RDKit          3D

 23 22  0  0  1  0  0  0  0  0999 V2000
    7.7804  -16.3706   21.4684 N   0  0  0  0  0  0  0  0  0  0  0  0
    9.1258  -16.3386   21.9606 C   0  0  1  0  0  0  0  0  0  0  0  0
    9.9919  -15.4188   21.1310 C   0  0  0  0  0  0  0  0  0  0  0  0
   10.0353  -15.8313   19.7139 C   0  0  0  0  0  0  0  0  0  0  0  0
    9.4439  -15.1608   18.8558 O   0  0  0  0  0  0  0  0  0  0  0  0
    9.1954  -15.8977   23.3811 C   0  0  0  0  0  0  0  0  0  0  0  0
   10.3185  -15.8315   23.9426 O   0  0  0  0  0  0  0  0  0  0  0  0
   10.7428  -16.9694   19.3713 O   0  0  0  0  0  0  0  0  0  0  0  0
    8.0431  -12.1605   25.7327 C   0  0  0  0  0  0  0  0  0  0  0  0
    6.8912  -13.0510   25.5141 C   0  0  2  0  0  0  0  0  0  0  0  0
    5.6353  -12.3437   26.0170 C   0  0  0  0  0  0  0  0  0  0  0  0
    6.9793  -14.4348   26.0239 C   0  0  0  0  0  0  0  0  0  0  0  0
    8.1016  -15.2720   25.4918 C   0  0  2  0  0  0  0  0  0  0  0  0
    7.9878  -15.5585   24.0797 N   0  0  0  0  0  0  0  0  0  0  0  0
    8.0571  -16.5655   26.2097 C   0  0  0  0  0  0  0  0  0  0  0  0
    7.0505  -17.3266   26.1875 O   0  0  0  0  0  0  0  0  0  0  0  0
    9.7691  -20.5650   26.9361 O   0  0  0  0  0  0  0  0  0  0  0  0
    9.6357  -19.3108   26.3591 C   0  0  0  0  0  0  0  0  0  0  0  0
    9.3289  -18.3209   27.4897 C   0  0  2  0  0  0  0  0  0  0  0  0
    9.1835  -16.9825   26.9585 N   0  0  0  0  0  0  0  0  0  0  0  0
   10.3680  -18.3768   28.5350 C   0  0  0  0  0  0  0  0  0  0  0  0
   10.4865  -19.5164   29.3058 O   0  0  0  0  0  0  0  0  0  0  0  0
   11.1339  -17.4206   28.7319 O   0  0  0  0  0  0  0  0  0  0  0  0
  2  1  1  6
  2  3  1  0
  3  4  1  0
  4  5  2  0
  4  8  1  0
  6 14  1  0
  6  2  1  0
  7  6  2  0
 10  9  1  1
 10 12  1  0
 11 10  1  0
 13 12  1  1
 13 14  1  0
 13 15  1  0
 15 16  2  0
 18 17  1  0
 19 18  1  6
 20 15  1  0
 20 19  1  0
 21 19  1  0
 21 22  1  0
 23 21  2  0
M  END
$$$$
