INM.pdb
     RDKit          3D

 25 24  0  0  1  0  0  0  0  0999 V2000
    7.9764  -12.2282   22.9279 C   0  0  0  0  0  0  0  0  0  0  0  0
    7.8127  -13.7087   22.9103 C   0  0  0  0  0  0  0  0  0  0  0  0
    8.0479  -14.3208   21.5721 C   0  0  2  0  0  0  0  0  0  0  0  0
    7.1971  -13.6063   20.5543 C   0  0  0  0  0  0  0  0  0  0  0  0
    7.8331  -15.8084   21.5818 C   0  0  2  0  0  0  0  0  0  0  0  0
    6.4680  -16.1171   21.9186 N   0  0  0  0  0  0  0  0  0  0  0  0
    8.7760  -16.5103   22.4748 C   0  0  0  0  0  0  0  0  0  0  0  0
    8.3423  -17.1946   23.4325 O   0  0  0  0  0  0  0  0  0  0  0  0
   13.2507  -19.1701   23.3023 N   0  0  0  0  0  0  0  0  0  0  0  0
   13.5339  -17.8545   22.7433 C   0  0  0  0  0  0  0  0  0  0  0  0
   14.7357  -17.5725   22.7087 O   0  0  0  0  0  0  0  0  0  0  0  0
   12.4216  -17.0446   22.3026 C   0  0  0  0  0  0  0  0  0  0  0  0
   11.1298  -17.2871   23.0279 C   0  0  2  0  0  0  0  0  0  0  0  0
   10.1603  -16.4149   22.2556 N   0  0  0  0  0  0  0  0  0  0  0  0
   11.0814  -16.8096   24.4104 C   0  0  0  0  0  0  0  0  0  0  0  0
   11.8530  -17.4281   25.2482 O   0  0  0  0  0  0  0  0  0  0  0  0
    5.6386  -13.1146   26.8424 C   0  0  0  0  0  0  0  0  0  0  0  0
    7.3938  -12.8843   27.2752 S   0  0  0  0  0  0  0  0  0  0  0  0
    8.4013  -14.0531   26.4132 C   0  0  0  0  0  0  0  0  0  0  0  0
    9.8732  -14.0208   26.4925 C   0  0  0  0  0  0  0  0  0  0  0  0
   10.6827  -15.2410   26.3414 C   0  0  2  0  0  0  0  0  0  0  0  0
   10.3355  -15.7873   24.9800 N   0  0  0  0  0  0  0  0  0  0  0  0
   10.0879  -16.3814   27.1805 C   0  0  0  0  0  0  0  0  0  0  0  0
   10.2230  -16.3272   28.4525 O   0  0  0  0  0  0  0  0  0  0  0  0
    9.4282  -17.4580   26.7015 O   0  0  0  0  0  0  0  0  0  0  0  0
  2  3  1  0
  2  1  1  0
  3  5  1  0
  3  4  1  6
  5  7  1  0
  5  6  1  1
  7  8  2  0
 10  9  1  0
 11 10  2  0
 12 10  1  0
 13 12  1  6
 14 13  1  0
 14  7  1  0
 15 16  2  0
 15 13  1  0
 17 18  1  0
 19 20  1  0
 19 18  1  0
 21 20  1  1
 21 22  1  0
 21 23  1  0
 22 15  1  0
 23 24  2  0
 23 25  1  0
M  END
$$$$
