INM.pdb
     RDKit          3D

 25 24  0  0  1  0  0  0  0  0999 V2000
    7.6986  -11.8016   19.2061 C   0  0  0  0  0  0  0  0  0  0  0  0
    7.7924  -13.2739   18.9998 C   0  0  0  0  0  0  0  0  0  0  0  0
    8.0303  -14.0402   20.2556 C   0  0  2  0  0  0  0  0  0  0  0  0
    9.2802  -13.5173   20.9148 C   0  0  0  0  0  0  0  0  0  0  0  0
    8.0641  -15.5239   20.0183 C   0  0  2  0  0  0  0  0  0  0  0  0
    6.8725  -15.9508   19.3327 N   0  0  0  0  0  0  0  0  0  0  0  0
    8.2689  -16.2914   21.2626 C   0  0  0  0  0  0  0  0  0  0  0  0
    7.3040  -16.5029   22.0357 O   0  0  0  0  0  0  0  0  0  0  0  0
   11.6811  -19.5736   20.4822 N   0  0  0  0  0  0  0  0  0  0  0  0
   10.8108  -19.4628   21.6458 C   0  0  0  0  0  0  0  0  0  0  0  0
    9.9734  -20.3662   21.7334 O   0  0  0  0  0  0  0  0  0  0  0  0
   11.0093  -18.3495   22.5449 C   0  0  0  0  0  0  0  0  0  0  0  0
    9.7725  -17.5620   22.8671 C   0  0  2  0  0  0  0  0  0  0  0  0
    9.5432  -16.7870   21.5849 N   0  0  0  0  0  0  0  0  0  0  0  0
    9.9195  -16.5563   23.9200 C   0  0  0  0  0  0  0  0  0  0  0  0
   10.8325  -15.6585   23.7193 O   0  0  0  0  0  0  0  0  0  0  0  0
    6.1539  -12.0670   25.4715 C   0  0  0  0  0  0  0  0  0  0  0  0
    6.8859  -12.2438   27.1310 S   0  0  0  0  0  0  0  0  0  0  0  0
    8.3037  -13.2977   27.0719 C   0  0  0  0  0  0  0  0  0  0  0  0
    8.3902  -14.4353   26.1380 C   0  0  0  0  0  0  0  0  0  0  0  0
    9.5835  -15.2951   26.0752 C   0  0  2  0  0  0  0  0  0  0  0  0
    9.2308  -16.4023   25.1149 N   0  0  0  0  0  0  0  0  0  0  0  0
    9.6910  -16.1496   27.3467 C   0  0  0  0  0  0  0  0  0  0  0  0
    9.0255  -17.2422   27.3965 O   0  0  0  0  0  0  0  0  0  0  0  0
   10.4278  -15.8559   28.4399 O   0  0  0  0  0  0  0  0  0  0  0  0
  2  3  1  0
  2  1  1  0
  3  5  1  0
  3  4  1  6
  5  7  1  0
  5  6  1  1
  7  8  2  0
 10  9  1  0
 11 10  2  0
 12 10  1  0
 13 12  1  6
 14 13  1  0
 14  7  1  0
 15 16  2  0
 15 13  1  0
 17 18  1  0
 19 20  1  0
 19 18  1  0
 21 20  1  1
 21 22  1  0
 21 23  1  0
 22 15  1  0
 23 24  2  0
 23 25  1  0
M  END
$$$$
