INM.pdb
     RDKit          3D

 25 24  0  0  1  0  0  0  0  0999 V2000
    7.3455  -11.6227   19.9442 C   0  0  0  0  0  0  0  0  0  0  0  0
    7.6197  -13.0410   19.5808 C   0  0  0  0  0  0  0  0  0  0  0  0
    7.8311  -13.9302   20.7579 C   0  0  2  0  0  0  0  0  0  0  0  0
    8.9005  -13.3310   21.6340 C   0  0  0  0  0  0  0  0  0  0  0  0
    8.1243  -15.3479   20.3538 C   0  0  2  0  0  0  0  0  0  0  0  0
    7.1011  -15.8405   19.4691 N   0  0  0  0  0  0  0  0  0  0  0  0
    8.3026  -16.2418   21.5150 C   0  0  0  0  0  0  0  0  0  0  0  0
    7.3006  -16.6871   22.1242 O   0  0  0  0  0  0  0  0  0  0  0  0
   11.6370  -19.2619   20.6709 N   0  0  0  0  0  0  0  0  0  0  0  0
   10.8297  -19.2765   21.8841 C   0  0  0  0  0  0  0  0  0  0  0  0
   10.0418  -20.2251   21.9506 O   0  0  0  0  0  0  0  0  0  0  0  0
   11.0264  -18.2196   22.8493 C   0  0  0  0  0  0  0  0  0  0  0  0
    9.7956  -17.4308   23.1905 C   0  0  2  0  0  0  0  0  0  0  0  0
    9.5933  -16.5965   21.9414 N   0  0  0  0  0  0  0  0  0  0  0  0
    9.9412  -16.4750   24.2891 C   0  0  0  0  0  0  0  0  0  0  0  0
   10.8955  -15.6077   24.1595 O   0  0  0  0  0  0  0  0  0  0  0  0
    6.6579  -11.7683   27.1625 C   0  0  0  0  0  0  0  0  0  0  0  0
    6.8709  -12.5677   25.5388 S   0  0  0  0  0  0  0  0  0  0  0  0
    7.5505  -14.1879   25.7319 C   0  0  0  0  0  0  0  0  0  0  0  0
    8.5258  -14.5021   26.7921 C   0  0  0  0  0  0  0  0  0  0  0  0
    9.6659  -15.4019   26.5520 C   0  0  2  0  0  0  0  0  0  0  0  0
    9.2138  -16.3414   25.4633 N   0  0  0  0  0  0  0  0  0  0  0  0
    9.7769  -16.4338   27.6840 C   0  0  0  0  0  0  0  0  0  0  0  0
    9.3032  -17.6055   27.4796 O   0  0  0  0  0  0  0  0  0  0  0  0
   10.3304  -16.2234   28.8977 O   0  0  0  0  0  0  0  0  0  0  0  0
  2  3  1  0
  2  1  1  0
  3  5  1  0
  3  4  1  6
  5  7  1  0
  5  6  1  6
  7  8  2  0
 10  9  1  0
 11 10  2  0
 12 10  1  0
 13 12  1  6
 14 13  1  0
 14  7  1  0
 15 16  2  0
 15 13  1  0
 17 18  1  0
 19 20  1  0
 19 18  1  0
 21 20  1  1
 21 22  1  0
 21 23  1  0
 22 15  1  0
 23 24  2  0
 23 25  1  0
M  END
$$$$
