INM.pdb
     RDKit          3D

 25 24  0  0  1  0  0  0  0  0999 V2000
    7.0626  -12.0614   23.0038 C   0  0  0  0  0  0  0  0  0  0  0  0
    7.1023  -13.4873   22.5749 C   0  0  0  0  0  0  0  0  0  0  0  0
    8.0682  -13.7537   21.4717 C   0  0  2  0  0  0  0  0  0  0  0  0
    7.8047  -12.7828   20.3499 C   0  0  0  0  0  0  0  0  0  0  0  0
    8.0428  -15.1896   21.0283 C   0  0  2  0  0  0  0  0  0  0  0  0
    6.7040  -15.5831   20.6748 N   0  0  0  0  0  0  0  0  0  0  0  0
    8.6204  -16.1026   22.0343 C   0  0  0  0  0  0  0  0  0  0  0  0
    7.8726  -16.6870   22.8544 O   0  0  0  0  0  0  0  0  0  0  0  0
   14.0706  -18.7707   22.7987 N   0  0  0  0  0  0  0  0  0  0  0  0
   12.6332  -18.7476   23.0375 C   0  0  0  0  0  0  0  0  0  0  0  0
   12.2450  -19.5995   23.8428 O   0  0  0  0  0  0  0  0  0  0  0  0
   11.8387  -17.7669   22.3345 C   0  0  0  0  0  0  0  0  0  0  0  0
   10.6089  -17.3039   23.0603 C   0  0  2  0  0  0  0  0  0  0  0  0
   10.0077  -16.3201   22.0766 N   0  0  0  0  0  0  0  0  0  0  0  0
   10.8475  -16.5444   24.2883 C   0  0  0  0  0  0  0  0  0  0  0  0
   11.4809  -15.4229   24.1440 O   0  0  0  0  0  0  0  0  0  0  0  0
    8.1238  -12.3187   26.8818 C   0  0  0  0  0  0  0  0  0  0  0  0
    8.9142  -12.8051   28.4502 S   0  0  0  0  0  0  0  0  0  0  0  0
   10.0955  -14.0906   28.1743 C   0  0  0  0  0  0  0  0  0  0  0  0
   10.0274  -14.9705   26.9932 C   0  0  0  0  0  0  0  0  0  0  0  0
   11.0413  -16.0080   26.7425 C   0  0  2  0  0  0  0  0  0  0  0  0
   10.5004  -16.8308   25.6011 N   0  0  0  0  0  0  0  0  0  0  0  0
   10.9742  -17.0911   27.8292 C   0  0  0  0  0  0  0  0  0  0  0  0
   11.4267  -16.8062   28.9925 O   0  0  0  0  0  0  0  0  0  0  0  0
   10.4804  -18.3388   27.6762 O   0  0  0  0  0  0  0  0  0  0  0  0
  2  3  1  0
  2  1  1  0
  3  5  1  0
  3  4  1  6
  5  7  1  0
  5  6  1  1
  7  8  2  0
 10  9  1  0
 11 10  2  0
 12 10  1  0
 13 12  1  6
 14 13  1  0
 14  7  1  0
 15 16  2  0
 15 13  1  0
 17 18  1  0
 19 20  1  0
 19 18  1  0
 21 20  1  1
 21 22  1  0
 21 23  1  0
 22 15  1  0
 23 24  2  0
 23 25  1  0
M  END
$$$$
