INM.pdb
     RDKit          3D

 25 24  0  0  1  0  0  0  0  0999 V2000
    7.2484  -13.3713   18.1021 C   0  0  0  0  0  0  0  0  0  0  0  0
    7.8533  -13.0805   19.4319 C   0  0  0  0  0  0  0  0  0  0  0  0
    7.6357  -14.1590   20.4371 C   0  0  2  0  0  0  0  0  0  0  0  0
    6.1538  -14.3511   20.6309 C   0  0  0  0  0  0  0  0  0  0  0  0
    8.3701  -13.8953   21.7217 C   0  0  2  0  0  0  0  0  0  0  0  0
    9.5508  -13.1101   21.4738 N   0  0  0  0  0  0  0  0  0  0  0  0
    8.6966  -15.1362   22.4516 C   0  0  0  0  0  0  0  0  0  0  0  0
    7.7781  -15.9016   22.8309 O   0  0  0  0  0  0  0  0  0  0  0  0
   11.7348  -17.8399   20.3896 N   0  0  0  0  0  0  0  0  0  0  0  0
   10.9984  -18.0294   21.6327 C   0  0  0  0  0  0  0  0  0  0  0  0
   10.0331  -18.7929   21.5322 O   0  0  0  0  0  0  0  0  0  0  0  0
   11.4559  -17.3312   22.8119 C   0  0  0  0  0  0  0  0  0  0  0  0
   10.3804  -16.6475   23.6053 C   0  0  2  0  0  0  0  0  0  0  0  0
   10.0353  -15.4639   22.7236 N   0  0  0  0  0  0  0  0  0  0  0  0
   10.8032  -16.0804   24.8864 C   0  0  0  0  0  0  0  0  0  0  0  0
   12.0345  -15.6806   24.9476 O   0  0  0  0  0  0  0  0  0  0  0  0
    6.3945  -12.5051   26.1592 C   0  0  0  0  0  0  0  0  0  0  0  0
    7.5721  -12.4845   27.5499 S   0  0  0  0  0  0  0  0  0  0  0  0
    8.5067  -13.9842   27.5906 C   0  0  0  0  0  0  0  0  0  0  0  0
    9.9761  -13.9897   27.4690 C   0  0  0  0  0  0  0  0  0  0  0  0
   10.7299  -15.2367   27.2594 C   0  0  2  0  0  0  0  0  0  0  0  0
   10.0915  -15.8958   26.0634 N   0  0  0  0  0  0  0  0  0  0  0  0
   10.3307  -16.2827   28.3106 C   0  0  0  0  0  0  0  0  0  0  0  0
    9.4998  -17.1945   27.9679 O   0  0  0  0  0  0  0  0  0  0  0  0
   10.7734  -16.3351   29.5854 O   0  0  0  0  0  0  0  0  0  0  0  0
  2  3  1  0
  2  1  1  0
  3  5  1  0
  3  4  1  1
  5  7  1  0
  5  6  1  6
  7  8  2  0
 10  9  1  0
 11 10  2  0
 12 10  1  0
 13 12  1  6
 14 13  1  0
 14  7  1  0
 15 16  2  0
 15 13  1  0
 17 18  1  0
 19 20  1  0
 19 18  1  0
 21 20  1  1
 21 22  1  0
 21 23  1  0
 22 15  1  0
 23 24  2  0
 23 25  1  0
M  END
$$$$
