INM.pdb
     RDKit          3D

 25 24  0  0  1  0  0  0  0  0999 V2000
    8.4079  -13.0550   19.2657 C   0  0  0  0  0  0  0  0  0  0  0  0
    8.3999  -13.6592   20.6272 C   0  0  0  0  0  0  0  0  0  0  0  0
    7.4366  -14.7865   20.7760 C   0  0  2  0  0  0  0  0  0  0  0  0
    6.0526  -14.2899   20.4467 C   0  0  0  0  0  0  0  0  0  0  0  0
    7.5251  -15.4350   22.1290 C   0  0  2  0  0  0  0  0  0  0  0  0
    7.2628  -14.4720   23.1663 N   0  0  0  0  0  0  0  0  0  0  0  0
    8.8163  -16.1166   22.3463 C   0  0  0  0  0  0  0  0  0  0  0  0
    9.0121  -17.2586   21.8657 O   0  0  0  0  0  0  0  0  0  0  0  0
   12.4267  -17.5523   21.1577 N   0  0  0  0  0  0  0  0  0  0  0  0
   12.2556  -16.1188   21.3564 C   0  0  0  0  0  0  0  0  0  0  0  0
   12.2258  -15.4673   20.3078 O   0  0  0  0  0  0  0  0  0  0  0  0
   12.1419  -15.6245   22.7092 C   0  0  0  0  0  0  0  0  0  0  0  0
   11.0582  -16.2598   23.5311 C   0  0  2  0  0  0  0  0  0  0  0  0
    9.8292  -15.4896   23.0909 N   0  0  0  0  0  0  0  0  0  0  0  0
   11.1593  -16.0568   24.9768 C   0  0  0  0  0  0  0  0  0  0  0  0
   12.3616  -15.9482   25.4485 O   0  0  0  0  0  0  0  0  0  0  0  0
    6.8690  -12.6770   27.2311 C   0  0  0  0  0  0  0  0  0  0  0  0
    8.5506  -12.1499   26.7671 S   0  0  0  0  0  0  0  0  0  0  0  0
    9.7581  -13.1761   27.5501 C   0  0  0  0  0  0  0  0  0  0  0  0
    9.5249  -14.6130   27.7846 C   0  0  0  0  0  0  0  0  0  0  0  0
   10.5036  -15.6325   27.3722 C   0  0  2  0  0  0  0  0  0  0  0  0
   10.1650  -15.9581   25.9398 N   0  0  0  0  0  0  0  0  0  0  0  0
   10.1438  -16.9939   27.9852 C   0  0  0  0  0  0  0  0  0  0  0  0
   10.4262  -17.1932   29.2179 O   0  0  0  0  0  0  0  0  0  0  0  0
    9.5523  -18.0227   27.3404 O   0  0  0  0  0  0  0  0  0  0  0  0
  2  3  1  0
  2  1  1  0
  3  5  1  0
  3  4  1  1
  5  7  1  0
  5  6  1  1
  7  8  2  0
 10  9  1  0
 11 10  2  0
 12 10  1  0
 13 12  1  6
 14 13  1  0
 14  7  1  0
 15 16  2  0
 15 13  1  0
 17 18  1  0
 19 20  1  0
 19 18  1  0
 21 20  1  1
 21 22  1  0
 21 23  1  0
 22 15  1  0
 23 24  2  0
 23 25  1  0
M  END
$$$$
