INM.pdb
     RDKit          3D

 25 24  0  0  1  0  0  0  0  0999 V2000
    7.4261  -11.8468   19.8818 C   0  0  0  0  0  0  0  0  0  0  0  0
    7.6500  -13.3174   19.8042 C   0  0  0  0  0  0  0  0  0  0  0  0
    7.7733  -13.9750   21.1359 C   0  0  2  0  0  0  0  0  0  0  0  0
    8.8965  -13.3216   21.8986 C   0  0  0  0  0  0  0  0  0  0  0  0
    7.9257  -15.4659   21.0217 C   0  0  2  0  0  0  0  0  0  0  0  0
    6.8837  -16.0161   20.1948 N   0  0  0  0  0  0  0  0  0  0  0  0
    7.9717  -16.1324   22.3380 C   0  0  0  0  0  0  0  0  0  0  0  0
    6.9065  -16.3950   22.9462 O   0  0  0  0  0  0  0  0  0  0  0  0
   12.5020  -18.4766   24.1542 N   0  0  0  0  0  0  0  0  0  0  0  0
   11.3296  -18.2280   23.3251 C   0  0  0  0  0  0  0  0  0  0  0  0
   11.5963  -17.8518   22.1795 O   0  0  0  0  0  0  0  0  0  0  0  0
   10.0238  -18.4394   23.9060 C   0  0  0  0  0  0  0  0  0  0  0  0
    9.2687  -17.1882   24.2493 C   0  0  2  0  0  0  0  0  0  0  0  0
    9.2066  -16.4748   22.9135 N   0  0  0  0  0  0  0  0  0  0  0  0
    9.9500  -16.2684   25.1612 C   0  0  0  0  0  0  0  0  0  0  0  0
   10.5280  -15.2493   24.6069 O   0  0  0  0  0  0  0  0  0  0  0  0
    6.3077  -11.4681   25.9131 C   0  0  0  0  0  0  0  0  0  0  0  0
    7.7304  -11.8901   26.9708 S   0  0  0  0  0  0  0  0  0  0  0  0
    8.4650  -13.4082   26.4418 C   0  0  0  0  0  0  0  0  0  0  0  0
    8.8966  -14.4407   27.4017 C   0  0  0  0  0  0  0  0  0  0  0  0
   10.2402  -15.0393   27.3414 C   0  0  2  0  0  0  0  0  0  0  0  0
   10.0795  -16.3074   26.5423 N   0  0  0  0  0  0  0  0  0  0  0  0
   10.5952  -15.6863   28.6883 C   0  0  0  0  0  0  0  0  0  0  0  0
   11.1345  -14.9505   29.5865 O   0  0  0  0  0  0  0  0  0  0  0  0
   10.3958  -16.9790   29.0243 O   0  0  0  0  0  0  0  0  0  0  0  0
  2  3  1  0
  2  1  1  0
  3  5  1  0
  3  4  1  6
  5  7  1  0
  5  6  1  6
  7  8  2  0
 10  9  1  0
 11 10  2  0
 12 10  1  0
 13 12  1  6
 14 13  1  0
 14  7  1  0
 15 16  2  0
 15 13  1  0
 17 18  1  0
 19 20  1  0
 19 18  1  0
 21 20  1  1
 21 22  1  0
 21 23  1  0
 22 15  1  0
 23 24  2  0
 23 25  1  0
M  END
$$$$
