INM.pdb
     RDKit          3D

 25 24  0  0  1  0  0  0  0  0999 V2000
    7.9763  -12.2750   19.1103 C   0  0  0  0  0  0  0  0  0  0  0  0
    7.7526  -13.7362   19.2938 C   0  0  0  0  0  0  0  0  0  0  0  0
    8.1609  -14.2403   20.6355 C   0  0  2  0  0  0  0  0  0  0  0  0
    9.5968  -13.8566   20.8826 C   0  0  0  0  0  0  0  0  0  0  0  0
    7.9082  -15.7139   20.7901 C   0  0  2  0  0  0  0  0  0  0  0  0
    6.5233  -16.0157   20.5385 N   0  0  0  0  0  0  0  0  0  0  0  0
    8.3364  -16.2262   22.1066 C   0  0  0  0  0  0  0  0  0  0  0  0
    7.5583  -16.1625   23.0884 O   0  0  0  0  0  0  0  0  0  0  0  0
   11.3847  -20.0650   24.8198 N   0  0  0  0  0  0  0  0  0  0  0  0
   11.9516  -18.8415   24.2672 C   0  0  0  0  0  0  0  0  0  0  0  0
   13.0002  -18.4840   24.8126 O   0  0  0  0  0  0  0  0  0  0  0  0
   11.2553  -18.1960   23.1782 C   0  0  0  0  0  0  0  0  0  0  0  0
   10.0200  -17.4390   23.5712 C   0  0  2  0  0  0  0  0  0  0  0  0
    9.6150  -16.7865   22.2644 N   0  0  0  0  0  0  0  0  0  0  0  0
   10.2248  -16.3420   24.5179 C   0  0  0  0  0  0  0  0  0  0  0  0
   10.8115  -15.2886   24.0425 O   0  0  0  0  0  0  0  0  0  0  0  0
    5.9409  -12.8782   26.3660 C   0  0  0  0  0  0  0  0  0  0  0  0
    7.0108  -12.3730   27.7521 S   0  0  0  0  0  0  0  0  0  0  0  0
    8.5769  -13.1863   27.6523 C   0  0  0  0  0  0  0  0  0  0  0  0
    8.8060  -14.3266   26.7461 C   0  0  0  0  0  0  0  0  0  0  0  0
   10.1269  -14.9655   26.6260 C   0  0  2  0  0  0  0  0  0  0  0  0
    9.8875  -16.2418   25.8603 N   0  0  0  0  0  0  0  0  0  0  0  0
   10.5348  -15.5995   27.9639 C   0  0  0  0  0  0  0  0  0  0  0  0
   10.9526  -14.8259   28.8946 O   0  0  0  0  0  0  0  0  0  0  0  0
   10.5005  -16.9166   28.2608 O   0  0  0  0  0  0  0  0  0  0  0  0
  2  3  1  0
  2  1  1  0
  3  5  1  0
  3  4  1  6
  5  7  1  0
  5  6  1  1
  7  8  2  0
 10  9  1  0
 11 10  2  0
 12 10  1  0
 13 12  1  6
 14 13  1  0
 14  7  1  0
 15 16  2  0
 15 13  1  0
 17 18  1  0
 19 20  1  0
 19 18  1  0
 21 20  1  1
 21 22  1  0
 21 23  1  0
 22 15  1  0
 23 24  2  0
 23 25  1  0
M  END
$$$$
