INM.pdb
     RDKit          3D

 25 24  0  0  1  0  0  0  0  0999 V2000
    8.0789  -11.8497   18.7974 C   0  0  0  0  0  0  0  0  0  0  0  0
    8.5557  -13.2495   18.6182 C   0  0  0  0  0  0  0  0  0  0  0  0
    8.2716  -14.1324   19.7847 C   0  0  2  0  0  0  0  0  0  0  0  0
    8.9023  -13.5315   21.0142 C   0  0  0  0  0  0  0  0  0  0  0  0
    8.6946  -15.5535   19.5384 C   0  0  2  0  0  0  0  0  0  0  0  0
    8.1499  -16.0318   18.2947 N   0  0  0  0  0  0  0  0  0  0  0  0
    8.3423  -16.4506   20.6565 C   0  0  0  0  0  0  0  0  0  0  0  0
    7.6953  -17.5026   20.4374 O   0  0  0  0  0  0  0  0  0  0  0  0
   10.2576  -20.0017   23.2843 N   0  0  0  0  0  0  0  0  0  0  0  0
   11.0626  -18.8629   22.8616 C   0  0  0  0  0  0  0  0  0  0  0  0
   12.2632  -18.9706   23.1296 O   0  0  0  0  0  0  0  0  0  0  0  0
   10.3989  -17.7654   22.1965 C   0  0  0  0  0  0  0  0  0  0  0  0
    9.2084  -17.2072   22.9209 C   0  0  2  0  0  0  0  0  0  0  0  0
    8.7299  -16.1299   21.9682 N   0  0  0  0  0  0  0  0  0  0  0  0
    9.4986  -16.5240   24.1820 C   0  0  0  0  0  0  0  0  0  0  0  0
   10.0704  -17.2442   25.0954 O   0  0  0  0  0  0  0  0  0  0  0  0
    6.4983  -11.4658   27.5691 C   0  0  0  0  0  0  0  0  0  0  0  0
    5.8706  -12.7356   26.4225 S   0  0  0  0  0  0  0  0  0  0  0  0
    7.2115  -13.6260   25.6923 C   0  0  0  0  0  0  0  0  0  0  0  0
    8.1766  -14.3869   26.5069 C   0  0  0  0  0  0  0  0  0  0  0  0
    9.5005  -14.7644   25.9854 C   0  0  2  0  0  0  0  0  0  0  0  0
    9.2605  -15.2118   24.5661 N   0  0  0  0  0  0  0  0  0  0  0  0
    9.9317  -16.1214   26.5608 C   0  0  0  0  0  0  0  0  0  0  0  0
   10.9234  -16.1450   27.3702 O   0  0  0  0  0  0  0  0  0  0  0  0
    9.3615  -17.3153   26.2895 O   0  0  0  0  0  0  0  0  0  0  0  0
  2  3  1  0
  2  1  1  0
  3  5  1  0
  3  4  1  1
  5  7  1  0
  5  6  1  6
  7  8  2  0
 10  9  1  0
 11 10  2  0
 12 10  1  0
 13 12  1  6
 14 13  1  0
 14  7  1  0
 15 16  2  0
 15 13  1  0
 17 18  1  0
 19 20  1  0
 19 18  1  0
 21 20  1  1
 21 22  1  0
 21 23  1  0
 22 15  1  0
 23 24  2  0
 23 25  1  0
M  END
$$$$
