INM.pdb
     RDKit          3D

 25 24  0  0  1  0  0  0  0  0999 V2000
    8.1698  -11.9689   18.6838 C   0  0  0  0  0  0  0  0  0  0  0  0
    8.3211  -13.4456   18.8081 C   0  0  0  0  0  0  0  0  0  0  0  0
    7.8104  -13.9930   20.0967 C   0  0  2  0  0  0  0  0  0  0  0  0
    8.5800  -13.3662   21.2303 C   0  0  0  0  0  0  0  0  0  0  0  0
    7.8353  -15.4956   20.1255 C   0  0  2  0  0  0  0  0  0  0  0  0
    7.2398  -16.0314   18.9295 N   0  0  0  0  0  0  0  0  0  0  0  0
    7.1956  -16.0489   21.3354 C   0  0  0  0  0  0  0  0  0  0  0  0
    5.9844  -15.8182   21.5664 O   0  0  0  0  0  0  0  0  0  0  0  0
    5.8716  -19.7651   24.8441 N   0  0  0  0  0  0  0  0  0  0  0  0
    7.2973  -19.6255   24.5768 C   0  0  0  0  0  0  0  0  0  0  0  0
    8.0192  -20.2212   25.3825 O   0  0  0  0  0  0  0  0  0  0  0  0
    7.7057  -18.8344   23.4389 C   0  0  0  0  0  0  0  0  0  0  0  0
    7.3033  -17.3891   23.4900 C   0  0  2  0  0  0  0  0  0  0  0  0
    7.9397  -16.8347   22.2311 N   0  0  0  0  0  0  0  0  0  0  0  0
    7.8670  -16.6143   24.5962 C   0  0  0  0  0  0  0  0  0  0  0  0
    7.3162  -16.8013   25.7543 O   0  0  0  0  0  0  0  0  0  0  0  0
    5.9713  -10.7487   26.6691 C   0  0  0  0  0  0  0  0  0  0  0  0
    6.4203  -12.3937   27.3122 S   0  0  0  0  0  0  0  0  0  0  0  0
    7.6256  -13.1572   26.2689 C   0  0  0  0  0  0  0  0  0  0  0  0
    8.1050  -14.5308   26.5084 C   0  0  0  0  0  0  0  0  0  0  0  0
    9.3428  -15.0362   25.8923 C   0  0  2  0  0  0  0  0  0  0  0  0
    8.9110  -15.7001   24.6097 N   0  0  0  0  0  0  0  0  0  0  0  0
    9.8261  -16.2960   26.6257 C   0  0  0  0  0  0  0  0  0  0  0  0
    9.3541  -17.4271   26.2553 O   0  0  0  0  0  0  0  0  0  0  0  0
   10.7122  -16.3301   27.6442 O   0  0  0  0  0  0  0  0  0  0  0  0
  2  3  1  0
  2  1  1  0
  3  5  1  0
  3  4  1  1
  5  7  1  0
  5  6  1  6
  7  8  2  0
 10  9  1  0
 11 10  2  0
 12 10  1  0
 13 12  1  1
 14 13  1  0
 14  7  1  0
 15 16  2  0
 15 13  1  0
 17 18  1  0
 19 20  1  0
 19 18  1  0
 21 20  1  1
 21 22  1  0
 21 23  1  0
 22 15  1  0
 23 24  2  0
 23 25  1  0
M  END
$$$$
