INM.pdb
     RDKit          3D

 25 24  0  0  1  0  0  0  0  0999 V2000
    6.3073  -11.8762   26.5700 C   0  0  0  0  0  0  0  0  0  0  0  0
    5.9293  -13.1051   25.8179 C   0  0  0  0  0  0  0  0  0  0  0  0
    7.0929  -13.9537   25.4344 C   0  0  2  0  0  0  0  0  0  0  0  0
    8.0336  -13.1353   24.5886 C   0  0  0  0  0  0  0  0  0  0  0  0
    6.6685  -15.2356   24.7743 C   0  0  2  0  0  0  0  0  0  0  0  0
    5.6618  -15.8976   25.5621 N   0  0  0  0  0  0  0  0  0  0  0  0
    7.8071  -16.1335   24.4978 C   0  0  0  0  0  0  0  0  0  0  0  0
    8.1475  -16.9945   25.3441 O   0  0  0  0  0  0  0  0  0  0  0  0
   11.4135  -18.6414   21.6112 N   0  0  0  0  0  0  0  0  0  0  0  0
   10.9377  -17.4662   20.8928 C   0  0  0  0  0  0  0  0  0  0  0  0
   11.4306  -17.3322   19.7685 O   0  0  0  0  0  0  0  0  0  0  0  0
    9.9737  -16.6100   21.5446 C   0  0  0  0  0  0  0  0  0  0  0  0
    9.6339  -16.9915   22.9562 C   0  0  2  0  0  0  0  0  0  0  0  0
    8.5125  -16.0273   23.2876 N   0  0  0  0  0  0  0  0  0  0  0  0
   10.6805  -16.7419   23.9482 C   0  0  0  0  0  0  0  0  0  0  0  0
   11.2118  -15.5600   23.9226 O   0  0  0  0  0  0  0  0  0  0  0  0
   10.8792  -13.6107   30.2931 C   0  0  0  0  0  0  0  0  0  0  0  0
   10.4694  -13.9891   28.5582 S   0  0  0  0  0  0  0  0  0  0  0  0
   10.8947  -15.6610   28.1733 C   0  0  0  0  0  0  0  0  0  0  0  0
   10.7510  -16.2075   26.8114 C   0  0  0  0  0  0  0  0  0  0  0  0
   11.8165  -17.0047   26.1818 C   0  0  2  0  0  0  0  0  0  0  0  0
   11.2042  -17.5742   24.9275 N   0  0  0  0  0  0  0  0  0  0  0  0
   12.0087  -18.3275   26.9380 C   0  0  0  0  0  0  0  0  0  0  0  0
   12.5543  -18.2859   28.0955 O   0  0  0  0  0  0  0  0  0  0  0  0
   11.6572  -19.5535   26.4937 O   0  0  0  0  0  0  0  0  0  0  0  0
  2  3  1  0
  2  1  1  0
  3  5  1  0
  3  4  1  6
  5  7  1  0
  5  6  1  1
  7  8  2  0
 10  9  1  0
 11 10  2  0
 12 10  1  0
 13 12  1  6
 14 13  1  0
 14  7  1  0
 15 16  2  0
 15 13  1  0
 17 18  1  0
 19 20  1  0
 19 18  1  0
 21 20  1  1
 21 22  1  0
 21 23  1  0
 22 15  1  0
 23 24  2  0
 23 25  1  0
M  END
$$$$
