INM.pdb
     RDKit          3D

 25 24  0  0  1  0  0  0  0  0999 V2000
    5.7965  -13.1129   26.8490 C   0  0  0  0  0  0  0  0  0  0  0  0
    5.7930  -14.1619   25.7914 C   0  0  0  0  0  0  0  0  0  0  0  0
    7.1286  -14.7803   25.5575 C   0  0  2  0  0  0  0  0  0  0  0  0
    8.1083  -13.6965   25.1888 C   0  0  0  0  0  0  0  0  0  0  0  0
    7.0711  -15.8927   24.5485 C   0  0  2  0  0  0  0  0  0  0  0  0
    5.9744  -16.7789   24.8390 N   0  0  0  0  0  0  0  0  0  0  0  0
    8.3445  -16.6328   24.4491 C   0  0  0  0  0  0  0  0  0  0  0  0
    8.4749  -17.7382   25.0276 O   0  0  0  0  0  0  0  0  0  0  0  0
   12.8152  -18.0956   21.8644 N   0  0  0  0  0  0  0  0  0  0  0  0
   12.6524  -16.6539   22.0010 C   0  0  0  0  0  0  0  0  0  0  0  0
   13.6766  -16.0084   21.7575 O   0  0  0  0  0  0  0  0  0  0  0  0
   11.3577  -16.1458   22.3921 C   0  0  0  0  0  0  0  0  0  0  0  0
   10.6864  -16.8995   23.5034 C   0  0  2  0  0  0  0  0  0  0  0  0
    9.4132  -16.1028   23.7073 N   0  0  0  0  0  0  0  0  0  0  0  0
   11.3806  -16.8783   24.7915 C   0  0  0  0  0  0  0  0  0  0  0  0
   12.5264  -17.4831   24.8249 O   0  0  0  0  0  0  0  0  0  0  0  0
    9.4606  -11.5848   28.0454 C   0  0  0  0  0  0  0  0  0  0  0  0
    9.5291  -13.3269   28.5761 S   0  0  0  0  0  0  0  0  0  0  0  0
   10.9868  -14.1066   27.9505 C   0  0  0  0  0  0  0  0  0  0  0  0
   11.2892  -15.5240   28.2210 C   0  0  0  0  0  0  0  0  0  0  0  0
   11.9113  -16.3895   27.2056 C   0  0  2  0  0  0  0  0  0  0  0  0
   11.0093  -16.3072   26.0006 N   0  0  0  0  0  0  0  0  0  0  0  0
   11.6691  -17.8674   27.5456 C   0  0  0  0  0  0  0  0  0  0  0  0
   12.3117  -18.3719   28.5314 O   0  0  0  0  0  0  0  0  0  0  0  0
   10.8340  -18.7049   26.8936 O   0  0  0  0  0  0  0  0  0  0  0  0
  2  3  1  0
  2  1  1  0
  3  5  1  0
  3  4  1  6
  5  7  1  0
  5  6  1  1
  7  8  2  0
 10  9  1  0
 11 10  2  0
 12 10  1  0
 13 12  1  6
 14 13  1  0
 14  7  1  0
 15 16  2  0
 15 13  1  0
 17 18  1  0
 19 20  1  0
 19 18  1  0
 21 20  1  1
 21 22  1  0
 21 23  1  0
 22 15  1  0
 23 24  2  0
 23 25  1  0
M  END
$$$$
