INM.pdb
     RDKit          3D

 25 24  0  0  1  0  0  0  0  0999 V2000
    1.7385  -19.1909   20.9673 C   0  0  0  0  0  0  0  0  0  0  0  0
    2.9159  -19.1864   21.8798 C   0  0  0  0  0  0  0  0  0  0  0  0
    4.1643  -18.6790   21.2434 C   0  0  2  0  0  0  0  0  0  0  0  0
    4.4447  -19.4924   20.0064 C   0  0  0  0  0  0  0  0  0  0  0  0
    5.3198  -18.6476   22.2041 C   0  0  2  0  0  0  0  0  0  0  0  0
    4.8956  -18.1449   23.4846 N   0  0  0  0  0  0  0  0  0  0  0  0
    6.4684  -17.8810   21.6826 C   0  0  0  0  0  0  0  0  0  0  0  0
    7.5121  -18.4786   21.3261 O   0  0  0  0  0  0  0  0  0  0  0  0
    7.4886  -12.2343   19.7656 N   0  0  0  0  0  0  0  0  0  0  0  0
    7.7673  -13.6572   19.6200 C   0  0  0  0  0  0  0  0  0  0  0  0
    8.7632  -13.9053   18.9333 O   0  0  0  0  0  0  0  0  0  0  0  0
    6.8835  -14.5973   20.2700 C   0  0  0  0  0  0  0  0  0  0  0  0
    7.5686  -15.6808   21.0512 C   0  0  2  0  0  0  0  0  0  0  0  0
    6.3970  -16.4815   21.5836 N   0  0  0  0  0  0  0  0  0  0  0  0
    8.3154  -15.2360   22.2285 C   0  0  0  0  0  0  0  0  0  0  0  0
    9.3691  -14.5197   21.9909 O   0  0  0  0  0  0  0  0  0  0  0  0
    6.5670  -11.1072   26.3835 C   0  0  0  0  0  0  0  0  0  0  0  0
    7.4834  -12.1783   27.5383 S   0  0  0  0  0  0  0  0  0  0  0  0
    8.5158  -13.3046   26.6496 C   0  0  0  0  0  0  0  0  0  0  0  0
    8.0925  -13.9069   25.3721 C   0  0  0  0  0  0  0  0  0  0  0  0
    8.9591  -14.8387   24.6319 C   0  0  2  0  0  0  0  0  0  0  0  0
    8.0765  -15.4567   23.5777 N   0  0  0  0  0  0  0  0  0  0  0  0
    9.2093  -16.1062   25.4622 C   0  0  0  0  0  0  0  0  0  0  0  0
    8.3475  -17.0506   25.3945 O   0  0  0  0  0  0  0  0  0  0  0  0
   10.2648  -16.3262   26.2754 O   0  0  0  0  0  0  0  0  0  0  0  0
  2  3  1  0
  2  1  1  0
  3  5  1  0
  3  4  1  6
  5  7  1  0
  5  6  1  1
  7  8  2  0
 10  9  1  0
 11 10  2  0
 12 10  1  0
 13 12  1  1
 14 13  1  0
 14  7  1  0
 15 16  2  0
 15 13  1  0
 17 18  1  0
 19 20  1  0
 19 18  1  0
 21 20  1  1
 21 22  1  0
 21 23  1  0
 22 15  1  0
 23 24  2  0
 23 25  1  0
M  END
$$$$
