INM.pdb
     RDKit          3D

 25 24  0  0  1  0  0  0  0  0999 V2000
    7.3657  -11.8797   27.4205 C   0  0  0  0  0  0  0  0  0  0  0  0
    6.6576  -13.0622   26.8556 C   0  0  0  0  0  0  0  0  0  0  0  0
    7.2793  -13.5931   25.6096 C   0  0  2  0  0  0  0  0  0  0  0  0
    7.3190  -12.4940   24.5797 C   0  0  0  0  0  0  0  0  0  0  0  0
    6.5950  -14.8380   25.1188 C   0  0  2  0  0  0  0  0  0  0  0  0
    6.5091  -15.8138   26.1737 N   0  0  0  0  0  0  0  0  0  0  0  0
    7.2422  -15.4037   23.9187 C   0  0  0  0  0  0  0  0  0  0  0  0
    6.5505  -15.7116   22.9186 O   0  0  0  0  0  0  0  0  0  0  0  0
    6.7495  -14.7098   20.3264 N   0  0  0  0  0  0  0  0  0  0  0  0
    7.6062  -15.7257   20.9244 C   0  0  0  0  0  0  0  0  0  0  0  0
    7.1768  -16.8774   20.8047 O   0  0  0  0  0  0  0  0  0  0  0  0
    8.8250  -15.2982   21.5716 C   0  0  0  0  0  0  0  0  0  0  0  0
    9.3098  -16.1947   22.6739 C   0  0  2  0  0  0  0  0  0  0  0  0
    8.6331  -15.5989   23.8923 N   0  0  0  0  0  0  0  0  0  0  0  0
   10.7461  -16.1394   22.9485 C   0  0  0  0  0  0  0  0  0  0  0  0
   11.4549  -17.0985   22.4410 O   0  0  0  0  0  0  0  0  0  0  0  0
   10.2808  -13.1334   28.9355 C   0  0  0  0  0  0  0  0  0  0  0  0
    9.8326  -14.8604   28.5645 S   0  0  0  0  0  0  0  0  0  0  0  0
   10.9721  -15.5598   27.4084 C   0  0  0  0  0  0  0  0  0  0  0  0
   10.8699  -15.3012   25.9604 C   0  0  0  0  0  0  0  0  0  0  0  0
   12.0014  -15.5425   25.0501 C   0  0  2  0  0  0  0  0  0  0  0  0
   11.4854  -15.2144   23.6722 N   0  0  0  0  0  0  0  0  0  0  0  0
   12.2045  -17.0505   24.8420 C   0  0  0  0  0  0  0  0  0  0  0  0
   11.2683  -17.7114   24.2711 O   0  0  0  0  0  0  0  0  0  0  0  0
   13.2904  -17.7631   25.2120 O   0  0  0  0  0  0  0  0  0  0  0  0
  2  3  1  0
  2  1  1  0
  3  5  1  0
  3  4  1  6
  5  7  1  0
  5  6  1  1
  7  8  2  0
 10  9  1  0
 11 10  2  0
 12 10  1  0
 13 12  1  6
 14 13  1  0
 14  7  1  0
 15 16  2  0
 15 13  1  0
 17 18  1  0
 19 20  1  0
 19 18  1  0
 21 20  1  1
 21 22  1  0
 21 23  1  0
 22 15  1  0
 23 24  2  0
 23 25  1  0
M  END
$$$$
