INM.pdb
     RDKit          3D

 25 24  0  0  1  0  0  0  0  0999 V2000
    7.1119  -12.3244   25.9988 C   0  0  0  0  0  0  0  0  0  0  0  0
    6.8507  -13.7781   25.8053 C   0  0  0  0  0  0  0  0  0  0  0  0
    7.2369  -14.2813   24.4568 C   0  0  2  0  0  0  0  0  0  0  0  0
    6.4642  -13.5170   23.4131 C   0  0  0  0  0  0  0  0  0  0  0  0
    7.0756  -15.7709   24.3382 C   0  0  2  0  0  0  0  0  0  0  0  0
    6.7615  -16.3463   25.6198 N   0  0  0  0  0  0  0  0  0  0  0  0
    8.2553  -16.4214   23.7348 C   0  0  0  0  0  0  0  0  0  0  0  0
    8.1200  -17.1577   22.7282 O   0  0  0  0  0  0  0  0  0  0  0  0
   10.5370  -14.7099   21.0029 N   0  0  0  0  0  0  0  0  0  0  0  0
   10.9141  -16.0075   21.5482 C   0  0  0  0  0  0  0  0  0  0  0  0
   10.7512  -16.9474   20.7640 O   0  0  0  0  0  0  0  0  0  0  0  0
   11.4215  -16.0602   22.8999 C   0  0  0  0  0  0  0  0  0  0  0  0
   10.7201  -17.0294   23.8068 C   0  0  2  0  0  0  0  0  0  0  0  0
    9.5320  -16.2186   24.2846 N   0  0  0  0  0  0  0  0  0  0  0  0
   11.4541  -17.4106   25.0140 C   0  0  0  0  0  0  0  0  0  0  0  0
   12.6730  -17.8112   24.8304 O   0  0  0  0  0  0  0  0  0  0  0  0
   10.7337  -13.1810   28.6118 C   0  0  0  0  0  0  0  0  0  0  0  0
   10.4319  -14.5690   29.7535 S   0  0  0  0  0  0  0  0  0  0  0  0
   10.6294  -16.1126   28.9154 C   0  0  0  0  0  0  0  0  0  0  0  0
   11.9295  -16.5405   28.3671 C   0  0  0  0  0  0  0  0  0  0  0  0
   12.0423  -17.6854   27.4485 C   0  0  2  0  0  0  0  0  0  0  0  0
   11.0546  -17.4122   26.3430 N   0  0  0  0  0  0  0  0  0  0  0  0
   11.3485  -18.9179   28.0469 C   0  0  0  0  0  0  0  0  0  0  0  0
   10.2374  -19.2927   27.5329 O   0  0  0  0  0  0  0  0  0  0  0  0
   11.7995  -19.6569   29.0834 O   0  0  0  0  0  0  0  0  0  0  0  0
  2  3  1  0
  2  1  1  0
  3  5  1  0
  3  4  1  6
  5  7  1  0
  5  6  1  1
  7  8  2  0
 10  9  1  0
 11 10  2  0
 12 10  1  0
 13 12  1  6
 14 13  1  0
 14  7  1  0
 15 16  2  0
 15 13  1  0
 17 18  1  0
 19 20  1  0
 19 18  1  0
 21 20  1  1
 21 22  1  0
 21 23  1  0
 22 15  1  0
 23 24  2  0
 23 25  1  0
M  END
$$$$
