INM.pdb
     RDKit          3D

 25 24  0  0  1  0  0  0  0  0999 V2000
    7.6006  -12.0259   18.9274 C   0  0  0  0  0  0  0  0  0  0  0  0
    7.8044  -13.4993   19.0068 C   0  0  0  0  0  0  0  0  0  0  0  0
    7.4963  -14.0747   20.3466 C   0  0  2  0  0  0  0  0  0  0  0  0
    8.3778  -13.4134   21.3741 C   0  0  0  0  0  0  0  0  0  0  0  0
    7.5981  -15.5742   20.3582 C   0  0  2  0  0  0  0  0  0  0  0  0
    6.8287  -16.1389   19.2804 N   0  0  0  0  0  0  0  0  0  0  0  0
    7.2075  -16.1577   21.6567 C   0  0  0  0  0  0  0  0  0  0  0  0
    5.9941  -16.2870   21.9473 O   0  0  0  0  0  0  0  0  0  0  0  0
    6.4583  -19.9456   25.2232 N   0  0  0  0  0  0  0  0  0  0  0  0
    7.7231  -19.2323   25.1003 C   0  0  0  0  0  0  0  0  0  0  0  0
    8.4528  -19.3312   26.0917 O   0  0  0  0  0  0  0  0  0  0  0  0
    7.9848  -18.5096   23.8770 C   0  0  0  0  0  0  0  0  0  0  0  0
    7.8136  -17.0209   23.9671 C   0  0  2  0  0  0  0  0  0  0  0  0
    8.1918  -16.5699   22.5703 N   0  0  0  0  0  0  0  0  0  0  0  0
    8.7348  -16.3319   24.8716 C   0  0  0  0  0  0  0  0  0  0  0  0
    9.4215  -15.3651   24.3487 O   0  0  0  0  0  0  0  0  0  0  0  0
    7.2399  -10.8467   27.5260 C   0  0  0  0  0  0  0  0  0  0  0  0
    6.6210  -12.3357   26.6770 S   0  0  0  0  0  0  0  0  0  0  0  0
    7.9447  -13.4653   26.3667 C   0  0  0  0  0  0  0  0  0  0  0  0
    8.2646  -14.5644   27.2958 C   0  0  0  0  0  0  0  0  0  0  0  0
    9.4505  -15.4160   27.1071 C   0  0  2  0  0  0  0  0  0  0  0  0
    8.9967  -16.5453   26.2176 N   0  0  0  0  0  0  0  0  0  0  0  0
    9.7182  -16.2434   28.3729 C   0  0  0  0  0  0  0  0  0  0  0  0
   10.2843  -15.6628   29.3636 O   0  0  0  0  0  0  0  0  0  0  0  0
    9.4146  -17.5478   28.5468 O   0  0  0  0  0  0  0  0  0  0  0  0
  2  3  1  0
  2  1  1  0
  3  5  1  0
  3  4  1  1
  5  7  1  0
  5  6  1  6
  7  8  2  0
 10  9  1  0
 11 10  2  0
 12 10  1  0
 13 12  1  6
 14 13  1  0
 14  7  1  0
 15 16  2  0
 15 13  1  0
 17 18  1  0
 19 20  1  0
 19 18  1  0
 21 20  1  1
 21 22  1  0
 21 23  1  0
 22 15  1  0
 23 24  2  0
 23 25  1  0
M  END
$$$$
