HAY.pdb
     RDKit          3D

 28 29  0  0  1  0  0  0  0  0999 V2000
    8.0187  -18.8943   19.3593 N   0  0  0  0  0  0  0  0  0  0  0  0
    7.4879  -18.2090   20.5022 C   0  0  1  0  0  0  0  0  0  0  0  0
    7.6475  -19.1463   21.6987 C   0  0  0  0  0  0  0  0  0  0  0  0
    6.6886  -20.2682   21.5223 C   0  0  0  0  0  0  0  0  0  0  0  0
    5.6633  -20.3331   20.5722 C   0  0  0  0  0  0  0  0  0  0  0  0
    5.0150  -21.4987   20.7261 N   0  0  0  0  0  0  0  0  0  0  0  0
    5.5842  -22.1620   21.7227 C   0  0  0  0  0  0  0  0  0  0  0  0
    6.6051  -21.4218   22.2154 N   0  0  0  0  0  0  0  0  0  0  0  0
    8.2328  -16.9645   20.8169 C   0  0  0  0  0  0  0  0  0  0  0  0
    9.4713  -16.9029   20.6075 O   0  0  0  0  0  0  0  0  0  0  0  0
    7.3834  -13.4554   22.0326 C   0  0  0  0  0  0  0  0  0  0  0  0
    8.3123  -14.6041   21.7125 C   0  0  2  0  0  0  0  0  0  0  0  0
    7.6127  -15.8041   21.3565 N   0  0  0  0  0  0  0  0  0  0  0  0
    9.2822  -14.8594   22.8129 C   0  0  0  0  0  0  0  0  0  0  0  0
   10.4362  -14.3249   22.8099 O   0  0  0  0  0  0  0  0  0  0  0  0
    4.9396  -12.2225   26.2807 O   0  0  0  0  0  0  0  0  0  0  0  0
    6.1348  -12.9026   26.2265 C   0  0  0  0  0  0  0  0  0  0  0  0
    7.2641  -12.2327   25.8434 C   0  0  0  0  0  0  0  0  0  0  0  0
    8.4683  -12.9134   25.7877 C   0  0  0  0  0  0  0  0  0  0  0  0
    8.5293  -14.2430   26.1124 C   0  0  0  0  0  0  0  0  0  0  0  0
    9.8083  -14.9594   26.0516 C   0  0  0  0  0  0  0  0  0  0  0  0
    9.8726  -16.0054   24.9814 C   0  0  2  0  0  0  0  0  0  0  0  0
    8.9631  -15.6984   23.8959 N   0  0  0  0  0  0  0  0  0  0  0  0
    9.6547  -17.3763   25.5078 C   0  0  0  0  0  0  0  0  0  0  0  0
   10.4219  -17.8218   26.3977 O   0  0  0  0  0  0  0  0  0  0  0  0
    7.3858  -14.8898   26.4924 C   0  0  0  0  0  0  0  0  0  0  0  0
    6.1780  -14.2399   26.5566 C   0  0  0  0  0  0  0  0  0  0  0  0
    8.6382  -18.2003   25.0647 O   0  0  0  0  0  0  0  0  0  0  0  0
  2  1  1  6
  2  9  1  0
  3  2  1  0
  4  3  1  0
  5  4  2  0
  6  5  1  0
  6  7  1  0
  7  8  2  0
  8  4  1  0
  9 10  2  0
 12 11  1  1
 13  9  1  0
 13 12  1  0
 14 15  2  0
 14 12  1  0
 16 17  1  0
 17 27  2  0
 17 18  1  0
 18 19  2  0
 19 20  1  0
 20 21  1  0
 22 21  1  1
 22 23  1  0
 23 14  1  0
 24 22  1  0
 24 28  1  0
 25 24  2  0
 26 20  2  0
 27 26  1  0
M  END
$$$$
