HAY.pdb
     RDKit          3D

 28 29  0  0  1  0  0  0  0  0999 V2000
   10.1360  -16.8671   19.5615 N   0  0  0  0  0  0  0  0  0  0  0  0
   10.1757  -16.1035   20.7751 C   0  0  1  0  0  0  0  0  0  0  0  0
    8.7312  -15.7501   21.1277 C   0  0  0  0  0  0  0  0  0  0  0  0
    8.2699  -14.7228   20.1578 C   0  0  0  0  0  0  0  0  0  0  0  0
    8.9975  -14.2355   19.0663 C   0  0  0  0  0  0  0  0  0  0  0  0
    8.2475  -13.3215   18.4300 N   0  0  0  0  0  0  0  0  0  0  0  0
    7.0912  -13.2153   19.0694 C   0  0  0  0  0  0  0  0  0  0  0  0
    7.0936  -14.0644   20.1238 N   0  0  0  0  0  0  0  0  0  0  0  0
   10.7300  -16.8748   21.9155 C   0  0  0  0  0  0  0  0  0  0  0  0
   10.6012  -18.1252   21.9509 O   0  0  0  0  0  0  0  0  0  0  0  0
   12.9800  -16.2257   24.8951 C   0  0  0  0  0  0  0  0  0  0  0  0
   11.8973  -16.9755   24.1532 C   0  0  2  0  0  0  0  0  0  0  0  0
   11.4178  -16.2676   23.0020 N   0  0  0  0  0  0  0  0  0  0  0  0
   10.7721  -17.3601   25.0491 C   0  0  0  0  0  0  0  0  0  0  0  0
   10.9350  -18.2072   25.9836 O   0  0  0  0  0  0  0  0  0  0  0  0
   11.2626  -14.2279   30.4582 O   0  0  0  0  0  0  0  0  0  0  0  0
   10.4092  -14.6863   29.4807 C   0  0  0  0  0  0  0  0  0  0  0  0
    9.9365  -13.8074   28.5453 C   0  0  0  0  0  0  0  0  0  0  0  0
    9.0778  -14.2647   27.5604 C   0  0  0  0  0  0  0  0  0  0  0  0
    8.7050  -15.5825   27.5221 C   0  0  0  0  0  0  0  0  0  0  0  0
    7.7947  -16.0617   26.4761 C   0  0  0  0  0  0  0  0  0  0  0  0
    8.3330  -17.2075   25.6752 C   0  0  2  0  0  0  0  0  0  0  0  0
    9.4884  -16.8047   24.8991 N   0  0  0  0  0  0  0  0  0  0  0  0
    7.2977  -17.8474   24.8252 C   0  0  0  0  0  0  0  0  0  0  0  0
    6.2448  -18.2782   25.3590 O   0  0  0  0  0  0  0  0  0  0  0  0
    9.1917  -16.4410   28.4691 C   0  0  0  0  0  0  0  0  0  0  0  0
   10.0446  -16.0151   29.4572 C   0  0  0  0  0  0  0  0  0  0  0  0
    7.4325  -17.9966   23.4585 O   0  0  0  0  0  0  0  0  0  0  0  0
  2  1  1  6
  2  9  1  0
  3  2  1  0
  4  3  1  0
  5  4  2  0
  6  5  1  0
  6  7  1  0
  7  8  2  0
  8  4  1  0
  9 10  2  0
 12 11  1  1
 13  9  1  0
 13 12  1  0
 14 15  2  0
 14 12  1  0
 16 17  1  0
 17 27  2  0
 17 18  1  0
 18 19  2  0
 19 20  1  0
 20 21  1  0
 22 21  1  6
 22 23  1  0
 23 14  1  0
 24 22  1  0
 24 28  1  0
 25 24  2  0
 26 20  2  0
 27 26  1  0
M  END
$$$$
