HAY.pdb
     RDKit          3D

 28 29  0  0  1  0  0  0  0  0999 V2000
    9.0196  -14.3608   20.3053 N   0  0  0  0  0  0  0  0  0  0  0  0
    7.8523  -15.0394   20.7897 C   0  0  1  0  0  0  0  0  0  0  0  0
    6.9852  -15.3600   19.5728 C   0  0  0  0  0  0  0  0  0  0  0  0
    7.4307  -14.4823   18.4591 C   0  0  0  0  0  0  0  0  0  0  0  0
    7.7896  -13.1341   18.5666 C   0  0  0  0  0  0  0  0  0  0  0  0
    8.1329  -12.6876   17.3478 N   0  0  0  0  0  0  0  0  0  0  0  0
    8.0061  -13.6886   16.4880 C   0  0  0  0  0  0  0  0  0  0  0  0
    7.5788  -14.7871   17.1539 N   0  0  0  0  0  0  0  0  0  0  0  0
    8.1758  -16.3284   21.4503 C   0  0  0  0  0  0  0  0  0  0  0  0
    7.2512  -17.1083   21.7941 O   0  0  0  0  0  0  0  0  0  0  0  0
   11.2320  -18.4523   22.1013 C   0  0  0  0  0  0  0  0  0  0  0  0
    9.8475  -17.9456   22.4351 C   0  0  2  0  0  0  0  0  0  0  0  0
    9.5067  -16.7469   21.7259 N   0  0  0  0  0  0  0  0  0  0  0  0
    9.6574  -17.7695   23.9013 C   0  0  0  0  0  0  0  0  0  0  0  0
    9.7450  -18.7559   24.6993 O   0  0  0  0  0  0  0  0  0  0  0  0
    6.7347  -10.4675   26.8827 O   0  0  0  0  0  0  0  0  0  0  0  0
    6.9365  -11.8116   26.6670 C   0  0  0  0  0  0  0  0  0  0  0  0
    7.9005  -12.2052   25.7801 C   0  0  0  0  0  0  0  0  0  0  0  0
    8.1065  -13.5564   25.5604 C   0  0  0  0  0  0  0  0  0  0  0  0
    7.3539  -14.4897   26.2234 C   0  0  0  0  0  0  0  0  0  0  0  0
    7.5765  -15.9205   25.9868 C   0  0  0  0  0  0  0  0  0  0  0  0
    9.0191  -16.3002   25.8501 C   0  0  2  0  0  0  0  0  0  0  0  0
    9.3743  -16.5105   24.4612 N   0  0  0  0  0  0  0  0  0  0  0  0
    9.3856  -17.4666   26.6923 C   0  0  0  0  0  0  0  0  0  0  0  0
    9.1085  -18.6249   26.2916 O   0  0  0  0  0  0  0  0  0  0  0  0
    6.3964  -14.0701   27.1052 C   0  0  0  0  0  0  0  0  0  0  0  0
    6.1704  -12.7368   27.3426 C   0  0  0  0  0  0  0  0  0  0  0  0
   10.0246  -17.3442   27.9109 O   0  0  0  0  0  0  0  0  0  0  0  0
  2  1  1  6
  2  9  1  0
  3  2  1  0
  4  3  1  0
  5  4  2  0
  6  5  1  0
  6  7  1  0
  7  8  2  0
  8  4  1  0
  9 10  2  0
 12 11  1  1
 13  9  1  0
 13 12  1  0
 14 15  2  0
 14 12  1  0
 16 17  1  0
 17 27  2  0
 17 18  1  0
 18 19  2  0
 19 20  1  0
 20 21  1  0
 22 21  1  6
 22 23  1  0
 23 14  1  0
 24 22  1  0
 24 28  1  0
 25 24  2  0
 26 20  2  0
 27 26  1  0
M  END
$$$$
