HAY.pdb
     RDKit          3D

 28 29  0  0  1  0  0  0  0  0999 V2000
    6.8076  -16.4002   20.9079 N   0  0  0  0  0  0  0  0  0  0  0  0
    8.0156  -15.9446   21.5330 C   0  0  1  0  0  0  0  0  0  0  0  0
    7.8488  -14.4471   21.7884 C   0  0  0  0  0  0  0  0  0  0  0  0
    7.9503  -13.7532   20.4779 C   0  0  0  0  0  0  0  0  0  0  0  0
    8.1764  -14.3629   19.2389 C   0  0  0  0  0  0  0  0  0  0  0  0
    8.2029  -13.4088   18.2947 N   0  0  0  0  0  0  0  0  0  0  0  0
    8.0049  -12.2373   18.8825 C   0  0  0  0  0  0  0  0  0  0  0  0
    7.8498  -12.4349   20.2128 N   0  0  0  0  0  0  0  0  0  0  0  0
    8.2553  -16.5903   22.8476 C   0  0  0  0  0  0  0  0  0  0  0  0
    7.3401  -16.6208   23.7094 O   0  0  0  0  0  0  0  0  0  0  0  0
   10.6940  -18.9987   24.3537 C   0  0  0  0  0  0  0  0  0  0  0  0
    9.7572  -17.8177   24.4655 C   0  0  2  0  0  0  0  0  0  0  0  0
    9.4933  -17.1940   23.2016 N   0  0  0  0  0  0  0  0  0  0  0  0
   10.2348  -16.8203   25.4625 C   0  0  0  0  0  0  0  0  0  0  0  0
   11.1089  -15.9492   25.1549 O   0  0  0  0  0  0  0  0  0  0  0  0
    6.5475  -11.6385   24.8674 O   0  0  0  0  0  0  0  0  0  0  0  0
    7.1790  -12.4941   25.7409 C   0  0  0  0  0  0  0  0  0  0  0  0
    6.4716  -13.5313   26.2837 C   0  0  0  0  0  0  0  0  0  0  0  0
    7.1034  -14.3941   27.1629 C   0  0  0  0  0  0  0  0  0  0  0  0
    8.4222  -14.2122   27.4862 C   0  0  0  0  0  0  0  0  0  0  0  0
    9.0868  -15.1297   28.4184 C   0  0  0  0  0  0  0  0  0  0  0  0
   10.2172  -15.9037   27.8127 C   0  0  2  0  0  0  0  0  0  0  0  0
    9.7410  -16.8010   26.7795 N   0  0  0  0  0  0  0  0  0  0  0  0
   11.0293  -16.6194   28.8287 C   0  0  0  0  0  0  0  0  0  0  0  0
   11.0690  -17.8752   28.8098 O   0  0  0  0  0  0  0  0  0  0  0  0
    9.1073  -13.1674   26.9297 C   0  0  0  0  0  0  0  0  0  0  0  0
    8.5062  -12.2962   26.0550 C   0  0  0  0  0  0  0  0  0  0  0  0
   11.7542  -15.9684   29.8081 O   0  0  0  0  0  0  0  0  0  0  0  0
  2  1  1  1
  2  9  1  0
  3  2  1  0
  4  3  1  0
  5  4  2  0
  6  5  1  0
  6  7  1  0
  7  8  2  0
  8  4  1  0
  9 10  2  0
 12 11  1  6
 13  9  1  0
 13 12  1  0
 14 15  2  0
 14 12  1  0
 16 17  1  0
 17 27  2  0
 17 18  1  0
 18 19  2  0
 19 20  1  0
 20 21  1  0
 22 21  1  1
 22 23  1  0
 23 14  1  0
 24 22  1  0
 24 28  1  0
 25 24  2  0
 26 20  2  0
 27 26  1  0
M  END
$$$$
