HAY.pdb
     RDKit          3D

 28 29  0  0  1  0  0  0  0  0999 V2000
    5.4151  -16.2196   20.9179 N   0  0  0  0  0  0  0  0  0  0  0  0
    6.7133  -16.2876   21.5241 C   0  0  1  0  0  0  0  0  0  0  0  0
    7.1198  -14.8557   21.8704 C   0  0  0  0  0  0  0  0  0  0  0  0
    7.6346  -14.2214   20.6287 C   0  0  0  0  0  0  0  0  0  0  0  0
    7.6826  -14.8125   19.3613 C   0  0  0  0  0  0  0  0  0  0  0  0
    8.2109  -13.9283   18.5001 N   0  0  0  0  0  0  0  0  0  0  0  0
    8.4939  -12.8179   19.1665 C   0  0  0  0  0  0  0  0  0  0  0  0
    8.1470  -12.9850   20.4644 N   0  0  0  0  0  0  0  0  0  0  0  0
    6.7109  -17.0618   22.7903 C   0  0  0  0  0  0  0  0  0  0  0  0
    5.7313  -16.9815   23.5747 O   0  0  0  0  0  0  0  0  0  0  0  0
    8.1545  -20.1796   24.0479 C   0  0  0  0  0  0  0  0  0  0  0  0
    7.7646  -18.7499   24.3459 C   0  0  2  0  0  0  0  0  0  0  0  0
    7.7805  -17.9136   23.1813 N   0  0  0  0  0  0  0  0  0  0  0  0
    8.5922  -18.1623   25.4352 C   0  0  0  0  0  0  0  0  0  0  0  0
    8.9715  -18.8647   26.4252 O   0  0  0  0  0  0  0  0  0  0  0  0
    5.2381  -12.2649   27.4637 O   0  0  0  0  0  0  0  0  0  0  0  0
    6.4226  -12.8840   27.1358 C   0  0  0  0  0  0  0  0  0  0  0  0
    7.5685  -12.5123   27.7835 C   0  0  0  0  0  0  0  0  0  0  0  0
    8.7620  -13.1328   27.4564 C   0  0  0  0  0  0  0  0  0  0  0  0
    8.7962  -14.1082   26.4950 C   0  0  0  0  0  0  0  0  0  0  0  0
   10.0639  -14.7625   26.1524 C   0  0  0  0  0  0  0  0  0  0  0  0
   10.0278  -16.2565   26.2545 C   0  0  2  0  0  0  0  0  0  0  0  0
    8.9867  -16.8123   25.4137 N   0  0  0  0  0  0  0  0  0  0  0  0
    9.9120  -16.7312   27.6563 C   0  0  0  0  0  0  0  0  0  0  0  0
   10.7630  -16.3598   28.5030 O   0  0  0  0  0  0  0  0  0  0  0  0
    7.6364  -14.4616   25.8621 C   0  0  0  0  0  0  0  0  0  0  0  0
    6.4386  -13.8632   26.1662 C   0  0  0  0  0  0  0  0  0  0  0  0
    8.9034  -17.5719   28.0856 O   0  0  0  0  0  0  0  0  0  0  0  0
  2  1  1  1
  2  9  1  0
  3  2  1  0
  4  3  1  0
  5  4  2  0
  6  5  1  0
  6  7  1  0
  7  8  2  0
  8  4  1  0
  9 10  2  0
 12 11  1  6
 13  9  1  0
 13 12  1  0
 14 15  2  0
 14 12  1  0
 16 17  1  0
 17 27  2  0
 17 18  1  0
 18 19  2  0
 19 20  1  0
 20 21  1  0
 22 21  1  1
 22 23  1  0
 23 14  1  0
 24 22  1  0
 24 28  1  0
 25 24  2  0
 26 20  2  0
 27 26  1  0
M  END
$$$$
