HAY.pdb
     RDKit          3D

 28 29  0  0  1  0  0  0  0  0999 V2000
    9.8134  -17.2733   15.0422 N   0  0  0  0  0  0  0  0  0  0  0  0
   10.7189  -17.4760   16.1362 C   0  0  1  0  0  0  0  0  0  0  0  0
   11.6602  -16.2724   16.1654 C   0  0  0  0  0  0  0  0  0  0  0  0
   12.8206  -16.5875   15.2918 C   0  0  0  0  0  0  0  0  0  0  0  0
   14.0514  -17.1037   15.7123 C   0  0  0  0  0  0  0  0  0  0  0  0
   14.8396  -17.2525   14.6356 N   0  0  0  0  0  0  0  0  0  0  0  0
   14.1625  -16.8555   13.5673 C   0  0  0  0  0  0  0  0  0  0  0  0
   12.9311  -16.4482   13.9551 N   0  0  0  0  0  0  0  0  0  0  0  0
   10.0260  -17.5236   17.4478 C   0  0  0  0  0  0  0  0  0  0  0  0
    9.1789  -16.6425   17.7439 O   0  0  0  0  0  0  0  0  0  0  0  0
    9.7175  -19.9295   20.3610 C   0  0  0  0  0  0  0  0  0  0  0  0
    9.6834  -18.5580   19.7265 C   0  0  2  0  0  0  0  0  0  0  0  0
   10.2692  -18.5345   18.4179 N   0  0  0  0  0  0  0  0  0  0  0  0
   10.2970  -17.5231   20.6036 C   0  0  0  0  0  0  0  0  0  0  0  0
   11.5131  -17.1786   20.4633 O   0  0  0  0  0  0  0  0  0  0  0  0
    8.2005  -12.3312   17.6892 O   0  0  0  0  0  0  0  0  0  0  0  0
    8.4575  -12.9155   18.9084 C   0  0  0  0  0  0  0  0  0  0  0  0
    9.7485  -12.9803   19.3555 C   0  0  0  0  0  0  0  0  0  0  0  0
   10.0111  -13.5674   20.5815 C   0  0  0  0  0  0  0  0  0  0  0  0
    8.9902  -14.0779   21.3391 C   0  0  0  0  0  0  0  0  0  0  0  0
    9.2742  -14.6989   22.6377 C   0  0  0  0  0  0  0  0  0  0  0  0
   10.1203  -15.9321   22.5534 C   0  0  2  0  0  0  0  0  0  0  0  0
    9.5598  -16.8870   21.6188 N   0  0  0  0  0  0  0  0  0  0  0  0
   10.3694  -16.5466   23.8817 C   0  0  0  0  0  0  0  0  0  0  0  0
   11.0574  -15.9226   24.7280 O   0  0  0  0  0  0  0  0  0  0  0  0
    7.7080  -14.0005   20.8694 C   0  0  0  0  0  0  0  0  0  0  0  0
    7.4185  -13.4239   19.6574 C   0  0  0  0  0  0  0  0  0  0  0  0
    9.8775  -17.7863   24.2418 O   0  0  0  0  0  0  0  0  0  0  0  0
  2  1  1  6
  2  9  1  0
  3  2  1  0
  4  3  1  0
  5  4  2  0
  6  5  1  0
  6  7  1  0
  7  8  2  0
  8  4  1  0
  9 10  2  0
 12 11  1  1
 13  9  1  0
 13 12  1  0
 14 15  2  0
 14 12  1  0
 16 17  1  0
 17 27  2  0
 17 18  1  0
 18 19  2  0
 19 20  1  0
 20 21  1  0
 22 21  1  1
 22 23  1  0
 23 14  1  0
 24 22  1  0
 24 28  1  0
 25 24  2  0
 26 20  2  0
 27 26  1  0
M  END
$$$$
