HAY.pdb
     RDKit          3D

 28 29  0  0  1  0  0  0  0  0999 V2000
    7.2319  -17.1344   18.7195 N   0  0  0  0  0  0  0  0  0  0  0  0
    8.5281  -16.7260   19.1783 C   0  0  1  0  0  0  0  0  0  0  0  0
    8.5251  -15.1984   19.2229 C   0  0  0  0  0  0  0  0  0  0  0  0
    8.3767  -14.7080   17.8276 C   0  0  0  0  0  0  0  0  0  0  0  0
    8.3515  -15.5006   16.6748 C   0  0  0  0  0  0  0  0  0  0  0  0
    8.2034  -14.6965   15.6098 N   0  0  0  0  0  0  0  0  0  0  0  0
    8.1352  -13.4448   16.0409 C   0  0  0  0  0  0  0  0  0  0  0  0
    8.2397  -13.4397   17.3906 N   0  0  0  0  0  0  0  0  0  0  0  0
    8.8232  -17.2048   20.5518 C   0  0  0  0  0  0  0  0  0  0  0  0
    7.9065  -17.2534   21.4113 O   0  0  0  0  0  0  0  0  0  0  0  0
   11.6741  -18.9506   22.3237 C   0  0  0  0  0  0  0  0  0  0  0  0
   10.4334  -18.0879   22.2858 C   0  0  2  0  0  0  0  0  0  0  0  0
   10.1172  -17.6240   20.9664 N   0  0  0  0  0  0  0  0  0  0  0  0
   10.5155  -16.9519   23.2447 C   0  0  0  0  0  0  0  0  0  0  0  0
   10.9745  -15.8210   22.8873 O   0  0  0  0  0  0  0  0  0  0  0  0
    5.9494  -11.1756   27.4302 O   0  0  0  0  0  0  0  0  0  0  0  0
    6.5753  -12.1822   26.7309 C   0  0  0  0  0  0  0  0  0  0  0  0
    5.8135  -13.1369   26.1152 C   0  0  0  0  0  0  0  0  0  0  0  0
    6.4395  -14.1512   25.4108 C   0  0  0  0  0  0  0  0  0  0  0  0
    7.8063  -14.1990   25.3307 C   0  0  0  0  0  0  0  0  0  0  0  0
    8.4644  -15.2762   24.5829 C   0  0  0  0  0  0  0  0  0  0  0  0
    9.5188  -16.0036   25.3593 C   0  0  2  0  0  0  0  0  0  0  0  0
   10.0905  -17.0826   24.5793 N   0  0  0  0  0  0  0  0  0  0  0  0
    9.0315  -16.4793   26.6785 C   0  0  0  0  0  0  0  0  0  0  0  0
    9.3736  -15.8627   27.7186 O   0  0  0  0  0  0  0  0  0  0  0  0
    8.5452  -13.2323   25.9553 C   0  0  0  0  0  0  0  0  0  0  0  0
    7.9512  -12.2150   26.6607 C   0  0  0  0  0  0  0  0  0  0  0  0
    8.2100  -17.5802   26.8253 O   0  0  0  0  0  0  0  0  0  0  0  0
  2  1  1  1
  2  9  1  0
  3  2  1  0
  4  3  1  0
  5  4  2  0
  6  5  1  0
  6  7  1  0
  7  8  2  0
  8  4  1  0
  9 10  2  0
 12 11  1  6
 13  9  1  0
 13 12  1  0
 14 15  2  0
 14 12  1  0
 16 17  1  0
 17 27  2  0
 17 18  1  0
 18 19  2  0
 19 20  1  0
 20 21  1  0
 22 21  1  6
 22 23  1  0
 23 14  1  0
 24 22  1  0
 24 28  1  0
 25 24  2  0
 26 20  2  0
 27 26  1  0
M  END
$$$$
