HAY.pdb
     RDKit          3D

 28 29  0  0  1  0  0  0  0  0999 V2000
    8.2713  -16.6703   20.0046 N   0  0  0  0  0  0  0  0  0  0  0  0
    8.7285  -15.8513   21.0899 C   0  0  1  0  0  0  0  0  0  0  0  0
    7.6769  -14.7629   21.3016 C   0  0  0  0  0  0  0  0  0  0  0  0
    7.6753  -13.8978   20.0930 C   0  0  0  0  0  0  0  0  0  0  0  0
    8.2408  -12.6217   19.9933 C   0  0  0  0  0  0  0  0  0  0  0  0
    8.0362  -12.1627   18.7482 N   0  0  0  0  0  0  0  0  0  0  0  0
    7.3727  -13.0874   18.0686 C   0  0  0  0  0  0  0  0  0  0  0  0
    7.1473  -14.1490   18.8779 N   0  0  0  0  0  0  0  0  0  0  0  0
    8.8430  -16.6050   22.3633 C   0  0  0  0  0  0  0  0  0  0  0  0
    7.8778  -17.3000   22.7717 O   0  0  0  0  0  0  0  0  0  0  0  0
   11.1176  -18.5317   24.1857 C   0  0  0  0  0  0  0  0  0  0  0  0
   10.1792  -17.3610   24.3690 C   0  0  2  0  0  0  0  0  0  0  0  0
   10.0120  -16.5881   23.1729 N   0  0  0  0  0  0  0  0  0  0  0  0
   10.5849  -16.4954   25.5104 C   0  0  0  0  0  0  0  0  0  0  0  0
   11.4615  -15.5852   25.3668 O   0  0  0  0  0  0  0  0  0  0  0  0
    6.5684  -11.7401   24.9290 O   0  0  0  0  0  0  0  0  0  0  0  0
    7.2030  -12.5865   25.8092 C   0  0  0  0  0  0  0  0  0  0  0  0
    8.3485  -12.1658   26.4271 C   0  0  0  0  0  0  0  0  0  0  0  0
    8.9899  -13.0144   27.3132 C   0  0  0  0  0  0  0  0  0  0  0  0
    8.4838  -14.2616   27.5690 C   0  0  0  0  0  0  0  0  0  0  0  0
    9.1677  -15.1567   28.5090 C   0  0  0  0  0  0  0  0  0  0  0  0
   10.3723  -15.8390   27.9370 C   0  0  2  0  0  0  0  0  0  0  0  0
   10.0178  -16.6483   26.7886 N   0  0  0  0  0  0  0  0  0  0  0  0
   11.1203  -16.6240   28.9510 C   0  0  0  0  0  0  0  0  0  0  0  0
   11.1289  -17.8782   28.8730 O   0  0  0  0  0  0  0  0  0  0  0  0
    7.3370  -14.6582   26.9381 C   0  0  0  0  0  0  0  0  0  0  0  0
    6.6801  -13.8376   26.0548 C   0  0  0  0  0  0  0  0  0  0  0  0
   11.8175  -16.0402   29.9909 O   0  0  0  0  0  0  0  0  0  0  0  0
  2  1  1  6
  2  9  1  0
  3  2  1  0
  4  3  1  0
  5  4  2  0
  6  5  1  0
  6  7  1  0
  7  8  2  0
  8  4  1  0
  9 10  2  0
 12 11  1  6
 13  9  1  0
 13 12  1  0
 14 15  2  0
 14 12  1  0
 16 17  1  0
 17 27  2  0
 17 18  1  0
 18 19  2  0
 19 20  1  0
 20 21  1  0
 22 21  1  1
 22 23  1  0
 23 14  1  0
 24 22  1  0
 24 28  1  0
 25 24  2  0
 26 20  2  0
 27 26  1  0
M  END
$$$$
