HAY.pdb
     RDKit          3D

 28 29  0  0  1  0  0  0  0  0999 V2000
    7.9802  -17.0509   16.1499 N   0  0  0  0  0  0  0  0  0  0  0  0
    8.2054  -16.2047   17.2861 C   0  0  1  0  0  0  0  0  0  0  0  0
    7.0779  -15.1733   17.3051 C   0  0  0  0  0  0  0  0  0  0  0  0
    7.3271  -14.2139   16.1976 C   0  0  0  0  0  0  0  0  0  0  0  0
    8.0666  -13.0292   16.2855 C   0  0  0  0  0  0  0  0  0  0  0  0
    8.0654  -12.4375   15.0803 N   0  0  0  0  0  0  0  0  0  0  0  0
    7.3633  -13.1930   14.2475 C   0  0  0  0  0  0  0  0  0  0  0  0
    6.9086  -14.2780   14.9173 N   0  0  0  0  0  0  0  0  0  0  0  0
    8.1437  -16.9465   18.5700 C   0  0  0  0  0  0  0  0  0  0  0  0
    7.1345  -17.6447   18.8450 O   0  0  0  0  0  0  0  0  0  0  0  0
    9.7674  -19.0359   20.6262 C   0  0  0  0  0  0  0  0  0  0  0  0
    9.1743  -17.6525   20.7653 C   0  0  2  0  0  0  0  0  0  0  0  0
    9.1869  -16.9146   19.5359 N   0  0  0  0  0  0  0  0  0  0  0  0
    9.8210  -16.8767   21.8591 C   0  0  0  0  0  0  0  0  0  0  0  0
   10.8349  -16.1426   21.6346 O   0  0  0  0  0  0  0  0  0  0  0  0
   11.2900  -13.9787   30.0788 O   0  0  0  0  0  0  0  0  0  0  0  0
   10.7245  -14.4985   28.9369 C   0  0  0  0  0  0  0  0  0  0  0  0
   10.8672  -15.8328   28.6724 C   0  0  0  0  0  0  0  0  0  0  0  0
   10.2998  -16.3594   27.5247 C   0  0  0  0  0  0  0  0  0  0  0  0
    9.6029  -15.5540   26.6629 C   0  0  0  0  0  0  0  0  0  0  0  0
    9.0036  -16.1174   25.4480 C   0  0  0  0  0  0  0  0  0  0  0  0
    9.9517  -16.2285   24.2937 C   0  0  2  0  0  0  0  0  0  0  0  0
    9.3390  -16.9238   23.1798 N   0  0  0  0  0  0  0  0  0  0  0  0
   11.2486  -16.8417   24.6759 C   0  0  0  0  0  0  0  0  0  0  0  0
   11.3193  -18.0875   24.8238 O   0  0  0  0  0  0  0  0  0  0  0  0
    9.4746  -14.2230   26.9503 C   0  0  0  0  0  0  0  0  0  0  0  0
   10.0269  -13.6738   28.0811 C   0  0  0  0  0  0  0  0  0  0  0  0
   12.3988  -16.1043   24.8806 O   0  0  0  0  0  0  0  0  0  0  0  0
  2  1  1  6
  2  9  1  0
  3  2  1  0
  4  3  1  0
  5  4  2  0
  6  5  1  0
  6  7  1  0
  7  8  2  0
  8  4  1  0
  9 10  2  0
 12 11  1  6
 13  9  1  0
 13 12  1  0
 14 15  2  0
 14 12  1  0
 16 17  1  0
 17 27  2  0
 17 18  1  0
 18 19  2  0
 19 20  1  0
 20 21  1  0
 22 21  1  1
 22 23  1  0
 23 14  1  0
 24 22  1  0
 24 28  1  0
 25 24  2  0
 26 20  2  0
 27 26  1  0
M  END
$$$$
