HAY.pdb
     RDKit          3D

 28 29  0  0  1  0  0  0  0  0999 V2000
    6.4481  -19.6753   20.0800 N   0  0  0  0  0  0  0  0  0  0  0  0
    6.5520  -18.5852   21.0066 C   0  0  1  0  0  0  0  0  0  0  0  0
    7.2717  -19.1188   22.2447 C   0  0  0  0  0  0  0  0  0  0  0  0
    6.3369  -20.0355   22.9483 C   0  0  0  0  0  0  0  0  0  0  0  0
    4.9522  -20.1038   22.7586 C   0  0  0  0  0  0  0  0  0  0  0  0
    4.4584  -21.0508   23.5723 N   0  0  0  0  0  0  0  0  0  0  0  0
    5.4645  -21.5748   24.2581 C   0  0  0  0  0  0  0  0  0  0  0  0
    6.6139  -20.9639   23.8862 N   0  0  0  0  0  0  0  0  0  0  0  0
    7.3644  -17.4622   20.4762 C   0  0  0  0  0  0  0  0  0  0  0  0
    8.3962  -17.6982   19.7971 O   0  0  0  0  0  0  0  0  0  0  0  0
    7.0355  -13.6982   20.1695 C   0  0  0  0  0  0  0  0  0  0  0  0
    7.8180  -14.9904   20.2222 C   0  0  2  0  0  0  0  0  0  0  0  0
    7.0372  -16.0958   20.6960 N   0  0  0  0  0  0  0  0  0  0  0  0
    9.0740  -14.8493   21.0091 C   0  0  0  0  0  0  0  0  0  0  0  0
   10.0292  -14.1171   20.5980 O   0  0  0  0  0  0  0  0  0  0  0  0
    5.1437  -14.4953   26.2748 O   0  0  0  0  0  0  0  0  0  0  0  0
    6.4234  -14.5308   25.7698 C   0  0  0  0  0  0  0  0  0  0  0  0
    7.1653  -15.6702   25.9183 C   0  0  0  0  0  0  0  0  0  0  0  0
    8.4531  -15.7097   25.4116 C   0  0  0  0  0  0  0  0  0  0  0  0
    8.9793  -14.6204   24.7686 C   0  0  0  0  0  0  0  0  0  0  0  0
   10.3446  -14.6679   24.2335 C   0  0  0  0  0  0  0  0  0  0  0  0
   10.4874  -15.4987   22.9953 C   0  0  2  0  0  0  0  0  0  0  0  0
    9.2547  -15.5170   22.2339 N   0  0  0  0  0  0  0  0  0  0  0  0
   10.9758  -16.8712   23.2807 C   0  0  0  0  0  0  0  0  0  0  0  0
   12.0900  -17.0225   23.8417 O   0  0  0  0  0  0  0  0  0  0  0  0
    8.2167  -13.4932   24.6332 C   0  0  0  0  0  0  0  0  0  0  0  0
    6.9369  -13.4259   25.1257 C   0  0  0  0  0  0  0  0  0  0  0  0
   10.2597  -18.0075   22.9576 O   0  0  0  0  0  0  0  0  0  0  0  0
  2  1  1  6
  2  9  1  0
  3  2  1  0
  4  3  1  0
  5  4  2  0
  6  5  1  0
  6  7  1  0
  7  8  2  0
  8  4  1  0
  9 10  2  0
 12 11  1  1
 13  9  1  0
 13 12  1  0
 14 15  2  0
 14 12  1  0
 16 17  1  0
 17 27  2  0
 17 18  1  0
 18 19  2  0
 19 20  1  0
 20 21  1  0
 22 21  1  1
 22 23  1  0
 23 14  1  0
 24 22  1  0
 24 28  1  0
 25 24  2  0
 26 20  2  0
 27 26  1  0
M  END
$$$$
