HAY.pdb
     RDKit          3D

 28 29  0  0  1  0  0  0  0  0999 V2000
    6.3147  -15.5837   21.5575 N   0  0  0  0  0  0  0  0  0  0  0  0
    7.6482  -16.1119   21.5772 C   0  0  1  0  0  0  0  0  0  0  0  0
    8.6008  -14.9176   21.6189 C   0  0  0  0  0  0  0  0  0  0  0  0
    8.4967  -14.2134   20.3142 C   0  0  0  0  0  0  0  0  0  0  0  0
    7.6710  -14.5786   19.2452 C   0  0  0  0  0  0  0  0  0  0  0  0
    7.8569  -13.7012   18.2460 N   0  0  0  0  0  0  0  0  0  0  0  0
    8.7555  -12.8093   18.6385 C   0  0  0  0  0  0  0  0  0  0  0  0
    9.1524  -13.1114   19.8971 N   0  0  0  0  0  0  0  0  0  0  0  0
    7.9184  -16.9316   22.7846 C   0  0  0  0  0  0  0  0  0  0  0  0
    7.1066  -16.9232   23.7450 O   0  0  0  0  0  0  0  0  0  0  0  0
   10.1848  -19.8262   23.6159 C   0  0  0  0  0  0  0  0  0  0  0  0
    9.2834  -18.6751   23.9997 C   0  0  2  0  0  0  0  0  0  0  0  0
    9.0733  -17.7494   22.9251 N   0  0  0  0  0  0  0  0  0  0  0  0
    9.7658  -17.9733   25.2209 C   0  0  0  0  0  0  0  0  0  0  0  0
   10.0230  -18.6133   26.2894 O   0  0  0  0  0  0  0  0  0  0  0  0
    5.1413  -12.6783   27.0002 O   0  0  0  0  0  0  0  0  0  0  0  0
    6.4384  -13.0955   26.8065 C   0  0  0  0  0  0  0  0  0  0  0  0
    6.7583  -13.7580   25.6535 C   0  0  0  0  0  0  0  0  0  0  0  0
    8.0620  -14.1793   25.4549 C   0  0  0  0  0  0  0  0  0  0  0  0
    9.0216  -13.9359   26.4019 C   0  0  0  0  0  0  0  0  0  0  0  0
   10.4018  -14.3846   26.1863 C   0  0  0  0  0  0  0  0  0  0  0  0
   10.5931  -15.8633   26.3292 C   0  0  2  0  0  0  0  0  0  0  0  0
    9.9560  -16.5797   25.2427 N   0  0  0  0  0  0  0  0  0  0  0  0
   10.1533  -16.3715   27.6530 C   0  0  0  0  0  0  0  0  0  0  0  0
    9.1041  -17.0587   27.7296 O   0  0  0  0  0  0  0  0  0  0  0  0
    8.6758  -13.2714   27.5463 C   0  0  0  0  0  0  0  0  0  0  0  0
    7.3909  -12.8422   27.7696 C   0  0  0  0  0  0  0  0  0  0  0  0
   10.8467  -16.1253   28.8222 O   0  0  0  0  0  0  0  0  0  0  0  0
  2  1  1  1
  2  9  1  0
  3  2  1  0
  4  3  1  0
  5  4  2  0
  6  5  1  0
  6  7  1  0
  7  8  2  0
  8  4  1  0
  9 10  2  0
 12 11  1  6
 13  9  1  0
 13 12  1  0
 14 15  2  0
 14 12  1  0
 16 17  1  0
 17 27  2  0
 17 18  1  0
 18 19  2  0
 19 20  1  0
 20 21  1  0
 22 21  1  1
 22 23  1  0
 23 14  1  0
 24 22  1  0
 24 28  1  0
 25 24  2  0
 26 20  2  0
 27 26  1  0
M  END
$$$$
