HAY.pdb
     RDKit          3D

 28 29  0  0  1  0  0  0  0  0999 V2000
    8.7624  -18.2250   18.5343 N   0  0  0  0  0  0  0  0  0  0  0  0
    8.0800  -17.8543   19.7404 C   0  0  1  0  0  0  0  0  0  0  0  0
    8.2819  -18.9956   20.7364 C   0  0  0  0  0  0  0  0  0  0  0  0
    7.4635  -20.1467   20.2735 C   0  0  0  0  0  0  0  0  0  0  0  0
    6.0661  -20.2197   20.2823 C   0  0  0  0  0  0  0  0  0  0  0  0
    5.7002  -21.4135   19.7886 N   0  0  0  0  0  0  0  0  0  0  0  0
    6.7978  -22.0866   19.4733 C   0  0  0  0  0  0  0  0  0  0  0  0
    7.8782  -21.3245   19.7645 N   0  0  0  0  0  0  0  0  0  0  0  0
    8.6415  -16.6274   20.3585 C   0  0  0  0  0  0  0  0  0  0  0  0
    9.8873  -16.4848   20.4535 O   0  0  0  0  0  0  0  0  0  0  0  0
    7.2549  -13.4364   21.9259 C   0  0  0  0  0  0  0  0  0  0  0  0
    8.3447  -14.3882   21.4887 C   0  0  2  0  0  0  0  0  0  0  0  0
    7.8325  -15.5730   20.8644 N   0  0  0  0  0  0  0  0  0  0  0  0
    9.2665  -14.7308   22.6065 C   0  0  0  0  0  0  0  0  0  0  0  0
   10.4256  -14.2134   22.6857 O   0  0  0  0  0  0  0  0  0  0  0  0
    4.9266  -12.3164   26.5698 O   0  0  0  0  0  0  0  0  0  0  0  0
    6.1297  -12.9530   26.3672 C   0  0  0  0  0  0  0  0  0  0  0  0
    6.2385  -14.2817   26.6728 C   0  0  0  0  0  0  0  0  0  0  0  0
    7.4472  -14.9257   26.4704 C   0  0  0  0  0  0  0  0  0  0  0  0
    8.5228  -14.2407   25.9696 C   0  0  0  0  0  0  0  0  0  0  0  0
    9.8014  -14.9282   25.7571 C   0  0  0  0  0  0  0  0  0  0  0  0
    9.7481  -16.0128   24.7252 C   0  0  2  0  0  0  0  0  0  0  0  0
    8.8946  -15.6368   23.6163 N   0  0  0  0  0  0  0  0  0  0  0  0
    9.3582  -17.3265   25.2961 C   0  0  0  0  0  0  0  0  0  0  0  0
    8.3222  -17.8975   24.8720 O   0  0  0  0  0  0  0  0  0  0  0  0
    8.3880  -12.9127   25.6720 C   0  0  0  0  0  0  0  0  0  0  0  0
    7.2014  -12.2486   25.8626 C   0  0  0  0  0  0  0  0  0  0  0  0
   10.0845  -17.9639   26.2833 O   0  0  0  0  0  0  0  0  0  0  0  0
  2  1  1  6
  2  9  1  0
  3  2  1  0
  4  3  1  0
  5  4  2  0
  6  5  1  0
  6  7  1  0
  7  8  2  0
  8  4  1  0
  9 10  2  0
 12 11  1  1
 13  9  1  0
 13 12  1  0
 14 15  2  0
 14 12  1  0
 16 17  1  0
 17 27  2  0
 17 18  1  0
 18 19  2  0
 19 20  1  0
 20 21  1  0
 22 21  1  1
 22 23  1  0
 23 14  1  0
 24 22  1  0
 24 28  1  0
 25 24  2  0
 26 20  2  0
 27 26  1  0
M  END
$$$$
