HAY.pdb
     RDKit          3D

 28 29  0  0  1  0  0  0  0  0999 V2000
    7.5729  -16.6766   20.3601 N   0  0  0  0  0  0  0  0  0  0  0  0
    8.4960  -15.9259   21.1614 C   0  0  1  0  0  0  0  0  0  0  0  0
    7.8253  -14.5907   21.4823 C   0  0  0  0  0  0  0  0  0  0  0  0
    7.7910  -13.7919   20.2294 C   0  0  0  0  0  0  0  0  0  0  0  0
    8.3817  -12.5382   20.0360 C   0  0  0  0  0  0  0  0  0  0  0  0
    8.1334  -12.1414   18.7775 N   0  0  0  0  0  0  0  0  0  0  0  0
    7.4189  -13.0837   18.1784 C   0  0  0  0  0  0  0  0  0  0  0  0
    7.2043  -14.0941   19.0535 N   0  0  0  0  0  0  0  0  0  0  0  0
    8.7971  -16.5883   22.4549 C   0  0  0  0  0  0  0  0  0  0  0  0
    7.8738  -17.1331   23.1124 O   0  0  0  0  0  0  0  0  0  0  0  0
   11.8463  -17.9647   24.1305 C   0  0  0  0  0  0  0  0  0  0  0  0
   10.4504  -17.3876   24.1891 C   0  0  2  0  0  0  0  0  0  0  0  0
   10.1043  -16.6456   23.0119 N   0  0  0  0  0  0  0  0  0  0  0  0
   10.2362  -16.5713   25.4156 C   0  0  0  0  0  0  0  0  0  0  0  0
    9.7854  -15.3842   25.3455 O   0  0  0  0  0  0  0  0  0  0  0  0
    6.8745  -11.6307   25.4428 O   0  0  0  0  0  0  0  0  0  0  0  0
    7.3704  -12.7231   26.1170 C   0  0  0  0  0  0  0  0  0  0  0  0
    8.4017  -12.5485   26.9983 C   0  0  0  0  0  0  0  0  0  0  0  0
    8.9033  -13.6450   27.6785 C   0  0  0  0  0  0  0  0  0  0  0  0
    8.3734  -14.8914   27.4720 C   0  0  0  0  0  0  0  0  0  0  0  0
    8.9088  -16.0499   28.1956 C   0  0  0  0  0  0  0  0  0  0  0  0
   10.3559  -16.3251   27.9235 C   0  0  2  0  0  0  0  0  0  0  0  0
   10.5225  -17.0776   26.6964 N   0  0  0  0  0  0  0  0  0  0  0  0
   11.0378  -16.9827   29.0665 C   0  0  0  0  0  0  0  0  0  0  0  0
   11.0671  -16.4024   30.1807 O   0  0  0  0  0  0  0  0  0  0  0  0
    7.3425  -15.0393   26.5855 C   0  0  0  0  0  0  0  0  0  0  0  0
    6.8254  -13.9697   25.8971 C   0  0  0  0  0  0  0  0  0  0  0  0
   11.6506  -18.2169   28.9687 O   0  0  0  0  0  0  0  0  0  0  0  0
  2  1  1  6
  2  9  1  0
  3  2  1  0
  4  3  1  0
  5  4  2  0
  6  5  1  0
  6  7  1  0
  7  8  2  0
  8  4  1  0
  9 10  2  0
 12 11  1  6
 13  9  1  0
 13 12  1  0
 14 15  2  0
 14 12  1  0
 16 17  1  0
 17 27  2  0
 17 18  1  0
 18 19  2  0
 19 20  1  0
 20 21  1  0
 22 21  1  1
 22 23  1  0
 23 14  1  0
 24 22  1  0
 24 28  1  0
 25 24  2  0
 26 20  2  0
 27 26  1  0
M  END
$$$$
