HAY.pdb
     RDKit          3D

 28 29  0  0  1  0  0  0  0  0999 V2000
    7.0587  -18.8533   17.5795 N   0  0  0  0  0  0  0  0  0  0  0  0
    8.1361  -18.1845   18.2498 C   0  0  1  0  0  0  0  0  0  0  0  0
    8.2637  -16.7989   17.6177 C   0  0  0  0  0  0  0  0  0  0  0  0
    8.7934  -16.9796   16.2408 C   0  0  0  0  0  0  0  0  0  0  0  0
    9.1311  -18.1984   15.6421 C   0  0  0  0  0  0  0  0  0  0  0  0
    9.5713  -17.9526   14.3977 N   0  0  0  0  0  0  0  0  0  0  0  0
    9.5246  -16.6440   14.1917 C   0  0  0  0  0  0  0  0  0  0  0  0
    9.0522  -16.0410   15.3079 N   0  0  0  0  0  0  0  0  0  0  0  0
    7.8706  -17.9846   19.6962 C   0  0  0  0  0  0  0  0  0  0  0  0
    6.7397  -17.5897   20.0793 O   0  0  0  0  0  0  0  0  0  0  0  0
    8.6671  -19.3948   22.8518 C   0  0  0  0  0  0  0  0  0  0  0  0
    8.6057  -18.0787   22.1108 C   0  0  2  0  0  0  0  0  0  0  0  0
    8.8458  -18.2193   20.7042 N   0  0  0  0  0  0  0  0  0  0  0  0
    9.5140  -17.0609   22.7073 C   0  0  0  0  0  0  0  0  0  0  0  0
   10.6518  -16.8139   22.1956 O   0  0  0  0  0  0  0  0  0  0  0  0
    5.2910  -12.4586   27.6189 O   0  0  0  0  0  0  0  0  0  0  0  0
    6.3226  -12.8333   26.7887 C   0  0  0  0  0  0  0  0  0  0  0  0
    7.5751  -12.3339   27.0179 C   0  0  0  0  0  0  0  0  0  0  0  0
    8.6155  -12.7085   26.1849 C   0  0  0  0  0  0  0  0  0  0  0  0
    8.3941  -13.5696   25.1425 C   0  0  0  0  0  0  0  0  0  0  0  0
    9.5004  -13.9632   24.2629 C   0  0  0  0  0  0  0  0  0  0  0  0
   10.0040  -15.3540   24.4992 C   0  0  2  0  0  0  0  0  0  0  0  0
    9.1523  -16.3340   23.8560 N   0  0  0  0  0  0  0  0  0  0  0  0
   10.1956  -15.6557   25.9401 C   0  0  0  0  0  0  0  0  0  0  0  0
    9.3981  -16.4382   26.5152 O   0  0  0  0  0  0  0  0  0  0  0  0
    7.1323  -14.0547   24.9348 C   0  0  0  0  0  0  0  0  0  0  0  0
    6.0819  -13.7004   25.7449 C   0  0  0  0  0  0  0  0  0  0  0  0
   11.2191  -15.1138   26.6932 O   0  0  0  0  0  0  0  0  0  0  0  0
  2  1  1  6
  2  9  1  0
  3  2  1  0
  4  3  1  0
  5  4  2  0
  6  5  1  0
  6  7  1  0
  7  8  2  0
  8  4  1  0
  9 10  2  0
 12 11  1  1
 13  9  1  0
 13 12  1  0
 14 15  2  0
 14 12  1  0
 16 17  1  0
 17 27  2  0
 17 18  1  0
 18 19  2  0
 19 20  1  0
 20 21  1  0
 22 21  1  1
 22 23  1  0
 23 14  1  0
 24 22  1  0
 24 28  1  0
 25 24  2  0
 26 20  2  0
 27 26  1  0
M  END
$$$$
