HAY.pdb
     RDKit          3D

 28 29  0  0  1  0  0  0  0  0999 V2000
    8.0052  -18.1294   18.9400 N   0  0  0  0  0  0  0  0  0  0  0  0
    7.5008  -17.1598   19.8691 C   0  0  1  0  0  0  0  0  0  0  0  0
    6.3625  -17.8289   20.6386 C   0  0  0  0  0  0  0  0  0  0  0  0
    6.4915  -19.2971   20.4463 C   0  0  0  0  0  0  0  0  0  0  0  0
    7.4766  -19.9452   19.6930 C   0  0  0  0  0  0  0  0  0  0  0  0
    7.2600  -21.2686   19.7595 N   0  0  0  0  0  0  0  0  0  0  0  0
    6.1910  -21.4768   20.5152 C   0  0  0  0  0  0  0  0  0  0  0  0
    5.7144  -20.2827   20.9392 N   0  0  0  0  0  0  0  0  0  0  0  0
    8.5185  -16.7424   20.8655 C   0  0  0  0  0  0  0  0  0  0  0  0
    8.8240  -17.5114   21.8124 O   0  0  0  0  0  0  0  0  0  0  0  0
    7.2797  -14.0140   21.2677 C   0  0  0  0  0  0  0  0  0  0  0  0
    8.7459  -14.3058   21.4909 C   0  0  2  0  0  0  0  0  0  0  0  0
    9.1883  -15.4891   20.8124 N   0  0  0  0  0  0  0  0  0  0  0  0
    9.0885  -14.3622   22.9387 C   0  0  0  0  0  0  0  0  0  0  0  0
    9.0409  -13.3209   23.6672 O   0  0  0  0  0  0  0  0  0  0  0  0
    5.7229  -11.0609   26.5652 O   0  0  0  0  0  0  0  0  0  0  0  0
    6.3991  -12.2427   26.3651 C   0  0  0  0  0  0  0  0  0  0  0  0
    7.7318  -12.3052   26.6661 C   0  0  0  0  0  0  0  0  0  0  0  0
    8.4155  -13.4923   26.4661 C   0  0  0  0  0  0  0  0  0  0  0  0
    7.7655  -14.5926   25.9724 C   0  0  0  0  0  0  0  0  0  0  0  0
    8.4950  -15.8481   25.7624 C   0  0  0  0  0  0  0  0  0  0  0  0
    9.7586  -15.6960   24.9725 C   0  0  2  0  0  0  0  0  0  0  0  0
    9.4770  -15.5644   23.5573 N   0  0  0  0  0  0  0  0  0  0  0  0
   10.7337  -16.7834   25.2385 C   0  0  0  0  0  0  0  0  0  0  0  0
   11.2139  -17.4278   24.2725 O   0  0  0  0  0  0  0  0  0  0  0  0
    6.4325  -14.5039   25.6793 C   0  0  0  0  0  0  0  0  0  0  0  0
    5.7295  -13.3397   25.8676 C   0  0  0  0  0  0  0  0  0  0  0  0
   11.1471  -17.1295   26.5104 O   0  0  0  0  0  0  0  0  0  0  0  0
  2  1  1  6
  2  9  1  0
  3  2  1  0
  4  3  1  0
  5  4  2  0
  6  5  1  0
  6  7  1  0
  7  8  2  0
  8  4  1  0
  9 10  2  0
 12 11  1  1
 13  9  1  0
 13 12  1  0
 14 15  2  0
 14 12  1  0
 16 17  1  0
 17 27  2  0
 17 18  1  0
 18 19  2  0
 19 20  1  0
 20 21  1  0
 22 21  1  1
 22 23  1  0
 23 14  1  0
 24 22  1  0
 24 28  1  0
 25 24  2  0
 26 20  2  0
 27 26  1  0
M  END
$$$$
