GNY.pdb
     RDKit          3D

 25 25  0  0  1  0  0  0  0  0999 V2000
    6.2038  -18.9045   19.5706 N   0  0  0  0  0  0  0  0  0  0  0  0
    6.1131  -17.8015   20.4809 C   0  0  0  0  0  0  0  0  0  0  0  0
    7.3766  -17.0431   20.5383 C   0  0  0  0  0  0  0  0  0  0  0  0
    8.4658  -17.6616   20.4355 O   0  0  0  0  0  0  0  0  0  0  0  0
    7.0793  -12.5419   18.5590 N   0  0  0  0  0  0  0  0  0  0  0  0
    8.1032  -13.4861   18.8991 C   0  0  0  0  0  0  0  0  0  0  0  0
    8.5488  -14.1833   17.9725 O   0  0  0  0  0  0  0  0  0  0  0  0
    8.5109  -13.5222   20.3145 C   0  0  0  0  0  0  0  0  0  0  0  0
    8.6656  -14.8950   20.8743 C   0  0  2  0  0  0  0  0  0  0  0  0
    7.4063  -15.6288   20.7071 N   0  0  0  0  0  0  0  0  0  0  0  0
    9.0173  -14.8737   22.2940 C   0  0  0  0  0  0  0  0  0  0  0  0
    9.8622  -14.1290   22.8539 O   0  0  0  0  0  0  0  0  0  0  0  0
    6.6771  -10.4783   27.5949 O   0  0  0  0  0  0  0  0  0  0  0  0
    6.8557  -11.7603   27.0694 C   0  0  0  0  0  0  0  0  0  0  0  0
    5.9893  -12.7866   27.3626 C   0  0  0  0  0  0  0  0  0  0  0  0
    6.1759  -14.0482   26.8382 C   0  0  0  0  0  0  0  0  0  0  0  0
    7.2524  -14.3411   25.9863 C   0  0  0  0  0  0  0  0  0  0  0  0
    7.4286  -15.7012   25.4452 C   0  0  0  0  0  0  0  0  0  0  0  0
    8.6718  -15.8512   24.6121 C   0  0  2  0  0  0  0  0  0  0  0  0
    8.3544  -15.7852   23.1930 N   0  0  0  0  0  0  0  0  0  0  0  0
    9.4254  -17.0748   24.9475 C   0  0  0  0  0  0  0  0  0  0  0  0
   10.5021  -16.9618   25.5738 O   0  0  0  0  0  0  0  0  0  0  0  0
    8.1233  -13.3083   25.6912 C   0  0  0  0  0  0  0  0  0  0  0  0
    7.9069  -12.0602   26.2326 C   0  0  0  0  0  0  0  0  0  0  0  0
    9.0154  -18.3526   24.6114 O   0  0  0  0  0  0  0  0  0  0  0  0
  1  2  1  0
  2  3  1  0
  3 10  1  0
  4  3  2  0
  6  7  2  0
  6  5  1  0
  8  6  1  0
  9  8  1  1
  9 11  1  0
 10  9  1  0
 11 12  2  0
 11 20  1  0
 13 14  1  0
 14 15  2  0
 15 16  1  0
 17 18  1  0
 17 16  2  0
 19 18  1  1
 19 21  1  0
 20 19  1  0
 21 25  1  0
 22 21  2  0
 23 17  1  0
 24 23  2  0
 24 14  1  0
M  END
$$$$
