GNY.pdb
     RDKit          3D

 25 25  0  0  1  0  0  0  0  0999 V2000
    4.7543  -18.4380   19.1768 N   0  0  0  0  0  0  0  0  0  0  0  0
    5.8323  -17.5177   18.9660 C   0  0  0  0  0  0  0  0  0  0  0  0
    7.0076  -17.8653   19.7862 C   0  0  0  0  0  0  0  0  0  0  0  0
    6.9314  -18.8335   20.5838 O   0  0  0  0  0  0  0  0  0  0  0  0
   11.9438  -19.1980   21.2485 N   0  0  0  0  0  0  0  0  0  0  0  0
   11.7642  -17.8668   20.7473 C   0  0  0  0  0  0  0  0  0  0  0  0
   12.6199  -17.0278   21.0744 O   0  0  0  0  0  0  0  0  0  0  0  0
   10.5801  -17.6451   19.8991 C   0  0  0  0  0  0  0  0  0  0  0  0
    9.3271  -17.3623   20.6553 C   0  0  2  0  0  0  0  0  0  0  0  0
    8.2309  -17.1394   19.7062 N   0  0  0  0  0  0  0  0  0  0  0  0
    9.4569  -16.1857   21.5147 C   0  0  0  0  0  0  0  0  0  0  0  0
    9.4517  -14.9805   21.1547 O   0  0  0  0  0  0  0  0  0  0  0  0
    5.8419  -11.2267   27.5233 O   0  0  0  0  0  0  0  0  0  0  0  0
    6.3087  -12.1596   26.5940 C   0  0  0  0  0  0  0  0  0  0  0  0
    7.0493  -11.7787   25.5002 C   0  0  0  0  0  0  0  0  0  0  0  0
    7.5044  -12.7085   24.5892 C   0  0  0  0  0  0  0  0  0  0  0  0
    7.2342  -14.0782   24.7357 C   0  0  0  0  0  0  0  0  0  0  0  0
    7.7302  -15.0481   23.7422 C   0  0  0  0  0  0  0  0  0  0  0  0
    9.1909  -15.3679   23.9041 C   0  0  2  0  0  0  0  0  0  0  0  0
    9.6110  -16.3707   22.9361 N   0  0  0  0  0  0  0  0  0  0  0  0
    9.5264  -15.7664   25.2847 C   0  0  0  0  0  0  0  0  0  0  0  0
   10.1749  -14.9686   25.9970 O   0  0  0  0  0  0  0  0  0  0  0  0
    6.4897  -14.4608   25.8364 C   0  0  0  0  0  0  0  0  0  0  0  0
    6.0510  -13.5054   26.7264 C   0  0  0  0  0  0  0  0  0  0  0  0
    9.1671  -16.9769   25.8497 O   0  0  0  0  0  0  0  0  0  0  0  0
  1  2  1  0
  2  3  1  0
  3 10  1  0
  4  3  2  0
  6  7  2  0
  6  5  1  0
  8  6  1  0
  9  8  1  6
  9 11  1  0
 10  9  1  0
 11 12  2  0
 11 20  1  0
 13 14  1  0
 14 15  2  0
 15 16  1  0
 17 18  1  0
 17 16  2  0
 19 18  1  1
 19 21  1  0
 20 19  1  0
 21 25  1  0
 22 21  2  0
 23 17  1  0
 24 23  2  0
 24 14  1  0
M  END
$$$$
