GNY.pdb
     RDKit          3D

 25 25  0  0  1  0  0  0  0  0999 V2000
    6.2507  -18.7424   21.9901 N   0  0  0  0  0  0  0  0  0  0  0  0
    6.8074  -18.3583   20.7269 C   0  0  0  0  0  0  0  0  0  0  0  0
    7.9416  -17.4309   20.8958 C   0  0  0  0  0  0  0  0  0  0  0  0
    9.1047  -17.8361   20.6459 O   0  0  0  0  0  0  0  0  0  0  0  0
    6.7691  -13.1242   19.4251 N   0  0  0  0  0  0  0  0  0  0  0  0
    8.0592  -13.7039   19.6601 C   0  0  0  0  0  0  0  0  0  0  0  0
    8.6970  -14.0694   18.6587 O   0  0  0  0  0  0  0  0  0  0  0  0
    8.4823  -13.8008   21.0680 C   0  0  0  0  0  0  0  0  0  0  0  0
    8.8977  -15.1683   21.4918 C   0  0  2  0  0  0  0  0  0  0  0  0
    7.7648  -16.0870   21.3343 N   0  0  0  0  0  0  0  0  0  0  0  0
    9.3445  -15.2007   22.8842 C   0  0  0  0  0  0  0  0  0  0  0  0
   10.2332  -14.4834   23.4114 O   0  0  0  0  0  0  0  0  0  0  0  0
    6.0388  -10.7395   26.6540 O   0  0  0  0  0  0  0  0  0  0  0  0
    6.4922  -12.0533   26.5118 C   0  0  0  0  0  0  0  0  0  0  0  0
    5.6377  -13.0790   26.1837 C   0  0  0  0  0  0  0  0  0  0  0  0
    6.0967  -14.3721   26.0465 C   0  0  0  0  0  0  0  0  0  0  0  0
    7.4489  -14.6987   26.2342 C   0  0  0  0  0  0  0  0  0  0  0  0
    7.9088  -16.0916   26.0855 C   0  0  0  0  0  0  0  0  0  0  0  0
    9.1142  -16.2260   25.1960 C   0  0  2  0  0  0  0  0  0  0  0  0
    8.7342  -16.1383   23.7935 N   0  0  0  0  0  0  0  0  0  0  0  0
    9.8835  -17.4531   25.4784 C   0  0  0  0  0  0  0  0  0  0  0  0
    9.9255  -18.3473   24.6049 O   0  0  0  0  0  0  0  0  0  0  0  0
    8.3080  -13.6665   26.5637 C   0  0  0  0  0  0  0  0  0  0  0  0
    7.8156  -12.3865   26.6928 C   0  0  0  0  0  0  0  0  0  0  0  0
   10.5689  -17.6825   26.6579 O   0  0  0  0  0  0  0  0  0  0  0  0
  1  2  1  0
  2  3  1  0
  3 10  1  0
  4  3  2  0
  6  7  2  0
  6  5  1  0
  8  6  1  0
  9  8  1  1
  9 11  1  0
 10  9  1  0
 11 12  2  0
 11 20  1  0
 13 14  1  0
 14 15  2  0
 15 16  1  0
 17 18  1  0
 17 16  2  0
 19 18  1  1
 19 21  1  0
 20 19  1  0
 21 25  1  0
 22 21  2  0
 23 17  1  0
 24 23  2  0
 24 14  1  0
M  END
$$$$
