GNY.pdb
     RDKit          3D

 25 25  0  0  1  0  0  0  0  0999 V2000
    5.8639  -19.8267   19.6379 N   0  0  0  0  0  0  0  0  0  0  0  0
    5.5042  -18.6564   20.3825 C   0  0  0  0  0  0  0  0  0  0  0  0
    6.6297  -17.7078   20.4751 C   0  0  0  0  0  0  0  0  0  0  0  0
    7.7996  -18.1557   20.5754 O   0  0  0  0  0  0  0  0  0  0  0  0
    8.1093  -11.7902   19.7119 N   0  0  0  0  0  0  0  0  0  0  0  0
    8.3672  -13.1760   19.9740 C   0  0  0  0  0  0  0  0  0  0  0  0
    9.5546  -13.5388   19.9372 O   0  0  0  0  0  0  0  0  0  0  0  0
    7.1894  -14.0146   20.2575 C   0  0  0  0  0  0  0  0  0  0  0  0
    7.5129  -15.3627   20.8053 C   0  0  2  0  0  0  0  0  0  0  0  0
    6.4369  -16.2964   20.4551 N   0  0  0  0  0  0  0  0  0  0  0  0
    7.6688  -15.3426   22.2596 C   0  0  0  0  0  0  0  0  0  0  0  0
    6.7699  -15.5251   23.1203 O   0  0  0  0  0  0  0  0  0  0  0  0
    5.9181  -10.7005   27.2015 O   0  0  0  0  0  0  0  0  0  0  0  0
    6.4357  -11.8816   26.6642 C   0  0  0  0  0  0  0  0  0  0  0  0
    7.5982  -11.8908   25.9304 C   0  0  0  0  0  0  0  0  0  0  0  0
    8.0995  -13.0629   25.4046 C   0  0  0  0  0  0  0  0  0  0  0  0
    7.4500  -14.2930   25.5931 C   0  0  0  0  0  0  0  0  0  0  0  0
    8.0077  -15.5289   25.0141 C   0  0  0  0  0  0  0  0  0  0  0  0
    9.2703  -15.2988   24.2299 C   0  0  2  0  0  0  0  0  0  0  0  0
    8.9726  -15.0897   22.8203 N   0  0  0  0  0  0  0  0  0  0  0  0
   10.2554  -16.3798   24.4261 C   0  0  0  0  0  0  0  0  0  0  0  0
   10.6291  -17.0370   23.4298 O   0  0  0  0  0  0  0  0  0  0  0  0
    6.2810  -14.2832   26.3318 C   0  0  0  0  0  0  0  0  0  0  0  0
    5.8087  -13.0942   26.8423 C   0  0  0  0  0  0  0  0  0  0  0  0
   10.7990  -16.7180   25.6524 O   0  0  0  0  0  0  0  0  0  0  0  0
  1  2  1  0
  2  3  1  0
  3 10  1  0
  4  3  2  0
  6  7  2  0
  6  5  1  0
  8  6  1  0
  9  8  1  1
  9 11  1  0
 10  9  1  0
 11 12  2  0
 11 20  1  0
 13 14  1  0
 14 15  2  0
 15 16  1  0
 17 18  1  0
 17 16  2  0
 19 18  1  1
 19 21  1  0
 20 19  1  0
 21 25  1  0
 22 21  2  0
 23 17  1  0
 24 23  2  0
 24 14  1  0
M  END
$$$$
