GNY.pdb
     RDKit          3D

 25 25  0  0  1  0  0  0  0  0999 V2000
    5.1750  -15.6227   20.7543 N   0  0  0  0  0  0  0  0  0  0  0  0
    6.3300  -14.8886   21.1791 C   0  0  0  0  0  0  0  0  0  0  0  0
    7.3561  -15.7796   21.7517 C   0  0  0  0  0  0  0  0  0  0  0  0
    6.9949  -16.8365   22.3280 O   0  0  0  0  0  0  0  0  0  0  0  0
   10.8540  -18.2235   20.0344 N   0  0  0  0  0  0  0  0  0  0  0  0
   10.9712  -16.7977   20.1287 C   0  0  0  0  0  0  0  0  0  0  0  0
   11.0130  -16.1696   19.0578 O   0  0  0  0  0  0  0  0  0  0  0  0
   11.0297  -16.2383   21.4905 C   0  0  0  0  0  0  0  0  0  0  0  0
    9.7609  -16.3668   22.2623 C   0  0  2  0  0  0  0  0  0  0  0  0
    8.7475  -15.4836   21.6748 N   0  0  0  0  0  0  0  0  0  0  0  0
    9.9363  -16.0158   23.6715 C   0  0  0  0  0  0  0  0  0  0  0  0
   10.6586  -15.0984   24.1393 O   0  0  0  0  0  0  0  0  0  0  0  0
    6.1337  -10.9509   26.0615 O   0  0  0  0  0  0  0  0  0  0  0  0
    6.6014  -12.2564   26.2308 C   0  0  0  0  0  0  0  0  0  0  0  0
    7.8073  -12.5169   26.8375 C   0  0  0  0  0  0  0  0  0  0  0  0
    8.2590  -13.8098   26.9987 C   0  0  0  0  0  0  0  0  0  0  0  0
    7.5131  -14.9126   26.5536 C   0  0  0  0  0  0  0  0  0  0  0  0
    8.0248  -16.2832   26.7357 C   0  0  0  0  0  0  0  0  0  0  0  0
    9.3692  -16.5035   26.0983 C   0  0  2  0  0  0  0  0  0  0  0  0
    9.2286  -16.7719   24.6744 N   0  0  0  0  0  0  0  0  0  0  0  0
   10.1450  -17.5579   26.7794 C   0  0  0  0  0  0  0  0  0  0  0  0
   10.3935  -17.4253   27.9980 O   0  0  0  0  0  0  0  0  0  0  0  0
    6.3001  -14.6499   25.9440 C   0  0  0  0  0  0  0  0  0  0  0  0
    5.8795  -13.3462   25.7993 C   0  0  0  0  0  0  0  0  0  0  0  0
   10.6208  -18.6957   26.1527 O   0  0  0  0  0  0  0  0  0  0  0  0
  1  2  1  0
  2  3  1  0
  3 10  1  0
  4  3  2  0
  6  7  2  0
  6  5  1  0
  8  6  1  0
  9  8  1  6
  9 11  1  0
 10  9  1  0
 11 12  2  0
 11 20  1  0
 13 14  1  0
 14 15  2  0
 15 16  1  0
 17 18  1  0
 17 16  2  0
 19 18  1  1
 19 21  1  0
 20 19  1  0
 21 25  1  0
 22 21  2  0
 23 17  1  0
 24 23  2  0
 24 14  1  0
M  END
$$$$
