GNY.pdb
     RDKit          3D

 25 25  0  0  1  0  0  0  0  0999 V2000
    4.3988  -16.9392   21.0882 N   0  0  0  0  0  0  0  0  0  0  0  0
    5.6905  -16.4032   21.4004 C   0  0  0  0  0  0  0  0  0  0  0  0
    6.6746  -17.4736   21.6465 C   0  0  0  0  0  0  0  0  0  0  0  0
    6.2647  -18.6247   21.9405 O   0  0  0  0  0  0  0  0  0  0  0  0
    7.5293  -12.4521   21.0575 N   0  0  0  0  0  0  0  0  0  0  0  0
    7.9801  -13.7212   20.5655 C   0  0  0  0  0  0  0  0  0  0  0  0
    8.6776  -13.7048   19.5377 O   0  0  0  0  0  0  0  0  0  0  0  0
    7.5621  -14.9042   21.3378 C   0  0  0  0  0  0  0  0  0  0  0  0
    8.6485  -15.8963   21.5776 C   0  0  2  0  0  0  0  0  0  0  0  0
    8.0788  -17.2482   21.5628 N   0  0  0  0  0  0  0  0  0  0  0  0
    9.3194  -15.6784   22.8591 C   0  0  0  0  0  0  0  0  0  0  0  0
   10.3571  -14.9979   23.0646 O   0  0  0  0  0  0  0  0  0  0  0  0
    6.1767  -10.7002   26.0119 O   0  0  0  0  0  0  0  0  0  0  0  0
    6.7333  -11.9777   26.1120 C   0  0  0  0  0  0  0  0  0  0  0  0
    5.9963  -13.1077   25.8477 C   0  0  0  0  0  0  0  0  0  0  0  0
    6.5564  -14.3636   25.9502 C   0  0  0  0  0  0  0  0  0  0  0  0
    7.8964  -14.5452   26.3267 C   0  0  0  0  0  0  0  0  0  0  0  0
    8.4658  -15.9010   26.4326 C   0  0  0  0  0  0  0  0  0  0  0  0
    9.4456  -16.2196   25.3369 C   0  0  2  0  0  0  0  0  0  0  0  0
    8.7747  -16.2874   24.0468 N   0  0  0  0  0  0  0  0  0  0  0  0
   10.2182  -17.4453   25.6166 C   0  0  0  0  0  0  0  0  0  0  0  0
   10.8666  -17.5136   26.6839 O   0  0  0  0  0  0  0  0  0  0  0  0
    8.6374  -13.4081   26.5919 C   0  0  0  0  0  0  0  0  0  0  0  0
    8.0460  -12.1691   26.4798 C   0  0  0  0  0  0  0  0  0  0  0  0
   10.2733  -18.5359   24.7673 O   0  0  0  0  0  0  0  0  0  0  0  0
  1  2  1  0
  2  3  1  0
  3 10  1  0
  4  3  2  0
  6  7  2  0
  6  5  1  0
  8  6  1  0
  9  8  1  1
  9 11  1  0
 10  9  1  0
 11 12  2  0
 11 20  1  0
 13 14  1  0
 14 15  2  0
 15 16  1  0
 17 18  1  0
 17 16  2  0
 19 18  1  1
 19 21  1  0
 20 19  1  0
 21 25  1  0
 22 21  2  0
 23 17  1  0
 24 23  2  0
 24 14  1  0
M  END
$$$$
