GNY.pdb
     RDKit          3D

 25 25  0  0  1  0  0  0  0  0999 V2000
   12.8297  -25.4043   16.0515 N   0  0  0  0  0  0  0  0  0  0  0  0
   12.3705  -24.0475   16.0098 C   0  0  0  0  0  0  0  0  0  0  0  0
   13.3044  -23.1395   16.7013 C   0  0  0  0  0  0  0  0  0  0  0  0
   14.1286  -23.6185   17.5202 O   0  0  0  0  0  0  0  0  0  0  0  0
   16.4183  -18.3211   15.9563 N   0  0  0  0  0  0  0  0  0  0  0  0
   15.3549  -18.6157   16.8718 C   0  0  0  0  0  0  0  0  0  0  0  0
   15.4045  -18.0597   17.9815 O   0  0  0  0  0  0  0  0  0  0  0  0
   14.3213  -19.5486   16.3900 C   0  0  0  0  0  0  0  0  0  0  0  0
   14.2702  -20.8429   17.1276 C   0  0  2  0  0  0  0  0  0  0  0  0
   13.3051  -21.7332   16.4732 N   0  0  0  0  0  0  0  0  0  0  0  0
   13.8783  -20.6642   18.5256 C   0  0  0  0  0  0  0  0  0  0  0  0
   12.7084  -20.5736   18.9786 O   0  0  0  0  0  0  0  0  0  0  0  0
   13.1635  -21.9481   27.0701 O   0  0  0  0  0  0  0  0  0  0  0  0
   13.3687  -21.9107   25.6887 C   0  0  0  0  0  0  0  0  0  0  0  0
   12.4093  -21.4282   24.8305 C   0  0  0  0  0  0  0  0  0  0  0  0
   12.6229  -21.3965   23.4685 C   0  0  0  0  0  0  0  0  0  0  0  0
   13.8221  -21.8525   22.8992 C   0  0  0  0  0  0  0  0  0  0  0  0
   14.0193  -21.8106   21.4386 C   0  0  0  0  0  0  0  0  0  0  0  0
   14.5984  -20.5092   20.9558 C   0  0  2  0  0  0  0  0  0  0  0  0
   14.9045  -20.5753   19.5342 N   0  0  0  0  0  0  0  0  0  0  0  0
   15.7703  -20.0903   21.7486 C   0  0  0  0  0  0  0  0  0  0  0  0
   15.6636  -20.0402   22.9938 O   0  0  0  0  0  0  0  0  0  0  0  0
   14.7871  -22.3372   23.7630 C   0  0  0  0  0  0  0  0  0  0  0  0
   14.5403  -22.3544   25.1181 C   0  0  0  0  0  0  0  0  0  0  0  0
   16.9926  -19.7458   21.2000 O   0  0  0  0  0  0  0  0  0  0  0  0
  1  2  1  0
  2  3  1  0
  3 10  1  0
  4  3  2  0
  6  7  2  0
  6  5  1  0
  8  6  1  0
  9  8  1  6
  9 11  1  0
 10  9  1  0
 11 12  2  0
 11 20  1  0
 13 14  1  0
 14 15  2  0
 15 16  1  0
 17 18  1  0
 17 16  2  0
 19 18  1  1
 19 21  1  0
 20 19  1  0
 21 25  1  0
 22 21  2  0
 23 17  1  0
 24 23  2  0
 24 14  1  0
M  END
$$$$
