GNY.pdb
     RDKit          3D

 25 25  0  0  1  0  0  0  0  0999 V2000
    5.5483  -18.7490   19.0632 N   0  0  0  0  0  0  0  0  0  0  0  0
    5.8672  -17.8061   20.0941 C   0  0  0  0  0  0  0  0  0  0  0  0
    7.1350  -17.1069   19.8134 C   0  0  0  0  0  0  0  0  0  0  0  0
    8.2203  -17.7171   19.9845 O   0  0  0  0  0  0  0  0  0  0  0  0
    8.2814  -16.1631   16.8031 N   0  0  0  0  0  0  0  0  0  0  0  0
    8.2451  -14.7298   16.7950 C   0  0  0  0  0  0  0  0  0  0  0  0
    8.1242  -14.1814   15.6870 O   0  0  0  0  0  0  0  0  0  0  0  0
    8.3566  -14.0687   18.1070 C   0  0  0  0  0  0  0  0  0  0  0  0
    8.4293  -15.0068   19.2632 C   0  0  2  0  0  0  0  0  0  0  0  0
    7.1731  -15.7590   19.3537 N   0  0  0  0  0  0  0  0  0  0  0  0
    8.6544  -14.3056   20.5271 C   0  0  0  0  0  0  0  0  0  0  0  0
    8.5303  -13.0724   20.7416 O   0  0  0  0  0  0  0  0  0  0  0  0
    6.3059  -12.0908   28.4123 O   0  0  0  0  0  0  0  0  0  0  0  0
    6.5686  -12.6138   27.1438 C   0  0  0  0  0  0  0  0  0  0  0  0
    6.2634  -13.9155   26.8235 C   0  0  0  0  0  0  0  0  0  0  0  0
    6.5277  -14.4209   25.5681 C   0  0  0  0  0  0  0  0  0  0  0  0
    7.1170  -13.6348   24.5655 C   0  0  0  0  0  0  0  0  0  0  0  0
    7.3922  -14.2050   23.2340 C   0  0  0  0  0  0  0  0  0  0  0  0
    8.8314  -14.5978   23.0434 C   0  0  2  0  0  0  0  0  0  0  0  0
    9.0651  -15.0620   21.6836 N   0  0  0  0  0  0  0  0  0  0  0  0
    9.2782  -15.5869   24.0431 C   0  0  0  0  0  0  0  0  0  0  0  0
    9.7623  -15.1731   25.1196 O   0  0  0  0  0  0  0  0  0  0  0  0
    7.4233  -12.3255   24.8880 C   0  0  0  0  0  0  0  0  0  0  0  0
    7.1456  -11.8533   26.1519 C   0  0  0  0  0  0  0  0  0  0  0  0
    9.1962  -16.9566   23.8668 O   0  0  0  0  0  0  0  0  0  0  0  0
  1  2  1  0
  2  3  1  0
  3 10  1  0
  4  3  2  0
  6  7  2  0
  6  5  1  0
  8  6  1  0
  9  8  1  6
  9 11  1  0
 10  9  1  0
 11 12  2  0
 11 20  1  0
 13 14  1  0
 14 15  2  0
 15 16  1  0
 17 18  1  0
 17 16  2  0
 19 18  1  6
 19 21  1  0
 20 19  1  0
 21 25  1  0
 22 21  2  0
 23 17  1  0
 24 23  2  0
 24 14  1  0
M  END
$$$$
