GNY.pdb
     RDKit          3D

 25 25  0  0  1  0  0  0  0  0999 V2000
    6.0430  -15.6765   21.3016 N   0  0  0  0  0  0  0  0  0  0  0  0
    6.7397  -16.6675   20.5361 C   0  0  0  0  0  0  0  0  0  0  0  0
    7.9296  -17.1648   21.2514 C   0  0  0  0  0  0  0  0  0  0  0  0
    7.8906  -18.3018   21.7854 O   0  0  0  0  0  0  0  0  0  0  0  0
   11.0286  -16.8827   18.2695 N   0  0  0  0  0  0  0  0  0  0  0  0
   11.0640  -17.6333   19.4905 C   0  0  0  0  0  0  0  0  0  0  0  0
   10.8101  -18.8464   19.4068 O   0  0  0  0  0  0  0  0  0  0  0  0
   11.3981  -16.8769   20.7099 C   0  0  0  0  0  0  0  0  0  0  0  0
   10.3907  -16.9963   21.8021 C   0  0  2  0  0  0  0  0  0  0  0  0
    9.1260  -16.3990   21.3591 N   0  0  0  0  0  0  0  0  0  0  0  0
   10.8268  -16.3284   23.0282 C   0  0  0  0  0  0  0  0  0  0  0  0
   11.9623  -16.3965   23.5650 O   0  0  0  0  0  0  0  0  0  0  0  0
    6.1559  -10.3717   26.3005 O   0  0  0  0  0  0  0  0  0  0  0  0
    6.6238  -11.6653   26.0569 C   0  0  0  0  0  0  0  0  0  0  0  0
    7.1010  -12.0385   24.8228 C   0  0  0  0  0  0  0  0  0  0  0  0
    7.5600  -13.3185   24.5939 C   0  0  0  0  0  0  0  0  0  0  0  0
    7.5612  -14.2934   25.6039 C   0  0  0  0  0  0  0  0  0  0  0  0
    8.0537  -15.6553   25.3274 C   0  0  0  0  0  0  0  0  0  0  0  0
    9.5437  -15.7186   25.1331 C   0  0  2  0  0  0  0  0  0  0  0  0
    9.8935  -15.4902   23.7386 N   0  0  0  0  0  0  0  0  0  0  0  0
   10.1211  -16.9774   25.6424 C   0  0  0  0  0  0  0  0  0  0  0  0
   10.7043  -16.9638   26.7488 O   0  0  0  0  0  0  0  0  0  0  0  0
    7.0816  -13.9172   26.8452 C   0  0  0  0  0  0  0  0  0  0  0  0
    6.6307  -12.6301   27.0388 C   0  0  0  0  0  0  0  0  0  0  0  0
   10.0594  -18.1849   24.9701 O   0  0  0  0  0  0  0  0  0  0  0  0
  1  2  1  0
  2  3  1  0
  3 10  1  0
  4  3  2  0
  6  7  2  0
  6  5  1  0
  8  6  1  0
  9  8  1  6
  9 11  1  0
 10  9  1  0
 11 12  2  0
 11 20  1  0
 13 14  1  0
 14 15  2  0
 15 16  1  0
 17 18  1  0
 17 16  2  0
 19 18  1  6
 19 21  1  0
 20 19  1  0
 21 25  1  0
 22 21  2  0
 23 17  1  0
 24 23  2  0
 24 14  1  0
M  END
$$$$
