GNY.pdb
     RDKit          3D

 25 25  0  0  1  0  0  0  0  0999 V2000
    5.0683  -18.4234   20.6800 N   0  0  0  0  0  0  0  0  0  0  0  0
    5.4231  -17.3573   21.5693 C   0  0  0  0  0  0  0  0  0  0  0  0
    6.8063  -16.9001   21.3400 C   0  0  0  0  0  0  0  0  0  0  0  0
    7.6741  -17.7350   20.9804 O   0  0  0  0  0  0  0  0  0  0  0  0
    7.2091  -12.4213   19.3984 N   0  0  0  0  0  0  0  0  0  0  0  0
    8.1124  -13.5213   19.5710 C   0  0  0  0  0  0  0  0  0  0  0  0
    8.3528  -14.2085   18.5645 O   0  0  0  0  0  0  0  0  0  0  0  0
    8.6536  -13.7120   20.9280 C   0  0  0  0  0  0  0  0  0  0  0  0
    8.5970  -15.1180   21.4198 C   0  0  2  0  0  0  0  0  0  0  0  0
    7.1951  -15.5404   21.5125 N   0  0  0  0  0  0  0  0  0  0  0  0
    9.2251  -15.2673   22.7324 C   0  0  0  0  0  0  0  0  0  0  0  0
   10.3860  -14.9122   23.0614 O   0  0  0  0  0  0  0  0  0  0  0  0
    6.2196  -10.3986   26.6408 O   0  0  0  0  0  0  0  0  0  0  0  0
    6.6376  -11.7268   26.5281 C   0  0  0  0  0  0  0  0  0  0  0  0
    7.9258  -12.1046   26.8243 C   0  0  0  0  0  0  0  0  0  0  0  0
    8.3272  -13.4188   26.7090 C   0  0  0  0  0  0  0  0  0  0  0  0
    7.4446  -14.4252   26.2864 C   0  0  0  0  0  0  0  0  0  0  0  0
    7.9046  -15.8209   26.1678 C   0  0  0  0  0  0  0  0  0  0  0  0
    9.0007  -15.9996   25.1536 C   0  0  2  0  0  0  0  0  0  0  0  0
    8.4771  -15.8826   23.8003 N   0  0  0  0  0  0  0  0  0  0  0  0
    9.7405  -17.2618   25.3463 C   0  0  0  0  0  0  0  0  0  0  0  0
    9.6244  -18.1611   24.4848 O   0  0  0  0  0  0  0  0  0  0  0  0
    6.1488  -14.0448   25.9890 C   0  0  0  0  0  0  0  0  0  0  0  0
    5.7819  -12.7231   26.1153 C   0  0  0  0  0  0  0  0  0  0  0  0
   10.5630  -17.5192   26.4284 O   0  0  0  0  0  0  0  0  0  0  0  0
  1  2  1  0
  2  3  1  0
  3 10  1  0
  4  3  2  0
  6  7  2  0
  6  5  1  0
  8  6  1  0
  9  8  1  1
  9 11  1  0
 10  9  1  0
 11 12  2  0
 11 20  1  0
 13 14  1  0
 14 15  2  0
 15 16  1  0
 17 18  1  0
 17 16  2  0
 19 18  1  1
 19 21  1  0
 20 19  1  0
 21 25  1  0
 22 21  2  0
 23 17  1  0
 24 23  2  0
 24 14  1  0
M  END
$$$$
