IHQ.pdb
     RDKit          3D

 28 28  0  0  1  0  0  0  0  0999 V2000
    8.4028  -11.6465   27.2446 C   0  0  0  0  0  0  0  0  0  0  0  0
    7.5965  -12.9025   26.9893 C   0  0  0  0  0  0  0  0  0  0  0  0
    6.5642  -12.6053   25.9297 C   0  0  2  0  0  0  0  0  0  0  0  0
    5.5603  -11.5965   26.4444 C   0  0  0  0  0  0  0  0  0  0  0  0
    5.8030  -13.8312   25.5055 C   0  0  2  0  0  0  0  0  0  0  0  0
    5.2978  -14.5901   26.6024 N   0  0  0  0  0  0  0  0  0  0  0  0
    6.6053  -14.7103   24.6088 C   0  0  0  0  0  0  0  0  0  0  0  0
    7.0406  -15.8260   25.0327 O   0  0  0  0  0  0  0  0  0  0  0  0
    6.9122  -14.3543   23.2787 N   0  0  0  0  0  0  0  0  0  0  0  0
    7.7153  -15.1594   22.3877 C   0  0  1  0  0  0  0  0  0  0  0  0
    7.6395  -14.6684   20.9640 C   0  0  0  0  0  0  0  0  0  0  0  0
    8.3102  -15.5594   19.9945 C   0  0  0  0  0  0  0  0  0  0  0  0
    7.6851  -16.5872   19.3219 C   0  0  0  0  0  0  0  0  0  0  0  0
    8.6025  -17.1804   18.5331 N   0  0  0  0  0  0  0  0  0  0  0  0
    9.7829  -16.5552   18.6916 C   0  0  0  0  0  0  0  0  0  0  0  0
    9.5728  -15.5649   19.5943 N   0  0  0  0  0  0  0  0  0  0  0  0
    9.0840  -15.2817   22.8980 C   0  0  0  0  0  0  0  0  0  0  0  0
    9.7858  -14.3204   23.2872 O   0  0  0  0  0  0  0  0  0  0  0  0
   11.1609  -19.9089   26.2206 N   0  0  0  0  0  0  0  0  0  0  0  0
   10.2239  -18.8304   26.4306 C   0  0  0  0  0  0  0  0  0  0  0  0
    9.5244  -18.9291   27.4552 O   0  0  0  0  0  0  0  0  0  0  0  0
   10.1371  -17.7071   25.4661 C   0  0  0  0  0  0  0  0  0  0  0  0
   11.1896  -17.7634   24.4083 C   0  0  0  0  0  0  0  0  0  0  0  0
   11.0944  -16.7181   23.3453 C   0  0  2  0  0  0  0  0  0  0  0  0
    9.6831  -16.5672   22.9681 N   0  0  0  0  0  0  0  0  0  0  0  0
   11.8803  -17.1183   22.1613 C   0  0  0  0  0  0  0  0  0  0  0  0
   13.2734  -17.1901   22.2932 O   0  0  0  0  0  0  0  0  0  0  0  0
   11.3839  -17.3961   21.0522 O   0  0  0  0  0  0  0  0  0  0  0  0
  1  2  1  0
  3  2  1  0
  3  4  1  1
  5  3  1  0
  5  6  1  1
  7  5  1  0
  8  7  2  0
  9  7  1  0
 10  9  1  0
 10 11  1  6
 11 12  1  0
 12 13  2  0
 12 16  1  0
 13 14  1  0
 14 15  1  0
 16 15  2  0
 17 18  2  0
 17 10  1  0
 20 19  1  0
 21 20  2  0
 22 20  1  0
 24 23  1  1
 23 22  1  0
 24 25  1  0
 25 17  1  0
 26 24  1  0
 27 26  1  0
 28 26  2  0
M  END
$$$$
