IHQ.pdb
     RDKit          3D

 28 28  0  0  1  0  0  0  0  0999 V2000
    5.7939  -11.4021   26.8342 C   0  0  0  0  0  0  0  0  0  0  0  0
    5.4567  -12.6863   26.1062 C   0  0  0  0  0  0  0  0  0  0  0  0
    6.7423  -13.3443   25.6691 C   0  0  2  0  0  0  0  0  0  0  0  0
    7.5319  -12.4107   24.7773 C   0  0  0  0  0  0  0  0  0  0  0  0
    6.5078  -14.6174   24.9034 C   0  0  2  0  0  0  0  0  0  0  0  0
    5.7629  -15.5883   25.6362 N   0  0  0  0  0  0  0  0  0  0  0  0
    7.7783  -15.2206   24.4109 C   0  0  0  0  0  0  0  0  0  0  0  0
    8.3216  -16.1742   25.0510 O   0  0  0  0  0  0  0  0  0  0  0  0
    8.4229  -14.7726   23.2387 N   0  0  0  0  0  0  0  0  0  0  0  0
    9.5780  -15.4122   22.6526 C   0  0  1  0  0  0  0  0  0  0  0  0
    9.8579  -14.9021   21.2615 C   0  0  0  0  0  0  0  0  0  0  0  0
    8.6808  -14.9416   20.3690 C   0  0  0  0  0  0  0  0  0  0  0  0
    8.0967  -13.8289   19.8030 C   0  0  0  0  0  0  0  0  0  0  0  0
    7.0531  -14.2455   19.0595 N   0  0  0  0  0  0  0  0  0  0  0  0
    6.9660  -15.5852   19.1429 C   0  0  0  0  0  0  0  0  0  0  0  0
    7.9779  -15.9844   19.9532 N   0  0  0  0  0  0  0  0  0  0  0  0
   10.7286  -15.3241   23.5565 C   0  0  0  0  0  0  0  0  0  0  0  0
   11.0989  -14.2772   24.1353 O   0  0  0  0  0  0  0  0  0  0  0  0
   10.9356  -16.8768   28.9900 N   0  0  0  0  0  0  0  0  0  0  0  0
   10.9216  -15.5478   28.4254 C   0  0  0  0  0  0  0  0  0  0  0  0
   10.6222  -14.6383   29.2204 O   0  0  0  0  0  0  0  0  0  0  0  0
   11.2472  -15.3318   26.9946 C   0  0  0  0  0  0  0  0  0  0  0  0
   11.2663  -16.5977   26.2028 C   0  0  0  0  0  0  0  0  0  0  0  0
   12.2405  -16.6376   25.0710 C   0  0  2  0  0  0  0  0  0  0  0  0
   11.4966  -16.4906   23.8133 N   0  0  0  0  0  0  0  0  0  0  0  0
   12.9675  -17.9226   25.0656 C   0  0  0  0  0  0  0  0  0  0  0  0
   14.2751  -17.9378   25.5686 O   0  0  0  0  0  0  0  0  0  0  0  0
   12.4923  -18.9944   24.6424 O   0  0  0  0  0  0  0  0  0  0  0  0
  1  2  1  0
  3  2  1  0
  3  4  1  6
  5  3  1  0
  5  6  1  1
  7  5  1  0
  8  7  2  0
  9  7  1  0
 10  9  1  0
 10 11  1  6
 11 12  1  0
 12 13  2  0
 12 16  1  0
 13 14  1  0
 14 15  1  0
 16 15  2  0
 17 18  2  0
 17 10  1  0
 20 19  1  0
 21 20  2  0
 22 20  1  0
 24 23  1  1
 23 22  1  0
 24 25  1  0
 25 17  1  0
 26 24  1  0
 27 26  1  0
 28 26  2  0
M  END
$$$$
