IHQ.pdb
     RDKit          3D

 28 28  0  0  1  0  0  0  0  0999 V2000
    6.6784  -11.1517   27.1347 C   0  0  0  0  0  0  0  0  0  0  0  0
    5.9431  -12.3237   26.5195 C   0  0  0  0  0  0  0  0  0  0  0  0
    6.9588  -13.2992   25.9779 C   0  0  2  0  0  0  0  0  0  0  0  0
    7.8164  -12.6318   24.9245 C   0  0  0  0  0  0  0  0  0  0  0  0
    6.3207  -14.5072   25.3487 C   0  0  2  0  0  0  0  0  0  0  0  0
    5.4901  -15.2397   26.2475 N   0  0  0  0  0  0  0  0  0  0  0  0
    7.3258  -15.4183   24.7320 C   0  0  0  0  0  0  0  0  0  0  0  0
    7.8892  -16.3148   25.4341 O   0  0  0  0  0  0  0  0  0  0  0  0
    7.6908  -15.3309   23.3722 N   0  0  0  0  0  0  0  0  0  0  0  0
    8.7045  -16.1507   22.7496 C   0  0  1  0  0  0  0  0  0  0  0  0
    8.6479  -16.0690   21.2450 C   0  0  0  0  0  0  0  0  0  0  0  0
    9.6006  -16.9727   20.5673 C   0  0  0  0  0  0  0  0  0  0  0  0
    9.4195  -18.3321   20.4305 C   0  0  0  0  0  0  0  0  0  0  0  0
   10.4848  -18.8244   19.7684 N   0  0  0  0  0  0  0  0  0  0  0  0
   11.3273  -17.8144   19.4865 C   0  0  0  0  0  0  0  0  0  0  0  0
   10.7583  -16.6904   19.9890 N   0  0  0  0  0  0  0  0  0  0  0  0
   10.0255  -15.8477   23.3081 C   0  0  0  0  0  0  0  0  0  0  0  0
   10.6027  -14.7410   23.2073 O   0  0  0  0  0  0  0  0  0  0  0  0
   12.4529  -17.2171   28.9440 N   0  0  0  0  0  0  0  0  0  0  0  0
   11.2189  -16.7718   28.3407 C   0  0  0  0  0  0  0  0  0  0  0  0
   10.2117  -16.8644   29.0659 O   0  0  0  0  0  0  0  0  0  0  0  0
   11.2024  -16.2495   26.9527 C   0  0  0  0  0  0  0  0  0  0  0  0
   12.0445  -17.0524   26.0168 C   0  0  0  0  0  0  0  0  0  0  0  0
   12.0483  -16.5938   24.5951 C   0  0  2  0  0  0  0  0  0  0  0  0
   10.7241  -16.8595   24.0184 N   0  0  0  0  0  0  0  0  0  0  0  0
   13.0760  -17.3218   23.8245 C   0  0  0  0  0  0  0  0  0  0  0  0
   14.4212  -17.0445   24.1012 O   0  0  0  0  0  0  0  0  0  0  0  0
   12.8232  -18.1669   22.9439 O   0  0  0  0  0  0  0  0  0  0  0  0
  1  2  1  0
  3  2  1  0
  3  4  1  6
  5  3  1  0
  5  6  1  1
  7  5  1  0
  8  7  2  0
  9  7  1  0
 10  9  1  0
 10 11  1  6
 11 12  1  0
 12 13  2  0
 12 16  1  0
 13 14  1  0
 14 15  1  0
 16 15  2  0
 17 18  2  0
 17 10  1  0
 20 19  1  0
 21 20  2  0
 22 20  1  0
 24 23  1  1
 23 22  1  0
 24 25  1  0
 25 17  1  0
 26 24  1  0
 27 26  1  0
 28 26  2  0
M  END
$$$$
