IHQ.pdb
     RDKit          3D

 28 28  0  0  1  0  0  0  0  0999 V2000
    7.7711  -11.6546   22.1516 C   0  0  0  0  0  0  0  0  0  0  0  0
    7.4693  -13.1246   21.9492 C   0  0  0  0  0  0  0  0  0  0  0  0
    8.1184  -13.5774   20.6646 C   0  0  2  0  0  0  0  0  0  0  0  0
    7.6784  -12.6957   19.5160 C   0  0  0  0  0  0  0  0  0  0  0  0
    7.7689  -14.9968   20.3103 C   0  0  2  0  0  0  0  0  0  0  0  0
    6.3657  -15.2177   20.1815 N   0  0  0  0  0  0  0  0  0  0  0  0
    8.3493  -15.9765   21.2715 C   0  0  0  0  0  0  0  0  0  0  0  0
    7.6336  -16.4522   22.2073 O   0  0  0  0  0  0  0  0  0  0  0  0
    9.6886  -16.4122   21.1902 N   0  0  0  0  0  0  0  0  0  0  0  0
   10.2987  -17.3379   22.1165 C   0  0  1  0  0  0  0  0  0  0  0  0
   11.5697  -17.9313   21.5633 C   0  0  0  0  0  0  0  0  0  0  0  0
   12.1831  -18.9444   22.4470 C   0  0  0  0  0  0  0  0  0  0  0  0
   11.6713  -19.3212   23.6700 C   0  0  0  0  0  0  0  0  0  0  0  0
   12.4917  -20.2558   24.1888 N   0  0  0  0  0  0  0  0  0  0  0  0
   13.5014  -20.4755   23.3278 C   0  0  0  0  0  0  0  0  0  0  0  0
   13.2853  -19.6567   22.2682 N   0  0  0  0  0  0  0  0  0  0  0  0
   10.4621  -16.7151   23.4334 C   0  0  0  0  0  0  0  0  0  0  0  0
   11.0007  -15.6020   23.6311 O   0  0  0  0  0  0  0  0  0  0  0  0
    7.3855  -13.4501   26.0862 N   0  0  0  0  0  0  0  0  0  0  0  0
    6.8547  -14.7326   25.6876 C   0  0  0  0  0  0  0  0  0  0  0  0
    5.6330  -14.7491   25.4508 O   0  0  0  0  0  0  0  0  0  0  0  0
    7.7411  -15.9170   25.5825 C   0  0  0  0  0  0  0  0  0  0  0  0
    9.1513  -15.6277   25.9791 C   0  0  0  0  0  0  0  0  0  0  0  0
   10.0915  -16.7869   25.9158 C   0  0  2  0  0  0  0  0  0  0  0  0
    9.9863  -17.3974   24.5843 N   0  0  0  0  0  0  0  0  0  0  0  0
    9.7426  -17.7865   26.9447 C   0  0  0  0  0  0  0  0  0  0  0  0
    9.3454  -19.0592   26.5137 O   0  0  0  0  0  0  0  0  0  0  0  0
    9.7788  -17.5707   28.1718 O   0  0  0  0  0  0  0  0  0  0  0  0
  1  2  1  0
  3  2  1  0
  3  4  1  6
  5  3  1  0
  5  6  1  1
  7  5  1  0
  8  7  2  0
  9  7  1  0
 10  9  1  0
 10 11  1  6
 11 12  1  0
 12 13  2  0
 12 16  1  0
 13 14  1  0
 14 15  1  0
 16 15  2  0
 17 18  2  0
 17 10  1  0
 20 19  1  0
 21 20  2  0
 22 20  1  0
 24 23  1  6
 23 22  1  0
 24 25  1  0
 25 17  1  0
 26 24  1  0
 27 26  1  0
 28 26  2  0
M  END
$$$$
