IHQ.pdb
     RDKit          3D

 28 28  0  0  1  0  0  0  0  0999 V2000
    5.7945  -10.4060   26.2087 C   0  0  0  0  0  0  0  0  0  0  0  0
    6.8189  -11.4570   26.5816 C   0  0  0  0  0  0  0  0  0  0  0  0
    6.5272  -12.7134   25.7987 C   0  0  2  0  0  0  0  0  0  0  0  0
    5.1164  -13.1869   26.0744 C   0  0  0  0  0  0  0  0  0  0  0  0
    7.4624  -13.8394   26.1447 C   0  0  2  0  0  0  0  0  0  0  0  0
    8.7220  -13.3942   26.6444 N   0  0  0  0  0  0  0  0  0  0  0  0
    7.6725  -14.7692   24.9994 C   0  0  0  0  0  0  0  0  0  0  0  0
    6.7247  -15.5164   24.6025 O   0  0  0  0  0  0  0  0  0  0  0  0
    8.9041  -14.8621   24.3176 N   0  0  0  0  0  0  0  0  0  0  0  0
    9.2033  -15.8574   23.3141 C   0  0  1  0  0  0  0  0  0  0  0  0
    9.7844  -15.2411   22.0667 C   0  0  0  0  0  0  0  0  0  0  0  0
    8.7894  -14.5244   21.2421 C   0  0  0  0  0  0  0  0  0  0  0  0
    7.4423  -14.4640   21.5272 C   0  0  0  0  0  0  0  0  0  0  0  0
    6.8499  -13.7349   20.5613 N   0  0  0  0  0  0  0  0  0  0  0  0
    7.7851  -13.3371   19.6802 C   0  0  0  0  0  0  0  0  0  0  0  0
    8.9655  -13.8365   20.1240 N   0  0  0  0  0  0  0  0  0  0  0  0
   10.0266  -16.9290   23.8821 C   0  0  0  0  0  0  0  0  0  0  0  0
   11.1811  -16.7710   24.3404 O   0  0  0  0  0  0  0  0  0  0  0  0
    7.2444  -22.0063   26.2715 N   0  0  0  0  0  0  0  0  0  0  0  0
    7.4534  -20.7565   26.9641 C   0  0  0  0  0  0  0  0  0  0  0  0
    6.7585  -20.5938   27.9836 O   0  0  0  0  0  0  0  0  0  0  0  0
    8.4367  -19.7682   26.4581 C   0  0  0  0  0  0  0  0  0  0  0  0
    9.1582  -20.2353   25.2370 C   0  0  0  0  0  0  0  0  0  0  0  0
   10.1890  -19.2985   24.6971 C   0  0  2  0  0  0  0  0  0  0  0  0
    9.5058  -18.2492   23.9297 N   0  0  0  0  0  0  0  0  0  0  0  0
   11.1271  -20.0214   23.8156 C   0  0  0  0  0  0  0  0  0  0  0  0
   10.7095  -20.3086   22.5093 O   0  0  0  0  0  0  0  0  0  0  0  0
   12.2664  -20.3925   24.1591 O   0  0  0  0  0  0  0  0  0  0  0  0
  1  2  1  0
  3  2  1  0
  3  4  1  1
  5  3  1  0
  5  6  1  6
  7  5  1  0
  8  7  2  0
  9  7  1  0
 10  9  1  0
 10 11  1  6
 11 12  1  0
 12 13  2  0
 12 16  1  0
 13 14  1  0
 14 15  1  0
 16 15  2  0
 17 18  2  0
 17 10  1  0
 20 19  1  0
 21 20  2  0
 22 20  1  0
 24 23  1  6
 23 22  1  0
 24 25  1  0
 25 17  1  0
 26 24  1  0
 27 26  1  0
 28 26  2  0
M  END
$$$$
