IHQ.pdb
     RDKit          3D

 28 28  0  0  1  0  0  0  0  0999 V2000
    6.2837  -12.0075   27.1436 C   0  0  0  0  0  0  0  0  0  0  0  0
    6.0153  -12.9614   25.9988 C   0  0  0  0  0  0  0  0  0  0  0  0
    7.1943  -13.8928   25.8611 C   0  0  2  0  0  0  0  0  0  0  0  0
    8.4533  -13.1051   25.5701 C   0  0  0  0  0  0  0  0  0  0  0  0
    7.0142  -14.8919   24.7513 C   0  0  2  0  0  0  0  0  0  0  0  0
    5.7771  -15.5982   24.8224 N   0  0  0  0  0  0  0  0  0  0  0  0
    8.1453  -15.8590   24.6749 C   0  0  0  0  0  0  0  0  0  0  0  0
    8.1405  -16.9042   25.3972 O   0  0  0  0  0  0  0  0  0  0  0  0
    9.2488  -15.6649   23.8178 N   0  0  0  0  0  0  0  0  0  0  0  0
   10.3806  -16.5591   23.7364 C   0  0  1  0  0  0  0  0  0  0  0  0
   11.1494  -16.3777   22.4520 C   0  0  0  0  0  0  0  0  0  0  0  0
   10.4278  -16.8628   21.2572 C   0  0  0  0  0  0  0  0  0  0  0  0
    9.4253  -17.8081   21.2851 C   0  0  0  0  0  0  0  0  0  0  0  0
    9.0083  -18.0028   20.0187 N   0  0  0  0  0  0  0  0  0  0  0  0
    9.7193  -17.2081   19.1988 C   0  0  0  0  0  0  0  0  0  0  0  0
   10.5825  -16.5203   19.9871 N   0  0  0  0  0  0  0  0  0  0  0  0
   11.2091  -16.4509   24.9409 C   0  0  0  0  0  0  0  0  0  0  0  0
   12.0288  -15.5296   25.1590 O   0  0  0  0  0  0  0  0  0  0  0  0
   10.6140  -14.1056   28.5224 N   0  0  0  0  0  0  0  0  0  0  0  0
   10.6168  -15.3662   29.2269 C   0  0  0  0  0  0  0  0  0  0  0  0
   11.0829  -15.3268   30.3802 O   0  0  0  0  0  0  0  0  0  0  0  0
   10.0917  -16.5935   28.5806 C   0  0  0  0  0  0  0  0  0  0  0  0
   11.1452  -17.6251   28.3444 C   0  0  0  0  0  0  0  0  0  0  0  0
   11.9803  -17.4281   27.1215 C   0  0  2  0  0  0  0  0  0  0  0  0
   11.0966  -17.4449   25.9486 N   0  0  0  0  0  0  0  0  0  0  0  0
   12.9775  -18.5103   27.0021 C   0  0  0  0  0  0  0  0  0  0  0  0
   12.8099  -19.4451   25.9720 O   0  0  0  0  0  0  0  0  0  0  0  0
   13.9585  -18.6454   27.7591 O   0  0  0  0  0  0  0  0  0  0  0  0
  1  2  1  0
  3  2  1  0
  3  4  1  6
  5  3  1  0
  5  6  1  1
  7  5  1  0
  8  7  2  0
  9  7  1  0
 10  9  1  0
 10 11  1  6
 11 12  1  0
 12 13  2  0
 12 16  1  0
 13 14  1  0
 14 15  1  0
 16 15  2  0
 17 18  2  0
 17 10  1  0
 20 19  1  0
 21 20  2  0
 22 20  1  0
 24 23  1  1
 23 22  1  0
 24 25  1  0
 25 17  1  0
 26 24  1  0
 27 26  1  0
 28 26  2  0
M  END
$$$$
