IHQ.pdb
     RDKit          3D

 28 28  0  0  1  0  0  0  0  0999 V2000
    6.1638  -11.4503   27.1420 C   0  0  0  0  0  0  0  0  0  0  0  0
    5.6624  -12.5674   26.2512 C   0  0  0  0  0  0  0  0  0  0  0  0
    6.8496  -13.3457   25.7399 C   0  0  2  0  0  0  0  0  0  0  0  0
    7.7770  -12.4365   24.9628 C   0  0  0  0  0  0  0  0  0  0  0  0
    6.4510  -14.4757   24.8309 C   0  0  2  0  0  0  0  0  0  0  0  0
    5.5115  -15.3715   25.4218 N   0  0  0  0  0  0  0  0  0  0  0  0
    7.6294  -15.2373   24.3288 C   0  0  0  0  0  0  0  0  0  0  0  0
    7.9946  -16.3048   24.9128 O   0  0  0  0  0  0  0  0  0  0  0  0
    8.3775  -14.8194   23.2082 N   0  0  0  0  0  0  0  0  0  0  0  0
    9.4158  -15.6077   22.5856 C   0  0  1  0  0  0  0  0  0  0  0  0
    9.7897  -15.0724   21.2265 C   0  0  0  0  0  0  0  0  0  0  0  0
    8.6246  -14.7585   20.3734 C   0  0  0  0  0  0  0  0  0  0  0  0
    8.3406  -13.5048   19.8763 C   0  0  0  0  0  0  0  0  0  0  0  0
    7.2087  -13.5967   19.1511 N   0  0  0  0  0  0  0  0  0  0  0  0
    6.7755  -14.8698   19.1791 C   0  0  0  0  0  0  0  0  0  0  0  0
    7.6645  -15.5595   19.9367 N   0  0  0  0  0  0  0  0  0  0  0  0
   10.5565  -15.7642   23.4929 C   0  0  0  0  0  0  0  0  0  0  0  0
   11.3814  -14.8606   23.7596 O   0  0  0  0  0  0  0  0  0  0  0  0
   12.3592  -17.2463   29.2366 N   0  0  0  0  0  0  0  0  0  0  0  0
   11.0286  -17.5317   28.7537 C   0  0  0  0  0  0  0  0  0  0  0  0
   10.2987  -18.1515   29.5487 O   0  0  0  0  0  0  0  0  0  0  0  0
   10.6075  -17.0977   27.3994 C   0  0  0  0  0  0  0  0  0  0  0  0
   11.2019  -17.9274   26.3095 C   0  0  0  0  0  0  0  0  0  0  0  0
   11.7939  -17.1672   25.1679 C   0  0  2  0  0  0  0  0  0  0  0  0
   10.7670  -17.0163   24.1289 N   0  0  0  0  0  0  0  0  0  0  0  0
   12.9523  -17.8953   24.6130 C   0  0  0  0  0  0  0  0  0  0  0  0
   12.7400  -19.1930   24.1291 O   0  0  0  0  0  0  0  0  0  0  0  0
   14.1065  -17.4294   24.5477 O   0  0  0  0  0  0  0  0  0  0  0  0
  1  2  1  0
  3  2  1  0
  3  4  1  6
  5  3  1  0
  5  6  1  1
  7  5  1  0
  8  7  2  0
  9  7  1  0
 10  9  1  0
 10 11  1  6
 11 12  1  0
 12 13  2  0
 12 16  1  0
 13 14  1  0
 14 15  1  0
 16 15  2  0
 17 18  2  0
 17 10  1  0
 20 19  1  0
 21 20  2  0
 22 20  1  0
 24 23  1  1
 23 22  1  0
 24 25  1  0
 25 17  1  0
 26 24  1  0
 27 26  1  0
 28 26  2  0
M  END
$$$$
