IHQ.pdb
     RDKit          3D

 28 28  0  0  1  0  0  0  0  0999 V2000
    6.7715  -12.6431   21.9036 C   0  0  0  0  0  0  0  0  0  0  0  0
    6.8963  -13.5009   20.6621 C   0  0  0  0  0  0  0  0  0  0  0  0
    8.3428  -13.8948   20.4920 C   0  0  2  0  0  0  0  0  0  0  0  0
    9.2000  -12.6648   20.2853 C   0  0  0  0  0  0  0  0  0  0  0  0
    8.5587  -14.8048   19.3140 C   0  0  2  0  0  0  0  0  0  0  0  0
    7.6657  -15.9167   19.2881 N   0  0  0  0  0  0  0  0  0  0  0  0
    9.9666  -15.2843   19.2232 C   0  0  0  0  0  0  0  0  0  0  0  0
   10.3037  -16.3798   19.7713 O   0  0  0  0  0  0  0  0  0  0  0  0
   10.9682  -14.5624   18.5407 N   0  0  0  0  0  0  0  0  0  0  0  0
   12.3743  -14.8917   18.5781 C   0  0  1  0  0  0  0  0  0  0  0  0
   13.1716  -14.0652   17.6009 C   0  0  0  0  0  0  0  0  0  0  0  0
   14.5496  -14.5580   17.3957 C   0  0  0  0  0  0  0  0  0  0  0  0
   14.9088  -15.8886   17.4058 C   0  0  0  0  0  0  0  0  0  0  0  0
   16.2373  -15.9575   17.1915 N   0  0  0  0  0  0  0  0  0  0  0  0
   16.7206  -14.7105   17.0476 C   0  0  0  0  0  0  0  0  0  0  0  0
   15.6619  -13.8728   17.1778 N   0  0  0  0  0  0  0  0  0  0  0  0
   12.8801  -14.8318   19.9527 C   0  0  0  0  0  0  0  0  0  0  0  0
   12.5216  -13.9878   20.8055 O   0  0  0  0  0  0  0  0  0  0  0  0
   10.6204  -17.9578   23.6943 N   0  0  0  0  0  0  0  0  0  0  0  0
   11.5963  -17.2216   24.4629 C   0  0  0  0  0  0  0  0  0  0  0  0
   11.2456  -16.9270   25.6201 O   0  0  0  0  0  0  0  0  0  0  0  0
   12.9090  -16.8641   23.8724 C   0  0  0  0  0  0  0  0  0  0  0  0
   12.8115  -16.4483   22.4415 C   0  0  0  0  0  0  0  0  0  0  0  0
   14.0923  -16.0170   21.8049 C   0  0  2  0  0  0  0  0  0  0  0  0
   13.8447  -15.7839   20.3762 N   0  0  0  0  0  0  0  0  0  0  0  0
   15.1208  -17.0645   21.9618 C   0  0  0  0  0  0  0  0  0  0  0  0
   15.3280  -17.9448   20.8917 O   0  0  0  0  0  0  0  0  0  0  0  0
   15.8162  -17.2156   22.9851 O   0  0  0  0  0  0  0  0  0  0  0  0
  1  2  1  0
  3  2  1  0
  3  4  1  6
  5  3  1  0
  5  6  1  1
  7  5  1  0
  8  7  2  0
  9  7  1  0
 10  9  1  0
 10 11  1  6
 11 12  1  0
 12 13  2  0
 12 16  1  0
 13 14  1  0
 14 15  1  0
 16 15  2  0
 17 18  2  0
 17 10  1  0
 20 19  1  0
 21 20  2  0
 22 20  1  0
 24 23  1  1
 23 22  1  0
 24 25  1  0
 25 17  1  0
 26 24  1  0
 27 26  1  0
 28 26  2  0
M  END
$$$$
