WSN.pdb
     RDKit          3D

 29 30  0  0  1  0  0  0  0  0999 V2000
   10.4410  -16.3800   22.0531 N   0  0  0  0  0  0  0  0  0  0  0  0
    9.8004  -15.6547   23.1338 C   0  0  1  0  0  0  0  0  0  0  0  0
    8.3296  -15.9966   23.2113 C   0  0  0  0  0  0  0  0  0  0  0  0
    7.5334  -15.4901   22.0936 C   0  0  0  0  0  0  0  0  0  0  0  0
    6.4337  -16.1129   21.5426 C   0  0  0  0  0  0  0  0  0  0  0  0
    5.9551  -15.3697   20.5450 N   0  0  0  0  0  0  0  0  0  0  0  0
    6.6789  -14.2611   20.3854 C   0  0  0  0  0  0  0  0  0  0  0  0
    6.5758  -13.2045   19.5016 C   0  0  0  0  0  0  0  0  0  0  0  0
    7.5120  -12.1995   19.6165 C   0  0  0  0  0  0  0  0  0  0  0  0
    8.5186  -12.2527   20.5865 C   0  0  0  0  0  0  0  0  0  0  0  0
    8.6005  -13.3193   21.4583 C   0  0  0  0  0  0  0  0  0  0  0  0
    7.6765  -14.3180   21.3498 C   0  0  0  0  0  0  0  0  0  0  0  0
   10.4856  -15.9255   24.4201 C   0  0  0  0  0  0  0  0  0  0  0  0
   11.2200  -16.9346   24.4980 O   0  0  0  0  0  0  0  0  0  0  0  0
    9.1478  -14.2497   27.8888 O   0  0  0  0  0  0  0  0  0  0  0  0
   10.5066  -14.1779   27.7261 C   0  0  0  0  0  0  0  0  0  0  0  0
   11.0421  -15.2755   26.8062 C   0  0  2  0  0  0  0  0  0  0  0  0
   10.3430  -15.0989   25.5493 N   0  0  0  0  0  0  0  0  0  0  0  0
   10.7146  -16.5687   27.4258 C   0  0  0  0  0  0  0  0  0  0  0  0
    9.5605  -17.0682   27.1971 O   0  0  0  0  0  0  0  0  0  0  0  0
   11.4114  -19.8412   26.5528 N   0  0  0  0  0  0  0  0  0  0  0  0
   12.3798  -20.2009   27.5401 C   0  0  0  0  0  0  0  0  0  0  0  0
   13.2782  -21.0281   27.3152 O   0  0  0  0  0  0  0  0  0  0  0  0
   12.3021  -19.5615   28.8739 C   0  0  0  0  0  0  0  0  0  0  0  0
   11.1716  -18.5485   28.9115 C   0  0  2  0  0  0  0  0  0  0  0  0
   11.5701  -17.3166   28.2596 N   0  0  0  0  0  0  0  0  0  0  0  0
   10.8889  -18.2513   30.3327 C   0  0  0  0  0  0  0  0  0  0  0  0
   11.1013  -16.9639   30.8391 O   0  0  0  0  0  0  0  0  0  0  0  0
   10.4499  -19.1390   31.1330 O   0  0  0  0  0  0  0  0  0  0  0  0
  2  1  1  6
  2  3  1  0
  2 13  1  0
  3  4  1  0
  4 12  1  0
  5  4  2  0
  5  6  1  0
  6  7  1  0
  7  8  1  0
  8  9  2  0
 10  9  1  0
 11 10  2  0
 12  7  2  0
 12 11  1  0
 13 18  1  0
 13 14  2  0
 15 16  1  0
 17 16  1  1
 18 17  1  0
 19 17  1  0
 19 26  1  0
 20 19  2  0
 22 23  2  0
 22 21  1  0
 24 22  1  0
 25 27  1  0
 25 24  1  1
 25 26  1  0
 27 28  1  0
 29 27  2  0
M  END
$$$$
