WSN.pdb
     RDKit          3D

 29 30  0  0  1  0  0  0  0  0999 V2000
    6.4225  -17.3208   25.4028 N   0  0  0  0  0  0  0  0  0  0  0  0
    6.7274  -16.3686   24.3518 C   0  0  1  0  0  0  0  0  0  0  0  0
    7.9765  -15.5842   24.6844 C   0  0  0  0  0  0  0  0  0  0  0  0
    7.8941  -14.8190   25.9283 C   0  0  0  0  0  0  0  0  0  0  0  0
    8.3201  -15.2496   27.1669 C   0  0  0  0  0  0  0  0  0  0  0  0
    8.0940  -14.2967   28.0710 N   0  0  0  0  0  0  0  0  0  0  0  0
    7.5300  -13.2277   27.5076 C   0  0  0  0  0  0  0  0  0  0  0  0
    7.1181  -12.0148   28.0244 C   0  0  0  0  0  0  0  0  0  0  0  0
    6.5631  -11.1144   27.1406 C   0  0  0  0  0  0  0  0  0  0  0  0
    6.4260  -11.4210   25.7826 C   0  0  0  0  0  0  0  0  0  0  0  0
    6.8455  -12.6400   25.2903 C   0  0  0  0  0  0  0  0  0  0  0  0
    7.3958  -13.5362   26.1602 C   0  0  0  0  0  0  0  0  0  0  0  0
    6.8554  -17.0584   23.0459 C   0  0  0  0  0  0  0  0  0  0  0  0
    5.8830  -17.7273   22.6326 O   0  0  0  0  0  0  0  0  0  0  0  0
    8.4808  -14.3094   20.8784 O   0  0  0  0  0  0  0  0  0  0  0  0
    7.5048  -15.2594   20.7270 C   0  0  0  0  0  0  0  0  0  0  0  0
    8.0531  -16.6818   20.8437 C   0  0  2  0  0  0  0  0  0  0  0  0
    8.0194  -16.9920   22.2589 N   0  0  0  0  0  0  0  0  0  0  0  0
    9.4313  -16.6667   20.3301 C   0  0  0  0  0  0  0  0  0  0  0  0
    9.6066  -16.4101   19.0902 O   0  0  0  0  0  0  0  0  0  0  0  0
   11.3798  -18.2186   22.8543 N   0  0  0  0  0  0  0  0  0  0  0  0
   12.6078  -17.4882   22.8310 C   0  0  0  0  0  0  0  0  0  0  0  0
   13.3722  -17.4476   23.8087 O   0  0  0  0  0  0  0  0  0  0  0  0
   12.9735  -16.7572   21.5957 C   0  0  0  0  0  0  0  0  0  0  0  0
   11.9224  -16.9725   20.5211 C   0  0  2  0  0  0  0  0  0  0  0  0
   10.5913  -16.9126   21.0919 N   0  0  0  0  0  0  0  0  0  0  0  0
   12.1281  -18.3272   19.9640 C   0  0  0  0  0  0  0  0  0  0  0  0
   13.2953  -18.6265   19.2518 O   0  0  0  0  0  0  0  0  0  0  0  0
   11.2672  -19.2541   20.1091 O   0  0  0  0  0  0  0  0  0  0  0  0
  2  1  1  1
  2  3  1  0
  2 13  1  0
  3  4  1  0
  4 12  1  0
  5  4  2  0
  5  6  1  0
  6  7  1  0
  7  8  1  0
  8  9  2  0
 10  9  1  0
 11 10  2  0
 12  7  2  0
 12 11  1  0
 13 18  1  0
 13 14  2  0
 15 16  1  0
 17 16  1  1
 18 17  1  0
 19 17  1  0
 19 26  1  0
 20 19  2  0
 22 23  2  0
 22 21  1  0
 24 22  1  0
 25 27  1  0
 25 24  1  1
 25 26  1  0
 27 28  1  0
 29 27  2  0
M  END
$$$$
