WSN.pdb
     RDKit          3D

 29 30  0  0  1  0  0  0  0  0999 V2000
    8.9546  -16.0136   22.3756 N   0  0  0  0  0  0  0  0  0  0  0  0
    8.8778  -15.4674   23.7172 C   0  0  1  0  0  0  0  0  0  0  0  0
    7.7591  -16.1189   24.4985 C   0  0  0  0  0  0  0  0  0  0  0  0
    6.7342  -15.1892   24.9726 C   0  0  0  0  0  0  0  0  0  0  0  0
    5.3812  -15.4470   25.0337 C   0  0  0  0  0  0  0  0  0  0  0  0
    4.7464  -14.3793   25.5170 N   0  0  0  0  0  0  0  0  0  0  0  0
    5.6051  -13.3966   25.7915 C   0  0  0  0  0  0  0  0  0  0  0  0
    5.4284  -12.1244   26.2996 C   0  0  0  0  0  0  0  0  0  0  0  0
    6.5590  -11.3529   26.4616 C   0  0  0  0  0  0  0  0  0  0  0  0
    7.8257  -11.8420   26.1250 C   0  0  0  0  0  0  0  0  0  0  0  0
    7.9764  -13.1170   25.6190 C   0  0  0  0  0  0  0  0  0  0  0  0
    6.8607  -13.8861   25.4560 C   0  0  0  0  0  0  0  0  0  0  0  0
   10.1782  -15.6134   24.4137 C   0  0  0  0  0  0  0  0  0  0  0  0
   11.1420  -16.0877   23.7735 O   0  0  0  0  0  0  0  0  0  0  0  0
   10.3400  -15.3297   28.5943 O   0  0  0  0  0  0  0  0  0  0  0  0
   11.3552  -14.7742   27.8602 C   0  0  0  0  0  0  0  0  0  0  0  0
   11.5714  -15.4926   26.5280 C   0  0  2  0  0  0  0  0  0  0  0  0
   10.3699  -15.2432   25.7572 N   0  0  0  0  0  0  0  0  0  0  0  0
   11.7341  -16.9249   26.8207 C   0  0  0  0  0  0  0  0  0  0  0  0
   10.7158  -17.6849   26.6816 O   0  0  0  0  0  0  0  0  0  0  0  0
   13.8340  -19.4419   25.0351 N   0  0  0  0  0  0  0  0  0  0  0  0
   14.8374  -19.6215   26.0365 C   0  0  0  0  0  0  0  0  0  0  0  0
   16.0055  -19.9344   25.7543 O   0  0  0  0  0  0  0  0  0  0  0  0
   14.4634  -19.4267   27.4564 C   0  0  0  0  0  0  0  0  0  0  0  0
   13.0247  -18.9533   27.5659 C   0  0  2  0  0  0  0  0  0  0  0  0
   12.9272  -17.5428   27.2460 N   0  0  0  0  0  0  0  0  0  0  0  0
   12.6012  -19.1411   28.9706 C   0  0  0  0  0  0  0  0  0  0  0  0
   12.5279  -20.4270   29.5186 O   0  0  0  0  0  0  0  0  0  0  0  0
   12.2934  -18.1584   29.7195 O   0  0  0  0  0  0  0  0  0  0  0  0
  2  1  1  6
  2  3  1  0
  2 13  1  0
  3  4  1  0
  4 12  1  0
  5  4  2  0
  5  6  1  0
  6  7  1  0
  7  8  1  0
  8  9  2  0
 10  9  1  0
 11 10  2  0
 12  7  2  0
 12 11  1  0
 13 18  1  0
 13 14  2  0
 15 16  1  0
 17 16  1  1
 18 17  1  0
 19 17  1  0
 19 26  1  0
 20 19  2  0
 22 23  2  0
 22 21  1  0
 24 22  1  0
 25 27  1  0
 25 24  1  1
 25 26  1  0
 27 28  1  0
 29 27  2  0
M  END
$$$$
