WSN.pdb
     RDKit          3D

 29 30  0  0  1  0  0  0  0  0999 V2000
    6.2605  -17.7076   24.8580 N   0  0  0  0  0  0  0  0  0  0  0  0
    7.0351  -16.7926   24.0414 C   0  0  1  0  0  0  0  0  0  0  0  0
    8.1518  -16.1683   24.8473 C   0  0  0  0  0  0  0  0  0  0  0  0
    7.7072  -15.1749   25.8245 C   0  0  0  0  0  0  0  0  0  0  0  0
    7.3022  -15.4418   27.1151 C   0  0  0  0  0  0  0  0  0  0  0  0
    6.9686  -14.3026   27.7212 N   0  0  0  0  0  0  0  0  0  0  0  0
    7.1264  -13.2619   26.9025 C   0  0  0  0  0  0  0  0  0  0  0  0
    6.9162  -11.9072   27.0720 C   0  0  0  0  0  0  0  0  0  0  0  0
    7.1876  -11.0924   25.9940 C   0  0  0  0  0  0  0  0  0  0  0  0
    7.6549  -11.6195   24.7853 C   0  0  0  0  0  0  0  0  0  0  0  0
    7.8573  -12.9769   24.6408 C   0  0  0  0  0  0  0  0  0  0  0  0
    7.5902  -13.7894   25.7045 C   0  0  0  0  0  0  0  0  0  0  0  0
    7.5589  -17.4841   22.8393 C   0  0  0  0  0  0  0  0  0  0  0  0
    7.8751  -18.6896   22.9412 O   0  0  0  0  0  0  0  0  0  0  0  0
    8.2615  -15.1285   19.6600 O   0  0  0  0  0  0  0  0  0  0  0  0
    8.1085  -16.4407   19.2957 C   0  0  0  0  0  0  0  0  0  0  0  0
    8.3972  -17.4029   20.4483 C   0  0  2  0  0  0  0  0  0  0  0  0
    7.7145  -16.8424   21.5972 N   0  0  0  0  0  0  0  0  0  0  0  0
    9.8542  -17.4267   20.6485 C   0  0  0  0  0  0  0  0  0  0  0  0
   10.4093  -16.3854   21.1399 O   0  0  0  0  0  0  0  0  0  0  0  0
   11.2109  -20.6604   23.0635 N   0  0  0  0  0  0  0  0  0  0  0  0
   12.3200  -19.8821   22.6094 C   0  0  0  0  0  0  0  0  0  0  0  0
   13.0556  -19.2589   23.3920 O   0  0  0  0  0  0  0  0  0  0  0  0
   12.5941  -19.8213   21.1551 C   0  0  0  0  0  0  0  0  0  0  0  0
   12.1339  -18.4918   20.5837 C   0  0  2  0  0  0  0  0  0  0  0  0
   10.7045  -18.5085   20.3434 N   0  0  0  0  0  0  0  0  0  0  0  0
   12.8205  -18.3043   19.2870 C   0  0  0  0  0  0  0  0  0  0  0  0
   14.0702  -17.6761   19.2357 O   0  0  0  0  0  0  0  0  0  0  0  0
   12.3098  -18.7003   18.1899 O   0  0  0  0  0  0  0  0  0  0  0  0
  2  1  1  1
  2  3  1  0
  2 13  1  0
  3  4  1  0
  4 12  1  0
  5  4  2  0
  5  6  1  0
  6  7  1  0
  7  8  1  0
  8  9  2  0
 10  9  1  0
 11 10  2  0
 12  7  2  0
 12 11  1  0
 13 18  1  0
 13 14  2  0
 15 16  1  0
 17 16  1  6
 18 17  1  0
 19 17  1  0
 19 26  1  0
 20 19  2  0
 22 23  2  0
 22 21  1  0
 24 22  1  0
 25 27  1  0
 25 24  1  6
 25 26  1  0
 27 28  1  0
 29 27  2  0
M  END
$$$$
