WSN.pdb
     RDKit          3D

 29 30  0  0  1  0  0  0  0  0999 V2000
    8.2542  -15.3968   23.1539 N   0  0  0  0  0  0  0  0  0  0  0  0
    9.3269  -15.4276   24.1299 C   0  0  1  0  0  0  0  0  0  0  0  0
    8.7937  -15.7713   25.5024 C   0  0  0  0  0  0  0  0  0  0  0  0
    7.6195  -14.9970   25.9040 C   0  0  0  0  0  0  0  0  0  0  0  0
    6.3646  -15.5106   26.1537 C   0  0  0  0  0  0  0  0  0  0  0  0
    5.5398  -14.5218   26.4979 N   0  0  0  0  0  0  0  0  0  0  0  0
    6.1735  -13.3485   26.4958 C   0  0  0  0  0  0  0  0  0  0  0  0
    5.7502  -12.0644   26.7786 C   0  0  0  0  0  0  0  0  0  0  0  0
    6.6884  -11.0598   26.6765 C   0  0  0  0  0  0  0  0  0  0  0  0
    8.0083  -11.3347   26.3032 C   0  0  0  0  0  0  0  0  0  0  0  0
    8.4070  -12.6264   26.0258 C   0  0  0  0  0  0  0  0  0  0  0  0
    7.4827  -13.6258   26.1249 C   0  0  0  0  0  0  0  0  0  0  0  0
   10.3858  -16.3761   23.7095 C   0  0  0  0  0  0  0  0  0  0  0  0
   11.0108  -16.9962   24.5975 O   0  0  0  0  0  0  0  0  0  0  0  0
   11.1423  -16.7829   19.6776 O   0  0  0  0  0  0  0  0  0  0  0  0
   11.2899  -17.8976   20.4611 C   0  0  0  0  0  0  0  0  0  0  0  0
   11.7038  -17.5532   21.8921 C   0  0  2  0  0  0  0  0  0  0  0  0
   10.7142  -16.6041   22.3608 N   0  0  0  0  0  0  0  0  0  0  0  0
   13.0424  -16.9467   21.8301 C   0  0  0  0  0  0  0  0  0  0  0  0
   13.8794  -17.4250   20.9906 O   0  0  0  0  0  0  0  0  0  0  0  0
   17.2015  -17.8830   24.4654 N   0  0  0  0  0  0  0  0  0  0  0  0
   16.1054  -17.1298   24.9882 C   0  0  0  0  0  0  0  0  0  0  0  0
   16.1894  -16.4875   26.0477 O   0  0  0  0  0  0  0  0  0  0  0  0
   14.8297  -17.1206   24.2357 C   0  0  0  0  0  0  0  0  0  0  0  0
   14.7428  -15.8874   23.3539 C   0  0  2  0  0  0  0  0  0  0  0  0
   13.4911  -15.8714   22.6231 N   0  0  0  0  0  0  0  0  0  0  0  0
   15.8504  -15.9619   22.3763 C   0  0  0  0  0  0  0  0  0  0  0  0
   15.5780  -16.1440   21.0155 O   0  0  0  0  0  0  0  0  0  0  0  0
   17.0698  -15.8647   22.7297 O   0  0  0  0  0  0  0  0  0  0  0  0
  2  1  1  6
  2  3  1  0
  2 13  1  0
  3  4  1  0
  4 12  1  0
  5  4  2  0
  5  6  1  0
  6  7  1  0
  7  8  1  0
  8  9  2  0
 10  9  1  0
 11 10  2  0
 12  7  2  0
 12 11  1  0
 13 18  1  0
 13 14  2  0
 15 16  1  0
 17 16  1  6
 18 17  1  0
 19 17  1  0
 19 26  1  0
 20 19  2  0
 22 23  2  0
 22 21  1  0
 24 22  1  0
 25 27  1  0
 25 24  1  1
 25 26  1  0
 27 28  1  0
 29 27  2  0
M  END
$$$$
