WSN.pdb
     RDKit          3D

 29 30  0  0  1  0  0  0  0  0999 V2000
    6.4231  -18.2937   24.0467 N   0  0  0  0  0  0  0  0  0  0  0  0
    7.3840  -17.2087   23.9886 C   0  0  1  0  0  0  0  0  0  0  0  0
    7.6823  -16.6815   25.3740 C   0  0  0  0  0  0  0  0  0  0  0  0
    6.8774  -15.5243   25.7646 C   0  0  0  0  0  0  0  0  0  0  0  0
    5.6164  -15.5725   26.3200 C   0  0  0  0  0  0  0  0  0  0  0  0
    5.1845  -14.3329   26.5510 N   0  0  0  0  0  0  0  0  0  0  0  0
    6.0947  -13.4325   26.1782 C   0  0  0  0  0  0  0  0  0  0  0  0
    6.1056  -12.0518   26.2189 C   0  0  0  0  0  0  0  0  0  0  0  0
    7.2342  -11.4209   25.7414 C   0  0  0  0  0  0  0  0  0  0  0  0
    8.3166  -12.1514   25.2396 C   0  0  0  0  0  0  0  0  0  0  0  0
    8.2818  -13.5306   25.2096 C   0  0  0  0  0  0  0  0  0  0  0  0
    7.1670  -14.1616   25.6809 C   0  0  0  0  0  0  0  0  0  0  0  0
    8.6217  -17.6460   23.2999 C   0  0  0  0  0  0  0  0  0  0  0  0
    8.7842  -18.8690   23.0957 O   0  0  0  0  0  0  0  0  0  0  0  0
   11.3347  -14.7577   22.1381 O   0  0  0  0  0  0  0  0  0  0  0  0
   11.4230  -15.9882   21.5413 C   0  0  0  0  0  0  0  0  0  0  0  0
   10.9543  -17.1165   22.4605 C   0  0  2  0  0  0  0  0  0  0  0  0
    9.6146  -16.7467   22.8709 N   0  0  0  0  0  0  0  0  0  0  0  0
   11.8740  -17.1617   23.6075 C   0  0  0  0  0  0  0  0  0  0  0  0
   13.1238  -17.2860   23.3697 O   0  0  0  0  0  0  0  0  0  0  0  0
   12.0213  -14.6773   25.9785 N   0  0  0  0  0  0  0  0  0  0  0  0
   11.6750  -15.2987   27.2178 C   0  0  0  0  0  0  0  0  0  0  0  0
   11.2234  -14.6537   28.1780 O   0  0  0  0  0  0  0  0  0  0  0  0
   11.8647  -16.7614   27.3537 C   0  0  0  0  0  0  0  0  0  0  0  0
   12.4032  -17.3488   26.0612 C   0  0  2  0  0  0  0  0  0  0  0  0
   11.4964  -17.0789   24.9628 N   0  0  0  0  0  0  0  0  0  0  0  0
   12.4902  -18.8144   26.2420 C   0  0  0  0  0  0  0  0  0  0  0  0
   11.6601  -19.6659   25.5038 O   0  0  0  0  0  0  0  0  0  0  0  0
   13.3083  -19.3456   27.0604 O   0  0  0  0  0  0  0  0  0  0  0  0
  2  1  1  1
  2  3  1  0
  2 13  1  0
  3  4  1  0
  4 12  1  0
  5  4  2  0
  5  6  1  0
  6  7  1  0
  7  8  1  0
  8  9  2  0
 10  9  1  0
 11 10  2  0
 12  7  2  0
 12 11  1  0
 13 18  1  0
 13 14  2  0
 15 16  1  0
 17 16  1  6
 18 17  1  0
 19 17  1  0
 19 26  1  0
 20 19  2  0
 22 23  2  0
 22 21  1  0
 24 22  1  0
 25 27  1  0
 25 24  1  1
 25 26  1  0
 27 28  1  0
 29 27  2  0
M  END
$$$$
