WSN.pdb
     RDKit          3D

 29 30  0  0  1  0  0  0  0  0999 V2000
    6.3583  -17.7539   24.2303 N   0  0  0  0  0  0  0  0  0  0  0  0
    7.0399  -16.6394   23.5997 C   0  0  1  0  0  0  0  0  0  0  0  0
    7.9318  -15.9260   24.5906 C   0  0  0  0  0  0  0  0  0  0  0  0
    7.2231  -15.0258   25.4999 C   0  0  0  0  0  0  0  0  0  0  0  0
    6.3225  -15.4092   26.4709 C   0  0  0  0  0  0  0  0  0  0  0  0
    5.8736  -14.3303   27.1120 N   0  0  0  0  0  0  0  0  0  0  0  0
    6.4269  -13.2196   26.6236 C   0  0  0  0  0  0  0  0  0  0  0  0
    6.2806  -11.8866   26.9549 C   0  0  0  0  0  0  0  0  0  0  0  0
    7.0210  -10.9773   26.2305 C   0  0  0  0  0  0  0  0  0  0  0  0
    7.8803  -11.3918   25.2075 C   0  0  0  0  0  0  0  0  0  0  0  0
    8.0093  -12.7299   24.8954 C   0  0  0  0  0  0  0  0  0  0  0  0
    7.2787  -13.6356   25.6088 C   0  0  0  0  0  0  0  0  0  0  0  0
    7.8069  -17.1000   22.4178 C   0  0  0  0  0  0  0  0  0  0  0  0
    8.4055  -18.1954   22.4915 O   0  0  0  0  0  0  0  0  0  0  0  0
    8.3932  -14.3671   19.5549 O   0  0  0  0  0  0  0  0  0  0  0  0
    8.4172  -15.6337   19.0323 C   0  0  0  0  0  0  0  0  0  0  0  0
    8.7241  -16.6946   20.0896 C   0  0  2  0  0  0  0  0  0  0  0  0
    7.8888  -16.3586   21.2252 N   0  0  0  0  0  0  0  0  0  0  0  0
   10.1526  -16.5849   20.4227 C   0  0  0  0  0  0  0  0  0  0  0  0
   10.6015  -15.4393   20.7693 O   0  0  0  0  0  0  0  0  0  0  0  0
   11.4245  -18.8274   23.9249 N   0  0  0  0  0  0  0  0  0  0  0  0
   12.3064  -17.9807   23.1851 C   0  0  0  0  0  0  0  0  0  0  0  0
   12.6450  -16.8584   23.5949 O   0  0  0  0  0  0  0  0  0  0  0  0
   12.8293  -18.4650   21.8867 C   0  0  0  0  0  0  0  0  0  0  0  0
   12.4735  -17.4929   20.7757 C   0  0  2  0  0  0  0  0  0  0  0  0
   11.0831  -17.6430   20.3940 N   0  0  0  0  0  0  0  0  0  0  0  0
   13.3148  -17.8281   19.6062 C   0  0  0  0  0  0  0  0  0  0  0  0
   12.7221  -18.2336   18.4048 O   0  0  0  0  0  0  0  0  0  0  0  0
   14.5857  -17.7613   19.6482 O   0  0  0  0  0  0  0  0  0  0  0  0
  2  1  1  1
  2  3  1  0
  2 13  1  0
  3  4  1  0
  4 12  1  0
  5  4  2  0
  5  6  1  0
  6  7  1  0
  7  8  1  0
  8  9  2  0
 10  9  1  0
 11 10  2  0
 12  7  2  0
 12 11  1  0
 13 18  1  0
 13 14  2  0
 15 16  1  0
 17 16  1  6
 18 17  1  0
 19 17  1  0
 19 26  1  0
 20 19  2  0
 22 23  2  0
 22 21  1  0
 24 22  1  0
 25 27  1  0
 25 24  1  1
 25 26  1  0
 27 28  1  0
 29 27  2  0
M  END
$$$$
