WSN.pdb
     RDKit          3D

 29 30  0  0  1  0  0  0  0  0999 V2000
    6.4454  -17.6878   24.3570 N   0  0  0  0  0  0  0  0  0  0  0  0
    7.1751  -16.6471   23.6578 C   0  0  1  0  0  0  0  0  0  0  0  0
    8.0125  -15.8384   24.6227 C   0  0  0  0  0  0  0  0  0  0  0  0
    7.2414  -14.9484   25.4904 C   0  0  0  0  0  0  0  0  0  0  0  0
    6.2778  -15.3430   26.3941 C   0  0  0  0  0  0  0  0  0  0  0  0
    5.7837  -14.2713   27.0136 N   0  0  0  0  0  0  0  0  0  0  0  0
    6.3660  -13.1548   26.5747 C   0  0  0  0  0  0  0  0  0  0  0  0
    6.1942  -11.8254   26.9081 C   0  0  0  0  0  0  0  0  0  0  0  0
    6.9799  -10.9076   26.2446 C   0  0  0  0  0  0  0  0  0  0  0  0
    7.9078  -11.3106   25.2783 C   0  0  0  0  0  0  0  0  0  0  0  0
    8.0611  -12.6452   24.9629 C   0  0  0  0  0  0  0  0  0  0  0  0
    7.2860  -13.5592   25.6162 C   0  0  0  0  0  0  0  0  0  0  0  0
    8.0076  -17.2304   22.5789 C   0  0  0  0  0  0  0  0  0  0  0  0
    8.7061  -18.2323   22.8470 O   0  0  0  0  0  0  0  0  0  0  0  0
    7.8173  -15.2075   19.2403 O   0  0  0  0  0  0  0  0  0  0  0  0
    8.5994  -16.3081   19.0058 C   0  0  0  0  0  0  0  0  0  0  0  0
    9.0830  -16.9655   20.2987 C   0  0  2  0  0  0  0  0  0  0  0  0
    8.0440  -16.7048   21.2746 N   0  0  0  0  0  0  0  0  0  0  0  0
   10.3487  -16.3180   20.6760 C   0  0  0  0  0  0  0  0  0  0  0  0
   10.2900  -15.2010   21.2945 O   0  0  0  0  0  0  0  0  0  0  0  0
   13.5620  -19.3866   24.0275 N   0  0  0  0  0  0  0  0  0  0  0  0
   13.3439  -18.0770   23.4990 C   0  0  0  0  0  0  0  0  0  0  0  0
   14.0452  -17.1060   23.8264 O   0  0  0  0  0  0  0  0  0  0  0  0
   12.2418  -17.8794   22.5292 C   0  0  0  0  0  0  0  0  0  0  0  0
   12.6725  -16.9330   21.4225 C   0  0  2  0  0  0  0  0  0  0  0  0
   11.6373  -16.8251   20.4136 N   0  0  0  0  0  0  0  0  0  0  0  0
   13.8790  -17.5095   20.7900 C   0  0  0  0  0  0  0  0  0  0  0  0
   13.8270  -17.9819   19.4734 O   0  0  0  0  0  0  0  0  0  0  0  0
   14.9888  -17.5957   21.4081 O   0  0  0  0  0  0  0  0  0  0  0  0
  2  1  1  1
  2  3  1  0
  2 13  1  0
  3  4  1  0
  4 12  1  0
  5  4  2  0
  5  6  1  0
  6  7  1  0
  7  8  1  0
  8  9  2  0
 10  9  1  0
 11 10  2  0
 12  7  2  0
 12 11  1  0
 13 18  1  0
 13 14  2  0
 15 16  1  0
 17 16  1  6
 18 17  1  0
 19 17  1  0
 19 26  1  0
 20 19  2  0
 22 23  2  0
 22 21  1  0
 24 22  1  0
 25 27  1  0
 25 24  1  1
 25 26  1  0
 27 28  1  0
 29 27  2  0
M  END
$$$$
