WSN.pdb
     RDKit          3D

 29 30  0  0  1  0  0  0  0  0999 V2000
    6.8031  -17.8853   24.7783 N   0  0  0  0  0  0  0  0  0  0  0  0
    7.4319  -16.8598   23.9677 C   0  0  1  0  0  0  0  0  0  0  0  0
    8.1490  -15.8527   24.8383 C   0  0  0  0  0  0  0  0  0  0  0  0
    7.2652  -14.9045   25.5161 C   0  0  0  0  0  0  0  0  0  0  0  0
    6.1539  -15.2338   26.2627 C   0  0  0  0  0  0  0  0  0  0  0  0
    5.5893  -14.1221   26.7338 N   0  0  0  0  0  0  0  0  0  0  0  0
    6.2647  -13.0407   26.3432 C   0  0  0  0  0  0  0  0  0  0  0  0
    6.0724  -11.6925   26.5741 C   0  0  0  0  0  0  0  0  0  0  0  0
    6.9810  -10.8249   26.0071 C   0  0  0  0  0  0  0  0  0  0  0  0
    8.0480  -11.2947   25.2339 C   0  0  0  0  0  0  0  0  0  0  0  0
    8.2189  -12.6469   25.0178 C   0  0  0  0  0  0  0  0  0  0  0  0
    7.3225  -13.5114   25.5763 C   0  0  0  0  0  0  0  0  0  0  0  0
    8.3521  -17.4698   22.9786 C   0  0  0  0  0  0  0  0  0  0  0  0
    9.0713  -18.4231   23.3494 O   0  0  0  0  0  0  0  0  0  0  0  0
    8.7749  -15.4606   19.5538 O   0  0  0  0  0  0  0  0  0  0  0  0
    9.0512  -16.7900   19.3691 C   0  0  0  0  0  0  0  0  0  0  0  0
    9.4116  -17.4973   20.6758 C   0  0  2  0  0  0  0  0  0  0  0  0
    8.4489  -17.0214   21.6488 N   0  0  0  0  0  0  0  0  0  0  0  0
   10.7802  -17.0937   21.0328 C   0  0  0  0  0  0  0  0  0  0  0  0
   11.0772  -15.8524   20.9622 O   0  0  0  0  0  0  0  0  0  0  0  0
   12.1223  -19.5355   24.5271 N   0  0  0  0  0  0  0  0  0  0  0  0
   12.9235  -18.4075   24.1698 C   0  0  0  0  0  0  0  0  0  0  0  0
   12.9880  -17.3904   24.8792 O   0  0  0  0  0  0  0  0  0  0  0  0
   13.6993  -18.4610   22.9091 C   0  0  0  0  0  0  0  0  0  0  0  0
   13.1126  -17.5062   21.8844 C   0  0  2  0  0  0  0  0  0  0  0  0
   11.8070  -17.9636   21.4515 N   0  0  0  0  0  0  0  0  0  0  0  0
   14.0155  -17.5030   20.7127 C   0  0  0  0  0  0  0  0  0  0  0  0
   15.3374  -17.0618   20.8429 O   0  0  0  0  0  0  0  0  0  0  0  0
   13.6308  -17.8943   19.5637 O   0  0  0  0  0  0  0  0  0  0  0  0
  2  1  1  1
  2  3  1  0
  2 13  1  0
  3  4  1  0
  4 12  1  0
  5  4  2  0
  5  6  1  0
  6  7  1  0
  7  8  1  0
  8  9  2  0
 10  9  1  0
 11 10  2  0
 12  7  2  0
 12 11  1  0
 13 18  1  0
 13 14  2  0
 15 16  1  0
 17 16  1  6
 18 17  1  0
 19 17  1  0
 19 26  1  0
 20 19  2  0
 22 23  2  0
 22 21  1  0
 24 22  1  0
 25 27  1  0
 25 24  1  1
 25 26  1  0
 27 28  1  0
 29 27  2  0
M  END
$$$$
