WSN.pdb
     RDKit          3D

 29 30  0  0  1  0  0  0  0  0999 V2000
    6.3619  -17.4957   24.2460 N   0  0  0  0  0  0  0  0  0  0  0  0
    7.0366  -16.4045   23.5691 C   0  0  1  0  0  0  0  0  0  0  0  0
    7.9525  -15.6677   24.5202 C   0  0  0  0  0  0  0  0  0  0  0  0
    7.2589  -14.8173   25.4873 C   0  0  0  0  0  0  0  0  0  0  0  0
    6.4831  -15.2610   26.5371 C   0  0  0  0  0  0  0  0  0  0  0  0
    6.0089  -14.2146   27.2130 N   0  0  0  0  0  0  0  0  0  0  0  0
    6.4252  -13.0686   26.6731 C   0  0  0  0  0  0  0  0  0  0  0  0
    6.2033  -11.7481   27.0122 C   0  0  0  0  0  0  0  0  0  0  0  0
    6.8003  -10.7903   26.2210 C   0  0  0  0  0  0  0  0  0  0  0  0
    7.5943  -11.1458   25.1255 C   0  0  0  0  0  0  0  0  0  0  0  0
    7.8013  -12.4725   24.8071 C   0  0  0  0  0  0  0  0  0  0  0  0
    7.2127  -13.4260   25.5865 C   0  0  0  0  0  0  0  0  0  0  0  0
    7.7769  -16.9044   22.3861 C   0  0  0  0  0  0  0  0  0  0  0  0
    8.5083  -17.9088   22.5272 O   0  0  0  0  0  0  0  0  0  0  0  0
    8.3372  -14.2689   19.3940 O   0  0  0  0  0  0  0  0  0  0  0  0
    8.2029  -15.5515   18.9302 C   0  0  0  0  0  0  0  0  0  0  0  0
    8.5515  -16.5946   19.9923 C   0  0  2  0  0  0  0  0  0  0  0  0
    7.6910  -16.2976   21.1199 N   0  0  0  0  0  0  0  0  0  0  0  0
    9.9700  -16.4154   20.3376 C   0  0  0  0  0  0  0  0  0  0  0  0
   10.2516  -15.7409   21.3862 O   0  0  0  0  0  0  0  0  0  0  0  0
   12.5497  -16.5403   22.8082 N   0  0  0  0  0  0  0  0  0  0  0  0
   12.4565  -17.9397   22.5345 C   0  0  0  0  0  0  0  0  0  0  0  0
   12.5024  -18.7945   23.4341 O   0  0  0  0  0  0  0  0  0  0  0  0
   12.3007  -18.3772   21.1280 C   0  0  0  0  0  0  0  0  0  0  0  0
   12.3625  -17.1837   20.1913 C   0  0  2  0  0  0  0  0  0  0  0  0
   11.0610  -16.9274   19.6068 N   0  0  0  0  0  0  0  0  0  0  0  0
   13.3025  -17.5234   19.1008 C   0  0  0  0  0  0  0  0  0  0  0  0
   14.4698  -16.7731   18.9175 O   0  0  0  0  0  0  0  0  0  0  0  0
   13.0886  -18.4928   18.3035 O   0  0  0  0  0  0  0  0  0  0  0  0
  2  1  1  1
  2  3  1  0
  2 13  1  0
  3  4  1  0
  4 12  1  0
  5  4  2  0
  5  6  1  0
  6  7  1  0
  7  8  1  0
  8  9  2  0
 10  9  1  0
 11 10  2  0
 12  7  2  0
 12 11  1  0
 13 18  1  0
 13 14  2  0
 15 16  1  0
 17 16  1  6
 18 17  1  0
 19 17  1  0
 19 26  1  0
 20 19  2  0
 22 23  2  0
 22 21  1  0
 24 22  1  0
 25 27  1  0
 25 24  1  1
 25 26  1  0
 27 28  1  0
 29 27  2  0
M  END
$$$$
