WSN.pdb
     RDKit          3D

 29 30  0  0  1  0  0  0  0  0999 V2000
    6.7251  -17.8130   24.0435 N   0  0  0  0  0  0  0  0  0  0  0  0
    7.7460  -16.8381   23.7094 C   0  0  1  0  0  0  0  0  0  0  0  0
    8.2625  -16.1539   24.9550 C   0  0  0  0  0  0  0  0  0  0  0  0
    7.3172  -15.2192   25.5652 C   0  0  0  0  0  0  0  0  0  0  0  0
    6.2302  -15.5658   26.3394 C   0  0  0  0  0  0  0  0  0  0  0  0
    5.5924  -14.4624   26.7298 N   0  0  0  0  0  0  0  0  0  0  0  0
    6.1941  -13.3702   26.2571 C   0  0  0  0  0  0  0  0  0  0  0  0
    5.9119  -12.0245   26.3887 C   0  0  0  0  0  0  0  0  0  0  0  0
    6.7605  -11.1426   25.7548 C   0  0  0  0  0  0  0  0  0  0  0  0
    7.8567  -11.5961   25.0133 C   0  0  0  0  0  0  0  0  0  0  0  0
    8.1177  -12.9461   24.8968 C   0  0  0  0  0  0  0  0  0  0  0  0
    7.2811  -13.8248   25.5220 C   0  0  0  0  0  0  0  0  0  0  0  0
    8.8466  -17.4769   22.9492 C   0  0  0  0  0  0  0  0  0  0  0  0
    9.1767  -18.6438   23.2544 O   0  0  0  0  0  0  0  0  0  0  0  0
    9.9617  -16.4282   19.0473 O   0  0  0  0  0  0  0  0  0  0  0  0
   10.9134  -16.3887   20.0326 C   0  0  0  0  0  0  0  0  0  0  0  0
   10.6336  -17.3903   21.1534 C   0  0  2  0  0  0  0  0  0  0  0  0
    9.5307  -16.8270   21.9060 N   0  0  0  0  0  0  0  0  0  0  0  0
   11.8507  -17.4851   21.9740 C   0  0  0  0  0  0  0  0  0  0  0  0
   12.0680  -16.5641   22.8333 O   0  0  0  0  0  0  0  0  0  0  0  0
   13.4929  -19.4840   25.3269 N   0  0  0  0  0  0  0  0  0  0  0  0
   13.9464  -20.4854   24.4139 C   0  0  0  0  0  0  0  0  0  0  0  0
   14.0539  -21.6787   24.7404 O   0  0  0  0  0  0  0  0  0  0  0  0
   14.2987  -20.0782   23.0340 C   0  0  0  0  0  0  0  0  0  0  0  0
   13.9382  -18.6214   22.8026 C   0  0  2  0  0  0  0  0  0  0  0  0
   12.8113  -18.5135   21.8972 N   0  0  0  0  0  0  0  0  0  0  0  0
   15.1060  -17.9702   22.1699 C   0  0  0  0  0  0  0  0  0  0  0  0
   15.0159  -17.4780   20.8627 O   0  0  0  0  0  0  0  0  0  0  0  0
   16.2157  -17.8357   22.7796 O   0  0  0  0  0  0  0  0  0  0  0  0
  2  1  1  1
  2  3  1  0
  2 13  1  0
  3  4  1  0
  4 12  1  0
  5  4  2  0
  5  6  1  0
  6  7  1  0
  7  8  1  0
  8  9  2  0
 10  9  1  0
 11 10  2  0
 12  7  2  0
 12 11  1  0
 13 18  1  0
 13 14  2  0
 15 16  1  0
 17 16  1  6
 18 17  1  0
 19 17  1  0
 19 26  1  0
 20 19  2  0
 22 23  2  0
 22 21  1  0
 24 22  1  0
 25 27  1  0
 25 24  1  6
 25 26  1  0
 27 28  1  0
 29 27  2  0
M  END
$$$$
