WSN.pdb
     RDKit          3D

 29 30  0  0  1  0  0  0  0  0999 V2000
    6.4063  -17.5666   24.0448 N   0  0  0  0  0  0  0  0  0  0  0  0
    6.9392  -16.3298   23.5059 C   0  0  1  0  0  0  0  0  0  0  0  0
    7.9693  -15.7371   24.4409 C   0  0  0  0  0  0  0  0  0  0  0  0
    7.4043  -14.9900   25.5643 C   0  0  0  0  0  0  0  0  0  0  0  0
    6.7952  -15.5415   26.6715 C   0  0  0  0  0  0  0  0  0  0  0  0
    6.4019  -14.5687   27.4935 N   0  0  0  0  0  0  0  0  0  0  0  0
    6.7143  -13.3702   26.9992 C   0  0  0  0  0  0  0  0  0  0  0  0
    6.5170  -12.0891   27.4767 C   0  0  0  0  0  0  0  0  0  0  0  0
    6.9760  -11.0521   26.6933 C   0  0  0  0  0  0  0  0  0  0  0  0
    7.6122  -11.2926   25.4708 C   0  0  0  0  0  0  0  0  0  0  0  0
    7.7977  -12.5820   25.0154 C   0  0  0  0  0  0  0  0  0  0  0  0
    7.3454  -13.6135   25.7864 C   0  0  0  0  0  0  0  0  0  0  0  0
    7.5031  -16.5518   22.1531 C   0  0  0  0  0  0  0  0  0  0  0  0
    8.0034  -17.6689   21.8970 O   0  0  0  0  0  0  0  0  0  0  0  0
    8.5444  -13.3704   19.6530 O   0  0  0  0  0  0  0  0  0  0  0  0
    7.7963  -14.3863   19.1180 C   0  0  0  0  0  0  0  0  0  0  0  0
    8.0422  -15.7226   19.8191 C   0  0  2  0  0  0  0  0  0  0  0  0
    7.4991  -15.5626   21.1530 N   0  0  0  0  0  0  0  0  0  0  0  0
    9.4963  -15.9412   19.8540 C   0  0  0  0  0  0  0  0  0  0  0  0
   10.0794  -16.2726   18.7659 O   0  0  0  0  0  0  0  0  0  0  0  0
   13.0984  -15.8817   18.6441 N   0  0  0  0  0  0  0  0  0  0  0  0
   13.2290  -14.7439   19.4986 C   0  0  0  0  0  0  0  0  0  0  0  0
   13.9369  -13.7688   19.1986 O   0  0  0  0  0  0  0  0  0  0  0  0
   12.4926  -14.7353   20.7838 C   0  0  0  0  0  0  0  0  0  0  0  0
   11.7469  -16.0439   20.9765 C   0  0  2  0  0  0  0  0  0  0  0  0
   10.3154  -15.8162   20.9942 N   0  0  0  0  0  0  0  0  0  0  0  0
   12.1459  -16.5928   22.2909 C   0  0  0  0  0  0  0  0  0  0  0  0
   12.8697  -17.7886   22.3649 O   0  0  0  0  0  0  0  0  0  0  0  0
   11.8514  -16.0087   23.3833 O   0  0  0  0  0  0  0  0  0  0  0  0
  2  1  1  1
  2  3  1  0
  2 13  1  0
  3  4  1  0
  4 12  1  0
  5  4  2  0
  5  6  1  0
  6  7  1  0
  7  8  1  0
  8  9  2  0
 10  9  1  0
 11 10  2  0
 12  7  2  0
 12 11  1  0
 13 18  1  0
 13 14  2  0
 15 16  1  0
 17 16  1  6
 18 17  1  0
 19 17  1  0
 19 26  1  0
 20 19  2  0
 22 23  2  0
 22 21  1  0
 24 22  1  0
 25 27  1  0
 25 24  1  1
 25 26  1  0
 27 28  1  0
 29 27  2  0
M  END
$$$$
