WSN.pdb
     RDKit          3D

 29 30  0  0  1  0  0  0  0  0999 V2000
    6.4950  -17.4877   25.1658 N   0  0  0  0  0  0  0  0  0  0  0  0
    7.1105  -16.4725   24.3322 C   0  0  1  0  0  0  0  0  0  0  0  0
    8.2837  -15.8349   25.0417 C   0  0  0  0  0  0  0  0  0  0  0  0
    7.9114  -14.9344   26.1325 C   0  0  0  0  0  0  0  0  0  0  0  0
    7.8381  -15.2748   27.4666 C   0  0  0  0  0  0  0  0  0  0  0  0
    7.4709  -14.2091   28.1779 N   0  0  0  0  0  0  0  0  0  0  0  0
    7.2881  -13.1487   27.3902 C   0  0  0  0  0  0  0  0  0  0  0  0
    6.9135  -11.8465   27.6587 C   0  0  0  0  0  0  0  0  0  0  0  0
    6.8193  -10.9887   26.5840 C   0  0  0  0  0  0  0  0  0  0  0  0
    7.0924  -11.4230   25.2825 C   0  0  0  0  0  0  0  0  0  0  0  0
    7.4651  -12.7294   25.0400 C   0  0  0  0  0  0  0  0  0  0  0  0
    7.5601  -13.5841   26.0999 C   0  0  0  0  0  0  0  0  0  0  0  0
    7.5164  -17.0466   23.0272 C   0  0  0  0  0  0  0  0  0  0  0  0
    8.0112  -18.1950   23.0146 O   0  0  0  0  0  0  0  0  0  0  0  0
    8.1624  -14.4682   19.7850 O   0  0  0  0  0  0  0  0  0  0  0  0
    7.5489  -15.6708   19.5498 C   0  0  0  0  0  0  0  0  0  0  0  0
    7.9709  -16.7460   20.5516 C   0  0  2  0  0  0  0  0  0  0  0  0
    7.3695  -16.3556   21.8109 N   0  0  0  0  0  0  0  0  0  0  0  0
    9.4396  -16.7248   20.6286 C   0  0  0  0  0  0  0  0  0  0  0  0
    9.9816  -16.0355   21.5586 O   0  0  0  0  0  0  0  0  0  0  0  0
   13.6847  -18.6577   22.8250 N   0  0  0  0  0  0  0  0  0  0  0  0
   13.1054  -19.0932   21.5935 C   0  0  0  0  0  0  0  0  0  0  0  0
   13.7307  -19.7904   20.7781 O   0  0  0  0  0  0  0  0  0  0  0  0
   11.7122  -18.6948   21.2864 C   0  0  0  0  0  0  0  0  0  0  0  0
   11.6812  -17.7425   20.1040 C   0  0  2  0  0  0  0  0  0  0  0  0
   10.3146  -17.4051   19.7579 N   0  0  0  0  0  0  0  0  0  0  0  0
   12.2920  -18.4434   18.9535 C   0  0  0  0  0  0  0  0  0  0  0  0
   13.5781  -18.0998   18.5210 O   0  0  0  0  0  0  0  0  0  0  0  0
   11.6819  -19.3681   18.3257 O   0  0  0  0  0  0  0  0  0  0  0  0
  2  1  1  1
  2  3  1  0
  2 13  1  0
  3  4  1  0
  4 12  1  0
  5  4  2  0
  5  6  1  0
  6  7  1  0
  7  8  1  0
  8  9  2  0
 10  9  1  0
 11 10  2  0
 12  7  2  0
 12 11  1  0
 13 18  1  0
 13 14  2  0
 15 16  1  0
 17 16  1  6
 18 17  1  0
 19 17  1  0
 19 26  1  0
 20 19  2  0
 22 23  2  0
 22 21  1  0
 24 22  1  0
 25 27  1  0
 25 24  1  1
 25 26  1  0
 27 28  1  0
 29 27  2  0
M  END
$$$$
