YWH.pdb
     RDKit          3D

 37 40  0  0  1  0  0  0  0  0999 V2000
   10.5916  -21.7732   15.3469 O   0  0  0  0  0  0  0  0  0  0  0  0
   10.6679  -20.9823   16.5002 C   0  0  0  0  0  0  0  0  0  0  0  0
    9.5789  -20.9941   17.3435 C   0  0  0  0  0  0  0  0  0  0  0  0
    9.6211  -20.2275   18.4869 C   0  0  0  0  0  0  0  0  0  0  0  0
   10.7455  -19.4697   18.7604 C   0  0  0  0  0  0  0  0  0  0  0  0
   10.7379  -18.6548   20.0172 C   0  0  0  0  0  0  0  0  0  0  0  0
   10.1590  -17.2853   19.7701 C   0  0  2  0  0  0  0  0  0  0  0  0
   11.0489  -16.5757   18.8764 N   0  0  0  0  0  0  0  0  0  0  0  0
    9.9114  -16.5125   20.9902 C   0  0  0  0  0  0  0  0  0  0  0  0
   10.8514  -15.8374   21.4896 O   0  0  0  0  0  0  0  0  0  0  0  0
   11.8400  -19.4575   17.9135 C   0  0  0  0  0  0  0  0  0  0  0  0
   11.7874  -20.2261   16.7753 C   0  0  0  0  0  0  0  0  0  0  0  0
    8.6681  -16.4647   21.6667 N   0  0  0  0  0  0  0  0  0  0  0  0
    8.4972  -15.8278   22.9291 C   0  0  1  0  0  0  0  0  0  0  0  0
    7.2189  -15.1026   23.1150 C   0  0  0  0  0  0  0  0  0  0  0  0
    6.8443  -14.7492   24.4831 C   0  0  0  0  0  0  0  0  0  0  0  0
    6.2180  -15.4160   25.5042 C   0  0  0  0  0  0  0  0  0  0  0  0
    6.1202  -14.6134   26.6077 N   0  0  0  0  0  0  0  0  0  0  0  0
    6.6838  -13.4363   26.2897 C   0  0  0  0  0  0  0  0  0  0  0  0
    6.8492  -12.2730   27.0487 C   0  0  0  0  0  0  0  0  0  0  0  0
    7.4581  -11.1734   26.5266 C   0  0  0  0  0  0  0  0  0  0  0  0
    7.9200  -11.1983   25.2356 C   0  0  0  0  0  0  0  0  0  0  0  0
    7.7505  -12.3533   24.4967 C   0  0  0  0  0  0  0  0  0  0  0  0
    7.1363  -13.4825   25.0029 C   0  0  0  0  0  0  0  0  0  0  0  0
    8.6843  -16.7742   24.0811 C   0  0  0  0  0  0  0  0  0  0  0  0
    8.0078  -17.8574   24.1039 O   0  0  0  0  0  0  0  0  0  0  0  0
    9.5640  -16.5399   25.1437 N   0  0  0  0  0  0  0  0  0  0  0  0
   10.1504  -17.6063   25.9614 C   0  0  1  0  0  0  0  0  0  0  0  0
   10.3827  -18.7620   25.0305 C   0  0  0  0  0  0  0  0  0  0  0  0
   10.9574  -19.9534   25.6539 C   0  0  0  0  0  0  0  0  0  0  0  0
   11.2696  -20.0945   26.9865 C   0  0  0  0  0  0  0  0  0  0  0  0
   11.7756  -21.3299   27.1534 N   0  0  0  0  0  0  0  0  0  0  0  0
   11.7919  -21.9704   25.9697 C   0  0  0  0  0  0  0  0  0  0  0  0
   11.2831  -21.1043   25.0563 N   0  0  0  0  0  0  0  0  0  0  0  0
   11.4428  -17.1630   26.5464 C   0  0  0  0  0  0  0  0  0  0  0  0
   12.2039  -16.2499   25.8439 O   0  0  0  0  0  0  0  0  0  0  0  0
   11.8444  -17.6007   27.6516 O   0  0  0  0  0  0  0  0  0  0  0  0
  2  1  1  0
  3  2  2  0
  4  3  1  0
  5 11  1  0
  5  4  2  0
  6  5  1  0
  7  8  1  6
  7  9  1  0
  7  6  1  0
  9 10  2  0
 11 12  2  0
 12  2  1  0
 13 14  1  0
 13  9  1  0
 14 25  1  0
 14 15  1  6
 16 15  1  0
 17 16  2  0
 18 17  1  0
 19 18  1  0
 19 24  2  0
 20 19  1  0
 21 20  2  0
 21 22  1  0
 22 23  2  0
 23 24  1  0
 24 16  1  0
 25 27  1  0
 25 26  2  0
 27 28  1  0
 28 29  1  6
 29 30  1  0
 30 31  2  0
 31 32  1  0
 33 32  1  0
 34 30  1  0
 34 33  2  0
 35 28  1  0
 35 36  1  0
 37 35  2  0
M  END
$$$$
