YWH.pdb
     RDKit          3D

 37 40  0  0  1  0  0  0  0  0999 V2000
    7.4301  -14.6227   15.1692 O   0  0  0  0  0  0  0  0  0  0  0  0
    7.8385  -14.4995   16.5031 C   0  0  0  0  0  0  0  0  0  0  0  0
    7.5624  -13.3085   17.1376 C   0  0  0  0  0  0  0  0  0  0  0  0
    7.9504  -13.1542   18.4500 C   0  0  0  0  0  0  0  0  0  0  0  0
    8.6027  -14.1889   19.0958 C   0  0  0  0  0  0  0  0  0  0  0  0
    9.0022  -13.9674   20.5224 C   0  0  0  0  0  0  0  0  0  0  0  0
    8.3065  -14.9433   21.4364 C   0  0  2  0  0  0  0  0  0  0  0  0
    6.8862  -14.6706   21.3879 N   0  0  0  0  0  0  0  0  0  0  0  0
    8.7997  -14.9250   22.8161 C   0  0  0  0  0  0  0  0  0  0  0  0
    8.9389  -13.8181   23.4027 O   0  0  0  0  0  0  0  0  0  0  0  0
    8.8805  -15.3858   18.4589 C   0  0  0  0  0  0  0  0  0  0  0  0
    8.4889  -15.5293   17.1494 C   0  0  0  0  0  0  0  0  0  0  0  0
    9.1393  -16.0825   23.5581 N   0  0  0  0  0  0  0  0  0  0  0  0
    9.7131  -16.0268   24.8605 C   0  0  1  0  0  0  0  0  0  0  0  0
    8.7763  -16.2534   25.9855 C   0  0  0  0  0  0  0  0  0  0  0  0
    7.5494  -15.4588   26.0035 C   0  0  0  0  0  0  0  0  0  0  0  0
    6.2368  -15.7220   25.7079 C   0  0  0  0  0  0  0  0  0  0  0  0
    5.4711  -14.6056   25.9053 N   0  0  0  0  0  0  0  0  0  0  0  0
    6.2955  -13.6322   26.3264 C   0  0  0  0  0  0  0  0  0  0  0  0
    6.0310  -12.3022   26.6699 C   0  0  0  0  0  0  0  0  0  0  0  0
    7.0274  -11.4700   27.0787 C   0  0  0  0  0  0  0  0  0  0  0  0
    8.3149  -11.9355   27.1579 C   0  0  0  0  0  0  0  0  0  0  0  0
    8.5628  -13.2509   26.8159 C   0  0  0  0  0  0  0  0  0  0  0  0
    7.5698  -14.1158   26.3983 C   0  0  0  0  0  0  0  0  0  0  0  0
   10.8824  -16.9577   25.0144 C   0  0  0  0  0  0  0  0  0  0  0  0
   11.2821  -17.2548   26.1907 O   0  0  0  0  0  0  0  0  0  0  0  0
   11.5696  -17.5265   23.9363 N   0  0  0  0  0  0  0  0  0  0  0  0
   12.6400  -18.5168   24.0882 C   0  0  1  0  0  0  0  0  0  0  0  0
   13.0280  -18.9245   22.6956 C   0  0  0  0  0  0  0  0  0  0  0  0
   11.9274  -19.4065   21.8621 C   0  0  0  0  0  0  0  0  0  0  0  0
   10.6709  -19.7492   22.3059 C   0  0  0  0  0  0  0  0  0  0  0  0
    9.9586  -20.1432   21.2347 N   0  0  0  0  0  0  0  0  0  0  0  0
   10.7257  -20.0596   20.1319 C   0  0  0  0  0  0  0  0  0  0  0  0
   11.9376  -19.6030   20.5396 N   0  0  0  0  0  0  0  0  0  0  0  0
   13.8097  -17.9170   24.7818 C   0  0  0  0  0  0  0  0  0  0  0  0
   14.8989  -18.7221   25.0505 O   0  0  0  0  0  0  0  0  0  0  0  0
   13.8200  -16.7089   25.1206 O   0  0  0  0  0  0  0  0  0  0  0  0
  2  1  1  0
  3  2  2  0
  4  3  1  0
  5 11  1  0
  5  4  2  0
  6  5  1  0
  7  8  1  1
  7  9  1  0
  7  6  1  0
  9 10  2  0
 11 12  2  0
 12  2  1  0
 13 14  1  0
 13  9  1  0
 14 25  1  0
 14 15  1  1
 16 15  1  0
 17 16  2  0
 18 17  1  0
 19 18  1  0
 19 24  2  0
 20 19  1  0
 21 20  2  0
 21 22  1  0
 22 23  2  0
 23 24  1  0
 24 16  1  0
 25 27  1  0
 25 26  2  0
 27 28  1  0
 28 29  1  6
 29 30  1  0
 30 31  2  0
 31 32  1  0
 33 32  1  0
 34 30  1  0
 34 33  2  0
 35 28  1  0
 35 36  1  0
 37 35  2  0
M  END
$$$$
