YWH.pdb
     RDKit          3D

 37 40  0  0  1  0  0  0  0  0999 V2000
   10.9879  -21.1493   14.7699 O   0  0  0  0  0  0  0  0  0  0  0  0
   10.9110  -20.4864   16.0011 C   0  0  0  0  0  0  0  0  0  0  0  0
   12.0132  -19.7595   16.3934 C   0  0  0  0  0  0  0  0  0  0  0  0
   11.9710  -19.0951   17.5990 C   0  0  0  0  0  0  0  0  0  0  0  0
   10.8331  -19.1718   18.3818 C   0  0  0  0  0  0  0  0  0  0  0  0
   10.8412  -18.4300   19.6832 C   0  0  0  0  0  0  0  0  0  0  0  0
    9.8783  -17.2709   19.6507 C   0  0  2  0  0  0  0  0  0  0  0  0
   10.2986  -16.3665   18.6022 N   0  0  0  0  0  0  0  0  0  0  0  0
    9.7455  -16.5689   20.9301 C   0  0  0  0  0  0  0  0  0  0  0  0
   10.6907  -15.8364   21.3285 O   0  0  0  0  0  0  0  0  0  0  0  0
    9.7253  -19.9018   17.9882 C   0  0  0  0  0  0  0  0  0  0  0  0
    9.7781  -20.5610   16.7834 C   0  0  0  0  0  0  0  0  0  0  0  0
    8.6100  -16.6520   21.7725 N   0  0  0  0  0  0  0  0  0  0  0  0
    8.5322  -15.9965   23.0345 C   0  0  1  0  0  0  0  0  0  0  0  0
    7.1670  -15.6591   23.5002 C   0  0  0  0  0  0  0  0  0  0  0  0
    7.0322  -15.1587   24.8671 C   0  0  0  0  0  0  0  0  0  0  0  0
    6.7922  -15.7493   26.0809 C   0  0  0  0  0  0  0  0  0  0  0  0
    6.7719  -14.8075   27.0730 N   0  0  0  0  0  0  0  0  0  0  0  0
    6.9988  -13.6180   26.4915 C   0  0  0  0  0  0  0  0  0  0  0  0
    7.0810  -12.3362   27.0454 C   0  0  0  0  0  0  0  0  0  0  0  0
    7.3230  -11.2473   26.2655 C   0  0  0  0  0  0  0  0  0  0  0  0
    7.4902  -11.4010   24.9131 C   0  0  0  0  0  0  0  0  0  0  0  0
    7.4067  -12.6722   24.3785 C   0  0  0  0  0  0  0  0  0  0  0  0
    7.1623  -13.7933   25.1478 C   0  0  0  0  0  0  0  0  0  0  0  0
    9.2363  -16.7571   24.1224 C   0  0  0  0  0  0  0  0  0  0  0  0
    8.9641  -17.9947   24.2835 O   0  0  0  0  0  0  0  0  0  0  0  0
   10.1832  -16.1874   24.9807 N   0  0  0  0  0  0  0  0  0  0  0  0
   10.9260  -16.9493   25.9893 C   0  0  1  0  0  0  0  0  0  0  0  0
   12.3379  -16.4393   25.9372 C   0  0  0  0  0  0  0  0  0  0  0  0
   13.0799  -16.7931   24.7278 C   0  0  0  0  0  0  0  0  0  0  0  0
   12.6839  -17.7064   23.7779 C   0  0  0  0  0  0  0  0  0  0  0  0
   13.6395  -17.7437   22.8315 N   0  0  0  0  0  0  0  0  0  0  0  0
   14.6233  -16.8839   23.1549 C   0  0  0  0  0  0  0  0  0  0  0  0
   14.2597  -16.3067   24.3288 N   0  0  0  0  0  0  0  0  0  0  0  0
   10.3560  -16.7164   27.3420 C   0  0  0  0  0  0  0  0  0  0  0  0
   10.9420  -17.3491   28.4205 O   0  0  0  0  0  0  0  0  0  0  0  0
    9.3659  -15.9651   27.5138 O   0  0  0  0  0  0  0  0  0  0  0  0
  2  1  1  0
  3  2  2  0
  4  3  1  0
  5 11  1  0
  5  4  2  0
  6  5  1  0
  7  8  1  6
  7  9  1  0
  7  6  1  0
  9 10  2  0
 11 12  2  0
 12  2  1  0
 13 14  1  0
 13  9  1  0
 14 25  1  0
 14 15  1  1
 16 15  1  0
 17 16  2  0
 18 17  1  0
 19 18  1  0
 19 24  2  0
 20 19  1  0
 21 20  2  0
 21 22  1  0
 22 23  2  0
 23 24  1  0
 24 16  1  0
 25 27  1  0
 25 26  2  0
 27 28  1  0
 28 29  1  1
 29 30  1  0
 30 31  2  0
 31 32  1  0
 33 32  1  0
 34 30  1  0
 34 33  2  0
 35 28  1  0
 35 36  1  0
 37 35  2  0
M  END
$$$$
