YWH.pdb
     RDKit          3D

 37 40  0  0  1  0  0  0  0  0999 V2000
    7.9717  -14.9257   14.7729 O   0  0  0  0  0  0  0  0  0  0  0  0
    8.1335  -14.6343   16.1330 C   0  0  0  0  0  0  0  0  0  0  0  0
    8.6563  -15.6281   16.9308 C   0  0  0  0  0  0  0  0  0  0  0  0
    8.8288  -15.3746   18.2735 C   0  0  0  0  0  0  0  0  0  0  0  0
    8.4763  -14.1392   18.7863 C   0  0  0  0  0  0  0  0  0  0  0  0
    8.6849  -13.9175   20.2530 C   0  0  0  0  0  0  0  0  0  0  0  0
    7.9466  -14.9496   21.0662 C   0  0  2  0  0  0  0  0  0  0  0  0
    6.5284  -14.6912   20.9397 N   0  0  0  0  0  0  0  0  0  0  0  0
    8.3493  -15.0004   22.4742 C   0  0  0  0  0  0  0  0  0  0  0  0
    8.4306  -13.9256   23.1277 O   0  0  0  0  0  0  0  0  0  0  0  0
    7.9510  -13.1404   17.9854 C   0  0  0  0  0  0  0  0  0  0  0  0
    7.7832  -13.4038   16.6470 C   0  0  0  0  0  0  0  0  0  0  0  0
    8.6609  -16.1921   23.1731 N   0  0  0  0  0  0  0  0  0  0  0  0
    9.2914  -16.1986   24.4502 C   0  0  1  0  0  0  0  0  0  0  0  0
    8.3832  -16.3179   25.6145 C   0  0  0  0  0  0  0  0  0  0  0  0
    7.2155  -15.4390   25.6435 C   0  0  0  0  0  0  0  0  0  0  0  0
    5.9152  -15.5645   25.2275 C   0  0  0  0  0  0  0  0  0  0  0  0
    5.2140  -14.4232   25.5054 N   0  0  0  0  0  0  0  0  0  0  0  0
    6.0670  -13.5714   26.0981 C   0  0  0  0  0  0  0  0  0  0  0  0
    5.8674  -12.2740   26.5814 C   0  0  0  0  0  0  0  0  0  0  0  0
    6.8830  -11.5739   27.1567 C   0  0  0  0  0  0  0  0  0  0  0  0
    8.1258  -12.1429   27.2681 C   0  0  0  0  0  0  0  0  0  0  0  0
    8.3098  -13.4248   26.7868 C   0  0  0  0  0  0  0  0  0  0  0  0
    7.2961  -14.1565   26.1991 C   0  0  0  0  0  0  0  0  0  0  0  0
   10.3556  -17.2536   24.5612 C   0  0  0  0  0  0  0  0  0  0  0  0
   10.0781  -18.4478   24.2029 O   0  0  0  0  0  0  0  0  0  0  0  0
   11.6475  -17.0064   25.0387 N   0  0  0  0  0  0  0  0  0  0  0  0
   12.6699  -18.0467   25.1878 C   0  0  1  0  0  0  0  0  0  0  0  0
   13.9869  -17.3739   24.9252 C   0  0  0  0  0  0  0  0  0  0  0  0
   14.1172  -16.7623   23.6033 C   0  0  0  0  0  0  0  0  0  0  0  0
   13.5339  -17.2183   22.4436 C   0  0  0  0  0  0  0  0  0  0  0  0
   13.8994  -16.3840   21.4535 N   0  0  0  0  0  0  0  0  0  0  0  0
   14.6934  -15.4183   21.9523 C   0  0  0  0  0  0  0  0  0  0  0  0
   14.8162  -15.6691   23.2809 N   0  0  0  0  0  0  0  0  0  0  0  0
   12.6529  -18.5995   26.5674 C   0  0  0  0  0  0  0  0  0  0  0  0
   13.5787  -19.5689   26.8988 O   0  0  0  0  0  0  0  0  0  0  0  0
   11.8222  -18.2035   27.4202 O   0  0  0  0  0  0  0  0  0  0  0  0
  2  1  1  0
  3  2  2  0
  4  3  1  0
  5 11  1  0
  5  4  2  0
  6  5  1  0
  7  8  1  1
  7  9  1  0
  7  6  1  0
  9 10  2  0
 11 12  2  0
 12  2  1  0
 13 14  1  0
 13  9  1  0
 14 25  1  0
 14 15  1  1
 16 15  1  0
 17 16  2  0
 18 17  1  0
 19 18  1  0
 19 24  2  0
 20 19  1  0
 21 20  2  0
 21 22  1  0
 22 23  2  0
 23 24  1  0
 24 16  1  0
 25 27  1  0
 25 26  2  0
 27 28  1  0
 28 29  1  1
 29 30  1  0
 30 31  2  0
 31 32  1  0
 33 32  1  0
 34 30  1  0
 34 33  2  0
 35 28  1  0
 35 36  1  0
 37 35  2  0
M  END
$$$$
