YWH.pdb
     RDKit          3D

 37 40  0  0  1  0  0  0  0  0999 V2000
    6.0845  -12.6695   18.0614 O   0  0  0  0  0  0  0  0  0  0  0  0
    7.3408  -13.1882   18.3989 C   0  0  0  0  0  0  0  0  0  0  0  0
    7.7572  -14.3151   17.7251 C   0  0  0  0  0  0  0  0  0  0  0  0
    8.9879  -14.8512   18.0326 C   0  0  0  0  0  0  0  0  0  0  0  0
    9.7712  -14.2517   19.0024 C   0  0  0  0  0  0  0  0  0  0  0  0
   11.1005  -14.8763   19.2971 C   0  0  0  0  0  0  0  0  0  0  0  0
   10.9502  -16.0559   20.2233 C   0  0  2  0  0  0  0  0  0  0  0  0
   10.0547  -17.0061   19.5993 N   0  0  0  0  0  0  0  0  0  0  0  0
   10.4900  -15.7036   21.5691 C   0  0  0  0  0  0  0  0  0  0  0  0
   11.2254  -14.9875   22.3006 O   0  0  0  0  0  0  0  0  0  0  0  0
    9.3535  -13.1196   19.6798 C   0  0  0  0  0  0  0  0  0  0  0  0
    8.1237  -12.5928   19.3651 C   0  0  0  0  0  0  0  0  0  0  0  0
    9.2535  -16.1152   22.1235 N   0  0  0  0  0  0  0  0  0  0  0  0
    8.8643  -15.8116   23.4596 C   0  0  1  0  0  0  0  0  0  0  0  0
    7.4426  -15.4398   23.6459 C   0  0  0  0  0  0  0  0  0  0  0  0
    7.0249  -15.0498   24.9914 C   0  0  0  0  0  0  0  0  0  0  0  0
    6.4417  -15.7129   26.0400 C   0  0  0  0  0  0  0  0  0  0  0  0
    6.2673  -14.8667   27.1007 N   0  0  0  0  0  0  0  0  0  0  0  0
    6.7392  -13.6655   26.7279 C   0  0  0  0  0  0  0  0  0  0  0  0
    6.8025  -12.4563   27.4283 C   0  0  0  0  0  0  0  0  0  0  0  0
    7.3281  -11.3388   26.8559 C   0  0  0  0  0  0  0  0  0  0  0  0
    7.8057  -11.3910   25.5714 C   0  0  0  0  0  0  0  0  0  0  0  0
    7.7373  -12.5913   24.8907 C   0  0  0  0  0  0  0  0  0  0  0  0
    7.2090  -13.7394   25.4486 C   0  0  0  0  0  0  0  0  0  0  0  0
    9.2022  -16.9148   24.4221 C   0  0  0  0  0  0  0  0  0  0  0  0
    8.6948  -18.0720   24.2349 O   0  0  0  0  0  0  0  0  0  0  0  0
   10.0483  -16.7516   25.5246 N   0  0  0  0  0  0  0  0  0  0  0  0
   10.4492  -17.8501   26.4090 C   0  0  1  0  0  0  0  0  0  0  0  0
   11.9348  -17.7178   26.5869 C   0  0  0  0  0  0  0  0  0  0  0  0
   12.7420  -18.3412   25.5389 C   0  0  0  0  0  0  0  0  0  0  0  0
   12.2579  -19.0508   24.4640 C   0  0  0  0  0  0  0  0  0  0  0  0
   13.3164  -19.4579   23.7402 N   0  0  0  0  0  0  0  0  0  0  0  0
   14.4502  -19.0278   24.3244 C   0  0  0  0  0  0  0  0  0  0  0  0
   14.0749  -18.3405   25.4335 N   0  0  0  0  0  0  0  0  0  0  0  0
    9.7717  -17.7317   27.7266 C   0  0  0  0  0  0  0  0  0  0  0  0
   10.0084  -18.7044   28.6776 O   0  0  0  0  0  0  0  0  0  0  0  0
    9.0003  -16.7755   27.9814 O   0  0  0  0  0  0  0  0  0  0  0  0
  2  1  1  0
  3  2  2  0
  4  3  1  0
  5 11  1  0
  5  4  2  0
  6  5  1  0
  7  8  1  6
  7  9  1  0
  7  6  1  0
  9 10  2  0
 11 12  2  0
 12  2  1  0
 13 14  1  0
 13  9  1  0
 14 25  1  0
 14 15  1  6
 16 15  1  0
 17 16  2  0
 18 17  1  0
 19 18  1  0
 19 24  2  0
 20 19  1  0
 21 20  2  0
 21 22  1  0
 22 23  2  0
 23 24  1  0
 24 16  1  0
 25 27  1  0
 25 26  2  0
 27 28  1  0
 28 29  1  1
 29 30  1  0
 30 31  2  0
 31 32  1  0
 33 32  1  0
 34 30  1  0
 34 33  2  0
 35 28  1  0
 35 36  1  0
 37 35  2  0
M  END
$$$$
