YWH.pdb
     RDKit          3D

 37 40  0  0  1  0  0  0  0  0999 V2000
    7.1702  -13.3663   16.1838 O   0  0  0  0  0  0  0  0  0  0  0  0
    7.3741  -13.6002   17.5494 C   0  0  0  0  0  0  0  0  0  0  0  0
    8.5840  -13.2104   18.0800 C   0  0  0  0  0  0  0  0  0  0  0  0
    8.8173  -13.4257   19.4202 C   0  0  0  0  0  0  0  0  0  0  0  0
    7.8406  -14.0232   20.1963 C   0  0  0  0  0  0  0  0  0  0  0  0
    8.1470  -14.2335   21.6474 C   0  0  0  0  0  0  0  0  0  0  0  0
    9.1443  -15.3483   21.8333 C   0  0  2  0  0  0  0  0  0  0  0  0
    8.5717  -16.5595   21.2865 N   0  0  0  0  0  0  0  0  0  0  0  0
    9.5671  -15.5458   23.2224 C   0  0  0  0  0  0  0  0  0  0  0  0
   10.4739  -14.8106   23.6976 O   0  0  0  0  0  0  0  0  0  0  0  0
    6.6248  -14.4151   19.6639 C   0  0  0  0  0  0  0  0  0  0  0  0
    6.4024  -14.1956   18.3255 C   0  0  0  0  0  0  0  0  0  0  0  0
    9.0219  -16.5218   24.0919 N   0  0  0  0  0  0  0  0  0  0  0  0
    9.4658  -16.6981   25.4337 C   0  0  1  0  0  0  0  0  0  0  0  0
    8.4408  -16.4881   26.4824 C   0  0  0  0  0  0  0  0  0  0  0  0
    7.4149  -15.4799   26.2213 C   0  0  0  0  0  0  0  0  0  0  0  0
    6.1558  -15.5166   25.6802 C   0  0  0  0  0  0  0  0  0  0  0  0
    5.6036  -14.2649   25.6738 N   0  0  0  0  0  0  0  0  0  0  0  0
    6.5104  -13.4317   26.2104 C   0  0  0  0  0  0  0  0  0  0  0  0
    6.4553  -12.0527   26.4383 C   0  0  0  0  0  0  0  0  0  0  0  0
    7.5019  -11.3909   27.0032 C   0  0  0  0  0  0  0  0  0  0  0  0
    8.6330  -12.0803   27.3578 C   0  0  0  0  0  0  0  0  0  0  0  0
    8.6748  -13.4419   27.1274 C   0  0  0  0  0  0  0  0  0  0  0  0
    7.6267  -14.1371   26.5559 C   0  0  0  0  0  0  0  0  0  0  0  0
   10.1119  -18.0365   25.6549 C   0  0  0  0  0  0  0  0  0  0  0  0
    9.5025  -19.0871   25.2590 O   0  0  0  0  0  0  0  0  0  0  0  0
   11.3546  -18.2061   26.2753 N   0  0  0  0  0  0  0  0  0  0  0  0
   11.8986  -19.5128   26.6576 C   0  0  1  0  0  0  0  0  0  0  0  0
   13.3917  -19.3497   26.6793 C   0  0  0  0  0  0  0  0  0  0  0  0
   14.0076  -19.1101   25.3749 C   0  0  0  0  0  0  0  0  0  0  0  0
   13.4663  -19.4443   24.1548 C   0  0  0  0  0  0  0  0  0  0  0  0
   14.3406  -19.0600   23.2072 N   0  0  0  0  0  0  0  0  0  0  0  0
   15.4138  -18.4952   23.7910 C   0  0  0  0  0  0  0  0  0  0  0  0
   15.1896  -18.5355   25.1294 N   0  0  0  0  0  0  0  0  0  0  0  0
   11.4150  -19.9035   28.0076 C   0  0  0  0  0  0  0  0  0  0  0  0
   10.5681  -19.0427   28.6774 O   0  0  0  0  0  0  0  0  0  0  0  0
   11.7605  -20.9870   28.5376 O   0  0  0  0  0  0  0  0  0  0  0  0
  2  1  1  0
  3  2  2  0
  4  3  1  0
  5 11  1  0
  5  4  2  0
  6  5  1  0
  7  8  1  1
  7  9  1  0
  7  6  1  0
  9 10  2  0
 11 12  2  0
 12  2  1  0
 13 14  1  0
 13  9  1  0
 14 25  1  0
 14 15  1  1
 16 15  1  0
 17 16  2  0
 18 17  1  0
 19 18  1  0
 19 24  2  0
 20 19  1  0
 21 20  2  0
 21 22  1  0
 22 23  2  0
 23 24  1  0
 24 16  1  0
 25 27  1  0
 25 26  2  0
 27 28  1  0
 28 29  1  1
 29 30  1  0
 30 31  2  0
 31 32  1  0
 33 32  1  0
 34 30  1  0
 34 33  2  0
 35 28  1  0
 35 36  1  0
 37 35  2  0
M  END
$$$$
