YWH.pdb
     RDKit          3D

 37 40  0  0  1  0  0  0  0  0999 V2000
    6.5966  -13.7934   17.0556 O   0  0  0  0  0  0  0  0  0  0  0  0
    7.8189  -14.0055   17.7053 C   0  0  0  0  0  0  0  0  0  0  0  0
    8.2162  -13.0573   18.6220 C   0  0  0  0  0  0  0  0  0  0  0  0
    9.4134  -13.2353   19.2792 C   0  0  0  0  0  0  0  0  0  0  0  0
   10.1831  -14.3518   19.0065 C   0  0  0  0  0  0  0  0  0  0  0  0
   11.4757  -14.4954   19.7497 C   0  0  0  0  0  0  0  0  0  0  0  0
   11.4433  -15.6931   20.6643 C   0  0  2  0  0  0  0  0  0  0  0  0
   10.7564  -16.7653   19.9768 N   0  0  0  0  0  0  0  0  0  0  0  0
   10.8348  -15.4302   21.9712 C   0  0  0  0  0  0  0  0  0  0  0  0
   11.3917  -14.6138   22.7535 O   0  0  0  0  0  0  0  0  0  0  0  0
    9.7844  -15.3049   18.0857 C   0  0  0  0  0  0  0  0  0  0  0  0
    8.5881  -15.1175   17.4356 C   0  0  0  0  0  0  0  0  0  0  0  0
    9.6413  -16.0368   22.4329 N   0  0  0  0  0  0  0  0  0  0  0  0
    9.0830  -15.7701   23.7157 C   0  0  1  0  0  0  0  0  0  0  0  0
    7.6549  -15.3765   23.7258 C   0  0  0  0  0  0  0  0  0  0  0  0
    7.0722  -15.0097   25.0153 C   0  0  0  0  0  0  0  0  0  0  0  0
    6.2227  -15.6342   25.8917 C   0  0  0  0  0  0  0  0  0  0  0  0
    5.9945  -14.8396   26.9817 N   0  0  0  0  0  0  0  0  0  0  0  0
    6.6982  -13.7099   26.7996 C   0  0  0  0  0  0  0  0  0  0  0  0
    6.8183  -12.5736   27.6066 C   0  0  0  0  0  0  0  0  0  0  0  0
    7.5964  -11.5224   27.2297 C   0  0  0  0  0  0  0  0  0  0  0  0
    8.2772  -11.5702   26.0403 C   0  0  0  0  0  0  0  0  0  0  0  0
    8.1502  -12.6981   25.2525 C   0  0  0  0  0  0  0  0  0  0  0  0
    7.3674  -13.7781   25.6120 C   0  0  0  0  0  0  0  0  0  0  0  0
    9.2733  -16.9112   24.6746 C   0  0  0  0  0  0  0  0  0  0  0  0
    8.2674  -17.6405   24.9709 O   0  0  0  0  0  0  0  0  0  0  0  0
   10.4988  -17.2285   25.2708 N   0  0  0  0  0  0  0  0  0  0  0  0
   10.6763  -18.3281   26.2243 C   0  0  1  0  0  0  0  0  0  0  0  0
   12.1414  -18.6588   26.2074 C   0  0  0  0  0  0  0  0  0  0  0  0
   12.6914  -18.9673   24.8880 C   0  0  0  0  0  0  0  0  0  0  0  0
   12.0950  -19.7552   23.9306 C   0  0  0  0  0  0  0  0  0  0  0  0
   12.9190  -19.7913   22.8677 N   0  0  0  0  0  0  0  0  0  0  0  0
   14.0141  -19.0521   23.1251 C   0  0  0  0  0  0  0  0  0  0  0  0
   13.8551  -18.5517   24.3772 N   0  0  0  0  0  0  0  0  0  0  0  0
   10.2716  -17.9035   27.5900 C   0  0  0  0  0  0  0  0  0  0  0  0
   10.3047  -18.8380   28.6060 O   0  0  0  0  0  0  0  0  0  0  0  0
    9.9063  -16.7269   27.8275 O   0  0  0  0  0  0  0  0  0  0  0  0
  2  1  1  0
  3  2  2  0
  4  3  1  0
  5 11  1  0
  5  4  2  0
  6  5  1  0
  7  8  1  6
  7  9  1  0
  7  6  1  0
  9 10  2  0
 11 12  2  0
 12  2  1  0
 13 14  1  0
 13  9  1  0
 14 25  1  0
 14 15  1  6
 16 15  1  0
 17 16  2  0
 18 17  1  0
 19 18  1  0
 19 24  2  0
 20 19  1  0
 21 20  2  0
 21 22  1  0
 22 23  2  0
 23 24  1  0
 24 16  1  0
 25 27  1  0
 25 26  2  0
 27 28  1  0
 28 29  1  1
 29 30  1  0
 30 31  2  0
 31 32  1  0
 33 32  1  0
 34 30  1  0
 34 33  2  0
 35 28  1  0
 35 36  1  0
 37 35  2  0
M  END
$$$$
