YWH.pdb
     RDKit          3D

 37 40  0  0  1  0  0  0  0  0999 V2000
    6.1065  -14.3496   16.8645 O   0  0  0  0  0  0  0  0  0  0  0  0
    6.9999  -14.2861   17.9411 C   0  0  0  0  0  0  0  0  0  0  0  0
    7.5820  -15.4673   18.3451 C   0  0  0  0  0  0  0  0  0  0  0  0
    8.4657  -15.4405   19.4011 C   0  0  0  0  0  0  0  0  0  0  0  0
    8.7463  -14.2392   20.0267 C   0  0  0  0  0  0  0  0  0  0  0  0
    9.7144  -14.2675   21.1695 C   0  0  0  0  0  0  0  0  0  0  0  0
    9.9428  -15.6778   21.6497 C   0  0  2  0  0  0  0  0  0  0  0  0
    8.8567  -16.5003   21.1618 N   0  0  0  0  0  0  0  0  0  0  0  0
   10.0832  -15.7984   23.1033 C   0  0  0  0  0  0  0  0  0  0  0  0
   10.9722  -15.1255   23.6912 O   0  0  0  0  0  0  0  0  0  0  0  0
    8.1618  -13.0521   19.6214 C   0  0  0  0  0  0  0  0  0  0  0  0
    7.2815  -13.0902   18.5666 C   0  0  0  0  0  0  0  0  0  0  0  0
    9.2776  -16.6319   23.9170 N   0  0  0  0  0  0  0  0  0  0  0  0
    9.4071  -16.6897   25.3341 C   0  0  1  0  0  0  0  0  0  0  0  0
    8.1363  -16.7225   26.0947 C   0  0  0  0  0  0  0  0  0  0  0  0
    7.1758  -15.6510   25.8370 C   0  0  0  0  0  0  0  0  0  0  0  0
    5.9549  -15.5919   25.2161 C   0  0  0  0  0  0  0  0  0  0  0  0
    5.4605  -14.3170   25.2581 N   0  0  0  0  0  0  0  0  0  0  0  0
    6.3659  -13.5647   25.9052 C   0  0  0  0  0  0  0  0  0  0  0  0
    6.3571  -12.2019   26.2204 C   0  0  0  0  0  0  0  0  0  0  0  0
    7.3923  -11.6290   26.8931 C   0  0  0  0  0  0  0  0  0  0  0  0
    8.4658  -12.3938   27.2718 C   0  0  0  0  0  0  0  0  0  0  0  0
    8.4622  -13.7384   26.9545 C   0  0  0  0  0  0  0  0  0  0  0  0
    7.4244  -14.3440   26.2729 C   0  0  0  0  0  0  0  0  0  0  0  0
   10.2675  -17.8352   25.7871 C   0  0  0  0  0  0  0  0  0  0  0  0
   10.0196  -19.0056   25.3399 O   0  0  0  0  0  0  0  0  0  0  0  0
   11.3365  -17.6981   26.6796 N   0  0  0  0  0  0  0  0  0  0  0  0
   12.1252  -18.8282   27.1802 C   0  0  1  0  0  0  0  0  0  0  0  0
   13.5289  -18.3169   27.3364 C   0  0  0  0  0  0  0  0  0  0  0  0
   14.4693  -19.2625   27.9363 C   0  0  0  0  0  0  0  0  0  0  0  0
   14.1682  -20.1948   28.9024 C   0  0  0  0  0  0  0  0  0  0  0  0
   15.3017  -20.8617   29.1861 N   0  0  0  0  0  0  0  0  0  0  0  0
   16.3057  -20.3796   28.4302 C   0  0  0  0  0  0  0  0  0  0  0  0
   15.7721  -19.3929   27.6653 N   0  0  0  0  0  0  0  0  0  0  0  0
   11.6056  -19.2835   28.4961 C   0  0  0  0  0  0  0  0  0  0  0  0
   10.5669  -18.5794   29.0724 O   0  0  0  0  0  0  0  0  0  0  0  0
   12.0906  -20.2824   29.0804 O   0  0  0  0  0  0  0  0  0  0  0  0
  2  1  1  0
  3  2  2  0
  4  3  1  0
  5 11  1  0
  5  4  2  0
  6  5  1  0
  7  8  1  1
  7  9  1  0
  7  6  1  0
  9 10  2  0
 11 12  2  0
 12  2  1  0
 13 14  1  0
 13  9  1  0
 14 25  1  0
 14 15  1  1
 16 15  1  0
 17 16  2  0
 18 17  1  0
 19 18  1  0
 19 24  2  0
 20 19  1  0
 21 20  2  0
 21 22  1  0
 22 23  2  0
 23 24  1  0
 24 16  1  0
 25 27  1  0
 25 26  2  0
 27 28  1  0
 28 29  1  1
 29 30  1  0
 30 31  2  0
 31 32  1  0
 33 32  1  0
 34 30  1  0
 34 33  2  0
 35 28  1  0
 35 36  1  0
 37 35  2  0
M  END
$$$$
