YWH.pdb
     RDKit          3D

 37 40  0  0  1  0  0  0  0  0999 V2000
    9.1883  -20.9566   14.4446 O   0  0  0  0  0  0  0  0  0  0  0  0
    9.4416  -20.3559   15.6841 C   0  0  0  0  0  0  0  0  0  0  0  0
    8.3534  -20.0752   16.4805 C   0  0  0  0  0  0  0  0  0  0  0  0
    8.5672  -19.4845   17.7061 C   0  0  0  0  0  0  0  0  0  0  0  0
    9.8579  -19.1889   18.1063 C   0  0  0  0  0  0  0  0  0  0  0  0
   10.0329  -18.5471   19.4484 C   0  0  0  0  0  0  0  0  0  0  0  0
    9.7939  -17.0608   19.3721 C   0  0  2  0  0  0  0  0  0  0  0  0
   10.8511  -16.4758   18.5759 N   0  0  0  0  0  0  0  0  0  0  0  0
    9.6932  -16.4044   20.6783 C   0  0  0  0  0  0  0  0  0  0  0  0
   10.7475  -16.0310   21.2596 O   0  0  0  0  0  0  0  0  0  0  0  0
   10.9516  -19.4707   17.3066 C   0  0  0  0  0  0  0  0  0  0  0  0
   10.7270  -20.0602   16.0856 C   0  0  0  0  0  0  0  0  0  0  0  0
    8.4740  -16.1511   21.3529 N   0  0  0  0  0  0  0  0  0  0  0  0
    8.4152  -15.6835   22.6970 C   0  0  1  0  0  0  0  0  0  0  0  0
    7.0619  -15.3619   23.2066 C   0  0  0  0  0  0  0  0  0  0  0  0
    6.9449  -15.0238   24.6240 C   0  0  0  0  0  0  0  0  0  0  0  0
    6.7353  -15.7534   25.7657 C   0  0  0  0  0  0  0  0  0  0  0  0
    6.7198  -14.9321   26.8596 N   0  0  0  0  0  0  0  0  0  0  0  0
    6.9195  -13.6804   26.4151 C   0  0  0  0  0  0  0  0  0  0  0  0
    6.9937  -12.4693   27.1112 C   0  0  0  0  0  0  0  0  0  0  0  0
    7.2062  -11.2944   26.4578 C   0  0  0  0  0  0  0  0  0  0  0  0
    7.3509  -11.2893   25.0941 C   0  0  0  0  0  0  0  0  0  0  0  0
    7.2755  -12.4920   24.4184 C   0  0  0  0  0  0  0  0  0  0  0  0
    7.0609  -13.6977   25.0576 C   0  0  0  0  0  0  0  0  0  0  0  0
    9.0814  -16.6223   23.6626 C   0  0  0  0  0  0  0  0  0  0  0  0
    8.7413  -17.8535   23.6581 O   0  0  0  0  0  0  0  0  0  0  0  0
   10.0632  -16.2271   24.5780 N   0  0  0  0  0  0  0  0  0  0  0  0
   10.6635  -17.1308   25.5642 C   0  0  1  0  0  0  0  0  0  0  0  0
   12.1463  -16.9047   25.4848 C   0  0  0  0  0  0  0  0  0  0  0  0
   12.8110  -17.5471   24.3517 C   0  0  0  0  0  0  0  0  0  0  0  0
   12.2080  -18.3583   23.4182 C   0  0  0  0  0  0  0  0  0  0  0  0
   13.1580  -18.7472   22.5485 N   0  0  0  0  0  0  0  0  0  0  0  0
   14.3385  -18.2073   22.9043 C   0  0  0  0  0  0  0  0  0  0  0  0
   14.1039  -17.4699   24.0199 N   0  0  0  0  0  0  0  0  0  0  0  0
   10.1771  -16.8074   26.9308 C   0  0  0  0  0  0  0  0  0  0  0  0
   10.6503  -17.5545   27.9913 O   0  0  0  0  0  0  0  0  0  0  0  0
    9.3558  -15.8800   27.1301 O   0  0  0  0  0  0  0  0  0  0  0  0
  2  1  1  0
  3  2  2  0
  4  3  1  0
  5 11  1  0
  5  4  2  0
  6  5  1  0
  7  8  1  6
  7  9  1  0
  7  6  1  0
  9 10  2  0
 11 12  2  0
 12  2  1  0
 13 14  1  0
 13  9  1  0
 14 25  1  0
 14 15  1  1
 16 15  1  0
 17 16  2  0
 18 17  1  0
 19 18  1  0
 19 24  2  0
 20 19  1  0
 21 20  2  0
 21 22  1  0
 22 23  2  0
 23 24  1  0
 24 16  1  0
 25 27  1  0
 25 26  2  0
 27 28  1  0
 28 29  1  1
 29 30  1  0
 30 31  2  0
 31 32  1  0
 33 32  1  0
 34 30  1  0
 34 33  2  0
 35 28  1  0
 35 36  1  0
 37 35  2  0
M  END
$$$$
