YWH.pdb
     RDKit          3D

 37 40  0  0  1  0  0  0  0  0999 V2000
    7.0799  -11.5220   21.4819 O   0  0  0  0  0  0  0  0  0  0  0  0
    7.4406  -12.8291   21.1316 C   0  0  0  0  0  0  0  0  0  0  0  0
    8.6448  -12.9966   20.4841 C   0  0  0  0  0  0  0  0  0  0  0  0
    9.0300  -14.2693   20.1254 C   0  0  0  0  0  0  0  0  0  0  0  0
    8.2067  -15.3410   20.4204 C   0  0  0  0  0  0  0  0  0  0  0  0
    8.6745  -16.7028   20.0077 C   0  0  0  0  0  0  0  0  0  0  0  0
    8.6175  -17.6676   21.1643 C   0  0  2  0  0  0  0  0  0  0  0  0
    7.2288  -17.9882   21.4142 N   0  0  0  0  0  0  0  0  0  0  0  0
    9.2731  -17.1807   22.3809 C   0  0  0  0  0  0  0  0  0  0  0  0
   10.3857  -16.5961   22.2857 O   0  0  0  0  0  0  0  0  0  0  0  0
    6.9968  -15.1734   21.0709 C   0  0  0  0  0  0  0  0  0  0  0  0
    6.6221  -13.8992   21.4244 C   0  0  0  0  0  0  0  0  0  0  0  0
    8.7399  -17.3195   23.6856 N   0  0  0  0  0  0  0  0  0  0  0  0
    9.4105  -16.8486   24.8505 C   0  0  1  0  0  0  0  0  0  0  0  0
    8.5355  -16.3817   25.9509 C   0  0  0  0  0  0  0  0  0  0  0  0
    7.4613  -15.4536   25.6022 C   0  0  0  0  0  0  0  0  0  0  0  0
    6.1744  -15.6069   25.1551 C   0  0  0  0  0  0  0  0  0  0  0  0
    5.5793  -14.3864   24.9890 N   0  0  0  0  0  0  0  0  0  0  0  0
    6.4865  -13.4563   25.3300 C   0  0  0  0  0  0  0  0  0  0  0  0
    6.3967  -12.0604   25.3431 C   0  0  0  0  0  0  0  0  0  0  0  0
    7.4511  -11.2915   25.7298 C   0  0  0  0  0  0  0  0  0  0  0  0
    8.6248  -11.8875   26.1143 C   0  0  0  0  0  0  0  0  0  0  0  0
    8.7005  -13.2669   26.0969 C   0  0  0  0  0  0  0  0  0  0  0  0
    7.6453  -14.0698   25.7090 C   0  0  0  0  0  0  0  0  0  0  0  0
   10.3805  -17.8547   25.4024 C   0  0  0  0  0  0  0  0  0  0  0  0
    9.9289  -18.9585   25.8599 O   0  0  0  0  0  0  0  0  0  0  0  0
   11.7648  -17.6554   25.4471 N   0  0  0  0  0  0  0  0  0  0  0  0
   12.7177  -18.6785   25.8885 C   0  0  1  0  0  0  0  0  0  0  0  0
   14.0813  -18.1509   25.5441 C   0  0  0  0  0  0  0  0  0  0  0  0
   14.2882  -17.8463   24.1289 C   0  0  0  0  0  0  0  0  0  0  0  0
   13.6383  -18.4429   23.0730 C   0  0  0  0  0  0  0  0  0  0  0  0
   14.1119  -17.8878   21.9426 N   0  0  0  0  0  0  0  0  0  0  0  0
   15.0383  -16.9618   22.2529 C   0  0  0  0  0  0  0  0  0  0  0  0
   15.1331  -16.9510   23.6072 N   0  0  0  0  0  0  0  0  0  0  0  0
   12.6146  -18.8876   27.3563 C   0  0  0  0  0  0  0  0  0  0  0  0
   11.6869  -18.1475   28.0624 O   0  0  0  0  0  0  0  0  0  0  0  0
   13.3472  -19.7138   27.9521 O   0  0  0  0  0  0  0  0  0  0  0  0
  2  1  1  0
  3  2  2  0
  4  3  1  0
  5 11  1  0
  5  4  2  0
  6  5  1  0
  7  8  1  1
  7  9  1  0
  7  6  1  0
  9 10  2  0
 11 12  2  0
 12  2  1  0
 13 14  1  0
 13  9  1  0
 14 25  1  0
 14 15  1  1
 16 15  1  0
 17 16  2  0
 18 17  1  0
 19 18  1  0
 19 24  2  0
 20 19  1  0
 21 20  2  0
 21 22  1  0
 22 23  2  0
 23 24  1  0
 24 16  1  0
 25 27  1  0
 25 26  2  0
 27 28  1  0
 28 29  1  1
 29 30  1  0
 30 31  2  0
 31 32  1  0
 33 32  1  0
 34 30  1  0
 34 33  2  0
 35 28  1  0
 35 36  1  0
 37 35  2  0
M  END
$$$$
