YWH.pdb
     RDKit          3D

 37 40  0  0  1  0  0  0  0  0999 V2000
    7.9685  -14.7962   13.4664 O   0  0  0  0  0  0  0  0  0  0  0  0
    8.2795  -14.5279   14.8052 C   0  0  0  0  0  0  0  0  0  0  0  0
    9.5304  -14.8990   15.2464 C   0  0  0  0  0  0  0  0  0  0  0  0
    9.8689  -14.6495   16.5579 C   0  0  0  0  0  0  0  0  0  0  0  0
    8.9535  -14.0376   17.3952 C   0  0  0  0  0  0  0  0  0  0  0  0
    9.3737  -13.7901   18.8115 C   0  0  0  0  0  0  0  0  0  0  0  0
    9.8287  -15.0666   19.4713 C   0  0  2  0  0  0  0  0  0  0  0  0
    8.9533  -16.1339   19.0372 N   0  0  0  0  0  0  0  0  0  0  0  0
    9.8870  -14.9949   20.9338 C   0  0  0  0  0  0  0  0  0  0  0  0
   10.6579  -14.1582   21.4762 O   0  0  0  0  0  0  0  0  0  0  0  0
    7.6965  -13.6644   16.9525 C   0  0  0  0  0  0  0  0  0  0  0  0
    7.3691  -13.9180   15.6420 C   0  0  0  0  0  0  0  0  0  0  0  0
    9.1257  -15.8124   21.8043 N   0  0  0  0  0  0  0  0  0  0  0  0
    8.8129  -15.4379   23.1424 C   0  0  1  0  0  0  0  0  0  0  0  0
    7.3751  -15.4660   23.4979 C   0  0  0  0  0  0  0  0  0  0  0  0
    7.0184  -15.0996   24.8674 C   0  0  0  0  0  0  0  0  0  0  0  0
    6.5640  -15.7990   25.9555 C   0  0  0  0  0  0  0  0  0  0  0  0
    6.3922  -14.9605   27.0227 N   0  0  0  0  0  0  0  0  0  0  0  0
    6.7371  -13.7281   26.6147 C   0  0  0  0  0  0  0  0  0  0  0  0
    6.7474  -12.5115   27.3050 C   0  0  0  0  0  0  0  0  0  0  0  0
    7.1390  -11.3598   26.6944 C   0  0  0  0  0  0  0  0  0  0  0  0
    7.5315  -11.3840   25.3807 C   0  0  0  0  0  0  0  0  0  0  0  0
    7.5168  -12.5919   24.7102 C   0  0  0  0  0  0  0  0  0  0  0  0
    7.1240  -13.7745   25.3066 C   0  0  0  0  0  0  0  0  0  0  0  0
    9.5745  -16.2418   24.1579 C   0  0  0  0  0  0  0  0  0  0  0  0
    9.6808  -17.5036   23.9901 O   0  0  0  0  0  0  0  0  0  0  0  0
   10.1818  -15.6877   25.2903 N   0  0  0  0  0  0  0  0  0  0  0  0
   10.8632  -16.4830   26.3163 C   0  0  1  0  0  0  0  0  0  0  0  0
   10.9139  -15.6193   27.5442 C   0  0  0  0  0  0  0  0  0  0  0  0
   11.4585  -16.2685   28.7360 C   0  0  0  0  0  0  0  0  0  0  0  0
   10.7255  -16.8881   29.7219 C   0  0  0  0  0  0  0  0  0  0  0  0
   11.5941  -17.3527   30.6383 N   0  0  0  0  0  0  0  0  0  0  0  0
   12.8492  -17.0456   30.2612 C   0  0  0  0  0  0  0  0  0  0  0  0
   12.7448  -16.3763   29.0846 N   0  0  0  0  0  0  0  0  0  0  0  0
   10.0993  -17.7248   26.6052 C   0  0  0  0  0  0  0  0  0  0  0  0
    8.7203  -17.6580   26.6293 O   0  0  0  0  0  0  0  0  0  0  0  0
   10.6815  -18.8145   26.8239 O   0  0  0  0  0  0  0  0  0  0  0  0
  2  1  1  0
  3  2  2  0
  4  3  1  0
  5 11  1  0
  5  4  2  0
  6  5  1  0
  7  8  1  1
  7  9  1  0
  7  6  1  0
  9 10  2  0
 11 12  2  0
 12  2  1  0
 13 14  1  0
 13  9  1  0
 14 25  1  0
 14 15  1  1
 16 15  1  0
 17 16  2  0
 18 17  1  0
 19 18  1  0
 19 24  2  0
 20 19  1  0
 21 20  2  0
 21 22  1  0
 22 23  2  0
 23 24  1  0
 24 16  1  0
 25 27  1  0
 25 26  2  0
 27 28  1  0
 28 29  1  1
 29 30  1  0
 30 31  2  0
 31 32  1  0
 33 32  1  0
 34 30  1  0
 34 33  2  0
 35 28  1  0
 35 36  1  0
 37 35  2  0
M  END
$$$$
