YWH.pdb
     RDKit          3D

 37 40  0  0  1  0  0  0  0  0999 V2000
    7.2140  -14.1007   16.4220 O   0  0  0  0  0  0  0  0  0  0  0  0
    7.8250  -14.1302   17.6818 C   0  0  0  0  0  0  0  0  0  0  0  0
    7.2945  -13.3146   18.6568 C   0  0  0  0  0  0  0  0  0  0  0  0
    7.8714  -13.3193   19.9073 C   0  0  0  0  0  0  0  0  0  0  0  0
    8.9607  -14.1353   20.1541 C   0  0  0  0  0  0  0  0  0  0  0  0
    9.5489  -14.1011   21.5313 C   0  0  0  0  0  0  0  0  0  0  0  0
    9.5785  -15.4793   22.1409 C   0  0  2  0  0  0  0  0  0  0  0  0
    8.3717  -16.1723   21.7444 N   0  0  0  0  0  0  0  0  0  0  0  0
    9.7346  -15.4845   23.5979 C   0  0  0  0  0  0  0  0  0  0  0  0
   10.1887  -14.4570   24.1695 O   0  0  0  0  0  0  0  0  0  0  0  0
    9.4942  -14.9550   19.1749 C   0  0  0  0  0  0  0  0  0  0  0  0
    8.9108  -14.9426   17.9306 C   0  0  0  0  0  0  0  0  0  0  0  0
    9.4064  -16.5809   24.4322 N   0  0  0  0  0  0  0  0  0  0  0  0
    9.6591  -16.5904   25.8338 C   0  0  1  0  0  0  0  0  0  0  0  0
    8.4969  -16.2798   26.6983 C   0  0  0  0  0  0  0  0  0  0  0  0
    7.4623  -15.4111   26.1399 C   0  0  0  0  0  0  0  0  0  0  0  0
    6.3478  -15.6257   25.3709 C   0  0  0  0  0  0  0  0  0  0  0  0
    5.7022  -14.4444   25.1277 N   0  0  0  0  0  0  0  0  0  0  0  0
    6.4049  -13.4780   25.7415 C   0  0  0  0  0  0  0  0  0  0  0  0
    6.1852  -12.0983   25.8105 C   0  0  0  0  0  0  0  0  0  0  0  0
    7.0334  -11.2846   26.4967 C   0  0  0  0  0  0  0  0  0  0  0  0
    8.1240  -11.8185   27.1339 C   0  0  0  0  0  0  0  0  0  0  0  0
    8.3297  -13.1826   27.0581 C   0  0  0  0  0  0  0  0  0  0  0  0
    7.4843  -14.0300   26.3686 C   0  0  0  0  0  0  0  0  0  0  0  0
   10.2726  -17.8806   26.2992 C   0  0  0  0  0  0  0  0  0  0  0  0
   10.4369  -18.0673   27.5521 O   0  0  0  0  0  0  0  0  0  0  0  0
   10.6803  -18.9029   25.4352 N   0  0  0  0  0  0  0  0  0  0  0  0
   11.3533  -20.1252   25.8854 C   0  0  1  0  0  0  0  0  0  0  0  0
   11.0542  -21.1692   24.8477 C   0  0  0  0  0  0  0  0  0  0  0  0
   11.6723  -22.4731   25.0848 C   0  0  0  0  0  0  0  0  0  0  0  0
   12.9461  -22.8398   24.7159 C   0  0  0  0  0  0  0  0  0  0  0  0
   13.1293  -24.1129   25.1106 N   0  0  0  0  0  0  0  0  0  0  0  0
   12.0126  -24.5589   25.7156 C   0  0  0  0  0  0  0  0  0  0  0  0
   11.1246  -23.5322   25.6897 N   0  0  0  0  0  0  0  0  0  0  0  0
   12.8211  -19.9091   25.9740 C   0  0  0  0  0  0  0  0  0  0  0  0
   13.3746  -18.8577   25.2706 O   0  0  0  0  0  0  0  0  0  0  0  0
   13.5514  -20.6572   26.6679 O   0  0  0  0  0  0  0  0  0  0  0  0
  2  1  1  0
  3  2  2  0
  4  3  1  0
  5 11  1  0
  5  4  2  0
  6  5  1  0
  7  8  1  1
  7  9  1  0
  7  6  1  0
  9 10  2  0
 11 12  2  0
 12  2  1  0
 13 14  1  0
 13  9  1  0
 14 25  1  0
 14 15  1  1
 16 15  1  0
 17 16  2  0
 18 17  1  0
 19 18  1  0
 19 24  2  0
 20 19  1  0
 21 20  2  0
 21 22  1  0
 22 23  2  0
 23 24  1  0
 24 16  1  0
 25 27  1  0
 25 26  2  0
 27 28  1  0
 28 29  1  6
 29 30  1  0
 30 31  2  0
 31 32  1  0
 33 32  1  0
 34 30  1  0
 34 33  2  0
 35 28  1  0
 35 36  1  0
 37 35  2  0
M  END
$$$$
