YWH.pdb
     RDKit          3D

 37 40  0  0  1  0  0  0  0  0999 V2000
    7.3078  -13.4318   16.0537 O   0  0  0  0  0  0  0  0  0  0  0  0
    7.4248  -13.6778   17.4274 C   0  0  0  0  0  0  0  0  0  0  0  0
    8.3833  -12.9657   18.1139 C   0  0  0  0  0  0  0  0  0  0  0  0
    8.5249  -13.1833   19.4665 C   0  0  0  0  0  0  0  0  0  0  0  0
    7.7089  -14.1035   20.0995 C   0  0  0  0  0  0  0  0  0  0  0  0
    7.9056  -14.3007   21.5713 C   0  0  0  0  0  0  0  0  0  0  0  0
    9.0365  -15.2597   21.8419 C   0  0  2  0  0  0  0  0  0  0  0  0
    8.7109  -16.5255   21.2209 N   0  0  0  0  0  0  0  0  0  0  0  0
    9.3442  -15.4342   23.2639 C   0  0  0  0  0  0  0  0  0  0  0  0
    9.9712  -14.5251   23.8715 O   0  0  0  0  0  0  0  0  0  0  0  0
    6.7456  -14.8192   19.4103 C   0  0  0  0  0  0  0  0  0  0  0  0
    6.6128  -14.5943   18.0610 C   0  0  0  0  0  0  0  0  0  0  0  0
    8.9822  -16.5720   24.0255 N   0  0  0  0  0  0  0  0  0  0  0  0
    9.2686  -16.6971   25.4150 C   0  0  1  0  0  0  0  0  0  0  0  0
    8.1009  -16.6085   26.3223 C   0  0  0  0  0  0  0  0  0  0  0  0
    7.1876  -15.4838   26.1275 C   0  0  0  0  0  0  0  0  0  0  0  0
    5.9244  -15.3579   25.6098 C   0  0  0  0  0  0  0  0  0  0  0  0
    5.5122  -14.0549   25.6713 N   0  0  0  0  0  0  0  0  0  0  0  0
    6.5120  -13.3514   26.2278 C   0  0  0  0  0  0  0  0  0  0  0  0
    6.6110  -11.9870   26.5196 C   0  0  0  0  0  0  0  0  0  0  0  0
    7.7315  -11.4701   27.0939 C   0  0  0  0  0  0  0  0  0  0  0  0
    8.7856  -12.2942   27.3946 C   0  0  0  0  0  0  0  0  0  0  0  0
    8.6752  -13.6398   27.1014 C   0  0  0  0  0  0  0  0  0  0  0  0
    7.5494  -14.1892   26.5191 C   0  0  0  0  0  0  0  0  0  0  0  0
   10.0310  -17.9518   25.7348 C   0  0  0  0  0  0  0  0  0  0  0  0
    9.4654  -19.0811   25.5440 O   0  0  0  0  0  0  0  0  0  0  0  0
   11.3378  -17.9605   26.2349 N   0  0  0  0  0  0  0  0  0  0  0  0
   12.0202  -19.1720   26.6999 C   0  0  1  0  0  0  0  0  0  0  0  0
   13.4836  -18.8351   26.7366 C   0  0  0  0  0  0  0  0  0  0  0  0
   14.1075  -18.6417   25.4283 C   0  0  0  0  0  0  0  0  0  0  0  0
   13.5091  -18.8643   24.2095 C   0  0  0  0  0  0  0  0  0  0  0  0
   14.4135  -18.5729   23.2571 N   0  0  0  0  0  0  0  0  0  0  0  0
   15.5611  -18.1744   23.8368 C   0  0  0  0  0  0  0  0  0  0  0  0
   15.3525  -18.2237   25.1774 N   0  0  0  0  0  0  0  0  0  0  0  0
   11.5543  -19.5419   28.0620 C   0  0  0  0  0  0  0  0  0  0  0  0
   12.0503  -20.6957   28.6359 O   0  0  0  0  0  0  0  0  0  0  0  0
   10.7299  -18.8314   28.6863 O   0  0  0  0  0  0  0  0  0  0  0  0
  2  1  1  0
  3  2  2  0
  4  3  1  0
  5 11  1  0
  5  4  2  0
  6  5  1  0
  7  8  1  1
  7  9  1  0
  7  6  1  0
  9 10  2  0
 11 12  2  0
 12  2  1  0
 13 14  1  0
 13  9  1  0
 14 25  1  0
 14 15  1  1
 16 15  1  0
 17 16  2  0
 18 17  1  0
 19 18  1  0
 19 24  2  0
 20 19  1  0
 21 20  2  0
 21 22  1  0
 22 23  2  0
 23 24  1  0
 24 16  1  0
 25 27  1  0
 25 26  2  0
 27 28  1  0
 28 29  1  1
 29 30  1  0
 30 31  2  0
 31 32  1  0
 33 32  1  0
 34 30  1  0
 34 33  2  0
 35 28  1  0
 35 36  1  0
 37 35  2  0
M  END
$$$$
