KGI.pdb
     RDKit          3D

 22 21  0  0  1  0  0  0  0  0999 V2000
    9.3725  -16.2350   17.6257 N   0  0  0  0  0  0  0  0  0  0  0  0
    8.7928  -15.1692   18.3596 C   0  0  1  0  0  0  0  0  0  0  0  0
    7.9353  -14.3136   17.4506 C   0  0  0  0  0  0  0  0  0  0  0  0
    8.4356  -14.4538   16.0405 C   0  0  0  0  0  0  0  0  0  0  0  0
    7.6429  -13.5692   15.0687 C   0  0  0  0  0  0  0  0  0  0  0  0
    8.2788  -13.6628   13.6887 C   0  0  0  0  0  0  0  0  0  0  0  0
    7.5396  -12.9246   12.6875 N   0  0  0  0  0  0  0  0  0  0  0  0
    8.1046  -15.5268   19.6060 C   0  0  0  0  0  0  0  0  0  0  0  0
    7.9179  -16.7587   19.8252 O   0  0  0  0  0  0  0  0  0  0  0  0
    7.6198  -14.6247   20.5956 N   0  0  0  0  0  0  0  0  0  0  0  0
    6.9508  -15.1145   21.7926 C   0  0  0  0  0  0  0  0  0  0  0  0
    7.7495  -14.8982   23.0277 C   0  0  0  0  0  0  0  0  0  0  0  0
    8.9929  -14.7838   22.9608 O   0  0  0  0  0  0  0  0  0  0  0  0
    5.6677  -11.8071   27.2374 C   0  0  0  0  0  0  0  0  0  0  0  0
    5.9393  -13.1323   26.5377 C   0  0  0  0  0  0  0  0  0  0  0  0
    7.3862  -13.1764   26.1743 C   0  0  2  0  0  0  0  0  0  0  0  0
    7.6969  -11.9094   25.3633 C   0  0  0  0  0  0  0  0  0  0  0  0
    7.8917  -14.3979   25.5162 C   0  0  2  0  0  0  0  0  0  0  0  0
    7.1722  -14.8159   24.3283 N   0  0  0  0  0  0  0  0  0  0  0  0
    7.8954  -15.5168   26.5174 C   0  0  0  0  0  0  0  0  0  0  0  0
    7.1185  -16.6264   26.2682 O   0  0  0  0  0  0  0  0  0  0  0  0
    8.5797  -15.4357   27.5340 O   0  0  0  0  0  0  0  0  0  0  0  0
  2  1  1  6
  2  3  1  0
  4  3  1  0
  5  4  1  0
  6  5  1  0
  7  6  1  0
  8  9  2  0
  8  2  1  0
 10  8  1  0
 11 12  1  0
 11 10  1  0
 12 19  1  0
 13 12  2  0
 15 14  1  0
 16 15  1  0
 16 17  1  6
 18 16  1  0
 18 20  1  0
 18 19  1  6
 20 22  2  0
 20 21  1  0
M  END
$$$$
