KGI.pdb
     RDKit          3D

 22 21  0  0  1  0  0  0  0  0999 V2000
    6.9289  -16.4705   19.2714 N   0  0  0  0  0  0  0  0  0  0  0  0
    7.8720  -15.6958   19.9932 C   0  0  1  0  0  0  0  0  0  0  0  0
    7.7493  -14.2348   19.6133 C   0  0  0  0  0  0  0  0  0  0  0  0
    8.4745  -14.0095   18.3165 C   0  0  0  0  0  0  0  0  0  0  0  0
    7.5247  -13.5191   17.2154 C   0  0  0  0  0  0  0  0  0  0  0  0
    8.3229  -13.3062   15.9367 C   0  0  0  0  0  0  0  0  0  0  0  0
    8.9003  -14.5340   15.4338 N   0  0  0  0  0  0  0  0  0  0  0  0
    7.9121  -15.8954   21.4470 C   0  0  0  0  0  0  0  0  0  0  0  0
    8.9341  -15.4665   22.0570 O   0  0  0  0  0  0  0  0  0  0  0  0
    6.9160  -16.5290   22.2436 N   0  0  0  0  0  0  0  0  0  0  0  0
    7.2559  -17.1441   23.5189 C   0  0  0  0  0  0  0  0  0  0  0  0
    8.0776  -16.2579   24.3845 C   0  0  0  0  0  0  0  0  0  0  0  0
    9.3042  -16.1353   24.1750 O   0  0  0  0  0  0  0  0  0  0  0  0
    5.7092  -12.0311   26.7527 C   0  0  0  0  0  0  0  0  0  0  0  0
    6.8965  -12.6229   26.0047 C   0  0  0  0  0  0  0  0  0  0  0  0
    7.6342  -13.5200   26.9420 C   0  0  2  0  0  0  0  0  0  0  0  0
    8.5714  -12.6392   27.7819 C   0  0  0  0  0  0  0  0  0  0  0  0
    8.3321  -14.6879   26.3679 C   0  0  2  0  0  0  0  0  0  0  0  0
    7.5422  -15.5181   25.4790 N   0  0  0  0  0  0  0  0  0  0  0  0
    8.8675  -15.5279   27.4914 C   0  0  0  0  0  0  0  0  0  0  0  0
    8.2665  -16.7394   27.7524 O   0  0  0  0  0  0  0  0  0  0  0  0
    9.8213  -15.1352   28.1579 O   0  0  0  0  0  0  0  0  0  0  0  0
  2  1  1  1
  2  3  1  0
  4  3  1  0
  5  4  1  0
  6  5  1  0
  7  6  1  0
  8  9  2  0
  8  2  1  0
 10  8  1  0
 11 12  1  0
 11 10  1  0
 12 19  1  0
 13 12  2  0
 15 14  1  0
 16 15  1  0
 16 17  1  6
 18 16  1  0
 18 20  1  0
 18 19  1  1
 20 22  2  0
 20 21  1  0
M  END
$$$$
