KGI.pdb
     RDKit          3D

 22 21  0  0  1  0  0  0  0  0999 V2000
   10.1370  -18.2588   19.6349 N   0  0  0  0  0  0  0  0  0  0  0  0
    8.9908  -17.4557   19.4072 C   0  0  1  0  0  0  0  0  0  0  0  0
    8.0730  -18.1257   18.4060 C   0  0  0  0  0  0  0  0  0  0  0  0
    8.7225  -18.0852   17.0514 C   0  0  0  0  0  0  0  0  0  0  0  0
    7.8616  -18.7841   15.9905 C   0  0  0  0  0  0  0  0  0  0  0  0
    8.6460  -18.8515   14.6876 C   0  0  0  0  0  0  0  0  0  0  0  0
    7.9008  -19.4919   13.6254 N   0  0  0  0  0  0  0  0  0  0  0  0
    8.2726  -16.9823   20.5967 C   0  0  0  0  0  0  0  0  0  0  0  0
    8.1573  -17.7956   21.5588 O   0  0  0  0  0  0  0  0  0  0  0  0
    7.6861  -15.6972   20.7774 N   0  0  0  0  0  0  0  0  0  0  0  0
    6.9535  -15.3721   21.9931 C   0  0  0  0  0  0  0  0  0  0  0  0
    7.8440  -14.9504   23.1063 C   0  0  0  0  0  0  0  0  0  0  0  0
    9.0794  -14.8740   22.9292 O   0  0  0  0  0  0  0  0  0  0  0  0
    6.1648  -11.4064   27.2913 C   0  0  0  0  0  0  0  0  0  0  0  0
    6.3624  -12.7691   26.6405 C   0  0  0  0  0  0  0  0  0  0  0  0
    7.7358  -12.8096   26.0578 C   0  0  2  0  0  0  0  0  0  0  0  0
    7.8519  -11.6400   25.0687 C   0  0  0  0  0  0  0  0  0  0  0  0
    8.1951  -14.0843   25.4706 C   0  0  2  0  0  0  0  0  0  0  0  0
    7.3666  -14.6220   24.4086 N   0  0  0  0  0  0  0  0  0  0  0  0
    8.3221  -15.1009   26.5682 C   0  0  0  0  0  0  0  0  0  0  0  0
    7.4958  -16.2025   26.5447 O   0  0  0  0  0  0  0  0  0  0  0  0
    9.1480  -14.9452   27.4637 O   0  0  0  0  0  0  0  0  0  0  0  0
  2  1  1  1
  2  3  1  0
  4  3  1  0
  5  4  1  0
  6  5  1  0
  7  6  1  0
  8  9  2  0
  8  2  1  0
 10  8  1  0
 11 12  1  0
 11 10  1  0
 12 19  1  0
 13 12  2  0
 15 14  1  0
 16 15  1  0
 16 17  1  6
 18 16  1  0
 18 20  1  0
 18 19  1  6
 20 22  2  0
 20 21  1  0
M  END
$$$$
