KGI.pdb
     RDKit          3D

 22 21  0  0  1  0  0  0  0  0999 V2000
    5.0565  -19.7072   21.1611 N   0  0  0  0  0  0  0  0  0  0  0  0
    4.6977  -18.3867   21.5330 C   0  0  1  0  0  0  0  0  0  0  0  0
    3.2026  -18.1912   21.3915 C   0  0  0  0  0  0  0  0  0  0  0  0
    2.6120  -19.4188   20.7570 C   0  0  0  0  0  0  0  0  0  0  0  0
    1.2284  -19.7443   21.3356 C   0  0  0  0  0  0  0  0  0  0  0  0
    0.6688  -20.9632   20.6153 C   0  0  0  0  0  0  0  0  0  0  0  0
   -0.6654  -21.3044   21.0593 N   0  0  0  0  0  0  0  0  0  0  0  0
    5.2062  -17.9058   22.8234 C   0  0  0  0  0  0  0  0  0  0  0  0
    4.8655  -16.7394   23.1756 O   0  0  0  0  0  0  0  0  0  0  0  0
    6.0508  -18.6193   23.7210 N   0  0  0  0  0  0  0  0  0  0  0  0
    6.3867  -18.0728   25.0282 C   0  0  0  0  0  0  0  0  0  0  0  0
    7.6474  -17.2852   25.0161 C   0  0  0  0  0  0  0  0  0  0  0  0
    8.3454  -17.2309   23.9801 O   0  0  0  0  0  0  0  0  0  0  0  0
    9.2704  -13.0126   28.7685 C   0  0  0  0  0  0  0  0  0  0  0  0
    9.0196  -14.4332   28.2801 C   0  0  0  0  0  0  0  0  0  0  0  0
    9.2719  -14.4689   26.8095 C   0  0  2  0  0  0  0  0  0  0  0  0
    8.2290  -13.5609   26.1404 C   0  0  0  0  0  0  0  0  0  0  0  0
    9.3581  -15.7922   26.1598 C   0  0  2  0  0  0  0  0  0  0  0  0
    8.1329  -16.5682   26.1484 N   0  0  0  0  0  0  0  0  0  0  0  0
   10.4451  -16.5850   26.8264 C   0  0  0  0  0  0  0  0  0  0  0  0
   10.0927  -17.6838   27.5782 O   0  0  0  0  0  0  0  0  0  0  0  0
   11.6207  -16.2533   26.6983 O   0  0  0  0  0  0  0  0  0  0  0  0
  2  1  1  1
  2  3  1  0
  4  3  1  0
  5  4  1  0
  6  5  1  0
  7  6  1  0
  8  9  2  0
  8  2  1  0
 10  8  1  0
 11 12  1  0
 11 10  1  0
 12 19  1  0
 13 12  2  0
 15 14  1  0
 16 15  1  0
 16 17  1  6
 18 16  1  0
 18 20  1  0
 18 19  1  1
 20 22  2  0
 20 21  1  0
M  END
$$$$
