KGI.pdb
     RDKit          3D

 22 21  0  0  1  0  0  0  0  0999 V2000
    4.2906  -18.1179   20.1065 N   0  0  0  0  0  0  0  0  0  0  0  0
    5.5238  -18.2686   20.7899 C   0  0  1  0  0  0  0  0  0  0  0  0
    6.6570  -17.7120   19.9534 C   0  0  0  0  0  0  0  0  0  0  0  0
    6.5187  -16.2172   19.8843 C   0  0  0  0  0  0  0  0  0  0  0  0
    7.5577  -15.5962   18.9410 C   0  0  0  0  0  0  0  0  0  0  0  0
    7.3025  -14.0983   18.8466 C   0  0  0  0  0  0  0  0  0  0  0  0
    8.2494  -13.4291   17.9810 N   0  0  0  0  0  0  0  0  0  0  0  0
    5.5680  -17.7958   22.1790 C   0  0  0  0  0  0  0  0  0  0  0  0
    4.7958  -16.8418   22.4852 O   0  0  0  0  0  0  0  0  0  0  0  0
    6.3981  -18.3006   23.2203 N   0  0  0  0  0  0  0  0  0  0  0  0
    6.2923  -17.7866   24.5785 C   0  0  0  0  0  0  0  0  0  0  0  0
    7.2365  -16.6700   24.8465 C   0  0  0  0  0  0  0  0  0  0  0  0
    8.3564  -16.6460   24.2908 O   0  0  0  0  0  0  0  0  0  0  0  0
    5.4396  -11.8640   27.3197 C   0  0  0  0  0  0  0  0  0  0  0  0
    6.0499  -12.7317   26.2269 C   0  0  0  0  0  0  0  0  0  0  0  0
    7.2818  -13.3705   26.7764 C   0  0  2  0  0  0  0  0  0  0  0  0
    8.3102  -12.2557   27.0198 C   0  0  0  0  0  0  0  0  0  0  0  0
    7.8573  -14.5070   26.0294 C   0  0  2  0  0  0  0  0  0  0  0  0
    6.9415  -15.5910   25.7300 N   0  0  0  0  0  0  0  0  0  0  0  0
    9.0307  -15.0424   26.7980 C   0  0  0  0  0  0  0  0  0  0  0  0
   10.2725  -14.4909   26.5732 O   0  0  0  0  0  0  0  0  0  0  0  0
    8.8770  -15.9528   27.6079 O   0  0  0  0  0  0  0  0  0  0  0  0
  2  1  1  6
  2  3  1  0
  4  3  1  0
  5  4  1  0
  6  5  1  0
  7  6  1  0
  8  9  2  0
  8  2  1  0
 10  8  1  0
 11 12  1  0
 11 10  1  0
 12 19  1  0
 13 12  2  0
 15 14  1  0
 16 15  1  0
 16 17  1  6
 18 16  1  0
 18 20  1  0
 18 19  1  1
 20 22  2  0
 20 21  1  0
M  END
$$$$
