KGI.pdb
     RDKit          3D

 22 21  0  0  1  0  0  0  0  0999 V2000
    7.0465  -19.3280   22.2430 N   0  0  0  0  0  0  0  0  0  0  0  0
    8.2445  -18.9027   21.6148 C   0  0  1  0  0  0  0  0  0  0  0  0
    8.4978  -19.7188   20.3644 C   0  0  0  0  0  0  0  0  0  0  0  0
    8.8127  -21.1326   20.7649 C   0  0  0  0  0  0  0  0  0  0  0  0
    9.0725  -22.0222   19.5416 C   0  0  0  0  0  0  0  0  0  0  0  0
    9.2337  -23.4627   20.0069 C   0  0  0  0  0  0  0  0  0  0  0  0
    9.4809  -24.3741   18.9106 N   0  0  0  0  0  0  0  0  0  0  0  0
    8.3888  -17.4606   21.3817 C   0  0  0  0  0  0  0  0  0  0  0  0
    9.4588  -17.0729   20.8292 O   0  0  0  0  0  0  0  0  0  0  0  0
    7.4453  -16.4486   21.7194 N   0  0  0  0  0  0  0  0  0  0  0  0
    7.7213  -15.0454   21.4454 C   0  0  0  0  0  0  0  0  0  0  0  0
    8.2181  -14.3127   22.6396 C   0  0  0  0  0  0  0  0  0  0  0  0
    8.7385  -13.1828   22.5129 O   0  0  0  0  0  0  0  0  0  0  0  0
    6.7245  -11.3046   27.0680 C   0  0  0  0  0  0  0  0  0  0  0  0
    7.6977  -11.7647   25.9906 C   0  0  0  0  0  0  0  0  0  0  0  0
    7.3232  -13.1528   25.5901 C   0  0  2  0  0  0  0  0  0  0  0  0
    6.4821  -13.7502   26.7282 C   0  0  0  0  0  0  0  0  0  0  0  0
    8.4071  -14.0599   25.1622 C   0  0  2  0  0  0  0  0  0  0  0  0
    8.1434  -14.8336   23.9643 N   0  0  0  0  0  0  0  0  0  0  0  0
    8.7314  -14.9894   26.2958 C   0  0  0  0  0  0  0  0  0  0  0  0
    8.3697  -16.3138   26.1859 O   0  0  0  0  0  0  0  0  0  0  0  0
    9.3074  -14.5690   27.2957 O   0  0  0  0  0  0  0  0  0  0  0  0
  2  1  1  6
  2  3  1  0
  4  3  1  0
  5  4  1  0
  6  5  1  0
  7  6  1  0
  8  9  2  0
  8  2  1  0
 10  8  1  0
 11 12  1  0
 11 10  1  0
 12 19  1  0
 13 12  2  0
 15 14  1  0
 16 15  1  0
 16 17  1  1
 18 16  1  0
 18 20  1  0
 18 19  1  6
 20 22  2  0
 20 21  1  0
M  END
$$$$
