KGI.pdb
     RDKit          3D

 22 21  0  0  1  0  0  0  0  0999 V2000
    5.5704  -19.4516   23.4838 N   0  0  0  0  0  0  0  0  0  0  0  0
    6.9296  -19.7182   23.1800 C   0  0  1  0  0  0  0  0  0  0  0  0
    7.0391  -20.9561   22.3144 C   0  0  0  0  0  0  0  0  0  0  0  0
    6.5194  -22.1351   23.0880 C   0  0  0  0  0  0  0  0  0  0  0  0
    5.0929  -22.5069   22.6613 C   0  0  0  0  0  0  0  0  0  0  0  0
    4.6509  -23.7363   23.4428 C   0  0  0  0  0  0  0  0  0  0  0  0
    3.2871  -24.1191   23.1474 N   0  0  0  0  0  0  0  0  0  0  0  0
    7.7188  -18.5966   22.6565 C   0  0  0  0  0  0  0  0  0  0  0  0
    8.9242  -18.8345   22.3554 O   0  0  0  0  0  0  0  0  0  0  0  0
    7.2654  -17.2615   22.4563 N   0  0  0  0  0  0  0  0  0  0  0  0
    8.1875  -16.2099   22.0510 C   0  0  0  0  0  0  0  0  0  0  0  0
    8.5886  -15.3296   23.1797 C   0  0  0  0  0  0  0  0  0  0  0  0
    9.4247  -14.4175   22.9997 O   0  0  0  0  0  0  0  0  0  0  0  0
    5.5056  -12.3787   26.2268 C   0  0  0  0  0  0  0  0  0  0  0  0
    6.6333  -12.9662   25.3885 C   0  0  0  0  0  0  0  0  0  0  0  0
    7.4585  -13.8425   26.2708 C   0  0  2  0  0  0  0  0  0  0  0  0
    8.0226  -12.9631   27.3969 C   0  0  0  0  0  0  0  0  0  0  0  0
    8.5024  -14.6702   25.6335 C   0  0  2  0  0  0  0  0  0  0  0  0
    8.0697  -15.4653   24.5004 N   0  0  0  0  0  0  0  0  0  0  0  0
    9.1042  -15.5698   26.6741 C   0  0  0  0  0  0  0  0  0  0  0  0
    9.9752  -15.0254   27.5916 O   0  0  0  0  0  0  0  0  0  0  0  0
    8.8198  -16.7643   26.6991 O   0  0  0  0  0  0  0  0  0  0  0  0
  2  1  1  6
  2  3  1  0
  4  3  1  0
  5  4  1  0
  6  5  1  0
  7  6  1  0
  8  9  2  0
  8  2  1  0
 10  8  1  0
 11 12  1  0
 11 10  1  0
 12 19  1  0
 13 12  2  0
 15 14  1  0
 16 15  1  0
 16 17  1  1
 18 16  1  0
 18 20  1  0
 18 19  1  6
 20 22  2  0
 20 21  1  0
M  END
$$$$
