KGI.pdb
     RDKit          3D

 22 21  0  0  1  0  0  0  0  0999 V2000
   10.1955  -18.2904   20.0260 N   0  0  0  0  0  0  0  0  0  0  0  0
    8.7824  -18.4078   20.0165 C   0  0  1  0  0  0  0  0  0  0  0  0
    8.3776  -19.8260   19.6722 C   0  0  0  0  0  0  0  0  0  0  0  0
    8.5104  -20.0204   18.1879 C   0  0  0  0  0  0  0  0  0  0  0  0
    7.9488  -21.3775   17.7429 C   0  0  0  0  0  0  0  0  0  0  0  0
    8.1124  -21.5064   16.2349 C   0  0  0  0  0  0  0  0  0  0  0  0
    9.2628  -22.3042   15.8691 N   0  0  0  0  0  0  0  0  0  0  0  0
    8.0716  -17.8920   21.1928 C   0  0  0  0  0  0  0  0  0  0  0  0
    8.2493  -18.5051   22.2850 O   0  0  0  0  0  0  0  0  0  0  0  0
    7.1954  -16.7699   21.2292 N   0  0  0  0  0  0  0  0  0  0  0  0
    6.5728  -16.3456   22.4753 C   0  0  0  0  0  0  0  0  0  0  0  0
    7.5178  -15.6392   23.3796 C   0  0  0  0  0  0  0  0  0  0  0  0
    8.7260  -15.5395   23.0732 O   0  0  0  0  0  0  0  0  0  0  0  0
    5.5918  -11.4898   26.4346 C   0  0  0  0  0  0  0  0  0  0  0  0
    6.4644  -12.2405   25.4374 C   0  0  0  0  0  0  0  0  0  0  0  0
    7.3552  -13.1616   26.2027 C   0  0  2  0  0  0  0  0  0  0  0  0
    8.3734  -12.2956   26.9595 C   0  0  0  0  0  0  0  0  0  0  0  0
    8.0015  -14.2639   25.4623 C   0  0  2  0  0  0  0  0  0  0  0  0
    7.1252  -15.0532   24.6182 N   0  0  0  0  0  0  0  0  0  0  0  0
    8.6912  -15.1642   26.4463 C   0  0  0  0  0  0  0  0  0  0  0  0
   10.0093  -14.9135   26.7569 O   0  0  0  0  0  0  0  0  0  0  0  0
    8.0849  -16.1015   26.9583 O   0  0  0  0  0  0  0  0  0  0  0  0
  2  1  1  1
  2  3  1  0
  4  3  1  0
  5  4  1  0
  6  5  1  0
  7  6  1  0
  8  9  2  0
  8  2  1  0
 10  8  1  0
 11 12  1  0
 11 10  1  0
 12 19  1  0
 13 12  2  0
 15 14  1  0
 16 15  1  0
 16 17  1  6
 18 16  1  0
 18 20  1  0
 18 19  1  1
 20 22  2  0
 20 21  1  0
M  END
$$$$
