KGI.pdb
     RDKit          3D

 22 21  0  0  1  0  0  0  0  0999 V2000
    8.4807  -20.2432   21.2089 N   0  0  0  0  0  0  0  0  0  0  0  0
    8.8096  -18.9003   20.8940 C   0  0  1  0  0  0  0  0  0  0  0  0
    8.7087  -18.6735   19.4000 C   0  0  0  0  0  0  0  0  0  0  0  0
   10.0594  -18.9050   18.7831 C   0  0  0  0  0  0  0  0  0  0  0  0
   10.0337  -18.6805   17.2652 C   0  0  0  0  0  0  0  0  0  0  0  0
   11.4465  -18.8396   16.7209 C   0  0  0  0  0  0  0  0  0  0  0  0
   11.5532  -18.4421   15.3337 N   0  0  0  0  0  0  0  0  0  0  0  0
    8.1248  -17.8569   21.6668 C   0  0  0  0  0  0  0  0  0  0  0  0
    8.3517  -16.6568   21.3373 O   0  0  0  0  0  0  0  0  0  0  0  0
    7.2308  -18.0583   22.7570 N   0  0  0  0  0  0  0  0  0  0  0  0
    6.6624  -16.9284   23.4784 C   0  0  0  0  0  0  0  0  0  0  0  0
    7.6536  -16.2447   24.3501 C   0  0  0  0  0  0  0  0  0  0  0  0
    8.8422  -16.6321   24.3754 O   0  0  0  0  0  0  0  0  0  0  0  0
    5.4059  -12.7202   26.4324 C   0  0  0  0  0  0  0  0  0  0  0  0
    6.8499  -12.3067   26.1807 C   0  0  0  0  0  0  0  0  0  0  0  0
    7.7401  -13.3199   26.8197 C   0  0  2  0  0  0  0  0  0  0  0  0
    8.8359  -12.5574   27.5796 C   0  0  0  0  0  0  0  0  0  0  0  0
    8.2952  -14.3851   25.9606 C   0  0  2  0  0  0  0  0  0  0  0  0
    7.3258  -15.1426   25.1926 N   0  0  0  0  0  0  0  0  0  0  0  0
    9.0976  -15.3228   26.8157 C   0  0  0  0  0  0  0  0  0  0  0  0
    8.4714  -16.4278   27.3484 O   0  0  0  0  0  0  0  0  0  0  0  0
   10.2865  -15.1013   27.0300 O   0  0  0  0  0  0  0  0  0  0  0  0
  2  1  1  6
  2  3  1  0
  4  3  1  0
  5  4  1  0
  6  5  1  0
  7  6  1  0
  8  9  2  0
  8  2  1  0
 10  8  1  0
 11 12  1  0
 11 10  1  0
 12 19  1  0
 13 12  2  0
 15 14  1  0
 16 15  1  0
 16 17  1  6
 18 16  1  0
 18 20  1  0
 18 19  1  1
 20 22  2  0
 20 21  1  0
M  END
$$$$
