KGI.pdb
     RDKit          3D

 22 21  0  0  1  0  0  0  0  0999 V2000
    8.4715  -16.6799   18.9286 N   0  0  0  0  0  0  0  0  0  0  0  0
    8.1397  -15.4707   19.5907 C   0  0  1  0  0  0  0  0  0  0  0  0
    7.2812  -14.6023   18.6949 C   0  0  0  0  0  0  0  0  0  0  0  0
    7.5553  -14.9649   17.2625 C   0  0  0  0  0  0  0  0  0  0  0  0
    8.1227  -13.7750   16.4767 C   0  0  0  0  0  0  0  0  0  0  0  0
    8.1808  -14.1436   15.0008 C   0  0  0  0  0  0  0  0  0  0  0  0
    8.7513  -13.0902   14.1893 N   0  0  0  0  0  0  0  0  0  0  0  0
    7.5905  -15.5925   20.9466 C   0  0  0  0  0  0  0  0  0  0  0  0
    7.4022  -14.5184   21.5879 O   0  0  0  0  0  0  0  0  0  0  0  0
    7.2509  -16.8015   21.6182 N   0  0  0  0  0  0  0  0  0  0  0  0
    6.7170  -16.7816   22.9728 C   0  0  0  0  0  0  0  0  0  0  0  0
    7.6815  -16.2360   23.9637 C   0  0  0  0  0  0  0  0  0  0  0  0
    8.9059  -16.2263   23.7103 O   0  0  0  0  0  0  0  0  0  0  0  0
    5.9052  -11.8639   26.6914 C   0  0  0  0  0  0  0  0  0  0  0  0
    6.6888  -12.8244   25.8066 C   0  0  0  0  0  0  0  0  0  0  0  0
    7.4910  -13.7196   26.6913 C   0  0  2  0  0  0  0  0  0  0  0  0
    8.4911  -12.8381   27.4544 C   0  0  0  0  0  0  0  0  0  0  0  0
    8.1403  -14.8931   26.0731 C   0  0  2  0  0  0  0  0  0  0  0  0
    7.2897  -15.7106   25.2295 N   0  0  0  0  0  0  0  0  0  0  0  0
    8.7311  -15.7436   27.1602 C   0  0  0  0  0  0  0  0  0  0  0  0
   10.0222  -15.4899   27.5669 O   0  0  0  0  0  0  0  0  0  0  0  0
    8.0697  -16.6440   27.6702 O   0  0  0  0  0  0  0  0  0  0  0  0
  2  1  1  6
  2  3  1  0
  4  3  1  0
  5  4  1  0
  6  5  1  0
  7  6  1  0
  8  9  2  0
  8  2  1  0
 10  8  1  0
 11 12  1  0
 11 10  1  0
 12 19  1  0
 13 12  2  0
 15 14  1  0
 16 15  1  0
 16 17  1  6
 18 16  1  0
 18 20  1  0
 18 19  1  1
 20 22  2  0
 20 21  1  0
M  END
$$$$
