QAM.pdb
     RDKit          3D

 23 22  0  0  1  0  0  0  0  0999 V2000
   29.9468  -17.2782  -18.2041 N   0  0  0  0  0  0  0  0  0  0  0  0
   29.0028  -16.3713  -18.8400 C   0  0  0  0  0  0  0  0  0  0  0  0
   29.2995  -15.9886  -20.0000 O   0  0  0  0  0  0  0  0  0  0  0  0
   27.8098  -15.9735  -18.1075 C   0  0  0  0  0  0  0  0  0  0  0  0
   27.7417  -16.3777  -16.6695 C   0  0  0  0  0  0  0  0  0  0  0  0
   27.2501  -17.7900  -16.5420 C   0  0  2  0  0  0  0  0  0  0  0  0
   26.7754  -18.2808  -17.7851 N   0  0  0  0  0  0  0  0  0  0  0  0
   26.1415  -17.8773  -15.5230 C   0  0  0  0  0  0  0  0  0  0  0  0
   26.2644  -17.3089  -14.4082 O   0  0  0  0  0  0  0  0  0  0  0  0
   22.5674  -18.5674  -15.4838 C   0  0  0  0  0  0  0  0  0  0  0  0
   23.8964  -18.6101  -14.7587 C   0  0  2  0  0  0  0  0  0  0  0  0
   24.9379  -18.5878  -15.7712 N   0  0  0  0  0  0  0  0  0  0  0  0
   24.0093  -19.7617  -13.8577 C   0  0  0  0  0  0  0  0  0  0  0  0
   23.7406  -20.9232  -14.2825 O   0  0  0  0  0  0  0  0  0  0  0  0
   26.3634  -19.1841   -7.9157 C   0  0  0  0  0  0  0  0  0  0  0  0
   25.9980  -20.9429   -7.7752 S   0  0  0  0  0  0  0  0  0  0  0  0
   25.0079  -21.4155   -9.2643 C   0  0  0  0  0  0  0  0  0  0  0  0
   25.1535  -20.3629  -10.3235 C   0  0  0  0  0  0  0  0  0  0  0  0
   24.4498  -20.7453  -11.5755 C   0  0  2  0  0  0  0  0  0  0  0  0
   24.4091  -19.6283  -12.5230 N   0  0  0  0  0  0  0  0  0  0  0  0
   23.0711  -21.1455  -11.3067 C   0  0  0  0  0  0  0  0  0  0  0  0
   22.0844  -20.1828  -11.1869 O   0  0  0  0  0  0  0  0  0  0  0  0
   22.7241  -22.3334  -11.1756 O   0  0  0  0  0  0  0  0  0  0  0  0
  1  2  1  0
  2  4  1  0
  3  2  2  0
  4  5  1  0
  5  6  1  0
  6  8  1  0
  6  7  1  6
  8  9  2  0
 11 10  1  6
 11 13  1  0
 12  8  1  0
 12 11  1  0
 13 14  2  0
 16 15  1  0
 17 16  1  0
 17 18  1  0
 19 18  1  1
 19 21  1  0
 20 19  1  0
 20 13  1  0
 21 23  2  0
 21 22  1  0
M  END
$$$$
