QAM.pdb
     RDKit          3D

 23 22  0  0  1  0  0  0  0  0999 V2000
   24.5435  -18.8684  -17.6703 N   0  0  0  0  0  0  0  0  0  0  0  0
   25.0972  -17.9994  -16.6425 C   0  0  0  0  0  0  0  0  0  0  0  0
   26.3506  -17.9809  -16.5504 O   0  0  0  0  0  0  0  0  0  0  0  0
   24.1856  -17.2319  -15.8069 C   0  0  0  0  0  0  0  0  0  0  0  0
   24.1086  -17.6234  -14.3658 C   0  0  0  0  0  0  0  0  0  0  0  0
   23.5478  -19.0084  -14.2254 C   0  0  2  0  0  0  0  0  0  0  0  0
   22.1377  -19.0073  -14.3773 N   0  0  0  0  0  0  0  0  0  0  0  0
   23.8969  -19.5895  -12.8781 C   0  0  0  0  0  0  0  0  0  0  0  0
   23.2409  -19.2554  -11.8588 O   0  0  0  0  0  0  0  0  0  0  0  0
   25.3996  -22.5871  -11.5976 C   0  0  0  0  0  0  0  0  0  0  0  0
   25.1923  -21.1007  -11.3948 C   0  0  2  0  0  0  0  0  0  0  0  0
   24.9565  -20.5182  -12.7045 N   0  0  0  0  0  0  0  0  0  0  0  0
   26.3106  -20.4676  -10.6882 C   0  0  0  0  0  0  0  0  0  0  0  0
   27.3294  -20.0855  -11.3347 O   0  0  0  0  0  0  0  0  0  0  0  0
   29.1409  -20.4512   -3.6787 C   0  0  0  0  0  0  0  0  0  0  0  0
   27.9579  -19.3591   -4.4877 S   0  0  0  0  0  0  0  0  0  0  0  0
   28.3717  -19.3453   -6.2903 C   0  0  0  0  0  0  0  0  0  0  0  0
   27.1602  -19.7238   -7.0904 C   0  0  0  0  0  0  0  0  0  0  0  0
   27.4775  -19.8515   -8.5367 C   0  0  2  0  0  0  0  0  0  0  0  0
   26.2990  -20.2641   -9.3035 N   0  0  0  0  0  0  0  0  0  0  0  0
   28.5216  -20.8474   -8.7638 C   0  0  0  0  0  0  0  0  0  0  0  0
   29.8307  -20.4426   -8.9558 O   0  0  0  0  0  0  0  0  0  0  0  0
   28.2951  -22.0706   -8.7956 O   0  0  0  0  0  0  0  0  0  0  0  0
  1  2  1  0
  2  4  1  0
  3  2  2  0
  4  5  1  0
  5  6  1  0
  6  8  1  0
  6  7  1  1
  8  9  2  0
 11 10  1  6
 11 13  1  0
 12  8  1  0
 12 11  1  0
 13 14  2  0
 16 15  1  0
 17 16  1  0
 17 18  1  0
 19 18  1  1
 19 21  1  0
 20 19  1  0
 20 13  1  0
 21 23  2  0
 21 22  1  0
M  END
$$$$
