QAM.pdb
     RDKit          3D

 23 22  0  0  1  0  0  0  0  0999 V2000
   17.7992  -12.6786  -20.4046 N   0  0  0  0  0  0  0  0  0  0  0  0
   17.8761  -11.2539  -20.1177 C   0  0  0  0  0  0  0  0  0  0  0  0
   18.8138  -10.6277  -20.6731 O   0  0  0  0  0  0  0  0  0  0  0  0
   16.8895  -10.6638  -19.2251 C   0  0  0  0  0  0  0  0  0  0  0  0
   17.3791   -9.5982  -18.2974 C   0  0  0  0  0  0  0  0  0  0  0  0
   17.9026  -10.2045  -17.0282 C   0  0  2  0  0  0  0  0  0  0  0  0
   16.8468  -10.7205  -16.2342 N   0  0  0  0  0  0  0  0  0  0  0  0
   18.6666   -9.1812  -16.2257 C   0  0  0  0  0  0  0  0  0  0  0  0
   18.0476   -8.3203  -15.5500 O   0  0  0  0  0  0  0  0  0  0  0  0
   22.1907   -8.5619  -15.2332 C   0  0  0  0  0  0  0  0  0  0  0  0
   20.7617   -8.1055  -15.4413 C   0  0  2  0  0  0  0  0  0  0  0  0
   20.0855   -9.1454  -16.1974 N   0  0  0  0  0  0  0  0  0  0  0  0
   20.6789   -6.7921  -16.0886 C   0  0  0  0  0  0  0  0  0  0  0  0
   20.7540   -6.7046  -17.3489 O   0  0  0  0  0  0  0  0  0  0  0  0
   17.7830    0.4288  -16.0401 C   0  0  0  0  0  0  0  0  0  0  0  0
   17.7568   -1.2334  -15.3451 S   0  0  0  0  0  0  0  0  0  0  0  0
   19.2376   -2.1242  -16.0044 C   0  0  0  0  0  0  0  0  0  0  0  0
   19.2483   -3.5349  -15.4935 C   0  0  0  0  0  0  0  0  0  0  0  0
   20.4394   -4.2822  -15.9747 C   0  0  2  0  0  0  0  0  0  0  0  0
   20.5172   -5.6092  -15.3581 N   0  0  0  0  0  0  0  0  0  0  0  0
   21.6750   -3.5734  -15.6519 C   0  0  0  0  0  0  0  0  0  0  0  0
   22.2125   -2.6765  -16.5582 O   0  0  0  0  0  0  0  0  0  0  0  0
   22.2881   -3.7344  -14.5810 O   0  0  0  0  0  0  0  0  0  0  0  0
  1  2  1  0
  2  4  1  0
  3  2  2  0
  4  5  1  0
  5  6  1  0
  6  8  1  0
  6  7  1  1
  8  9  2  0
 11 10  1  6
 11 13  1  0
 12  8  1  0
 12 11  1  0
 13 14  2  0
 16 15  1  0
 17 16  1  0
 17 18  1  0
 19 18  1  1
 19 21  1  0
 20 19  1  0
 20 13  1  0
 21 23  2  0
 21 22  1  0
M  END
$$$$
