QAM.pdb
     RDKit          3D

 23 22  0  0  1  0  0  0  0  0999 V2000
   16.6160  -14.5225  -13.8760 N   0  0  0  0  0  0  0  0  0  0  0  0
   16.2407  -15.3343  -15.0241 C   0  0  0  0  0  0  0  0  0  0  0  0
   15.3742  -16.2206  -14.8152 O   0  0  0  0  0  0  0  0  0  0  0  0
   16.8808  -15.0759  -16.3054 C   0  0  0  0  0  0  0  0  0  0  0  0
   17.7814  -13.8842  -16.3752 C   0  0  0  0  0  0  0  0  0  0  0  0
   17.5722  -13.1405  -17.6619 C   0  0  2  0  0  0  0  0  0  0  0  0
   18.0501  -13.8880  -18.7684 N   0  0  0  0  0  0  0  0  0  0  0  0
   18.2780  -11.8081  -17.6268 C   0  0  0  0  0  0  0  0  0  0  0  0
   19.4994  -11.7343  -17.9165 O   0  0  0  0  0  0  0  0  0  0  0  0
   17.3506   -8.2482  -16.9981 C   0  0  0  0  0  0  0  0  0  0  0  0
   18.3534   -9.3578  -17.2366 C   0  0  2  0  0  0  0  0  0  0  0  0
   17.6108  -10.6058  -17.2739 N   0  0  0  0  0  0  0  0  0  0  0  0
   19.4279   -9.3696  -16.2386 C   0  0  0  0  0  0  0  0  0  0  0  0
   19.2231   -9.8781  -15.0978 O   0  0  0  0  0  0  0  0  0  0  0  0
   26.9497  -10.4052  -14.8303 C   0  0  0  0  0  0  0  0  0  0  0  0
   25.7017  -10.0802  -16.0887 S   0  0  0  0  0  0  0  0  0  0  0  0
   24.1594   -9.5646  -15.2077 C   0  0  0  0  0  0  0  0  0  0  0  0
   23.0403   -9.4101  -16.1951 C   0  0  0  0  0  0  0  0  0  0  0  0
   21.8077   -8.8895  -15.5483 C   0  0  2  0  0  0  0  0  0  0  0  0
   20.6939   -8.8325  -16.4988 N   0  0  0  0  0  0  0  0  0  0  0  0
   22.0123   -7.5401  -15.0280 C   0  0  0  0  0  0  0  0  0  0  0  0
   22.4091   -7.3601  -13.7148 O   0  0  0  0  0  0  0  0  0  0  0  0
   21.8454   -6.5166  -15.7159 O   0  0  0  0  0  0  0  0  0  0  0  0
  1  2  1  0
  2  4  1  0
  3  2  2  0
  4  5  1  0
  5  6  1  0
  6  8  1  0
  6  7  1  6
  8  9  2  0
 11 10  1  1
 11 13  1  0
 12  8  1  0
 12 11  1  0
 13 14  2  0
 16 15  1  0
 17 16  1  0
 17 18  1  0
 19 18  1  6
 19 21  1  0
 20 19  1  0
 20 13  1  0
 21 23  2  0
 21 22  1  0
M  END
$$$$
