QAM.pdb
     RDKit          3D

 23 22  0  0  1  0  0  0  0  0999 V2000
   21.4307   -7.8837  -11.6351 N   0  0  0  0  0  0  0  0  0  0  0  0
   20.3700   -7.5405  -12.5705 C   0  0  0  0  0  0  0  0  0  0  0  0
   20.7259   -7.3315  -13.7578 O   0  0  0  0  0  0  0  0  0  0  0  0
   19.0018   -7.4594  -12.0808 C   0  0  0  0  0  0  0  0  0  0  0  0
   18.8027   -7.6690  -10.6138 C   0  0  0  0  0  0  0  0  0  0  0  0
   17.3441   -7.6062  -10.2658 C   0  0  2  0  0  0  0  0  0  0  0  0
   16.6093   -8.6015  -10.9592 N   0  0  0  0  0  0  0  0  0  0  0  0
   16.7749   -6.2506  -10.6026 C   0  0  0  0  0  0  0  0  0  0  0  0
   16.2373   -6.0535  -11.7220 O   0  0  0  0  0  0  0  0  0  0  0  0
   15.9509   -3.1497   -8.7448 C   0  0  0  0  0  0  0  0  0  0  0  0
   16.1629   -3.9127  -10.0358 C   0  0  2  0  0  0  0  0  0  0  0  0
   16.8191   -5.1623   -9.6921 N   0  0  0  0  0  0  0  0  0  0  0  0
   16.9101   -3.1376  -11.0316 C   0  0  0  0  0  0  0  0  0  0  0  0
   18.1667   -3.2635  -11.1150 O   0  0  0  0  0  0  0  0  0  0  0  0
   16.6885   -0.2297  -18.2491 C   0  0  0  0  0  0  0  0  0  0  0  0
   15.7396   -0.9304  -16.8871 S   0  0  0  0  0  0  0  0  0  0  0  0
   16.8385   -0.9308  -15.3994 C   0  0  0  0  0  0  0  0  0  0  0  0
   16.1332   -1.5879  -14.2496 C   0  0  0  0  0  0  0  0  0  0  0  0
   16.9696   -1.5857  -13.0211 C   0  0  2  0  0  0  0  0  0  0  0  0
   16.2810   -2.2479  -11.9100 N   0  0  0  0  0  0  0  0  0  0  0  0
   17.2828   -0.2238  -12.5963 C   0  0  0  0  0  0  0  0  0  0  0  0
   18.3948    0.4202  -13.1094 O   0  0  0  0  0  0  0  0  0  0  0  0
   16.5891    0.4066  -11.7778 O   0  0  0  0  0  0  0  0  0  0  0  0
  1  2  1  0
  2  4  1  0
  3  2  2  0
  4  5  1  0
  5  6  1  0
  6  8  1  0
  6  7  1  6
  8  9  2  0
 11 10  1  1
 11 13  1  0
 12  8  1  0
 12 11  1  0
 13 14  2  0
 16 15  1  0
 17 16  1  0
 17 18  1  0
 19 18  1  6
 19 21  1  0
 20 19  1  0
 20 13  1  0
 21 23  2  0
 21 22  1  0
M  END
$$$$
