QAM.pdb
     RDKit          3D

 23 22  0  0  1  0  0  0  0  0999 V2000
   23.0347  -15.8081  -18.9395 N   0  0  0  0  0  0  0  0  0  0  0  0
   22.8877  -15.9494  -17.4985 C   0  0  0  0  0  0  0  0  0  0  0  0
   23.5969  -15.1884  -16.7930 O   0  0  0  0  0  0  0  0  0  0  0  0
   21.9559  -16.9412  -16.9823 C   0  0  0  0  0  0  0  0  0  0  0  0
   22.5278  -17.9959  -16.0899 C   0  0  0  0  0  0  0  0  0  0  0  0
   23.7146  -18.6474  -16.7377 C   0  0  2  0  0  0  0  0  0  0  0  0
   23.3126  -19.5264  -17.7755 N   0  0  0  0  0  0  0  0  0  0  0  0
   24.5174  -19.4205  -15.7215 C   0  0  0  0  0  0  0  0  0  0  0  0
   23.9556  -20.2822  -14.9983 O   0  0  0  0  0  0  0  0  0  0  0  0
   28.0879  -19.6396  -14.6573 C   0  0  0  0  0  0  0  0  0  0  0  0
   26.6124  -19.9409  -14.4961 C   0  0  2  0  0  0  0  0  0  0  0  0
   25.9103  -19.2154  -15.5407 N   0  0  0  0  0  0  0  0  0  0  0  0
   26.1158  -19.6200  -13.1541 C   0  0  0  0  0  0  0  0  0  0  0  0
   25.6404  -18.4716  -12.9157 O   0  0  0  0  0  0  0  0  0  0  0  0
   21.7177  -20.7104   -7.1301 C   0  0  0  0  0  0  0  0  0  0  0  0
   22.2324  -21.1887   -8.7892 S   0  0  0  0  0  0  0  0  0  0  0  0
   23.9027  -20.4485   -9.0774 C   0  0  0  0  0  0  0  0  0  0  0  0
   24.3192  -20.6783  -10.5004 C   0  0  0  0  0  0  0  0  0  0  0  0
   25.7181  -20.2370  -10.7392 C   0  0  2  0  0  0  0  0  0  0  0  0
   26.1457  -20.5472  -12.1060 N   0  0  0  0  0  0  0  0  0  0  0  0
   26.6456  -20.9001   -9.8263 C   0  0  0  0  0  0  0  0  0  0  0  0
   26.8819  -20.3633   -8.5731 O   0  0  0  0  0  0  0  0  0  0  0  0
   27.2514  -21.9470  -10.1189 O   0  0  0  0  0  0  0  0  0  0  0  0
  1  2  1  0
  2  4  1  0
  3  2  2  0
  4  5  1  0
  5  6  1  0
  6  8  1  0
  6  7  1  6
  8  9  2  0
 11 10  1  1
 11 13  1  0
 12  8  1  0
 12 11  1  0
 13 14  2  0
 16 15  1  0
 17 16  1  0
 17 18  1  0
 19 18  1  1
 19 21  1  0
 20 19  1  0
 20 13  1  0
 21 23  2  0
 21 22  1  0
M  END
$$$$
