QAM.pdb
     RDKit          3D

 23 22  0  0  1  0  0  0  0  0999 V2000
   16.2660  -14.3805  -13.7884 N   0  0  0  0  0  0  0  0  0  0  0  0
   15.7201  -14.0604  -15.0990 C   0  0  0  0  0  0  0  0  0  0  0  0
   15.1085  -14.9890  -15.6852 O   0  0  0  0  0  0  0  0  0  0  0  0
   15.9175  -12.7210  -15.6332 C   0  0  0  0  0  0  0  0  0  0  0  0
   16.5770  -11.7302  -14.7281 C   0  0  0  0  0  0  0  0  0  0  0  0
   17.6503  -10.9798  -15.4614 C   0  0  2  0  0  0  0  0  0  0  0  0
   18.8197  -11.7692  -15.6047 N   0  0  0  0  0  0  0  0  0  0  0  0
   18.0022   -9.7072  -14.7324 C   0  0  0  0  0  0  0  0  0  0  0  0
   18.3286   -9.7460  -13.5188 O   0  0  0  0  0  0  0  0  0  0  0  0
   18.4422   -6.1023  -15.5492 C   0  0  0  0  0  0  0  0  0  0  0  0
   18.1848   -7.2363  -14.5789 C   0  0  2  0  0  0  0  0  0  0  0  0
   17.9817   -8.4384  -15.3689 N   0  0  0  0  0  0  0  0  0  0  0  0
   17.0646   -6.9595  -13.6738 C   0  0  0  0  0  0  0  0  0  0  0  0
   15.8980   -7.3440  -13.9786 O   0  0  0  0  0  0  0  0  0  0  0  0
   13.9952   -6.4497   -6.6459 C   0  0  0  0  0  0  0  0  0  0  0  0
   15.4319   -6.8592   -7.6533 S   0  0  0  0  0  0  0  0  0  0  0  0
   15.1660   -6.0989   -9.3182 C   0  0  0  0  0  0  0  0  0  0  0  0
   16.2309   -6.5689  -10.2649 C   0  0  0  0  0  0  0  0  0  0  0  0
   16.1233   -5.8977  -11.5865 C   0  0  2  0  0  0  0  0  0  0  0  0
   17.2340   -6.2752  -12.4647 N   0  0  0  0  0  0  0  0  0  0  0  0
   16.1476   -4.4441  -11.4457 C   0  0  0  0  0  0  0  0  0  0  0  0
   15.0350   -3.7795  -10.9610 O   0  0  0  0  0  0  0  0  0  0  0  0
   17.1371   -3.7512  -11.7447 O   0  0  0  0  0  0  0  0  0  0  0  0
  1  2  1  0
  2  4  1  0
  3  2  2  0
  4  5  1  0
  5  6  1  0
  6  8  1  0
  6  7  1  1
  8  9  2  0
 11 10  1  6
 11 13  1  0
 12  8  1  0
 12 11  1  0
 13 14  2  0
 16 15  1  0
 17 16  1  0
 17 18  1  0
 19 18  1  1
 19 21  1  0
 20 19  1  0
 20 13  1  0
 21 23  2  0
 21 22  1  0
M  END
$$$$
