QAM.pdb
     RDKit          3D

 23 22  0  0  1  0  0  0  0  0999 V2000
   18.0836  -14.0745  -14.5576 N   0  0  0  0  0  0  0  0  0  0  0  0
   16.6516  -13.9863  -14.8017 C   0  0  0  0  0  0  0  0  0  0  0  0
   15.9687  -14.9820  -14.4521 O   0  0  0  0  0  0  0  0  0  0  0  0
   16.1187  -12.7831  -15.4233 C   0  0  0  0  0  0  0  0  0  0  0  0
   17.0978  -11.6916  -15.7167 C   0  0  0  0  0  0  0  0  0  0  0  0
   16.4134  -10.5361  -16.3867 C   0  0  2  0  0  0  0  0  0  0  0  0
   16.0336  -10.8655  -17.7129 N   0  0  0  0  0  0  0  0  0  0  0  0
   17.3172   -9.3291  -16.4193 C   0  0  0  0  0  0  0  0  0  0  0  0
   18.3852   -9.3594  -17.0822 O   0  0  0  0  0  0  0  0  0  0  0  0
   17.2075   -5.7937  -15.2813 C   0  0  0  0  0  0  0  0  0  0  0  0
   17.9557   -7.0303  -15.7339 C   0  0  2  0  0  0  0  0  0  0  0  0
   17.0095   -8.1326  -15.7200 N   0  0  0  0  0  0  0  0  0  0  0  0
   19.1460   -7.2975  -14.9199 C   0  0  0  0  0  0  0  0  0  0  0  0
   19.0453   -7.9866  -13.8632 O   0  0  0  0  0  0  0  0  0  0  0  0
   26.2060  -10.0299  -14.5526 C   0  0  0  0  0  0  0  0  0  0  0  0
   24.7415   -9.6403  -15.5273 S   0  0  0  0  0  0  0  0  0  0  0  0
   23.7549   -8.4090  -14.5621 C   0  0  0  0  0  0  0  0  0  0  0  0
   22.4719   -8.1132  -15.2815 C   0  0  0  0  0  0  0  0  0  0  0  0
   21.6348   -7.1417  -14.5304 C   0  0  2  0  0  0  0  0  0  0  0  0
   20.4122   -6.8137  -15.2686 N   0  0  0  0  0  0  0  0  0  0  0  0
   22.3553   -5.8933  -14.2946 C   0  0  0  0  0  0  0  0  0  0  0  0
   23.1838   -5.7726  -13.1929 O   0  0  0  0  0  0  0  0  0  0  0  0
   22.2640   -4.9063  -15.0470 O   0  0  0  0  0  0  0  0  0  0  0  0
  1  2  1  0
  2  4  1  0
  3  2  2  0
  4  5  1  0
  5  6  1  0
  6  8  1  0
  6  7  1  6
  8  9  2  0
 11 10  1  1
 11 13  1  0
 12  8  1  0
 12 11  1  0
 13 14  2  0
 16 15  1  0
 17 16  1  0
 17 18  1  0
 19 18  1  6
 19 21  1  0
 20 19  1  0
 20 13  1  0
 21 23  2  0
 21 22  1  0
M  END
$$$$
