QAM.pdb
     RDKit          3D

 23 22  0  0  1  0  0  0  0  0999 V2000
   27.5043  -21.7832  -11.0410 N   0  0  0  0  0  0  0  0  0  0  0  0
   27.5514  -20.5625  -11.8321 C   0  0  0  0  0  0  0  0  0  0  0  0
   28.6969  -20.1484  -12.1423 O   0  0  0  0  0  0  0  0  0  0  0  0
   26.3004  -19.9155  -12.1988 C   0  0  0  0  0  0  0  0  0  0  0  0
   25.0537  -20.4788  -11.5952 C   0  0  0  0  0  0  0  0  0  0  0  0
   24.4500  -21.5120  -12.5011 C   0  0  2  0  0  0  0  0  0  0  0  0
   25.4328  -22.4238  -12.9638 N   0  0  0  0  0  0  0  0  0  0  0  0
   23.7888  -20.8573  -13.6881 C   0  0  0  0  0  0  0  0  0  0  0  0
   24.4466  -20.6466  -14.7388 O   0  0  0  0  0  0  0  0  0  0  0  0
   20.3321  -19.9194  -14.6857 C   0  0  0  0  0  0  0  0  0  0  0  0
   21.8353  -19.8787  -14.8663 C   0  0  2  0  0  0  0  0  0  0  0  0
   22.4262  -20.4595  -13.6730 N   0  0  0  0  0  0  0  0  0  0  0  0
   22.3328  -18.5271  -15.1423 C   0  0  0  0  0  0  0  0  0  0  0  0
   22.7977  -17.8218  -14.1998 O   0  0  0  0  0  0  0  0  0  0  0  0
   25.9453  -14.3998  -15.3254 C   0  0  0  0  0  0  0  0  0  0  0  0
   26.7445  -15.9202  -15.8695 S   0  0  0  0  0  0  0  0  0  0  0  0
   25.7295  -16.6048  -17.2558 C   0  0  0  0  0  0  0  0  0  0  0  0
   24.6957  -17.5450  -16.7095 C   0  0  0  0  0  0  0  0  0  0  0  0
   23.3191  -17.0231  -16.9130 C   0  0  2  0  0  0  0  0  0  0  0  0
   22.3148  -17.9734  -16.4276 N   0  0  0  0  0  0  0  0  0  0  0  0
   23.0486  -16.7806  -18.3277 C   0  0  0  0  0  0  0  0  0  0  0  0
   22.4734  -17.7741  -19.1001 O   0  0  0  0  0  0  0  0  0  0  0  0
   23.3132  -15.7039  -18.8928 O   0  0  0  0  0  0  0  0  0  0  0  0
  1  2  1  0
  2  4  1  0
  3  2  2  0
  4  5  1  0
  5  6  1  0
  6  8  1  0
  6  7  1  6
  8  9  2  0
 11 10  1  1
 11 13  1  0
 12  8  1  0
 12 11  1  0
 13 14  2  0
 16 15  1  0
 17 16  1  0
 17 18  1  0
 19 18  1  6
 19 21  1  0
 20 19  1  0
 20 13  1  0
 21 23  2  0
 21 22  1  0
M  END
$$$$
