QAM.pdb
     RDKit          3D

 23 22  0  0  1  0  0  0  0  0999 V2000
   12.4114  -11.2881  -13.4393 N   0  0  0  0  0  0  0  0  0  0  0  0
   13.1028  -11.1234  -14.7093 C   0  0  0  0  0  0  0  0  0  0  0  0
   12.5605  -11.6607  -15.7079 O   0  0  0  0  0  0  0  0  0  0  0  0
   14.3478  -10.3701  -14.7378 C   0  0  0  0  0  0  0  0  0  0  0  0
   14.8033   -9.7811  -13.4411 C   0  0  0  0  0  0  0  0  0  0  0  0
   16.2317   -9.3311  -13.5398 C   0  0  2  0  0  0  0  0  0  0  0  0
   17.1225  -10.4300  -13.4390 N   0  0  0  0  0  0  0  0  0  0  0  0
   16.5523   -8.3366  -12.4522 C   0  0  0  0  0  0  0  0  0  0  0  0
   16.2324   -8.5808  -11.2610 O   0  0  0  0  0  0  0  0  0  0  0  0
   18.3763   -5.0976  -12.1658 C   0  0  0  0  0  0  0  0  0  0  0  0
   17.4520   -6.1728  -11.6334 C   0  0  2  0  0  0  0  0  0  0  0  0
   17.2146   -7.1094  -12.7181 N   0  0  0  0  0  0  0  0  0  0  0  0
   16.2101   -5.6238  -11.0794 C   0  0  0  0  0  0  0  0  0  0  0  0
   15.2036   -5.4601  -11.8290 O   0  0  0  0  0  0  0  0  0  0  0  0
   12.1940   -3.7224   -4.5480 C   0  0  0  0  0  0  0  0  0  0  0  0
   13.7078   -4.4386   -5.2129 S   0  0  0  0  0  0  0  0  0  0  0  0
   13.6252   -4.2777   -7.0536 C   0  0  0  0  0  0  0  0  0  0  0  0
   14.8429   -4.9000   -7.6710 C   0  0  0  0  0  0  0  0  0  0  0  0
   14.8591   -4.7241   -9.1466 C   0  0  2  0  0  0  0  0  0  0  0  0
   16.0883   -5.2664   -9.7316 N   0  0  0  0  0  0  0  0  0  0  0  0
   14.7829   -3.3120   -9.5122 C   0  0  0  0  0  0  0  0  0  0  0  0
   13.5501   -2.7180   -9.7167 O   0  0  0  0  0  0  0  0  0  0  0  0
   15.7895   -2.5942   -9.6545 O   0  0  0  0  0  0  0  0  0  0  0  0
  1  2  1  0
  2  4  1  0
  3  2  2  0
  4  5  1  0
  5  6  1  0
  6  8  1  0
  6  7  1  1
  8  9  2  0
 11 10  1  6
 11 13  1  0
 12  8  1  0
 12 11  1  0
 13 14  2  0
 16 15  1  0
 17 16  1  0
 17 18  1  0
 19 18  1  1
 19 21  1  0
 20 19  1  0
 20 13  1  0
 21 23  2  0
 21 22  1  0
M  END
$$$$
