QAM.pdb
     RDKit          3D

 23 22  0  0  1  0  0  0  0  0999 V2000
   27.9907  -23.5717  -16.2700 N   0  0  0  0  0  0  0  0  0  0  0  0
   28.9922  -22.7947  -16.9850 C   0  0  0  0  0  0  0  0  0  0  0  0
   29.5311  -23.3598  -17.9700 O   0  0  0  0  0  0  0  0  0  0  0  0
   29.2994  -21.4498  -16.5212 C   0  0  0  0  0  0  0  0  0  0  0  0
   28.6071  -20.9971  -15.2755 C   0  0  0  0  0  0  0  0  0  0  0  0
   27.1534  -20.7386  -15.5450 C   0  0  2  0  0  0  0  0  0  0  0  0
   26.9870  -19.7624  -16.5603 N   0  0  0  0  0  0  0  0  0  0  0  0
   26.4556  -20.2698  -14.2928 C   0  0  0  0  0  0  0  0  0  0  0  0
   27.0627  -19.5389  -13.4693 O   0  0  0  0  0  0  0  0  0  0  0  0
   23.0133  -20.3518  -12.8916 C   0  0  0  0  0  0  0  0  0  0  0  0
   24.5106  -20.1702  -12.7536 C   0  0  2  0  0  0  0  0  0  0  0  0
   25.1135  -20.6240  -13.9949 N   0  0  0  0  0  0  0  0  0  0  0  0
   25.0548  -20.8565  -11.5775 C   0  0  0  0  0  0  0  0  0  0  0  0
   25.2589  -22.1050  -11.6144 O   0  0  0  0  0  0  0  0  0  0  0  0
   28.1708  -18.0624   -6.7480 C   0  0  0  0  0  0  0  0  0  0  0  0
   28.0186  -19.6865   -5.9828 S   0  0  0  0  0  0  0  0  0  0  0  0
   26.6869  -20.5947   -6.8897 C   0  0  0  0  0  0  0  0  0  0  0  0
   26.4714  -19.9658   -8.2348 C   0  0  0  0  0  0  0  0  0  0  0  0
   25.6877  -20.8522   -9.1342 C   0  0  2  0  0  0  0  0  0  0  0  0
   25.3640  -20.1768  -10.3937 N   0  0  0  0  0  0  0  0  0  0  0  0
   24.4282  -21.2554   -8.5142 C   0  0  0  0  0  0  0  0  0  0  0  0
   24.4288  -22.1978   -7.5010 O   0  0  0  0  0  0  0  0  0  0  0  0
   23.3261  -20.7880   -8.8541 O   0  0  0  0  0  0  0  0  0  0  0  0
  1  2  1  0
  2  4  1  0
  3  2  2  0
  4  5  1  0
  5  6  1  0
  6  8  1  0
  6  7  1  6
  8  9  2  0
 11 10  1  6
 11 13  1  0
 12  8  1  0
 12 11  1  0
 13 14  2  0
 16 15  1  0
 17 16  1  0
 17 18  1  0
 19 18  1  1
 19 21  1  0
 20 19  1  0
 20 13  1  0
 21 23  2  0
 21 22  1  0
M  END
$$$$
