PGR.pdb
     RDKit          3D

 23 23  0  0  1  0  0  0  0  0999 V2000
   26.3212  -17.1524  -15.4495 N   0  0  0  0  0  0  0  0  0  0  0  0
   27.2870  -16.3520  -16.1557 C   0  0  0  0  0  0  0  0  0  0  0  0
   26.8219  -14.9480  -15.7460 C   0  0  0  0  0  0  0  0  0  0  0  0
   25.3262  -15.0613  -15.9209 C   0  0  0  0  0  0  0  0  0  0  0  0
   25.0596  -16.5138  -15.5733 C   0  0  1  0  0  0  0  0  0  0  0  0
   24.1073  -17.1332  -16.5039 C   0  0  0  0  0  0  0  0  0  0  0  0
   22.9157  -16.6605  -16.5702 O   0  0  0  0  0  0  0  0  0  0  0  0
   24.3680  -18.2304  -17.3644 N   0  0  0  0  0  0  0  0  0  0  0  0
   23.3605  -18.8399  -18.1917 C   0  0  0  0  0  0  0  0  0  0  0  0
   22.3543  -19.6317  -17.4635 C   0  0  0  0  0  0  0  0  0  0  0  0
   21.2108  -19.7451  -17.9727 O   0  0  0  0  0  0  0  0  0  0  0  0
   24.8077  -20.4387  -13.5990 N   0  0  0  0  0  0  0  0  0  0  0  0
   25.5895  -21.2967  -12.7839 C   0  0  0  0  0  0  0  0  0  0  0  0
   26.6005  -20.8475  -12.1252 N   0  0  0  0  0  0  0  0  0  0  0  0
   25.2593  -22.6919  -12.6822 N   0  0  0  0  0  0  0  0  0  0  0  0
   24.2100  -23.1808  -13.5393 C   0  0  0  0  0  0  0  0  0  0  0  0
   23.3903  -22.1521  -14.1719 C   0  0  0  0  0  0  0  0  0  0  0  0
   22.2951  -22.3434  -15.0772 C   0  0  0  0  0  0  0  0  0  0  0  0
   21.5432  -21.2066  -15.6434 C   0  0  2  0  0  0  0  0  0  0  0  0
   22.6038  -20.2619  -16.2338 N   0  0  0  0  0  0  0  0  0  0  0  0
   21.0372  -20.2984  -14.5529 C   0  0  0  0  0  0  0  0  0  0  0  0
   19.9750  -20.6771  -13.9264 O   0  0  0  0  0  0  0  0  0  0  0  0
   21.5766  -19.1377  -14.1646 O   0  0  0  0  0  0  0  0  0  0  0  0
  2  1  1  0
  3  2  1  0
  4  3  1  0
  4  5  1  0
  5  1  1  0
  6  7  2  0
  5  6  1  6
  8  6  1  0
  9 10  1  0
  9  8  1  0
 10 20  1  0
 11 10  2  0
 13 12  1  0
 13 14  2  0
 15 13  1  0
 16 17  1  0
 16 15  1  0
 18 17  1  0
 19 18  1  1
 20 19  1  0
 21 19  1  0
 21 23  1  0
 22 21  2  0
M  END
$$$$
