PGR.pdb
     RDKit          3D

 23 23  0  0  1  0  0  0  0  0999 V2000
   27.9473  -20.2665  -16.1082 N   0  0  0  0  0  0  0  0  0  0  0  0
   28.3108  -21.3237  -15.2014 C   0  0  0  0  0  0  0  0  0  0  0  0
   28.2077  -22.5312  -16.1431 C   0  0  0  0  0  0  0  0  0  0  0  0
   26.9037  -22.2522  -16.8518 C   0  0  0  0  0  0  0  0  0  0  0  0
   26.8740  -20.7364  -16.9094 C   0  0  1  0  0  0  0  0  0  0  0  0
   25.5438  -20.2027  -16.5902 C   0  0  0  0  0  0  0  0  0  0  0  0
   24.5382  -20.6029  -17.2805 O   0  0  0  0  0  0  0  0  0  0  0  0
   25.2385  -19.2646  -15.5707 N   0  0  0  0  0  0  0  0  0  0  0  0
   23.8973  -18.8426  -15.2640 C   0  0  0  0  0  0  0  0  0  0  0  0
   23.0475  -19.8746  -14.6456 C   0  0  0  0  0  0  0  0  0  0  0  0
   22.8671  -20.9466  -15.2763 O   0  0  0  0  0  0  0  0  0  0  0  0
   19.1655  -23.0548   -9.8063 N   0  0  0  0  0  0  0  0  0  0  0  0
   18.8847  -21.9926   -8.9092 C   0  0  0  0  0  0  0  0  0  0  0  0
   17.9225  -22.0791   -8.0580 N   0  0  0  0  0  0  0  0  0  0  0  0
   19.6789  -20.7950   -8.9395 N   0  0  0  0  0  0  0  0  0  0  0  0
   19.4455  -19.8819  -10.0287 C   0  0  0  0  0  0  0  0  0  0  0  0
   20.5959  -19.6321  -10.8915 C   0  0  0  0  0  0  0  0  0  0  0  0
   21.5939  -20.5728  -11.3094 C   0  0  0  0  0  0  0  0  0  0  0  0
   21.7719  -20.9434  -12.7269 C   0  0  2  0  0  0  0  0  0  0  0  0
   22.4285  -19.7231  -13.3944 N   0  0  0  0  0  0  0  0  0  0  0  0
   20.4581  -20.9037  -13.4635 C   0  0  0  0  0  0  0  0  0  0  0  0
   19.7765  -21.9984  -13.4970 O   0  0  0  0  0  0  0  0  0  0  0  0
   19.9227  -19.8484  -14.0869 O   0  0  0  0  0  0  0  0  0  0  0  0
  2  1  1  0
  3  2  1  0
  4  3  1  0
  4  5  1  0
  5  1  1  0
  6  7  2  0
  5  6  1  1
  8  6  1  0
  9 10  1  0
  9  8  1  0
 10 20  1  0
 11 10  2  0
 13 12  1  0
 13 14  2  0
 15 13  1  0
 16 17  1  0
 16 15  1  0
 18 17  1  0
 19 18  1  1
 20 19  1  0
 21 19  1  0
 21 23  1  0
 22 21  2  0
M  END
$$$$
