PGR.pdb
     RDKit          3D

 23 23  0  0  1  0  0  0  0  0999 V2000
   28.7572  -22.0102  -11.2124 N   0  0  0  0  0  0  0  0  0  0  0  0
   30.0053  -21.2935  -11.2418 C   0  0  0  0  0  0  0  0  0  0  0  0
   30.4234  -21.4237   -9.7709 C   0  0  0  0  0  0  0  0  0  0  0  0
   29.1290  -21.1100   -9.0592 C   0  0  0  0  0  0  0  0  0  0  0  0
   28.0834  -21.6527  -10.0153 C   0  0  1  0  0  0  0  0  0  0  0  0
   26.9458  -20.7356  -10.1600 C   0  0  0  0  0  0  0  0  0  0  0  0
   26.3437  -20.3300   -9.1013 O   0  0  0  0  0  0  0  0  0  0  0  0
   26.4232  -20.2328  -11.3792 N   0  0  0  0  0  0  0  0  0  0  0  0
   25.3484  -19.2778  -11.4416 C   0  0  0  0  0  0  0  0  0  0  0  0
   24.1452  -19.7424  -12.1531 C   0  0  0  0  0  0  0  0  0  0  0  0
   23.2265  -18.9112  -12.3644 O   0  0  0  0  0  0  0  0  0  0  0  0
   27.9232  -23.4160  -17.4102 N   0  0  0  0  0  0  0  0  0  0  0  0
   27.5806  -22.1010  -17.8163 C   0  0  0  0  0  0  0  0  0  0  0  0
   28.2777  -21.4762  -18.7003 N   0  0  0  0  0  0  0  0  0  0  0  0
   26.4397  -21.4433  -17.2404 N   0  0  0  0  0  0  0  0  0  0  0  0
   25.4877  -22.2716  -16.5460 C   0  0  0  0  0  0  0  0  0  0  0  0
   24.6768  -21.5860  -15.5446 C   0  0  0  0  0  0  0  0  0  0  0  0
   23.6486  -22.1495  -14.7194 C   0  0  0  0  0  0  0  0  0  0  0  0
   22.9359  -21.3487  -13.7050 C   0  0  2  0  0  0  0  0  0  0  0  0
   23.9703  -21.0608  -12.6036 N   0  0  0  0  0  0  0  0  0  0  0  0
   22.0024  -22.2112  -12.8957 C   0  0  0  0  0  0  0  0  0  0  0  0
   22.3663  -22.4899  -11.6899 O   0  0  0  0  0  0  0  0  0  0  0  0
   20.8320  -22.7183  -13.2978 O   0  0  0  0  0  0  0  0  0  0  0  0
  2  1  1  0
  3  2  1  0
  4  3  1  0
  4  5  1  0
  5  1  1  0
  6  7  2  0
  5  6  1  6
  8  6  1  0
  9 10  1  0
  9  8  1  0
 10 20  1  0
 11 10  2  0
 13 12  1  0
 13 14  2  0
 15 13  1  0
 16 17  1  0
 16 15  1  0
 18 17  1  0
 19 18  1  6
 20 19  1  0
 21 19  1  0
 21 23  1  0
 22 21  2  0
M  END
$$$$
