PGR.pdb
     RDKit          3D

 23 23  0  0  1  0  0  0  0  0999 V2000
   28.2923  -18.1620  -18.7937 N   0  0  0  0  0  0  0  0  0  0  0  0
   29.1467  -18.1328  -19.9517 C   0  0  0  0  0  0  0  0  0  0  0  0
   28.0992  -18.2973  -21.0614 C   0  0  0  0  0  0  0  0  0  0  0  0
   27.2397  -19.4070  -20.5045 C   0  0  0  0  0  0  0  0  0  0  0  0
   27.3095  -19.1633  -19.0086 C   0  0  1  0  0  0  0  0  0  0  0  0
   27.4820  -20.4136  -18.2580 C   0  0  0  0  0  0  0  0  0  0  0  0
   26.6291  -21.3574  -18.4302 O   0  0  0  0  0  0  0  0  0  0  0  0
   28.5201  -20.7019  -17.3352 N   0  0  0  0  0  0  0  0  0  0  0  0
   28.5783  -21.9189  -16.5694 C   0  0  0  0  0  0  0  0  0  0  0  0
   27.5198  -22.0662  -15.5557 C   0  0  0  0  0  0  0  0  0  0  0  0
   27.3480  -23.2004  -15.0422 O   0  0  0  0  0  0  0  0  0  0  0  0
   25.5621  -20.9493   -7.7164 N   0  0  0  0  0  0  0  0  0  0  0  0
   24.2334  -20.8818   -8.2080 C   0  0  0  0  0  0  0  0  0  0  0  0
   23.2254  -20.9998   -7.4156 N   0  0  0  0  0  0  0  0  0  0  0  0
   23.9936  -20.6788   -9.6106 N   0  0  0  0  0  0  0  0  0  0  0  0
   25.1438  -20.6726  -10.4775 C   0  0  0  0  0  0  0  0  0  0  0  0
   24.8633  -20.4085  -11.8852 C   0  0  0  0  0  0  0  0  0  0  0  0
   25.7835  -20.4624  -12.9835 C   0  0  0  0  0  0  0  0  0  0  0  0
   25.5325  -21.3017  -14.1712 C   0  0  2  0  0  0  0  0  0  0  0  0
   26.6941  -21.0107  -15.1366 N   0  0  0  0  0  0  0  0  0  0  0  0
   24.4166  -20.7317  -15.0080 C   0  0  0  0  0  0  0  0  0  0  0  0
   24.7337  -19.8042  -15.8466 O   0  0  0  0  0  0  0  0  0  0  0  0
   23.1282  -21.0889  -14.9728 O   0  0  0  0  0  0  0  0  0  0  0  0
  2  1  1  0
  3  2  1  0
  4  3  1  0
  4  5  1  0
  5  1  1  0
  6  7  2  0
  5  6  1  1
  8  6  1  0
  9 10  1  0
  9  8  1  0
 10 20  1  0
 11 10  2  0
 13 12  1  0
 13 14  2  0
 15 13  1  0
 16 17  1  0
 16 15  1  0
 18 17  1  0
 19 18  1  1
 20 19  1  0
 21 19  1  0
 21 23  1  0
 22 21  2  0
M  END
$$$$
