PGR.pdb
     RDKit          3D

 23 23  0  0  1  0  0  0  0  0999 V2000
   25.6978  -20.2248  -17.4439 N   0  0  0  0  0  0  0  0  0  0  0  0
   26.4999  -20.2810  -18.6379 C   0  0  0  0  0  0  0  0  0  0  0  0
   26.2553  -21.7372  -19.0563 C   0  0  0  0  0  0  0  0  0  0  0  0
   26.4055  -22.4601  -17.7390 C   0  0  0  0  0  0  0  0  0  0  0  0
   25.8875  -21.4427  -16.7399 C   0  0  1  0  0  0  0  0  0  0  0  0
   26.7321  -21.3742  -15.5407 C   0  0  0  0  0  0  0  0  0  0  0  0
   26.6448  -22.3154  -14.6720 O   0  0  0  0  0  0  0  0  0  0  0  0
   27.6630  -20.3507  -15.2272 N   0  0  0  0  0  0  0  0  0  0  0  0
   28.4195  -20.3214  -14.0034 C   0  0  0  0  0  0  0  0  0  0  0  0
   27.7033  -19.7632  -12.8436 C   0  0  0  0  0  0  0  0  0  0  0  0
   27.6944  -18.5146  -12.7003 O   0  0  0  0  0  0  0  0  0  0  0  0
   22.3915  -19.6796  -14.8486 N   0  0  0  0  0  0  0  0  0  0  0  0
   21.7235  -20.6910  -14.1119 C   0  0  0  0  0  0  0  0  0  0  0  0
   20.4897  -20.9766  -14.3444 N   0  0  0  0  0  0  0  0  0  0  0  0
   22.4227  -21.4165  -13.0869 N   0  0  0  0  0  0  0  0  0  0  0  0
   23.7723  -21.0048  -12.7977 C   0  0  0  0  0  0  0  0  0  0  0  0
   23.9004  -19.9199  -11.8299 C   0  0  0  0  0  0  0  0  0  0  0  0
   25.0907  -19.2043  -11.4735 C   0  0  0  0  0  0  0  0  0  0  0  0
   26.2190  -19.8608  -10.7849 C   0  0  2  0  0  0  0  0  0  0  0  0
   27.0348  -20.5500  -11.8919 N   0  0  0  0  0  0  0  0  0  0  0  0
   25.7608  -21.0996  -10.0600 C   0  0  0  0  0  0  0  0  0  0  0  0
   25.0618  -20.9228   -8.9903 O   0  0  0  0  0  0  0  0  0  0  0  0
   26.0027  -22.3672  -10.4116 O   0  0  0  0  0  0  0  0  0  0  0  0
  2  1  1  0
  3  2  1  0
  4  3  1  0
  4  5  1  0
  5  1  1  0
  6  7  2  0
  5  6  1  1
  8  6  1  0
  9 10  1  0
  9  8  1  0
 10 20  1  0
 11 10  2  0
 13 12  1  0
 13 14  2  0
 15 13  1  0
 16 17  1  0
 16 15  1  0
 18 17  1  0
 19 18  1  6
 20 19  1  0
 21 19  1  0
 21 23  1  0
 22 21  2  0
M  END
$$$$
