PGR.pdb
     RDKit          3D

 23 23  0  0  1  0  0  0  0  0999 V2000
   17.7101  -22.6381  -13.8612 N   0  0  0  0  0  0  0  0  0  0  0  0
   18.4810  -21.5886  -14.4748 C   0  0  0  0  0  0  0  0  0  0  0  0
   19.2673  -22.4044  -15.5100 C   0  0  0  0  0  0  0  0  0  0  0  0
   19.7074  -23.5926  -14.6885 C   0  0  0  0  0  0  0  0  0  0  0  0
   18.5596  -23.7653  -13.7115 C   0  0  1  0  0  0  0  0  0  0  0  0
   19.0364  -24.0425  -12.3506 C   0  0  0  0  0  0  0  0  0  0  0  0
   19.7942  -25.0608  -12.1595 O   0  0  0  0  0  0  0  0  0  0  0  0
   18.7426  -23.2846  -11.1880 N   0  0  0  0  0  0  0  0  0  0  0  0
   19.2482  -23.6166   -9.8822 C   0  0  0  0  0  0  0  0  0  0  0  0
   18.3678  -24.4797   -9.0762 C   0  0  0  0  0  0  0  0  0  0  0  0
   17.6384  -25.3065   -9.6795 O   0  0  0  0  0  0  0  0  0  0  0  0
   18.2780  -27.0483   -1.6208 N   0  0  0  0  0  0  0  0  0  0  0  0
   18.4533  -28.2851   -2.2926 C   0  0  0  0  0  0  0  0  0  0  0  0
   19.2559  -29.1817   -1.8344 N   0  0  0  0  0  0  0  0  0  0  0  0
   17.7301  -28.5554   -3.5049 N   0  0  0  0  0  0  0  0  0  0  0  0
   17.1212  -27.4315   -4.1687 C   0  0  0  0  0  0  0  0  0  0  0  0
   18.0528  -26.4650   -4.7416 C   0  0  0  0  0  0  0  0  0  0  0  0
   17.7354  -25.2962   -5.5091 C   0  0  0  0  0  0  0  0  0  0  0  0
   17.3474  -25.3779   -6.9307 C   0  0  2  0  0  0  0  0  0  0  0  0
   18.2989  -24.4255   -7.6747 N   0  0  0  0  0  0  0  0  0  0  0  0
   16.0635  -24.6309   -7.1829 C   0  0  0  0  0  0  0  0  0  0  0  0
   16.1367  -23.3434   -7.2182 O   0  0  0  0  0  0  0  0  0  0  0  0
   14.8524  -25.1649   -7.3758 O   0  0  0  0  0  0  0  0  0  0  0  0
  2  1  1  0
  3  2  1  0
  4  3  1  0
  4  5  1  0
  5  1  1  0
  6  7  2  0
  5  6  1  1
  8  6  1  0
  9 10  1  0
  9  8  1  0
 10 20  1  0
 11 10  2  0
 13 12  1  0
 13 14  2  0
 15 13  1  0
 16 17  1  0
 16 15  1  0
 18 17  1  0
 19 18  1  1
 20 19  1  0
 21 19  1  0
 21 23  1  0
 22 21  2  0
M  END
$$$$
