PGR.pdb
     RDKit          3D

 23 23  0  0  1  0  0  0  0  0999 V2000
   28.3030  -22.2421  -11.4074 N   0  0  0  0  0  0  0  0  0  0  0  0
   29.3491  -21.4881  -12.0471 C   0  0  0  0  0  0  0  0  0  0  0  0
   30.2536  -21.2074  -10.8393 C   0  0  0  0  0  0  0  0  0  0  0  0
   29.2444  -20.7935   -9.7949 C   0  0  0  0  0  0  0  0  0  0  0  0
   28.0285  -21.6244  -10.1592 C   0  0  1  0  0  0  0  0  0  0  0  0
   26.7880  -20.8425  -10.0809 C   0  0  0  0  0  0  0  0  0  0  0  0
   26.8689  -19.5618  -10.0469 O   0  0  0  0  0  0  0  0  0  0  0  0
   25.4692  -21.3633  -10.0378 N   0  0  0  0  0  0  0  0  0  0  0  0
   24.2985  -20.5353   -9.9157 C   0  0  0  0  0  0  0  0  0  0  0  0
   23.7492  -20.0441  -11.1911 C   0  0  0  0  0  0  0  0  0  0  0  0
   22.7054  -19.3450  -11.1541 O   0  0  0  0  0  0  0  0  0  0  0  0
   26.6454  -16.4323  -16.8756 N   0  0  0  0  0  0  0  0  0  0  0  0
   25.6639  -15.6135  -16.2607 C   0  0  0  0  0  0  0  0  0  0  0  0
   25.7123  -14.3307  -16.3601 N   0  0  0  0  0  0  0  0  0  0  0  0
   24.5928  -16.2117  -15.5119 N   0  0  0  0  0  0  0  0  0  0  0  0
   24.9601  -17.0896  -14.4307 C   0  0  0  0  0  0  0  0  0  0  0  0
   25.4049  -18.4209  -14.8309 C   0  0  0  0  0  0  0  0  0  0  0  0
   24.6795  -19.6528  -14.7218 C   0  0  0  0  0  0  0  0  0  0  0  0
   23.6132  -19.8442  -13.7194 C   0  0  2  0  0  0  0  0  0  0  0  0
   24.3267  -20.3172  -12.4415 N   0  0  0  0  0  0  0  0  0  0  0  0
   22.8295  -21.1003  -13.9992 C   0  0  0  0  0  0  0  0  0  0  0  0
   23.3256  -22.2061  -13.5575 O   0  0  0  0  0  0  0  0  0  0  0  0
   21.6692  -21.1884  -14.6586 O   0  0  0  0  0  0  0  0  0  0  0  0
  2  1  1  0
  3  2  1  0
  4  3  1  0
  4  5  1  0
  5  1  1  0
  6  7  2  0
  5  6  1  6
  8  6  1  0
  9 10  1  0
  9  8  1  0
 10 20  1  0
 11 10  2  0
 13 12  1  0
 13 14  2  0
 15 13  1  0
 16 17  1  0
 16 15  1  0
 18 17  1  0
 19 18  1  6
 20 19  1  0
 21 19  1  0
 21 23  1  0
 22 21  2  0
M  END
$$$$
