PGR.pdb
     RDKit          3D

 23 23  0  0  1  0  0  0  0  0999 V2000
   24.5597  -17.8104  -17.3022 N   0  0  0  0  0  0  0  0  0  0  0  0
   23.3893  -18.3470  -16.6585 C   0  0  0  0  0  0  0  0  0  0  0  0
   22.8279  -17.0708  -16.0169 C   0  0  0  0  0  0  0  0  0  0  0  0
   24.0744  -16.4536  -15.4291 C   0  0  0  0  0  0  0  0  0  0  0  0
   25.1501  -16.8754  -16.4123 C   0  0  1  0  0  0  0  0  0  0  0  0
   26.3743  -17.3131  -15.7295 C   0  0  0  0  0  0  0  0  0  0  0  0
   26.8647  -16.5672  -14.8071 O   0  0  0  0  0  0  0  0  0  0  0  0
   27.0965  -18.5070  -15.9852 N   0  0  0  0  0  0  0  0  0  0  0  0
   28.1992  -18.9502  -15.1736 C   0  0  0  0  0  0  0  0  0  0  0  0
   27.8741  -20.0200  -14.2147 C   0  0  0  0  0  0  0  0  0  0  0  0
   28.8226  -20.5722  -13.6023 O   0  0  0  0  0  0  0  0  0  0  0  0
   22.9247  -19.8488  -10.3222 N   0  0  0  0  0  0  0  0  0  0  0  0
   23.3316  -20.6875   -9.2532 C   0  0  0  0  0  0  0  0  0  0  0  0
   22.4941  -21.0688   -8.3526 N   0  0  0  0  0  0  0  0  0  0  0  0
   24.6972  -21.1264   -9.1613 N   0  0  0  0  0  0  0  0  0  0  0  0
   25.7053  -20.2457   -9.6930 C   0  0  0  0  0  0  0  0  0  0  0  0
   25.9220  -20.3418  -11.1331 C   0  0  0  0  0  0  0  0  0  0  0  0
   25.5512  -21.4211  -12.0013 C   0  0  0  0  0  0  0  0  0  0  0  0
   26.3497  -21.7748  -13.1910 C   0  0  2  0  0  0  0  0  0  0  0  0
   26.5653  -20.4556  -13.9519 N   0  0  0  0  0  0  0  0  0  0  0  0
   25.5014  -22.4747  -14.2209 C   0  0  0  0  0  0  0  0  0  0  0  0
   24.9494  -21.7337  -15.1210 O   0  0  0  0  0  0  0  0  0  0  0  0
   25.2613  -23.7881  -14.3002 O   0  0  0  0  0  0  0  0  0  0  0  0
  2  1  1  0
  3  2  1  0
  4  3  1  0
  4  5  1  0
  5  1  1  0
  6  7  2  0
  5  6  1  1
  8  6  1  0
  9 10  1  0
  9  8  1  0
 10 20  1  0
 11 10  2  0
 13 12  1  0
 13 14  2  0
 15 13  1  0
 16 17  1  0
 16 15  1  0
 18 17  1  0
 19 18  1  1
 20 19  1  0
 21 19  1  0
 21 23  1  0
 22 21  2  0
M  END
$$$$
