PGR.pdb
     RDKit          3D

 23 23  0  0  1  0  0  0  0  0999 V2000
   27.3469  -20.1856   -8.9708 N   0  0  0  0  0  0  0  0  0  0  0  0
   26.3169  -19.2175   -8.6987 C   0  0  0  0  0  0  0  0  0  0  0  0
   25.2744  -20.1188   -8.0231 C   0  0  0  0  0  0  0  0  0  0  0  0
   25.2741  -21.3202   -8.9379 C   0  0  0  0  0  0  0  0  0  0  0  0
   26.7132  -21.3754   -9.4152 C   0  0  1  0  0  0  0  0  0  0  0  0
   26.8023  -21.6599  -10.8530 C   0  0  0  0  0  0  0  0  0  0  0  0
   26.3262  -22.7684  -11.2916 O   0  0  0  0  0  0  0  0  0  0  0  0
   27.3742  -20.8179  -11.8412 N   0  0  0  0  0  0  0  0  0  0  0  0
   27.5618  -21.2232  -13.2092 C   0  0  0  0  0  0  0  0  0  0  0  0
   26.4355  -20.9172  -14.1078 C   0  0  0  0  0  0  0  0  0  0  0  0
   26.4944  -21.3352  -15.2916 O   0  0  0  0  0  0  0  0  0  0  0  0
   19.2429  -21.6364  -11.3594 N   0  0  0  0  0  0  0  0  0  0  0  0
   19.0931  -22.0143  -12.7182 C   0  0  0  0  0  0  0  0  0  0  0  0
   18.0787  -22.7054  -13.1073 N   0  0  0  0  0  0  0  0  0  0  0  0
   20.0815  -21.6266  -13.6871 N   0  0  0  0  0  0  0  0  0  0  0  0
   21.4353  -22.0573  -13.4499 C   0  0  0  0  0  0  0  0  0  0  0  0
   22.3468  -21.0200  -12.9773 C   0  0  0  0  0  0  0  0  0  0  0  0
   22.9158  -19.9457  -13.7376 C   0  0  0  0  0  0  0  0  0  0  0  0
   24.0718  -20.1498  -14.6322 C   0  0  2  0  0  0  0  0  0  0  0  0
   25.3050  -20.1836  -13.7135 N   0  0  0  0  0  0  0  0  0  0  0  0
   24.4032  -18.8854  -15.3817 C   0  0  0  0  0  0  0  0  0  0  0  0
   25.3290  -18.1387  -14.8822 O   0  0  0  0  0  0  0  0  0  0  0  0
   23.8370  -18.4559  -16.5147 O   0  0  0  0  0  0  0  0  0  0  0  0
  2  1  1  0
  3  2  1  0
  4  3  1  0
  4  5  1  0
  5  1  1  0
  6  7  2  0
  5  6  1  6
  8  6  1  0
  9 10  1  0
  9  8  1  0
 10 20  1  0
 11 10  2  0
 13 12  1  0
 13 14  2  0
 15 13  1  0
 16 17  1  0
 16 15  1  0
 18 17  1  0
 19 18  1  1
 20 19  1  0
 21 19  1  0
 21 23  1  0
 22 21  2  0
M  END
$$$$
