PGR.pdb
     RDKit          3D

 23 23  0  0  1  0  0  0  0  0999 V2000
   25.8463  -20.6501  -15.7538 N   0  0  0  0  0  0  0  0  0  0  0  0
   26.3799  -19.3935  -16.2102 C   0  0  0  0  0  0  0  0  0  0  0  0
   27.6951  -19.3585  -15.4200 C   0  0  0  0  0  0  0  0  0  0  0  0
   27.2353  -19.7882  -14.0473 C   0  0  0  0  0  0  0  0  0  0  0  0
   26.1011  -20.7458  -14.3608 C   0  0  1  0  0  0  0  0  0  0  0  0
   24.9489  -20.5382  -13.4745 C   0  0  0  0  0  0  0  0  0  0  0  0
   25.1454  -20.5088  -12.2063 O   0  0  0  0  0  0  0  0  0  0  0  0
   23.6007  -20.3606  -13.8786 N   0  0  0  0  0  0  0  0  0  0  0  0
   22.4984  -20.3295  -12.9540 C   0  0  0  0  0  0  0  0  0  0  0  0
   21.6421  -21.5279  -12.9678 C   0  0  0  0  0  0  0  0  0  0  0  0
   22.1933  -22.6455  -13.1314 O   0  0  0  0  0  0  0  0  0  0  0  0
   19.4611  -24.7693   -7.8384 N   0  0  0  0  0  0  0  0  0  0  0  0
   18.0569  -24.6118   -7.9619 C   0  0  0  0  0  0  0  0  0  0  0  0
   17.2461  -25.2689   -7.2077 N   0  0  0  0  0  0  0  0  0  0  0  0
   17.5166  -23.7077   -8.9400 N   0  0  0  0  0  0  0  0  0  0  0  0
   18.1357  -23.7034  -10.2404 C   0  0  0  0  0  0  0  0  0  0  0  0
   17.6046  -22.7224  -11.1816 C   0  0  0  0  0  0  0  0  0  0  0  0
   18.0676  -22.4486  -12.5107 C   0  0  0  0  0  0  0  0  0  0  0  0
   19.4367  -22.7875  -12.9453 C   0  0  2  0  0  0  0  0  0  0  0  0
   20.2473  -21.4873  -12.8110 N   0  0  0  0  0  0  0  0  0  0  0  0
   19.5079  -22.9252  -14.4440 C   0  0  0  0  0  0  0  0  0  0  0  0
   19.6879  -21.8413  -15.1199 O   0  0  0  0  0  0  0  0  0  0  0  0
   19.4051  -24.0574  -15.1487 O   0  0  0  0  0  0  0  0  0  0  0  0
  2  1  1  0
  3  2  1  0
  4  3  1  0
  4  5  1  0
  5  1  1  0
  6  7  2  0
  5  6  1  1
  8  6  1  0
  9 10  1  0
  9  8  1  0
 10 20  1  0
 11 10  2  0
 13 12  1  0
 13 14  2  0
 15 13  1  0
 16 17  1  0
 16 15  1  0
 18 17  1  0
 19 18  1  6
 20 19  1  0
 21 19  1  0
 21 23  1  0
 22 21  2  0
M  END
$$$$
