PGR.pdb
     RDKit          3D

 23 23  0  0  1  0  0  0  0  0999 V2000
   27.0247  -21.1067  -14.2889 N   0  0  0  0  0  0  0  0  0  0  0  0
   27.0451  -19.8700  -15.0252 C   0  0  0  0  0  0  0  0  0  0  0  0
   28.4628  -19.3845  -14.6936 C   0  0  0  0  0  0  0  0  0  0  0  0
   28.5312  -19.6421  -13.2072 C   0  0  0  0  0  0  0  0  0  0  0  0
   27.6651  -20.8769  -13.0431 C   0  0  1  0  0  0  0  0  0  0  0  0
   26.7868  -20.7773  -11.8706 C   0  0  0  0  0  0  0  0  0  0  0  0
   27.3212  -20.7106  -10.7053 O   0  0  0  0  0  0  0  0  0  0  0  0
   25.3686  -20.7455  -11.8847 N   0  0  0  0  0  0  0  0  0  0  0  0
   24.5729  -20.5503  -10.7016 C   0  0  0  0  0  0  0  0  0  0  0  0
   23.1177  -20.5262  -10.9288 C   0  0  0  0  0  0  0  0  0  0  0  0
   22.3677  -20.3596   -9.9341 O   0  0  0  0  0  0  0  0  0  0  0  0
   23.0670  -22.4072  -16.8071 N   0  0  0  0  0  0  0  0  0  0  0  0
   24.1392  -21.5356  -16.4872 C   0  0  0  0  0  0  0  0  0  0  0  0
   25.3592  -21.8653  -16.7337 N   0  0  0  0  0  0  0  0  0  0  0  0
   23.8744  -20.2610  -15.8779 N   0  0  0  0  0  0  0  0  0  0  0  0
   22.5184  -19.7784  -15.9319 C   0  0  0  0  0  0  0  0  0  0  0  0
   21.6269  -20.3046  -14.9030 C   0  0  0  0  0  0  0  0  0  0  0  0
   21.0818  -19.6022  -13.7781 C   0  0  0  0  0  0  0  0  0  0  0  0
   21.0909  -20.1786  -12.4194 C   0  0  2  0  0  0  0  0  0  0  0  0
   22.5267  -20.6817  -12.1929 N   0  0  0  0  0  0  0  0  0  0  0  0
   20.3944  -21.5145  -12.3960 C   0  0  0  0  0  0  0  0  0  0  0  0
   21.1441  -22.5626  -12.4548 O   0  0  0  0  0  0  0  0  0  0  0  0
   19.0763  -21.7276  -12.3190 O   0  0  0  0  0  0  0  0  0  0  0  0
  2  1  1  0
  3  2  1  0
  4  3  1  0
  4  5  1  0
  5  1  1  0
  6  7  2  0
  5  6  1  1
  8  6  1  0
  9 10  1  0
  9  8  1  0
 10 20  1  0
 11 10  2  0
 13 12  1  0
 13 14  2  0
 15 13  1  0
 16 17  1  0
 16 15  1  0
 18 17  1  0
 19 18  1  6
 20 19  1  0
 21 19  1  0
 21 23  1  0
 22 21  2  0
M  END
$$$$
