PWR.pdb
     RDKit          3D

 33 35  0  0  1  0  0  0  0  0999 V2000
    7.4417  -15.3775   20.7377 N   0  0  0  0  0  0  0  0  0  0  0  0
    6.4249  -14.3750   20.4707 C   0  0  0  0  0  0  0  0  0  0  0  0
    7.0861  -13.0506   20.8823 C   0  0  0  0  0  0  0  0  0  0  0  0
    8.4728  -13.2744   20.3190 C   0  0  0  0  0  0  0  0  0  0  0  0
    8.7127  -14.7255   20.6615 C   0  0  1  0  0  0  0  0  0  0  0  0
    9.3652  -14.7447   22.0211 C   0  0  0  0  0  0  0  0  0  0  0  0
   10.3444  -13.9862   22.2446 O   0  0  0  0  0  0  0  0  0  0  0  0
    8.8628  -15.6153   23.0163 N   0  0  0  0  0  0  0  0  0  0  0  0
    9.5195  -15.8403   24.2823 C   0  0  1  0  0  0  0  0  0  0  0  0
    8.5462  -16.1899   25.3426 C   0  0  0  0  0  0  0  0  0  0  0  0
    7.4904  -15.1307   25.3822 C   0  0  0  0  0  0  0  0  0  0  0  0
    6.1814  -15.2140   24.9677 C   0  0  0  0  0  0  0  0  0  0  0  0
    5.5354  -14.0490   25.1642 N   0  0  0  0  0  0  0  0  0  0  0  0
    6.4182  -13.1889   25.7111 C   0  0  0  0  0  0  0  0  0  0  0  0
    6.3197  -11.8802   26.1169 C   0  0  0  0  0  0  0  0  0  0  0  0
    7.4008  -11.2167   26.6566 C   0  0  0  0  0  0  0  0  0  0  0  0
    8.6002  -11.8749   26.7921 C   0  0  0  0  0  0  0  0  0  0  0  0
    8.7143  -13.1824   26.3914 C   0  0  0  0  0  0  0  0  0  0  0  0
    7.6287  -13.8289   25.8560 C   0  0  0  0  0  0  0  0  0  0  0  0
   10.6732  -16.7758   24.1838 C   0  0  0  0  0  0  0  0  0  0  0  0
   10.4403  -17.9862   24.0145 O   0  0  0  0  0  0  0  0  0  0  0  0
   16.4794  -14.1307   20.2528 N   0  0  0  0  0  0  0  0  0  0  0  0
   15.2150  -14.6662   19.7578 C   0  0  0  0  0  0  0  0  0  0  0  0
   14.5585  -13.9666   18.9614 N   0  0  0  0  0  0  0  0  0  0  0  0
   14.7895  -15.9405   20.1976 N   0  0  0  0  0  0  0  0  0  0  0  0
   14.9232  -16.4973   21.5011 C   0  0  0  0  0  0  0  0  0  0  0  0
   14.2329  -15.8308   22.6283 C   0  0  0  0  0  0  0  0  0  0  0  0
   14.3983  -16.6111   23.9262 C   0  0  0  0  0  0  0  0  0  0  0  0
   13.1388  -17.2610   24.3785 C   0  0  2  0  0  0  0  0  0  0  0  0
   12.0086  -16.3268   24.2772 N   0  0  0  0  0  0  0  0  0  0  0  0
   13.1909  -17.8449   25.7347 C   0  0  0  0  0  0  0  0  0  0  0  0
   14.0506  -18.9344   25.9725 O   0  0  0  0  0  0  0  0  0  0  0  0
   12.5292  -17.4537   26.7112 O   0  0  0  0  0  0  0  0  0  0  0  0
  1  2  1  0
  3  2  1  0
  4  5  1  0
  4  3  1  0
  5  1  1  0
  5  6  1  1
  6  7  2  0
  8  6  1  0
  9  8  1  0
  9 10  1  1
 11 10  1  0
 12 11  2  0
 13 14  1  0
 13 12  1  0
 14 19  2  0
 15 16  2  0
 15 14  1  0
 16 17  1  0
 17 18  2  0
 19 18  1  0
 19 11  1  0
 20  9  1  0
 20 21  2  0
 22 23  1  0
 23 25  1  0
 24 23  2  0
 25 26  1  0
 26 27  1  0
 28 27  1  0
 29 30  1  0
 29 28  1  1
 30 20  1  0
 31 29  1  0
 32 31  1  0
 33 31  2  0
M  END
$$$$
