PWR.pdb
     RDKit          3D

 33 35  0  0  1  0  0  0  0  0999 V2000
    7.5992  -15.3261   18.4280 N   0  0  0  0  0  0  0  0  0  0  0  0
    6.7034  -14.3572   17.8207 C   0  0  0  0  0  0  0  0  0  0  0  0
    7.1605  -13.0091   18.3990 C   0  0  0  0  0  0  0  0  0  0  0  0
    8.6602  -13.1988   18.3278 C   0  0  0  0  0  0  0  0  0  0  0  0
    8.8085  -14.6381   18.7602 C   0  0  1  0  0  0  0  0  0  0  0  0
    8.9774  -14.6219   20.2589 C   0  0  0  0  0  0  0  0  0  0  0  0
   10.0175  -14.1165   20.7557 O   0  0  0  0  0  0  0  0  0  0  0  0
    7.9629  -15.1756   21.0744 N   0  0  0  0  0  0  0  0  0  0  0  0
    8.0279  -15.2040   22.5165 C   0  0  1  0  0  0  0  0  0  0  0  0
    6.7079  -14.9169   23.1238 C   0  0  0  0  0  0  0  0  0  0  0  0
    6.8900  -14.7699   24.6014 C   0  0  0  0  0  0  0  0  0  0  0  0
    6.9159  -15.7554   25.5608 C   0  0  0  0  0  0  0  0  0  0  0  0
    7.1020  -15.2330   26.7878 N   0  0  0  0  0  0  0  0  0  0  0  0
    7.2001  -13.8960   26.6431 C   0  0  0  0  0  0  0  0  0  0  0  0
    7.3906  -12.8704   27.5370 C   0  0  0  0  0  0  0  0  0  0  0  0
    7.4543  -11.5592   27.1164 C   0  0  0  0  0  0  0  0  0  0  0  0
    7.3250  -11.2705   25.7784 C   0  0  0  0  0  0  0  0  0  0  0  0
    7.1342  -12.2841   24.8732 C   0  0  0  0  0  0  0  0  0  0  0  0
    7.0731  -13.5843   25.3080 C   0  0  0  0  0  0  0  0  0  0  0  0
    8.6879  -16.4281   23.0475 C   0  0  0  0  0  0  0  0  0  0  0  0
    8.2263  -17.5369   22.7230 O   0  0  0  0  0  0  0  0  0  0  0  0
   14.4838  -18.1985   19.7520 N   0  0  0  0  0  0  0  0  0  0  0  0
   15.2052  -18.8982   20.8105 C   0  0  0  0  0  0  0  0  0  0  0  0
   16.4513  -18.8944   20.7664 N   0  0  0  0  0  0  0  0  0  0  0  0
   14.4709  -19.5464   21.8298 N   0  0  0  0  0  0  0  0  0  0  0  0
   13.1174  -19.3143   22.2050 C   0  0  0  0  0  0  0  0  0  0  0  0
   12.8480  -18.6154   23.4819 C   0  0  0  0  0  0  0  0  0  0  0  0
   11.9047  -17.4354   23.2861 C   0  0  0  0  0  0  0  0  0  0  0  0
   10.6838  -17.5204   24.1320 C   0  0  2  0  0  0  0  0  0  0  0  0
    9.8114  -16.3604   23.9002 N   0  0  0  0  0  0  0  0  0  0  0  0
   10.9376  -17.6799   25.5787 C   0  0  0  0  0  0  0  0  0  0  0  0
   11.0364  -18.9795   26.1116 O   0  0  0  0  0  0  0  0  0  0  0  0
   11.0759  -16.7493   26.3907 O   0  0  0  0  0  0  0  0  0  0  0  0
  1  2  1  0
  3  2  1  0
  4  5  1  0
  4  3  1  0
  5  1  1  0
  5  6  1  1
  6  7  2  0
  8  6  1  0
  9  8  1  0
  9 10  1  1
 11 10  1  0
 12 11  2  0
 13 14  1  0
 13 12  1  0
 14 19  2  0
 15 16  2  0
 15 14  1  0
 16 17  1  0
 17 18  2  0
 19 18  1  0
 19 11  1  0
 20  9  1  0
 20 21  2  0
 22 23  1  0
 23 25  1  0
 24 23  2  0
 25 26  1  0
 26 27  1  0
 28 27  1  0
 29 30  1  0
 29 28  1  6
 30 20  1  0
 31 29  1  0
 32 31  1  0
 33 31  2  0
M  END
$$$$
