PWR.pdb
     RDKit          3D

 33 35  0  0  1  0  0  0  0  0999 V2000
    7.3959  -15.4163   19.5405 N   0  0  0  0  0  0  0  0  0  0  0  0
    6.3595  -14.4543   19.2083 C   0  0  0  0  0  0  0  0  0  0  0  0
    6.8923  -13.1228   19.7595 C   0  0  0  0  0  0  0  0  0  0  0  0
    8.3443  -13.2425   19.3498 C   0  0  0  0  0  0  0  0  0  0  0  0
    8.6276  -14.6963   19.6445 C   0  0  1  0  0  0  0  0  0  0  0  0
    9.1228  -14.7583   21.0677 C   0  0  0  0  0  0  0  0  0  0  0  0
   10.1422  -14.0963   21.3942 O   0  0  0  0  0  0  0  0  0  0  0  0
    8.4309  -15.5599   22.0056 N   0  0  0  0  0  0  0  0  0  0  0  0
    8.8569  -15.7305   23.3745 C   0  0  1  0  0  0  0  0  0  0  0  0
    7.7205  -16.0870   24.2550 C   0  0  0  0  0  0  0  0  0  0  0  0
    7.0774  -14.8228   24.7309 C   0  0  0  0  0  0  0  0  0  0  0  0
    5.9124  -14.2390   24.2902 C   0  0  0  0  0  0  0  0  0  0  0  0
    5.6549  -13.1018   24.9636 N   0  0  0  0  0  0  0  0  0  0  0  0
    6.6520  -12.9296   25.8547 C   0  0  0  0  0  0  0  0  0  0  0  0
    6.9105  -11.9597   26.7926 C   0  0  0  0  0  0  0  0  0  0  0  0
    8.0292  -12.0230   27.5957 C   0  0  0  0  0  0  0  0  0  0  0  0
    8.9033  -13.0751   27.4570 C   0  0  0  0  0  0  0  0  0  0  0  0
    8.6588  -14.0518   26.5245 C   0  0  0  0  0  0  0  0  0  0  0  0
    7.5406  -13.9742   25.7327 C   0  0  0  0  0  0  0  0  0  0  0  0
   10.0367  -16.6279   23.5116 C   0  0  0  0  0  0  0  0  0  0  0  0
    9.9600  -17.7803   23.0492 O   0  0  0  0  0  0  0  0  0  0  0  0
   18.9079  -16.2897   24.5301 N   0  0  0  0  0  0  0  0  0  0  0  0
   18.3739  -17.2944   23.6157 C   0  0  0  0  0  0  0  0  0  0  0  0
   18.9594  -18.3934   23.5521 N   0  0  0  0  0  0  0  0  0  0  0  0
   17.2293  -16.9840   22.8464 N   0  0  0  0  0  0  0  0  0  0  0  0
   16.0614  -16.2892   23.2708 C   0  0  0  0  0  0  0  0  0  0  0  0
   14.9091  -17.0782   23.7615 C   0  0  0  0  0  0  0  0  0  0  0  0
   13.6135  -16.2800   23.6917 C   0  0  0  0  0  0  0  0  0  0  0  0
   12.4324  -17.0450   24.1745 C   0  0  2  0  0  0  0  0  0  0  0  0
   11.2255  -16.2065   24.1464 N   0  0  0  0  0  0  0  0  0  0  0  0
   12.5900  -17.6581   25.5094 C   0  0  0  0  0  0  0  0  0  0  0  0
   13.4820  -18.7371   25.6602 O   0  0  0  0  0  0  0  0  0  0  0  0
   11.9930  -17.3007   26.5392 O   0  0  0  0  0  0  0  0  0  0  0  0
  1  2  1  0
  3  2  1  0
  4  5  1  0
  4  3  1  0
  5  1  1  0
  5  6  1  1
  6  7  2  0
  8  6  1  0
  9  8  1  0
  9 10  1  1
 11 10  1  0
 12 11  2  0
 13 14  1  0
 13 12  1  0
 14 19  2  0
 15 16  2  0
 15 14  1  0
 16 17  1  0
 17 18  2  0
 19 18  1  0
 19 11  1  0
 20  9  1  0
 20 21  2  0
 22 23  1  0
 23 25  1  0
 24 23  2  0
 25 26  1  0
 26 27  1  0
 28 27  1  0
 29 30  1  0
 29 28  1  1
 30 20  1  0
 31 29  1  0
 32 31  1  0
 33 31  2  0
M  END
$$$$
