PWR.pdb
     RDKit          3D

 33 35  0  0  1  0  0  0  0  0999 V2000
    6.9757  -15.3670   20.6505 N   0  0  0  0  0  0  0  0  0  0  0  0
    6.0304  -14.2903   20.4118 C   0  0  0  0  0  0  0  0  0  0  0  0
    6.7594  -13.0330   20.9102 C   0  0  0  0  0  0  0  0  0  0  0  0
    8.1453  -13.3139   20.3711 C   0  0  0  0  0  0  0  0  0  0  0  0
    8.2860  -14.7929   20.6413 C   0  0  1  0  0  0  0  0  0  0  0  0
    8.8971  -14.9234   22.0140 C   0  0  0  0  0  0  0  0  0  0  0  0
    9.9763  -14.3271   22.2666 O   0  0  0  0  0  0  0  0  0  0  0  0
    8.2441  -15.7136   22.9887 N   0  0  0  0  0  0  0  0  0  0  0  0
    8.8249  -16.0377   24.2702 C   0  0  1  0  0  0  0  0  0  0  0  0
    7.7863  -16.1674   25.3182 C   0  0  0  0  0  0  0  0  0  0  0  0
    7.0316  -14.8781   25.3970 C   0  0  0  0  0  0  0  0  0  0  0  0
    5.7663  -14.5997   24.9347 C   0  0  0  0  0  0  0  0  0  0  0  0
    5.4264  -13.3222   25.1908 N   0  0  0  0  0  0  0  0  0  0  0  0
    6.4694  -12.7500   25.8255 C   0  0  0  0  0  0  0  0  0  0  0  0
    6.6845  -11.4859   26.3184 C   0  0  0  0  0  0  0  0  0  0  0  0
    7.8699  -11.1535   26.9387 C   0  0  0  0  0  0  0  0  0  0  0  0
    8.8560  -12.1029   27.0674 C   0  0  0  0  0  0  0  0  0  0  0  0
    8.6560  -13.3701   26.5801 C   0  0  0  0  0  0  0  0  0  0  0  0
    7.4703  -13.6851   25.9651 C   0  0  0  0  0  0  0  0  0  0  0  0
    9.7729  -17.1838   24.2088 C   0  0  0  0  0  0  0  0  0  0  0  0
    9.3115  -18.3232   24.0172 O   0  0  0  0  0  0  0  0  0  0  0  0
   17.0925  -21.0682   23.1735 N   0  0  0  0  0  0  0  0  0  0  0  0
   16.9009  -20.2854   21.9564 C   0  0  0  0  0  0  0  0  0  0  0  0
   17.3256  -20.7616   20.8852 N   0  0  0  0  0  0  0  0  0  0  0  0
   16.2511  -19.0328   22.0404 N   0  0  0  0  0  0  0  0  0  0  0  0
   15.7344  -18.4003   23.2066 C   0  0  0  0  0  0  0  0  0  0  0  0
   14.4324  -18.8590   23.7410 C   0  0  0  0  0  0  0  0  0  0  0  0
   13.3976  -17.7411   23.7303 C   0  0  0  0  0  0  0  0  0  0  0  0
   12.0997  -18.1443   24.3354 C   0  0  2  0  0  0  0  0  0  0  0  0
   11.1657  -17.0096   24.3614 N   0  0  0  0  0  0  0  0  0  0  0  0
   12.1995  -18.7467   25.6807 C   0  0  0  0  0  0  0  0  0  0  0  0
   12.8260  -20.0002   25.8188 O   0  0  0  0  0  0  0  0  0  0  0  0
   11.7709  -18.2367   26.7298 O   0  0  0  0  0  0  0  0  0  0  0  0
  1  2  1  0
  3  2  1  0
  4  5  1  0
  4  3  1  0
  5  1  1  0
  5  6  1  1
  6  7  2  0
  8  6  1  0
  9  8  1  0
  9 10  1  1
 11 10  1  0
 12 11  2  0
 13 14  1  0
 13 12  1  0
 14 19  2  0
 15 16  2  0
 15 14  1  0
 16 17  1  0
 17 18  2  0
 19 18  1  0
 19 11  1  0
 20  9  1  0
 20 21  2  0
 22 23  1  0
 23 25  1  0
 24 23  2  0
 25 26  1  0
 26 27  1  0
 28 27  1  0
 29 30  1  0
 29 28  1  1
 30 20  1  0
 31 29  1  0
 32 31  1  0
 33 31  2  0
M  END
$$$$
