PWR.pdb
     RDKit          3D

 33 35  0  0  1  0  0  0  0  0999 V2000
    7.8389  -15.1537   18.6507 N   0  0  0  0  0  0  0  0  0  0  0  0
    6.9592  -14.1776   18.0315 C   0  0  0  0  0  0  0  0  0  0  0  0
    7.3727  -12.8420   18.6687 C   0  0  0  0  0  0  0  0  0  0  0  0
    8.8764  -13.0125   18.6602 C   0  0  0  0  0  0  0  0  0  0  0  0
    9.0232  -14.4621   19.0572 C   0  0  1  0  0  0  0  0  0  0  0  0
    9.1242  -14.4881   20.5619 C   0  0  0  0  0  0  0  0  0  0  0  0
   10.1154  -13.9513   21.1216 O   0  0  0  0  0  0  0  0  0  0  0  0
    8.1023  -15.1157   21.3121 N   0  0  0  0  0  0  0  0  0  0  0  0
    8.1137  -15.2059   22.7530 C   0  0  1  0  0  0  0  0  0  0  0  0
    6.7397  -15.2632   23.3030 C   0  0  0  0  0  0  0  0  0  0  0  0
    6.8019  -14.9429   24.7630 C   0  0  0  0  0  0  0  0  0  0  0  0
    6.8082  -15.8130   25.8285 C   0  0  0  0  0  0  0  0  0  0  0  0
    6.8730  -15.1478   26.9974 N   0  0  0  0  0  0  0  0  0  0  0  0
    6.9101  -13.8315   26.7076 C   0  0  0  0  0  0  0  0  0  0  0  0
    6.9776  -12.7036   27.4890 C   0  0  0  0  0  0  0  0  0  0  0  0
    7.0026  -11.4455   26.9262 C   0  0  0  0  0  0  0  0  0  0  0  0
    6.9592  -11.3148   25.5582 C   0  0  0  0  0  0  0  0  0  0  0  0
    6.8916  -12.4321   24.7642 C   0  0  0  0  0  0  0  0  0  0  0  0
    6.8675  -13.6776   25.3400 C   0  0  0  0  0  0  0  0  0  0  0  0
    9.0181  -16.2721   23.2643 C   0  0  0  0  0  0  0  0  0  0  0  0
    9.0048  -17.3801   22.6988 O   0  0  0  0  0  0  0  0  0  0  0  0
   15.1504  -18.5278   21.7614 N   0  0  0  0  0  0  0  0  0  0  0  0
   16.0810  -18.3213   22.8669 C   0  0  0  0  0  0  0  0  0  0  0  0
   16.9693  -19.1774   23.0476 N   0  0  0  0  0  0  0  0  0  0  0  0
   15.9380  -17.1738   23.6800 N   0  0  0  0  0  0  0  0  0  0  0  0
   14.7602  -16.4028   23.8925 C   0  0  0  0  0  0  0  0  0  0  0  0
   13.5412  -17.0923   24.3721 C   0  0  0  0  0  0  0  0  0  0  0  0
   12.2932  -16.2506   24.1385 C   0  0  0  0  0  0  0  0  0  0  0  0
   11.0483  -16.9121   24.6138 C   0  0  2  0  0  0  0  0  0  0  0  0
    9.8793  -16.0574   24.3625 N   0  0  0  0  0  0  0  0  0  0  0  0
   11.0688  -17.3358   26.0290 C   0  0  0  0  0  0  0  0  0  0  0  0
   11.9504  -18.3626   26.4179 O   0  0  0  0  0  0  0  0  0  0  0  0
   10.3619  -16.8576   26.9324 O   0  0  0  0  0  0  0  0  0  0  0  0
  1  2  1  0
  3  2  1  0
  4  5  1  0
  4  3  1  0
  5  1  1  0
  5  6  1  1
  6  7  2  0
  8  6  1  0
  9  8  1  0
  9 10  1  6
 11 10  1  0
 12 11  2  0
 13 14  1  0
 13 12  1  0
 14 19  2  0
 15 16  2  0
 15 14  1  0
 16 17  1  0
 17 18  2  0
 19 18  1  0
 19 11  1  0
 20  9  1  0
 20 21  2  0
 22 23  1  0
 23 25  1  0
 24 23  2  0
 25 26  1  0
 26 27  1  0
 28 27  1  0
 29 30  1  0
 29 28  1  1
 30 20  1  0
 31 29  1  0
 32 31  1  0
 33 31  2  0
M  END
$$$$
