PWR.pdb
     RDKit          3D

 33 35  0  0  1  0  0  0  0  0999 V2000
    7.5528  -15.3778   19.8053 N   0  0  0  0  0  0  0  0  0  0  0  0
    6.6503  -14.3047   19.4261 C   0  0  0  0  0  0  0  0  0  0  0  0
    7.2496  -13.0567   20.0925 C   0  0  0  0  0  0  0  0  0  0  0  0
    8.7172  -13.3029   19.8165 C   0  0  0  0  0  0  0  0  0  0  0  0
    8.8307  -14.7886   20.0621 C   0  0  1  0  0  0  0  0  0  0  0  0
    9.1742  -14.9587   21.5208 C   0  0  0  0  0  0  0  0  0  0  0  0
   10.1733  -14.3558   21.9923 O   0  0  0  0  0  0  0  0  0  0  0  0
    8.3659  -15.7928   22.3281 N   0  0  0  0  0  0  0  0  0  0  0  0
    8.6374  -16.0573   23.7213 C   0  0  1  0  0  0  0  0  0  0  0  0
    7.3936  -16.0541   24.5255 C   0  0  0  0  0  0  0  0  0  0  0  0
    6.9445  -14.6371   24.6947 C   0  0  0  0  0  0  0  0  0  0  0  0
    6.0346  -13.9339   23.9399 C   0  0  0  0  0  0  0  0  0  0  0  0
    5.8902  -12.6771   24.4010 N   0  0  0  0  0  0  0  0  0  0  0  0
    6.7068  -12.5449   25.4657 C   0  0  0  0  0  0  0  0  0  0  0  0
    6.9707  -11.4999   26.3176 C   0  0  0  0  0  0  0  0  0  0  0  0
    7.8725  -11.6320   27.3518 C   0  0  0  0  0  0  0  0  0  0  0  0
    8.5208  -12.8304   27.5357 C   0  0  0  0  0  0  0  0  0  0  0  0
    8.2678  -13.8836   26.6931 C   0  0  0  0  0  0  0  0  0  0  0  0
    7.3672  -13.7360   25.6682 C   0  0  0  0  0  0  0  0  0  0  0  0
    9.4944  -17.2561   23.9321 C   0  0  0  0  0  0  0  0  0  0  0  0
    9.0607  -18.3642   23.5692 O   0  0  0  0  0  0  0  0  0  0  0  0
   15.5353  -15.4699   22.2300 N   0  0  0  0  0  0  0  0  0  0  0  0
   16.4259  -16.0702   23.2185 C   0  0  0  0  0  0  0  0  0  0  0  0
   17.3567  -15.3705   23.6643 N   0  0  0  0  0  0  0  0  0  0  0  0
   16.2014  -17.4056   23.6242 N   0  0  0  0  0  0  0  0  0  0  0  0
   15.2036  -17.8838   24.5200 C   0  0  0  0  0  0  0  0  0  0  0  0
   13.8423  -17.3086   24.4335 C   0  0  0  0  0  0  0  0  0  0  0  0
   12.8251  -18.3444   23.9717 C   0  0  0  0  0  0  0  0  0  0  0  0
   11.5896  -18.3557   24.8003 C   0  0  2  0  0  0  0  0  0  0  0  0
   10.7718  -17.1654   24.5269 N   0  0  0  0  0  0  0  0  0  0  0  0
   11.8152  -18.4900   26.2542 C   0  0  0  0  0  0  0  0  0  0  0  0
   12.3760  -19.6839   26.7470 O   0  0  0  0  0  0  0  0  0  0  0  0
   11.5494  -17.6245   27.1054 O   0  0  0  0  0  0  0  0  0  0  0  0
  1  2  1  0
  3  2  1  0
  4  5  1  0
  4  3  1  0
  5  1  1  0
  5  6  1  1
  6  7  2  0
  8  6  1  0
  9  8  1  0
  9 10  1  1
 11 10  1  0
 12 11  2  0
 13 14  1  0
 13 12  1  0
 14 19  2  0
 15 16  2  0
 15 14  1  0
 16 17  1  0
 17 18  2  0
 19 18  1  0
 19 11  1  0
 20  9  1  0
 20 21  2  0
 22 23  1  0
 23 25  1  0
 24 23  2  0
 25 26  1  0
 26 27  1  0
 28 27  1  0
 29 30  1  0
 29 28  1  6
 30 20  1  0
 31 29  1  0
 32 31  1  0
 33 31  2  0
M  END
$$$$
