PWR.pdb
     RDKit          3D

 33 35  0  0  1  0  0  0  0  0999 V2000
    7.4689  -15.8332   21.0490 N   0  0  0  0  0  0  0  0  0  0  0  0
    6.3779  -14.9285   20.7312 C   0  0  0  0  0  0  0  0  0  0  0  0
    6.9698  -13.5298   20.9639 C   0  0  0  0  0  0  0  0  0  0  0  0
    8.3406  -13.7309   20.3549 C   0  0  0  0  0  0  0  0  0  0  0  0
    8.6900  -15.1189   20.8365 C   0  0  1  0  0  0  0  0  0  0  0  0
    9.4046  -14.9501   22.1540 C   0  0  0  0  0  0  0  0  0  0  0  0
   10.3410  -14.1140   22.2435 O   0  0  0  0  0  0  0  0  0  0  0  0
    9.0072  -15.7357   23.2611 N   0  0  0  0  0  0  0  0  0  0  0  0
    9.7325  -15.7774   24.5088 C   0  0  1  0  0  0  0  0  0  0  0  0
    8.8469  -16.1439   25.6380 C   0  0  0  0  0  0  0  0  0  0  0  0
    7.7397  -15.1407   25.7145 C   0  0  0  0  0  0  0  0  0  0  0  0
    6.4095  -15.3121   25.4085 C   0  0  0  0  0  0  0  0  0  0  0  0
    5.7164  -14.1744   25.6043 N   0  0  0  0  0  0  0  0  0  0  0  0
    6.5888  -13.2442   26.0419 C   0  0  0  0  0  0  0  0  0  0  0  0
    6.4486  -11.9245   26.3967 C   0  0  0  0  0  0  0  0  0  0  0  0
    7.5290  -11.1802   26.8200 C   0  0  0  0  0  0  0  0  0  0  0  0
    8.7702  -11.7676   26.8892 C   0  0  0  0  0  0  0  0  0  0  0  0
    8.9263  -13.0850   26.5382 C   0  0  0  0  0  0  0  0  0  0  0  0
    7.8407  -13.8123   26.1187 C   0  0  0  0  0  0  0  0  0  0  0  0
   10.9828  -16.5816   24.4311 C   0  0  0  0  0  0  0  0  0  0  0  0
   11.7596  -16.5623   25.4027 O   0  0  0  0  0  0  0  0  0  0  0  0
   15.8064  -13.1420   17.8241 N   0  0  0  0  0  0  0  0  0  0  0  0
   15.7434  -14.4848   18.3928 C   0  0  0  0  0  0  0  0  0  0  0  0
   16.7323  -15.2287   18.2397 N   0  0  0  0  0  0  0  0  0  0  0  0
   14.5769  -14.8840   19.0843 N   0  0  0  0  0  0  0  0  0  0  0  0
   14.2894  -16.1663   19.6320 C   0  0  0  0  0  0  0  0  0  0  0  0
   14.2262  -16.3078   21.1042 C   0  0  0  0  0  0  0  0  0  0  0  0
   12.7909  -16.4617   21.5908 C   0  0  0  0  0  0  0  0  0  0  0  0
   12.6637  -17.3981   22.7398 C   0  0  2  0  0  0  0  0  0  0  0  0
   11.3032  -17.3556   23.2944 N   0  0  0  0  0  0  0  0  0  0  0  0
   13.6546  -17.2003   23.8178 C   0  0  0  0  0  0  0  0  0  0  0  0
   14.4745  -18.2817   24.1934 O   0  0  0  0  0  0  0  0  0  0  0  0
   13.8368  -16.1404   24.4405 O   0  0  0  0  0  0  0  0  0  0  0  0
  1  2  1  0
  3  2  1  0
  4  5  1  0
  4  3  1  0
  5  1  1  0
  5  6  1  1
  6  7  2  0
  8  6  1  0
  9  8  1  0
  9 10  1  1
 11 10  1  0
 12 11  2  0
 13 14  1  0
 13 12  1  0
 14 19  2  0
 15 16  2  0
 15 14  1  0
 16 17  1  0
 17 18  2  0
 19 18  1  0
 19 11  1  0
 20  9  1  0
 20 21  2  0
 22 23  1  0
 23 25  1  0
 24 23  2  0
 25 26  1  0
 26 27  1  0
 28 27  1  0
 29 30  1  0
 29 28  1  6
 30 20  1  0
 31 29  1  0
 32 31  1  0
 33 31  2  0
M  END
$$$$
