PWR.pdb
     RDKit          3D

 33 35  0  0  1  0  0  0  0  0999 V2000
    7.5509  -15.5606   20.2889 N   0  0  0  0  0  0  0  0  0  0  0  0
    6.4221  -14.7108   19.9518 C   0  0  0  0  0  0  0  0  0  0  0  0
    6.8034  -13.3360   20.5222 C   0  0  0  0  0  0  0  0  0  0  0  0
    8.2648  -13.2964   20.1309 C   0  0  0  0  0  0  0  0  0  0  0  0
    8.6975  -14.7148   20.4159 C   0  0  1  0  0  0  0  0  0  0  0  0
    9.1790  -14.7388   21.8450 C   0  0  0  0  0  0  0  0  0  0  0  0
   10.0119  -13.8767   22.2285 O   0  0  0  0  0  0  0  0  0  0  0  0
    8.6842  -15.7305   22.7241 N   0  0  0  0  0  0  0  0  0  0  0  0
    9.1947  -15.9374   24.0587 C   0  0  1  0  0  0  0  0  0  0  0  0
    8.0967  -16.1008   25.0392 C   0  0  0  0  0  0  0  0  0  0  0  0
    7.2645  -14.8576   25.0275 C   0  0  0  0  0  0  0  0  0  0  0  0
    6.1278  -14.5979   24.2976 C   0  0  0  0  0  0  0  0  0  0  0  0
    5.6572  -13.3630   24.5558 N   0  0  0  0  0  0  0  0  0  0  0  0
    6.4840  -12.8005   25.4603 C   0  0  0  0  0  0  0  0  0  0  0  0
    6.4971  -11.5742   26.0793 C   0  0  0  0  0  0  0  0  0  0  0  0
    7.4806  -11.2428   26.9867 C   0  0  0  0  0  0  0  0  0  0  0  0
    8.4671  -12.1548   27.2789 C   0  0  0  0  0  0  0  0  0  0  0  0
    8.4675  -13.3840   26.6687 C   0  0  0  0  0  0  0  0  0  0  0  0
    7.4814  -13.6985   25.7676 C   0  0  0  0  0  0  0  0  0  0  0  0
   10.2347  -17.0003   24.1280 C   0  0  0  0  0  0  0  0  0  0  0  0
    9.9061  -18.1679   23.8512 O   0  0  0  0  0  0  0  0  0  0  0  0
   16.7487  -15.6856   24.1671 N   0  0  0  0  0  0  0  0  0  0  0  0
   17.0695  -16.2151   22.8452 C   0  0  0  0  0  0  0  0  0  0  0  0
   18.2731  -16.3308   22.5408 N   0  0  0  0  0  0  0  0  0  0  0  0
   16.0151  -16.5691   21.9726 N   0  0  0  0  0  0  0  0  0  0  0  0
   14.7433  -17.1051   22.3218 C   0  0  0  0  0  0  0  0  0  0  0  0
   14.6494  -17.9865   23.5074 C   0  0  0  0  0  0  0  0  0  0  0  0
   13.9233  -17.3016   24.6582 C   0  0  0  0  0  0  0  0  0  0  0  0
   12.5256  -17.7810   24.8314 C   0  0  2  0  0  0  0  0  0  0  0  0
   11.5681  -16.7174   24.4963 N   0  0  0  0  0  0  0  0  0  0  0  0
   12.2176  -18.3353   26.1658 C   0  0  0  0  0  0  0  0  0  0  0  0
   12.7058  -19.6131   26.4996 O   0  0  0  0  0  0  0  0  0  0  0  0
   11.5501  -17.7637   27.0446 O   0  0  0  0  0  0  0  0  0  0  0  0
  1  2  1  0
  3  2  1  0
  4  5  1  0
  4  3  1  0
  5  1  1  0
  5  6  1  1
  6  7  2  0
  8  6  1  0
  9  8  1  0
  9 10  1  1
 11 10  1  0
 12 11  2  0
 13 14  1  0
 13 12  1  0
 14 19  2  0
 15 16  2  0
 15 14  1  0
 16 17  1  0
 17 18  2  0
 19 18  1  0
 19 11  1  0
 20  9  1  0
 20 21  2  0
 22 23  1  0
 23 25  1  0
 24 23  2  0
 25 26  1  0
 26 27  1  0
 28 27  1  0
 29 30  1  0
 29 28  1  1
 30 20  1  0
 31 29  1  0
 32 31  1  0
 33 31  2  0
M  END
$$$$
