PWR.pdb
     RDKit          3D

 33 35  0  0  1  0  0  0  0  0999 V2000
    7.5582  -15.1105   18.6265 N   0  0  0  0  0  0  0  0  0  0  0  0
    6.7529  -14.0194   18.1057 C   0  0  0  0  0  0  0  0  0  0  0  0
    7.3840  -12.7604   18.7199 C   0  0  0  0  0  0  0  0  0  0  0  0
    8.8482  -13.1120   18.5689 C   0  0  0  0  0  0  0  0  0  0  0  0
    8.8507  -14.5782   18.9304 C   0  0  1  0  0  0  0  0  0  0  0  0
    9.0839  -14.6541   20.4186 C   0  0  0  0  0  0  0  0  0  0  0  0
   10.1969  -14.2984   20.8862 O   0  0  0  0  0  0  0  0  0  0  0  0
    8.0463  -15.1240   21.2574 N   0  0  0  0  0  0  0  0  0  0  0  0
    8.1555  -15.1945   22.6953 C   0  0  1  0  0  0  0  0  0  0  0  0
    6.8227  -15.1787   23.3411 C   0  0  0  0  0  0  0  0  0  0  0  0
    7.0042  -14.8562   24.7906 C   0  0  0  0  0  0  0  0  0  0  0  0
    7.0413  -15.7211   25.8597 C   0  0  0  0  0  0  0  0  0  0  0  0
    7.2226  -15.0554   27.0160 N   0  0  0  0  0  0  0  0  0  0  0  0
    7.3062  -13.7439   26.7142 C   0  0  0  0  0  0  0  0  0  0  0  0
    7.4864  -12.6179   27.4802 C   0  0  0  0  0  0  0  0  0  0  0  0
    7.5358  -11.3650   26.9074 C   0  0  0  0  0  0  0  0  0  0  0  0
    7.4025  -11.2378   25.5449 C   0  0  0  0  0  0  0  0  0  0  0  0
    7.2220  -12.3533   24.7663 C   0  0  0  0  0  0  0  0  0  0  0  0
    7.1751  -13.5936   25.3518 C   0  0  0  0  0  0  0  0  0  0  0  0
    9.0434  -16.2951   23.1605 C   0  0  0  0  0  0  0  0  0  0  0  0
    8.8484  -17.4403   22.7151 O   0  0  0  0  0  0  0  0  0  0  0  0
   16.9130  -15.5251   22.5137 N   0  0  0  0  0  0  0  0  0  0  0  0
   16.9714  -16.2091   23.8019 C   0  0  0  0  0  0  0  0  0  0  0  0
   17.9815  -16.0302   24.5106 N   0  0  0  0  0  0  0  0  0  0  0  0
   15.8943  -17.0389   24.1886 N   0  0  0  0  0  0  0  0  0  0  0  0
   14.7659  -17.4160   23.4066 C   0  0  0  0  0  0  0  0  0  0  0  0
   13.5032  -17.7502   24.1033 C   0  0  0  0  0  0  0  0  0  0  0  0
   12.4149  -16.7247   23.8124 C   0  0  0  0  0  0  0  0  0  0  0  0
   11.0940  -17.1004   24.3847 C   0  0  2  0  0  0  0  0  0  0  0  0
   10.0879  -16.0720   24.0839 N   0  0  0  0  0  0  0  0  0  0  0  0
   11.1020  -17.3903   25.8333 C   0  0  0  0  0  0  0  0  0  0  0  0
   11.4915  -18.6720   26.2674 O   0  0  0  0  0  0  0  0  0  0  0  0
   10.7889  -16.5871   26.7285 O   0  0  0  0  0  0  0  0  0  0  0  0
  1  2  1  0
  3  2  1  0
  4  5  1  0
  4  3  1  0
  5  1  1  0
  5  6  1  1
  6  7  2  0
  8  6  1  0
  9  8  1  0
  9 10  1  1
 11 10  1  0
 12 11  2  0
 13 14  1  0
 13 12  1  0
 14 19  2  0
 15 16  2  0
 15 14  1  0
 16 17  1  0
 17 18  2  0
 19 18  1  0
 19 11  1  0
 20  9  1  0
 20 21  2  0
 22 23  1  0
 23 25  1  0
 24 23  2  0
 25 26  1  0
 26 27  1  0
 28 27  1  0
 29 30  1  0
 29 28  1  1
 30 20  1  0
 31 29  1  0
 32 31  1  0
 33 31  2  0
M  END
$$$$
