PWR.pdb
     RDKit          3D

 33 35  0  0  1  0  0  0  0  0999 V2000
    7.2958  -15.5631   20.2545 N   0  0  0  0  0  0  0  0  0  0  0  0
    6.3018  -14.5490   19.9486 C   0  0  0  0  0  0  0  0  0  0  0  0
    6.8614  -13.2693   20.5888 C   0  0  0  0  0  0  0  0  0  0  0  0
    8.3202  -13.4159   20.2136 C   0  0  0  0  0  0  0  0  0  0  0  0
    8.5468  -14.8927   20.4333 C   0  0  1  0  0  0  0  0  0  0  0  0
    8.9972  -15.0508   21.8640 C   0  0  0  0  0  0  0  0  0  0  0  0
   10.0526  -14.4799   22.2436 O   0  0  0  0  0  0  0  0  0  0  0  0
    8.2236  -15.8379   22.7488 N   0  0  0  0  0  0  0  0  0  0  0  0
    8.6440  -16.1759   24.0881 C   0  0  1  0  0  0  0  0  0  0  0  0
    7.4985  -16.1943   25.0268 C   0  0  0  0  0  0  0  0  0  0  0  0
    6.9507  -14.8060   25.1304 C   0  0  0  0  0  0  0  0  0  0  0  0
    5.8480  -14.2741   24.5030 C   0  0  0  0  0  0  0  0  0  0  0  0
    5.6694  -12.9846   24.8467 N   0  0  0  0  0  0  0  0  0  0  0  0
    6.6566  -12.6586   25.7053 C   0  0  0  0  0  0  0  0  0  0  0  0
    6.9723  -11.4986   26.3701 C   0  0  0  0  0  0  0  0  0  0  0  0
    8.0633  -11.4313   27.2100 C   0  0  0  0  0  0  0  0  0  0  0  0
    8.8511  -12.5441   27.3870 C   0  0  0  0  0  0  0  0  0  0  0  0
    8.5486  -13.7103   26.7298 C   0  0  0  0  0  0  0  0  0  0  0  0
    7.4590  -13.7610   25.8971 C   0  0  0  0  0  0  0  0  0  0  0  0
    9.4944  -17.3965   24.1428 C   0  0  0  0  0  0  0  0  0  0  0  0
    8.9501  -18.5039   23.9841 O   0  0  0  0  0  0  0  0  0  0  0  0
   14.9631  -18.5513   19.0476 N   0  0  0  0  0  0  0  0  0  0  0  0
   15.6928  -18.4296   20.3060 C   0  0  0  0  0  0  0  0  0  0  0  0
   16.8164  -18.9647   20.3814 N   0  0  0  0  0  0  0  0  0  0  0  0
   15.1022  -17.7203   21.3767 N   0  0  0  0  0  0  0  0  0  0  0  0
   13.7276  -17.3900   21.5447 C   0  0  0  0  0  0  0  0  0  0  0  0
   12.8416  -18.3709   22.2112 C   0  0  0  0  0  0  0  0  0  0  0  0
   13.0047  -18.3345   23.7253 C   0  0  0  0  0  0  0  0  0  0  0  0
   11.7225  -18.5330   24.4533 C   0  0  2  0  0  0  0  0  0  0  0  0
   10.8866  -17.3270   24.3681 N   0  0  0  0  0  0  0  0  0  0  0  0
   11.8644  -18.9501   25.8635 C   0  0  0  0  0  0  0  0  0  0  0  0
   12.5395  -20.1518   26.1516 O   0  0  0  0  0  0  0  0  0  0  0  0
   11.4323  -18.3226   26.8452 O   0  0  0  0  0  0  0  0  0  0  0  0
  1  2  1  0
  3  2  1  0
  4  5  1  0
  4  3  1  0
  5  1  1  0
  5  6  1  1
  6  7  2  0
  8  6  1  0
  9  8  1  0
  9 10  1  1
 11 10  1  0
 12 11  2  0
 13 14  1  0
 13 12  1  0
 14 19  2  0
 15 16  2  0
 15 14  1  0
 16 17  1  0
 17 18  2  0
 19 18  1  0
 19 11  1  0
 20  9  1  0
 20 21  2  0
 22 23  1  0
 23 25  1  0
 24 23  2  0
 25 26  1  0
 26 27  1  0
 28 27  1  0
 29 30  1  0
 29 28  1  1
 30 20  1  0
 31 29  1  0
 32 31  1  0
 33 31  2  0
M  END
$$$$
