PWR.pdb
     RDKit          3D

 33 35  0  0  1  0  0  0  0  0999 V2000
    8.3971  -15.5727   19.7172 N   0  0  0  0  0  0  0  0  0  0  0  0
    7.3201  -14.8136   19.1058 C   0  0  0  0  0  0  0  0  0  0  0  0
    7.4794  -13.4004   19.6873 C   0  0  0  0  0  0  0  0  0  0  0  0
    8.9858  -13.2692   19.6237 C   0  0  0  0  0  0  0  0  0  0  0  0
    9.4324  -14.6454   20.0561 C   0  0  1  0  0  0  0  0  0  0  0  0
    9.5866  -14.5964   21.5557 C   0  0  0  0  0  0  0  0  0  0  0  0
   10.2487  -13.6612   22.0761 O   0  0  0  0  0  0  0  0  0  0  0  0
    8.9836  -15.6033   22.3454 N   0  0  0  0  0  0  0  0  0  0  0  0
    8.9534  -15.5715   23.7885 C   0  0  1  0  0  0  0  0  0  0  0  0
    7.6094  -15.9117   24.3097 C   0  0  0  0  0  0  0  0  0  0  0  0
    6.8565  -14.6396   24.5403 C   0  0  0  0  0  0  0  0  0  0  0  0
    5.8131  -14.1206   23.8095 C   0  0  0  0  0  0  0  0  0  0  0  0
    5.3929  -12.9508   24.3274 N   0  0  0  0  0  0  0  0  0  0  0  0
    6.1597  -12.6919   25.4058 C   0  0  0  0  0  0  0  0  0  0  0  0
    6.1846  -11.6567   26.3085 C   0  0  0  0  0  0  0  0  0  0  0  0
    7.0932  -11.6347   27.3449 C   0  0  0  0  0  0  0  0  0  0  0  0
    7.9917  -12.6667   27.4795 C   0  0  0  0  0  0  0  0  0  0  0  0
    7.9792  -13.7080   26.5858 C   0  0  0  0  0  0  0  0  0  0  0  0
    7.0683  -13.7150   25.5593 C   0  0  0  0  0  0  0  0  0  0  0  0
   10.0613  -16.3451   24.4132 C   0  0  0  0  0  0  0  0  0  0  0  0
   10.3977  -17.4230   23.8908 O   0  0  0  0  0  0  0  0  0  0  0  0
   13.3485  -19.5019   30.8072 N   0  0  0  0  0  0  0  0  0  0  0  0
   11.9047  -19.6276   30.6329 C   0  0  0  0  0  0  0  0  0  0  0  0
   11.4304  -20.7746   30.5144 N   0  0  0  0  0  0  0  0  0  0  0  0
   11.1118  -18.4577   30.6036 N   0  0  0  0  0  0  0  0  0  0  0  0
   11.4445  -17.1988   30.0279 C   0  0  0  0  0  0  0  0  0  0  0  0
   12.2623  -17.1800   28.7942 C   0  0  0  0  0  0  0  0  0  0  0  0
   11.7139  -16.1906   27.7739 C   0  0  0  0  0  0  0  0  0  0  0  0
   11.5007  -16.7971   26.4322 C   0  0  2  0  0  0  0  0  0  0  0  0
   10.7304  -15.8895   25.5701 N   0  0  0  0  0  0  0  0  0  0  0  0
   10.8731  -18.1345   26.4453 C   0  0  0  0  0  0  0  0  0  0  0  0
   11.7014  -19.2733   26.4490 O   0  0  0  0  0  0  0  0  0  0  0  0
    9.6500  -18.3542   26.4536 O   0  0  0  0  0  0  0  0  0  0  0  0
  1  2  1  0
  3  2  1  0
  4  5  1  0
  4  3  1  0
  5  1  1  0
  5  6  1  1
  6  7  2  0
  8  6  1  0
  9  8  1  0
  9 10  1  1
 11 10  1  0
 12 11  2  0
 13 14  1  0
 13 12  1  0
 14 19  2  0
 15 16  2  0
 15 14  1  0
 16 17  1  0
 17 18  2  0
 19 18  1  0
 19 11  1  0
 20  9  1  0
 20 21  2  0
 22 23  1  0
 23 25  1  0
 24 23  2  0
 25 26  1  0
 26 27  1  0
 28 27  1  0
 29 30  1  0
 29 28  1  1
 30 20  1  0
 31 29  1  0
 32 31  1  0
 33 31  2  0
M  END
$$$$
