AIA.pdb
     RDKit          3D

 19 18  0  0  1  0  0  0  0  0999 V2000
    7.3494  -19.5262   18.6378 C   0  0  0  0  0  0  0  0  0  0  0  0
    7.6723  -18.1790   18.0317 C   0  0  2  0  0  0  0  0  0  0  0  0
    8.3624  -18.4233   16.7803 N   0  0  0  0  0  0  0  0  0  0  0  0
    8.4699  -17.3231   18.9394 C   0  0  0  0  0  0  0  0  0  0  0  0
    9.7212  -17.4009   18.8820 O   0  0  0  0  0  0  0  0  0  0  0  0
    7.0312  -12.2919   20.1146 C   0  0  0  0  0  0  0  0  0  0  0  0
    7.9387  -13.4780   19.8849 C   0  0  0  0  0  0  0  0  0  0  0  0
    8.0050  -14.3821   21.0839 C   0  0  2  0  0  0  0  0  0  0  0  0
    8.5236  -13.6627   22.3094 C   0  0  0  0  0  0  0  0  0  0  0  0
    8.7111  -15.6715   20.8332 C   0  0  2  0  0  0  0  0  0  0  0  0
    7.8947  -16.4216   19.8687 N   0  0  0  0  0  0  0  0  0  0  0  0
    8.8605  -16.4946   22.0631 C   0  0  0  0  0  0  0  0  0  0  0  0
    7.8745  -16.8993   22.7308 O   0  0  0  0  0  0  0  0  0  0  0  0
   11.5052  -18.6844   23.4966 C   0  0  0  0  0  0  0  0  0  0  0  0
   10.3317  -17.7614   23.6742 C   0  0  2  0  0  0  0  0  0  0  0  0
   10.1465  -16.8663   22.5458 N   0  0  0  0  0  0  0  0  0  0  0  0
   10.5963  -16.9475   24.8918 C   0  0  0  0  0  0  0  0  0  0  0  0
   10.6410  -17.6370   26.1088 O   0  0  0  0  0  0  0  0  0  0  0  0
   10.7724  -15.7059   24.8463 O   0  0  0  0  0  0  0  0  0  0  0  0
  2  1  1  1
  2  3  1  0
  4  5  2  0
  4  2  1  0
  6  7  1  0
  7  8  1  0
  8 10  1  0
  8  9  1  1
 10 11  1  6
 10 12  1  0
 11  4  1  0
 12 13  2  0
 15 14  1  6
 15 17  1  0
 16 12  1  0
 16 15  1  0
 17 18  1  0
 19 17  2  0
M  END
$$$$
