AIA.pdb
     RDKit          3D

 19 18  0  0  1  0  0  0  0  0999 V2000
    6.3638  -16.1715   20.9982 C   0  0  0  0  0  0  0  0  0  0  0  0
    6.9113  -14.7795   21.2200 C   0  0  2  0  0  0  0  0  0  0  0  0
    7.6214  -14.3983   20.0149 N   0  0  0  0  0  0  0  0  0  0  0  0
    7.7780  -14.6930   22.4175 C   0  0  0  0  0  0  0  0  0  0  0  0
    9.0191  -14.7939   22.2608 O   0  0  0  0  0  0  0  0  0  0  0  0
    5.9108  -11.6183   26.4162 C   0  0  0  0  0  0  0  0  0  0  0  0
    6.8603  -12.2474   25.4234 C   0  0  0  0  0  0  0  0  0  0  0  0
    7.3998  -13.5633   25.9098 C   0  0  2  0  0  0  0  0  0  0  0  0
    8.1503  -13.4212   27.2156 C   0  0  0  0  0  0  0  0  0  0  0  0
    8.1727  -14.3192   24.8826 C   0  0  2  0  0  0  0  0  0  0  0  0
    7.2798  -14.5025   23.7300 N   0  0  0  0  0  0  0  0  0  0  0  0
    8.6059  -15.6599   25.3594 C   0  0  0  0  0  0  0  0  0  0  0  0
    7.7901  -16.5450   25.7241 O   0  0  0  0  0  0  0  0  0  0  0  0
   11.8453  -17.6080   25.2648 C   0  0  0  0  0  0  0  0  0  0  0  0
   10.4427  -17.3470   25.7395 C   0  0  2  0  0  0  0  0  0  0  0  0
    9.9848  -16.0053   25.4249 N   0  0  0  0  0  0  0  0  0  0  0  0
   10.4429  -17.5178   27.2180 C   0  0  0  0  0  0  0  0  0  0  0  0
   10.7465  -18.7957   27.7010 O   0  0  0  0  0  0  0  0  0  0  0  0
   10.1862  -16.5744   28.0046 O   0  0  0  0  0  0  0  0  0  0  0  0
  2  1  1  6
  2  3  1  0
  4  5  2  0
  4  2  1  0
  6  7  1  0
  7  8  1  0
  8 10  1  0
  8  9  1  1
 10 11  1  6
 10 12  1  0
 11  4  1  0
 12 13  2  0
 15 14  1  1
 15 17  1  0
 16 12  1  0
 16 15  1  0
 17 18  1  0
 19 17  2  0
M  END
$$$$
