AIA.pdb
     RDKit          3D

 19 18  0  0  1  0  0  0  0  0999 V2000
    6.4256  -16.4904   21.1953 C   0  0  0  0  0  0  0  0  0  0  0  0
    6.7293  -15.0138   21.3141 C   0  0  2  0  0  0  0  0  0  0  0  0
    7.3146  -14.5914   20.0567 N   0  0  0  0  0  0  0  0  0  0  0  0
    7.6132  -14.7051   22.4612 C   0  0  0  0  0  0  0  0  0  0  0  0
    8.8487  -14.6275   22.2549 O   0  0  0  0  0  0  0  0  0  0  0  0
    5.7967  -11.4184   26.2207 C   0  0  0  0  0  0  0  0  0  0  0  0
    6.6896  -12.1582   25.2520 C   0  0  0  0  0  0  0  0  0  0  0  0
    7.3096  -13.3794   25.8713 C   0  0  2  0  0  0  0  0  0  0  0  0
    8.1317  -13.0402   27.0949 C   0  0  0  0  0  0  0  0  0  0  0  0
    8.0481  -14.2416   24.9043 C   0  0  2  0  0  0  0  0  0  0  0  0
    7.1374  -14.4929   23.7787 N   0  0  0  0  0  0  0  0  0  0  0  0
    8.4464  -15.5506   25.4878 C   0  0  0  0  0  0  0  0  0  0  0  0
    7.6129  -16.3559   25.9761 O   0  0  0  0  0  0  0  0  0  0  0  0
   11.5399  -17.7023   25.4082 C   0  0  0  0  0  0  0  0  0  0  0  0
   10.2296  -17.2606   25.9986 C   0  0  2  0  0  0  0  0  0  0  0  0
    9.8103  -15.9555   25.5195 N   0  0  0  0  0  0  0  0  0  0  0  0
   10.4162  -17.1913   27.4735 C   0  0  0  0  0  0  0  0  0  0  0  0
   10.6189  -18.4066   28.1372 O   0  0  0  0  0  0  0  0  0  0  0  0
   10.3955  -16.1068   28.1044 O   0  0  0  0  0  0  0  0  0  0  0  0
  2  1  1  6
  2  3  1  0
  4  5  2  0
  4  2  1  0
  6  7  1  0
  7  8  1  0
  8 10  1  0
  8  9  1  1
 10 11  1  6
 10 12  1  0
 11  4  1  0
 12 13  2  0
 15 14  1  6
 15 17  1  0
 16 12  1  0
 16 15  1  0
 17 18  1  0
 19 17  2  0
M  END
$$$$
