AIA.pdb
     RDKit          3D

 19 18  0  0  1  0  0  0  0  0999 V2000
    6.4358  -16.4349   21.1897 C   0  0  0  0  0  0  0  0  0  0  0  0
    6.7485  -14.9628   21.3366 C   0  0  2  0  0  0  0  0  0  0  0  0
    7.3374  -14.5202   20.0879 N   0  0  0  0  0  0  0  0  0  0  0  0
    7.6334  -14.6814   22.4900 C   0  0  0  0  0  0  0  0  0  0  0  0
    8.8673  -14.5848   22.2822 O   0  0  0  0  0  0  0  0  0  0  0  0
    5.8320  -11.5221   26.4192 C   0  0  0  0  0  0  0  0  0  0  0  0
    6.7793  -12.1777   25.4416 C   0  0  0  0  0  0  0  0  0  0  0  0
    7.3050  -13.4894   25.9539 C   0  0  2  0  0  0  0  0  0  0  0  0
    8.0556  -13.3299   27.2576 C   0  0  0  0  0  0  0  0  0  0  0  0
    8.0713  -14.2727   24.9423 C   0  0  2  0  0  0  0  0  0  0  0  0
    7.1603  -14.5155   23.8150 N   0  0  0  0  0  0  0  0  0  0  0  0
    8.5356  -15.5865   25.4627 C   0  0  0  0  0  0  0  0  0  0  0  0
    7.7477  -16.4420   25.9414 O   0  0  0  0  0  0  0  0  0  0  0  0
   11.7029  -17.6005   25.1342 C   0  0  0  0  0  0  0  0  0  0  0  0
   10.3894  -17.2670   25.7855 C   0  0  2  0  0  0  0  0  0  0  0  0
    9.9143  -15.9386   25.4413 N   0  0  0  0  0  0  0  0  0  0  0  0
   10.6025  -17.3321   27.2571 C   0  0  0  0  0  0  0  0  0  0  0  0
   10.4816  -16.1289   27.9615 O   0  0  0  0  0  0  0  0  0  0  0  0
   10.8769  -18.4030   27.8507 O   0  0  0  0  0  0  0  0  0  0  0  0
  2  1  1  6
  2  3  1  0
  4  5  2  0
  4  2  1  0
  6  7  1  0
  7  8  1  0
  8 10  1  0
  8  9  1  1
 10 11  1  6
 10 12  1  0
 11  4  1  0
 12 13  2  0
 15 14  1  6
 15 17  1  0
 16 12  1  0
 16 15  1  0
 17 18  1  0
 19 17  2  0
M  END
$$$$
