AIA.pdb
     RDKit          3D

 19 18  0  0  1  0  0  0  0  0999 V2000
    7.0722  -17.1863   21.5798 C   0  0  0  0  0  0  0  0  0  0  0  0
    7.3264  -15.6962   21.6188 C   0  0  2  0  0  0  0  0  0  0  0  0
    7.9736  -15.3363   20.3724 N   0  0  0  0  0  0  0  0  0  0  0  0
    8.1311  -15.2868   22.7924 C   0  0  0  0  0  0  0  0  0  0  0  0
    9.3763  -15.2046   22.6592 O   0  0  0  0  0  0  0  0  0  0  0  0
    5.9889  -11.8115   26.1765 C   0  0  0  0  0  0  0  0  0  0  0  0
    7.0403  -12.5305   25.3636 C   0  0  0  0  0  0  0  0  0  0  0  0
    7.5854  -13.7347   26.0792 C   0  0  2  0  0  0  0  0  0  0  0  0
    8.2913  -13.3604   27.3637 C   0  0  0  0  0  0  0  0  0  0  0  0
    8.4029  -14.6349   25.2160 C   0  0  2  0  0  0  0  0  0  0  0  0
    7.5692  -14.9832   24.0570 N   0  0  0  0  0  0  0  0  0  0  0  0
    8.7972  -15.8922   25.9061 C   0  0  0  0  0  0  0  0  0  0  0  0
    7.9554  -16.6912   26.3908 O   0  0  0  0  0  0  0  0  0  0  0  0
   11.9329  -17.9650   26.0685 C   0  0  0  0  0  0  0  0  0  0  0  0
   10.5878  -17.5348   26.5846 C   0  0  2  0  0  0  0  0  0  0  0  0
   10.1665  -16.2519   26.0504 N   0  0  0  0  0  0  0  0  0  0  0  0
   10.7032  -17.4220   28.0642 C   0  0  0  0  0  0  0  0  0  0  0  0
   10.5206  -16.1470   28.6114 O   0  0  0  0  0  0  0  0  0  0  0  0
   10.9511  -18.4098   28.7972 O   0  0  0  0  0  0  0  0  0  0  0  0
  2  1  1  6
  2  3  1  0
  4  5  2  0
  4  2  1  0
  6  7  1  0
  7  8  1  0
  8 10  1  0
  8  9  1  1
 10 11  1  6
 10 12  1  0
 11  4  1  0
 12 13  2  0
 15 14  1  6
 15 17  1  0
 16 12  1  0
 16 15  1  0
 17 18  1  0
 19 17  2  0
M  END
$$$$
