AIA.pdb
     RDKit          3D

 19 18  0  0  1  0  0  0  0  0999 V2000
    6.3499  -18.9804   24.5594 C   0  0  0  0  0  0  0  0  0  0  0  0
    6.1827  -17.6647   23.8330 C   0  0  2  0  0  0  0  0  0  0  0  0
    6.2631  -17.9431   22.4124 N   0  0  0  0  0  0  0  0  0  0  0  0
    7.1803  -16.6533   24.2506 C   0  0  0  0  0  0  0  0  0  0  0  0
    8.2608  -16.5873   23.6154 O   0  0  0  0  0  0  0  0  0  0  0  0
    5.5900  -11.9778   26.3197 C   0  0  0  0  0  0  0  0  0  0  0  0
    6.5176  -12.8986   25.5616 C   0  0  0  0  0  0  0  0  0  0  0  0
    7.3804  -13.7171   26.4810 C   0  0  2  0  0  0  0  0  0  0  0  0
    8.3477  -12.8586   27.2656 C   0  0  0  0  0  0  0  0  0  0  0  0
    8.0476  -14.8738   25.8170 C   0  0  2  0  0  0  0  0  0  0  0  0
    6.9791  -15.7567   25.3289 N   0  0  0  0  0  0  0  0  0  0  0  0
    8.9116  -15.6506   26.7457 C   0  0  0  0  0  0  0  0  0  0  0  0
    8.4501  -16.2857   27.7283 O   0  0  0  0  0  0  0  0  0  0  0  0
   12.5404  -16.7607   26.7253 C   0  0  0  0  0  0  0  0  0  0  0  0
   11.1779  -16.5880   27.3374 C   0  0  2  0  0  0  0  0  0  0  0  0
   10.3212  -15.7102   26.5600 N   0  0  0  0  0  0  0  0  0  0  0  0
   11.3772  -15.9903   28.6858 C   0  0  0  0  0  0  0  0  0  0  0  0
   10.9325  -14.6748   28.8599 O   0  0  0  0  0  0  0  0  0  0  0  0
   11.9147  -16.6203   29.6285 O   0  0  0  0  0  0  0  0  0  0  0  0
  2  1  1  1
  2  3  1  0
  4  5  2  0
  4  2  1  0
  6  7  1  0
  7  8  1  0
  8 10  1  0
  8  9  1  6
 10 11  1  1
 10 12  1  0
 11  4  1  0
 12 13  2  0
 15 14  1  6
 15 17  1  0
 16 12  1  0
 16 15  1  0
 17 18  1  0
 19 17  2  0
M  END
$$$$
