AIA.pdb
     RDKit          3D

 19 18  0  0  1  0  0  0  0  0999 V2000
    5.9299  -17.0061   21.4283 C   0  0  0  0  0  0  0  0  0  0  0  0
    6.2965  -15.5463   21.2823 C   0  0  2  0  0  0  0  0  0  0  0  0
    6.6591  -15.3294   19.8954 N   0  0  0  0  0  0  0  0  0  0  0  0
    7.3817  -15.1373   22.2030 C   0  0  0  0  0  0  0  0  0  0  0  0
    8.5622  -15.1619   21.7776 O   0  0  0  0  0  0  0  0  0  0  0  0
    6.3229  -12.4269   27.1323 C   0  0  0  0  0  0  0  0  0  0  0  0
    6.5906  -13.5081   26.1113 C   0  0  0  0  0  0  0  0  0  0  0  0
    7.7796  -13.1912   25.2480 C   0  0  2  0  0  0  0  0  0  0  0  0
    7.5651  -11.9417   24.4228 C   0  0  0  0  0  0  0  0  0  0  0  0
    8.2609  -14.3428   24.4319 C   0  0  2  0  0  0  0  0  0  0  0  0
    7.1571  -14.7199   23.5381 N   0  0  0  0  0  0  0  0  0  0  0  0
    8.6200  -15.5250   25.2600 C   0  0  0  0  0  0  0  0  0  0  0  0
    7.7554  -16.2542   25.8101 O   0  0  0  0  0  0  0  0  0  0  0  0
   11.6949  -17.6526   25.5188 C   0  0  0  0  0  0  0  0  0  0  0  0
   10.3708  -17.1661   26.0389 C   0  0  2  0  0  0  0  0  0  0  0  0
    9.9798  -15.8888   25.4694 N   0  0  0  0  0  0  0  0  0  0  0  0
   10.5108  -17.0099   27.5124 C   0  0  0  0  0  0  0  0  0  0  0  0
   10.8206  -18.1656   28.2383 O   0  0  0  0  0  0  0  0  0  0  0  0
   10.3617  -15.9056   28.0893 O   0  0  0  0  0  0  0  0  0  0  0  0
  2  1  1  6
  2  3  1  0
  4  5  2  0
  4  2  1  0
  6  7  1  0
  7  8  1  0
  8 10  1  0
  8  9  1  6
 10 11  1  6
 10 12  1  0
 11  4  1  0
 12 13  2  0
 15 14  1  6
 15 17  1  0
 16 12  1  0
 16 15  1  0
 17 18  1  0
 19 17  2  0
M  END
$$$$
