AIA.pdb
     RDKit          3D

 19 18  0  0  1  0  0  0  0  0999 V2000
    6.3848  -16.2538   21.0398 C   0  0  0  0  0  0  0  0  0  0  0  0
    6.8829  -14.8371   21.2176 C   0  0  2  0  0  0  0  0  0  0  0  0
    7.6103  -14.4815   20.0149 N   0  0  0  0  0  0  0  0  0  0  0  0
    7.7167  -14.6752   22.4305 C   0  0  0  0  0  0  0  0  0  0  0  0
    8.9625  -14.7703   22.3118 O   0  0  0  0  0  0  0  0  0  0  0  0
    5.7234  -11.4293   26.1961 C   0  0  0  0  0  0  0  0  0  0  0  0
    6.6797  -12.1222   25.2535 C   0  0  0  0  0  0  0  0  0  0  0  0
    7.2574  -13.3747   25.8509 C   0  0  2  0  0  0  0  0  0  0  0  0
    8.0134  -13.0966   27.1313 C   0  0  0  0  0  0  0  0  0  0  0  0
    8.0424  -14.2000   24.8883 C   0  0  2  0  0  0  0  0  0  0  0  0
    7.1820  -14.4187   23.7171 N   0  0  0  0  0  0  0  0  0  0  0  0
    8.4248  -15.5254   25.4446 C   0  0  0  0  0  0  0  0  0  0  0  0
    7.5746  -16.3802   25.8027 O   0  0  0  0  0  0  0  0  0  0  0  0
   11.5333  -17.6229   25.4585 C   0  0  0  0  0  0  0  0  0  0  0  0
   10.2061  -17.2122   26.0333 C   0  0  2  0  0  0  0  0  0  0  0  0
    9.7917  -15.8901   25.5984 N   0  0  0  0  0  0  0  0  0  0  0  0
   10.3552  -17.2035   27.5142 C   0  0  0  0  0  0  0  0  0  0  0  0
   10.5901  -18.4393   28.1274 O   0  0  0  0  0  0  0  0  0  0  0  0
   10.2769  -16.1507   28.1924 O   0  0  0  0  0  0  0  0  0  0  0  0
  2  1  1  6
  2  3  1  0
  4  5  2  0
  4  2  1  0
  6  7  1  0
  7  8  1  0
  8 10  1  0
  8  9  1  1
 10 11  1  6
 10 12  1  0
 11  4  1  0
 12 13  2  0
 15 14  1  6
 15 17  1  0
 16 12  1  0
 16 15  1  0
 17 18  1  0
 19 17  2  0
M  END
$$$$
