AIA.pdb
     RDKit          3D

 19 18  0  0  1  0  0  0  0  0999 V2000
    5.8106  -19.3685   24.7108 C   0  0  0  0  0  0  0  0  0  0  0  0
    5.2257  -18.1134   24.1031 C   0  0  2  0  0  0  0  0  0  0  0  0
    4.6874  -18.4727   22.8057 N   0  0  0  0  0  0  0  0  0  0  0  0
    6.2147  -17.0161   24.0014 C   0  0  0  0  0  0  0  0  0  0  0  0
    6.8351  -16.8742   22.9197 O   0  0  0  0  0  0  0  0  0  0  0  0
    5.6557  -12.4171   26.9045 C   0  0  0  0  0  0  0  0  0  0  0  0
    6.0108  -13.3258   25.7508 C   0  0  0  0  0  0  0  0  0  0  0  0
    7.2869  -14.0815   25.9959 C   0  0  2  0  0  0  0  0  0  0  0  0
    8.4590  -13.1549   26.2320 C   0  0  0  0  0  0  0  0  0  0  0  0
    7.5785  -15.1274   24.9737 C   0  0  2  0  0  0  0  0  0  0  0  0
    6.4971  -16.1187   25.0606 N   0  0  0  0  0  0  0  0  0  0  0  0
    8.8723  -15.8212   25.2129 C   0  0  0  0  0  0  0  0  0  0  0  0
    9.0791  -16.5382   26.2253 O   0  0  0  0  0  0  0  0  0  0  0  0
   11.8048  -16.5781   22.9318 C   0  0  0  0  0  0  0  0  0  0  0  0
   11.0269  -16.6737   24.2149 C   0  0  2  0  0  0  0  0  0  0  0  0
    9.9503  -15.7021   24.2916 N   0  0  0  0  0  0  0  0  0  0  0  0
   11.9832  -16.4163   25.3259 C   0  0  0  0  0  0  0  0  0  0  0  0
   11.7556  -15.2698   26.0955 O   0  0  0  0  0  0  0  0  0  0  0  0
   12.9490  -17.1784   25.5729 O   0  0  0  0  0  0  0  0  0  0  0  0
  2  1  1  6
  2  3  1  0
  4  5  2  0
  4  2  1  0
  6  7  1  0
  7  8  1  0
  8 10  1  0
  8  9  1  6
 10 11  1  1
 10 12  1  0
 11  4  1  0
 12 13  2  0
 15 14  1  6
 15 17  1  0
 16 12  1  0
 16 15  1  0
 17 18  1  0
 19 17  2  0
M  END
$$$$
