AIA.pdb
     RDKit          3D

 19 18  0  0  1  0  0  0  0  0999 V2000
    5.7838  -16.5632   21.3195 C   0  0  0  0  0  0  0  0  0  0  0  0
    6.1253  -15.0942   21.4289 C   0  0  2  0  0  0  0  0  0  0  0  0
    6.4889  -14.6361   20.1023 N   0  0  0  0  0  0  0  0  0  0  0  0
    7.1999  -14.8316   22.4131 C   0  0  0  0  0  0  0  0  0  0  0  0
    8.3793  -14.7389   21.9941 O   0  0  0  0  0  0  0  0  0  0  0  0
    5.8954  -11.7664   26.6305 C   0  0  0  0  0  0  0  0  0  0  0  0
    6.6639  -12.3687   25.4774 C   0  0  0  0  0  0  0  0  0  0  0  0
    7.4079  -13.6115   25.8790 C   0  0  2  0  0  0  0  0  0  0  0  0
    8.3717  -13.3537   27.0160 C   0  0  0  0  0  0  0  0  0  0  0  0
    8.0441  -14.3328   24.7393 C   0  0  2  0  0  0  0  0  0  0  0  0
    6.9665  -14.6795   23.8022 N   0  0  0  0  0  0  0  0  0  0  0  0
    8.7234  -15.5876   25.1594 C   0  0  0  0  0  0  0  0  0  0  0  0
    8.1208  -16.5169   25.7552 O   0  0  0  0  0  0  0  0  0  0  0  0
   12.0236  -17.2104   24.2851 C   0  0  0  0  0  0  0  0  0  0  0  0
   10.7541  -17.0826   25.0805 C   0  0  2  0  0  0  0  0  0  0  0  0
   10.1075  -15.7947   24.9013 N   0  0  0  0  0  0  0  0  0  0  0  0
   11.1195  -17.2387   26.5148 C   0  0  0  0  0  0  0  0  0  0  0  0
   11.6706  -18.4690   26.8906 O   0  0  0  0  0  0  0  0  0  0  0  0
   10.9486  -16.3238   27.3564 O   0  0  0  0  0  0  0  0  0  0  0  0
  2  1  1  6
  2  3  1  0
  4  5  2  0
  4  2  1  0
  6  7  1  0
  7  8  1  0
  8 10  1  0
  8  9  1  1
 10 11  1  6
 10 12  1  0
 11  4  1  0
 12 13  2  0
 15 14  1  6
 15 17  1  0
 16 12  1  0
 16 15  1  0
 17 18  1  0
 19 17  2  0
M  END
$$$$
