AIA.pdb
     RDKit          3D

 19 18  0  0  1  0  0  0  0  0999 V2000
    6.5081  -16.4862   21.2569 C   0  0  0  0  0  0  0  0  0  0  0  0
    6.7027  -14.9942   21.4071 C   0  0  2  0  0  0  0  0  0  0  0  0
    7.1987  -14.4942   20.1399 N   0  0  0  0  0  0  0  0  0  0  0  0
    7.6093  -14.6484   22.5256 C   0  0  0  0  0  0  0  0  0  0  0  0
    8.8296  -14.4955   22.2753 O   0  0  0  0  0  0  0  0  0  0  0  0
    5.9870  -11.3923   26.4034 C   0  0  0  0  0  0  0  0  0  0  0  0
    6.8946  -12.1036   25.4270 C   0  0  0  0  0  0  0  0  0  0  0  0
    7.4010  -13.4099   25.9716 C   0  0  2  0  0  0  0  0  0  0  0  0
    8.1966  -13.2239   27.2447 C   0  0  0  0  0  0  0  0  0  0  0  0
    8.1133  -14.2508   24.9670 C   0  0  2  0  0  0  0  0  0  0  0  0
    7.1716  -14.4811   23.8625 N   0  0  0  0  0  0  0  0  0  0  0  0
    8.5298  -15.5704   25.5124 C   0  0  0  0  0  0  0  0  0  0  0  0
    7.7083  -16.3988   25.9821 O   0  0  0  0  0  0  0  0  0  0  0  0
   11.6625  -17.6672   25.3582 C   0  0  0  0  0  0  0  0  0  0  0  0
   10.3335  -17.2805   25.9453 C   0  0  2  0  0  0  0  0  0  0  0  0
    9.8985  -15.9598   25.5267 N   0  0  0  0  0  0  0  0  0  0  0  0
   10.4916  -17.2851   27.4252 C   0  0  0  0  0  0  0  0  0  0  0  0
   10.7828  -18.5178   28.0204 O   0  0  0  0  0  0  0  0  0  0  0  0
   10.3730  -16.2456   28.1180 O   0  0  0  0  0  0  0  0  0  0  0  0
  2  1  1  6
  2  3  1  0
  4  5  2  0
  4  2  1  0
  6  7  1  0
  7  8  1  0
  8 10  1  0
  8  9  1  1
 10 11  1  6
 10 12  1  0
 11  4  1  0
 12 13  2  0
 15 14  1  6
 15 17  1  0
 16 12  1  0
 16 15  1  0
 17 18  1  0
 19 17  2  0
M  END
$$$$
