AIA.pdb
     RDKit          3D

 19 18  0  0  1  0  0  0  0  0999 V2000
    6.2903  -16.9498   22.0211 C   0  0  0  0  0  0  0  0  0  0  0  0
    6.8158  -15.5358   21.9161 C   0  0  2  0  0  0  0  0  0  0  0  0
    7.5586  -15.4428   20.6745 N   0  0  0  0  0  0  0  0  0  0  0  0
    7.6443  -15.1487   23.0807 C   0  0  0  0  0  0  0  0  0  0  0  0
    8.8929  -15.1955   22.9631 O   0  0  0  0  0  0  0  0  0  0  0  0
    5.6647  -11.1964   26.0830 C   0  0  0  0  0  0  0  0  0  0  0  0
    6.6591  -12.0579   25.3399 C   0  0  0  0  0  0  0  0  0  0  0  0
    7.1226  -13.2274   26.1625 C   0  0  2  0  0  0  0  0  0  0  0  0
    7.7779  -12.7892   27.4535 C   0  0  0  0  0  0  0  0  0  0  0  0
    7.9472  -14.2128   25.4055 C   0  0  2  0  0  0  0  0  0  0  0  0
    7.1015  -14.7286   24.3200 N   0  0  0  0  0  0  0  0  0  0  0  0
    8.3872  -15.3598   26.2440 C   0  0  0  0  0  0  0  0  0  0  0  0
    9.1888  -15.2284   27.2042 O   0  0  0  0  0  0  0  0  0  0  0  0
    7.5331  -19.0592   26.4816 C   0  0  0  0  0  0  0  0  0  0  0  0
    8.3505  -17.8287   26.7618 C   0  0  2  0  0  0  0  0  0  0  0  0
    7.9128  -16.6777   25.9922 N   0  0  0  0  0  0  0  0  0  0  0  0
    9.7569  -18.1448   26.3914 C   0  0  0  0  0  0  0  0  0  0  0  0
   10.3156  -17.3914   25.3527 O   0  0  0  0  0  0  0  0  0  0  0  0
   10.4211  -19.0378   26.9708 O   0  0  0  0  0  0  0  0  0  0  0  0
  2  1  1  1
  2  3  1  0
  4  5  2  0
  4  2  1  0
  6  7  1  0
  7  8  1  0
  8 10  1  0
  8  9  1  1
 10 11  1  6
 10 12  1  0
 11  4  1  0
 12 13  2  0
 15 14  1  6
 15 17  1  0
 16 12  1  0
 16 15  1  0
 17 18  1  0
 19 17  2  0
M  END
$$$$
