LYW.pdb
     RDKit          3D

 35 37  0  0  1  0  0  0  0  0999 V2000
    0.0381  -20.2296   21.2467 C   0  0  0  0  0  0  0  0  0  0  0  0
    1.5058  -20.1443   20.8945 C   0  0  1  0  0  0  0  0  0  0  0  0
    1.6771  -19.4796   19.5414 C   0  0  0  0  0  0  0  0  0  0  0  0
    2.3295  -19.4440   21.9446 C   0  0  0  0  0  0  0  0  0  0  0  0
    3.7432  -19.3186   21.4679 C   0  0  2  0  0  0  0  0  0  0  0  0
    4.2446  -20.5397   20.9272 N   0  0  0  0  0  0  0  0  0  0  0  0
    4.6636  -18.7941   22.4893 C   0  0  0  0  0  0  0  0  0  0  0  0
    4.3551  -17.7266   23.0749 O   0  0  0  0  0  0  0  0  0  0  0  0
    8.3383  -19.9565   30.0432 O   0  0  0  0  0  0  0  0  0  0  0  0
    8.1675  -19.9600   28.6559 C   0  0  0  0  0  0  0  0  0  0  0  0
    7.4144  -18.9881   28.0642 C   0  0  0  0  0  0  0  0  0  0  0  0
    7.2379  -18.9816   26.6850 C   0  0  0  0  0  0  0  0  0  0  0  0
    7.8034  -19.9356   25.8728 C   0  0  0  0  0  0  0  0  0  0  0  0
    7.6099  -19.9076   24.4334 C   0  0  0  0  0  0  0  0  0  0  0  0
    6.7724  -18.7967   23.8772 C   0  0  2  0  0  0  0  0  0  0  0  0
    5.8764  -19.4115   22.8584 N   0  0  0  0  0  0  0  0  0  0  0  0
    7.4836  -17.7282   23.1815 C   0  0  0  0  0  0  0  0  0  0  0  0
    6.9186  -17.0912   22.2196 O   0  0  0  0  0  0  0  0  0  0  0  0
    8.5698  -20.9198   26.5047 C   0  0  0  0  0  0  0  0  0  0  0  0
    8.7492  -20.9321   27.8739 C   0  0  0  0  0  0  0  0  0  0  0  0
    8.8084  -17.2707   23.4564 N   0  0  0  0  0  0  0  0  0  0  0  0
    9.0671  -16.2075   24.4058 C   0  0  1  0  0  0  0  0  0  0  0  0
    8.2170  -16.4800   25.6343 C   0  0  0  0  0  0  0  0  0  0  0  0
    7.2684  -15.3767   25.9035 C   0  0  0  0  0  0  0  0  0  0  0  0
    5.9045  -15.4365   26.0059 C   0  0  0  0  0  0  0  0  0  0  0  0
    5.4249  -14.2165   26.2542 N   0  0  0  0  0  0  0  0  0  0  0  0
    6.4517  -13.3540   26.3168 C   0  0  0  0  0  0  0  0  0  0  0  0
    6.4795  -11.9697   26.5514 C   0  0  0  0  0  0  0  0  0  0  0  0
    7.6678  -11.2776   26.5719 C   0  0  0  0  0  0  0  0  0  0  0  0
    8.8211  -11.9901   26.3548 C   0  0  0  0  0  0  0  0  0  0  0  0
    8.8001  -13.3463   26.1245 C   0  0  0  0  0  0  0  0  0  0  0  0
    7.5944  -14.0571   26.1023 C   0  0  0  0  0  0  0  0  0  0  0  0
   10.4684  -15.9754   24.7177 C   0  0  0  0  0  0  0  0  0  0  0  0
   11.2481  -16.8354   25.2016 O   0  0  0  0  0  0  0  0  0  0  0  0
   11.0379  -14.7336   24.4836 O   0  0  0  0  0  0  0  0  0  0  0  0
  2  3  1  6
  2  1  1  0
  4  2  1  0
  5  4  1  0
  5  6  1  1
  7  8  2  0
  7  5  1  0
  9 10  1  0
 10 11  2  0
 11 12  1  0
 13 12  2  0
 13 14  1  0
 15 14  1  6
 15 16  1  0
 16  7  1  0
 17 15  1  0
 17 18  2  0
 19 13  1  0
 20 10  1  0
 20 19  2  0
 21 17  1  0
 22 21  1  0
 22 23  1  1
 24 23  1  0
 24 25  2  0
 26 25  1  0
 27 26  1  0
 28 27  2  0
 29 28  1  0
 30 29  2  0
 30 31  1  0
 31 32  2  0
 32 27  1  0
 32 24  1  0
 33 22  1  0
 34 33  2  0
 35 33  1  0
M  END
$$$$
