LYW.pdb
     RDKit          3D

 35 37  0  0  1  0  0  0  0  0999 V2000
    7.2892  -20.3156   28.2796 C   0  0  0  0  0  0  0  0  0  0  0  0
    6.6415  -20.3824   26.9153 C   0  0  1  0  0  0  0  0  0  0  0  0
    5.2475  -19.7863   26.9728 C   0  0  0  0  0  0  0  0  0  0  0  0
    7.4619  -19.7257   25.8348 C   0  0  0  0  0  0  0  0  0  0  0  0
    6.7424  -19.8348   24.5265 C   0  0  2  0  0  0  0  0  0  0  0  0
    6.6237  -21.1852   24.0825 N   0  0  0  0  0  0  0  0  0  0  0  0
    7.3213  -18.9954   23.4655 C   0  0  0  0  0  0  0  0  0  0  0  0
    8.2175  -19.4912   22.7384 O   0  0  0  0  0  0  0  0  0  0  0  0
    8.5170  -12.1618   17.7956 O   0  0  0  0  0  0  0  0  0  0  0  0
    8.0834  -13.0493   18.7846 C   0  0  0  0  0  0  0  0  0  0  0  0
    8.0290  -12.6396   20.0851 C   0  0  0  0  0  0  0  0  0  0  0  0
    7.5991  -13.5139   21.0771 C   0  0  0  0  0  0  0  0  0  0  0  0
    7.2174  -14.8043   20.7967 C   0  0  0  0  0  0  0  0  0  0  0  0
    6.7670  -15.7000   21.8480 C   0  0  0  0  0  0  0  0  0  0  0  0
    7.6806  -16.8260   22.2253 C   0  0  2  0  0  0  0  0  0  0  0  0
    6.9368  -17.6636   23.2071 N   0  0  0  0  0  0  0  0  0  0  0  0
    8.9293  -16.4600   22.8874 C   0  0  0  0  0  0  0  0  0  0  0  0
    9.9781  -16.1949   22.1946 O   0  0  0  0  0  0  0  0  0  0  0  0
    7.2828  -15.1983   19.4566 C   0  0  0  0  0  0  0  0  0  0  0  0
    7.7088  -14.3350   18.4665 C   0  0  0  0  0  0  0  0  0  0  0  0
    9.1428  -16.3478   24.2951 N   0  0  0  0  0  0  0  0  0  0  0  0
   10.3961  -15.8683   24.8411 C   0  0  1  0  0  0  0  0  0  0  0  0
   10.0636  -14.8075   25.8757 C   0  0  0  0  0  0  0  0  0  0  0  0
    8.6317  -14.8307   26.2479 C   0  0  0  0  0  0  0  0  0  0  0  0
    7.8559  -15.9121   26.5688 C   0  0  0  0  0  0  0  0  0  0  0  0
    6.6156  -15.5026   26.8409 N   0  0  0  0  0  0  0  0  0  0  0  0
    6.5624  -14.1682   26.7041 C   0  0  0  0  0  0  0  0  0  0  0  0
    5.4999  -13.2659   26.8752 C   0  0  0  0  0  0  0  0  0  0  0  0
    5.6769  -11.9164   26.6780 C   0  0  0  0  0  0  0  0  0  0  0  0
    6.9278  -11.4875   26.3086 C   0  0  0  0  0  0  0  0  0  0  0  0
    7.9723  -12.3667   26.1396 C   0  0  0  0  0  0  0  0  0  0  0  0
    7.7995  -13.7415   26.3387 C   0  0  0  0  0  0  0  0  0  0  0  0
   11.2938  -16.8969   25.3422 C   0  0  0  0  0  0  0  0  0  0  0  0
   12.4796  -16.6973   25.7107 O   0  0  0  0  0  0  0  0  0  0  0  0
   10.8620  -18.2101   25.4422 O   0  0  0  0  0  0  0  0  0  0  0  0
  2  3  1  1
  2  1  1  0
  4  2  1  0
  5  4  1  0
  5  6  1  6
  7  8  2  0
  7  5  1  0
  9 10  1  0
 10 11  2  0
 11 12  1  0
 13 12  2  0
 13 14  1  0
 15 14  1  1
 15 16  1  0
 16  7  1  0
 17 15  1  0
 17 18  2  0
 19 13  1  0
 20 10  1  0
 20 19  2  0
 21 17  1  0
 22 21  1  0
 22 23  1  1
 24 23  1  0
 24 25  2  0
 26 25  1  0
 27 26  1  0
 28 27  2  0
 29 28  1  0
 30 29  2  0
 30 31  1  0
 31 32  2  0
 32 27  1  0
 32 24  1  0
 33 22  1  0
 34 33  2  0
 35 33  1  0
M  END
$$$$
