LYW.pdb
     RDKit          3D

 35 37  0  0  1  0  0  0  0  0999 V2000
    6.3065  -12.8549   20.0526 C   0  0  0  0  0  0  0  0  0  0  0  0
    7.4025  -13.5451   19.2730 C   0  0  1  0  0  0  0  0  0  0  0  0
    8.3556  -12.5157   18.6952 C   0  0  0  0  0  0  0  0  0  0  0  0
    8.1499  -14.5742   20.0818 C   0  0  0  0  0  0  0  0  0  0  0  0
    9.2879  -15.1140   19.2726 C   0  0  2  0  0  0  0  0  0  0  0  0
    8.8494  -15.9845   18.2311 N   0  0  0  0  0  0  0  0  0  0  0  0
   10.3275  -15.7679   20.0834 C   0  0  0  0  0  0  0  0  0  0  0  0
   10.3711  -17.0232   20.0933 O   0  0  0  0  0  0  0  0  0  0  0  0
   16.2147  -15.4368   16.6128 O   0  0  0  0  0  0  0  0  0  0  0  0
   15.5519  -15.3383   17.8395 C   0  0  0  0  0  0  0  0  0  0  0  0
   15.6238  -16.3678   18.7322 C   0  0  0  0  0  0  0  0  0  0  0  0
   14.9686  -16.2807   19.9555 C   0  0  0  0  0  0  0  0  0  0  0  0
   14.2337  -15.1752   20.3122 C   0  0  0  0  0  0  0  0  0  0  0  0
   13.5606  -15.1030   21.5975 C   0  0  0  0  0  0  0  0  0  0  0  0
   12.2470  -15.8128   21.7226 C   0  0  2  0  0  0  0  0  0  0  0  0
   11.2845  -15.0777   20.8553 N   0  0  0  0  0  0  0  0  0  0  0  0
   11.6410  -15.8357   23.0506 C   0  0  0  0  0  0  0  0  0  0  0  0
   11.7607  -14.8265   23.8364 O   0  0  0  0  0  0  0  0  0  0  0  0
   14.1763  -14.1352   19.3792 C   0  0  0  0  0  0  0  0  0  0  0  0
   14.8247  -14.2152   18.1626 C   0  0  0  0  0  0  0  0  0  0  0  0
   10.8809  -16.9030   23.6190 N   0  0  0  0  0  0  0  0  0  0  0  0
    9.8271  -16.6605   24.5830 C   0  0  1  0  0  0  0  0  0  0  0  0
    8.8826  -15.6386   23.9748 C   0  0  0  0  0  0  0  0  0  0  0  0
    7.8141  -15.2452   24.9197 C   0  0  0  0  0  0  0  0  0  0  0  0
    6.7717  -16.0013   25.3845 C   0  0  0  0  0  0  0  0  0  0  0  0
    6.0318  -15.2701   26.2199 N   0  0  0  0  0  0  0  0  0  0  0  0
    6.5705  -14.0440   26.3125 C   0  0  0  0  0  0  0  0  0  0  0  0
    6.1756  -12.9173   27.0520 C   0  0  0  0  0  0  0  0  0  0  0  0
    6.8913  -11.7444   26.9938 C   0  0  0  0  0  0  0  0  0  0  0  0
    8.0023  -11.7180   26.1877 C   0  0  0  0  0  0  0  0  0  0  0  0
    8.3940  -12.8186   25.4610 C   0  0  0  0  0  0  0  0  0  0  0  0
    7.6705  -14.0156   25.5154 C   0  0  0  0  0  0  0  0  0  0  0  0
    9.1472  -17.8471   25.0775 C   0  0  0  0  0  0  0  0  0  0  0  0
    8.8872  -18.8656   24.3870 O   0  0  0  0  0  0  0  0  0  0  0  0
    8.7346  -17.9138   26.3991 O   0  0  0  0  0  0  0  0  0  0  0  0
  2  3  1  1
  2  1  1  0
  4  2  1  0
  5  4  1  0
  5  6  1  6
  7  8  2  0
  7  5  1  0
  9 10  1  0
 10 11  2  0
 11 12  1  0
 13 12  2  0
 13 14  1  0
 15 14  1  1
 15 16  1  0
 16  7  1  0
 17 15  1  0
 17 18  2  0
 19 13  1  0
 20 10  1  0
 20 19  2  0
 21 17  1  0
 22 21  1  0
 22 23  1  6
 24 23  1  0
 24 25  2  0
 26 25  1  0
 27 26  1  0
 28 27  2  0
 29 28  1  0
 30 29  2  0
 30 31  1  0
 31 32  2  0
 32 27  1  0
 32 24  1  0
 33 22  1  0
 34 33  2  0
 35 33  1  0
M  END
$$$$
