LYW.pdb
     RDKit          3D

 35 37  0  0  1  0  0  0  0  0999 V2000
    7.4199  -11.8560   19.5773 C   0  0  0  0  0  0  0  0  0  0  0  0
    8.0950  -13.1538   19.1958 C   0  0  1  0  0  0  0  0  0  0  0  0
    9.5998  -13.0151   19.3308 C   0  0  0  0  0  0  0  0  0  0  0  0
    7.5926  -14.3385   19.9806 C   0  0  0  0  0  0  0  0  0  0  0  0
    8.4514  -15.5298   19.6897 C   0  0  2  0  0  0  0  0  0  0  0  0
    8.0661  -16.1973   18.4893 N   0  0  0  0  0  0  0  0  0  0  0  0
    8.5281  -16.4858   20.8058 C   0  0  0  0  0  0  0  0  0  0  0  0
    7.5065  -17.1640   21.0783 O   0  0  0  0  0  0  0  0  0  0  0  0
   11.4283  -23.1128   25.8175 O   0  0  0  0  0  0  0  0  0  0  0  0
   11.2072  -22.0552   24.9308 C   0  0  0  0  0  0  0  0  0  0  0  0
   12.1434  -21.0705   24.8048 C   0  0  0  0  0  0  0  0  0  0  0  0
   11.9341  -20.0138   23.9258 C   0  0  0  0  0  0  0  0  0  0  0  0
   10.7968  -19.9165   23.1598 C   0  0  0  0  0  0  0  0  0  0  0  0
   10.6002  -18.8061   22.2441 C   0  0  0  0  0  0  0  0  0  0  0  0
    9.6846  -17.7066   22.6888 C   0  0  2  0  0  0  0  0  0  0  0  0
    9.6771  -16.6943   21.5960 N   0  0  0  0  0  0  0  0  0  0  0  0
   10.0734  -16.9806   23.8943 C   0  0  0  0  0  0  0  0  0  0  0  0
   11.0770  -16.1790   23.8743 O   0  0  0  0  0  0  0  0  0  0  0  0
    9.8539  -20.9384   23.3084 C   0  0  0  0  0  0  0  0  0  0  0  0
   10.0556  -21.9907   24.1796 C   0  0  0  0  0  0  0  0  0  0  0  0
    9.4356  -17.0504   25.1704 N   0  0  0  0  0  0  0  0  0  0  0  0
   10.0427  -16.4867   26.3588 C   0  0  1  0  0  0  0  0  0  0  0  0
    8.9200  -16.1408   27.3210 C   0  0  0  0  0  0  0  0  0  0  0  0
    7.8483  -15.3632   26.6604 C   0  0  0  0  0  0  0  0  0  0  0  0
    6.7356  -15.8310   26.0144 C   0  0  0  0  0  0  0  0  0  0  0  0
    6.0230  -14.8002   25.5563 N   0  0  0  0  0  0  0  0  0  0  0  0
    6.6492  -13.6607   25.8904 C   0  0  0  0  0  0  0  0  0  0  0  0
    6.3137  -12.3190   25.6462 C   0  0  0  0  0  0  0  0  0  0  0  0
    7.1174  -11.2951   26.0900 C   0  0  0  0  0  0  0  0  0  0  0  0
    8.2559  -11.6344   26.7782 C   0  0  0  0  0  0  0  0  0  0  0  0
    8.5896  -12.9469   27.0205 C   0  0  0  0  0  0  0  0  0  0  0  0
    7.7764  -13.9942   26.5718 C   0  0  0  0  0  0  0  0  0  0  0  0
   11.0915  -17.2905   26.9661 C   0  0  0  0  0  0  0  0  0  0  0  0
   11.1693  -18.5436   26.8921 O   0  0  0  0  0  0  0  0  0  0  0  0
   12.1047  -16.6820   27.6902 O   0  0  0  0  0  0  0  0  0  0  0  0
  2  3  1  1
  2  1  1  0
  4  2  1  0
  5  4  1  0
  5  6  1  6
  7  8  2  0
  7  5  1  0
  9 10  1  0
 10 11  2  0
 11 12  1  0
 13 12  2  0
 13 14  1  0
 15 14  1  6
 15 16  1  0
 16  7  1  0
 17 15  1  0
 17 18  2  0
 19 13  1  0
 20 10  1  0
 20 19  2  0
 21 17  1  0
 22 21  1  0
 22 23  1  1
 24 23  1  0
 24 25  2  0
 26 25  1  0
 27 26  1  0
 28 27  2  0
 29 28  1  0
 30 29  2  0
 30 31  1  0
 31 32  2  0
 32 27  1  0
 32 24  1  0
 33 22  1  0
 34 33  2  0
 35 33  1  0
M  END
$$$$
