LYW.pdb
     RDKit          3D

 35 37  0  0  1  0  0  0  0  0999 V2000
    6.2546  -23.0234   21.7236 C   0  0  0  0  0  0  0  0  0  0  0  0
    7.7647  -23.0781   21.6778 C   0  0  1  0  0  0  0  0  0  0  0  0
    8.2158  -24.2383   20.8105 C   0  0  0  0  0  0  0  0  0  0  0  0
    8.3927  -21.7877   21.2171 C   0  0  0  0  0  0  0  0  0  0  0  0
    8.1066  -20.7095   22.2156 C   0  0  2  0  0  0  0  0  0  0  0  0
    6.7299  -20.6636   22.5864 N   0  0  0  0  0  0  0  0  0  0  0  0
    8.5678  -19.3781   21.7913 C   0  0  0  0  0  0  0  0  0  0  0  0
    9.5432  -19.3107   21.0027 O   0  0  0  0  0  0  0  0  0  0  0  0
    8.3598  -11.0131   18.9501 O   0  0  0  0  0  0  0  0  0  0  0  0
    8.1017  -12.2434   19.5612 C   0  0  0  0  0  0  0  0  0  0  0  0
    8.0937  -13.3833   18.8111 C   0  0  0  0  0  0  0  0  0  0  0  0
    7.8383  -14.6126   19.4084 C   0  0  0  0  0  0  0  0  0  0  0  0
    7.5875  -14.7314   20.7547 C   0  0  0  0  0  0  0  0  0  0  0  0
    7.3275  -16.0264   21.3593 C   0  0  0  0  0  0  0  0  0  0  0  0
    8.5165  -16.8545   21.7405 C   0  0  2  0  0  0  0  0  0  0  0  0
    7.9864  -18.1643   22.2120 N   0  0  0  0  0  0  0  0  0  0  0  0
    9.3417  -16.3481   22.8333 C   0  0  0  0  0  0  0  0  0  0  0  0
   10.1214  -15.3444   22.6469 O   0  0  0  0  0  0  0  0  0  0  0  0
    7.6014  -13.5481   21.4997 C   0  0  0  0  0  0  0  0  0  0  0  0
    7.8544  -12.3240   20.9129 C   0  0  0  0  0  0  0  0  0  0  0  0
    9.3900  -16.8568   24.1670 N   0  0  0  0  0  0  0  0  0  0  0  0
   10.2526  -16.2749   25.1750 C   0  0  1  0  0  0  0  0  0  0  0  0
    9.4920  -16.2950   26.4892 C   0  0  0  0  0  0  0  0  0  0  0  0
    8.1150  -15.7754   26.3367 C   0  0  0  0  0  0  0  0  0  0  0  0
    6.9687  -16.4751   26.0706 C   0  0  0  0  0  0  0  0  0  0  0  0
    5.9378  -15.6302   26.0101 N   0  0  0  0  0  0  0  0  0  0  0  0
    6.3873  -14.3849   26.2322 C   0  0  0  0  0  0  0  0  0  0  0  0
    5.7109  -13.1549   26.2746 C   0  0  0  0  0  0  0  0  0  0  0  0
    6.3858  -11.9827   26.5238 C   0  0  0  0  0  0  0  0  0  0  0  0
    7.7411  -12.0618   26.7284 C   0  0  0  0  0  0  0  0  0  0  0  0
    8.4090  -13.2638   26.6881 C   0  0  0  0  0  0  0  0  0  0  0  0
    7.7286  -14.4607   26.4351 C   0  0  0  0  0  0  0  0  0  0  0  0
   11.5816  -16.8574   25.2722 C   0  0  0  0  0  0  0  0  0  0  0  0
   12.4675  -16.4922   26.0868 O   0  0  0  0  0  0  0  0  0  0  0  0
   11.9511  -17.8942   24.4299 O   0  0  0  0  0  0  0  0  0  0  0  0
  2  3  1  6
  2  1  1  0
  4  2  1  0
  5  4  1  0
  5  6  1  6
  7  8  2  0
  7  5  1  0
  9 10  1  0
 10 11  2  0
 11 12  1  0
 13 12  2  0
 13 14  1  0
 15 14  1  1
 15 16  1  0
 16  7  1  0
 17 15  1  0
 17 18  2  0
 19 13  1  0
 20 10  1  0
 20 19  2  0
 21 17  1  0
 22 21  1  0
 22 23  1  1
 24 23  1  0
 24 25  2  0
 26 25  1  0
 27 26  1  0
 28 27  2  0
 29 28  1  0
 30 29  2  0
 30 31  1  0
 31 32  2  0
 32 27  1  0
 32 24  1  0
 33 22  1  0
 34 33  2  0
 35 33  1  0
M  END
$$$$
