LYW.pdb
     RDKit          3D

 35 37  0  0  1  0  0  0  0  0999 V2000
    8.5173  -19.7503   17.1014 C   0  0  0  0  0  0  0  0  0  0  0  0
    8.7580  -19.7566   18.5938 C   0  0  1  0  0  0  0  0  0  0  0  0
    9.7154  -20.8751   18.9603 C   0  0  0  0  0  0  0  0  0  0  0  0
    9.2505  -18.4338   19.1223 C   0  0  0  0  0  0  0  0  0  0  0  0
    9.3947  -18.5137   20.6103 C   0  0  2  0  0  0  0  0  0  0  0  0
    8.2080  -18.9845   21.2467 N   0  0  0  0  0  0  0  0  0  0  0  0
    9.8413  -17.2540   21.2261 C   0  0  0  0  0  0  0  0  0  0  0  0
   10.9425  -16.7722   20.8612 O   0  0  0  0  0  0  0  0  0  0  0  0
    7.4284  -13.0974   17.0363 O   0  0  0  0  0  0  0  0  0  0  0  0
    7.6856  -13.3841   18.3800 C   0  0  0  0  0  0  0  0  0  0  0  0
    8.9533  -13.2575   18.8685 C   0  0  0  0  0  0  0  0  0  0  0  0
    9.2206  -13.5398   20.2034 C   0  0  0  0  0  0  0  0  0  0  0  0
    8.2385  -13.9510   21.0728 C   0  0  0  0  0  0  0  0  0  0  0  0
    8.5387  -14.2364   22.4652 C   0  0  0  0  0  0  0  0  0  0  0  0
    9.6095  -15.2476   22.7407 C   0  0  2  0  0  0  0  0  0  0  0  0
    9.1136  -16.5458   22.2044 N   0  0  0  0  0  0  0  0  0  0  0  0
    9.9262  -15.4974   24.1438 C   0  0  0  0  0  0  0  0  0  0  0  0
   10.5752  -14.6252   24.8282 O   0  0  0  0  0  0  0  0  0  0  0  0
    6.9487  -14.0726   20.5465 C   0  0  0  0  0  0  0  0  0  0  0  0
    6.6764  -13.7937   19.2217 C   0  0  0  0  0  0  0  0  0  0  0  0
    9.5794  -16.6591   24.8989 N   0  0  0  0  0  0  0  0  0  0  0  0
    9.9534  -16.8042   26.2910 C   0  0  1  0  0  0  0  0  0  0  0  0
    8.6702  -16.8969   27.0979 C   0  0  0  0  0  0  0  0  0  0  0  0
    7.6475  -15.9413   26.6179 C   0  0  0  0  0  0  0  0  0  0  0  0
    6.4813  -16.2098   25.9529 C   0  0  0  0  0  0  0  0  0  0  0  0
    5.8431  -15.0662   25.6982 N   0  0  0  0  0  0  0  0  0  0  0  0
    6.5708  -14.0485   26.1850 C   0  0  0  0  0  0  0  0  0  0  0  0
    6.3403  -12.6633   26.1753 C   0  0  0  0  0  0  0  0  0  0  0  0
    7.2386  -11.7910   26.7441 C   0  0  0  0  0  0  0  0  0  0  0  0
    8.3650  -12.3251   27.3193 C   0  0  0  0  0  0  0  0  0  0  0  0
    8.5961  -13.6812   27.3318 C   0  0  0  0  0  0  0  0  0  0  0  0
    7.6863  -14.5750   26.7548 C   0  0  0  0  0  0  0  0  0  0  0  0
   10.8903  -17.8789   26.5777 C   0  0  0  0  0  0  0  0  0  0  0  0
   11.2920  -18.7241   25.7375 O   0  0  0  0  0  0  0  0  0  0  0  0
   11.4102  -18.0279   27.8539 O   0  0  0  0  0  0  0  0  0  0  0  0
  2  3  1  6
  2  1  1  0
  4  2  1  0
  5  4  1  0
  5  6  1  1
  7  8  2  0
  7  5  1  0
  9 10  1  0
 10 11  2  0
 11 12  1  0
 13 12  2  0
 13 14  1  0
 15 14  1  1
 15 16  1  0
 16  7  1  0
 17 15  1  0
 17 18  2  0
 19 13  1  0
 20 10  1  0
 20 19  2  0
 21 17  1  0
 22 21  1  0
 22 23  1  1
 24 23  1  0
 24 25  2  0
 26 25  1  0
 27 26  1  0
 28 27  2  0
 29 28  1  0
 30 29  2  0
 30 31  1  0
 31 32  2  0
 32 27  1  0
 32 24  1  0
 33 22  1  0
 34 33  2  0
 35 33  1  0
M  END
$$$$
