LYW.pdb
     RDKit          3D

 35 37  0  0  1  0  0  0  0  0999 V2000
    8.0510  -13.2326   18.4644 C   0  0  0  0  0  0  0  0  0  0  0  0
    7.9265  -14.2704   19.5566 C   0  0  1  0  0  0  0  0  0  0  0  0
    6.5373  -14.2202   20.1644 C   0  0  0  0  0  0  0  0  0  0  0  0
    8.2590  -15.6653   19.0922 C   0  0  0  0  0  0  0  0  0  0  0  0
    8.2793  -16.5910   20.2686 C   0  0  2  0  0  0  0  0  0  0  0  0
    7.2125  -16.3346   21.1803 N   0  0  0  0  0  0  0  0  0  0  0  0
    9.5676  -16.6101   20.9794 C   0  0  0  0  0  0  0  0  0  0  0  0
   10.5491  -17.1547   20.4156 O   0  0  0  0  0  0  0  0  0  0  0  0
   15.2468  -13.7851   18.2447 O   0  0  0  0  0  0  0  0  0  0  0  0
   14.3520  -13.9626   19.3037 C   0  0  0  0  0  0  0  0  0  0  0  0
   13.0313  -13.6663   19.1309 C   0  0  0  0  0  0  0  0  0  0  0  0
   12.1323  -13.8392   20.1774 C   0  0  0  0  0  0  0  0  0  0  0  0
   12.5268  -14.3071   21.4082 C   0  0  0  0  0  0  0  0  0  0  0  0
   11.5700  -14.4846   22.4867 C   0  0  0  0  0  0  0  0  0  0  0  0
   11.1526  -15.8876   22.8068 C   0  0  2  0  0  0  0  0  0  0  0  0
    9.7777  -16.0554   22.2587 N   0  0  0  0  0  0  0  0  0  0  0  0
   11.0564  -16.2334   24.2219 C   0  0  0  0  0  0  0  0  0  0  0  0
   12.0705  -16.0862   24.9967 O   0  0  0  0  0  0  0  0  0  0  0  0
   13.8853  -14.6027   21.5583 C   0  0  0  0  0  0  0  0  0  0  0  0
   14.7835  -14.4334   20.5231 C   0  0  0  0  0  0  0  0  0  0  0  0
    9.9040  -16.7414   24.8956 N   0  0  0  0  0  0  0  0  0  0  0  0
    9.9478  -17.1409   26.2874 C   0  0  1  0  0  0  0  0  0  0  0  0
    8.5293  -17.0686   26.8248 C   0  0  0  0  0  0  0  0  0  0  0  0
    7.8030  -15.8886   26.3056 C   0  0  0  0  0  0  0  0  0  0  0  0
    6.8205  -15.8484   25.3530 C   0  0  0  0  0  0  0  0  0  0  0  0
    6.4302  -14.5855   25.1719 N   0  0  0  0  0  0  0  0  0  0  0  0
    7.1404  -13.7931   25.9905 C   0  0  0  0  0  0  0  0  0  0  0  0
    7.1104  -12.4022   26.1815 C   0  0  0  0  0  0  0  0  0  0  0  0
    7.9430  -11.7931   27.0910 C   0  0  0  0  0  0  0  0  0  0  0  0
    8.8014  -12.5949   27.8019 C   0  0  0  0  0  0  0  0  0  0  0  0
    8.8353  -13.9580   27.6190 C   0  0  0  0  0  0  0  0  0  0  0  0
    7.9907  -14.5847   26.6952 C   0  0  0  0  0  0  0  0  0  0  0  0
   10.5973  -18.4149   26.5519 C   0  0  0  0  0  0  0  0  0  0  0  0
   10.7610  -19.3272   25.7018 O   0  0  0  0  0  0  0  0  0  0  0  0
   11.0911  -18.6960   27.8161 O   0  0  0  0  0  0  0  0  0  0  0  0
  2  3  1  6
  2  1  1  0
  4  2  1  0
  5  4  1  0
  5  6  1  1
  7  8  2  0
  7  5  1  0
  9 10  1  0
 10 11  2  0
 11 12  1  0
 13 12  2  0
 13 14  1  0
 15 14  1  1
 15 16  1  0
 16  7  1  0
 17 15  1  0
 17 18  2  0
 19 13  1  0
 20 10  1  0
 20 19  2  0
 21 17  1  0
 22 21  1  0
 22 23  1  6
 24 23  1  0
 24 25  2  0
 26 25  1  0
 27 26  1  0
 28 27  2  0
 29 28  1  0
 30 29  2  0
 30 31  1  0
 31 32  2  0
 32 27  1  0
 32 24  1  0
 33 22  1  0
 34 33  2  0
 35 33  1  0
M  END
$$$$
