LYW.pdb
     RDKit          3D

 35 37  0  0  1  0  0  0  0  0999 V2000
    6.4367  -12.7199   21.2710 C   0  0  0  0  0  0  0  0  0  0  0  0
    7.0924  -13.8819   20.5601 C   0  0  1  0  0  0  0  0  0  0  0  0
    7.8371  -13.3869   19.3344 C   0  0  0  0  0  0  0  0  0  0  0  0
    8.0021  -14.6877   21.4517 C   0  0  0  0  0  0  0  0  0  0  0  0
    8.6150  -15.8022   20.6621 C   0  0  2  0  0  0  0  0  0  0  0  0
    7.6501  -16.7646   20.2410 N   0  0  0  0  0  0  0  0  0  0  0  0
    9.7332  -16.4653   21.3517 C   0  0  0  0  0  0  0  0  0  0  0  0
    9.6301  -17.6906   21.6081 O   0  0  0  0  0  0  0  0  0  0  0  0
   14.6148  -15.1661   16.4720 O   0  0  0  0  0  0  0  0  0  0  0  0
   14.2909  -15.3388   17.8207 C   0  0  0  0  0  0  0  0  0  0  0  0
   14.2518  -14.2569   18.6513 C   0  0  0  0  0  0  0  0  0  0  0  0
   13.9308  -14.4169   19.9947 C   0  0  0  0  0  0  0  0  0  0  0  0
   13.6442  -15.6482   20.5345 C   0  0  0  0  0  0  0  0  0  0  0  0
   13.3066  -15.7923   21.9400 C   0  0  0  0  0  0  0  0  0  0  0  0
   12.0812  -16.5883   22.2711 C   0  0  2  0  0  0  0  0  0  0  0  0
   10.9204  -15.8155   21.7474 N   0  0  0  0  0  0  0  0  0  0  0  0
   11.8041  -16.8014   23.6886 C   0  0  0  0  0  0  0  0  0  0  0  0
   12.6330  -17.4544   24.4212 O   0  0  0  0  0  0  0  0  0  0  0  0
   13.6916  -16.7396   19.6617 C   0  0  0  0  0  0  0  0  0  0  0  0
   14.0097  -16.5877   18.3265 C   0  0  0  0  0  0  0  0  0  0  0  0
   10.6591  -16.3423   24.4084 N   0  0  0  0  0  0  0  0  0  0  0  0
   10.5502  -16.4924   25.8452 C   0  0  1  0  0  0  0  0  0  0  0  0
    9.9906  -15.1924   26.3957 C   0  0  0  0  0  0  0  0  0  0  0  0
    8.5257  -15.1001   26.2081 C   0  0  0  0  0  0  0  0  0  0  0  0
    7.6450  -16.1020   25.8999 C   0  0  0  0  0  0  0  0  0  0  0  0
    6.4121  -15.5986   25.8183 N   0  0  0  0  0  0  0  0  0  0  0  0
    6.4671  -14.2807   26.0680 C   0  0  0  0  0  0  0  0  0  0  0  0
    5.4561  -13.3066   26.1043 C   0  0  0  0  0  0  0  0  0  0  0  0
    5.7472  -11.9926   26.3869 C   0  0  0  0  0  0  0  0  0  0  0  0
    7.0596  -11.6715   26.6310 C   0  0  0  0  0  0  0  0  0  0  0  0
    8.0542  -12.6214   26.5969 C   0  0  0  0  0  0  0  0  0  0  0  0
    7.7652  -13.9607   26.3100 C   0  0  0  0  0  0  0  0  0  0  0  0
    9.8226  -17.6675   26.2975 C   0  0  0  0  0  0  0  0  0  0  0  0
    9.1518  -18.4271   25.5527 O   0  0  0  0  0  0  0  0  0  0  0  0
    9.8362  -18.0224   27.6372 O   0  0  0  0  0  0  0  0  0  0  0  0
  2  3  1  6
  2  1  1  0
  4  2  1  0
  5  4  1  0
  5  6  1  1
  7  8  2  0
  7  5  1  0
  9 10  1  0
 10 11  2  0
 11 12  1  0
 13 12  2  0
 13 14  1  0
 15 14  1  1
 15 16  1  0
 16  7  1  0
 17 15  1  0
 17 18  2  0
 19 13  1  0
 20 10  1  0
 20 19  2  0
 21 17  1  0
 22 21  1  0
 22 23  1  6
 24 23  1  0
 24 25  2  0
 26 25  1  0
 27 26  1  0
 28 27  2  0
 29 28  1  0
 30 29  2  0
 30 31  1  0
 31 32  2  0
 32 27  1  0
 32 24  1  0
 33 22  1  0
 34 33  2  0
 35 33  1  0
M  END
$$$$
