LYW.pdb
     RDKit          3D

 35 37  0  0  1  0  0  0  0  0999 V2000
    6.5870  -12.5635   19.0192 C   0  0  0  0  0  0  0  0  0  0  0  0
    7.8691  -13.3459   19.1917 C   0  0  1  0  0  0  0  0  0  0  0  0
    9.0249  -12.3976   19.4501 C   0  0  0  0  0  0  0  0  0  0  0  0
    7.7846  -14.3955   20.2701 C   0  0  0  0  0  0  0  0  0  0  0  0
    9.1652  -14.8324   20.6500 C   0  0  2  0  0  0  0  0  0  0  0  0
    9.9322  -15.2512   19.5226 N   0  0  0  0  0  0  0  0  0  0  0  0
    9.1874  -15.8657   21.6975 C   0  0  0  0  0  0  0  0  0  0  0  0
    8.1368  -16.0666   22.3561 O   0  0  0  0  0  0  0  0  0  0  0  0
   10.4564  -21.7113   17.9590 O   0  0  0  0  0  0  0  0  0  0  0  0
   10.6479  -20.9859   19.1384 C   0  0  0  0  0  0  0  0  0  0  0  0
   11.5839  -19.9938   19.1785 C   0  0  0  0  0  0  0  0  0  0  0  0
   11.7828  -19.2658   20.3463 C   0  0  0  0  0  0  0  0  0  0  0  0
   11.0592  -19.5088   21.4895 C   0  0  0  0  0  0  0  0  0  0  0  0
   11.2799  -18.7331   22.6977 C   0  0  0  0  0  0  0  0  0  0  0  0
   10.2411  -17.7144   23.0559 C   0  0  2  0  0  0  0  0  0  0  0  0
   10.3144  -16.6513   22.0151 N   0  0  0  0  0  0  0  0  0  0  0  0
   10.4134  -17.0272   24.3324 C   0  0  0  0  0  0  0  0  0  0  0  0
   11.4034  -16.2284   24.5114 O   0  0  0  0  0  0  0  0  0  0  0  0
   10.1071  -20.5306   21.4212 C   0  0  0  0  0  0  0  0  0  0  0  0
    9.9045  -21.2575   20.2646 C   0  0  0  0  0  0  0  0  0  0  0  0
    9.5644  -17.1343   25.4759 N   0  0  0  0  0  0  0  0  0  0  0  0
    9.9520  -16.6031   26.7668 C   0  0  1  0  0  0  0  0  0  0  0  0
    8.6771  -16.3112   27.5384 C   0  0  0  0  0  0  0  0  0  0  0  0
    7.6802  -15.6012   26.7067 C   0  0  0  0  0  0  0  0  0  0  0  0
    6.7246  -16.1367   25.8855 C   0  0  0  0  0  0  0  0  0  0  0  0
    6.0301  -15.1520   25.3128 N   0  0  0  0  0  0  0  0  0  0  0  0
    6.5134  -13.9761   25.7440 C   0  0  0  0  0  0  0  0  0  0  0  0
    6.1333  -12.6578   25.4444 C   0  0  0  0  0  0  0  0  0  0  0  0
    6.7807  -11.5863   26.0137 C   0  0  0  0  0  0  0  0  0  0  0  0
    7.8092  -11.8547   26.8827 C   0  0  0  0  0  0  0  0  0  0  0  0
    8.1860  -13.1440   27.1800 C   0  0  0  0  0  0  0  0  0  0  0  0
    7.5315  -14.2394   26.6044 C   0  0  0  0  0  0  0  0  0  0  0  0
   10.9033  -17.4099   27.5146 C   0  0  0  0  0  0  0  0  0  0  0  0
   11.2865  -18.5605   27.1816 O   0  0  0  0  0  0  0  0  0  0  0  0
   11.4597  -16.9230   28.6870 O   0  0  0  0  0  0  0  0  0  0  0  0
  2  3  1  1
  2  1  1  0
  4  2  1  0
  5  4  1  0
  5  6  1  6
  7  8  2  0
  7  5  1  0
  9 10  1  0
 10 11  2  0
 11 12  1  0
 13 12  2  0
 13 14  1  0
 15 14  1  6
 15 16  1  0
 16  7  1  0
 17 15  1  0
 17 18  2  0
 19 13  1  0
 20 10  1  0
 20 19  2  0
 21 17  1  0
 22 21  1  0
 22 23  1  1
 24 23  1  0
 24 25  2  0
 26 25  1  0
 27 26  1  0
 28 27  2  0
 29 28  1  0
 30 29  2  0
 30 31  1  0
 31 32  2  0
 32 27  1  0
 32 24  1  0
 33 22  1  0
 34 33  2  0
 35 33  1  0
M  END
$$$$
