LYW.pdb
     RDKit          3D

 35 37  0  0  1  0  0  0  0  0999 V2000
    6.7278  -13.3431   17.5524 C   0  0  0  0  0  0  0  0  0  0  0  0
    7.9631  -13.2023   18.4125 C   0  0  1  0  0  0  0  0  0  0  0  0
    7.8166  -12.0106   19.3400 C   0  0  0  0  0  0  0  0  0  0  0  0
    8.2914  -14.4508   19.1906 C   0  0  0  0  0  0  0  0  0  0  0  0
    9.4256  -14.1711   20.1269 C   0  0  2  0  0  0  0  0  0  0  0  0
   10.5273  -13.5431   19.4737 N   0  0  0  0  0  0  0  0  0  0  0  0
    9.8790  -15.3565   20.8715 C   0  0  0  0  0  0  0  0  0  0  0  0
    9.4824  -16.4855   20.4896 O   0  0  0  0  0  0  0  0  0  0  0  0
   15.0399  -14.3175   17.9573 O   0  0  0  0  0  0  0  0  0  0  0  0
   14.2749  -15.0760   18.8480 C   0  0  0  0  0  0  0  0  0  0  0  0
   14.1448  -14.6699   20.1442 C   0  0  0  0  0  0  0  0  0  0  0  0
   13.3862  -15.4165   21.0389 C   0  0  0  0  0  0  0  0  0  0  0  0
   12.7465  -16.5740   20.6642 C   0  0  0  0  0  0  0  0  0  0  0  0
   11.9550  -17.3365   21.6141 C   0  0  0  0  0  0  0  0  0  0  0  0
   11.2005  -16.5633   22.6523 C   0  0  2  0  0  0  0  0  0  0  0  0
   10.7339  -15.3122   21.9920 N   0  0  0  0  0  0  0  0  0  0  0  0
   11.9580  -16.1308   23.8230 C   0  0  0  0  0  0  0  0  0  0  0  0
   13.0542  -15.4762   23.6816 O   0  0  0  0  0  0  0  0  0  0  0  0
   12.8964  -16.9674   19.3307 C   0  0  0  0  0  0  0  0  0  0  0  0
   13.6483  -16.2306   18.4370 C   0  0  0  0  0  0  0  0  0  0  0  0
   11.6092  -16.3537   25.1900 N   0  0  0  0  0  0  0  0  0  0  0  0
   10.2567  -16.1641   25.6732 C   0  0  1  0  0  0  0  0  0  0  0  0
    9.4779  -15.4594   24.5763 C   0  0  0  0  0  0  0  0  0  0  0  0
    8.1790  -14.9465   25.0655 C   0  0  0  0  0  0  0  0  0  0  0  0
    7.0029  -15.6289   25.2245 C   0  0  0  0  0  0  0  0  0  0  0  0
    6.0677  -14.7981   25.6885 N   0  0  0  0  0  0  0  0  0  0  0  0
    6.6096  -13.5788   25.8374 C   0  0  0  0  0  0  0  0  0  0  0  0
    6.0523  -12.3715   26.2890 C   0  0  0  0  0  0  0  0  0  0  0  0
    6.8081  -11.2248   26.3610 C   0  0  0  0  0  0  0  0  0  0  0  0
    8.1233  -11.3061   25.9756 C   0  0  0  0  0  0  0  0  0  0  0  0
    8.6747  -12.4860   25.5325 C   0  0  0  0  0  0  0  0  0  0  0  0
    7.9115  -13.6570   25.4566 C   0  0  0  0  0  0  0  0  0  0  0  0
    9.5959  -17.3617   26.1673 C   0  0  0  0  0  0  0  0  0  0  0  0
    9.5149  -18.4479   25.5387 O   0  0  0  0  0  0  0  0  0  0  0  0
    8.9956  -17.3610   27.4166 O   0  0  0  0  0  0  0  0  0  0  0  0
  2  3  1  1
  2  1  1  0
  4  2  1  0
  5  4  1  0
  5  6  1  6
  7  8  2  0
  7  5  1  0
  9 10  1  0
 10 11  2  0
 11 12  1  0
 13 12  2  0
 13 14  1  0
 15 14  1  6
 15 16  1  0
 16  7  1  0
 17 15  1  0
 17 18  2  0
 19 13  1  0
 20 10  1  0
 20 19  2  0
 21 17  1  0
 22 21  1  0
 22 23  1  6
 24 23  1  0
 24 25  2  0
 26 25  1  0
 27 26  1  0
 28 27  2  0
 29 28  1  0
 30 29  2  0
 30 31  1  0
 31 32  2  0
 32 27  1  0
 32 24  1  0
 33 22  1  0
 34 33  2  0
 35 33  1  0
M  END
$$$$
