LYW.pdb
     RDKit          3D

 35 37  0  0  1  0  0  0  0  0999 V2000
    6.6071  -12.5789   19.6781 C   0  0  0  0  0  0  0  0  0  0  0  0
    7.7660  -13.3581   19.0990 C   0  0  1  0  0  0  0  0  0  0  0  0
    9.0693  -12.6321   19.3753 C   0  0  0  0  0  0  0  0  0  0  0  0
    7.8300  -14.7816   19.5905 C   0  0  0  0  0  0  0  0  0  0  0  0
    9.1141  -15.4068   19.1416 C   0  0  2  0  0  0  0  0  0  0  0  0
    9.0010  -16.0191   17.8582 N   0  0  0  0  0  0  0  0  0  0  0  0
    9.6772  -16.3563   20.1146 C   0  0  0  0  0  0  0  0  0  0  0  0
    9.2797  -17.5474   20.0807 O   0  0  0  0  0  0  0  0  0  0  0  0
   15.0484  -14.0129   17.8983 O   0  0  0  0  0  0  0  0  0  0  0  0
   14.4276  -14.8152   18.8598 C   0  0  0  0  0  0  0  0  0  0  0  0
   14.1294  -16.1143   18.5674 C   0  0  0  0  0  0  0  0  0  0  0  0
   13.5120  -16.9216   19.5162 C   0  0  0  0  0  0  0  0  0  0  0  0
   13.1812  -16.4555   20.7663 C   0  0  0  0  0  0  0  0  0  0  0  0
   12.5404  -17.3174   21.7445 C   0  0  0  0  0  0  0  0  0  0  0  0
   11.1106  -17.0236   22.0828 C   0  0  2  0  0  0  0  0  0  0  0  0
   10.6387  -16.0190   21.0894 N   0  0  0  0  0  0  0  0  0  0  0  0
   10.8583  -16.4297   23.3924 C   0  0  0  0  0  0  0  0  0  0  0  0
   11.3303  -15.2705   23.6815 O   0  0  0  0  0  0  0  0  0  0  0  0
   13.4975  -15.1211   21.0397 C   0  0  0  0  0  0  0  0  0  0  0  0
   14.1107  -14.3139   20.1020 C   0  0  0  0  0  0  0  0  0  0  0  0
   10.1018  -17.0094   24.4562 N   0  0  0  0  0  0  0  0  0  0  0  0
   10.3516  -16.6715   25.8426 C   0  0  1  0  0  0  0  0  0  0  0  0
   10.1351  -15.1757   25.9908 C   0  0  0  0  0  0  0  0  0  0  0  0
    8.7080  -14.8094   25.8542 C   0  0  0  0  0  0  0  0  0  0  0  0
    7.6533  -15.6159   25.5204 C   0  0  0  0  0  0  0  0  0  0  0  0
    6.5313  -14.8941   25.5044 N   0  0  0  0  0  0  0  0  0  0  0  0
    6.8306  -13.6246   25.8225 C   0  0  0  0  0  0  0  0  0  0  0  0
    6.0150  -12.4878   25.9425 C   0  0  0  0  0  0  0  0  0  0  0  0
    6.5465  -11.2667   26.2859 C   0  0  0  0  0  0  0  0  0  0  0  0
    7.9002  -11.2029   26.5058 C   0  0  0  0  0  0  0  0  0  0  0  0
    8.7042  -12.3132   26.3898 C   0  0  0  0  0  0  0  0  0  0  0  0
    8.1701  -13.5592   26.0407 C   0  0  0  0  0  0  0  0  0  0  0  0
    9.6152  -17.4574   26.8199 C   0  0  0  0  0  0  0  0  0  0  0  0
    8.7623  -18.3374   26.5376 O   0  0  0  0  0  0  0  0  0  0  0  0
    9.8308  -17.2633   28.1752 O   0  0  0  0  0  0  0  0  0  0  0  0
  2  3  1  1
  2  1  1  0
  4  2  1  0
  5  4  1  0
  5  6  1  6
  7  8  2  0
  7  5  1  0
  9 10  1  0
 10 11  2  0
 11 12  1  0
 13 12  2  0
 13 14  1  0
 15 14  1  6
 15 16  1  0
 16  7  1  0
 17 15  1  0
 17 18  2  0
 19 13  1  0
 20 10  1  0
 20 19  2  0
 21 17  1  0
 22 21  1  0
 22 23  1  6
 24 23  1  0
 24 25  2  0
 26 25  1  0
 27 26  1  0
 28 27  2  0
 29 28  1  0
 30 29  2  0
 30 31  1  0
 31 32  2  0
 32 27  1  0
 32 24  1  0
 33 22  1  0
 34 33  2  0
 35 33  1  0
M  END
$$$$
