LYW.pdb
     RDKit          3D

 35 37  0  0  1  0  0  0  0  0999 V2000
    7.4876  -11.7252   19.9715 C   0  0  0  0  0  0  0  0  0  0  0  0
    7.8979  -13.1283   19.5863 C   0  0  1  0  0  0  0  0  0  0  0  0
    9.2122  -13.0954   18.8290 C   0  0  0  0  0  0  0  0  0  0  0  0
    7.9794  -14.0679   20.7621 C   0  0  0  0  0  0  0  0  0  0  0  0
    8.3278  -15.4416   20.2796 C   0  0  2  0  0  0  0  0  0  0  0  0
    7.3177  -15.9942   19.4375 N   0  0  0  0  0  0  0  0  0  0  0  0
    8.6601  -16.3789   21.3642 C   0  0  0  0  0  0  0  0  0  0  0  0
    7.7317  -17.0602   21.8659 O   0  0  0  0  0  0  0  0  0  0  0  0
   10.5770  -21.9244   18.1746 O   0  0  0  0  0  0  0  0  0  0  0  0
   10.7718  -21.0601   19.2557 C   0  0  0  0  0  0  0  0  0  0  0  0
   11.4215  -19.8752   19.0665 C   0  0  0  0  0  0  0  0  0  0  0  0
   11.6207  -19.0076   20.1347 C   0  0  0  0  0  0  0  0  0  0  0  0
   11.1804  -19.2999   21.4036 C   0  0  0  0  0  0  0  0  0  0  0  0
   11.3951  -18.3771   22.5048 C   0  0  0  0  0  0  0  0  0  0  0  0
   10.2194  -17.5654   22.9562 C   0  0  2  0  0  0  0  0  0  0  0  0
    9.9579  -16.5662   21.8829 N   0  0  0  0  0  0  0  0  0  0  0  0
   10.3928  -16.7901   24.1811 C   0  0  0  0  0  0  0  0  0  0  0  0
   11.2465  -15.8313   24.2273 O   0  0  0  0  0  0  0  0  0  0  0  0
   10.5181  -20.5202   21.5698 C   0  0  0  0  0  0  0  0  0  0  0  0
   10.3169  -21.3864   20.5132 C   0  0  0  0  0  0  0  0  0  0  0  0
    9.6854  -16.9718   25.4085 N   0  0  0  0  0  0  0  0  0  0  0  0
   10.1440  -16.3797   26.6485 C   0  0  1  0  0  0  0  0  0  0  0  0
    8.9167  -16.0972   27.4972 C   0  0  0  0  0  0  0  0  0  0  0  0
    7.8160  -15.5154   26.6974 C   0  0  0  0  0  0  0  0  0  0  0  0
    6.8994  -16.1659   25.9159 C   0  0  0  0  0  0  0  0  0  0  0  0
    6.0767  -15.2736   25.3618 N   0  0  0  0  0  0  0  0  0  0  0  0
    6.4373  -14.0453   25.7662 C   0  0  0  0  0  0  0  0  0  0  0  0
    5.8982  -12.7826   25.4710 C   0  0  0  0  0  0  0  0  0  0  0  0
    6.4386  -11.6377   26.0081 C   0  0  0  0  0  0  0  0  0  0  0  0
    7.5214  -11.7768   26.8407 C   0  0  0  0  0  0  0  0  0  0  0  0
    8.0537  -13.0112   27.1336 C   0  0  0  0  0  0  0  0  0  0  0  0
    7.5089  -14.1807   26.5905 C   0  0  0  0  0  0  0  0  0  0  0  0
   11.1709  -17.1277   27.3561 C   0  0  0  0  0  0  0  0  0  0  0  0
   11.7620  -16.7310   28.3929 O   0  0  0  0  0  0  0  0  0  0  0  0
   11.5648  -18.3751   26.8977 O   0  0  0  0  0  0  0  0  0  0  0  0
  2  3  1  1
  2  1  1  0
  4  2  1  0
  5  4  1  0
  5  6  1  1
  7  8  2  0
  7  5  1  0
  9 10  1  0
 10 11  2  0
 11 12  1  0
 13 12  2  0
 13 14  1  0
 15 14  1  6
 15 16  1  0
 16  7  1  0
 17 15  1  0
 17 18  2  0
 19 13  1  0
 20 10  1  0
 20 19  2  0
 21 17  1  0
 22 21  1  0
 22 23  1  1
 24 23  1  0
 24 25  2  0
 26 25  1  0
 27 26  1  0
 28 27  2  0
 29 28  1  0
 30 29  2  0
 30 31  1  0
 31 32  2  0
 32 27  1  0
 32 24  1  0
 33 22  1  0
 34 33  2  0
 35 33  1  0
M  END
$$$$
