LYW.pdb
     RDKit          3D

 35 37  0  0  1  0  0  0  0  0999 V2000
    7.3860  -13.7136   20.5804 C   0  0  0  0  0  0  0  0  0  0  0  0
    7.5671  -14.1317   22.0218 C   0  0  1  0  0  0  0  0  0  0  0  0
    6.5569  -13.4177   22.9002 C   0  0  0  0  0  0  0  0  0  0  0  0
    7.4927  -15.6237   22.2221 C   0  0  0  0  0  0  0  0  0  0  0  0
    8.5422  -16.2917   21.3892 C   0  0  2  0  0  0  0  0  0  0  0  0
    7.9959  -17.2765   20.5138 N   0  0  0  0  0  0  0  0  0  0  0  0
    9.6442  -16.8630   22.1795 C   0  0  0  0  0  0  0  0  0  0  0  0
    9.7060  -18.1122   22.2963 O   0  0  0  0  0  0  0  0  0  0  0  0
   18.0916  -17.3316   25.0417 O   0  0  0  0  0  0  0  0  0  0  0  0
   16.8041  -16.9410   24.6628 C   0  0  0  0  0  0  0  0  0  0  0  0
   16.1927  -15.9067   25.3096 C   0  0  0  0  0  0  0  0  0  0  0  0
   14.9123  -15.5094   24.9409 C   0  0  0  0  0  0  0  0  0  0  0  0
   14.2195  -16.1293   23.9283 C   0  0  0  0  0  0  0  0  0  0  0  0
   12.8841  -15.6952   23.5561 C   0  0  0  0  0  0  0  0  0  0  0  0
   11.8287  -16.7524   23.4402 C   0  0  2  0  0  0  0  0  0  0  0  0
   10.6424  -16.0997   22.8192 N   0  0  0  0  0  0  0  0  0  0  0  0
   11.3477  -17.3346   24.6897 C   0  0  0  0  0  0  0  0  0  0  0  0
   12.0953  -18.1319   25.3647 O   0  0  0  0  0  0  0  0  0  0  0  0
   14.8689  -17.1859   23.2824 C   0  0  0  0  0  0  0  0  0  0  0  0
   16.1405  -17.5855   23.6435 C   0  0  0  0  0  0  0  0  0  0  0  0
   10.0738  -17.1113   25.2956 N   0  0  0  0  0  0  0  0  0  0  0  0
    9.8355  -17.3912   26.6969 C   0  0  1  0  0  0  0  0  0  0  0  0
    8.3425  -17.2554   26.9390 C   0  0  0  0  0  0  0  0  0  0  0  0
    7.7972  -16.0184   26.3374 C   0  0  0  0  0  0  0  0  0  0  0  0
    6.8459  -15.8982   25.3602 C   0  0  0  0  0  0  0  0  0  0  0  0
    6.6392  -14.6061   25.0997 N   0  0  0  0  0  0  0  0  0  0  0  0
    7.4396  -13.8734   25.8900 C   0  0  0  0  0  0  0  0  0  0  0  0
    7.6013  -12.4830   26.0026 C   0  0  0  0  0  0  0  0  0  0  0  0
    8.4959  -11.9432   26.8969 C   0  0  0  0  0  0  0  0  0  0  0  0
    9.2218  -12.8133   27.6722 C   0  0  0  0  0  0  0  0  0  0  0  0
    9.0676  -14.1763   27.5663 C   0  0  0  0  0  0  0  0  0  0  0  0
    8.1590  -14.7326   26.6583 C   0  0  0  0  0  0  0  0  0  0  0  0
   10.3842  -18.6462   27.1856 C   0  0  0  0  0  0  0  0  0  0  0  0
   10.9134  -19.5283   26.4621 O   0  0  0  0  0  0  0  0  0  0  0  0
   10.3479  -18.9424   28.5392 O   0  0  0  0  0  0  0  0  0  0  0  0
  2  3  1  1
  2  1  1  0
  4  2  1  0
  5  4  1  0
  5  6  1  1
  7  8  2  0
  7  5  1  0
  9 10  1  0
 10 11  2  0
 11 12  1  0
 13 12  2  0
 13 14  1  0
 15 14  1  1
 15 16  1  0
 16  7  1  0
 17 15  1  0
 17 18  2  0
 19 13  1  0
 20 10  1  0
 20 19  2  0
 21 17  1  0
 22 21  1  0
 22 23  1  6
 24 23  1  0
 24 25  2  0
 26 25  1  0
 27 26  1  0
 28 27  2  0
 29 28  1  0
 30 29  2  0
 30 31  1  0
 31 32  2  0
 32 27  1  0
 32 24  1  0
 33 22  1  0
 34 33  2  0
 35 33  1  0
M  END
$$$$
