LYW.pdb
     RDKit          3D

 35 37  0  0  1  0  0  0  0  0999 V2000
    7.3693  -12.1161   19.2147 C   0  0  0  0  0  0  0  0  0  0  0  0
    7.8458  -13.4969   18.8252 C   0  0  1  0  0  0  0  0  0  0  0  0
    9.1845  -13.4035   18.1172 C   0  0  0  0  0  0  0  0  0  0  0  0
    7.9201  -14.4508   19.9899 C   0  0  0  0  0  0  0  0  0  0  0  0
    8.3092  -15.8100   19.4973 C   0  0  2  0  0  0  0  0  0  0  0  0
    7.3578  -16.3488   18.5812 N   0  0  0  0  0  0  0  0  0  0  0  0
    8.5816  -16.7710   20.5778 C   0  0  0  0  0  0  0  0  0  0  0  0
    7.6046  -17.2653   21.1935 O   0  0  0  0  0  0  0  0  0  0  0  0
   12.9198  -22.5346   25.8662 O   0  0  0  0  0  0  0  0  0  0  0  0
   12.5077  -21.6525   24.8633 C   0  0  0  0  0  0  0  0  0  0  0  0
   11.2823  -21.8108   24.2842 C   0  0  0  0  0  0  0  0  0  0  0  0
   10.8620  -20.9392   23.2858 C   0  0  0  0  0  0  0  0  0  0  0  0
   11.6472  -19.8998   22.8468 C   0  0  0  0  0  0  0  0  0  0  0  0
   11.1866  -18.9979   21.8053 C   0  0  0  0  0  0  0  0  0  0  0  0
   10.0715  -18.0606   22.1560 C   0  0  2  0  0  0  0  0  0  0  0  0
    9.8726  -17.1780   20.9727 N   0  0  0  0  0  0  0  0  0  0  0  0
   10.3043  -17.1612   23.2823 C   0  0  0  0  0  0  0  0  0  0  0  0
   11.1786  -16.2241   23.1949 O   0  0  0  0  0  0  0  0  0  0  0  0
   12.8978  -19.7604   23.4567 C   0  0  0  0  0  0  0  0  0  0  0  0
   13.3213  -20.6225   24.4488 C   0  0  0  0  0  0  0  0  0  0  0  0
    9.6375  -17.1913   24.5450 N   0  0  0  0  0  0  0  0  0  0  0  0
   10.0567  -16.3530   25.6496 C   0  0  1  0  0  0  0  0  0  0  0  0
    9.7692  -14.9134   25.2608 C   0  0  0  0  0  0  0  0  0  0  0  0
    8.3408  -14.5699   25.4376 C   0  0  0  0  0  0  0  0  0  0  0  0
    7.2461  -15.3706   25.2509 C   0  0  0  0  0  0  0  0  0  0  0  0
    6.1384  -14.6756   25.5154 N   0  0  0  0  0  0  0  0  0  0  0  0
    6.4864  -13.4294   25.8734 C   0  0  0  0  0  0  0  0  0  0  0  0
    5.7032  -12.3246   26.2452 C   0  0  0  0  0  0  0  0  0  0  0  0
    6.2841  -11.1234   26.5783 C   0  0  0  0  0  0  0  0  0  0  0  0
    7.6542  -11.0467   26.5331 C   0  0  0  0  0  0  0  0  0  0  0  0
    8.4266  -12.1256   26.1697 C   0  0  0  0  0  0  0  0  0  0  0  0
    7.8422  -13.3512   25.8294 C   0  0  0  0  0  0  0  0  0  0  0  0
    9.5151  -16.7153   26.9497 C   0  0  0  0  0  0  0  0  0  0  0  0
    8.6693  -17.6249   27.1468 O   0  0  0  0  0  0  0  0  0  0  0  0
    9.9274  -16.0413   28.0886 O   0  0  0  0  0  0  0  0  0  0  0  0
  2  3  1  1
  2  1  1  0
  4  2  1  0
  5  4  1  0
  5  6  1  6
  7  8  2  0
  7  5  1  0
  9 10  1  0
 10 11  2  0
 11 12  1  0
 13 12  2  0
 13 14  1  0
 15 14  1  6
 15 16  1  0
 16  7  1  0
 17 15  1  0
 17 18  2  0
 19 13  1  0
 20 10  1  0
 20 19  2  0
 21 17  1  0
 22 21  1  0
 22 23  1  6
 24 23  1  0
 24 25  2  0
 26 25  1  0
 27 26  1  0
 28 27  2  0
 29 28  1  0
 30 29  2  0
 30 31  1  0
 31 32  2  0
 32 27  1  0
 32 24  1  0
 33 22  1  0
 34 33  2  0
 35 33  1  0
M  END
$$$$
