LYW.pdb
     RDKit          3D

 35 37  0  0  1  0  0  0  0  0999 V2000
    7.1796  -11.9559   20.1795 C   0  0  0  0  0  0  0  0  0  0  0  0
    7.7826  -13.2728   19.7464 C   0  0  1  0  0  0  0  0  0  0  0  0
    9.1824  -13.0496   19.2052 C   0  0  0  0  0  0  0  0  0  0  0  0
    7.7887  -14.3118   20.8384 C   0  0  0  0  0  0  0  0  0  0  0  0
    8.3661  -15.5878   20.3094 C   0  0  2  0  0  0  0  0  0  0  0  0
    7.5144  -16.2137   19.3516 N   0  0  0  0  0  0  0  0  0  0  0  0
    8.7424  -16.5438   21.3629 C   0  0  0  0  0  0  0  0  0  0  0  0
    7.8385  -17.2505   21.8742 O   0  0  0  0  0  0  0  0  0  0  0  0
   13.6381  -22.1310   26.3171 O   0  0  0  0  0  0  0  0  0  0  0  0
   13.1396  -21.1906   25.4110 C   0  0  0  0  0  0  0  0  0  0  0  0
   13.7550  -19.9792   25.2855 C   0  0  0  0  0  0  0  0  0  0  0  0
   13.2679  -19.0362   24.3873 C   0  0  0  0  0  0  0  0  0  0  0  0
   12.1663  -19.2782   23.6016 C   0  0  0  0  0  0  0  0  0  0  0  0
   11.6767  -18.2805   22.6661 C   0  0  0  0  0  0  0  0  0  0  0  0
   10.3453  -17.6602   22.9623 C   0  0  2  0  0  0  0  0  0  0  0  0
   10.0567  -16.7225   21.8415 N   0  0  0  0  0  0  0  0  0  0  0  0
   10.2547  -16.8583   24.1789 C   0  0  0  0  0  0  0  0  0  0  0  0
   10.7246  -15.6629   24.2051 O   0  0  0  0  0  0  0  0  0  0  0  0
   11.5548  -20.5269   23.7502 C   0  0  0  0  0  0  0  0  0  0  0  0
   12.0334  -21.4680   24.6403 C   0  0  0  0  0  0  0  0  0  0  0  0
    9.6688  -17.2587   25.4183 N   0  0  0  0  0  0  0  0  0  0  0  0
    9.8904  -16.5163   26.6424 C   0  0  1  0  0  0  0  0  0  0  0  0
    8.5344  -16.2913   27.2880 C   0  0  0  0  0  0  0  0  0  0  0  0
    7.6167  -15.5473   26.3970 C   0  0  0  0  0  0  0  0  0  0  0  0
    6.7421  -16.0482   25.4704 C   0  0  0  0  0  0  0  0  0  0  0  0
    6.1011  -15.0404   24.8759 N   0  0  0  0  0  0  0  0  0  0  0  0
    6.5399  -13.8834   25.3965 C   0  0  0  0  0  0  0  0  0  0  0  0
    6.1859  -12.5537   25.1160 C   0  0  0  0  0  0  0  0  0  0  0  0
    6.7757  -11.5067   25.7848 C   0  0  0  0  0  0  0  0  0  0  0  0
    7.7203  -11.8110   26.7335 C   0  0  0  0  0  0  0  0  0  0  0  0
    8.0711  -13.1117   27.0126 C   0  0  0  0  0  0  0  0  0  0  0  0
    7.4750  -14.1823   26.3358 C   0  0  0  0  0  0  0  0  0  0  0  0
   10.8708  -17.0882   27.5515 C   0  0  0  0  0  0  0  0  0  0  0  0
   11.3890  -18.2271   27.4244 O   0  0  0  0  0  0  0  0  0  0  0  0
   11.3014  -16.3680   28.6547 O   0  0  0  0  0  0  0  0  0  0  0  0
  2  3  1  1
  2  1  1  0
  4  2  1  0
  5  4  1  0
  5  6  1  6
  7  8  2  0
  7  5  1  0
  9 10  1  0
 10 11  2  0
 11 12  1  0
 13 12  2  0
 13 14  1  0
 15 14  1  6
 15 16  1  0
 16  7  1  0
 17 15  1  0
 17 18  2  0
 19 13  1  0
 20 10  1  0
 20 19  2  0
 21 17  1  0
 22 21  1  0
 22 23  1  1
 24 23  1  0
 24 25  2  0
 26 25  1  0
 27 26  1  0
 28 27  2  0
 29 28  1  0
 30 29  2  0
 30 31  1  0
 31 32  2  0
 32 27  1  0
 32 24  1  0
 33 22  1  0
 34 33  2  0
 35 33  1  0
M  END
$$$$
