KFN.pdb
     RDKit          3D

 29 29  0  0  1  0  0  0  0  0999 V2000
   32.0501  -26.2471  -18.4415 N   0  0  0  0  0  0  0  0  0  0  0  0
   31.0354  -27.1254  -18.9833 C   0  0  1  0  0  0  0  0  0  0  0  0
   31.5762  -28.5295  -19.1277 C   0  0  0  0  0  0  0  0  0  0  0  0
   32.6988  -28.5989  -20.1264 C   0  0  0  0  0  0  0  0  0  0  0  0
   33.1103  -30.0292  -20.3591 C   0  0  0  0  0  0  0  0  0  0  0  0
   34.2078  -30.0902  -21.4318 C   0  0  0  0  0  0  0  0  0  0  0  0
   34.4522  -31.4841  -21.6977 N   0  0  0  0  0  0  0  0  0  0  0  0
   29.8638  -27.2139  -18.0405 C   0  0  0  0  0  0  0  0  0  0  0  0
   30.0265  -27.1398  -16.7863 O   0  0  0  0  0  0  0  0  0  0  0  0
   28.5308  -27.3831  -18.5016 N   0  0  0  0  0  0  0  0  0  0  0  0
   27.3820  -27.3369  -17.6468 C   0  0  1  0  0  0  0  0  0  0  0  0
   26.5171  -26.1316  -17.8295 C   0  0  0  0  0  0  0  0  0  0  0  0
   27.2307  -24.8557  -17.7548 C   0  0  0  0  0  0  0  0  0  0  0  0
   27.5802  -24.1286  -18.8774 C   0  0  0  0  0  0  0  0  0  0  0  0
   28.2570  -22.9235  -18.7859 C   0  0  0  0  0  0  0  0  0  0  0  0
   28.6124  -22.3957  -17.5635 C   0  0  0  0  0  0  0  0  0  0  0  0
   28.2687  -23.1128  -16.4368 C   0  0  0  0  0  0  0  0  0  0  0  0
   27.5881  -24.3243  -16.5339 C   0  0  0  0  0  0  0  0  0  0  0  0
   26.6333  -28.6242  -17.7456 C   0  0  0  0  0  0  0  0  0  0  0  0
   26.3722  -29.1063  -18.8737 O   0  0  0  0  0  0  0  0  0  0  0  0
   27.5007  -32.3459  -16.8668 N   0  0  0  0  0  0  0  0  0  0  0  0
   26.8153  -32.2990  -15.5861 C   0  0  0  0  0  0  0  0  0  0  0  0
   27.2929  -33.0241  -14.6808 O   0  0  0  0  0  0  0  0  0  0  0  0
   25.6420  -31.4187  -15.4724 C   0  0  0  0  0  0  0  0  0  0  0  0
   25.4377  -30.6081  -16.6923 C   0  0  2  0  0  0  0  0  0  0  0  0
   26.1999  -29.3340  -16.5996 N   0  0  0  0  0  0  0  0  0  0  0  0
   24.0108  -30.2727  -16.9481 C   0  0  0  0  0  0  0  0  0  0  0  0
   23.5590  -29.2008  -16.4129 O   0  0  0  0  0  0  0  0  0  0  0  0
   23.1475  -31.0134  -17.7061 O   0  0  0  0  0  0  0  0  0  0  0  0
  2  1  1  1
  2  3  1  0
  3  4  1  0
  4  5  1  0
  6  5  1  0
  7  6  1  0
  8  9  2  0
  8  2  1  0
 10  8  1  0
 11 10  1  0
 11 12  1  6
 13 14  2  0
 13 12  1  0
 15 14  1  0
 16 15  2  0
 17 16  1  0
 17 18  2  0
 18 13  1  0
 19 26  1  0
 19 11  1  0
 20 19  2  0
 21 22  1  0
 22 23  2  0
 22 24  1  0
 25 24  1  1
 25 26  1  0
 25 27  1  0
 27 29  1  0
 28 27  2  0
M  END
$$$$
