KFN.pdb
     RDKit          3D

 29 29  0  0  1  0  0  0  0  0999 V2000
   21.2604  -20.4203  -13.0255 N   0  0  0  0  0  0  0  0  0  0  0  0
   22.2759  -21.4028  -12.7124 C   0  0  1  0  0  0  0  0  0  0  0  0
   22.2042  -22.5616  -13.6803 C   0  0  0  0  0  0  0  0  0  0  0  0
   22.0852  -22.0962  -15.1056 C   0  0  0  0  0  0  0  0  0  0  0  0
   20.7219  -22.4249  -15.6559 C   0  0  0  0  0  0  0  0  0  0  0  0
   20.6522  -23.9135  -16.0273 C   0  0  0  0  0  0  0  0  0  0  0  0
   19.3414  -24.1439  -16.5770 N   0  0  0  0  0  0  0  0  0  0  0  0
   23.6488  -20.8021  -12.8663 C   0  0  0  0  0  0  0  0  0  0  0  0
   23.7986  -19.5945  -13.2184 O   0  0  0  0  0  0  0  0  0  0  0  0
   24.8338  -21.5484  -12.6278 N   0  0  0  0  0  0  0  0  0  0  0  0
   26.1472  -20.9759  -12.6269 C   0  0  1  0  0  0  0  0  0  0  0  0
   27.0029  -21.3809  -11.4702 C   0  0  0  0  0  0  0  0  0  0  0  0
   26.4782  -20.9897  -10.1609 C   0  0  0  0  0  0  0  0  0  0  0  0
   25.8790  -21.8880   -9.2977 C   0  0  0  0  0  0  0  0  0  0  0  0
   25.3871  -21.4978   -8.0630 C   0  0  0  0  0  0  0  0  0  0  0  0
   25.4752  -20.1889   -7.6409 C   0  0  0  0  0  0  0  0  0  0  0  0
   26.0712  -19.2842   -8.4943 C   0  0  0  0  0  0  0  0  0  0  0  0
   26.5644  -19.6813   -9.7350 C   0  0  0  0  0  0  0  0  0  0  0  0
   26.7938  -21.2065  -13.9521 C   0  0  0  0  0  0  0  0  0  0  0  0
   27.1152  -22.3700  -14.2928 O   0  0  0  0  0  0  0  0  0  0  0  0
   26.7834  -22.6047  -17.7069 N   0  0  0  0  0  0  0  0  0  0  0  0
   25.4999  -22.0737  -17.2790 C   0  0  0  0  0  0  0  0  0  0  0  0
   24.5002  -22.7910  -17.5224 O   0  0  0  0  0  0  0  0  0  0  0  0
   25.4929  -20.7631  -16.6104 C   0  0  0  0  0  0  0  0  0  0  0  0
   26.8610  -20.2815  -16.3216 C   0  0  2  0  0  0  0  0  0  0  0  0
   27.0628  -20.1484  -14.8539 N   0  0  0  0  0  0  0  0  0  0  0  0
   27.1712  -18.9687  -16.9494 C   0  0  0  0  0  0  0  0  0  0  0  0
   26.2043  -18.1381  -17.0717 O   0  0  0  0  0  0  0  0  0  0  0  0
   28.4004  -18.5794  -17.4033 O   0  0  0  0  0  0  0  0  0  0  0  0
  2  1  1  6
  2  3  1  0
  3  4  1  0
  4  5  1  0
  6  5  1  0
  7  6  1  0
  8  9  2  0
  8  2  1  0
 10  8  1  0
 11 10  1  0
 11 12  1  1
 13 14  2  0
 13 12  1  0
 15 14  1  0
 16 15  2  0
 17 16  1  0
 17 18  2  0
 18 13  1  0
 19 26  1  0
 19 11  1  0
 20 19  2  0
 21 22  1  0
 22 23  2  0
 22 24  1  0
 25 24  1  1
 25 26  1  0
 25 27  1  0
 27 29  1  0
 28 27  2  0
M  END
$$$$
