KFN.pdb
     RDKit          3D

 29 29  0  0  1  0  0  0  0  0999 V2000
   27.2200  -19.6473  -18.9405 N   0  0  0  0  0  0  0  0  0  0  0  0
   26.4868  -18.8208  -18.0056 C   0  0  1  0  0  0  0  0  0  0  0  0
   25.1851  -18.3587  -18.6192 C   0  0  0  0  0  0  0  0  0  0  0  0
   25.3792  -17.8242  -20.0117 C   0  0  0  0  0  0  0  0  0  0  0  0
   24.4718  -16.6469  -20.2563 C   0  0  0  0  0  0  0  0  0  0  0  0
   24.6865  -16.1069  -21.6780 C   0  0  0  0  0  0  0  0  0  0  0  0
   25.8960  -15.3262  -21.6479 N   0  0  0  0  0  0  0  0  0  0  0  0
   26.1223  -19.6166  -16.7795 C   0  0  0  0  0  0  0  0  0  0  0  0
   25.5475  -20.7413  -16.8768 O   0  0  0  0  0  0  0  0  0  0  0  0
   26.4000  -19.1540  -15.4654 N   0  0  0  0  0  0  0  0  0  0  0  0
   25.9496  -19.8165  -14.2776 C   0  0  1  0  0  0  0  0  0  0  0  0
   26.7062  -19.4588  -13.0392 C   0  0  0  0  0  0  0  0  0  0  0  0
   26.1976  -20.0817  -11.8161 C   0  0  0  0  0  0  0  0  0  0  0  0
   26.5831  -21.3439  -11.4047 C   0  0  0  0  0  0  0  0  0  0  0  0
   26.0890  -21.9168  -10.2443 C   0  0  0  0  0  0  0  0  0  0  0  0
   25.1864  -21.2477   -9.4463 C   0  0  0  0  0  0  0  0  0  0  0  0
   24.7949  -19.9876   -9.8474 C   0  0  0  0  0  0  0  0  0  0  0  0
   25.2945  -19.4156  -11.0151 C   0  0  0  0  0  0  0  0  0  0  0  0
   24.4732  -19.6469  -14.1400 C   0  0  0  0  0  0  0  0  0  0  0  0
   23.9597  -18.5144  -14.3039 O   0  0  0  0  0  0  0  0  0  0  0  0
   19.5249  -19.3196  -13.9337 N   0  0  0  0  0  0  0  0  0  0  0  0
   20.0825  -20.1744  -14.9684 C   0  0  0  0  0  0  0  0  0  0  0  0
   19.2526  -20.7388  -15.7208 O   0  0  0  0  0  0  0  0  0  0  0  0
   21.5472  -20.2967  -15.0359 C   0  0  0  0  0  0  0  0  0  0  0  0
   22.1416  -20.5708  -13.7098 C   0  0  2  0  0  0  0  0  0  0  0  0
   23.6159  -20.7298  -13.8275 N   0  0  0  0  0  0  0  0  0  0  0  0
   21.5978  -21.7932  -13.0587 C   0  0  0  0  0  0  0  0  0  0  0  0
   22.0540  -22.9199  -13.4610 O   0  0  0  0  0  0  0  0  0  0  0  0
   20.6549  -21.8097  -12.0691 O   0  0  0  0  0  0  0  0  0  0  0  0
  2  1  1  6
  2  3  1  0
  3  4  1  0
  4  5  1  0
  6  5  1  0
  7  6  1  0
  8  9  2  0
  8  2  1  0
 10  8  1  0
 11 10  1  0
 11 12  1  1
 13 14  2  0
 13 12  1  0
 15 14  1  0
 16 15  2  0
 17 16  1  0
 17 18  2  0
 18 13  1  0
 19 26  1  0
 19 11  1  0
 20 19  2  0
 21 22  1  0
 22 23  2  0
 22 24  1  0
 25 24  1  6
 25 26  1  0
 25 27  1  0
 27 29  1  0
 28 27  2  0
M  END
$$$$
