KFN.pdb
     RDKit          3D

 29 29  0  0  1  0  0  0  0  0999 V2000
   26.3741  -21.1921  -13.1625 N   0  0  0  0  0  0  0  0  0  0  0  0
   25.5724  -20.4172  -12.2399 C   0  0  1  0  0  0  0  0  0  0  0  0
   24.1143  -20.7964  -12.3617 C   0  0  0  0  0  0  0  0  0  0  0  0
   23.7087  -21.0151  -13.7935 C   0  0  0  0  0  0  0  0  0  0  0  0
   22.6093  -20.0613  -14.1821 C   0  0  0  0  0  0  0  0  0  0  0  0
   21.2611  -20.7965  -14.2018 C   0  0  0  0  0  0  0  0  0  0  0  0
   21.0910  -21.3176  -15.5333 N   0  0  0  0  0  0  0  0  0  0  0  0
   25.9744  -20.7173  -10.8194 C   0  0  0  0  0  0  0  0  0  0  0  0
   25.7042  -21.8337  -10.2851 O   0  0  0  0  0  0  0  0  0  0  0  0
   26.6692  -19.7762  -10.0134 N   0  0  0  0  0  0  0  0  0  0  0  0
   27.0316  -20.0134   -8.6476 C   0  0  1  0  0  0  0  0  0  0  0  0
   28.0088  -19.0335   -8.0828 C   0  0  0  0  0  0  0  0  0  0  0  0
   28.4513  -19.3346   -6.7204 C   0  0  0  0  0  0  0  0  0  0  0  0
   29.1492  -20.4836   -6.3984 C   0  0  0  0  0  0  0  0  0  0  0  0
   29.5581  -20.7512   -5.1023 C   0  0  0  0  0  0  0  0  0  0  0  0
   29.2841  -19.8770   -4.0728 C   0  0  0  0  0  0  0  0  0  0  0  0
   28.5883  -18.7274   -4.3827 C   0  0  0  0  0  0  0  0  0  0  0  0
   28.1793  -18.4626   -5.6877 C   0  0  0  0  0  0  0  0  0  0  0  0
   25.7974  -20.1629   -7.8218 C   0  0  0  0  0  0  0  0  0  0  0  0
   24.9131  -19.2742   -7.8592 O   0  0  0  0  0  0  0  0  0  0  0  0
   21.5015  -22.0330   -6.8338 N   0  0  0  0  0  0  0  0  0  0  0  0
   22.3615  -22.6779   -5.8557 C   0  0  0  0  0  0  0  0  0  0  0  0
   21.7869  -23.1486   -4.8449 O   0  0  0  0  0  0  0  0  0  0  0  0
   23.8050  -22.7177   -6.1379 C   0  0  0  0  0  0  0  0  0  0  0  0
   24.4220  -21.3762   -6.0581 C   0  0  2  0  0  0  0  0  0  0  0  0
   25.5815  -21.2849   -6.9853 N   0  0  0  0  0  0  0  0  0  0  0  0
   24.8962  -21.0231   -4.6927 C   0  0  0  0  0  0  0  0  0  0  0  0
   26.0077  -21.5321   -4.3119 O   0  0  0  0  0  0  0  0  0  0  0  0
   24.2437  -20.2016   -3.8163 O   0  0  0  0  0  0  0  0  0  0  0  0
  2  1  1  6
  2  3  1  0
  3  4  1  0
  4  5  1  0
  6  5  1  0
  7  6  1  0
  8  9  2  0
  8  2  1  0
 10  8  1  0
 11 10  1  0
 11 12  1  1
 13 14  2  0
 13 12  1  0
 15 14  1  0
 16 15  2  0
 17 16  1  0
 17 18  2  0
 18 13  1  0
 19 26  1  0
 19 11  1  0
 20 19  2  0
 21 22  1  0
 22 23  2  0
 22 24  1  0
 25 24  1  1
 25 26  1  0
 25 27  1  0
 27 29  1  0
 28 27  2  0
M  END
$$$$
