KFN.pdb
     RDKit          3D

 29 29  0  0  1  0  0  0  0  0999 V2000
   27.6510  -21.4560  -18.0129 N   0  0  0  0  0  0  0  0  0  0  0  0
   26.6807  -22.5196  -17.8656 C   0  0  1  0  0  0  0  0  0  0  0  0
   27.3125  -23.8566  -18.1788 C   0  0  0  0  0  0  0  0  0  0  0  0
   28.0919  -23.8218  -19.4647 C   0  0  0  0  0  0  0  0  0  0  0  0
   29.5721  -23.8147  -19.1845 C   0  0  0  0  0  0  0  0  0  0  0  0
   30.3549  -23.8078  -20.5058 C   0  0  0  0  0  0  0  0  0  0  0  0
   31.7397  -23.6048  -20.1675 N   0  0  0  0  0  0  0  0  0  0  0  0
   26.2029  -22.5968  -16.4389 C   0  0  0  0  0  0  0  0  0  0  0  0
   25.5379  -23.5924  -16.0249 O   0  0  0  0  0  0  0  0  0  0  0  0
   26.4693  -21.5704  -15.4938 N   0  0  0  0  0  0  0  0  0  0  0  0
   25.9143  -21.5421  -14.1732 C   0  0  1  0  0  0  0  0  0  0  0  0
   26.7130  -20.7637  -13.1779 C   0  0  0  0  0  0  0  0  0  0  0  0
   26.1097  -20.6817  -11.8467 C   0  0  0  0  0  0  0  0  0  0  0  0
   26.4361  -21.5526  -10.8239 C   0  0  0  0  0  0  0  0  0  0  0  0
   25.8528  -21.4594   -9.5710 C   0  0  0  0  0  0  0  0  0  0  0  0
   24.9164  -20.4881   -9.2901 C   0  0  0  0  0  0  0  0  0  0  0  0
   24.5834  -19.6139  -10.3034 C   0  0  0  0  0  0  0  0  0  0  0  0
   25.1727  -19.7115  -11.5618 C   0  0  0  0  0  0  0  0  0  0  0  0
   24.4830  -21.1248  -14.2413 C   0  0  0  0  0  0  0  0  0  0  0  0
   24.1585  -20.1274  -14.9290 O   0  0  0  0  0  0  0  0  0  0  0  0
   19.0721  -22.5268  -15.2131 N   0  0  0  0  0  0  0  0  0  0  0  0
   19.7659  -22.3447  -13.9491 C   0  0  0  0  0  0  0  0  0  0  0  0
   19.0665  -21.9315  -12.9933 O   0  0  0  0  0  0  0  0  0  0  0  0
   21.2031  -22.6570  -13.9090 C   0  0  0  0  0  0  0  0  0  0  0  0
   22.0252  -21.4513  -13.6692 C   0  0  2  0  0  0  0  0  0  0  0  0
   23.4613  -21.8205  -13.5505 N   0  0  0  0  0  0  0  0  0  0  0  0
   21.6390  -20.7063  -12.4405 C   0  0  0  0  0  0  0  0  0  0  0  0
   21.0190  -19.5976  -12.6018 O   0  0  0  0  0  0  0  0  0  0  0  0
   21.8909  -21.1092  -11.1588 O   0  0  0  0  0  0  0  0  0  0  0  0
  2  1  1  1
  2  3  1  0
  3  4  1  0
  4  5  1  0
  6  5  1  0
  7  6  1  0
  8  9  2  0
  8  2  1  0
 10  8  1  0
 11 10  1  0
 11 12  1  1
 13 14  2  0
 13 12  1  0
 15 14  1  0
 16 15  2  0
 17 16  1  0
 17 18  2  0
 18 13  1  0
 19 26  1  0
 19 11  1  0
 20 19  2  0
 21 22  1  0
 22 23  2  0
 22 24  1  0
 25 24  1  1
 25 26  1  0
 25 27  1  0
 27 29  1  0
 28 27  2  0
M  END
$$$$
