KFN.pdb
     RDKit          3D

 29 29  0  0  1  0  0  0  0  0999 V2000
   27.9372  -22.4840  -17.4488 N   0  0  0  0  0  0  0  0  0  0  0  0
   27.5739  -21.1930  -16.9049 C   0  0  1  0  0  0  0  0  0  0  0  0
   26.6474  -20.4644  -17.8512 C   0  0  0  0  0  0  0  0  0  0  0  0
   26.6756  -21.0579  -19.2329 C   0  0  0  0  0  0  0  0  0  0  0  0
   26.0484  -22.4275  -19.2318 C   0  0  0  0  0  0  0  0  0  0  0  0
   25.9025  -22.9377  -20.6730 C   0  0  0  0  0  0  0  0  0  0  0  0
   25.4525  -24.3028  -20.5873 N   0  0  0  0  0  0  0  0  0  0  0  0
   26.8170  -21.3645  -15.6137 C   0  0  0  0  0  0  0  0  0  0  0  0
   25.7134  -21.9855  -15.5801 O   0  0  0  0  0  0  0  0  0  0  0  0
   27.2945  -20.8455  -14.3805 N   0  0  0  0  0  0  0  0  0  0  0  0
   26.5637  -20.9199  -13.1504 C   0  0  1  0  0  0  0  0  0  0  0  0
   27.3686  -20.6172  -11.9279 C   0  0  0  0  0  0  0  0  0  0  0  0
   26.6157  -20.6822  -10.6742 C   0  0  0  0  0  0  0  0  0  0  0  0
   26.2564  -19.5548   -9.9594 C   0  0  0  0  0  0  0  0  0  0  0  0
   25.5449  -19.6374   -8.7738 C   0  0  0  0  0  0  0  0  0  0  0  0
   25.1631  -20.8553   -8.2540 C   0  0  0  0  0  0  0  0  0  0  0  0
   25.5163  -21.9866   -8.9590 C   0  0  0  0  0  0  0  0  0  0  0  0
   26.2319  -21.8986  -10.1509 C   0  0  0  0  0  0  0  0  0  0  0  0
   25.3193  -20.1030  -13.2582 C   0  0  0  0  0  0  0  0  0  0  0  0
   25.3152  -19.0669  -13.9650 O   0  0  0  0  0  0  0  0  0  0  0  0
   20.4066  -19.1404  -13.9813 N   0  0  0  0  0  0  0  0  0  0  0  0
   21.5342  -19.0218  -14.8905 C   0  0  0  0  0  0  0  0  0  0  0  0
   21.2749  -18.5678  -16.0307 O   0  0  0  0  0  0  0  0  0  0  0  0
   22.8555  -19.4394  -14.3961 C   0  0  0  0  0  0  0  0  0  0  0  0
   22.7910  -19.9558  -13.0119 C   0  0  2  0  0  0  0  0  0  0  0  0
   24.1249  -20.4564  -12.5845 N   0  0  0  0  0  0  0  0  0  0  0  0
   21.8082  -21.0591  -12.8370 C   0  0  0  0  0  0  0  0  0  0  0  0
   20.5901  -20.8086  -13.1423 O   0  0  0  0  0  0  0  0  0  0  0  0
   22.1001  -22.3137  -12.3793 O   0  0  0  0  0  0  0  0  0  0  0  0
  2  1  1  6
  2  3  1  0
  3  4  1  0
  4  5  1  0
  6  5  1  0
  7  6  1  0
  8  9  2  0
  8  2  1  0
 10  8  1  0
 11 10  1  0
 11 12  1  1
 13 14  2  0
 13 12  1  0
 15 14  1  0
 16 15  2  0
 17 16  1  0
 17 18  2  0
 18 13  1  0
 19 26  1  0
 19 11  1  0
 20 19  2  0
 21 22  1  0
 22 23  2  0
 22 24  1  0
 25 24  1  6
 25 26  1  0
 25 27  1  0
 27 29  1  0
 28 27  2  0
M  END
$$$$
