KFN.pdb
     RDKit          3D

 29 29  0  0  1  0  0  0  0  0999 V2000
   28.7067  -21.1570  -14.7255 N   0  0  0  0  0  0  0  0  0  0  0  0
   27.6537  -20.2048  -14.4441 C   0  0  1  0  0  0  0  0  0  0  0  0
   26.9561  -19.7977  -15.7217 C   0  0  0  0  0  0  0  0  0  0  0  0
   27.5153  -18.5196  -16.2840 C   0  0  0  0  0  0  0  0  0  0  0  0
   28.7139  -18.8045  -17.1510 C   0  0  0  0  0  0  0  0  0  0  0  0
   29.2250  -17.5011  -17.7824 C   0  0  0  0  0  0  0  0  0  0  0  0
   30.3656  -17.8493  -18.5892 N   0  0  0  0  0  0  0  0  0  0  0  0
   26.6033  -20.8324  -13.5653 C   0  0  0  0  0  0  0  0  0  0  0  0
   26.2810  -22.0502  -13.6990 O   0  0  0  0  0  0  0  0  0  0  0  0
   25.9266  -20.1013  -12.5526 N   0  0  0  0  0  0  0  0  0  0  0  0
   24.9145  -20.6629  -11.7082 C   0  0  1  0  0  0  0  0  0  0  0  0
   24.7399  -19.9671  -10.3969 C   0  0  0  0  0  0  0  0  0  0  0  0
   25.8534  -20.1439   -9.4632 C   0  0  0  0  0  0  0  0  0  0  0  0
   26.4654  -21.3656   -9.2534 C   0  0  0  0  0  0  0  0  0  0  0  0
   27.5171  -21.5128   -8.3641 C   0  0  0  0  0  0  0  0  0  0  0  0
   28.0003  -20.4400   -7.6465 C   0  0  0  0  0  0  0  0  0  0  0  0
   27.3971  -19.2164   -7.8481 C   0  0  0  0  0  0  0  0  0  0  0  0
   26.3397  -19.0733   -8.7435 C   0  0  0  0  0  0  0  0  0  0  0  0
   23.6436  -20.8048  -12.4778 C   0  0  0  0  0  0  0  0  0  0  0  0
   23.2964  -19.9019  -13.2761 O   0  0  0  0  0  0  0  0  0  0  0  0
   22.5050  -25.0550  -15.0757 N   0  0  0  0  0  0  0  0  0  0  0  0
   21.7448  -23.8370  -14.8504 C   0  0  0  0  0  0  0  0  0  0  0  0
   21.4943  -23.1496  -15.8693 O   0  0  0  0  0  0  0  0  0  0  0  0
   21.3459  -23.5280  -13.4683 C   0  0  0  0  0  0  0  0  0  0  0  0
   21.5563  -22.1022  -13.1370 C   0  0  2  0  0  0  0  0  0  0  0  0
   22.8017  -21.9351  -12.3409 N   0  0  0  0  0  0  0  0  0  0  0  0
   20.4340  -21.5018  -12.3664 C   0  0  0  0  0  0  0  0  0  0  0  0
   20.6880  -21.1148  -11.1725 O   0  0  0  0  0  0  0  0  0  0  0  0
   19.1592  -21.3301  -12.8289 O   0  0  0  0  0  0  0  0  0  0  0  0
  2  1  1  6
  2  3  1  0
  3  4  1  0
  4  5  1  0
  6  5  1  0
  7  6  1  0
  8  9  2  0
  8  2  1  0
 10  8  1  0
 11 10  1  0
 11 12  1  1
 13 14  2  0
 13 12  1  0
 15 14  1  0
 16 15  2  0
 17 16  1  0
 17 18  2  0
 18 13  1  0
 19 26  1  0
 19 11  1  0
 20 19  2  0
 21 22  1  0
 22 23  2  0
 22 24  1  0
 25 24  1  1
 25 26  1  0
 25 27  1  0
 27 29  1  0
 28 27  2  0
M  END
$$$$
