KFN.pdb
     RDKit          3D

 29 29  0  0  1  0  0  0  0  0999 V2000
   27.5942  -23.0438  -16.2758 N   0  0  0  0  0  0  0  0  0  0  0  0
   26.8963  -21.7837  -16.1360 C   0  0  1  0  0  0  0  0  0  0  0  0
   25.8987  -21.6065  -17.2576 C   0  0  0  0  0  0  0  0  0  0  0  0
   26.4357  -20.7265  -18.3529 C   0  0  0  0  0  0  0  0  0  0  0  0
   27.3947  -21.4946  -19.2245 C   0  0  0  0  0  0  0  0  0  0  0  0
   27.9921  -20.5651  -20.2912 C   0  0  0  0  0  0  0  0  0  0  0  0
   28.9005  -21.3613  -21.0749 N   0  0  0  0  0  0  0  0  0  0  0  0
   26.1054  -21.7642  -14.8540 C   0  0  0  0  0  0  0  0  0  0  0  0
   25.5080  -22.8011  -14.4383 O   0  0  0  0  0  0  0  0  0  0  0  0
   25.9888  -20.5969  -14.0529 N   0  0  0  0  0  0  0  0  0  0  0  0
   25.2469  -20.5438  -12.8284 C   0  0  1  0  0  0  0  0  0  0  0  0
   25.7991  -19.6045  -11.8051 C   0  0  0  0  0  0  0  0  0  0  0  0
   26.7471  -20.2140  -10.8709 C   0  0  0  0  0  0  0  0  0  0  0  0
   27.9853  -20.6858  -11.2649 C   0  0  0  0  0  0  0  0  0  0  0  0
   28.8680  -21.2608  -10.3655 C   0  0  0  0  0  0  0  0  0  0  0  0
   28.5462  -21.3874   -9.0315 C   0  0  0  0  0  0  0  0  0  0  0  0
   27.3133  -20.9200   -8.6275 C   0  0  0  0  0  0  0  0  0  0  0  0
   26.4290  -20.3424   -9.5356 C   0  0  0  0  0  0  0  0  0  0  0  0
   23.8034  -20.3118  -13.1282 C   0  0  0  0  0  0  0  0  0  0  0  0
   23.4728  -19.4040  -13.9280 O   0  0  0  0  0  0  0  0  0  0  0  0
   19.9240  -24.2553  -14.7128 N   0  0  0  0  0  0  0  0  0  0  0  0
   20.4689  -22.9167  -14.8662 C   0  0  0  0  0  0  0  0  0  0  0  0
   19.8377  -22.1515  -15.6339 O   0  0  0  0  0  0  0  0  0  0  0  0
   21.6925  -22.5887  -14.1179 C   0  0  0  0  0  0  0  0  0  0  0  0
   21.5096  -21.4068  -13.2482 C   0  0  2  0  0  0  0  0  0  0  0  0
   22.7766  -21.0875  -12.5372 N   0  0  0  0  0  0  0  0  0  0  0  0
   20.4414  -21.5826  -12.2274 C   0  0  0  0  0  0  0  0  0  0  0  0
   19.2671  -21.8620  -12.6548 O   0  0  0  0  0  0  0  0  0  0  0  0
   20.6125  -21.4712  -10.8758 O   0  0  0  0  0  0  0  0  0  0  0  0
  2  1  1  6
  2  3  1  0
  3  4  1  0
  4  5  1  0
  6  5  1  0
  7  6  1  0
  8  9  2  0
  8  2  1  0
 10  8  1  0
 11 10  1  0
 11 12  1  1
 13 14  2  0
 13 12  1  0
 15 14  1  0
 16 15  2  0
 17 16  1  0
 17 18  2  0
 18 13  1  0
 19 26  1  0
 19 11  1  0
 20 19  2  0
 21 22  1  0
 22 23  2  0
 22 24  1  0
 25 24  1  1
 25 26  1  0
 25 27  1  0
 27 29  1  0
 28 27  2  0
M  END
$$$$
