KFN.pdb
     RDKit          3D

 29 29  0  0  1  0  0  0  0  0999 V2000
   27.4758  -23.6172  -16.5280 N   0  0  0  0  0  0  0  0  0  0  0  0
   27.2296  -22.2646  -16.0759 C   0  0  1  0  0  0  0  0  0  0  0  0
   26.6818  -21.4228  -17.2055 C   0  0  0  0  0  0  0  0  0  0  0  0
   27.3915  -21.6944  -18.5035 C   0  0  0  0  0  0  0  0  0  0  0  0
   28.0364  -20.4370  -19.0254 C   0  0  0  0  0  0  0  0  0  0  0  0
   28.6868  -20.7097  -20.3897 C   0  0  0  0  0  0  0  0  0  0  0  0
   29.2882  -19.4735  -20.8181 N   0  0  0  0  0  0  0  0  0  0  0  0
   26.1831  -22.2585  -14.9923 C   0  0  0  0  0  0  0  0  0  0  0  0
   25.2527  -23.1181  -14.9768 O   0  0  0  0  0  0  0  0  0  0  0  0
   26.1836  -21.3006  -13.9433 N   0  0  0  0  0  0  0  0  0  0  0  0
   25.1894  -21.2492  -12.9130 C   0  0  1  0  0  0  0  0  0  0  0  0
   25.5925  -20.4819  -11.6953 C   0  0  0  0  0  0  0  0  0  0  0  0
   24.5612  -20.4014  -10.6597 C   0  0  0  0  0  0  0  0  0  0  0  0
   24.6344  -21.1117   -9.4759 C   0  0  0  0  0  0  0  0  0  0  0  0
   23.6470  -21.0231   -8.5085 C   0  0  0  0  0  0  0  0  0  0  0  0
   22.5430  -20.2179   -8.6871 C   0  0  0  0  0  0  0  0  0  0  0  0
   22.4598  -19.5048   -9.8646 C   0  0  0  0  0  0  0  0  0  0  0  0
   23.4553  -19.5970  -10.8346 C   0  0  0  0  0  0  0  0  0  0  0  0
   23.8903  -20.7996  -13.4940 C   0  0  0  0  0  0  0  0  0  0  0  0
   23.8799  -19.9138  -14.3819 O   0  0  0  0  0  0  0  0  0  0  0  0
   19.6152  -22.2028  -16.7097 N   0  0  0  0  0  0  0  0  0  0  0  0
   20.1853  -21.1378  -15.9015 C   0  0  0  0  0  0  0  0  0  0  0  0
   19.5463  -20.0586  -15.8855 O   0  0  0  0  0  0  0  0  0  0  0  0
   21.4407  -21.4205  -15.1882 C   0  0  0  0  0  0  0  0  0  0  0  0
   21.3702  -21.0244  -13.7652 C   0  0  2  0  0  0  0  0  0  0  0  0
   22.6502  -21.3413  -13.0768 N   0  0  0  0  0  0  0  0  0  0  0  0
   20.2694  -21.6916  -13.0189 C   0  0  0  0  0  0  0  0  0  0  0  0
   20.4127  -22.9371  -12.7588 O   0  0  0  0  0  0  0  0  0  0  0  0
   19.1226  -21.0839  -12.5897 O   0  0  0  0  0  0  0  0  0  0  0  0
  2  1  1  6
  2  3  1  0
  3  4  1  0
  4  5  1  0
  6  5  1  0
  7  6  1  0
  8  9  2  0
  8  2  1  0
 10  8  1  0
 11 10  1  0
 11 12  1  1
 13 14  2  0
 13 12  1  0
 15 14  1  0
 16 15  2  0
 17 16  1  0
 17 18  2  0
 18 13  1  0
 19 26  1  0
 19 11  1  0
 20 19  2  0
 21 22  1  0
 22 23  2  0
 22 24  1  0
 25 24  1  6
 25 26  1  0
 25 27  1  0
 27 29  1  0
 28 27  2  0
M  END
$$$$
