KFN.pdb
     RDKit          3D

 29 29  0  0  1  0  0  0  0  0999 V2000
   32.3249  -22.9706  -19.1450 N   0  0  0  0  0  0  0  0  0  0  0  0
   31.1046  -22.9300  -18.3680 C   0  0  1  0  0  0  0  0  0  0  0  0
   30.0349  -22.1588  -19.1067 C   0  0  0  0  0  0  0  0  0  0  0  0
   30.4549  -20.7413  -19.3838 C   0  0  0  0  0  0  0  0  0  0  0  0
   29.3298  -19.9739  -20.0278 C   0  0  0  0  0  0  0  0  0  0  0  0
   29.8213  -18.5825  -20.4532 C   0  0  0  0  0  0  0  0  0  0  0  0
   28.7297  -17.9501  -21.1472 N   0  0  0  0  0  0  0  0  0  0  0  0
   30.5660  -24.3227  -18.1684 C   0  0  0  0  0  0  0  0  0  0  0  0
   30.6947  -25.2084  -19.0650 O   0  0  0  0  0  0  0  0  0  0  0  0
   29.8936  -24.7122  -16.9793 N   0  0  0  0  0  0  0  0  0  0  0  0
   29.4360  -26.0459  -16.7251 C   0  0  1  0  0  0  0  0  0  0  0  0
   30.0999  -26.7232  -15.5699 C   0  0  0  0  0  0  0  0  0  0  0  0
   31.5499  -26.8714  -15.7050 C   0  0  0  0  0  0  0  0  0  0  0  0
   32.1306  -27.7492  -16.6013 C   0  0  0  0  0  0  0  0  0  0  0  0
   33.5054  -27.8760  -16.7131 C   0  0  0  0  0  0  0  0  0  0  0  0
   34.3573  -27.1274  -15.9301 C   0  0  0  0  0  0  0  0  0  0  0  0
   33.7885  -26.2485  -15.0324 C   0  0  0  0  0  0  0  0  0  0  0  0
   32.4054  -26.1244  -14.9235 C   0  0  0  0  0  0  0  0  0  0  0  0
   27.9459  -26.0556  -16.6415 C   0  0  0  0  0  0  0  0  0  0  0  0
   27.3858  -26.3748  -15.5657 O   0  0  0  0  0  0  0  0  0  0  0  0
   24.5775  -25.7085  -15.1810 N   0  0  0  0  0  0  0  0  0  0  0  0
   24.5959  -24.4240  -15.8607 C   0  0  0  0  0  0  0  0  0  0  0  0
   24.1228  -23.4561  -15.2184 O   0  0  0  0  0  0  0  0  0  0  0  0
   25.1591  -24.3794  -17.2192 C   0  0  0  0  0  0  0  0  0  0  0  0
   25.6415  -25.7052  -17.6624 C   0  0  2  0  0  0  0  0  0  0  0  0
   27.1268  -25.7135  -17.7448 N   0  0  0  0  0  0  0  0  0  0  0  0
   25.1052  -26.1177  -18.9875 C   0  0  0  0  0  0  0  0  0  0  0  0
   23.9373  -26.6423  -19.0060 O   0  0  0  0  0  0  0  0  0  0  0  0
   25.7561  -25.9813  -20.1818 O   0  0  0  0  0  0  0  0  0  0  0  0
  2  1  1  6
  2  3  1  0
  3  4  1  0
  4  5  1  0
  6  5  1  0
  7  6  1  0
  8  9  2  0
  8  2  1  0
 10  8  1  0
 11 10  1  0
 11 12  1  1
 13 14  2  0
 13 12  1  0
 15 14  1  0
 16 15  2  0
 17 16  1  0
 17 18  2  0
 18 13  1  0
 19 26  1  0
 19 11  1  0
 20 19  2  0
 21 22  1  0
 22 23  2  0
 22 24  1  0
 25 24  1  6
 25 26  1  0
 25 27  1  0
 27 29  1  0
 28 27  2  0
M  END
$$$$
