KFN.pdb
     RDKit          3D

 29 29  0  0  1  0  0  0  0  0999 V2000
   22.3644  -12.8675  -16.5578 N   0  0  0  0  0  0  0  0  0  0  0  0
   21.3938  -11.8958  -17.0141 C   0  0  1  0  0  0  0  0  0  0  0  0
   20.0051  -12.4924  -17.0020 C   0  0  0  0  0  0  0  0  0  0  0  0
   19.8207  -13.5081  -18.0958 C   0  0  0  0  0  0  0  0  0  0  0  0
   18.3856  -13.9619  -18.1581 C   0  0  0  0  0  0  0  0  0  0  0  0
   18.1984  -14.9483  -19.3204 C   0  0  0  0  0  0  0  0  0  0  0  0
   16.8343  -15.4057  -19.2619 N   0  0  0  0  0  0  0  0  0  0  0  0
   21.3592  -10.7141  -16.0804 C   0  0  0  0  0  0  0  0  0  0  0  0
   21.2806  -10.8738  -14.8261 O   0  0  0  0  0  0  0  0  0  0  0  0
   21.4121   -9.3747  -16.5506 N   0  0  0  0  0  0  0  0  0  0  0  0
   21.3517   -8.2282  -15.6934 C   0  0  1  0  0  0  0  0  0  0  0  0
   22.1430   -7.0524  -16.1683 C   0  0  0  0  0  0  0  0  0  0  0  0
   22.0044   -5.8533  -15.3402 C   0  0  0  0  0  0  0  0  0  0  0  0
   21.7796   -4.5984  -15.8747 C   0  0  0  0  0  0  0  0  0  0  0  0
   21.6528   -3.4753  -15.0740 C   0  0  0  0  0  0  0  0  0  0  0  0
   21.7462   -3.5628  -13.7018 C   0  0  0  0  0  0  0  0  0  0  0  0
   21.9703   -4.8101  -13.1579 C   0  0  0  0  0  0  0  0  0  0  0  0
   22.0972   -5.9368  -13.9672 C   0  0  0  0  0  0  0  0  0  0  0  0
   19.9262   -7.9020  -15.3949 C   0  0  0  0  0  0  0  0  0  0  0  0
   19.0220   -8.3045  -16.1652 O   0  0  0  0  0  0  0  0  0  0  0  0
   15.4735   -6.6943  -13.4323 N   0  0  0  0  0  0  0  0  0  0  0  0
   16.0431   -8.0176  -13.2405 C   0  0  0  0  0  0  0  0  0  0  0  0
   15.2458   -8.9091  -12.8625 O   0  0  0  0  0  0  0  0  0  0  0  0
   17.4810   -8.1856  -13.5034 C   0  0  0  0  0  0  0  0  0  0  0  0
   18.1248   -6.9131  -13.8942 C   0  0  2  0  0  0  0  0  0  0  0  0
   19.5481   -7.1450  -14.2594 N   0  0  0  0  0  0  0  0  0  0  0  0
   18.0871   -5.8780  -12.8260 C   0  0  0  0  0  0  0  0  0  0  0  0
   18.9159   -6.0082  -11.8587 O   0  0  0  0  0  0  0  0  0  0  0  0
   17.2428   -4.8034  -12.7949 O   0  0  0  0  0  0  0  0  0  0  0  0
  2  1  1  1
  2  3  1  0
  3  4  1  0
  4  5  1  0
  6  5  1  0
  7  6  1  0
  8  9  2  0
  8  2  1  0
 10  8  1  0
 11 10  1  0
 11 12  1  6
 13 14  2  0
 13 12  1  0
 15 14  1  0
 16 15  2  0
 17 16  1  0
 17 18  2  0
 18 13  1  0
 19 26  1  0
 19 11  1  0
 20 19  2  0
 21 22  1  0
 22 23  2  0
 22 24  1  0
 25 24  1  1
 25 26  1  0
 25 27  1  0
 27 29  1  0
 28 27  2  0
M  END
$$$$
