KFN.pdb
     RDKit          3D

 29 29  0  0  1  0  0  0  0  0999 V2000
   27.8944  -22.3797  -18.1723 N   0  0  0  0  0  0  0  0  0  0  0  0
   28.0156  -21.1896  -17.3577 C   0  0  1  0  0  0  0  0  0  0  0  0
   27.4980  -19.9832  -18.1069 C   0  0  0  0  0  0  0  0  0  0  0  0
   26.4131  -20.3505  -19.0818 C   0  0  0  0  0  0  0  0  0  0  0  0
   25.0554  -20.0921  -18.4823 C   0  0  0  0  0  0  0  0  0  0  0  0
   23.9619  -20.3664  -19.5252 C   0  0  0  0  0  0  0  0  0  0  0  0
   22.6979  -20.1816  -18.8607 N   0  0  0  0  0  0  0  0  0  0  0  0
   27.1700  -21.3172  -16.1175 C   0  0  0  0  0  0  0  0  0  0  0  0
   26.1544  -22.0741  -16.0934 O   0  0  0  0  0  0  0  0  0  0  0  0
   27.4626  -20.6047  -14.9239 N   0  0  0  0  0  0  0  0  0  0  0  0
   26.7252  -20.7584  -13.7051 C   0  0  1  0  0  0  0  0  0  0  0  0
   27.4305  -20.2648  -12.4833 C   0  0  0  0  0  0  0  0  0  0  0  0
   26.6347  -20.3274  -11.2563 C   0  0  0  0  0  0  0  0  0  0  0  0
   26.0933  -19.2043  -10.6591 C   0  0  0  0  0  0  0  0  0  0  0  0
   25.3440  -19.2843   -9.4969 C   0  0  0  0  0  0  0  0  0  0  0  0
   25.1056  -20.4950   -8.8833 C   0  0  0  0  0  0  0  0  0  0  0  0
   25.6412  -21.6220   -9.4706 C   0  0  0  0  0  0  0  0  0  0  0  0
   26.3940  -21.5366  -10.6395 C   0  0  0  0  0  0  0  0  0  0  0  0
   25.3576  -20.1848  -13.8726 C   0  0  0  0  0  0  0  0  0  0  0  0
   25.1911  -19.1773  -14.6008 O   0  0  0  0  0  0  0  0  0  0  0  0
   20.9654  -19.5740  -16.6266 N   0  0  0  0  0  0  0  0  0  0  0  0
   21.1577  -20.2125  -15.3352 C   0  0  0  0  0  0  0  0  0  0  0  0
   20.1264  -20.3606  -14.6368 O   0  0  0  0  0  0  0  0  0  0  0  0
   22.5243  -20.6194  -14.9725 C   0  0  0  0  0  0  0  0  0  0  0  0
   22.8358  -20.3156  -13.5592 C   0  0  2  0  0  0  0  0  0  0  0  0
   24.2233  -20.7411  -13.2330 N   0  0  0  0  0  0  0  0  0  0  0  0
   21.9140  -20.9749  -12.5951 C   0  0  0  0  0  0  0  0  0  0  0  0
   21.3741  -20.2313  -11.7033 O   0  0  0  0  0  0  0  0  0  0  0  0
   21.5979  -22.3047  -12.5855 O   0  0  0  0  0  0  0  0  0  0  0  0
  2  1  1  6
  2  3  1  0
  3  4  1  0
  4  5  1  0
  6  5  1  0
  7  6  1  0
  8  9  2  0
  8  2  1  0
 10  8  1  0
 11 10  1  0
 11 12  1  1
 13 14  2  0
 13 12  1  0
 15 14  1  0
 16 15  2  0
 17 16  1  0
 17 18  2  0
 18 13  1  0
 19 26  1  0
 19 11  1  0
 20 19  2  0
 21 22  1  0
 22 23  2  0
 22 24  1  0
 25 24  1  6
 25 26  1  0
 25 27  1  0
 27 29  1  0
 28 27  2  0
M  END
$$$$
