KFN.pdb
     RDKit          3D

 29 29  0  0  1  0  0  0  0  0999 V2000
   22.8913  -22.5467  -13.7454 N   0  0  0  0  0  0  0  0  0  0  0  0
   22.7307  -21.1107  -13.8268 C   0  0  1  0  0  0  0  0  0  0  0  0
   21.7175  -20.6353  -12.8109 C   0  0  0  0  0  0  0  0  0  0  0  0
   20.4333  -21.4140  -12.8917 C   0  0  0  0  0  0  0  0  0  0  0  0
   19.7561  -21.1789  -14.2167 C   0  0  0  0  0  0  0  0  0  0  0  0
   18.3999  -21.8991  -14.2466 C   0  0  0  0  0  0  0  0  0  0  0  0
   17.8465  -21.6892  -15.5592 N   0  0  0  0  0  0  0  0  0  0  0  0
   24.0273  -20.4204  -13.4922 C   0  0  0  0  0  0  0  0  0  0  0  0
   24.0855  -19.1606  -13.3723 O   0  0  0  0  0  0  0  0  0  0  0  0
   25.2384  -21.1362  -13.2957 N   0  0  0  0  0  0  0  0  0  0  0  0
   26.5113  -20.5074  -13.1029 C   0  0  1  0  0  0  0  0  0  0  0  0
   27.1867  -20.8493  -11.8141 C   0  0  0  0  0  0  0  0  0  0  0  0
   26.3673  -20.6264  -10.6218 C   0  0  0  0  0  0  0  0  0  0  0  0
   25.5876  -21.6175  -10.0554 C   0  0  0  0  0  0  0  0  0  0  0  0
   24.8177  -21.3863   -8.9274 C   0  0  0  0  0  0  0  0  0  0  0  0
   24.7968  -20.1500   -8.3187 C   0  0  0  0  0  0  0  0  0  0  0  0
   25.5711  -19.1538   -8.8755 C   0  0  0  0  0  0  0  0  0  0  0  0
   26.3438  -19.3912  -10.0100 C   0  0  0  0  0  0  0  0  0  0  0  0
   27.3697  -20.7388  -14.3017 C   0  0  0  0  0  0  0  0  0  0  0  0
   28.5934  -20.9710  -14.1544 O   0  0  0  0  0  0  0  0  0  0  0  0
   26.9156  -25.1627  -17.4687 N   0  0  0  0  0  0  0  0  0  0  0  0
   27.7192  -23.9701  -17.2581 C   0  0  0  0  0  0  0  0  0  0  0  0
   28.7295  -23.8520  -17.9921 O   0  0  0  0  0  0  0  0  0  0  0  0
   27.2795  -23.0265  -16.2184 C   0  0  0  0  0  0  0  0  0  0  0  0
   27.3280  -21.6247  -16.6867 C   0  0  2  0  0  0  0  0  0  0  0  0
   26.8500  -20.7063  -15.6186 N   0  0  0  0  0  0  0  0  0  0  0  0
   26.5094  -21.3788  -17.9047 C   0  0  0  0  0  0  0  0  0  0  0  0
   27.1244  -20.9540  -18.9443 O   0  0  0  0  0  0  0  0  0  0  0  0
   25.1594  -21.5701  -18.0026 O   0  0  0  0  0  0  0  0  0  0  0  0
  2  1  1  1
  2  3  1  0
  3  4  1  0
  4  5  1  0
  6  5  1  0
  7  6  1  0
  8  9  2  0
  8  2  1  0
 10  8  1  0
 11 10  1  0
 11 12  1  1
 13 14  2  0
 13 12  1  0
 15 14  1  0
 16 15  2  0
 17 16  1  0
 17 18  2  0
 18 13  1  0
 19 26  1  0
 19 11  1  0
 20 19  2  0
 21 22  1  0
 22 23  2  0
 22 24  1  0
 25 24  1  1
 25 26  1  0
 25 27  1  0
 27 29  1  0
 28 27  2  0
M  END
$$$$
