FDA.pdb
     RDKit          3D

 25 25  0  0  1  0  0  0  0  0999 V2000
    7.5748  -15.6423   26.1998 N   0  0  0  0  0  0  0  0  0  0  0  0
    6.9763  -16.2251   25.0037 C   0  0  1  0  0  0  0  0  0  0  0  0
    6.6391  -15.0167   24.1079 C   0  0  0  0  0  0  0  0  0  0  0  0
    6.7274  -13.8107   24.9520 C   0  0  0  0  0  0  0  0  0  0  0  0
    7.6877  -12.8239   24.7770 C   0  0  0  0  0  0  0  0  0  0  0  0
    7.7539  -11.7164   25.5847 C   0  0  0  0  0  0  0  0  0  0  0  0
    6.8454  -11.5574   26.6113 C   0  0  0  0  0  0  0  0  0  0  0  0
    5.8909  -12.5186   26.8022 C   0  0  0  0  0  0  0  0  0  0  0  0
    5.8129  -13.6442   25.9916 C   0  0  0  0  0  0  0  0  0  0  0  0
    8.0473  -16.9666   24.2684 C   0  0  0  0  0  0  0  0  0  0  0  0
    7.7810  -17.6893   23.2586 O   0  0  0  0  0  0  0  0  0  0  0  0
    9.3819  -16.8656   24.6992 N   0  0  0  0  0  0  0  0  0  0  0  0
   10.4620  -17.7668   24.3038 C   0  0  1  0  0  0  0  0  0  0  0  0
   11.5483  -16.8084   23.7499 C   0  0  0  0  0  0  0  0  0  0  0  0
   11.2817  -16.4526   22.3421 C   0  0  0  0  0  0  0  0  0  0  0  0
   11.4335  -15.2523   21.9766 O   0  0  0  0  0  0  0  0  0  0  0  0
   10.9617  -18.4136   25.5430 C   0  0  0  0  0  0  0  0  0  0  0  0
   11.5482  -17.7544   26.4671 O   0  0  0  0  0  0  0  0  0  0  0  0
   10.8760  -17.4315   21.4637 O   0  0  0  0  0  0  0  0  0  0  0  0
   10.8959  -21.9534   27.0494 C   0  0  0  0  0  0  0  0  0  0  0  0
   11.2853  -20.4877   26.9845 C   0  0  2  0  0  0  0  0  0  0  0  0
   10.8277  -19.8212   25.8045 N   0  0  0  0  0  0  0  0  0  0  0  0
   12.7399  -20.3021   27.1231 C   0  0  0  0  0  0  0  0  0  0  0  0
   13.4672  -20.2754   26.1083 O   0  0  0  0  0  0  0  0  0  0  0  0
   13.3021  -20.1578   28.3662 O   0  0  0  0  0  0  0  0  0  0  0  0
  2  1  1  1
  2 10  1  0
  3  2  1  0
  4  9  2  0
  4  3  1  0
  5  4  1  0
  6  7  1  0
  6  5  2  0
  7  8  2  0
  8  9  1  0
 10 12  1  0
 11 10  2  0
 12 13  1  0
 13 17  1  0
 13 14  1  1
 15 19  1  0
 15 14  1  0
 16 15  2  0
 17 22  1  0
 17 18  2  0
 21 20  1  6
 22 21  1  0
 23 21  1  0
 23 25  1  0
 24 23  2  0
M  END
$$$$
