FDA.pdb
     RDKit          3D

 25 25  0  0  1  0  0  0  0  0999 V2000
    6.2356  -17.1654   23.9896 N   0  0  0  0  0  0  0  0  0  0  0  0
    7.2033  -16.1336   24.3468 C   0  0  1  0  0  0  0  0  0  0  0  0
    6.8000  -15.6962   25.7690 C   0  0  0  0  0  0  0  0  0  0  0  0
    6.7823  -14.2217   25.7826 C   0  0  0  0  0  0  0  0  0  0  0  0
    7.8931  -13.4413   25.4937 C   0  0  0  0  0  0  0  0  0  0  0  0
    7.8515  -12.0699   25.5247 C   0  0  0  0  0  0  0  0  0  0  0  0
    6.6765  -11.4237   25.8511 C   0  0  0  0  0  0  0  0  0  0  0  0
    5.5697  -12.1738   26.1404 C   0  0  0  0  0  0  0  0  0  0  0  0
    5.5984  -13.5625   26.1124 C   0  0  0  0  0  0  0  0  0  0  0  0
    8.5377  -16.7904   24.5063 C   0  0  0  0  0  0  0  0  0  0  0  0
    8.6481  -17.9632   24.9809 O   0  0  0  0  0  0  0  0  0  0  0  0
    9.7011  -16.0996   24.1238 N   0  0  0  0  0  0  0  0  0  0  0  0
   11.0608  -16.6253   24.2243 C   0  0  1  0  0  0  0  0  0  0  0  0
   11.8553  -15.7713   23.2021 C   0  0  0  0  0  0  0  0  0  0  0  0
   13.2582  -16.2205   23.1040 C   0  0  0  0  0  0  0  0  0  0  0  0
   13.5044  -17.4600   23.1156 O   0  0  0  0  0  0  0  0  0  0  0  0
   11.5411  -16.3239   25.5962 C   0  0  0  0  0  0  0  0  0  0  0  0
   12.6614  -16.7530   26.0358 O   0  0  0  0  0  0  0  0  0  0  0  0
   14.2614  -15.2836   23.0026 O   0  0  0  0  0  0  0  0  0  0  0  0
   10.6357  -13.9401   28.4173 C   0  0  0  0  0  0  0  0  0  0  0  0
   11.1989  -15.2415   27.8757 C   0  0  2  0  0  0  0  0  0  0  0  0
   10.7937  -15.5314   26.5348 N   0  0  0  0  0  0  0  0  0  0  0  0
   10.8721  -16.3830   28.7472 C   0  0  0  0  0  0  0  0  0  0  0  0
   11.2177  -16.3737   29.9473 O   0  0  0  0  0  0  0  0  0  0  0  0
   10.1872  -17.4608   28.2456 O   0  0  0  0  0  0  0  0  0  0  0  0
  2  1  1  1
  2 10  1  0
  3  2  1  0
  4  9  2  0
  4  3  1  0
  5  4  1  0
  6  7  1  0
  6  5  2  0
  7  8  2  0
  8  9  1  0
 10 12  1  0
 11 10  2  0
 12 13  1  0
 13 17  1  0
 13 14  1  6
 15 19  1  0
 15 14  1  0
 16 15  2  0
 17 22  1  0
 17 18  2  0
 21 20  1  1
 22 21  1  0
 23 21  1  0
 23 25  1  0
 24 23  2  0
M  END
$$$$
