FDA.pdb
     RDKit          3D

 25 25  0  0  1  0  0  0  0  0999 V2000
    5.8505  -16.8999   24.7185 N   0  0  0  0  0  0  0  0  0  0  0  0
    6.9548  -15.9491   24.7887 C   0  0  1  0  0  0  0  0  0  0  0  0
    6.9217  -15.4190   26.2359 C   0  0  0  0  0  0  0  0  0  0  0  0
    6.6428  -13.9727   26.1638 C   0  0  0  0  0  0  0  0  0  0  0  0
    5.4051  -13.4174   26.4577 C   0  0  0  0  0  0  0  0  0  0  0  0
    5.1699  -12.0682   26.3714 C   0  0  0  0  0  0  0  0  0  0  0  0
    6.1831  -11.2159   25.9819 C   0  0  0  0  0  0  0  0  0  0  0  0
    7.4108  -11.7423   25.6865 C   0  0  0  0  0  0  0  0  0  0  0  0
    7.6620  -13.1061   25.7701 C   0  0  0  0  0  0  0  0  0  0  0  0
    8.2325  -16.7202   24.6868 C   0  0  0  0  0  0  0  0  0  0  0  0
    8.3920  -17.8243   25.2938 O   0  0  0  0  0  0  0  0  0  0  0  0
    9.2856  -16.2174   23.9024 N   0  0  0  0  0  0  0  0  0  0  0  0
   10.6530  -16.7325   23.9034 C   0  0  1  0  0  0  0  0  0  0  0  0
   11.2898  -16.0705   22.6538 C   0  0  0  0  0  0  0  0  0  0  0  0
   12.6648  -16.5595   22.4303 C   0  0  0  0  0  0  0  0  0  0  0  0
   13.3992  -15.9564   21.5972 O   0  0  0  0  0  0  0  0  0  0  0  0
   11.3116  -16.2099   25.1269 C   0  0  0  0  0  0  0  0  0  0  0  0
   12.3730  -15.5003   25.0795 O   0  0  0  0  0  0  0  0  0  0  0  0
   13.1135  -17.6559   23.1310 O   0  0  0  0  0  0  0  0  0  0  0  0
   10.9224  -14.5181   27.9820 C   0  0  0  0  0  0  0  0  0  0  0  0
   11.3806  -15.9282   27.6568 C   0  0  2  0  0  0  0  0  0  0  0  0
   10.8145  -16.4555   26.4536 N   0  0  0  0  0  0  0  0  0  0  0  0
   11.1237  -16.8568   28.7709 C   0  0  0  0  0  0  0  0  0  0  0  0
   11.5528  -16.5968   29.9145 O   0  0  0  0  0  0  0  0  0  0  0  0
   10.4124  -18.0105   28.5580 O   0  0  0  0  0  0  0  0  0  0  0  0
  2  1  1  1
  2 10  1  0
  3  2  1  0
  4  9  2  0
  4  3  1  0
  5  4  1  0
  6  7  1  0
  6  5  2  0
  7  8  2  0
  8  9  1  0
 10 12  1  0
 11 10  2  0
 12 13  1  0
 13 17  1  0
 13 14  1  6
 15 19  1  0
 15 14  1  0
 16 15  2  0
 17 22  1  0
 17 18  2  0
 21 20  1  1
 22 21  1  0
 23 21  1  0
 23 25  1  0
 24 23  2  0
M  END
$$$$
