FDA.pdb
     RDKit          3D

 25 25  0  0  1  0  0  0  0  0999 V2000
    5.9463  -17.4626   24.1469 N   0  0  0  0  0  0  0  0  0  0  0  0
    6.8777  -16.3653   24.3855 C   0  0  1  0  0  0  0  0  0  0  0  0
    6.5762  -15.9038   25.8252 C   0  0  0  0  0  0  0  0  0  0  0  0
    6.6586  -14.4315   25.8369 C   0  0  0  0  0  0  0  0  0  0  0  0
    5.6170  -13.6109   26.2473 C   0  0  0  0  0  0  0  0  0  0  0  0
    5.7168  -12.2423   26.2374 C   0  0  0  0  0  0  0  0  0  0  0  0
    6.8824  -11.6398   25.8095 C   0  0  0  0  0  0  0  0  0  0  0  0
    7.9213  -12.4297   25.3997 C   0  0  0  0  0  0  0  0  0  0  0  0
    7.8332  -13.8163   25.4050 C   0  0  0  0  0  0  0  0  0  0  0  0
    8.2583  -16.9383   24.4426 C   0  0  0  0  0  0  0  0  0  0  0  0
    8.4767  -18.0989   24.9095 O   0  0  0  0  0  0  0  0  0  0  0  0
    9.3441  -16.1804   23.9697 N   0  0  0  0  0  0  0  0  0  0  0  0
   10.7409  -16.6086   23.9949 C   0  0  1  0  0  0  0  0  0  0  0  0
   11.3817  -15.8217   22.8220 C   0  0  0  0  0  0  0  0  0  0  0  0
   12.8087  -16.1648   22.6628 C   0  0  0  0  0  0  0  0  0  0  0  0
   13.2674  -17.1691   23.2777 O   0  0  0  0  0  0  0  0  0  0  0  0
   11.3162  -16.1342   25.2785 C   0  0  0  0  0  0  0  0  0  0  0  0
   12.5753  -16.0105   25.4567 O   0  0  0  0  0  0  0  0  0  0  0  0
   13.6036  -15.3866   21.8521 O   0  0  0  0  0  0  0  0  0  0  0  0
   10.7718  -13.7997   27.8736 C   0  0  0  0  0  0  0  0  0  0  0  0
   11.0177  -15.2822   27.6596 C   0  0  2  0  0  0  0  0  0  0  0  0
   10.5126  -15.7770   26.4162 N   0  0  0  0  0  0  0  0  0  0  0  0
   10.4800  -16.0908   28.7671 C   0  0  0  0  0  0  0  0  0  0  0  0
   10.8089  -15.8371   29.9448 O   0  0  0  0  0  0  0  0  0  0  0  0
    9.6161  -17.1252   28.5105 O   0  0  0  0  0  0  0  0  0  0  0  0
  2  1  1  1
  2 10  1  0
  3  2  1  0
  4  9  2  0
  4  3  1  0
  5  4  1  0
  6  7  1  0
  6  5  2  0
  7  8  2  0
  8  9  1  0
 10 12  1  0
 11 10  2  0
 12 13  1  0
 13 17  1  0
 13 14  1  6
 15 19  1  0
 15 14  1  0
 16 15  2  0
 17 22  1  0
 17 18  2  0
 21 20  1  1
 22 21  1  0
 23 21  1  0
 23 25  1  0
 24 23  2  0
M  END
$$$$
