FDA.pdb
     RDKit          3D

 25 25  0  0  1  0  0  0  0  0999 V2000
    5.7090  -16.9003   25.0528 N   0  0  0  0  0  0  0  0  0  0  0  0
    6.8737  -16.1296   24.6309 C   0  0  1  0  0  0  0  0  0  0  0  0
    7.4269  -15.5151   25.9320 C   0  0  0  0  0  0  0  0  0  0  0  0
    7.0796  -14.0819   25.9188 C   0  0  0  0  0  0  0  0  0  0  0  0
    5.9606  -13.5608   26.5534 C   0  0  0  0  0  0  0  0  0  0  0  0
    5.6549  -12.2234   26.5157 C   0  0  0  0  0  0  0  0  0  0  0  0
    6.4733  -11.3490   25.8300 C   0  0  0  0  0  0  0  0  0  0  0  0
    7.5811  -11.8416   25.1964 C   0  0  0  0  0  0  0  0  0  0  0  0
    7.9019  -13.1930   25.2271 C   0  0  0  0  0  0  0  0  0  0  0  0
    7.9243  -17.0941   24.1797 C   0  0  0  0  0  0  0  0  0  0  0  0
    8.0520  -18.2369   24.7186 O   0  0  0  0  0  0  0  0  0  0  0  0
    8.7939  -16.7341   23.1351 N   0  0  0  0  0  0  0  0  0  0  0  0
    9.8391  -17.5911   22.5800 C   0  0  1  0  0  0  0  0  0  0  0  0
   10.1932  -16.9049   21.2350 C   0  0  0  0  0  0  0  0  0  0  0  0
   11.1497  -17.7153   20.4553 C   0  0  0  0  0  0  0  0  0  0  0  0
   11.5298  -17.2926   19.3266 O   0  0  0  0  0  0  0  0  0  0  0  0
   11.0025  -17.5049   23.4980 C   0  0  0  0  0  0  0  0  0  0  0  0
   11.6451  -16.4164   23.6836 O   0  0  0  0  0  0  0  0  0  0  0  0
   11.6036  -18.9072   20.9729 O   0  0  0  0  0  0  0  0  0  0  0  0
   11.1147  -17.8852   26.5722 C   0  0  0  0  0  0  0  0  0  0  0  0
   12.0341  -18.5624   25.5721 C   0  0  2  0  0  0  0  0  0  0  0  0
   11.4976  -18.6276   24.2477 N   0  0  0  0  0  0  0  0  0  0  0  0
   12.4223  -19.9128   26.0139 C   0  0  0  0  0  0  0  0  0  0  0  0
   11.6422  -20.8740   25.8492 O   0  0  0  0  0  0  0  0  0  0  0  0
   13.6414  -20.1211   26.6077 O   0  0  0  0  0  0  0  0  0  0  0  0
  2  1  1  1
  2 10  1  0
  3  2  1  0
  4  9  2  0
  4  3  1  0
  5  4  1  0
  6  7  1  0
  6  5  2  0
  7  8  2  0
  8  9  1  0
 10 12  1  0
 11 10  2  0
 12 13  1  0
 13 17  1  0
 13 14  1  6
 15 19  1  0
 15 14  1  0
 16 15  2  0
 17 22  1  0
 17 18  2  0
 21 20  1  1
 22 21  1  0
 23 21  1  0
 23 25  1  0
 24 23  2  0
M  END
$$$$
