FDA.pdb
     RDKit          3D

 25 25  0  0  1  0  0  0  0  0999 V2000
    9.3899  -16.2138   21.4393 N   0  0  0  0  0  0  0  0  0  0  0  0
    9.1253  -15.2729   22.5224 C   0  0  1  0  0  0  0  0  0  0  0  0
    7.6418  -14.8897   22.3525 C   0  0  0  0  0  0  0  0  0  0  0  0
    7.5345  -14.1042   21.1091 C   0  0  0  0  0  0  0  0  0  0  0  0
    6.8097  -14.5217   20.0014 C   0  0  0  0  0  0  0  0  0  0  0  0
    6.7358  -13.7754   18.8521 C   0  0  0  0  0  0  0  0  0  0  0  0
    7.3959  -12.5660   18.7725 C   0  0  0  0  0  0  0  0  0  0  0  0
    8.1170  -12.1358   19.8525 C   0  0  0  0  0  0  0  0  0  0  0  0
    8.1997  -12.8816   21.0219 C   0  0  0  0  0  0  0  0  0  0  0  0
    9.1860  -16.0278   23.8123 C   0  0  0  0  0  0  0  0  0  0  0  0
    8.3285  -15.8432   24.7307 O   0  0  0  0  0  0  0  0  0  0  0  0
   10.2132  -16.9653   24.0198 N   0  0  0  0  0  0  0  0  0  0  0  0
   10.4921  -17.6384   25.2864 C   0  0  1  0  0  0  0  0  0  0  0  0
   11.6913  -18.5620   24.9488 C   0  0  0  0  0  0  0  0  0  0  0  0
   12.0833  -19.3791   26.1143 C   0  0  0  0  0  0  0  0  0  0  0  0
   11.2905  -19.4636   27.0948 O   0  0  0  0  0  0  0  0  0  0  0  0
   10.9303  -16.5930   26.2449 C   0  0  0  0  0  0  0  0  0  0  0  0
   12.0923  -16.0644   26.1927 O   0  0  0  0  0  0  0  0  0  0  0  0
   13.2976  -20.0271   26.1067 O   0  0  0  0  0  0  0  0  0  0  0  0
    9.6650  -13.9094   28.3740 C   0  0  0  0  0  0  0  0  0  0  0  0
   10.5045  -15.1727   28.3152 C   0  0  2  0  0  0  0  0  0  0  0  0
   10.0918  -16.0926   27.3005 N   0  0  0  0  0  0  0  0  0  0  0  0
   10.5480  -15.8610   29.6166 C   0  0  0  0  0  0  0  0  0  0  0  0
   10.9347  -15.2507   30.6352 O   0  0  0  0  0  0  0  0  0  0  0  0
   10.1641  -17.1744   29.7161 O   0  0  0  0  0  0  0  0  0  0  0  0
  2  1  1  6
  2 10  1  0
  3  2  1  0
  4  9  2  0
  4  3  1  0
  5  4  1  0
  6  7  1  0
  6  5  2  0
  7  8  2  0
  8  9  1  0
 10 12  1  0
 11 10  2  0
 12 13  1  0
 13 17  1  0
 13 14  1  6
 15 19  1  0
 15 14  1  0
 16 15  2  0
 17 22  1  0
 17 18  2  0
 21 20  1  1
 22 21  1  0
 23 21  1  0
 23 25  1  0
 24 23  2  0
M  END
$$$$
