FDA.pdb
     RDKit          3D

 25 25  0  0  1  0  0  0  0  0999 V2000
    6.2534  -17.2469   23.6602 N   0  0  0  0  0  0  0  0  0  0  0  0
    7.1595  -16.2193   24.1617 C   0  0  1  0  0  0  0  0  0  0  0  0
    6.6783  -15.9431   25.6000 C   0  0  0  0  0  0  0  0  0  0  0  0
    6.7538  -14.4858   25.8123 C   0  0  0  0  0  0  0  0  0  0  0  0
    5.6971  -13.7284   26.2982 C   0  0  0  0  0  0  0  0  0  0  0  0
    5.7911  -12.3708   26.4757 C   0  0  0  0  0  0  0  0  0  0  0  0
    6.9661  -11.7157   26.1677 C   0  0  0  0  0  0  0  0  0  0  0  0
    8.0201  -12.4429   25.6863 C   0  0  0  0  0  0  0  0  0  0  0  0
    7.9380  -13.8175   25.5023 C   0  0  0  0  0  0  0  0  0  0  0  0
    8.5134  -16.8361   24.3170 C   0  0  0  0  0  0  0  0  0  0  0  0
    8.6551  -18.0401   24.6955 O   0  0  0  0  0  0  0  0  0  0  0  0
    9.6601  -16.0715   24.0389 N   0  0  0  0  0  0  0  0  0  0  0  0
   11.0362  -16.5137   24.2533 C   0  0  1  0  0  0  0  0  0  0  0  0
   11.8588  -15.6141   23.2945 C   0  0  0  0  0  0  0  0  0  0  0  0
   11.9831  -16.2283   21.9578 C   0  0  0  0  0  0  0  0  0  0  0  0
   12.0550  -17.4869   21.8686 O   0  0  0  0  0  0  0  0  0  0  0  0
   11.3834  -16.1827   25.6581 C   0  0  0  0  0  0  0  0  0  0  0  0
   12.5493  -16.3881   26.1386 O   0  0  0  0  0  0  0  0  0  0  0  0
   12.0177  -15.4201   20.8442 O   0  0  0  0  0  0  0  0  0  0  0  0
    9.9625  -13.9113   28.3136 C   0  0  0  0  0  0  0  0  0  0  0  0
   10.7706  -15.1251   27.8921 C   0  0  2  0  0  0  0  0  0  0  0  0
   10.4464  -15.6084   26.5854 N   0  0  0  0  0  0  0  0  0  0  0  0
   10.6557  -16.2235   28.8667 C   0  0  0  0  0  0  0  0  0  0  0  0
   10.1364  -17.3080   28.5296 O   0  0  0  0  0  0  0  0  0  0  0  0
   11.1182  -16.0607   30.1480 O   0  0  0  0  0  0  0  0  0  0  0  0
  2  1  1  1
  2 10  1  0
  3  2  1  0
  4  9  2  0
  4  3  1  0
  5  4  1  0
  6  7  1  0
  6  5  2  0
  7  8  2  0
  8  9  1  0
 10 12  1  0
 11 10  2  0
 12 13  1  0
 13 17  1  0
 13 14  1  6
 15 19  1  0
 15 14  1  0
 16 15  2  0
 17 22  1  0
 17 18  2  0
 21 20  1  1
 22 21  1  0
 23 21  1  0
 23 25  1  0
 24 23  2  0
M  END
$$$$
