FDA.pdb
     RDKit          3D

 25 25  0  0  1  0  0  0  0  0999 V2000
    6.4855  -15.6339   24.6266 N   0  0  0  0  0  0  0  0  0  0  0  0
    7.1084  -15.2193   23.3742 C   0  0  1  0  0  0  0  0  0  0  0  0
    7.0559  -13.6789   23.4037 C   0  0  0  0  0  0  0  0  0  0  0  0
    7.0950  -13.2688   24.8197 C   0  0  0  0  0  0  0  0  0  0  0  0
    8.2734  -13.0762   25.5273 C   0  0  0  0  0  0  0  0  0  0  0  0
    8.2807  -12.7050   26.8485 C   0  0  0  0  0  0  0  0  0  0  0  0
    7.0885  -12.5109   27.5160 C   0  0  0  0  0  0  0  0  0  0  0  0
    5.9150  -12.6963   26.8377 C   0  0  0  0  0  0  0  0  0  0  0  0
    5.8938  -13.0717   25.5002 C   0  0  0  0  0  0  0  0  0  0  0  0
    8.5630  -15.5597   23.4494 C   0  0  0  0  0  0  0  0  0  0  0  0
    9.4314  -14.9134   22.7854 O   0  0  0  0  0  0  0  0  0  0  0  0
    8.9861  -16.6182   24.2727 N   0  0  0  0  0  0  0  0  0  0  0  0
   10.3545  -17.1242   24.3524 C   0  0  1  0  0  0  0  0  0  0  0  0
   10.2724  -18.2184   25.4484 C   0  0  0  0  0  0  0  0  0  0  0  0
   10.2742  -17.6245   26.8000 C   0  0  0  0  0  0  0  0  0  0  0  0
   10.8107  -16.4928   26.9686 O   0  0  0  0  0  0  0  0  0  0  0  0
   10.6584  -17.7586   23.0451 C   0  0  0  0  0  0  0  0  0  0  0  0
   10.1740  -18.8919   22.7085 O   0  0  0  0  0  0  0  0  0  0  0  0
    9.6942  -18.3136   27.8408 O   0  0  0  0  0  0  0  0  0  0  0  0
   11.5110  -16.7798   19.6174 C   0  0  0  0  0  0  0  0  0  0  0  0
   11.8122  -17.7137   20.7754 C   0  0  2  0  0  0  0  0  0  0  0  0
   11.5136  -17.1563   22.0585 N   0  0  0  0  0  0  0  0  0  0  0  0
   13.2094  -18.1792   20.7530 C   0  0  0  0  0  0  0  0  0  0  0  0
   13.5827  -18.9984   19.8875 O   0  0  0  0  0  0  0  0  0  0  0  0
   14.1066  -17.7154   21.6815 O   0  0  0  0  0  0  0  0  0  0  0  0
  2  1  1  1
  2 10  1  0
  3  2  1  0
  4  9  2  0
  4  3  1  0
  5  4  1  0
  6  7  1  0
  6  5  2  0
  7  8  2  0
  8  9  1  0
 10 12  1  0
 11 10  2  0
 12 13  1  0
 13 17  1  0
 13 14  1  1
 15 19  1  0
 15 14  1  0
 16 15  2  0
 17 22  1  0
 17 18  2  0
 21 20  1  6
 22 21  1  0
 23 21  1  0
 23 25  1  0
 24 23  2  0
M  END
$$$$
