FDA.pdb
     RDKit          3D

 25 25  0  0  1  0  0  0  0  0999 V2000
    9.4088  -17.0166   19.0610 N   0  0  0  0  0  0  0  0  0  0  0  0
   10.3060  -16.1417   19.8079 C   0  0  1  0  0  0  0  0  0  0  0  0
    9.4323  -15.5585   20.9362 C   0  0  0  0  0  0  0  0  0  0  0  0
    8.8111  -14.3272   20.4139 C   0  0  0  0  0  0  0  0  0  0  0  0
    9.3029  -13.6274   19.3208 C   0  0  0  0  0  0  0  0  0  0  0  0
    8.7113  -12.4772   18.8624 C   0  0  0  0  0  0  0  0  0  0  0  0
    7.5885  -11.9814   19.4936 C   0  0  0  0  0  0  0  0  0  0  0  0
    7.0876  -12.6550   20.5737 C   0  0  0  0  0  0  0  0  0  0  0  0
    7.6769  -13.8205   21.0476 C   0  0  0  0  0  0  0  0  0  0  0  0
   11.3139  -17.0015   20.5024 C   0  0  0  0  0  0  0  0  0  0  0  0
   11.0753  -18.2196   20.7708 O   0  0  0  0  0  0  0  0  0  0  0  0
   12.5567  -16.4555   20.8691 N   0  0  0  0  0  0  0  0  0  0  0  0
   13.6307  -17.1870   21.5372 C   0  0  1  0  0  0  0  0  0  0  0  0
   14.8614  -16.2590   21.3662 C   0  0  0  0  0  0  0  0  0  0  0  0
   15.4963  -16.4482   20.0468 C   0  0  0  0  0  0  0  0  0  0  0  0
   16.1071  -15.4762   19.5184 O   0  0  0  0  0  0  0  0  0  0  0  0
   13.2706  -17.2672   22.9751 C   0  0  0  0  0  0  0  0  0  0  0  0
   13.4105  -16.2761   23.7691 O   0  0  0  0  0  0  0  0  0  0  0  0
   15.4089  -17.6732   19.4252 O   0  0  0  0  0  0  0  0  0  0  0  0
   11.3481  -19.6482   25.2436 C   0  0  0  0  0  0  0  0  0  0  0  0
   12.3988  -18.5872   24.9707 C   0  0  2  0  0  0  0  0  0  0  0  0
   12.7387  -18.4545   23.5876 N   0  0  0  0  0  0  0  0  0  0  0  0
   13.6218  -18.8135   25.7596 C   0  0  0  0  0  0  0  0  0  0  0  0
   14.6812  -19.1493   25.1900 O   0  0  0  0  0  0  0  0  0  0  0  0
   13.6032  -18.6567   27.1224 O   0  0  0  0  0  0  0  0  0  0  0  0
  2  1  1  6
  2 10  1  0
  3  2  1  0
  4  9  2  0
  4  3  1  0
  5  4  1  0
  6  7  1  0
  6  5  2  0
  7  8  2  0
  8  9  1  0
 10 12  1  0
 11 10  2  0
 12 13  1  0
 13 17  1  0
 13 14  1  1
 15 19  1  0
 15 14  1  0
 16 15  2  0
 17 22  1  0
 17 18  2  0
 21 20  1  6
 22 21  1  0
 23 21  1  0
 23 25  1  0
 24 23  2  0
M  END
$$$$
