FDA.pdb
     RDKit          3D

 25 25  0  0  1  0  0  0  0  0999 V2000
    7.2360  -17.8965   19.0062 N   0  0  0  0  0  0  0  0  0  0  0  0
    8.2195  -17.0232   19.6376 C   0  0  1  0  0  0  0  0  0  0  0  0
    7.4590  -16.3562   20.8008 C   0  0  0  0  0  0  0  0  0  0  0  0
    7.5364  -14.8983   20.5926 C   0  0  0  0  0  0  0  0  0  0  0  0
    6.8040  -14.2245   19.6251 C   0  0  0  0  0  0  0  0  0  0  0  0
    6.9037  -12.8676   19.4454 C   0  0  0  0  0  0  0  0  0  0  0  0
    7.7540  -12.1280   20.2421 C   0  0  0  0  0  0  0  0  0  0  0  0
    8.4862  -12.7723   21.2014 C   0  0  0  0  0  0  0  0  0  0  0  0
    8.3943  -14.1452   21.3937 C   0  0  0  0  0  0  0  0  0  0  0  0
    9.2492  -17.8884   20.2923 C   0  0  0  0  0  0  0  0  0  0  0  0
    8.9907  -19.0829   20.6376 O   0  0  0  0  0  0  0  0  0  0  0  0
   10.5354  -17.3742   20.5340 N   0  0  0  0  0  0  0  0  0  0  0  0
   11.6476  -18.1298   21.1058 C   0  0  1  0  0  0  0  0  0  0  0  0
   12.8887  -17.5573   20.3727 C   0  0  0  0  0  0  0  0  0  0  0  0
   14.1288  -18.2226   20.8186 C   0  0  0  0  0  0  0  0  0  0  0  0
   14.0816  -19.4400   21.1545 O   0  0  0  0  0  0  0  0  0  0  0  0
   11.7184  -17.7736   22.5452 C   0  0  0  0  0  0  0  0  0  0  0  0
   12.5938  -18.2750   23.3292 O   0  0  0  0  0  0  0  0  0  0  0  0
   15.3029  -17.5053   20.8583 O   0  0  0  0  0  0  0  0  0  0  0  0
    9.1464  -16.8321   24.9893 C   0  0  0  0  0  0  0  0  0  0  0  0
   10.6040  -16.7232   24.5797 C   0  0  2  0  0  0  0  0  0  0  0  0
   10.8175  -16.8435   23.1705 N   0  0  0  0  0  0  0  0  0  0  0  0
   11.4460  -17.6999   25.2913 C   0  0  0  0  0  0  0  0  0  0  0  0
   12.1724  -17.3290   26.2370 O   0  0  0  0  0  0  0  0  0  0  0  0
   11.4363  -19.0204   24.9192 O   0  0  0  0  0  0  0  0  0  0  0  0
  2  1  1  1
  2 10  1  0
  3  2  1  0
  4  9  2  0
  4  3  1  0
  5  4  1  0
  6  7  1  0
  6  5  2  0
  7  8  2  0
  8  9  1  0
 10 12  1  0
 11 10  2  0
 12 13  1  0
 13 17  1  0
 13 14  1  6
 15 19  1  0
 15 14  1  0
 16 15  2  0
 17 22  1  0
 17 18  2  0
 21 20  1  6
 22 21  1  0
 23 21  1  0
 23 25  1  0
 24 23  2  0
M  END
$$$$
