FVH.pdb
     RDKit          3D

 29 30  0  0  1  0  0  0  0  0999 V2000
    5.3586  -19.8075   20.7781 N   0  0  0  0  0  0  0  0  0  0  0  0
    5.4677  -18.6198   21.5684 C   0  0  1  0  0  0  0  0  0  0  0  0
    4.8856  -18.7996   22.9550 C   0  0  0  0  0  0  0  0  0  0  0  0
    3.4880  -19.2465   22.8226 C   0  0  0  0  0  0  0  0  0  0  0  0
    2.5665  -18.5009   22.1285 C   0  0  0  0  0  0  0  0  0  0  0  0
    1.2425  -18.9129   22.0028 C   0  0  0  0  0  0  0  0  0  0  0  0
    0.8452  -20.0923   22.5854 C   0  0  0  0  0  0  0  0  0  0  0  0
    1.7571  -20.8621   23.2911 C   0  0  0  0  0  0  0  0  0  0  0  0
    3.0804  -20.4213   23.3998 C   0  0  0  0  0  0  0  0  0  0  0  0
    6.8331  -18.0950   21.6677 C   0  0  0  0  0  0  0  0  0  0  0  0
    7.8497  -18.8239   21.4510 O   0  0  0  0  0  0  0  0  0  0  0  0
    7.4593  -14.1820   23.3495 C   0  0  0  0  0  0  0  0  0  0  0  0
    8.2124  -14.5826   22.1014 C   0  0  2  0  0  0  0  0  0  0  0  0
    7.4441  -14.0620   20.9181 C   0  0  0  0  0  0  0  0  0  0  0  0
    8.3120  -16.0932   22.0851 C   0  0  2  0  0  0  0  0  0  0  0  0
    7.0222  -16.7231   22.0189 N   0  0  0  0  0  0  0  0  0  0  0  0
    8.9956  -16.5710   23.3097 C   0  0  0  0  0  0  0  0  0  0  0  0
    8.3430  -16.6686   24.3760 O   0  0  0  0  0  0  0  0  0  0  0  0
   10.3682  -16.9216   23.3111 N   0  0  0  0  0  0  0  0  0  0  0  0
   11.0113  -17.4657   24.4919 C   0  0  1  0  0  0  0  0  0  0  0  0
   12.1424  -18.3407   24.0404 C   0  0  0  0  0  0  0  0  0  0  0  0
   11.6928  -19.4838   23.2170 C   0  0  0  0  0  0  0  0  0  0  0  0
   10.5323  -20.2277   23.3509 C   0  0  0  0  0  0  0  0  0  0  0  0
   10.5362  -21.1650   22.3883 N   0  0  0  0  0  0  0  0  0  0  0  0
   11.6451  -21.0437   21.6567 C   0  0  0  0  0  0  0  0  0  0  0  0
   12.3315  -20.0296   22.1652 N   0  0  0  0  0  0  0  0  0  0  0  0
   11.4926  -16.3153   25.3179 C   0  0  0  0  0  0  0  0  0  0  0  0
   11.5895  -15.1551   24.8407 O   0  0  0  0  0  0  0  0  0  0  0  0
   11.8548  -16.4735   26.6496 O   0  0  0  0  0  0  0  0  0  0  0  0
  2  1  1  1
  2  3  1  0
  2 10  1  0
  4  3  1  0
  4  9  1  0
  5  4  2  0
  6  5  1  0
  6  7  2  0
  7  8  1  0
  8  9  2  0
 10 11  2  0
 13 12  1  1
 13 14  1  0
 13 15  1  0
 15 16  1  1
 16 10  1  0
 17 15  1  0
 17 18  2  0
 19 17  1  0
 20 19  1  0
 20 27  1  0
 20 21  1  6
 22 21  1  0
 22 23  2  0
 24 23  1  0
 25 26  2  0
 25 24  1  0
 26 22  1  0
 27 28  2  0
 27 29  1  0
M  END
$$$$
