FVH.pdb
     RDKit          3D

 29 30  0  0  1  0  0  0  0  0999 V2000
    5.4295  -17.4388   25.4966 N   0  0  0  0  0  0  0  0  0  0  0  0
    6.3468  -16.3659   25.2633 C   0  0  1  0  0  0  0  0  0  0  0  0
    7.0992  -15.9731   26.5177 C   0  0  0  0  0  0  0  0  0  0  0  0
    6.8700  -14.5402   26.7727 C   0  0  0  0  0  0  0  0  0  0  0  0
    7.9173  -13.6537   26.8359 C   0  0  0  0  0  0  0  0  0  0  0  0
    7.7105  -12.2989   27.0817 C   0  0  0  0  0  0  0  0  0  0  0  0
    6.4301  -11.8348   27.2656 C   0  0  0  0  0  0  0  0  0  0  0  0
    5.3570  -12.7105   27.2065 C   0  0  0  0  0  0  0  0  0  0  0  0
    5.5971  -14.0661   26.9579 C   0  0  0  0  0  0  0  0  0  0  0  0
    7.2957  -16.6209   24.1750 C   0  0  0  0  0  0  0  0  0  0  0  0
    7.7736  -17.7769   23.9584 O   0  0  0  0  0  0  0  0  0  0  0  0
    8.7260  -13.2728   21.8943 C   0  0  0  0  0  0  0  0  0  0  0  0
    8.3633  -14.5601   21.1897 C   0  0  2  0  0  0  0  0  0  0  0  0
    6.9402  -14.4373   20.7192 C   0  0  0  0  0  0  0  0  0  0  0  0
    8.5310  -15.6933   22.1795 C   0  0  2  0  0  0  0  0  0  0  0  0
    7.6924  -15.5351   23.3355 N   0  0  0  0  0  0  0  0  0  0  0  0
    9.9383  -15.7642   22.6377 C   0  0  0  0  0  0  0  0  0  0  0  0
   10.3412  -14.9518   23.5038 O   0  0  0  0  0  0  0  0  0  0  0  0
   10.8440  -16.7252   22.1247 N   0  0  0  0  0  0  0  0  0  0  0  0
   12.2426  -16.7309   22.5089 C   0  0  1  0  0  0  0  0  0  0  0  0
   12.6615  -18.1570   22.7075 C   0  0  0  0  0  0  0  0  0  0  0  0
   12.2146  -18.7134   24.0027 C   0  0  0  0  0  0  0  0  0  0  0  0
   11.6586  -18.0370   25.0756 C   0  0  0  0  0  0  0  0  0  0  0  0
   11.4059  -18.9390   26.0389 N   0  0  0  0  0  0  0  0  0  0  0  0
   11.7775  -20.1498   25.6200 C   0  0  0  0  0  0  0  0  0  0  0  0
   12.2617  -20.0004   24.3948 N   0  0  0  0  0  0  0  0  0  0  0  0
   13.0175  -16.0702   21.4133 C   0  0  0  0  0  0  0  0  0  0  0  0
   12.5452  -15.9451   20.2538 O   0  0  0  0  0  0  0  0  0  0  0  0
   14.2938  -15.5641   21.6241 O   0  0  0  0  0  0  0  0  0  0  0  0
  2  1  1  1
  2  3  1  0
  2 10  1  0
  4  3  1  0
  4  9  1  0
  5  4  2  0
  6  5  1  0
  6  7  2  0
  7  8  1  0
  8  9  2  0
 10 11  2  0
 13 12  1  1
 13 14  1  0
 13 15  1  0
 15 16  1  1
 16 10  1  0
 17 15  1  0
 17 18  2  0
 19 17  1  0
 20 19  1  0
 20 27  1  0
 20 21  1  6
 22 21  1  0
 22 23  2  0
 24 23  1  0
 25 26  2  0
 25 24  1  0
 26 22  1  0
 27 28  2  0
 27 29  1  0
M  END
$$$$
