FVH.pdb
     RDKit          3D

 29 30  0  0  1  0  0  0  0  0999 V2000
    6.0319  -17.7454   26.1133 N   0  0  0  0  0  0  0  0  0  0  0  0
    6.6130  -16.4948   25.7321 C   0  0  1  0  0  0  0  0  0  0  0  0
    7.2362  -15.7713   26.9076 C   0  0  0  0  0  0  0  0  0  0  0  0
    7.0278  -14.3235   26.7311 C   0  0  0  0  0  0  0  0  0  0  0  0
    8.0899  -13.4676   26.5691 C   0  0  0  0  0  0  0  0  0  0  0  0
    7.9026  -12.0975   26.4070 C   0  0  0  0  0  0  0  0  0  0  0  0
    6.6269  -11.5865   26.4087 C   0  0  0  0  0  0  0  0  0  0  0  0
    5.5391  -12.4305   26.5707 C   0  0  0  0  0  0  0  0  0  0  0  0
    5.7597  -13.8026   26.7314 C   0  0  0  0  0  0  0  0  0  0  0  0
    7.5871  -16.5997   24.6412 C   0  0  0  0  0  0  0  0  0  0  0  0
    8.4202  -17.5554   24.5749 O   0  0  0  0  0  0  0  0  0  0  0  0
    6.7857  -14.7773   20.9481 C   0  0  0  0  0  0  0  0  0  0  0  0
    8.1722  -14.5270   21.4959 C   0  0  2  0  0  0  0  0  0  0  0  0
    9.1302  -14.5412   20.3368 C   0  0  0  0  0  0  0  0  0  0  0  0
    8.4816  -15.6236   22.4928 C   0  0  2  0  0  0  0  0  0  0  0  0
    7.5967  -15.5959   23.6245 N   0  0  0  0  0  0  0  0  0  0  0  0
    9.8700  -15.4819   22.9902 C   0  0  0  0  0  0  0  0  0  0  0  0
   10.1941  -14.4417   23.6112 O   0  0  0  0  0  0  0  0  0  0  0  0
   10.8444  -16.4894   22.7844 N   0  0  0  0  0  0  0  0  0  0  0  0
   12.2017  -16.3440   23.2746 C   0  0  1  0  0  0  0  0  0  0  0  0
   12.5007  -17.5157   24.1615 C   0  0  0  0  0  0  0  0  0  0  0  0
   11.8570  -17.4123   25.4887 C   0  0  0  0  0  0  0  0  0  0  0  0
   11.1503  -16.3430   26.0133 C   0  0  0  0  0  0  0  0  0  0  0  0
   10.7459  -16.6882   27.2472 N   0  0  0  0  0  0  0  0  0  0  0  0
   11.1661  -17.9243   27.5211 C   0  0  0  0  0  0  0  0  0  0  0  0
   11.8325  -18.3482   26.4561 N   0  0  0  0  0  0  0  0  0  0  0  0
   13.1109  -16.2975   22.0878 C   0  0  0  0  0  0  0  0  0  0  0  0
   12.7284  -16.6701   20.9485 O   0  0  0  0  0  0  0  0  0  0  0  0
   14.4192  -15.8412   22.1875 O   0  0  0  0  0  0  0  0  0  0  0  0
  2  1  1  1
  2  3  1  0
  2 10  1  0
  4  3  1  0
  4  9  1  0
  5  4  2  0
  6  5  1  0
  6  7  2  0
  7  8  1  0
  8  9  2  0
 10 11  2  0
 13 12  1  6
 13 14  1  0
 13 15  1  0
 15 16  1  1
 16 10  1  0
 17 15  1  0
 17 18  2  0
 19 17  1  0
 20 19  1  0
 20 27  1  0
 20 21  1  1
 22 21  1  0
 22 23  2  0
 24 23  1  0
 25 26  2  0
 25 24  1  0
 26 22  1  0
 27 28  2  0
 27 29  1  0
M  END
$$$$
