FVH.pdb
     RDKit          3D

 29 30  0  0  1  0  0  0  0  0999 V2000
   10.0438  -14.2150   21.2230 N   0  0  0  0  0  0  0  0  0  0  0  0
    8.9129  -14.2800   22.0971 C   0  0  1  0  0  0  0  0  0  0  0  0
    7.7731  -15.0787   21.4998 C   0  0  0  0  0  0  0  0  0  0  0  0
    7.3691  -14.4440   20.2330 C   0  0  0  0  0  0  0  0  0  0  0  0
    7.7346  -14.9794   19.0221 C   0  0  0  0  0  0  0  0  0  0  0  0
    7.3618  -14.3834   17.8202 C   0  0  0  0  0  0  0  0  0  0  0  0
    6.6107  -13.2328   17.8427 C   0  0  0  0  0  0  0  0  0  0  0  0
    6.2297  -12.6736   19.0527 C   0  0  0  0  0  0  0  0  0  0  0  0
    6.6199  -13.2959   20.2434 C   0  0  0  0  0  0  0  0  0  0  0  0
    9.2254  -14.7872   23.4369 C   0  0  0  0  0  0  0  0  0  0  0  0
   10.2466  -15.5075   23.6606 O   0  0  0  0  0  0  0  0  0  0  0  0
    6.4288  -14.2380   26.6147 C   0  0  0  0  0  0  0  0  0  0  0  0
    7.8322  -13.7048   26.7925 C   0  0  2  0  0  0  0  0  0  0  0  0
    7.8195  -12.2506   26.4098 C   0  0  0  0  0  0  0  0  0  0  0  0
    8.7510  -14.5118   25.9001 C   0  0  2  0  0  0  0  0  0  0  0  0
    8.3535  -14.4598   24.5203 N   0  0  0  0  0  0  0  0  0  0  0  0
    8.7550  -15.9312   26.3251 C   0  0  0  0  0  0  0  0  0  0  0  0
    7.6913  -16.5921   26.2603 O   0  0  0  0  0  0  0  0  0  0  0  0
    9.9282  -16.5651   26.8035 N   0  0  0  0  0  0  0  0  0  0  0  0
    9.9024  -17.9212   27.3172 C   0  0  1  0  0  0  0  0  0  0  0  0
   11.1772  -18.5955   26.9060 C   0  0  0  0  0  0  0  0  0  0  0  0
   11.2832  -18.7835   25.4430 C   0  0  0  0  0  0  0  0  0  0  0  0
   10.3328  -18.5028   24.4756 C   0  0  0  0  0  0  0  0  0  0  0  0
   10.8571  -18.8301   23.2826 N   0  0  0  0  0  0  0  0  0  0  0  0
   12.0922  -19.3031   23.4567 C   0  0  0  0  0  0  0  0  0  0  0  0
   12.3361  -19.2698   24.7595 N   0  0  0  0  0  0  0  0  0  0  0  0
    9.7695  -17.8412   28.8049 C   0  0  0  0  0  0  0  0  0  0  0  0
    9.8518  -16.7448   29.4167 O   0  0  0  0  0  0  0  0  0  0  0  0
    9.5492  -18.9724   29.5804 O   0  0  0  0  0  0  0  0  0  0  0  0
  2  1  1  6
  2  3  1  0
  2 10  1  0
  4  3  1  0
  4  9  1  0
  5  4  2  0
  6  5  1  0
  6  7  2  0
  7  8  1  0
  8  9  2  0
 10 11  2  0
 13 12  1  6
 13 14  1  0
 13 15  1  0
 15 16  1  6
 16 10  1  0
 17 15  1  0
 17 18  2  0
 19 17  1  0
 20 19  1  0
 20 27  1  0
 20 21  1  1
 22 21  1  0
 22 23  2  0
 24 23  1  0
 25 26  2  0
 25 24  1  0
 26 22  1  0
 27 28  2  0
 27 29  1  0
M  END
$$$$
