FVH.pdb
     RDKit          3D

 29 30  0  0  1  0  0  0  0  0999 V2000
    5.4065  -16.9696   25.2864 N   0  0  0  0  0  0  0  0  0  0  0  0
    6.5788  -16.1747   25.0840 C   0  0  1  0  0  0  0  0  0  0  0  0
    7.2269  -15.7676   26.3910 C   0  0  0  0  0  0  0  0  0  0  0  0
    6.9568  -14.3380   26.6230 C   0  0  0  0  0  0  0  0  0  0  0  0
    5.7725  -13.9201   27.1794 C   0  0  0  0  0  0  0  0  0  0  0  0
    5.5065  -12.5708   27.3974 C   0  0  0  0  0  0  0  0  0  0  0  0
    6.4487  -11.6331   27.0490 C   0  0  0  0  0  0  0  0  0  0  0  0
    7.6515  -12.0306   26.4858 C   0  0  0  0  0  0  0  0  0  0  0  0
    7.8892  -13.3937   26.2792 C   0  0  0  0  0  0  0  0  0  0  0  0
    7.5762  -16.7983   24.2087 C   0  0  0  0  0  0  0  0  0  0  0  0
    7.8248  -18.0424   24.2541 O   0  0  0  0  0  0  0  0  0  0  0  0
    9.6611  -14.2621   21.4377 C   0  0  0  0  0  0  0  0  0  0  0  0
    9.3073  -15.6851   21.0700 C   0  0  2  0  0  0  0  0  0  0  0  0
    7.9758  -15.6583   20.3716 C   0  0  0  0  0  0  0  0  0  0  0  0
    9.2541  -16.4944   22.3483 C   0  0  2  0  0  0  0  0  0  0  0  0
    8.2876  -15.9796   23.2787 N   0  0  0  0  0  0  0  0  0  0  0  0
   10.5796  -16.4874   23.0103 C   0  0  0  0  0  0  0  0  0  0  0  0
   11.0015  -15.4238   23.5235 O   0  0  0  0  0  0  0  0  0  0  0  0
   11.3864  -17.6499   23.0805 N   0  0  0  0  0  0  0  0  0  0  0  0
   12.7170  -17.6165   23.6567 C   0  0  1  0  0  0  0  0  0  0  0  0
   12.9350  -18.9056   24.3913 C   0  0  0  0  0  0  0  0  0  0  0  0
   12.0932  -19.0285   25.6009 C   0  0  0  0  0  0  0  0  0  0  0  0
   11.5363  -18.0125   26.3596 C   0  0  0  0  0  0  0  0  0  0  0  0
   10.8500  -18.5836   27.3637 N   0  0  0  0  0  0  0  0  0  0  0  0
   10.9505  -19.9105   27.2700 C   0  0  0  0  0  0  0  0  0  0  0  0
   11.7002  -20.1647   26.2064 N   0  0  0  0  0  0  0  0  0  0  0  0
   13.6928  -17.4420   22.5365 C   0  0  0  0  0  0  0  0  0  0  0  0
   13.3315  -17.4937   21.3324 O   0  0  0  0  0  0  0  0  0  0  0  0
   15.0427  -17.2147   22.7727 O   0  0  0  0  0  0  0  0  0  0  0  0
  2  1  1  1
  2  3  1  0
  2 10  1  0
  4  3  1  0
  4  9  1  0
  5  4  2  0
  6  5  1  0
  6  7  2  0
  7  8  1  0
  8  9  2  0
 10 11  2  0
 13 12  1  1
 13 14  1  0
 13 15  1  0
 15 16  1  1
 16 10  1  0
 17 15  1  0
 17 18  2  0
 19 17  1  0
 20 19  1  0
 20 27  1  0
 20 21  1  6
 22 21  1  0
 22 23  2  0
 24 23  1  0
 25 26  2  0
 25 24  1  0
 26 22  1  0
 27 28  2  0
 27 29  1  0
M  END
$$$$
