FVH.pdb
     RDKit          3D

 29 30  0  0  1  0  0  0  0  0999 V2000
    9.6662  -16.0333   21.4186 N   0  0  0  0  0  0  0  0  0  0  0  0
    8.8489  -15.1958   22.2418 C   0  0  1  0  0  0  0  0  0  0  0  0
    7.3990  -15.2023   21.8037 C   0  0  0  0  0  0  0  0  0  0  0  0
    7.2431  -14.2566   20.6848 C   0  0  0  0  0  0  0  0  0  0  0  0
    6.9207  -14.6954   19.4237 C   0  0  0  0  0  0  0  0  0  0  0  0
    6.7765  -13.8093   18.3593 C   0  0  0  0  0  0  0  0  0  0  0  0
    6.9603  -12.4642   18.5722 C   0  0  0  0  0  0  0  0  0  0  0  0
    7.2862  -11.9975   19.8363 C   0  0  0  0  0  0  0  0  0  0  0  0
    7.4242  -12.9126   20.8854 C   0  0  0  0  0  0  0  0  0  0  0  0
    8.9359  -15.5019   23.6731 C   0  0  0  0  0  0  0  0  0  0  0  0
    9.6036  -16.4899   24.1088 O   0  0  0  0  0  0  0  0  0  0  0  0
    6.3081  -13.6326   26.3675 C   0  0  0  0  0  0  0  0  0  0  0  0
    7.7714  -13.5658   26.7414 C   0  0  2  0  0  0  0  0  0  0  0  0
    8.2879  -12.2167   26.3235 C   0  0  0  0  0  0  0  0  0  0  0  0
    8.4859  -14.6883   26.0192 C   0  0  2  0  0  0  0  0  0  0  0  0
    8.2484  -14.6622   24.6023 N   0  0  0  0  0  0  0  0  0  0  0  0
    8.0296  -15.9988   26.5386 C   0  0  0  0  0  0  0  0  0  0  0  0
    6.7998  -16.2247   26.6331 O   0  0  0  0  0  0  0  0  0  0  0  0
    8.9443  -17.0064   26.9325 N   0  0  0  0  0  0  0  0  0  0  0  0
    8.4956  -18.2379   27.5535 C   0  0  1  0  0  0  0  0  0  0  0  0
    8.9372  -19.3798   26.6875 C   0  0  0  0  0  0  0  0  0  0  0  0
    8.2776  -19.3873   25.3640 C   0  0  0  0  0  0  0  0  0  0  0  0
    7.3719  -18.4706   24.8568 C   0  0  0  0  0  0  0  0  0  0  0  0
    7.0353  -18.8724   23.6197 N   0  0  0  0  0  0  0  0  0  0  0  0
    7.6878  -19.9986   23.3272 C   0  0  0  0  0  0  0  0  0  0  0  0
    8.4309  -20.2973   24.3838 N   0  0  0  0  0  0  0  0  0  0  0  0
    9.1038  -18.3064   28.9183 C   0  0  0  0  0  0  0  0  0  0  0  0
    9.9373  -17.4505   29.3131 O   0  0  0  0  0  0  0  0  0  0  0  0
    8.7773  -19.3173   29.8135 O   0  0  0  0  0  0  0  0  0  0  0  0
  2  1  1  6
  2  3  1  0
  2 10  1  0
  4  3  1  0
  4  9  1  0
  5  4  2  0
  6  5  1  0
  6  7  2  0
  7  8  1  0
  8  9  2  0
 10 11  2  0
 13 12  1  6
 13 14  1  0
 13 15  1  0
 15 16  1  6
 16 10  1  0
 17 15  1  0
 17 18  2  0
 19 17  1  0
 20 19  1  0
 20 27  1  0
 20 21  1  6
 22 21  1  0
 22 23  2  0
 24 23  1  0
 25 26  2  0
 25 24  1  0
 26 22  1  0
 27 28  2  0
 27 29  1  0
M  END
$$$$
