FVH.pdb
     RDKit          3D

 29 30  0  0  1  0  0  0  0  0999 V2000
    6.7070  -17.5431   25.8865 N   0  0  0  0  0  0  0  0  0  0  0  0
    6.2359  -16.7618   24.7844 C   0  0  1  0  0  0  0  0  0  0  0  0
    5.6962  -15.4172   25.2254 C   0  0  0  0  0  0  0  0  0  0  0  0
    6.7561  -14.7043   25.9594 C   0  0  0  0  0  0  0  0  0  0  0  0
    7.5529  -15.3569   26.8683 C   0  0  0  0  0  0  0  0  0  0  0  0
    8.5534  -14.6900   27.5704 C   0  0  0  0  0  0  0  0  0  0  0  0
    8.7509  -13.3479   27.3512 C   0  0  0  0  0  0  0  0  0  0  0  0
    7.9592  -12.6675   26.4389 C   0  0  0  0  0  0  0  0  0  0  0  0
    6.9620  -13.3653   25.7490 C   0  0  0  0  0  0  0  0  0  0  0  0
    7.2284  -16.5736   23.7216 C   0  0  0  0  0  0  0  0  0  0  0  0
    8.2449  -17.3262   23.6116 O   0  0  0  0  0  0  0  0  0  0  0  0
    8.1753  -14.2127   19.4618 C   0  0  0  0  0  0  0  0  0  0  0  0
    7.3722  -14.1965   20.7425 C   0  0  2  0  0  0  0  0  0  0  0  0
    7.6176  -12.8756   21.4181 C   0  0  0  0  0  0  0  0  0  0  0  0
    7.8366  -15.3577   21.5955 C   0  0  2  0  0  0  0  0  0  0  0  0
    7.0436  -15.5117   22.7838 N   0  0  0  0  0  0  0  0  0  0  0  0
    9.2461  -15.1559   22.0054 C   0  0  0  0  0  0  0  0  0  0  0  0
    9.4957  -14.7938   23.1798 O   0  0  0  0  0  0  0  0  0  0  0  0
   10.3225  -15.3605   21.1074 N   0  0  0  0  0  0  0  0  0  0  0  0
   11.5218  -16.0703   21.5093 C   0  0  1  0  0  0  0  0  0  0  0  0
   11.1322  -17.4761   21.8570 C   0  0  0  0  0  0  0  0  0  0  0  0
   11.1602  -17.7382   23.3121 C   0  0  0  0  0  0  0  0  0  0  0  0
   11.4088  -16.8397   24.3363 C   0  0  0  0  0  0  0  0  0  0  0  0
   11.3330  -17.5135   25.4963 N   0  0  0  0  0  0  0  0  0  0  0  0
   11.0484  -18.7928   25.2474 C   0  0  0  0  0  0  0  0  0  0  0  0
   10.9472  -18.9146   23.9310 N   0  0  0  0  0  0  0  0  0  0  0  0
   12.4818  -16.0258   20.3631 C   0  0  0  0  0  0  0  0  0  0  0  0
   12.1765  -16.4764   19.2287 O   0  0  0  0  0  0  0  0  0  0  0  0
   13.7544  -15.4854   20.4970 O   0  0  0  0  0  0  0  0  0  0  0  0
  2  1  1  1
  2  3  1  0
  2 10  1  0
  4  3  1  0
  4  9  1  0
  5  4  2  0
  6  5  1  0
  6  7  2  0
  7  8  1  0
  8  9  2  0
 10 11  2  0
 13 12  1  6
 13 14  1  0
 13 15  1  0
 15 16  1  1
 16 10  1  0
 17 15  1  0
 17 18  2  0
 19 17  1  0
 20 19  1  0
 20 27  1  0
 20 21  1  6
 22 21  1  0
 22 23  2  0
 24 23  1  0
 25 26  2  0
 25 24  1  0
 26 22  1  0
 27 28  2  0
 27 29  1  0
M  END
$$$$
