FVH.pdb
     RDKit          3D

 29 30  0  0  1  0  0  0  0  0999 V2000
    5.1987  -17.6141   25.2068 N   0  0  0  0  0  0  0  0  0  0  0  0
    6.1234  -16.5254   25.1247 C   0  0  1  0  0  0  0  0  0  0  0  0
    6.7691  -16.2209   26.4605 C   0  0  0  0  0  0  0  0  0  0  0  0
    6.9072  -14.7600   26.5924 C   0  0  0  0  0  0  0  0  0  0  0  0
    5.8039  -13.9495   26.7046 C   0  0  0  0  0  0  0  0  0  0  0  0
    5.9249  -12.5676   26.8243 C   0  0  0  0  0  0  0  0  0  0  0  0
    7.1756  -11.9984   26.8307 C   0  0  0  0  0  0  0  0  0  0  0  0
    8.3041  -12.7958   26.7186 C   0  0  0  0  0  0  0  0  0  0  0  0
    8.1499  -14.1812   26.5997 C   0  0  0  0  0  0  0  0  0  0  0  0
    7.1590  -16.7008   24.1016 C   0  0  0  0  0  0  0  0  0  0  0  0
    7.8378  -17.7697   24.0100 O   0  0  0  0  0  0  0  0  0  0  0  0
    8.4085  -13.3000   21.8531 C   0  0  0  0  0  0  0  0  0  0  0  0
    8.1915  -14.5962   21.1059 C   0  0  2  0  0  0  0  0  0  0  0  0
    6.8102  -14.5551   20.5127 C   0  0  0  0  0  0  0  0  0  0  0  0
    8.3437  -15.7323   22.0949 C   0  0  2  0  0  0  0  0  0  0  0  0
    7.4095  -15.6361   23.1824 N   0  0  0  0  0  0  0  0  0  0  0  0
    9.7125  -15.7327   22.6623 C   0  0  0  0  0  0  0  0  0  0  0  0
    9.9532  -15.0395   23.6792 O   0  0  0  0  0  0  0  0  0  0  0  0
   10.7595  -16.4950   22.0882 N   0  0  0  0  0  0  0  0  0  0  0  0
   12.0665  -16.5795   22.7114 C   0  0  1  0  0  0  0  0  0  0  0  0
   12.2434  -17.9767   23.2264 C   0  0  0  0  0  0  0  0  0  0  0  0
   11.6235  -18.1842   24.5529 C   0  0  0  0  0  0  0  0  0  0  0  0
   11.0791  -17.2322   25.3986 C   0  0  0  0  0  0  0  0  0  0  0  0
   10.6313  -17.8688   26.4938 N   0  0  0  0  0  0  0  0  0  0  0  0
   10.8695  -19.1759   26.3744 C   0  0  0  0  0  0  0  0  0  0  0  0
   11.4661  -19.3522   25.2035 N   0  0  0  0  0  0  0  0  0  0  0  0
   13.0876  -16.2349   21.6741 C   0  0  0  0  0  0  0  0  0  0  0  0
   12.8345  -16.3215   20.4446 O   0  0  0  0  0  0  0  0  0  0  0  0
   14.3621  -15.8033   22.0190 O   0  0  0  0  0  0  0  0  0  0  0  0
  2  1  1  1
  2  3  1  0
  2 10  1  0
  4  3  1  0
  4  9  1  0
  5  4  2  0
  6  5  1  0
  6  7  2  0
  7  8  1  0
  8  9  2  0
 10 11  2  0
 13 12  1  1
 13 14  1  0
 13 15  1  0
 15 16  1  1
 16 10  1  0
 17 15  1  0
 17 18  2  0
 19 17  1  0
 20 19  1  0
 20 27  1  0
 20 21  1  6
 22 21  1  0
 22 23  2  0
 24 23  1  0
 25 26  2  0
 25 24  1  0
 26 22  1  0
 27 28  2  0
 27 29  1  0
M  END
$$$$
