FVH.pdb
     RDKit          3D

 29 30  0  0  1  0  0  0  0  0999 V2000
    8.1303  -17.2720   19.3461 N   0  0  0  0  0  0  0  0  0  0  0  0
    8.7712  -16.7458   20.5120 C   0  0  1  0  0  0  0  0  0  0  0  0
    7.9248  -15.6999   21.2074 C   0  0  0  0  0  0  0  0  0  0  0  0
    7.9930  -14.4495   20.4311 C   0  0  0  0  0  0  0  0  0  0  0  0
    6.9121  -13.9997   19.7127 C   0  0  0  0  0  0  0  0  0  0  0  0
    6.9693  -12.8221   18.9720 C   0  0  0  0  0  0  0  0  0  0  0  0
    8.1325  -12.0907   18.9573 C   0  0  0  0  0  0  0  0  0  0  0  0
    9.2368  -12.5245   19.6745 C   0  0  0  0  0  0  0  0  0  0  0  0
    9.1483  -13.7118   20.4090 C   0  0  0  0  0  0  0  0  0  0  0  0
    9.1855  -17.7699   21.4761 C   0  0  0  0  0  0  0  0  0  0  0  0
    8.5069  -18.8256   21.6671 O   0  0  0  0  0  0  0  0  0  0  0  0
   13.1376  -17.7280   22.6840 C   0  0  0  0  0  0  0  0  0  0  0  0
   12.2890  -18.9599   22.9023 C   0  0  2  0  0  0  0  0  0  0  0  0
   12.3546  -19.7871   21.6481 C   0  0  0  0  0  0  0  0  0  0  0  0
   10.8767  -18.5030   23.1998 C   0  0  2  0  0  0  0  0  0  0  0  0
   10.3885  -17.5712   22.2210 N   0  0  0  0  0  0  0  0  0  0  0  0
   10.8235  -17.8466   24.5271 C   0  0  0  0  0  0  0  0  0  0  0  0
   11.4988  -16.8084   24.7236 O   0  0  0  0  0  0  0  0  0  0  0  0
   10.0302  -18.3589   25.5832 N   0  0  0  0  0  0  0  0  0  0  0  0
   10.1046  -17.8098   26.9235 C   0  0  1  0  0  0  0  0  0  0  0  0
    8.7252  -17.3783   27.3234 C   0  0  0  0  0  0  0  0  0  0  0  0
    8.2521  -16.1948   26.5736 C   0  0  0  0  0  0  0  0  0  0  0  0
    8.9518  -15.4318   25.6536 C   0  0  0  0  0  0  0  0  0  0  0  0
    8.1315  -14.4582   25.2242 N   0  0  0  0  0  0  0  0  0  0  0  0
    6.9497  -14.5750   25.8319 C   0  0  0  0  0  0  0  0  0  0  0  0
    7.0354  -15.6225   26.6402 N   0  0  0  0  0  0  0  0  0  0  0  0
   10.6365  -18.8793   27.8238 C   0  0  0  0  0  0  0  0  0  0  0  0
   10.8259  -20.0536   27.4134 O   0  0  0  0  0  0  0  0  0  0  0  0
   10.9460  -18.6268   29.1543 O   0  0  0  0  0  0  0  0  0  0  0  0
  2  1  1  6
  2  3  1  0
  2 10  1  0
  4  3  1  0
  4  9  1  0
  5  4  2  0
  6  5  1  0
  6  7  2  0
  7  8  1  0
  8  9  2  0
 10 11  2  0
 13 12  1  6
 13 14  1  0
 13 15  1  0
 15 16  1  6
 16 10  1  0
 17 15  1  0
 17 18  2  0
 19 17  1  0
 20 19  1  0
 20 27  1  0
 20 21  1  1
 22 21  1  0
 22 23  2  0
 24 23  1  0
 25 26  2  0
 25 24  1  0
 26 22  1  0
 27 28  2  0
 27 29  1  0
M  END
$$$$
