FVH.pdb
     RDKit          3D

 29 30  0  0  1  0  0  0  0  0999 V2000
    6.7583  -17.0845   21.5978 N   0  0  0  0  0  0  0  0  0  0  0  0
    6.3766  -16.8517   22.9569 C   0  0  1  0  0  0  0  0  0  0  0  0
    5.9205  -18.1196   23.6485 C   0  0  0  0  0  0  0  0  0  0  0  0
    4.7258  -18.6293   22.9531 C   0  0  0  0  0  0  0  0  0  0  0  0
    4.8159  -19.6583   22.0476 C   0  0  0  0  0  0  0  0  0  0  0  0
    3.6930  -20.1427   21.3819 C   0  0  0  0  0  0  0  0  0  0  0  0
    2.4648  -19.5805   21.6345 C   0  0  0  0  0  0  0  0  0  0  0  0
    2.3487  -18.5408   22.5441 C   0  0  0  0  0  0  0  0  0  0  0  0
    3.4954  -18.0760   23.1970 C   0  0  0  0  0  0  0  0  0  0  0  0
    7.4109  -16.1928   23.7606 C   0  0  0  0  0  0  0  0  0  0  0  0
    8.6481  -16.3594   23.5294 O   0  0  0  0  0  0  0  0  0  0  0  0
    6.7532  -12.5727   25.6354 C   0  0  0  0  0  0  0  0  0  0  0  0
    7.2857  -13.6331   26.5722 C   0  0  2  0  0  0  0  0  0  0  0  0
    8.2701  -12.9719   27.4970 C   0  0  0  0  0  0  0  0  0  0  0  0
    7.9409  -14.7078   25.7310 C   0  0  2  0  0  0  0  0  0  0  0  0
    7.0121  -15.3391   24.8345 N   0  0  0  0  0  0  0  0  0  0  0  0
    8.5212  -15.7543   26.6048 C   0  0  0  0  0  0  0  0  0  0  0  0
    7.7604  -16.5948   27.1407 O   0  0  0  0  0  0  0  0  0  0  0  0
    9.9138  -15.8332   26.8530 N   0  0  0  0  0  0  0  0  0  0  0  0
   10.5071  -16.9954   27.4862 C   0  0  1  0  0  0  0  0  0  0  0  0
   11.7493  -17.3524   26.7258 C   0  0  0  0  0  0  0  0  0  0  0  0
   11.8000  -18.7800   26.3433 C   0  0  0  0  0  0  0  0  0  0  0  0
   10.8986  -19.7815   26.6633 C   0  0  0  0  0  0  0  0  0  0  0  0
   11.3413  -20.9210   26.1057 N   0  0  0  0  0  0  0  0  0  0  0  0
   12.4784  -20.6808   25.4508 C   0  0  0  0  0  0  0  0  0  0  0  0
   12.7431  -19.3903   25.6015 N   0  0  0  0  0  0  0  0  0  0  0  0
   10.8078  -16.6351   28.9065 C   0  0  0  0  0  0  0  0  0  0  0  0
   11.1651  -17.5017   29.7457 O   0  0  0  0  0  0  0  0  0  0  0  0
   10.7069  -15.3278   29.3653 O   0  0  0  0  0  0  0  0  0  0  0  0
  2  1  1  6
  2  3  1  0
  2 10  1  0
  4  3  1  0
  4  9  1  0
  5  4  2  0
  6  5  1  0
  6  7  2  0
  7  8  1  0
  8  9  2  0
 10 11  2  0
 13 12  1  6
 13 14  1  0
 13 15  1  0
 15 16  1  6
 16 10  1  0
 17 15  1  0
 17 18  2  0
 19 17  1  0
 20 19  1  0
 20 27  1  0
 20 21  1  6
 22 21  1  0
 22 23  2  0
 24 23  1  0
 25 26  2  0
 25 24  1  0
 26 22  1  0
 27 28  2  0
 27 29  1  0
M  END
$$$$
