FVH.pdb
     RDKit          3D

 29 30  0  0  1  0  0  0  0  0999 V2000
    6.1794  -17.7286   26.1478 N   0  0  0  0  0  0  0  0  0  0  0  0
    6.8066  -16.5139   25.7258 C   0  0  1  0  0  0  0  0  0  0  0  0
    7.5202  -15.8132   26.8632 C   0  0  0  0  0  0  0  0  0  0  0  0
    7.1381  -14.3903   26.8508 C   0  0  0  0  0  0  0  0  0  0  0  0
    8.0873  -13.4006   26.7720 C   0  0  0  0  0  0  0  0  0  0  0  0
    7.7356  -12.0534   26.7650 C   0  0  0  0  0  0  0  0  0  0  0  0
    6.4090  -11.7025   26.8386 C   0  0  0  0  0  0  0  0  0  0  0  0
    5.4327  -12.6836   26.9189 C   0  0  0  0  0  0  0  0  0  0  0  0
    5.8177  -14.0286   26.9239 C   0  0  0  0  0  0  0  0  0  0  0  0
    7.7225  -16.6799   24.5929 C   0  0  0  0  0  0  0  0  0  0  0  0
    8.4741  -17.6969   24.4810 O   0  0  0  0  0  0  0  0  0  0  0  0
    8.6073  -13.3525   22.0499 C   0  0  0  0  0  0  0  0  0  0  0  0
    8.2489  -14.6698   21.4006 C   0  0  2  0  0  0  0  0  0  0  0  0
    6.7863  -14.6243   21.0535 C   0  0  0  0  0  0  0  0  0  0  0  0
    8.5564  -15.7732   22.3904 C   0  0  2  0  0  0  0  0  0  0  0  0
    7.7684  -15.6662   23.5872 N   0  0  0  0  0  0  0  0  0  0  0  0
    9.9866  -15.7272   22.7751 C   0  0  0  0  0  0  0  0  0  0  0  0
   10.3772  -14.8420   23.5729 O   0  0  0  0  0  0  0  0  0  0  0  0
   10.9277  -16.6562   22.2669 N   0  0  0  0  0  0  0  0  0  0  0  0
   12.3091  -16.6560   22.7092 C   0  0  1  0  0  0  0  0  0  0  0  0
   12.7412  -18.0823   22.8756 C   0  0  0  0  0  0  0  0  0  0  0  0
   12.1023  -18.7463   24.0322 C   0  0  0  0  0  0  0  0  0  0  0  0
   11.3512  -18.1666   25.0410 C   0  0  0  0  0  0  0  0  0  0  0  0
   10.9712  -19.1453   25.8795 N   0  0  0  0  0  0  0  0  0  0  0  0
   11.4490  -20.3120   25.4436 C   0  0  0  0  0  0  0  0  0  0  0  0
   12.1269  -20.0583   24.3326 N   0  0  0  0  0  0  0  0  0  0  0  0
   13.1185  -15.9464   21.6706 C   0  0  0  0  0  0  0  0  0  0  0  0
   12.6427  -15.6681   20.5395 O   0  0  0  0  0  0  0  0  0  0  0  0
   14.4324  -15.5616   21.9057 O   0  0  0  0  0  0  0  0  0  0  0  0
  2  1  1  1
  2  3  1  0
  2 10  1  0
  4  3  1  0
  4  9  1  0
  5  4  2  0
  6  5  1  0
  6  7  2  0
  7  8  1  0
  8  9  2  0
 10 11  2  0
 13 12  1  1
 13 14  1  0
 13 15  1  0
 15 16  1  1
 16 10  1  0
 17 15  1  0
 17 18  2  0
 19 17  1  0
 20 19  1  0
 20 27  1  0
 20 21  1  6
 22 21  1  0
 22 23  2  0
 24 23  1  0
 25 26  2  0
 25 24  1  0
 26 22  1  0
 27 28  2  0
 27 29  1  0
M  END
$$$$
