FVH.pdb
     RDKit          3D

 29 30  0  0  1  0  0  0  0  0999 V2000
    6.7357  -17.0784   25.6525 N   0  0  0  0  0  0  0  0  0  0  0  0
    7.1481  -15.9023   24.9499 C   0  0  1  0  0  0  0  0  0  0  0  0
    8.2055  -15.1251   25.7062 C   0  0  0  0  0  0  0  0  0  0  0  0
    7.6049  -13.8730   26.1983 C   0  0  0  0  0  0  0  0  0  0  0  0
    7.7848  -13.4612   27.4963 C   0  0  0  0  0  0  0  0  0  0  0  0
    7.2167  -12.2821   27.9714 C   0  0  0  0  0  0  0  0  0  0  0  0
    6.4579  -11.5104   27.1245 C   0  0  0  0  0  0  0  0  0  0  0  0
    6.2621  -11.9054   25.8102 C   0  0  0  0  0  0  0  0  0  0  0  0
    6.8459  -13.0953   25.3625 C   0  0  0  0  0  0  0  0  0  0  0  0
    7.6047  -16.1573   23.5801 C   0  0  0  0  0  0  0  0  0  0  0  0
    7.5884  -17.3210   23.0730 O   0  0  0  0  0  0  0  0  0  0  0  0
    6.6235  -13.5720   20.7527 C   0  0  0  0  0  0  0  0  0  0  0  0
    8.1042  -13.8623   20.6592 C   0  0  2  0  0  0  0  0  0  0  0  0
    8.4583  -13.9624   19.2011 C   0  0  0  0  0  0  0  0  0  0  0  0
    8.3690  -15.1608   21.3911 C   0  0  2  0  0  0  0  0  0  0  0  0
    8.0812  -15.0625   22.7955 N   0  0  0  0  0  0  0  0  0  0  0  0
    9.7904  -15.5501   21.2384 C   0  0  0  0  0  0  0  0  0  0  0  0
   10.3257  -15.4796   20.1066 O   0  0  0  0  0  0  0  0  0  0  0  0
   10.5643  -16.0005   22.3362 N   0  0  0  0  0  0  0  0  0  0  0  0
   12.0081  -16.1104   22.2527 C   0  0  1  0  0  0  0  0  0  0  0  0
   12.5671  -14.7301   22.0762 C   0  0  0  0  0  0  0  0  0  0  0  0
   12.8559  -14.4022   20.6634 C   0  0  0  0  0  0  0  0  0  0  0  0
   14.0604  -14.5179   19.9897 C   0  0  0  0  0  0  0  0  0  0  0  0
   13.8610  -14.1077   18.7259 N   0  0  0  0  0  0  0  0  0  0  0  0
   12.5875  -13.7401   18.5755 C   0  0  0  0  0  0  0  0  0  0  0  0
   11.9944  -13.9220   19.7473 N   0  0  0  0  0  0  0  0  0  0  0  0
   12.4891  -16.7485   23.5172 C   0  0  0  0  0  0  0  0  0  0  0  0
   11.6893  -17.1200   24.4146 O   0  0  0  0  0  0  0  0  0  0  0  0
   13.8402  -16.9609   23.7599 O   0  0  0  0  0  0  0  0  0  0  0  0
  2  1  1  1
  2  3  1  0
  2 10  1  0
  4  3  1  0
  4  9  1  0
  5  4  2  0
  6  5  1  0
  6  7  2  0
  7  8  1  0
  8  9  2  0
 10 11  2  0
 13 12  1  6
 13 14  1  0
 13 15  1  0
 15 16  1  1
 16 10  1  0
 17 15  1  0
 17 18  2  0
 19 17  1  0
 20 19  1  0
 20 27  1  0
 20 21  1  1
 22 21  1  0
 22 23  2  0
 24 23  1  0
 25 26  2  0
 25 24  1  0
 26 22  1  0
 27 28  2  0
 27 29  1  0
M  END
$$$$
