FVH.pdb
     RDKit          3D

 29 30  0  0  1  0  0  0  0  0999 V2000
    5.6274  -17.7998   25.5827 N   0  0  0  0  0  0  0  0  0  0  0  0
    6.3898  -16.6087   25.3662 C   0  0  1  0  0  0  0  0  0  0  0  0
    7.0093  -16.0853   26.6453 C   0  0  0  0  0  0  0  0  0  0  0  0
    6.9668  -14.6128   26.6187 C   0  0  0  0  0  0  0  0  0  0  0  0
    5.7740  -13.9383   26.5239 C   0  0  0  0  0  0  0  0  0  0  0  0
    5.7248  -12.5471   26.4927 C   0  0  0  0  0  0  0  0  0  0  0  0
    6.8948  -11.8295   26.5581 C   0  0  0  0  0  0  0  0  0  0  0  0
    8.1110  -12.4880   26.6540 C   0  0  0  0  0  0  0  0  0  0  0  0
    8.1278  -13.8866   26.6831 C   0  0  0  0  0  0  0  0  0  0  0  0
    7.4221  -16.7428   24.3337 C   0  0  0  0  0  0  0  0  0  0  0  0
    8.1414  -17.7842   24.2351 O   0  0  0  0  0  0  0  0  0  0  0  0
    8.5363  -13.3176   22.0066 C   0  0  0  0  0  0  0  0  0  0  0  0
    8.2796  -14.6265   21.2949 C   0  0  2  0  0  0  0  0  0  0  0  0
    6.8599  -14.6055   20.7996 C   0  0  0  0  0  0  0  0  0  0  0  0
    8.5112  -15.7465   22.2868 C   0  0  2  0  0  0  0  0  0  0  0  0
    7.6223  -15.6687   23.4130 N   0  0  0  0  0  0  0  0  0  0  0  0
    9.9025  -15.6970   22.7940 C   0  0  0  0  0  0  0  0  0  0  0  0
   10.2300  -14.7886   23.5940 O   0  0  0  0  0  0  0  0  0  0  0  0
   10.8759  -16.6482   22.4006 N   0  0  0  0  0  0  0  0  0  0  0  0
   12.2454  -16.5721   22.8722 C   0  0  1  0  0  0  0  0  0  0  0  0
   12.6278  -17.9223   23.4009 C   0  0  0  0  0  0  0  0  0  0  0  0
   11.9048  -18.2815   24.6399 C   0  0  0  0  0  0  0  0  0  0  0  0
   11.7459  -17.5207   25.7861 C   0  0  0  0  0  0  0  0  0  0  0  0
   11.0194  -18.2421   26.6562 N   0  0  0  0  0  0  0  0  0  0  0  0
   10.7151  -19.4200   26.1090 C   0  0  0  0  0  0  0  0  0  0  0  0
   11.2531  -19.4310   24.8972 N   0  0  0  0  0  0  0  0  0  0  0  0
   13.1020  -16.1636   21.7161 C   0  0  0  0  0  0  0  0  0  0  0  0
   12.6358  -16.0651   20.5516 O   0  0  0  0  0  0  0  0  0  0  0  0
   14.4515  -15.8740   21.8735 O   0  0  0  0  0  0  0  0  0  0  0  0
  2  1  1  1
  2  3  1  0
  2 10  1  0
  4  3  1  0
  4  9  1  0
  5  4  2  0
  6  5  1  0
  6  7  2  0
  7  8  1  0
  8  9  2  0
 10 11  2  0
 13 12  1  1
 13 14  1  0
 13 15  1  0
 15 16  1  1
 16 10  1  0
 17 15  1  0
 17 18  2  0
 19 17  1  0
 20 19  1  0
 20 27  1  0
 20 21  1  6
 22 21  1  0
 22 23  2  0
 24 23  1  0
 25 26  2  0
 25 24  1  0
 26 22  1  0
 27 28  2  0
 27 29  1  0
M  END
$$$$
