FVH.pdb
     RDKit          3D

 29 30  0  0  1  0  0  0  0  0999 V2000
    6.1286  -17.0076   25.1680 N   0  0  0  0  0  0  0  0  0  0  0  0
    6.9160  -15.9103   24.6959 C   0  0  1  0  0  0  0  0  0  0  0  0
    7.8583  -15.3833   25.7582 C   0  0  0  0  0  0  0  0  0  0  0  0
    7.4926  -13.9882   26.0591 C   0  0  0  0  0  0  0  0  0  0  0  0
    6.2121  -13.6529   26.4259 C   0  0  0  0  0  0  0  0  0  0  0  0
    5.8564  -12.3364   26.7070 C   0  0  0  0  0  0  0  0  0  0  0  0
    6.8061  -11.3473   26.6160 C   0  0  0  0  0  0  0  0  0  0  0  0
    8.1052  -11.6612   26.2476 C   0  0  0  0  0  0  0  0  0  0  0  0
    8.4317  -12.9932   25.9714 C   0  0  0  0  0  0  0  0  0  0  0  0
    7.6641  -16.1998   23.4686 C   0  0  0  0  0  0  0  0  0  0  0  0
    7.8156  -17.3847   23.0387 O   0  0  0  0  0  0  0  0  0  0  0  0
    6.8254  -13.4167   20.7501 C   0  0  0  0  0  0  0  0  0  0  0  0
    8.2907  -13.7823   20.6816 C   0  0  2  0  0  0  0  0  0  0  0  0
    8.6915  -13.7904   19.2321 C   0  0  0  0  0  0  0  0  0  0  0  0
    8.4584  -15.1459   21.3176 C   0  0  2  0  0  0  0  0  0  0  0  0
    8.2383  -15.1151   22.7372 N   0  0  0  0  0  0  0  0  0  0  0  0
    9.8284  -15.6552   21.0749 C   0  0  0  0  0  0  0  0  0  0  0  0
   10.3145  -15.5776   19.9215 O   0  0  0  0  0  0  0  0  0  0  0  0
   10.6071  -16.2288   22.1101 N   0  0  0  0  0  0  0  0  0  0  0  0
   12.0317  -16.4518   21.9536 C   0  0  1  0  0  0  0  0  0  0  0  0
   12.6887  -15.1189   21.7522 C   0  0  0  0  0  0  0  0  0  0  0  0
   13.1060  -14.8882   20.3524 C   0  0  0  0  0  0  0  0  0  0  0  0
   12.6301  -15.5053   19.2075 C   0  0  0  0  0  0  0  0  0  0  0  0
   13.2930  -14.9869   18.1601 N   0  0  0  0  0  0  0  0  0  0  0  0
   14.1626  -14.0735   18.5947 C   0  0  0  0  0  0  0  0  0  0  0  0
   14.0402  -14.0238   19.9140 N   0  0  0  0  0  0  0  0  0  0  0  0
   12.5234  -17.1339   23.1906 C   0  0  0  0  0  0  0  0  0  0  0  0
   13.6505  -17.6917   23.2330 O   0  0  0  0  0  0  0  0  0  0  0  0
   11.7596  -17.1836   24.3499 O   0  0  0  0  0  0  0  0  0  0  0  0
  2  1  1  1
  2  3  1  0
  2 10  1  0
  4  3  1  0
  4  9  1  0
  5  4  2  0
  6  5  1  0
  6  7  2  0
  7  8  1  0
  8  9  2  0
 10 11  2  0
 13 12  1  6
 13 14  1  0
 13 15  1  0
 15 16  1  1
 16 10  1  0
 17 15  1  0
 17 18  2  0
 19 17  1  0
 20 19  1  0
 20 27  1  0
 20 21  1  1
 22 21  1  0
 22 23  2  0
 24 23  1  0
 25 26  2  0
 25 24  1  0
 26 22  1  0
 27 28  2  0
 27 29  1  0
M  END
$$$$
