RKK.pdb
     RDKit          3D

 30 29  0  0  1  0  0  0  0  0999 V2000
   12.4335  -16.9395   19.2637 N   0  0  0  0  0  0  0  0  0  0  0  0
   12.8197  -15.9795   18.2978 C   0  0  0  0  0  0  0  0  0  0  0  0
   14.0462  -15.6037   18.0982 N   0  0  0  0  0  0  0  0  0  0  0  0
   11.8181  -15.3688   17.4843 N   0  0  0  0  0  0  0  0  0  0  0  0
   10.3977  -15.6387   17.7139 C   0  0  0  0  0  0  0  0  0  0  0  0
    9.7866  -14.5160   18.4845 C   0  0  0  0  0  0  0  0  0  0  0  0
    8.3107  -14.6634   18.7483 C   0  0  0  0  0  0  0  0  0  0  0  0
    7.8262  -13.4166   19.4631 C   0  0  2  0  0  0  0  0  0  0  0  0
    8.4255  -12.2529   18.8140 N   0  0  0  0  0  0  0  0  0  0  0  0
    8.2064  -13.3955   20.8790 C   0  0  0  0  0  0  0  0  0  0  0  0
    9.3791  -13.0766   21.1751 O   0  0  0  0  0  0  0  0  0  0  0  0
   14.2243  -14.8131   17.4089 N   0  0  0  0  0  0  0  0  0  0  0  0
    7.3234  -13.7136   21.9420 C   0  0  1  0  0  0  0  0  0  0  0  0
    7.7751  -13.6455   23.3351 C   0  0  0  0  0  0  0  0  0  0  0  0
    6.5578  -13.2572   24.2011 C   0  0  0  0  0  0  0  0  0  0  0  0
    6.8686  -13.0953   25.6420 C   0  0  0  0  0  0  0  0  0  0  0  0
    5.7098  -12.7067   26.5112 C   0  0  0  0  0  0  0  0  0  0  0  0
    6.2535  -12.5300   27.9288 N   0  0  0  0  0  0  0  0  0  0  0  0
    5.1552  -12.2439   28.8342 C   0  0  0  0  0  0  0  0  0  0  0  0
    8.2554  -14.9190   23.8532 O   0  0  0  0  0  0  0  0  0  0  0  0
    7.5403  -15.9496   23.6348 N   0  0  0  0  0  0  0  0  0  0  0  0
    9.4426  -15.1423   24.5724 C   0  0  1  0  0  0  0  0  0  0  0  0
    9.8427  -16.4826   25.0677 C   0  0  0  0  0  0  0  0  0  0  0  0
   11.2058  -16.8037   24.4658 C   0  0  0  0  0  0  0  0  0  0  0  0
   11.7376  -18.1326   24.8815 C   0  0  0  0  0  0  0  0  0  0  0  0
   13.0789  -18.4636   24.2542 C   0  0  0  0  0  0  0  0  0  0  0  0
   13.5037  -19.8294   24.7208 N   0  0  0  0  0  0  0  0  0  0  0  0
   14.7758  -20.1765   24.1069 C   0  0  0  0  0  0  0  0  0  0  0  0
    9.9081  -16.5093   26.5145 O   0  0  0  0  0  0  0  0  0  0  0  0
    9.8284  -17.6075   27.1843 O   0  0  0  0  0  0  0  0  0  0  0  0
  2  1  1  0
  2  4  1  0
  3  2  2  0
  4  5  1  0
  5  6  1  0
  6  7  1  0
  7  8  1  0
  8  9  1  6
 10  8  1  0
 11 10  2  0
 12 10  1  0
 13 19  1  0
 13 12  1  0
 13 14  1  1
 15 14  1  0
 16 15  1  0
 17 16  1  0
 18 17  1  0
 19 21  1  0
 20 19  2  0
 21 22  1  0
 22 28  1  0
 22 23  1  1
 23 24  1  0
 25 24  1  0
 26 25  1  0
 26 27  1  0
 28 29  2  0
 28 30  1  0
M  END
$$$$
