RKK.pdb
     RDKit          3D

 30 29  0  0  1  0  0  0  0  0999 V2000
    9.7433  -13.9261   16.8683 N   0  0  0  0  0  0  0  0  0  0  0  0
    9.2819  -13.5969   18.1655 C   0  0  0  0  0  0  0  0  0  0  0  0
   10.0466  -13.1561   19.1175 N   0  0  0  0  0  0  0  0  0  0  0  0
    7.8968  -13.7552   18.4726 N   0  0  0  0  0  0  0  0  0  0  0  0
    7.4702  -14.5422   19.6309 C   0  0  0  0  0  0  0  0  0  0  0  0
    7.1593  -13.6341   20.7739 C   0  0  0  0  0  0  0  0  0  0  0  0
    6.4855  -14.3026   21.9438 C   0  0  0  0  0  0  0  0  0  0  0  0
    7.5258  -15.1083   22.6980 C   0  0  2  0  0  0  0  0  0  0  0  0
    8.2235  -15.9661   21.7430 N   0  0  0  0  0  0  0  0  0  0  0  0
    6.9349  -15.9633   23.7322 C   0  0  0  0  0  0  0  0  0  0  0  0
    6.2205  -15.4289   24.6090 O   0  0  0  0  0  0  0  0  0  0  0  0
    9.6051  -12.9523   20.0638 N   0  0  0  0  0  0  0  0  0  0  0  0
    7.1209  -17.3675   23.8019 C   0  0  1  0  0  0  0  0  0  0  0  0
    6.5077  -18.1504   24.8790 C   0  0  0  0  0  0  0  0  0  0  0  0
    6.1275  -19.5279   24.2953 C   0  0  0  0  0  0  0  0  0  0  0  0
    5.2600  -19.4567   23.0948 C   0  0  0  0  0  0  0  0  0  0  0  0
    5.4843  -20.5316   22.0733 C   0  0  0  0  0  0  0  0  0  0  0  0
    4.4261  -20.3437   20.9864 N   0  0  0  0  0  0  0  0  0  0  0  0
    4.6823  -21.2706   19.8987 C   0  0  0  0  0  0  0  0  0  0  0  0
    7.4092  -18.4132   25.9922 O   0  0  0  0  0  0  0  0  0  0  0  0
    6.9173  -18.9636   27.0295 N   0  0  0  0  0  0  0  0  0  0  0  0
    8.7851  -18.1291   26.0474 C   0  0  1  0  0  0  0  0  0  0  0  0
    9.6207  -18.4277   27.2367 C   0  0  0  0  0  0  0  0  0  0  0  0
    9.5545  -19.9317   27.4753 C   0  0  0  0  0  0  0  0  0  0  0  0
   10.4187  -20.3907   28.5997 C   0  0  0  0  0  0  0  0  0  0  0  0
   10.4833  -21.9012   28.7272 C   0  0  0  0  0  0  0  0  0  0  0  0
   11.2173  -22.2456   29.9946 N   0  0  0  0  0  0  0  0  0  0  0  0
   11.1919  -23.6864   30.1923 C   0  0  0  0  0  0  0  0  0  0  0  0
   10.9916  -18.0062   27.0340 O   0  0  0  0  0  0  0  0  0  0  0  0
   11.4170  -17.5819   25.8938 O   0  0  0  0  0  0  0  0  0  0  0  0
  2  1  1  0
  2  4  1  0
  3  2  2  0
  4  5  1  0
  5  6  1  0
  6  7  1  0
  7  8  1  0
  8  9  1  6
 10  8  1  0
 11 10  2  0
 12 10  1  0
 13 19  1  0
 13 12  1  0
 13 14  1  1
 15 14  1  0
 16 15  1  0
 17 16  1  0
 18 17  1  0
 19 21  1  0
 20 19  2  0
 21 22  1  0
 22 28  1  0
 22 23  1  1
 23 24  1  0
 25 24  1  0
 26 25  1  0
 26 27  1  0
 28 29  2  0
 28 30  1  0
M  END
$$$$
