RKK.pdb
     RDKit          3D

 30 29  0  0  1  0  0  0  0  0999 V2000
    7.8478  -13.0080   17.6681 N   0  0  0  0  0  0  0  0  0  0  0  0
    8.1364  -13.6952   16.4647 C   0  0  0  0  0  0  0  0  0  0  0  0
    7.5598  -13.4435   15.3291 N   0  0  0  0  0  0  0  0  0  0  0  0
    9.1133  -14.7361   16.4747 N   0  0  0  0  0  0  0  0  0  0  0  0
    9.8552  -15.0571   17.6952 C   0  0  0  0  0  0  0  0  0  0  0  0
    9.4400  -16.3978   18.2029 C   0  0  0  0  0  0  0  0  0  0  0  0
   10.1165  -16.8247   19.4795 C   0  0  0  0  0  0  0  0  0  0  0  0
    9.0508  -17.0344   20.5381 C   0  0  2  0  0  0  0  0  0  0  0  0
    7.7621  -16.6335   19.9783 N   0  0  0  0  0  0  0  0  0  0  0  0
    9.2915  -16.2377   21.7452 C   0  0  0  0  0  0  0  0  0  0  0  0
   10.4581  -16.1724   22.1918 O   0  0  0  0  0  0  0  0  0  0  0  0
    7.8141  -14.0474   14.4910 N   0  0  0  0  0  0  0  0  0  0  0  0
    8.2800  -15.5297   22.4427 C   0  0  1  0  0  0  0  0  0  0  0  0
    8.5610  -14.9100   23.7413 C   0  0  0  0  0  0  0  0  0  0  0  0
    7.3055  -14.1156   24.1599 C   0  0  0  0  0  0  0  0  0  0  0  0
    7.4120  -13.4762   25.4936 C   0  0  0  0  0  0  0  0  0  0  0  0
    6.2675  -12.5847   25.8739 C   0  0  0  0  0  0  0  0  0  0  0  0
    6.5631  -12.0506   27.2752 N   0  0  0  0  0  0  0  0  0  0  0  0
    5.4426  -11.2478   27.7313 C   0  0  0  0  0  0  0  0  0  0  0  0
    8.8074  -15.8745   24.8043 O   0  0  0  0  0  0  0  0  0  0  0  0
    7.8910  -16.7228   25.0522 N   0  0  0  0  0  0  0  0  0  0  0  0
    9.9653  -15.9797   25.5949 C   0  0  1  0  0  0  0  0  0  0  0  0
   10.1631  -17.0613   26.5913 C   0  0  0  0  0  0  0  0  0  0  0  0
   11.4603  -17.7782   26.2356 C   0  0  0  0  0  0  0  0  0  0  0  0
   11.7937  -18.8941   27.1659 C   0  0  0  0  0  0  0  0  0  0  0  0
   13.1385  -19.5338   26.8761 C   0  0  0  0  0  0  0  0  0  0  0  0
   13.3262  -20.7007   27.8071 N   0  0  0  0  0  0  0  0  0  0  0  0
   14.6301  -21.3014   27.5732 C   0  0  0  0  0  0  0  0  0  0  0  0
   10.2300  -16.5293   27.9369 O   0  0  0  0  0  0  0  0  0  0  0  0
   10.4968  -15.2905   28.1720 O   0  0  0  0  0  0  0  0  0  0  0  0
  2  1  1  0
  2  4  1  0
  3  2  2  0
  4  5  1  0
  5  6  1  0
  6  7  1  0
  7  8  1  0
  8  9  1  6
 10  8  1  0
 11 10  2  0
 12 10  1  0
 13 19  1  0
 13 12  1  0
 13 14  1  1
 15 14  1  0
 16 15  1  0
 17 16  1  0
 18 17  1  0
 19 21  1  0
 20 19  2  0
 21 22  1  0
 22 28  1  0
 22 23  1  1
 23 24  1  0
 25 24  1  0
 26 25  1  0
 26 27  1  0
 28 29  2  0
 28 30  1  0
M  END
$$$$
