RKK.pdb
     RDKit          3D

 30 29  0  0  1  0  0  0  0  0999 V2000
   10.1282  -15.0150   16.2997 N   0  0  0  0  0  0  0  0  0  0  0  0
    9.0501  -14.3375   15.6811 C   0  0  0  0  0  0  0  0  0  0  0  0
    8.7807  -14.4078   14.4131 N   0  0  0  0  0  0  0  0  0  0  0  0
    8.1954  -13.5167   16.4770 N   0  0  0  0  0  0  0  0  0  0  0  0
    8.2375  -13.5854   17.9387 C   0  0  0  0  0  0  0  0  0  0  0  0
    8.3273  -15.0093   18.3768 C   0  0  0  0  0  0  0  0  0  0  0  0
    8.3520  -15.2083   19.8699 C   0  0  0  0  0  0  0  0  0  0  0  0
    8.4968  -16.6915   20.1520 C   0  0  2  0  0  0  0  0  0  0  0  0
    7.3465  -17.3832   19.5750 N   0  0  0  0  0  0  0  0  0  0  0  0
    8.5363  -16.9906   21.5869 C   0  0  0  0  0  0  0  0  0  0  0  0
    7.4539  -17.0593   22.2101 O   0  0  0  0  0  0  0  0  0  0  0  0
    7.9045  -13.9204   14.0571 N   0  0  0  0  0  0  0  0  0  0  0  0
    9.7311  -17.2107   22.3183 C   0  0  2  0  0  0  0  0  0  0  0  0
    9.6999  -17.3473   23.7777 C   0  0  0  0  0  0  0  0  0  0  0  0
   11.0141  -18.0319   24.2097 C   0  0  0  0  0  0  0  0  0  0  0  0
   11.1242  -18.2608   25.6707 C   0  0  0  0  0  0  0  0  0  0  0  0
   12.3255  -19.0430   26.1115 C   0  0  0  0  0  0  0  0  0  0  0  0
   12.2384  -19.1774   27.6316 N   0  0  0  0  0  0  0  0  0  0  0  0
   13.3138  -20.0318   28.1023 C   0  0  0  0  0  0  0  0  0  0  0  0
    9.6536  -16.0722   24.4798 O   0  0  0  0  0  0  0  0  0  0  0  0
   10.5938  -15.2434   24.2557 N   0  0  0  0  0  0  0  0  0  0  0  0
    8.6675  -15.6446   25.3862 C   0  0  1  0  0  0  0  0  0  0  0  0
    8.7146  -14.3245   26.0619 C   0  0  0  0  0  0  0  0  0  0  0  0
    7.2890  -13.7874   26.1148 C   0  0  0  0  0  0  0  0  0  0  0  0
    7.1680  -12.5037   26.8626 C   0  0  0  0  0  0  0  0  0  0  0  0
    5.7377  -12.0114   26.9795 C   0  0  0  0  0  0  0  0  0  0  0  0
    5.7422  -10.6864   27.6921 N   0  0  0  0  0  0  0  0  0  0  0  0
    4.3820  -10.1782   27.7774 C   0  0  0  0  0  0  0  0  0  0  0  0
    9.2637  -14.4380   27.3975 O   0  0  0  0  0  0  0  0  0  0  0  0
    9.0977  -15.4924   28.1198 O   0  0  0  0  0  0  0  0  0  0  0  0
  2  1  1  0
  2  4  1  0
  3  2  2  0
  4  5  1  0
  5  6  1  0
  6  7  1  0
  7  8  1  0
  8  9  1  1
 10  8  1  0
 11 10  2  0
 12 10  1  0
 13 19  1  0
 13 12  1  0
 13 14  1  6
 15 14  1  0
 16 15  1  0
 17 16  1  0
 18 17  1  0
 19 21  1  0
 20 19  2  0
 21 22  1  0
 22 28  1  0
 22 23  1  1
 23 24  1  0
 25 24  1  0
 26 25  1  0
 26 27  1  0
 28 29  2  0
 28 30  1  0
M  END
$$$$
