RKK.pdb
     RDKit          3D

 30 29  0  0  1  0  0  0  0  0999 V2000
    9.8049  -14.3498   18.8303 N   0  0  0  0  0  0  0  0  0  0  0  0
    8.9158  -14.2120   17.7374 C   0  0  0  0  0  0  0  0  0  0  0  0
    9.0583  -13.3334   16.7924 N   0  0  0  0  0  0  0  0  0  0  0  0
    7.7831  -15.0763   17.6485 N   0  0  0  0  0  0  0  0  0  0  0  0
    6.4645  -14.6343   18.1057 C   0  0  0  0  0  0  0  0  0  0  0  0
    6.4031  -14.6808   19.5962 C   0  0  0  0  0  0  0  0  0  0  0  0
    6.6355  -16.0440   20.1938 C   0  0  0  0  0  0  0  0  0  0  0  0
    6.3588  -15.9665   21.6830 C   0  0  2  0  0  0  0  0  0  0  0  0
    5.2942  -14.9900   21.9022 N   0  0  0  0  0  0  0  0  0  0  0  0
    7.5325  -15.5422   22.4525 C   0  0  0  0  0  0  0  0  0  0  0  0
    8.0969  -14.4721   22.1348 O   0  0  0  0  0  0  0  0  0  0  0  0
    8.2758  -13.2306   16.0789 N   0  0  0  0  0  0  0  0  0  0  0  0
    8.0716  -16.2711   23.5430 C   0  0  2  0  0  0  0  0  0  0  0  0
    9.2757  -15.8008   24.2344 C   0  0  0  0  0  0  0  0  0  0  0  0
    9.2733  -16.4208   25.6480 C   0  0  0  0  0  0  0  0  0  0  0  0
   10.4372  -16.0313   26.4805 C   0  0  0  0  0  0  0  0  0  0  0  0
   10.4999  -16.6667   27.8375 C   0  0  0  0  0  0  0  0  0  0  0  0
   11.6941  -16.0498   28.5654 N   0  0  0  0  0  0  0  0  0  0  0  0
   11.7218  -16.5268   29.9364 C   0  0  0  0  0  0  0  0  0  0  0  0
   10.5148  -16.2313   23.6017 O   0  0  0  0  0  0  0  0  0  0  0  0
   10.6913  -17.4826   23.4461 N   0  0  0  0  0  0  0  0  0  0  0  0
   11.5508  -15.4064   23.1295 C   0  0  1  0  0  0  0  0  0  0  0  0
   12.7835  -15.9432   22.5020 C   0  0  0  0  0  0  0  0  0  0  0  0
   13.3547  -14.8488   21.6079 C   0  0  0  0  0  0  0  0  0  0  0  0
   14.6445  -15.2254   20.9627 C   0  0  0  0  0  0  0  0  0  0  0  0
   15.1874  -14.1518   20.0381 C   0  0  0  0  0  0  0  0  0  0  0  0
   16.4518  -14.6607   19.4011 N   0  0  0  0  0  0  0  0  0  0  0  0
   16.9208  -13.6960   18.4186 C   0  0  0  0  0  0  0  0  0  0  0  0
   13.7531  -16.3375   23.5033 O   0  0  0  0  0  0  0  0  0  0  0  0
   14.5715  -17.3156   23.3176 O   0  0  0  0  0  0  0  0  0  0  0  0
  2  1  1  0
  2  4  1  0
  3  2  2  0
  4  5  1  0
  5  6  1  0
  6  7  1  0
  7  8  1  0
  8  9  1  6
 10  8  1  0
 11 10  2  0
 12 10  1  0
 13 19  1  0
 13 12  1  0
 13 14  1  6
 15 14  1  0
 16 15  1  0
 17 16  1  0
 18 17  1  0
 19 21  1  0
 20 19  2  0
 21 22  1  0
 22 28  1  0
 22 23  1  1
 23 24  1  0
 25 24  1  0
 26 25  1  0
 26 27  1  0
 28 29  2  0
 28 30  1  0
M  END
$$$$
