RKK.pdb
     RDKit          3D

 30 29  0  0  1  0  0  0  0  0999 V2000
    8.9642  -13.3939   14.7626 N   0  0  0  0  0  0  0  0  0  0  0  0
    7.8698  -14.2580   15.0062 C   0  0  0  0  0  0  0  0  0  0  0  0
    7.2495  -14.9225   14.0792 N   0  0  0  0  0  0  0  0  0  0  0  0
    7.3968  -14.4224   16.3430 N   0  0  0  0  0  0  0  0  0  0  0  0
    8.0432  -13.7283   17.4582 C   0  0  0  0  0  0  0  0  0  0  0  0
    9.3323  -14.4008   17.7950 C   0  0  0  0  0  0  0  0  0  0  0  0
    9.7952  -14.2001   19.2145 C   0  0  0  0  0  0  0  0  0  0  0  0
    9.0950  -15.2182   20.0939 C   0  0  2  0  0  0  0  0  0  0  0  0
    7.6793  -15.2403   19.7334 N   0  0  0  0  0  0  0  0  0  0  0  0
    9.1975  -14.8953   21.5205 C   0  0  0  0  0  0  0  0  0  0  0  0
   10.3336  -14.8640   22.0431 O   0  0  0  0  0  0  0  0  0  0  0  0
    6.4620  -15.5760   14.3701 N   0  0  0  0  0  0  0  0  0  0  0  0
    8.0838  -14.6123   22.3515 C   0  0  1  0  0  0  0  0  0  0  0  0
    8.2707  -14.2989   23.7713 C   0  0  0  0  0  0  0  0  0  0  0  0
    6.9774  -13.6222   24.2733 C   0  0  0  0  0  0  0  0  0  0  0  0
    7.0584  -13.1236   25.6675 C   0  0  0  0  0  0  0  0  0  0  0  0
    5.8605  -12.3607   26.1495 C   0  0  0  0  0  0  0  0  0  0  0  0
    6.1629  -11.9093   27.5782 N   0  0  0  0  0  0  0  0  0  0  0  0
    5.0558  -11.1133   28.0767 C   0  0  0  0  0  0  0  0  0  0  0  0
    8.4658  -15.4766   24.6056 O   0  0  0  0  0  0  0  0  0  0  0  0
    7.6275  -16.4273   24.4856 N   0  0  0  0  0  0  0  0  0  0  0  0
    9.4968  -15.6873   25.5380 C   0  0  1  0  0  0  0  0  0  0  0  0
    9.6615  -16.9614   26.2805 C   0  0  0  0  0  0  0  0  0  0  0  0
   10.0198  -18.0392   25.2640 C   0  0  0  0  0  0  0  0  0  0  0  0
   11.4151  -17.9283   24.7514 C   0  0  0  0  0  0  0  0  0  0  0  0
   11.7358  -18.9374   23.6648 C   0  0  0  0  0  0  0  0  0  0  0  0
   13.1366  -18.6882   23.1757 N   0  0  0  0  0  0  0  0  0  0  0  0
   13.4769  -19.6724   22.1603 C   0  0  0  0  0  0  0  0  0  0  0  0
   10.6955  -16.8513   27.2888 O   0  0  0  0  0  0  0  0  0  0  0  0
   10.9869  -17.8249   28.0814 O   0  0  0  0  0  0  0  0  0  0  0  0
  2  1  1  0
  2  4  1  0
  3  2  2  0
  4  5  1  0
  5  6  1  0
  6  7  1  0
  7  8  1  0
  8  9  1  6
 10  8  1  0
 11 10  2  0
 12 10  1  0
 13 19  1  0
 13 12  1  0
 13 14  1  6
 15 14  1  0
 16 15  1  0
 17 16  1  0
 18 17  1  0
 19 21  1  0
 20 19  2  0
 21 22  1  0
 22 28  1  0
 22 23  1  1
 23 24  1  0
 25 24  1  0
 26 25  1  0
 26 27  1  0
 28 29  2  0
 28 30  1  0
M  END
$$$$
