RKK.pdb
     RDKit          3D

 30 29  0  0  1  0  0  0  0  0999 V2000
    2.3821  -24.4038   23.7068 N   0  0  0  0  0  0  0  0  0  0  0  0
    2.4666  -23.6955   22.4841 C   0  0  0  0  0  0  0  0  0  0  0  0
    1.8897  -24.0745   21.3845 N   0  0  0  0  0  0  0  0  0  0  0  0
    3.2306  -22.4909   22.4289 N   0  0  0  0  0  0  0  0  0  0  0  0
    4.1225  -22.1170   23.5280 C   0  0  0  0  0  0  0  0  0  0  0  0
    4.9245  -20.9182   23.1444 C   0  0  0  0  0  0  0  0  0  0  0  0
    6.1775  -21.2219   22.3651 C   0  0  0  0  0  0  0  0  0  0  0  0
    6.1530  -20.4090   21.0850 C   0  0  2  0  0  0  0  0  0  0  0  0
    6.5918  -21.2674   19.9872 N   0  0  0  0  0  0  0  0  0  0  0  0
    7.0445  -19.2461   21.1391 C   0  0  0  0  0  0  0  0  0  0  0  0
    8.2492  -19.4061   20.8431 O   0  0  0  0  0  0  0  0  0  0  0  0
    2.0250  -23.4781   20.5140 N   0  0  0  0  0  0  0  0  0  0  0  0
    6.6254  -17.9421   21.5062 C   0  0  1  0  0  0  0  0  0  0  0  0
    7.5761  -16.8261   21.5156 C   0  0  0  0  0  0  0  0  0  0  0  0
    6.7623  -15.5220   21.6563 C   0  0  0  0  0  0  0  0  0  0  0  0
    7.5739  -14.2871   21.5324 C   0  0  0  0  0  0  0  0  0  0  0  0
    7.8316  -13.8237   20.1295 C   0  0  0  0  0  0  0  0  0  0  0  0
    8.5354  -12.4704   20.2277 N   0  0  0  0  0  0  0  0  0  0  0  0
    8.8257  -11.9801   18.8923 C   0  0  0  0  0  0  0  0  0  0  0  0
    8.4969  -16.8567   22.6435 O   0  0  0  0  0  0  0  0  0  0  0  0
    8.0001  -17.0256   23.8035 N   0  0  0  0  0  0  0  0  0  0  0  0
    9.8959  -16.7256   22.5929 C   0  0  1  0  0  0  0  0  0  0  0  0
   10.7556  -16.8106   23.7993 C   0  0  0  0  0  0  0  0  0  0  0  0
   12.1423  -17.2477   23.3420 C   0  0  0  0  0  0  0  0  0  0  0  0
   13.1146  -17.3971   24.4619 C   0  0  0  0  0  0  0  0  0  0  0  0
   14.4559  -17.9520   24.0203 C   0  0  0  0  0  0  0  0  0  0  0  0
   15.3331  -18.1102   25.2323 N   0  0  0  0  0  0  0  0  0  0  0  0
   16.6394  -18.6021   24.8234 C   0  0  0  0  0  0  0  0  0  0  0  0
   10.8257  -15.5363   24.4844 O   0  0  0  0  0  0  0  0  0  0  0  0
   11.2977  -15.4248   25.6785 O   0  0  0  0  0  0  0  0  0  0  0  0
  2  1  1  0
  2  4  1  0
  3  2  2  0
  4  5  1  0
  5  6  1  0
  6  7  1  0
  7  8  1  0
  8  9  1  6
 10  8  1  0
 11 10  2  0
 12 10  1  0
 13 19  1  0
 13 12  1  0
 13 14  1  6
 15 14  1  0
 16 15  1  0
 17 16  1  0
 18 17  1  0
 19 21  1  0
 20 19  2  0
 21 22  1  0
 22 28  1  0
 22 23  1  1
 23 24  1  0
 25 24  1  0
 26 25  1  0
 26 27  1  0
 28 29  2  0
 28 30  1  0
M  END
$$$$
