RKK.pdb
     RDKit          3D

 30 29  0  0  1  0  0  0  0  0999 V2000
    8.2745  -19.9416   29.2198 N   0  0  0  0  0  0  0  0  0  0  0  0
    7.4932  -20.4103   28.1364 C   0  0  0  0  0  0  0  0  0  0  0  0
    6.5160  -21.2562   28.2589 N   0  0  0  0  0  0  0  0  0  0  0  0
    7.7802  -19.9438   26.8181 N   0  0  0  0  0  0  0  0  0  0  0  0
    7.0503  -18.8101   26.2480 C   0  0  0  0  0  0  0  0  0  0  0  0
    5.9531  -19.3057   25.3659 C   0  0  0  0  0  0  0  0  0  0  0  0
    5.1863  -18.2260   24.6476 C   0  0  0  0  0  0  0  0  0  0  0  0
    5.3321  -18.4488   23.1546 C   0  0  2  0  0  0  0  0  0  0  0  0
    5.6666  -19.8533   22.9302 N   0  0  0  0  0  0  0  0  0  0  0  0
    6.3930  -17.6273   22.5635 C   0  0  0  0  0  0  0  0  0  0  0  0
    7.5175  -18.1457   22.3859 O   0  0  0  0  0  0  0  0  0  0  0  0
    5.9528  -21.5034   27.3909 N   0  0  0  0  0  0  0  0  0  0  0  0
    6.2247  -16.2737   22.1757 C   0  0  1  0  0  0  0  0  0  0  0  0
    7.3342  -15.5229   21.5802 C   0  0  0  0  0  0  0  0  0  0  0  0
    6.8496  -14.0746   21.3563 C   0  0  0  0  0  0  0  0  0  0  0  0
    7.7914  -13.2363   20.5756 C   0  0  0  0  0  0  0  0  0  0  0  0
    7.8859  -13.5633   19.1150 C   0  0  0  0  0  0  0  0  0  0  0  0
    8.9248  -12.6184   18.5115 N   0  0  0  0  0  0  0  0  0  0  0  0
    8.9486  -12.7857   17.0695 C   0  0  0  0  0  0  0  0  0  0  0  0
    8.5044  -15.4335   22.4426 O   0  0  0  0  0  0  0  0  0  0  0  0
    8.3895  -14.7680   23.5219 N   0  0  0  0  0  0  0  0  0  0  0  0
    9.7643  -16.0150   22.2164 C   0  0  1  0  0  0  0  0  0  0  0  0
   10.9383  -15.7536   23.0853 C   0  0  0  0  0  0  0  0  0  0  0  0
   11.2633  -17.0509   23.8164 C   0  0  0  0  0  0  0  0  0  0  0  0
   10.8651  -17.0361   25.2527 C   0  0  0  0  0  0  0  0  0  0  0  0
   11.1840  -18.3313   25.9758 C   0  0  0  0  0  0  0  0  0  0  0  0
   10.6694  -18.2335   27.3862 N   0  0  0  0  0  0  0  0  0  0  0  0
   10.8934  -19.4967   28.0716 C   0  0  0  0  0  0  0  0  0  0  0  0
   12.0776  -15.3100   22.3085 O   0  0  0  0  0  0  0  0  0  0  0  0
   13.1806  -14.9367   22.8607 O   0  0  0  0  0  0  0  0  0  0  0  0
  2  1  1  0
  2  4  1  0
  3  2  2  0
  4  5  1  0
  5  6  1  0
  6  7  1  0
  7  8  1  0
  8  9  1  1
 10  8  1  0
 11 10  2  0
 12 10  1  0
 13 19  1  0
 13 12  1  0
 13 14  1  1
 15 14  1  0
 16 15  1  0
 17 16  1  0
 18 17  1  0
 19 21  1  0
 20 19  2  0
 21 22  1  0
 22 28  1  0
 22 23  1  1
 23 24  1  0
 25 24  1  0
 26 25  1  0
 26 27  1  0
 28 29  2  0
 28 30  1  0
M  END
$$$$
