RKK.pdb
     RDKit          3D

 30 29  0  0  1  0  0  0  0  0999 V2000
    8.0098  -13.2326   17.6094 N   0  0  0  0  0  0  0  0  0  0  0  0
    7.9619  -12.9207   18.9893 C   0  0  0  0  0  0  0  0  0  0  0  0
    8.1004  -11.7217   19.4675 N   0  0  0  0  0  0  0  0  0  0  0  0
    7.7549  -13.9712   19.9335 N   0  0  0  0  0  0  0  0  0  0  0  0
    7.3768  -15.3143   19.4907 C   0  0  0  0  0  0  0  0  0  0  0  0
    8.4656  -15.8969   18.6524 C   0  0  0  0  0  0  0  0  0  0  0  0
    8.8275  -17.3197   18.9903 C   0  0  0  0  0  0  0  0  0  0  0  0
   10.0376  -17.3008   19.9044 C   0  0  2  0  0  0  0  0  0  0  0  0
   10.8657  -18.4640   19.5945 N   0  0  0  0  0  0  0  0  0  0  0  0
    9.6727  -17.3656   21.3231 C   0  0  0  0  0  0  0  0  0  0  0  0
    8.9572  -16.4548   21.7954 O   0  0  0  0  0  0  0  0  0  0  0  0
    8.1666  -11.6056   20.5230 N   0  0  0  0  0  0  0  0  0  0  0  0
   10.0801  -18.4029   22.2000 C   0  0  2  0  0  0  0  0  0  0  0  0
    9.6318  -18.4213   23.5957 C   0  0  0  0  0  0  0  0  0  0  0  0
   10.5637  -19.3761   24.3719 C   0  0  0  0  0  0  0  0  0  0  0  0
   10.2491  -19.4851   25.8169 C   0  0  0  0  0  0  0  0  0  0  0  0
   11.1746  -20.3555   26.6138 C   0  0  0  0  0  0  0  0  0  0  0  0
   10.6749  -20.3350   28.0582 N   0  0  0  0  0  0  0  0  0  0  0  0
   11.5158  -21.1950   28.8714 C   0  0  0  0  0  0  0  0  0  0  0  0
    9.7321  -17.1268   24.2554 O   0  0  0  0  0  0  0  0  0  0  0  0
   10.8316  -16.4945   24.1449 N   0  0  0  0  0  0  0  0  0  0  0  0
    8.7322  -16.4840   25.0063 C   0  0  1  0  0  0  0  0  0  0  0  0
    8.9334  -15.1608   25.6470 C   0  0  0  0  0  0  0  0  0  0  0  0
    7.5916  -14.4379   25.6331 C   0  0  0  0  0  0  0  0  0  0  0  0
    7.6304  -13.1060   26.3010 C   0  0  0  0  0  0  0  0  0  0  0  0
    6.2882  -12.3985   26.3044 C   0  0  0  0  0  0  0  0  0  0  0  0
    6.4494  -11.0653   26.9829 N   0  0  0  0  0  0  0  0  0  0  0  0
    5.1460  -10.4370   27.1309 C   0  0  0  0  0  0  0  0  0  0  0  0
    9.4185  -15.3035   27.0044 O   0  0  0  0  0  0  0  0  0  0  0  0
    9.2131  -16.3706   27.6974 O   0  0  0  0  0  0  0  0  0  0  0  0
  2  1  1  0
  2  4  1  0
  3  2  2  0
  4  5  1  0
  5  6  1  0
  6  7  1  0
  7  8  1  0
  8  9  1  6
 10  8  1  0
 11 10  2  0
 12 10  1  0
 13 19  1  0
 13 12  1  0
 13 14  1  6
 15 14  1  0
 16 15  1  0
 17 16  1  0
 18 17  1  0
 19 21  1  0
 20 19  2  0
 21 22  1  0
 22 28  1  0
 22 23  1  1
 23 24  1  0
 25 24  1  0
 26 25  1  0
 26 27  1  0
 28 29  2  0
 28 30  1  0
M  END
$$$$
