RKK.pdb
     RDKit          3D

 30 29  0  0  1  0  0  0  0  0999 V2000
    8.2246  -12.9066   17.1899 N   0  0  0  0  0  0  0  0  0  0  0  0
    7.7735  -14.2454   17.2792 C   0  0  0  0  0  0  0  0  0  0  0  0
    6.6494  -14.5975   17.8250 N   0  0  0  0  0  0  0  0  0  0  0  0
    8.5879  -15.2912   16.7491 N   0  0  0  0  0  0  0  0  0  0  0  0
    9.5830  -15.9644   17.5856 C   0  0  0  0  0  0  0  0  0  0  0  0
   10.3795  -14.9523   18.3397 C   0  0  0  0  0  0  0  0  0  0  0  0
   10.8597  -15.4096   19.6925 C   0  0  0  0  0  0  0  0  0  0  0  0
    9.6522  -15.8132   20.5168 C   0  0  2  0  0  0  0  0  0  0  0  0
    8.4586  -15.2518   19.8884 N   0  0  0  0  0  0  0  0  0  0  0  0
    9.7192  -15.3159   21.8945 C   0  0  0  0  0  0  0  0  0  0  0  0
   10.7847  -15.4700   22.5313 O   0  0  0  0  0  0  0  0  0  0  0  0
    6.4323  -15.6359   17.9047 N   0  0  0  0  0  0  0  0  0  0  0  0
    8.6466  -14.6650   22.5556 C   0  0  2  0  0  0  0  0  0  0  0  0
    8.7313  -14.3476   23.9844 C   0  0  0  0  0  0  0  0  0  0  0  0
    7.4789  -13.5243   24.3537 C   0  0  0  0  0  0  0  0  0  0  0  0
    7.3999  -13.1551   25.7878 C   0  0  0  0  0  0  0  0  0  0  0  0
    6.2582  -12.2567   26.1597 C   0  0  0  0  0  0  0  0  0  0  0  0
    6.3212  -12.0568   27.6738 N   0  0  0  0  0  0  0  0  0  0  0  0
    5.2068  -11.2283   28.0974 C   0  0  0  0  0  0  0  0  0  0  0  0
    8.7147  -15.5239   24.8429 O   0  0  0  0  0  0  0  0  0  0  0  0
    7.8053  -16.3904   24.6351 N   0  0  0  0  0  0  0  0  0  0  0  0
    9.6091  -15.8175   25.8873 C   0  0  1  0  0  0  0  0  0  0  0  0
    9.8585  -17.1990   26.3678 C   0  0  0  0  0  0  0  0  0  0  0  0
   10.7173  -17.8987   25.3207 C   0  0  0  0  0  0  0  0  0  0  0  0
   11.0960  -19.2896   25.6998 C   0  0  0  0  0  0  0  0  0  0  0  0
   11.9130  -19.9987   24.6361 C   0  0  0  0  0  0  0  0  0  0  0  0
   12.2810  -21.3660   25.1447 N   0  0  0  0  0  0  0  0  0  0  0  0
   12.9244  -22.1209   24.0809 C   0  0  0  0  0  0  0  0  0  0  0  0
   10.5277  -17.1950   27.6524 O   0  0  0  0  0  0  0  0  0  0  0  0
   11.3835  -16.2875   27.9768 O   0  0  0  0  0  0  0  0  0  0  0  0
  2  1  1  0
  2  4  1  0
  3  2  2  0
  4  5  1  0
  5  6  1  0
  6  7  1  0
  7  8  1  0
  8  9  1  6
 10  8  1  0
 11 10  2  0
 12 10  1  0
 13 19  1  0
 13 12  1  0
 13 14  1  6
 15 14  1  0
 16 15  1  0
 17 16  1  0
 18 17  1  0
 19 21  1  0
 20 19  2  0
 21 22  1  0
 22 28  1  0
 22 23  1  1
 23 24  1  0
 25 24  1  0
 26 25  1  0
 26 27  1  0
 28 29  2  0
 28 30  1  0
M  END
$$$$
