RKK.pdb
     RDKit          3D

 30 29  0  0  1  0  0  0  0  0999 V2000
    9.9306  -13.1809   16.9343 N   0  0  0  0  0  0  0  0  0  0  0  0
    8.7565  -13.5369   16.2282 C   0  0  0  0  0  0  0  0  0  0  0  0
    8.7461  -14.2871   15.1687 N   0  0  0  0  0  0  0  0  0  0  0  0
    7.4948  -13.0501   16.6855 N   0  0  0  0  0  0  0  0  0  0  0  0
    7.1998  -12.9587   18.1165 C   0  0  0  0  0  0  0  0  0  0  0  0
    6.7528  -14.2878   18.6277 C   0  0  0  0  0  0  0  0  0  0  0  0
    6.9660  -14.4987   20.1041 C   0  0  0  0  0  0  0  0  0  0  0  0
    8.3775  -15.0120   20.3145 C   0  0  2  0  0  0  0  0  0  0  0  0
    8.7692  -15.7766   19.1326 N   0  0  0  0  0  0  0  0  0  0  0  0
    8.4890  -15.8902   21.4834 C   0  0  0  0  0  0  0  0  0  0  0  0
    7.9976  -15.5035   22.5668 O   0  0  0  0  0  0  0  0  0  0  0  0
    7.8263  -14.4107   14.6487 N   0  0  0  0  0  0  0  0  0  0  0  0
    9.1208  -17.1596   21.4642 C   0  0  1  0  0  0  0  0  0  0  0  0
    9.2722  -17.9382   22.6971 C   0  0  0  0  0  0  0  0  0  0  0  0
    9.9237  -19.2857   22.3200 C   0  0  0  0  0  0  0  0  0  0  0  0
   10.0507  -20.2335   23.4535 C   0  0  0  0  0  0  0  0  0  0  0  0
   10.7113  -21.5403   23.1295 C   0  0  0  0  0  0  0  0  0  0  0  0
   10.8282  -22.3193   24.4395 N   0  0  0  0  0  0  0  0  0  0  0  0
   11.5297  -23.5671   24.1974 C   0  0  0  0  0  0  0  0  0  0  0  0
   10.1563  -17.3158   23.6727 O   0  0  0  0  0  0  0  0  0  0  0  0
   11.3995  -17.2795   23.4003 N   0  0  0  0  0  0  0  0  0  0  0  0
    9.7837  -16.7349   24.8976 C   0  0  1  0  0  0  0  0  0  0  0  0
   10.7728  -16.2805   25.9060 C   0  0  0  0  0  0  0  0  0  0  0  0
    9.9937  -15.7777   27.1157 C   0  0  0  0  0  0  0  0  0  0  0  0
   10.8643  -15.4063   28.2672 C   0  0  0  0  0  0  0  0  0  0  0  0
   10.0882  -14.8740   29.4573 C   0  0  0  0  0  0  0  0  0  0  0  0
   11.0591  -14.5625   30.5637 N   0  0  0  0  0  0  0  0  0  0  0  0
   10.3502  -13.9316   31.6661 C   0  0  0  0  0  0  0  0  0  0  0  0
   11.6644  -17.3562   26.2882 O   0  0  0  0  0  0  0  0  0  0  0  0
   12.9401  -17.2817   26.1209 O   0  0  0  0  0  0  0  0  0  0  0  0
  2  1  1  0
  2  4  1  0
  3  2  2  0
  4  5  1  0
  5  6  1  0
  6  7  1  0
  7  8  1  0
  8  9  1  6
 10  8  1  0
 11 10  2  0
 12 10  1  0
 13 19  1  0
 13 12  1  0
 13 14  1  1
 15 14  1  0
 16 15  1  0
 17 16  1  0
 18 17  1  0
 19 21  1  0
 20 19  2  0
 21 22  1  0
 22 28  1  0
 22 23  1  1
 23 24  1  0
 25 24  1  0
 26 25  1  0
 26 27  1  0
 28 29  2  0
 28 30  1  0
M  END
$$$$
