RKK.pdb
     RDKit          3D

 30 29  0  0  1  0  0  0  0  0999 V2000
    8.5923  -12.7610   16.6707 N   0  0  0  0  0  0  0  0  0  0  0  0
    8.5502  -13.7704   15.6792 C   0  0  0  0  0  0  0  0  0  0  0  0
    8.8546  -13.5759   14.4322 N   0  0  0  0  0  0  0  0  0  0  0  0
    8.1469  -15.0898   16.0458 N   0  0  0  0  0  0  0  0  0  0  0  0
    7.6914  -15.3846   17.4055 C   0  0  0  0  0  0  0  0  0  0  0  0
    8.7282  -16.1806   18.1260 C   0  0  0  0  0  0  0  0  0  0  0  0
    9.2943  -15.5137   19.3525 C   0  0  0  0  0  0  0  0  0  0  0  0
    9.0331  -16.4103   20.5475 C   0  0  2  0  0  0  0  0  0  0  0  0
    7.6388  -16.8441   20.5003 N   0  0  0  0  0  0  0  0  0  0  0  0
    9.2547  -15.7252   21.8248 C   0  0  0  0  0  0  0  0  0  0  0  0
   10.4180  -15.3673   22.1137 O   0  0  0  0  0  0  0  0  0  0  0  0
    8.7731  -14.3968   13.7605 N   0  0  0  0  0  0  0  0  0  0  0  0
    8.2275  -15.4384   22.7594 C   0  0  1  0  0  0  0  0  0  0  0  0
    8.5279  -14.7277   24.0060 C   0  0  0  0  0  0  0  0  0  0  0  0
    7.2441  -13.9907   24.4431 C   0  0  0  0  0  0  0  0  0  0  0  0
    7.3903  -13.2155   25.6988 C   0  0  0  0  0  0  0  0  0  0  0  0
    6.1671  -12.4689   26.1411 C   0  0  0  0  0  0  0  0  0  0  0  0
    6.5322  -11.7376   27.4327 N   0  0  0  0  0  0  0  0  0  0  0  0
    5.3530  -11.0765   27.9621 C   0  0  0  0  0  0  0  0  0  0  0  0
    8.8867  -15.6112   25.1067 O   0  0  0  0  0  0  0  0  0  0  0  0
    8.0196  -16.4648   25.4818 N   0  0  0  0  0  0  0  0  0  0  0  0
   10.1053  -15.6322   25.8077 C   0  0  1  0  0  0  0  0  0  0  0  0
   10.3770  -16.5757   26.9202 C   0  0  0  0  0  0  0  0  0  0  0  0
   11.7659  -17.1612   26.6936 C   0  0  0  0  0  0  0  0  0  0  0  0
   11.8755  -18.5940   27.0893 C   0  0  0  0  0  0  0  0  0  0  0  0
   13.2778  -19.1523   26.9346 C   0  0  0  0  0  0  0  0  0  0  0  0
   13.2390  -20.6313   27.2078 N   0  0  0  0  0  0  0  0  0  0  0  0
   14.5736  -21.1878   27.0494 C   0  0  0  0  0  0  0  0  0  0  0  0
   10.3116  -15.9067   28.2033 O   0  0  0  0  0  0  0  0  0  0  0  0
   10.3208  -14.6222   28.3081 O   0  0  0  0  0  0  0  0  0  0  0  0
  2  1  1  0
  2  4  1  0
  3  2  2  0
  4  5  1  0
  5  6  1  0
  6  7  1  0
  7  8  1  0
  8  9  1  1
 10  8  1  0
 11 10  2  0
 12 10  1  0
 13 19  1  0
 13 12  1  0
 13 14  1  1
 15 14  1  0
 16 15  1  0
 17 16  1  0
 18 17  1  0
 19 21  1  0
 20 19  2  0
 21 22  1  0
 22 28  1  0
 22 23  1  1
 23 24  1  0
 25 24  1  0
 26 25  1  0
 26 27  1  0
 28 29  2  0
 28 30  1  0
M  END
$$$$
