RKK.pdb
     RDKit          3D

 30 29  0  0  1  0  0  0  0  0999 V2000
    8.8809  -13.4012   13.8025 N   0  0  0  0  0  0  0  0  0  0  0  0
    7.5172  -13.6112   14.1189 C   0  0  0  0  0  0  0  0  0  0  0  0
    6.5487  -13.5067   13.2608 N   0  0  0  0  0  0  0  0  0  0  0  0
    7.1582  -13.9549   15.4572 N   0  0  0  0  0  0  0  0  0  0  0  0
    8.1800  -14.3360   16.4338 C   0  0  0  0  0  0  0  0  0  0  0  0
    8.2908  -13.2849   17.4876 C   0  0  0  0  0  0  0  0  0  0  0  0
    7.7476  -13.6843   18.8349 C   0  0  0  0  0  0  0  0  0  0  0  0
    8.8355  -14.4253   19.5882 C   0  0  2  0  0  0  0  0  0  0  0  0
    9.3151  -15.5182   18.7454 N   0  0  0  0  0  0  0  0  0  0  0  0
    8.3566  -14.9986   20.8499 C   0  0  0  0  0  0  0  0  0  0  0  0
    7.9363  -14.2208   21.7348 O   0  0  0  0  0  0  0  0  0  0  0  0
    5.5571  -13.6977   13.5956 N   0  0  0  0  0  0  0  0  0  0  0  0
    8.3371  -16.3880   21.1327 C   0  0  1  0  0  0  0  0  0  0  0  0
    7.8459  -16.8817   22.4228 C   0  0  0  0  0  0  0  0  0  0  0  0
    7.5198  -18.3809   22.2543 C   0  0  0  0  0  0  0  0  0  0  0  0
    7.0482  -19.0399   23.4963 C   0  0  0  0  0  0  0  0  0  0  0  0
    6.6266  -20.4712   23.3459 C   0  0  0  0  0  0  0  0  0  0  0  0
    6.3799  -21.0150   24.7530 N   0  0  0  0  0  0  0  0  0  0  0  0
    7.6434  -21.4222   25.3408 C   0  0  0  0  0  0  0  0  0  0  0  0
    8.8316  -16.7956   23.4914 O   0  0  0  0  0  0  0  0  0  0  0  0
    9.9888  -17.2752   23.2637 N   0  0  0  0  0  0  0  0  0  0  0  0
    8.6473  -16.2267   24.7639 C   0  0  1  0  0  0  0  0  0  0  0  0
    9.7240  -16.1711   25.7834 C   0  0  0  0  0  0  0  0  0  0  0  0
    9.2217  -15.3029   26.9311 C   0  0  0  0  0  0  0  0  0  0  0  0
   10.1422  -15.2817   28.1033 C   0  0  0  0  0  0  0  0  0  0  0  0
    9.6270  -14.4375   29.2540 C   0  0  0  0  0  0  0  0  0  0  0  0
   10.5923  -14.5502   30.4025 N   0  0  0  0  0  0  0  0  0  0  0  0
   10.1152  -13.7455   31.5163 C   0  0  0  0  0  0  0  0  0  0  0  0
   10.0635  -17.4959   26.2606 O   0  0  0  0  0  0  0  0  0  0  0  0
   11.2848  -17.8913   26.3753 O   0  0  0  0  0  0  0  0  0  0  0  0
  2  1  1  0
  2  4  1  0
  3  2  2  0
  4  5  1  0
  5  6  1  0
  6  7  1  0
  7  8  1  0
  8  9  1  6
 10  8  1  0
 11 10  2  0
 12 10  1  0
 13 19  1  0
 13 12  1  0
 13 14  1  1
 15 14  1  0
 16 15  1  0
 17 16  1  0
 18 17  1  0
 19 21  1  0
 20 19  2  0
 21 22  1  0
 22 28  1  0
 22 23  1  1
 23 24  1  0
 25 24  1  0
 26 25  1  0
 26 27  1  0
 28 29  2  0
 28 30  1  0
M  END
$$$$
