RKK.pdb
     RDKit          3D

 30 29  0  0  1  0  0  0  0  0999 V2000
    8.8297  -12.7094   15.7450 N   0  0  0  0  0  0  0  0  0  0  0  0
    8.7198  -13.7208   14.7608 C   0  0  0  0  0  0  0  0  0  0  0  0
    9.2335  -13.6351   13.5716 N   0  0  0  0  0  0  0  0  0  0  0  0
    8.0012  -14.9155   15.0678 N   0  0  0  0  0  0  0  0  0  0  0  0
    7.3643  -15.0934   16.3738 C   0  0  0  0  0  0  0  0  0  0  0  0
    8.2878  -15.8213   17.2931 C   0  0  0  0  0  0  0  0  0  0  0  0
    8.3145  -15.2957   18.7047 C   0  0  0  0  0  0  0  0  0  0  0  0
    9.0957  -16.2717   19.5633 C   0  0  2  0  0  0  0  0  0  0  0  0
    9.1859  -17.5425   18.8481 N   0  0  0  0  0  0  0  0  0  0  0  0
    8.4541  -16.5214   20.8579 C   0  0  0  0  0  0  0  0  0  0  0  0
    7.5534  -15.7401   21.2359 O   0  0  0  0  0  0  0  0  0  0  0  0
    9.0683  -14.4377   12.8931 N   0  0  0  0  0  0  0  0  0  0  0  0
    8.7901  -17.6007   21.7143 C   0  0  1  0  0  0  0  0  0  0  0  0
    8.1581  -17.7357   23.0302 C   0  0  0  0  0  0  0  0  0  0  0  0
    8.7292  -19.0073   23.6930 C   0  0  0  0  0  0  0  0  0  0  0  0
    8.2035  -19.2668   25.0551 C   0  0  0  0  0  0  0  0  0  0  0  0
    8.6439  -20.5566   25.6808 C   0  0  0  0  0  0  0  0  0  0  0  0
    7.9022  -20.6846   27.0112 N   0  0  0  0  0  0  0  0  0  0  0  0
    8.3263  -21.8989   27.6846 C   0  0  0  0  0  0  0  0  0  0  0  0
    8.4575  -16.6341   23.9344 O   0  0  0  0  0  0  0  0  0  0  0  0
    9.6805  -16.3140   24.0862 N   0  0  0  0  0  0  0  0  0  0  0  0
    7.5320  -15.8677   24.6644 C   0  0  1  0  0  0  0  0  0  0  0  0
    7.8996  -14.6076   25.3564 C   0  0  0  0  0  0  0  0  0  0  0  0
    6.6674  -13.7104   25.3563 C   0  0  0  0  0  0  0  0  0  0  0  0
    6.8922  -12.3970   26.0243 C   0  0  0  0  0  0  0  0  0  0  0  0
    5.6582  -11.5144   26.0402 C   0  0  0  0  0  0  0  0  0  0  0  0
    5.9998  -10.2231   26.7325 N   0  0  0  0  0  0  0  0  0  0  0  0
    4.8050   -9.4005   26.8394 C   0  0  0  0  0  0  0  0  0  0  0  0
    8.3409  -14.8630   26.7121 O   0  0  0  0  0  0  0  0  0  0  0  0
    8.9865  -13.9849   27.4000 O   0  0  0  0  0  0  0  0  0  0  0  0
  2  1  1  0
  2  4  1  0
  3  2  2  0
  4  5  1  0
  5  6  1  0
  6  7  1  0
  7  8  1  0
  8  9  1  6
 10  8  1  0
 11 10  2  0
 12 10  1  0
 13 19  1  0
 13 12  1  0
 13 14  1  1
 15 14  1  0
 16 15  1  0
 17 16  1  0
 18 17  1  0
 19 21  1  0
 20 19  2  0
 21 22  1  0
 22 28  1  0
 22 23  1  1
 23 24  1  0
 25 24  1  0
 26 25  1  0
 26 27  1  0
 28 29  2  0
 28 30  1  0
M  END
$$$$
