RKK.pdb
     RDKit          3D

 30 29  0  0  1  0  0  0  0  0999 V2000
    6.9908  -12.6412   18.5215 N   0  0  0  0  0  0  0  0  0  0  0  0
    8.3179  -12.9664   18.1515 C   0  0  0  0  0  0  0  0  0  0  0  0
    9.3119  -12.1331   18.2077 N   0  0  0  0  0  0  0  0  0  0  0  0
    8.6064  -14.2826   17.6800 N   0  0  0  0  0  0  0  0  0  0  0  0
    8.2555  -15.4590   18.4774 C   0  0  0  0  0  0  0  0  0  0  0  0
    9.1684  -15.5648   19.6534 C   0  0  0  0  0  0  0  0  0  0  0  0
    9.9915  -16.8258   19.7000 C   0  0  0  0  0  0  0  0  0  0  0  0
    9.5180  -17.6624   20.8730 C   0  0  2  0  0  0  0  0  0  0  0  0
    8.0992  -17.9561   20.6848 N   0  0  0  0  0  0  0  0  0  0  0  0
    9.6744  -16.9718   22.1570 C   0  0  0  0  0  0  0  0  0  0  0  0
   10.8305  -16.7974   22.6015 O   0  0  0  0  0  0  0  0  0  0  0  0
   10.2503  -12.4420   17.8131 N   0  0  0  0  0  0  0  0  0  0  0  0
    8.5917  -16.4836   22.9318 C   0  0  1  0  0  0  0  0  0  0  0  0
    8.8345  -15.7580   24.1824 C   0  0  0  0  0  0  0  0  0  0  0  0
    7.5427  -14.9895   24.5334 C   0  0  0  0  0  0  0  0  0  0  0  0
    7.6404  -14.1768   25.7700 C   0  0  0  0  0  0  0  0  0  0  0  0
    6.4185  -13.3784   26.1143 C   0  0  0  0  0  0  0  0  0  0  0  0
    6.7434  -12.5874   27.3813 N   0  0  0  0  0  0  0  0  0  0  0  0
    5.5879  -11.7968   27.7656 C   0  0  0  0  0  0  0  0  0  0  0  0
    9.1120  -16.6297   25.3155 O   0  0  0  0  0  0  0  0  0  0  0  0
    8.2189  -17.4784   25.6367 N   0  0  0  0  0  0  0  0  0  0  0  0
   10.2772  -16.6439   26.1022 C   0  0  1  0  0  0  0  0  0  0  0  0
   10.4963  -17.6212   27.1971 C   0  0  0  0  0  0  0  0  0  0  0  0
   11.8168  -18.3299   26.9192 C   0  0  0  0  0  0  0  0  0  0  0  0
   12.2010  -19.3026   27.9813 C   0  0  0  0  0  0  0  0  0  0  0  0
   13.5543  -19.9458   27.7429 C   0  0  0  0  0  0  0  0  0  0  0  0
   13.7994  -20.9639   28.8232 N   0  0  0  0  0  0  0  0  0  0  0  0
   15.0256  -21.6908   28.5339 C   0  0  0  0  0  0  0  0  0  0  0  0
   10.5353  -16.9637   28.4872 O   0  0  0  0  0  0  0  0  0  0  0  0
   10.4832  -17.6219   29.5941 O   0  0  0  0  0  0  0  0  0  0  0  0
  2  1  1  0
  2  4  1  0
  3  2  2  0
  4  5  1  0
  5  6  1  0
  6  7  1  0
  7  8  1  0
  8  9  1  6
 10  8  1  0
 11 10  2  0
 12 10  1  0
 13 19  1  0
 13 12  1  0
 13 14  1  1
 15 14  1  0
 16 15  1  0
 17 16  1  0
 18 17  1  0
 19 21  1  0
 20 19  2  0
 21 22  1  0
 22 28  1  0
 22 23  1  1
 23 24  1  0
 25 24  1  0
 26 25  1  0
 26 27  1  0
 28 29  2  0
 28 30  1  0
M  END
$$$$
