ENA.pdb
     RDKit          3D

 23 22  0  0  1  0  0  0  0  0999 V2000
   22.2439  -10.9579  -18.9958 N   0  0  0  0  0  0  0  0  0  0  0  0
   22.8865   -9.8522  -18.3103 C   0  0  1  0  0  0  0  0  0  0  0  0
   23.6790   -9.0680  -19.2995 C   0  0  0  0  0  0  0  0  0  0  0  0
   22.7215   -8.4615  -20.3158 C   0  0  0  0  0  0  0  0  0  0  0  0
   23.4257   -7.7132  -21.3599 C   0  0  0  0  0  0  0  0  0  0  0  0
   24.5016   -8.1584  -21.8246 O   0  0  0  0  0  0  0  0  0  0  0  0
   21.8393   -9.0520  -17.6064 C   0  0  0  0  0  0  0  0  0  0  0  0
   20.6506   -8.9886  -17.9940 O   0  0  0  0  0  0  0  0  0  0  0  0
   22.9551   -6.5135  -21.8719 O   0  0  0  0  0  0  0  0  0  0  0  0
   19.3072   -6.4277  -13.8353 N   0  0  0  0  0  0  0  0  0  0  0  0
   20.1133   -7.5110  -13.3939 C   0  0  0  0  0  0  0  0  0  0  0  0
   19.8927   -7.9507  -12.2431 O   0  0  0  0  0  0  0  0  0  0  0  0
   21.1588   -8.0981  -14.2339 C   0  0  0  0  0  0  0  0  0  0  0  0
   21.1955   -7.5850  -15.6492 C   0  0  2  0  0  0  0  0  0  0  0  0
   22.1584   -8.3005  -16.4230 N   0  0  0  0  0  0  0  0  0  0  0  0
   21.4864   -6.1170  -15.6020 C   0  0  0  0  0  0  0  0  0  0  0  0
   22.6273   -5.6691  -15.3984 O   0  0  0  0  0  0  0  0  0  0  0  0
   19.3690   -3.0612  -16.3542 C   0  0  0  0  0  0  0  0  0  0  0  0
   20.5988   -3.7870  -15.8659 C   0  0  2  0  0  0  0  0  0  0  0  0
   20.4003   -5.2265  -15.8011 N   0  0  0  0  0  0  0  0  0  0  0  0
   21.0397   -3.2500  -14.5383 C   0  0  0  0  0  0  0  0  0  0  0  0
   21.8857   -2.1547  -14.5205 O   0  0  0  0  0  0  0  0  0  0  0  0
   20.6302   -3.8073  -13.5012 O   0  0  0  0  0  0  0  0  0  0  0  0
  2  1  1  6
  2  7  1  0
  3  4  1  0
  3  2  1  0
  4  5  1  0
  5  9  1  0
  6  5  2  0
  7  8  2  0
 10 11  1  0
 11 12  2  0
 14 13  1  1
 13 11  1  0
 15  7  1  0
 15 14  1  0
 16 14  1  0
 16 17  2  0
 19 18  1  1
 19 20  1  0
 19 21  1  0
 20 16  1  0
 21 22  1  0
 23 21  2  0
M  END
$$$$
