ENA.pdb
     RDKit          3D

 23 22  0  0  1  0  0  0  0  0999 V2000
   17.8286  -11.3995  -14.6144 N   0  0  0  0  0  0  0  0  0  0  0  0
   18.7638  -11.0896  -15.6796 C   0  0  1  0  0  0  0  0  0  0  0  0
   18.2097  -11.5933  -16.9683 C   0  0  0  0  0  0  0  0  0  0  0  0
   17.9244  -13.0817  -16.8240 C   0  0  0  0  0  0  0  0  0  0  0  0
   17.3025  -13.6438  -18.0255 C   0  0  0  0  0  0  0  0  0  0  0  0
   18.0242  -14.1195  -18.9336 O   0  0  0  0  0  0  0  0  0  0  0  0
   19.0286   -9.6191  -15.6711 C   0  0  0  0  0  0  0  0  0  0  0  0
   19.9232   -9.0807  -16.3618 O   0  0  0  0  0  0  0  0  0  0  0  0
   15.9294  -13.6783  -18.2150 O   0  0  0  0  0  0  0  0  0  0  0  0
   16.2864   -7.0360  -16.8952 N   0  0  0  0  0  0  0  0  0  0  0  0
   16.0100   -6.6275  -15.5629 C   0  0  0  0  0  0  0  0  0  0  0  0
   14.8540   -6.2111  -15.3253 O   0  0  0  0  0  0  0  0  0  0  0  0
   17.0196   -6.6845  -14.5044 C   0  0  0  0  0  0  0  0  0  0  0  0
   18.3273   -7.3111  -14.9105 C   0  0  2  0  0  0  0  0  0  0  0  0
   18.2479   -8.7351  -14.8488 N   0  0  0  0  0  0  0  0  0  0  0  0
   19.3989   -6.7656  -14.0182 C   0  0  0  0  0  0  0  0  0  0  0  0
   19.5534   -7.1525  -12.8477 O   0  0  0  0  0  0  0  0  0  0  0  0
   22.6751   -5.9771  -14.1495 C   0  0  0  0  0  0  0  0  0  0  0  0
   21.3926   -5.2603  -13.8046 C   0  0  2  0  0  0  0  0  0  0  0  0
   20.2562   -5.7712  -14.5552 N   0  0  0  0  0  0  0  0  0  0  0  0
   21.5407   -3.7825  -14.0030 C   0  0  0  0  0  0  0  0  0  0  0  0
   20.7672   -3.1687  -14.9729 O   0  0  0  0  0  0  0  0  0  0  0  0
   22.3526   -3.1611  -13.2899 O   0  0  0  0  0  0  0  0  0  0  0  0
  2  1  1  1
  2  7  1  0
  3  4  1  0
  3  2  1  0
  4  5  1  0
  5  9  1  0
  6  5  2  0
  7  8  2  0
 10 11  1  0
 11 12  2  0
 14 13  1  1
 13 11  1  0
 15  7  1  0
 15 14  1  0
 16 14  1  0
 16 17  2  0
 19 18  1  6
 19 20  1  0
 19 21  1  0
 20 16  1  0
 21 22  1  0
 23 21  2  0
M  END
$$$$
