ENA.pdb
     RDKit          3D

 23 22  0  0  1  0  0  0  0  0999 V2000
   17.2239  -10.4677  -16.6934 N   0  0  0  0  0  0  0  0  0  0  0  0
   17.6654  -10.6481  -15.3230 C   0  0  1  0  0  0  0  0  0  0  0  0
   17.8478  -12.1045  -15.0640 C   0  0  0  0  0  0  0  0  0  0  0  0
   16.6476  -12.8511  -15.6291 C   0  0  0  0  0  0  0  0  0  0  0  0
   16.7669  -14.3008  -15.4549 C   0  0  0  0  0  0  0  0  0  0  0  0
   16.1215  -14.8720  -14.5445 O   0  0  0  0  0  0  0  0  0  0  0  0
   18.9023   -9.8380  -15.1081 C   0  0  0  0  0  0  0  0  0  0  0  0
   19.5631   -9.8663  -14.0452 O   0  0  0  0  0  0  0  0  0  0  0  0
   17.5728  -15.0908  -16.2606 O   0  0  0  0  0  0  0  0  0  0  0  0
   22.0240  -10.6042  -17.0418 N   0  0  0  0  0  0  0  0  0  0  0  0
   21.9240   -9.4612  -17.8796 C   0  0  0  0  0  0  0  0  0  0  0  0
   22.3974   -9.5604  -19.0338 O   0  0  0  0  0  0  0  0  0  0  0  0
   21.2990   -8.2164  -17.4290 C   0  0  0  0  0  0  0  0  0  0  0  0
   20.6543   -8.2880  -16.0700 C   0  0  2  0  0  0  0  0  0  0  0  0
   19.4012   -8.9683  -16.1387 N   0  0  0  0  0  0  0  0  0  0  0  0
   20.5111   -6.8906  -15.5514 C   0  0  0  0  0  0  0  0  0  0  0  0
   19.5568   -6.1582  -15.8622 O   0  0  0  0  0  0  0  0  0  0  0  0
   22.1662   -5.0304  -12.7419 C   0  0  0  0  0  0  0  0  0  0  0  0
   21.4218   -5.0986  -14.0529 C   0  0  2  0  0  0  0  0  0  0  0  0
   21.5166   -6.4107  -14.6734 N   0  0  0  0  0  0  0  0  0  0  0  0
   21.8985   -4.0308  -14.9899 C   0  0  0  0  0  0  0  0  0  0  0  0
   21.6028   -2.7125  -14.6891 O   0  0  0  0  0  0  0  0  0  0  0  0
   22.5419   -4.3670  -16.0032 O   0  0  0  0  0  0  0  0  0  0  0  0
  2  1  1  6
  2  7  1  0
  3  4  1  0
  3  2  1  0
  4  5  1  0
  5  9  1  0
  6  5  2  0
  7  8  2  0
 10 11  1  0
 11 12  2  0
 14 13  1  6
 13 11  1  0
 15  7  1  0
 15 14  1  0
 16 14  1  0
 16 17  2  0
 19 18  1  1
 19 20  1  0
 19 21  1  0
 20 16  1  0
 21 22  1  0
 23 21  2  0
M  END
$$$$
