ENA.pdb
     RDKit          3D

 23 22  0  0  1  0  0  0  0  0999 V2000
   13.2570  -10.3930  -10.1751 N   0  0  0  0  0  0  0  0  0  0  0  0
   14.7061  -10.3356  -10.1252 C   0  0  1  0  0  0  0  0  0  0  0  0
   15.2606  -11.3595  -11.0555 C   0  0  0  0  0  0  0  0  0  0  0  0
   14.9395  -12.7410  -10.5025 C   0  0  0  0  0  0  0  0  0  0  0  0
   15.3367  -13.8100  -11.4220 C   0  0  0  0  0  0  0  0  0  0  0  0
   14.4750  -14.6152  -11.8475 O   0  0  0  0  0  0  0  0  0  0  0  0
   15.1407   -8.9403  -10.4360 C   0  0  0  0  0  0  0  0  0  0  0  0
   14.6601   -8.2669  -11.3756 O   0  0  0  0  0  0  0  0  0  0  0  0
   16.6426  -13.9818  -11.8555 O   0  0  0  0  0  0  0  0  0  0  0  0
   17.4902   -4.2811  -10.2895 N   0  0  0  0  0  0  0  0  0  0  0  0
   16.9691   -4.6941   -9.0340 C   0  0  0  0  0  0  0  0  0  0  0  0
   16.9167   -3.8308   -8.1295 O   0  0  0  0  0  0  0  0  0  0  0  0
   16.5102   -6.0632   -8.7924 C   0  0  0  0  0  0  0  0  0  0  0  0
   16.6975   -7.0068   -9.9508 C   0  0  2  0  0  0  0  0  0  0  0  0
   16.1556   -8.2928   -9.6499 N   0  0  0  0  0  0  0  0  0  0  0  0
   18.1602   -7.0695  -10.2650 C   0  0  0  0  0  0  0  0  0  0  0  0
   19.0205   -7.2892   -9.3959 O   0  0  0  0  0  0  0  0  0  0  0  0
   20.1429   -8.0959  -13.0326 C   0  0  0  0  0  0  0  0  0  0  0  0
   19.9391   -6.9866  -12.0298 C   0  0  2  0  0  0  0  0  0  0  0  0
   18.5505   -6.8675  -11.6137 N   0  0  0  0  0  0  0  0  0  0  0  0
   20.4470   -5.6840  -12.5690 C   0  0  0  0  0  0  0  0  0  0  0  0
   21.8146   -5.5157  -12.7008 O   0  0  0  0  0  0  0  0  0  0  0  0
   19.6225   -4.8019  -12.8783 O   0  0  0  0  0  0  0  0  0  0  0  0
  2  1  1  6
  2  7  1  0
  3  4  1  0
  3  2  1  0
  4  5  1  0
  5  9  1  0
  6  5  2  0
  7  8  2  0
 10 11  1  0
 11 12  2  0
 14 13  1  1
 13 11  1  0
 15  7  1  0
 15 14  1  0
 16 14  1  0
 16 17  2  0
 19 18  1  6
 19 20  1  0
 19 21  1  0
 20 16  1  0
 21 22  1  0
 23 21  2  0
M  END
$$$$
