ENA.pdb
     RDKit          3D

 23 22  0  0  1  0  0  0  0  0999 V2000
   17.9141   -9.7021  -17.3421 N   0  0  0  0  0  0  0  0  0  0  0  0
   17.2675   -9.2147  -16.1380 C   0  0  1  0  0  0  0  0  0  0  0  0
   16.8443  -10.3817  -15.3130 C   0  0  0  0  0  0  0  0  0  0  0  0
   16.0072  -11.3106  -16.1812 C   0  0  0  0  0  0  0  0  0  0  0  0
   15.6348  -12.5394  -15.4758 C   0  0  0  0  0  0  0  0  0  0  0  0
   14.8786  -13.3701  -16.0324 O   0  0  0  0  0  0  0  0  0  0  0  0
   18.2035   -8.2867  -15.4343 C   0  0  0  0  0  0  0  0  0  0  0  0
   17.9222   -7.7202  -14.3540 O   0  0  0  0  0  0  0  0  0  0  0  0
   16.0838  -12.8381  -14.1983 O   0  0  0  0  0  0  0  0  0  0  0  0
   21.3473   -9.3258  -13.7410 N   0  0  0  0  0  0  0  0  0  0  0  0
   22.2330   -8.7813  -14.7091 C   0  0  0  0  0  0  0  0  0  0  0  0
   23.3642   -9.3084  -14.8036 O   0  0  0  0  0  0  0  0  0  0  0  0
   21.8559   -7.6552  -15.5652 C   0  0  0  0  0  0  0  0  0  0  0  0
   20.4567   -7.1405  -15.3534 C   0  0  2  0  0  0  0  0  0  0  0  0
   19.5014   -7.9961  -15.9805 N   0  0  0  0  0  0  0  0  0  0  0  0
   20.3936   -5.7406  -15.8811 C   0  0  0  0  0  0  0  0  0  0  0  0
   20.5724   -5.4710  -17.0807 O   0  0  0  0  0  0  0  0  0  0  0  0
   18.7691   -2.6431  -14.9406 C   0  0  0  0  0  0  0  0  0  0  0  0
   20.0533   -3.3098  -15.3696 C   0  0  2  0  0  0  0  0  0  0  0  0
   20.1171   -4.7024  -14.9548 N   0  0  0  0  0  0  0  0  0  0  0  0
   21.2409   -2.5487  -14.8639 C   0  0  0  0  0  0  0  0  0  0  0  0
   21.4833   -1.2884  -15.3824 O   0  0  0  0  0  0  0  0  0  0  0  0
   21.9654   -3.0761  -13.9975 O   0  0  0  0  0  0  0  0  0  0  0  0
  2  1  1  6
  2  7  1  0
  3  4  1  0
  3  2  1  0
  4  5  1  0
  5  9  1  0
  6  5  2  0
  7  8  2  0
 10 11  1  0
 11 12  2  0
 14 13  1  6
 13 11  1  0
 15  7  1  0
 15 14  1  0
 16 14  1  0
 16 17  2  0
 19 18  1  1
 19 20  1  0
 19 21  1  0
 20 16  1  0
 21 22  1  0
 23 21  2  0
M  END
$$$$
