ENA.pdb
     RDKit          3D

 23 22  0  0  1  0  0  0  0  0999 V2000
   11.9108  -12.0073  -10.1133 N   0  0  0  0  0  0  0  0  0  0  0  0
   12.7340  -11.2930  -11.0712 C   0  0  1  0  0  0  0  0  0  0  0  0
   11.8454  -10.5909  -12.0402 C   0  0  0  0  0  0  0  0  0  0  0  0
   11.3280  -11.6080  -13.0479 C   0  0  0  0  0  0  0  0  0  0  0  0
   12.2316  -11.7623  -14.1905 C   0  0  0  0  0  0  0  0  0  0  0  0
   12.8480  -10.7646  -14.6339 O   0  0  0  0  0  0  0  0  0  0  0  0
   13.6533  -10.3809  -10.3261 C   0  0  0  0  0  0  0  0  0  0  0  0
   13.5583  -10.1689   -9.0959 O   0  0  0  0  0  0  0  0  0  0  0  0
   12.4457  -12.9788  -14.8207 O   0  0  0  0  0  0  0  0  0  0  0  0
   17.7267   -7.1641   -9.3175 N   0  0  0  0  0  0  0  0  0  0  0  0
   17.9303   -7.8312  -10.5552 C   0  0  0  0  0  0  0  0  0  0  0  0
   19.0352   -7.6596  -11.1173 O   0  0  0  0  0  0  0  0  0  0  0  0
   16.9052   -8.6839  -11.1595 C   0  0  0  0  0  0  0  0  0  0  0  0
   15.6356   -8.8103  -10.3596 C   0  0  2  0  0  0  0  0  0  0  0  0
   14.7147   -9.6891  -11.0058 N   0  0  0  0  0  0  0  0  0  0  0  0
   15.0688   -7.4373  -10.1708 C   0  0  0  0  0  0  0  0  0  0  0  0
   14.5830   -6.7813  -11.1075 O   0  0  0  0  0  0  0  0  0  0  0  0
   14.3447   -5.3518   -7.0952 C   0  0  0  0  0  0  0  0  0  0  0  0
   14.5424   -5.5771   -8.5743 C   0  0  2  0  0  0  0  0  0  0  0  0
   15.0998   -6.8892   -8.8627 N   0  0  0  0  0  0  0  0  0  0  0  0
   15.3933   -4.4952   -9.1667 C   0  0  0  0  0  0  0  0  0  0  0  0
   14.9096   -3.1983   -9.1556 O   0  0  0  0  0  0  0  0  0  0  0  0
   16.5023   -4.8010   -9.6466 O   0  0  0  0  0  0  0  0  0  0  0  0
  2  1  1  1
  2  7  1  0
  3  4  1  0
  3  2  1  0
  4  5  1  0
  5  9  1  0
  6  5  2  0
  7  8  2  0
 10 11  1  0
 11 12  2  0
 14 13  1  6
 13 11  1  0
 15  7  1  0
 15 14  1  0
 16 14  1  0
 16 17  2  0
 19 18  1  1
 19 20  1  0
 19 21  1  0
 20 16  1  0
 21 22  1  0
 23 21  2  0
M  END
$$$$
