ENA.pdb
     RDKit          3D

 23 22  0  0  1  0  0  0  0  0999 V2000
   23.6906  -18.4932  -18.5354 N   0  0  0  0  0  0  0  0  0  0  0  0
   23.9427  -19.7898  -17.9348 C   0  0  1  0  0  0  0  0  0  0  0  0
   25.1423  -20.3941  -18.5806 C   0  0  0  0  0  0  0  0  0  0  0  0
   26.3886  -19.7839  -17.9545 C   0  0  0  0  0  0  0  0  0  0  0  0
   27.6199  -20.3510  -18.5099 C   0  0  0  0  0  0  0  0  0  0  0  0
   28.1742  -21.3164  -17.9332 O   0  0  0  0  0  0  0  0  0  0  0  0
   24.0772  -19.6147  -16.4571 C   0  0  0  0  0  0  0  0  0  0  0  0
   24.8785  -18.8078  -15.9336 O   0  0  0  0  0  0  0  0  0  0  0  0
   28.2169  -19.8662  -19.6637 O   0  0  0  0  0  0  0  0  0  0  0  0
   21.0951  -18.3700  -14.6188 N   0  0  0  0  0  0  0  0  0  0  0  0
   20.8431  -19.5539  -13.8751 C   0  0  0  0  0  0  0  0  0  0  0  0
   19.6679  -19.7417  -13.4881 O   0  0  0  0  0  0  0  0  0  0  0  0
   21.8984  -20.5204  -13.5664 C   0  0  0  0  0  0  0  0  0  0  0  0
   23.2513  -20.1830  -14.1350 C   0  0  2  0  0  0  0  0  0  0  0  0
   23.2720  -20.3845  -15.5481 N   0  0  0  0  0  0  0  0  0  0  0  0
   24.2721  -21.0212  -13.4297 C   0  0  0  0  0  0  0  0  0  0  0  0
   24.1979  -22.2604  -13.3785 O   0  0  0  0  0  0  0  0  0  0  0  0
   27.4288  -20.1953  -11.4897 C   0  0  0  0  0  0  0  0  0  0  0  0
   26.2221  -21.0253  -11.8537 C   0  0  2  0  0  0  0  0  0  0  0  0
   25.3544  -20.3494  -12.8055 N   0  0  0  0  0  0  0  0  0  0  0  0
   25.4598  -21.4203  -10.6256 C   0  0  0  0  0  0  0  0  0  0  0  0
   26.0410  -22.3248   -9.7538 O   0  0  0  0  0  0  0  0  0  0  0  0
   24.3335  -20.9219  -10.4340 O   0  0  0  0  0  0  0  0  0  0  0  0
  2  1  1  6
  2  7  1  0
  3  4  1  0
  3  2  1  0
  4  5  1  0
  5  9  1  0
  6  5  2  0
  7  8  2  0
 10 11  1  0
 11 12  2  0
 14 13  1  1
 13 11  1  0
 15  7  1  0
 15 14  1  0
 16 14  1  0
 16 17  2  0
 19 18  1  1
 19 20  1  0
 19 21  1  0
 20 16  1  0
 21 22  1  0
 23 21  2  0
M  END
$$$$
