ENA.pdb
     RDKit          3D

 23 22  0  0  1  0  0  0  0  0999 V2000
   15.7089  -11.2403  -15.9373 N   0  0  0  0  0  0  0  0  0  0  0  0
   16.5782  -10.7825  -14.8695 C   0  0  1  0  0  0  0  0  0  0  0  0
   17.5265  -11.8773  -14.5182 C   0  0  0  0  0  0  0  0  0  0  0  0
   17.5565  -12.8786  -15.6645 C   0  0  0  0  0  0  0  0  0  0  0  0
   18.9229  -13.1824  -16.0967 C   0  0  0  0  0  0  0  0  0  0  0  0
   19.8939  -12.7914  -15.4068 O   0  0  0  0  0  0  0  0  0  0  0  0
   17.2491   -9.5209  -15.3063 C   0  0  0  0  0  0  0  0  0  0  0  0
   17.4929   -9.2549  -16.5051 O   0  0  0  0  0  0  0  0  0  0  0  0
   19.2047  -13.8944  -17.2528 O   0  0  0  0  0  0  0  0  0  0  0  0
   15.8241   -4.5526  -15.4973 N   0  0  0  0  0  0  0  0  0  0  0  0
   16.1246   -5.8651  -15.0443 C   0  0  0  0  0  0  0  0  0  0  0  0
   15.3527   -6.7812  -15.4066 O   0  0  0  0  0  0  0  0  0  0  0  0
   17.2803   -6.1505  -14.1921 C   0  0  0  0  0  0  0  0  0  0  0  0
   18.1791   -7.2502  -14.6926 C   0  0  2  0  0  0  0  0  0  0  0  0
   17.6543   -8.5315  -14.3450 N   0  0  0  0  0  0  0  0  0  0  0  0
   19.5458   -7.0260  -14.1237 C   0  0  0  0  0  0  0  0  0  0  0  0
   19.8164   -7.2457  -12.9312 O   0  0  0  0  0  0  0  0  0  0  0  0
   22.8554   -6.0370  -15.7009 C   0  0  0  0  0  0  0  0  0  0  0  0
   21.9241   -6.3620  -14.5587 C   0  0  2  0  0  0  0  0  0  0  0  0
   20.5508   -6.5447  -15.0016 N   0  0  0  0  0  0  0  0  0  0  0  0
   22.0046   -5.3115  -13.4931 C   0  0  0  0  0  0  0  0  0  0  0  0
   22.9330   -5.4734  -12.4794 O   0  0  0  0  0  0  0  0  0  0  0  0
   21.2351   -4.3331  -13.5577 O   0  0  0  0  0  0  0  0  0  0  0  0
  2  1  1  6
  2  7  1  0
  3  4  1  0
  3  2  1  0
  4  5  1  0
  5  9  1  0
  6  5  2  0
  7  8  2  0
 10 11  1  0
 11 12  2  0
 14 13  1  1
 13 11  1  0
 15  7  1  0
 15 14  1  0
 16 14  1  0
 16 17  2  0
 19 18  1  6
 19 20  1  0
 19 21  1  0
 20 16  1  0
 21 22  1  0
 23 21  2  0
M  END
$$$$
