ENA.pdb
     RDKit          3D

 23 22  0  0  1  0  0  0  0  0999 V2000
   22.3448  -33.9143    3.9405 N   0  0  0  0  0  0  0  0  0  0  0  0
   23.5576  -34.1446    4.7032 C   0  0  1  0  0  0  0  0  0  0  0  0
   23.6364  -35.5904    5.0568 C   0  0  0  0  0  0  0  0  0  0  0  0
   23.8035  -36.3942    3.7748 C   0  0  0  0  0  0  0  0  0  0  0  0
   23.8917  -37.8336    4.0331 C   0  0  0  0  0  0  0  0  0  0  0  0
   22.8983  -38.4437    4.4943 O   0  0  0  0  0  0  0  0  0  0  0  0
   24.7235  -33.6541    3.9078 C   0  0  0  0  0  0  0  0  0  0  0  0
   24.7275  -33.6071    2.6568 O   0  0  0  0  0  0  0  0  0  0  0  0
   25.0397  -38.5719    3.7892 O   0  0  0  0  0  0  0  0  0  0  0  0
   25.8948  -30.0515    3.8336 N   0  0  0  0  0  0  0  0  0  0  0  0
   27.0236  -30.2933    4.6616 C   0  0  0  0  0  0  0  0  0  0  0  0
   27.4132  -29.3462    5.3809 O   0  0  0  0  0  0  0  0  0  0  0  0
   27.7116  -31.5854    4.6844 C   0  0  0  0  0  0  0  0  0  0  0  0
   27.0521  -32.6676    3.8711 C   0  0  2  0  0  0  0  0  0  0  0  0
   25.9224  -33.2027    4.5605 N   0  0  0  0  0  0  0  0  0  0  0  0
   28.0804  -33.7146    3.5733 C   0  0  0  0  0  0  0  0  0  0  0  0
   28.4605  -34.5372    4.4233 O   0  0  0  0  0  0  0  0  0  0  0  0
   28.9976  -36.1688    2.0430 C   0  0  0  0  0  0  0  0  0  0  0  0
   29.5597  -34.7812    1.8528 C   0  0  2  0  0  0  0  0  0  0  0  0
   28.6241  -33.7460    2.2634 N   0  0  0  0  0  0  0  0  0  0  0  0
   29.9933  -34.5743    0.4334 C   0  0  0  0  0  0  0  0  0  0  0  0
   31.0874  -35.2844   -0.0297 O   0  0  0  0  0  0  0  0  0  0  0  0
   29.3554  -33.7727   -0.2767 O   0  0  0  0  0  0  0  0  0  0  0  0
  2  1  1  6
  2  7  1  0
  3  4  1  0
  3  2  1  0
  4  5  1  0
  5  9  1  0
  6  5  2  0
  7  8  2  0
 10 11  1  0
 11 12  2  0
 14 13  1  1
 13 11  1  0
 15  7  1  0
 15 14  1  0
 16 14  1  0
 16 17  2  0
 19 18  1  6
 19 20  1  0
 19 21  1  0
 20 16  1  0
 21 22  1  0
 23 21  2  0
M  END
$$$$
