ENA.pdb
     RDKit          3D

 23 22  0  0  1  0  0  0  0  0999 V2000
   25.4496  -21.9228  -14.4603 N   0  0  0  0  0  0  0  0  0  0  0  0
   24.8143  -20.6261  -14.6035 C   0  0  1  0  0  0  0  0  0  0  0  0
   25.3841  -19.9404  -15.7979 C   0  0  0  0  0  0  0  0  0  0  0  0
   26.7631  -20.5212  -16.0780 C   0  0  0  0  0  0  0  0  0  0  0  0
   27.4196  -19.8637  -17.2106 C   0  0  0  0  0  0  0  0  0  0  0  0
   28.5633  -20.2343  -17.5660 O   0  0  0  0  0  0  0  0  0  0  0  0
   23.3346  -20.8229  -14.6700 C   0  0  0  0  0  0  0  0  0  0  0  0
   22.8017  -21.8551  -15.1368 O   0  0  0  0  0  0  0  0  0  0  0  0
   26.8305  -18.8315  -17.9250 O   0  0  0  0  0  0  0  0  0  0  0  0
   20.5223  -21.6092  -12.0762 N   0  0  0  0  0  0  0  0  0  0  0  0
   20.1693  -20.2369  -11.9749 C   0  0  0  0  0  0  0  0  0  0  0  0
   19.6944  -19.8521  -10.8829 O   0  0  0  0  0  0  0  0  0  0  0  0
   20.3463  -19.3019  -13.0875 C   0  0  0  0  0  0  0  0  0  0  0  0
   21.0140  -19.8859  -14.3044 C   0  0  2  0  0  0  0  0  0  0  0  0
   22.4348  -19.8102  -14.1885 N   0  0  0  0  0  0  0  0  0  0  0  0
   20.5053  -19.1539  -15.5075 C   0  0  0  0  0  0  0  0  0  0  0  0
   20.8349  -17.9841  -15.7655 O   0  0  0  0  0  0  0  0  0  0  0  0
   18.7731  -20.2413  -18.6473 C   0  0  0  0  0  0  0  0  0  0  0  0
   19.0888  -19.2273  -17.5750 C   0  0  2  0  0  0  0  0  0  0  0  0
   19.6155  -19.8461  -16.3686 N   0  0  0  0  0  0  0  0  0  0  0  0
   17.8841  -18.3926  -17.2628 C   0  0  0  0  0  0  0  0  0  0  0  0
   17.2550  -18.5766  -16.0436 O   0  0  0  0  0  0  0  0  0  0  0  0
   17.4930  -17.5656  -18.1095 O   0  0  0  0  0  0  0  0  0  0  0  0
  2  1  1  6
  2  7  1  0
  3  4  1  0
  3  2  1  0
  4  5  1  0
  5  9  1  0
  6  5  2  0
  7  8  2  0
 10 11  1  0
 11 12  2  0
 14 13  1  1
 13 11  1  0
 15  7  1  0
 15 14  1  0
 16 14  1  0
 16 17  2  0
 19 18  1  6
 19 20  1  0
 19 21  1  0
 20 16  1  0
 21 22  1  0
 23 21  2  0
M  END
$$$$
