ENA.pdb
     RDKit          3D

 23 22  0  0  1  0  0  0  0  0999 V2000
   23.1373  -10.3180  -16.3980 N   0  0  0  0  0  0  0  0  0  0  0  0
   23.1509   -9.1109  -17.2031 C   0  0  1  0  0  0  0  0  0  0  0  0
   22.9968   -9.4871  -18.6371 C   0  0  0  0  0  0  0  0  0  0  0  0
   21.6749  -10.2232  -18.8054 C   0  0  0  0  0  0  0  0  0  0  0  0
   21.0504   -9.9475  -20.1016 C   0  0  0  0  0  0  0  0  0  0  0  0
   21.6767  -10.1981  -21.1584 O   0  0  0  0  0  0  0  0  0  0  0  0
   22.0855   -8.1903  -16.7035 C   0  0  0  0  0  0  0  0  0  0  0  0
   21.0977   -7.8486  -17.3926 O   0  0  0  0  0  0  0  0  0  0  0  0
   19.7768   -9.4130  -20.2239 O   0  0  0  0  0  0  0  0  0  0  0  0
   19.1312   -8.8430  -14.4890 N   0  0  0  0  0  0  0  0  0  0  0  0
   19.7839   -8.3377  -13.3327 C   0  0  0  0  0  0  0  0  0  0  0  0
   19.4552   -8.8352  -12.2324 O   0  0  0  0  0  0  0  0  0  0  0  0
   20.7969   -7.2834  -13.4071 C   0  0  0  0  0  0  0  0  0  0  0  0
   21.1301   -6.8236  -14.8018 C   0  0  2  0  0  0  0  0  0  0  0  0
   22.1489   -7.6425  -15.3757 N   0  0  0  0  0  0  0  0  0  0  0  0
   21.5359   -5.3840  -14.7300 C   0  0  0  0  0  0  0  0  0  0  0  0
   22.6684   -5.0275  -14.3640 O   0  0  0  0  0  0  0  0  0  0  0  0
   21.4408   -2.5749  -16.4891 C   0  0  0  0  0  0  0  0  0  0  0  0
   20.8982   -2.9950  -15.1449 C   0  0  2  0  0  0  0  0  0  0  0  0
   20.5716   -4.4116  -15.1002 N   0  0  0  0  0  0  0  0  0  0  0  0
   19.7104   -2.1626  -14.7685 C   0  0  0  0  0  0  0  0  0  0  0  0
   19.9256   -0.8595  -14.3544 O   0  0  0  0  0  0  0  0  0  0  0  0
   18.5751   -2.6720  -14.8415 O   0  0  0  0  0  0  0  0  0  0  0  0
  2  1  1  1
  2  7  1  0
  3  4  1  0
  3  2  1  0
  4  5  1  0
  5  9  1  0
  6  5  2  0
  7  8  2  0
 10 11  1  0
 11 12  2  0
 14 13  1  1
 13 11  1  0
 15  7  1  0
 15 14  1  0
 16 14  1  0
 16 17  2  0
 19 18  1  6
 19 20  1  0
 19 21  1  0
 20 16  1  0
 21 22  1  0
 23 21  2  0
M  END
$$$$
