NGA.pdb
     RDKit          3D

 18 17  0  0  1  0  0  0  0  0999 V2000
   26.1910  -22.0755  -10.8144 N   0  0  0  0  0  0  0  0  0  0  0  0
   24.8818  -21.5379  -10.6461 C   0  0  0  0  0  0  0  0  0  0  0  0
   24.6542  -20.9295   -9.5716 O   0  0  0  0  0  0  0  0  0  0  0  0
   23.8123  -21.6684  -11.6649 C   0  0  0  0  0  0  0  0  0  0  0  0
   24.4094  -21.5320  -13.0243 C   0  0  2  0  0  0  0  0  0  0  0  0
   25.5912  -20.6966  -12.9154 N   0  0  0  0  0  0  0  0  0  0  0  0
   23.4908  -20.9444  -14.0169 C   0  0  0  0  0  0  0  0  0  0  0  0
   22.6300  -21.6397  -14.6223 O   0  0  0  0  0  0  0  0  0  0  0  0
   23.5172  -19.5627  -14.3529 N   0  0  0  0  0  0  0  0  0  0  0  0
   22.6216  -18.9764  -15.2935 C   0  0  0  0  0  0  0  0  0  0  0  0
   23.2532  -18.4109  -16.4767 C   0  0  0  0  0  0  0  0  0  0  0  0
   24.4175  -17.9589  -16.4065 O   0  0  0  0  0  0  0  0  0  0  0  0
   22.9462  -18.7298  -20.1125 C   0  0  0  0  0  0  0  0  0  0  0  0
   23.2213  -17.8043  -18.9193 C   0  0  2  0  0  0  0  0  0  0  0  0
   22.5883  -18.3526  -17.7232 N   0  0  0  0  0  0  0  0  0  0  0  0
   22.6364  -16.5040  -19.2444 C   0  0  0  0  0  0  0  0  0  0  0  0
   21.4392  -16.2629  -18.9866 O   0  0  0  0  0  0  0  0  0  0  0  0
   23.4047  -15.5281  -19.8413 O   0  0  0  0  0  0  0  0  0  0  0  0
  2  1  1  0
  3  2  2  0
  4  2  1  0
  5  4  1  0
  5  6  1  1
  7  5  1  0
  7  8  2  0
  9  7  1  0
 10  9  1  0
 11 10  1  0
 12 11  2  0
 14 13  1  6
 14 15  1  0
 14 16  1  0
 15 11  1  0
 16 18  1  0
 17 16  2  0
M  END
$$$$
