NGA.pdb
     RDKit          3D

 18 17  0  0  1  0  0  0  0  0999 V2000
   26.0406  -16.8338  -16.4344 N   0  0  0  0  0  0  0  0  0  0  0  0
   26.3211  -16.1193  -15.2335 C   0  0  0  0  0  0  0  0  0  0  0  0
   27.0730  -16.6846  -14.4018 O   0  0  0  0  0  0  0  0  0  0  0  0
   25.7724  -14.7730  -14.9415 C   0  0  0  0  0  0  0  0  0  0  0  0
   24.9392  -14.3217  -16.0927 C   0  0  2  0  0  0  0  0  0  0  0  0
   25.7775  -13.5267  -16.9711 N   0  0  0  0  0  0  0  0  0  0  0  0
   23.7632  -13.5261  -15.6949 C   0  0  0  0  0  0  0  0  0  0  0  0
   22.5855  -13.9327  -15.8920 O   0  0  0  0  0  0  0  0  0  0  0  0
   23.8818  -12.2558  -15.0666 N   0  0  0  0  0  0  0  0  0  0  0  0
   22.7560  -11.4964  -14.6347 C   0  0  0  0  0  0  0  0  0  0  0  0
   22.4213  -10.3568  -15.4761 C   0  0  0  0  0  0  0  0  0  0  0  0
   23.1588  -10.0555  -16.4404 O   0  0  0  0  0  0  0  0  0  0  0  0
   19.3548   -8.2335  -15.9633 C   0  0  0  0  0  0  0  0  0  0  0  0
   20.8518   -8.5110  -16.1584 C   0  0  2  0  0  0  0  0  0  0  0  0
   21.2742   -9.5645  -15.2397 N   0  0  0  0  0  0  0  0  0  0  0  0
   21.5592   -7.2678  -15.8542 C   0  0  0  0  0  0  0  0  0  0  0  0
   22.0562   -7.0788  -14.7249 O   0  0  0  0  0  0  0  0  0  0  0  0
   21.6845   -6.2886  -16.8157 O   0  0  0  0  0  0  0  0  0  0  0  0
  2  1  1  0
  3  2  2  0
  4  2  1  0
  5  4  1  0
  5  6  1  6
  7  5  1  0
  7  8  2  0
  9  7  1  0
 10  9  1  0
 11 10  1  0
 12 11  2  0
 14 13  1  1
 14 15  1  0
 14 16  1  0
 15 11  1  0
 16 18  1  0
 17 16  2  0
M  END
$$$$
