NGA.pdb
     RDKit          3D

 18 17  0  0  1  0  0  0  0  0999 V2000
   18.3629  -14.7729  -16.0711 N   0  0  0  0  0  0  0  0  0  0  0  0
   18.2660  -13.4372  -15.5837 C   0  0  0  0  0  0  0  0  0  0  0  0
   17.1966  -13.1224  -15.0057 O   0  0  0  0  0  0  0  0  0  0  0  0
   19.3510  -12.4372  -15.7311 C   0  0  0  0  0  0  0  0  0  0  0  0
   18.7791  -11.0674  -15.5910 C   0  0  2  0  0  0  0  0  0  0  0  0
   17.9332  -10.8126  -16.7425 N   0  0  0  0  0  0  0  0  0  0  0  0
   19.8001  -10.0077  -15.4961 C   0  0  0  0  0  0  0  0  0  0  0  0
   20.6947  -10.0215  -14.6070 O   0  0  0  0  0  0  0  0  0  0  0  0
   19.8406   -8.9081  -16.3971 N   0  0  0  0  0  0  0  0  0  0  0  0
   20.8374   -7.8916  -16.3353 C   0  0  0  0  0  0  0  0  0  0  0  0
   20.6368   -6.8936  -15.2950 C   0  0  0  0  0  0  0  0  0  0  0  0
   19.5868   -6.9034  -14.6153 O   0  0  0  0  0  0  0  0  0  0  0  0
   22.6987   -4.1046  -13.7695 C   0  0  0  0  0  0  0  0  0  0  0  0
   21.3849   -4.8594  -14.0150 C   0  0  2  0  0  0  0  0  0  0  0  0
   21.6012   -5.8967  -15.0197 N   0  0  0  0  0  0  0  0  0  0  0  0
   20.4160   -3.8804  -14.5063 C   0  0  0  0  0  0  0  0  0  0  0  0
   20.0819   -3.8646  -15.7089 O   0  0  0  0  0  0  0  0  0  0  0  0
   19.8600   -2.9619  -13.6425 O   0  0  0  0  0  0  0  0  0  0  0  0
  2  1  1  0
  3  2  2  0
  4  2  1  0
  5  4  1  0
  5  6  1  6
  7  5  1  0
  7  8  2  0
  9  7  1  0
 10  9  1  0
 11 10  1  0
 12 11  2  0
 14 13  1  6
 14 15  1  0
 14 16  1  0
 15 11  1  0
 16 18  1  0
 17 16  2  0
M  END
$$$$
