NGA.pdb
     RDKit          3D

 18 17  0  0  1  0  0  0  0  0999 V2000
   18.4319  -13.9324  -16.5455 N   0  0  0  0  0  0  0  0  0  0  0  0
   18.9705  -12.6291  -16.7521 C   0  0  0  0  0  0  0  0  0  0  0  0
   19.0707  -12.2409  -17.9420 O   0  0  0  0  0  0  0  0  0  0  0  0
   19.4032  -11.7433  -15.6445 C   0  0  0  0  0  0  0  0  0  0  0  0
   20.1055  -10.5561  -16.2106 C   0  0  2  0  0  0  0  0  0  0  0  0
   21.4960  -10.9141  -16.4224 N   0  0  0  0  0  0  0  0  0  0  0  0
   20.0389   -9.3628  -15.3469 C   0  0  0  0  0  0  0  0  0  0  0  0
   18.9430   -8.8091  -15.0582 O   0  0  0  0  0  0  0  0  0  0  0  0
   21.2008   -8.7634  -14.7873 N   0  0  0  0  0  0  0  0  0  0  0  0
   21.1571   -7.5818  -13.9919 C   0  0  0  0  0  0  0  0  0  0  0  0
   21.0187   -6.3403  -14.7391 C   0  0  0  0  0  0  0  0  0  0  0  0
   21.2542   -6.3219  -15.9674 O   0  0  0  0  0  0  0  0  0  0  0  0
   19.6884   -2.8755  -14.0292 C   0  0  0  0  0  0  0  0  0  0  0  0
   20.5075   -3.8783  -14.8536 C   0  0  2  0  0  0  0  0  0  0  0  0
   20.6211   -5.1342  -14.1173 N   0  0  0  0  0  0  0  0  0  0  0  0
   21.8320   -3.2897  -15.0476 C   0  0  0  0  0  0  0  0  0  0  0  0
   22.7692   -3.5623  -14.2695 O   0  0  0  0  0  0  0  0  0  0  0  0
   22.0593   -2.4247  -16.0959 O   0  0  0  0  0  0  0  0  0  0  0  0
  2  1  1  0
  3  2  2  0
  4  2  1  0
  5  4  1  0
  5  6  1  1
  7  5  1  0
  7  8  2  0
  9  7  1  0
 10  9  1  0
 11 10  1  0
 12 11  2  0
 14 13  1  1
 14 15  1  0
 14 16  1  0
 15 11  1  0
 16 18  1  0
 17 16  2  0
M  END
$$$$
