NGA.pdb
     RDKit          3D

 18 17  0  0  1  0  0  0  0  0999 V2000
   29.7146   -9.0144  -17.5520 N   0  0  0  0  0  0  0  0  0  0  0  0
   30.7428   -9.5788  -18.3617 C   0  0  0  0  0  0  0  0  0  0  0  0
   30.3823  -10.3929  -19.2471 O   0  0  0  0  0  0  0  0  0  0  0  0
   32.1791   -9.2479  -18.1995 C   0  0  0  0  0  0  0  0  0  0  0  0
   32.3512   -8.3823  -16.9976 C   0  0  2  0  0  0  0  0  0  0  0  0
   31.6863   -7.1180  -17.2543 N   0  0  0  0  0  0  0  0  0  0  0  0
   33.7614   -8.1262  -16.6510 C   0  0  0  0  0  0  0  0  0  0  0  0
   34.6317   -7.8876  -17.5323 O   0  0  0  0  0  0  0  0  0  0  0  0
   34.2272   -8.1319  -15.3074 N   0  0  0  0  0  0  0  0  0  0  0  0
   35.5894   -7.9015  -14.9582 C   0  0  0  0  0  0  0  0  0  0  0  0
   35.9749   -6.5007  -14.8698 C   0  0  0  0  0  0  0  0  0  0  0  0
   37.1205   -6.1928  -14.4728 O   0  0  0  0  0  0  0  0  0  0  0  0
   34.7586   -3.3454  -16.4092 C   0  0  0  0  0  0  0  0  0  0  0  0
   35.5095   -4.0608  -15.2776 C   0  0  2  0  0  0  0  0  0  0  0  0
   35.0875   -5.4576  -15.2219 N   0  0  0  0  0  0  0  0  0  0  0  0
   35.1544   -3.3802  -14.0330 C   0  0  0  0  0  0  0  0  0  0  0  0
   34.0791   -3.6357  -13.4529 O   0  0  0  0  0  0  0  0  0  0  0  0
   36.0071   -2.4459  -13.4862 O   0  0  0  0  0  0  0  0  0  0  0  0
  2  1  1  0
  3  2  2  0
  4  2  1  0
  5  4  1  0
  5  6  1  6
  7  5  1  0
  7  8  2  0
  9  7  1  0
 10  9  1  0
 11 10  1  0
 12 11  2  0
 14 13  1  6
 14 15  1  0
 14 16  1  0
 15 11  1  0
 16 18  1  0
 17 16  2  0
M  END
$$$$
