NGA.pdb
     RDKit          3D

 18 17  0  0  1  0  0  0  0  0999 V2000
   14.8024  -12.7659  -14.0018 N   0  0  0  0  0  0  0  0  0  0  0  0
   15.5812  -12.4738  -15.1590 C   0  0  0  0  0  0  0  0  0  0  0  0
   15.5086  -13.2902  -16.1103 O   0  0  0  0  0  0  0  0  0  0  0  0
   16.4477  -11.2760  -15.2748 C   0  0  0  0  0  0  0  0  0  0  0  0
   17.7197  -11.6537  -15.9549 C   0  0  2  0  0  0  0  0  0  0  0  0
   18.5702  -12.3166  -14.9835 N   0  0  0  0  0  0  0  0  0  0  0  0
   18.4452  -10.5061  -16.5304 C   0  0  0  0  0  0  0  0  0  0  0  0
   18.3025  -10.1639  -17.7361 O   0  0  0  0  0  0  0  0  0  0  0  0
   19.3476   -9.7163  -15.7661 N   0  0  0  0  0  0  0  0  0  0  0  0
   19.9286   -8.5107  -16.2555 C   0  0  0  0  0  0  0  0  0  0  0  0
   20.7562   -7.7918  -15.2978 C   0  0  0  0  0  0  0  0  0  0  0  0
   20.7694   -8.1431  -14.0974 O   0  0  0  0  0  0  0  0  0  0  0  0
   23.2846   -4.9697  -15.4983 C   0  0  0  0  0  0  0  0  0  0  0  0
   22.4529   -6.0168  -14.7446 C   0  0  2  0  0  0  0  0  0  0  0  0
   21.5591   -6.6927  -15.6808 N   0  0  0  0  0  0  0  0  0  0  0  0
   21.6732   -5.2980  -13.7378 C   0  0  0  0  0  0  0  0  0  0  0  0
   20.5033   -4.9357  -13.9788 O   0  0  0  0  0  0  0  0  0  0  0  0
   22.2249   -5.0123  -12.5078 O   0  0  0  0  0  0  0  0  0  0  0  0
  2  1  1  0
  3  2  2  0
  4  2  1  0
  5  4  1  0
  5  6  1  1
  7  5  1  0
  7  8  2  0
  9  7  1  0
 10  9  1  0
 11 10  1  0
 12 11  2  0
 14 13  1  6
 14 15  1  0
 14 16  1  0
 15 11  1  0
 16 18  1  0
 17 16  2  0
M  END
$$$$
