NGA.pdb
     RDKit          3D

 18 17  0  0  1  0  0  0  0  0999 V2000
   20.1447   -9.2069  -17.8383 N   0  0  0  0  0  0  0  0  0  0  0  0
   19.6124  -10.4761  -17.4681 C   0  0  0  0  0  0  0  0  0  0  0  0
   19.8123  -11.4269  -18.2636 O   0  0  0  0  0  0  0  0  0  0  0  0
   18.8539  -10.7054  -16.2147 C   0  0  0  0  0  0  0  0  0  0  0  0
   18.8454   -9.4507  -15.4091 C   0  0  2  0  0  0  0  0  0  0  0  0
   20.1331   -9.3296  -14.7506 N   0  0  0  0  0  0  0  0  0  0  0  0
   17.7765   -9.4075  -14.3942 C   0  0  0  0  0  0  0  0  0  0  0  0
   16.9983  -10.3817  -14.2037 O   0  0  0  0  0  0  0  0  0  0  0  0
   17.5564   -8.2698  -13.5698 N   0  0  0  0  0  0  0  0  0  0  0  0
   16.5837   -8.2433  -12.5288 C   0  0  0  0  0  0  0  0  0  0  0  0
   16.5880   -7.0390  -11.7113 C   0  0  0  0  0  0  0  0  0  0  0  0
   17.4858   -6.1821  -11.8675 O   0  0  0  0  0  0  0  0  0  0  0  0
   14.3531   -5.5979   -9.0018 C   0  0  0  0  0  0  0  0  0  0  0  0
   15.5738   -5.5756   -9.9320 C   0  0  2  0  0  0  0  0  0  0  0  0
   15.5982   -6.7978  -10.7306 N   0  0  0  0  0  0  0  0  0  0  0  0
   16.7594   -5.5112   -9.0784 C   0  0  0  0  0  0  0  0  0  0  0  0
   17.4243   -6.5391   -8.8348 O   0  0  0  0  0  0  0  0  0  0  0  0
   17.1558   -4.3097   -8.5322 O   0  0  0  0  0  0  0  0  0  0  0  0
  2  1  1  0
  3  2  2  0
  4  2  1  0
  5  4  1  0
  5  6  1  1
  7  5  1  0
  7  8  2  0
  9  7  1  0
 10  9  1  0
 11 10  1  0
 12 11  2  0
 14 13  1  1
 14 15  1  0
 14 16  1  0
 15 11  1  0
 16 18  1  0
 17 16  2  0
M  END
$$$$
