NGA.pdb
     RDKit          3D

 18 17  0  0  1  0  0  0  0  0999 V2000
   25.5272  -20.8481   -8.2453 N   0  0  0  0  0  0  0  0  0  0  0  0
   24.6950  -20.8934   -9.4015 C   0  0  0  0  0  0  0  0  0  0  0  0
   23.5566  -21.4036   -9.2590 O   0  0  0  0  0  0  0  0  0  0  0  0
   25.1144  -20.3749  -10.7258 C   0  0  0  0  0  0  0  0  0  0  0  0
   26.0677  -21.3363  -11.3505 C   0  0  2  0  0  0  0  0  0  0  0  0
   27.2561  -21.3964  -10.5196 N   0  0  0  0  0  0  0  0  0  0  0  0
   26.4563  -20.9735  -12.7260 C   0  0  0  0  0  0  0  0  0  0  0  0
   25.7859  -21.3445  -13.7280 O   0  0  0  0  0  0  0  0  0  0  0  0
   27.6063  -20.1861  -13.0085 N   0  0  0  0  0  0  0  0  0  0  0  0
   27.9802  -19.8061  -14.3300 C   0  0  0  0  0  0  0  0  0  0  0  0
   27.0106  -18.9769  -15.0308 C   0  0  0  0  0  0  0  0  0  0  0  0
   25.8142  -19.3362  -15.0964 O   0  0  0  0  0  0  0  0  0  0  0  0
   26.8530  -15.4319  -16.1838 C   0  0  0  0  0  0  0  0  0  0  0  0
   26.4010  -16.8937  -16.3053 C   0  0  2  0  0  0  0  0  0  0  0  0
   27.3773  -17.7600  -15.6506 N   0  0  0  0  0  0  0  0  0  0  0  0
   26.3353  -17.2025  -17.7332 C   0  0  0  0  0  0  0  0  0  0  0  0
   25.3956  -16.7738  -18.4340 O   0  0  0  0  0  0  0  0  0  0  0  0
   27.3146  -17.9731  -18.3215 O   0  0  0  0  0  0  0  0  0  0  0  0
  2  1  1  0
  3  2  2  0
  4  2  1  0
  5  4  1  0
  5  6  1  1
  7  5  1  0
  7  8  2  0
  9  7  1  0
 10  9  1  0
 11 10  1  0
 12 11  2  0
 14 13  1  6
 14 15  1  0
 14 16  1  0
 15 11  1  0
 16 18  1  0
 17 16  2  0
M  END
$$$$
