NGA.pdb
     RDKit          3D

 18 17  0  0  1  0  0  0  0  0999 V2000
   17.2550  -16.9205  -14.3620 N   0  0  0  0  0  0  0  0  0  0  0  0
   17.4171  -15.5174  -14.5524 C   0  0  0  0  0  0  0  0  0  0  0  0
   16.6308  -14.7669  -13.9237 O   0  0  0  0  0  0  0  0  0  0  0  0
   18.4505  -14.9314  -15.4399 C   0  0  0  0  0  0  0  0  0  0  0  0
   17.8599  -13.7886  -16.1938 C   0  0  2  0  0  0  0  0  0  0  0  0
   17.1721  -14.3224  -17.3550 N   0  0  0  0  0  0  0  0  0  0  0  0
   18.8556  -12.7945  -16.6353 C   0  0  0  0  0  0  0  0  0  0  0  0
   19.9088  -13.1303  -17.2429 O   0  0  0  0  0  0  0  0  0  0  0  0
   18.6922  -11.4007  -16.4050 N   0  0  0  0  0  0  0  0  0  0  0  0
   19.6865  -10.4374  -16.7427 C   0  0  0  0  0  0  0  0  0  0  0  0
   19.9737   -9.4579  -15.7050 C   0  0  0  0  0  0  0  0  0  0  0  0
   19.3242   -9.4727  -14.6362 O   0  0  0  0  0  0  0  0  0  0  0  0
   22.4591   -6.6238  -15.2636 C   0  0  0  0  0  0  0  0  0  0  0  0
   21.2425   -7.4611  -14.8454 C   0  0  2  0  0  0  0  0  0  0  0  0
   20.9767   -8.4737  -15.8633 N   0  0  0  0  0  0  0  0  0  0  0  0
   20.1082   -6.5438  -14.7432 C   0  0  0  0  0  0  0  0  0  0  0  0
   19.9550   -5.8324  -13.7290 O   0  0  0  0  0  0  0  0  0  0  0  0
   19.1935   -6.4555  -15.7701 O   0  0  0  0  0  0  0  0  0  0  0  0
  2  1  1  0
  3  2  2  0
  4  2  1  0
  5  4  1  0
  5  6  1  6
  7  5  1  0
  7  8  2  0
  9  7  1  0
 10  9  1  0
 11 10  1  0
 12 11  2  0
 14 13  1  6
 14 15  1  0
 14 16  1  0
 15 11  1  0
 16 18  1  0
 17 16  2  0
M  END
$$$$
