NGA.pdb
     RDKit          3D

 18 17  0  0  1  0  0  0  0  0999 V2000
   14.1970   -8.2551  -19.6580 N   0  0  0  0  0  0  0  0  0  0  0  0
   14.1895   -7.3339  -18.5705 C   0  0  0  0  0  0  0  0  0  0  0  0
   13.0786   -7.1033  -18.0325 O   0  0  0  0  0  0  0  0  0  0  0  0
   15.4106   -6.6593  -18.0680 C   0  0  0  0  0  0  0  0  0  0  0  0
   16.6127   -7.3198  -18.6526 C   0  0  2  0  0  0  0  0  0  0  0  0
   16.7800   -8.6069  -18.0031 N   0  0  0  0  0  0  0  0  0  0  0  0
   17.8516   -6.5350  -18.4988 C   0  0  0  0  0  0  0  0  0  0  0  0
   17.9768   -5.3826  -18.9959 O   0  0  0  0  0  0  0  0  0  0  0  0
   18.9785   -7.0257  -17.7833 N   0  0  0  0  0  0  0  0  0  0  0  0
   20.1304   -6.2318  -17.5124 C   0  0  0  0  0  0  0  0  0  0  0  0
   20.2098   -5.7019  -16.1590 C   0  0  0  0  0  0  0  0  0  0  0  0
   19.1709   -5.3192  -15.5769 O   0  0  0  0  0  0  0  0  0  0  0  0
   22.5464   -6.0983  -13.3436 C   0  0  0  0  0  0  0  0  0  0  0  0
   21.5110   -5.2196  -14.0590 C   0  0  2  0  0  0  0  0  0  0  0  0
   21.4385   -5.6022  -15.4663 N   0  0  0  0  0  0  0  0  0  0  0  0
   21.9698   -3.8363  -13.9389 C   0  0  0  0  0  0  0  0  0  0  0  0
   21.8925   -3.2330  -12.8489 O   0  0  0  0  0  0  0  0  0  0  0  0
   22.4943   -3.1825  -15.0328 O   0  0  0  0  0  0  0  0  0  0  0  0
  2  1  1  0
  3  2  2  0
  4  2  1  0
  5  4  1  0
  5  6  1  1
  7  5  1  0
  7  8  2  0
  9  7  1  0
 10  9  1  0
 11 10  1  0
 12 11  2  0
 14 13  1  1
 14 15  1  0
 14 16  1  0
 15 11  1  0
 16 18  1  0
 17 16  2  0
M  END
$$$$
