NGA.pdb
     RDKit          3D

 18 17  0  0  1  0  0  0  0  0999 V2000
   12.8391   -9.7647   -8.6675 N   0  0  0  0  0  0  0  0  0  0  0  0
   12.9224   -8.3423   -8.7023 C   0  0  0  0  0  0  0  0  0  0  0  0
   12.0584   -7.7091   -8.0472 O   0  0  0  0  0  0  0  0  0  0  0  0
   13.9622   -7.6072   -9.4622 C   0  0  0  0  0  0  0  0  0  0  0  0
   14.9315   -8.5827  -10.0383 C   0  0  2  0  0  0  0  0  0  0  0  0
   15.9379   -8.8656   -9.0315 N   0  0  0  0  0  0  0  0  0  0  0  0
   15.5950   -8.1023  -11.2644 C   0  0  0  0  0  0  0  0  0  0  0  0
   14.9472   -7.8435  -12.3153 O   0  0  0  0  0  0  0  0  0  0  0  0
   17.0009   -7.9013  -11.3394 N   0  0  0  0  0  0  0  0  0  0  0  0
   17.6502   -7.3911  -12.5007 C   0  0  0  0  0  0  0  0  0  0  0  0
   19.0474   -7.0270  -12.3162 C   0  0  0  0  0  0  0  0  0  0  0  0
   19.4609   -6.6938  -11.1836 O   0  0  0  0  0  0  0  0  0  0  0  0
   22.1601   -7.1589  -14.4682 C   0  0  0  0  0  0  0  0  0  0  0  0
   21.3946   -6.7832  -13.1919 C   0  0  2  0  0  0  0  0  0  0  0  0
   19.9699   -7.0361  -13.3878 N   0  0  0  0  0  0  0  0  0  0  0  0
   21.6232   -5.3573  -12.9617 C   0  0  0  0  0  0  0  0  0  0  0  0
   22.7002   -4.9564  -12.4745 O   0  0  0  0  0  0  0  0  0  0  0  0
   20.6475   -4.4383  -13.2817 O   0  0  0  0  0  0  0  0  0  0  0  0
  2  1  1  0
  3  2  2  0
  4  2  1  0
  5  4  1  0
  5  6  1  1
  7  5  1  0
  7  8  2  0
  9  7  1  0
 10  9  1  0
 11 10  1  0
 12 11  2  0
 14 13  1  6
 14 15  1  0
 14 16  1  0
 15 11  1  0
 16 18  1  0
 17 16  2  0
M  END
$$$$
