NGA.pdb
     RDKit          3D

 18 17  0  0  1  0  0  0  0  0999 V2000
   13.0438   -6.7917   -8.2740 N   0  0  0  0  0  0  0  0  0  0  0  0
   13.7386   -8.0176   -8.4869 C   0  0  0  0  0  0  0  0  0  0  0  0
   13.0916   -9.0757   -8.2905 O   0  0  0  0  0  0  0  0  0  0  0  0
   15.1556   -8.0846   -8.9189 C   0  0  0  0  0  0  0  0  0  0  0  0
   15.6386   -6.7097   -9.2342 C   0  0  2  0  0  0  0  0  0  0  0  0
   15.1160   -6.3362  -10.5356 N   0  0  0  0  0  0  0  0  0  0  0  0
   17.1082   -6.5888   -9.2496 C   0  0  0  0  0  0  0  0  0  0  0  0
   17.7931   -6.6487   -8.1921 O   0  0  0  0  0  0  0  0  0  0  0  0
   17.8428   -6.3981  -10.4522 N   0  0  0  0  0  0  0  0  0  0  0  0
   19.2638   -6.2964  -10.4848 C   0  0  0  0  0  0  0  0  0  0  0  0
   19.8494   -6.2642  -11.8170 C   0  0  0  0  0  0  0  0  0  0  0  0
   19.1112   -6.3296  -12.8247 O   0  0  0  0  0  0  0  0  0  0  0  0
   21.3983   -7.4689  -14.0773 C   0  0  0  0  0  0  0  0  0  0  0  0
   21.8463   -6.1948  -13.3478 C   0  0  2  0  0  0  0  0  0  0  0  0
   21.2453   -6.1600  -12.0175 N   0  0  0  0  0  0  0  0  0  0  0  0
   21.3738   -5.0607  -14.1409 C   0  0  0  0  0  0  0  0  0  0  0  0
   20.5216   -4.2737  -13.6802 O   0  0  0  0  0  0  0  0  0  0  0  0
   21.8671   -4.8491  -15.4101 O   0  0  0  0  0  0  0  0  0  0  0  0
  2  1  1  0
  3  2  2  0
  4  2  1  0
  5  4  1  0
  5  6  1  6
  7  5  1  0
  7  8  2  0
  9  7  1  0
 10  9  1  0
 11 10  1  0
 12 11  2  0
 14 13  1  6
 14 15  1  0
 14 16  1  0
 15 11  1  0
 16 18  1  0
 17 16  2  0
M  END
$$$$
