NGA.pdb
     RDKit          3D

 18 17  0  0  1  0  0  0  0  0999 V2000
   15.9608  -13.3833  -14.0652 N   0  0  0  0  0  0  0  0  0  0  0  0
   16.9072  -13.8245  -15.0353 C   0  0  0  0  0  0  0  0  0  0  0  0
   16.8688  -15.0392  -15.3509 O   0  0  0  0  0  0  0  0  0  0  0  0
   17.9046  -12.9261  -15.6653 C   0  0  0  0  0  0  0  0  0  0  0  0
   17.6987  -11.5364  -15.1659 C   0  0  2  0  0  0  0  0  0  0  0  0
   16.4697  -11.0269  -15.7459 N   0  0  0  0  0  0  0  0  0  0  0  0
   18.8060  -10.6200  -15.4956 C   0  0  0  0  0  0  0  0  0  0  0  0
   19.9777  -10.8095  -15.0689 O   0  0  0  0  0  0  0  0  0  0  0  0
   18.6236   -9.4698  -16.3119 N   0  0  0  0  0  0  0  0  0  0  0  0
   19.6784   -8.5625  -16.6197 C   0  0  0  0  0  0  0  0  0  0  0  0
   20.0029   -7.6134  -15.5649 C   0  0  0  0  0  0  0  0  0  0  0  0
   19.2941   -7.5581  -14.5357 O   0  0  0  0  0  0  0  0  0  0  0  0
   22.8885   -5.2612  -14.8670 C   0  0  0  0  0  0  0  0  0  0  0  0
   21.5102   -5.8643  -14.5626 C   0  0  2  0  0  0  0  0  0  0  0  0
   21.1083   -6.7370  -15.6622 N   0  0  0  0  0  0  0  0  0  0  0  0
   20.5736   -4.7479  -14.4410 C   0  0  0  0  0  0  0  0  0  0  0  0
   20.6135   -3.9893  -13.4506 O   0  0  0  0  0  0  0  0  0  0  0  0
   19.6336   -4.5216  -15.4230 O   0  0  0  0  0  0  0  0  0  0  0  0
  2  1  1  0
  3  2  2  0
  4  2  1  0
  5  4  1  0
  5  6  1  6
  7  5  1  0
  7  8  2  0
  9  7  1  0
 10  9  1  0
 11 10  1  0
 12 11  2  0
 14 13  1  6
 14 15  1  0
 14 16  1  0
 15 11  1  0
 16 18  1  0
 17 16  2  0
M  END
$$$$
