WRY.pdb
     RDKit          3D

 38 40  0  0  1  0  0  0  0  0999 V2000
    7.0795  -18.5099   25.4906 N   0  0  0  0  0  0  0  0  0  0  0  0
    6.8856  -18.0106   24.1515 C   0  0  1  0  0  0  0  0  0  0  0  0
    6.0039  -16.8203   24.0792 C   0  0  0  0  0  0  0  0  0  0  0  0
    6.2757  -15.7585   25.0559 C   0  0  0  0  0  0  0  0  0  0  0  0
    6.1391  -15.8296   26.4524 C   0  0  0  0  0  0  0  0  0  0  0  0
    6.5128  -14.6532   26.9625 N   0  0  0  0  0  0  0  0  0  0  0  0
    6.8868  -13.8086   25.9989 C   0  0  0  0  0  0  0  0  0  0  0  0
    7.3389  -12.5124   25.9884 C   0  0  0  0  0  0  0  0  0  0  0  0
    7.6527  -11.8692   24.8232 C   0  0  0  0  0  0  0  0  0  0  0  0
    7.5131  -12.5300   23.6422 C   0  0  0  0  0  0  0  0  0  0  0  0
    7.0577  -13.8398   23.6311 C   0  0  0  0  0  0  0  0  0  0  0  0
    6.7423  -14.4893   24.8007 C   0  0  0  0  0  0  0  0  0  0  0  0
    8.2241  -17.7140   23.5410 C   0  0  0  0  0  0  0  0  0  0  0  0
    9.2924  -17.8738   24.1940 O   0  0  0  0  0  0  0  0  0  0  0  0
    7.5837  -13.6455   16.3621 N   0  0  0  0  0  0  0  0  0  0  0  0
    8.1848  -13.1079   17.5356 C   0  0  0  0  0  0  0  0  0  0  0  0
    8.6059  -11.8737   17.5443 N   0  0  0  0  0  0  0  0  0  0  0  0
    8.3387  -13.8919   18.7104 N   0  0  0  0  0  0  0  0  0  0  0  0
    7.8173  -15.2363   18.7770 C   0  0  0  0  0  0  0  0  0  0  0  0
    8.0799  -15.7863   20.1520 C   0  0  0  0  0  0  0  0  0  0  0  0
    9.4444  -16.3831   20.2598 C   0  0  0  0  0  0  0  0  0  0  0  0
    9.6398  -16.9962   21.6278 C   0  0  2  0  0  0  0  0  0  0  0  0
    8.3627  -17.2420   22.2111 N   0  0  0  0  0  0  0  0  0  0  0  0
   10.5209  -16.1514   22.4675 C   0  0  0  0  0  0  0  0  0  0  0  0
   10.3305  -14.9190   22.5302 O   0  0  0  0  0  0  0  0  0  0  0  0
    9.0670  -11.4804   18.3812 O   0  0  0  0  0  0  0  0  0  0  0  0
   11.1483  -14.3668   30.6550 C   0  0  0  0  0  0  0  0  0  0  0  0
   11.0227  -14.8584   29.3436 C   0  0  0  0  0  0  0  0  0  0  0  0
   11.0760  -16.2208   29.1059 C   0  0  0  0  0  0  0  0  0  0  0  0
   10.9574  -16.7384   27.8378 C   0  0  0  0  0  0  0  0  0  0  0  0
   10.7800  -15.8829   26.7687 C   0  0  0  0  0  0  0  0  0  0  0  0
   10.6588  -16.4125   25.3936 C   0  0  2  0  0  0  0  0  0  0  0  0
   11.9123  -16.3284   24.5877 N   0  0  0  0  0  0  0  0  0  0  0  0
   11.5914  -16.7006   23.2161 C   0  0  0  0  0  0  0  0  0  0  0  0
   13.0615  -17.0717   25.1322 O   0  0  0  0  0  0  0  0  0  0  0  0
   13.2701  -18.2841   24.9054 C   0  0  0  0  0  0  0  0  0  0  0  0
   10.7242  -14.5234   26.9823 C   0  0  0  0  0  0  0  0  0  0  0  0
   10.8456  -14.0268   28.2648 O   0  0  0  0  0  0  0  0  0  0  0  0
  2  1  1  1
  3  2  1  0
  4  5  2  0
  4  3  1  0
  6  5  1  0
  7 12  2  0
  7  6  1  0
  8  7  1  0
  9  8  2  0
  9 10  1  0
 10 11  2  0
 11 12  1  0
 12  4  1  0
 13  2  1  0
 14 13  2  0
 16 15  1  0
 17 16  2  0
 18 16  1  0
 19 18  1  0
 19 20  1  0
 20 21  1  0
 22 21  1  6
 22 24  1  0
 22 23  1  0
 23 13  1  0
 24 33  1  0
 25 24  2  0
 26 27  1  0
 27 28  2  0
 27 37  1  0
 28 29  1  0
 29 30  2  0
 30 31  1  0
 32 34  1  0
 32 31  1  6
 33 32  1  0
 34 38  1  0
 35 34  2  0
 36 30  1  0
 37 36  2  0
M  END
$$$$
