WRY.pdb
     RDKit          3D

 38 40  0  0  1  0  0  0  0  0999 V2000
    6.4475  -17.4724   24.4587 N   0  0  0  0  0  0  0  0  0  0  0  0
    7.2969  -16.4533   23.8930 C   0  0  1  0  0  0  0  0  0  0  0  0
    7.8914  -15.5430   24.9017 C   0  0  0  0  0  0  0  0  0  0  0  0
    6.9560  -14.6401   25.5836 C   0  0  0  0  0  0  0  0  0  0  0  0
    5.9497  -14.9888   26.4999 C   0  0  0  0  0  0  0  0  0  0  0  0
    5.3475  -13.8646   26.8967 N   0  0  0  0  0  0  0  0  0  0  0  0
    5.8863  -12.7963   26.3051 C   0  0  0  0  0  0  0  0  0  0  0  0
    5.6378  -11.4473   26.3615 C   0  0  0  0  0  0  0  0  0  0  0  0
    6.3598  -10.5511   25.6231 C   0  0  0  0  0  0  0  0  0  0  0  0
    7.3509  -11.0071   24.8101 C   0  0  0  0  0  0  0  0  0  0  0  0
    7.6177  -12.3661   24.7387 C   0  0  0  0  0  0  0  0  0  0  0  0
    6.8942  -13.2693   25.4804 C   0  0  0  0  0  0  0  0  0  0  0  0
    8.3710  -17.1093   23.0757 C   0  0  0  0  0  0  0  0  0  0  0  0
    8.8068  -18.2578   23.3664 O   0  0  0  0  0  0  0  0  0  0  0  0
    8.7463  -14.4021   17.2676 N   0  0  0  0  0  0  0  0  0  0  0  0
    7.8646  -13.5999   18.0464 C   0  0  0  0  0  0  0  0  0  0  0  0
    6.9962  -12.8263   17.4564 N   0  0  0  0  0  0  0  0  0  0  0  0
    7.9082  -13.6221   19.4663 N   0  0  0  0  0  0  0  0  0  0  0  0
    9.0301  -14.2041   20.1637 C   0  0  0  0  0  0  0  0  0  0  0  0
    9.2551  -15.5946   19.6367 C   0  0  0  0  0  0  0  0  0  0  0  0
   10.5193  -16.1899   20.1630 C   0  0  0  0  0  0  0  0  0  0  0  0
   10.3047  -16.7177   21.5634 C   0  0  2  0  0  0  0  0  0  0  0  0
    8.9513  -16.4829   21.9437 N   0  0  0  0  0  0  0  0  0  0  0  0
   11.2924  -16.1412   22.5053 C   0  0  0  0  0  0  0  0  0  0  0  0
   11.0886  -15.0202   23.0159 O   0  0  0  0  0  0  0  0  0  0  0  0
    6.3872  -12.2007   18.0091 O   0  0  0  0  0  0  0  0  0  0  0  0
   10.8658  -14.3260   29.6768 C   0  0  0  0  0  0  0  0  0  0  0  0
   11.1123  -15.1056   28.5329 C   0  0  0  0  0  0  0  0  0  0  0  0
   10.1266  -15.2603   27.5737 C   0  0  0  0  0  0  0  0  0  0  0  0
   10.3308  -16.0148   26.4427 C   0  0  0  0  0  0  0  0  0  0  0  0
   11.5483  -16.6374   26.2520 C   0  0  0  0  0  0  0  0  0  0  0  0
   11.7912  -17.4620   25.0491 C   0  0  2  0  0  0  0  0  0  0  0  0
   12.9508  -17.0180   24.2209 N   0  0  0  0  0  0  0  0  0  0  0  0
   12.4816  -16.8280   22.8547 C   0  0  0  0  0  0  0  0  0  0  0  0
   14.1479  -17.8722   24.3050 O   0  0  0  0  0  0  0  0  0  0  0  0
   14.3412  -18.8650   23.5689 C   0  0  0  0  0  0  0  0  0  0  0  0
   12.5434  -16.4971   27.1938 C   0  0  0  0  0  0  0  0  0  0  0  0
   12.3152  -15.7341   28.3217 O   0  0  0  0  0  0  0  0  0  0  0  0
  2  1  1  1
  3  2  1  0
  4  5  2  0
  4  3  1  0
  6  5  1  0
  7 12  2  0
  7  6  1  0
  8  7  1  0
  9  8  2  0
  9 10  1  0
 10 11  2  0
 11 12  1  0
 12  4  1  0
 13  2  1  0
 14 13  2  0
 16 15  1  0
 17 16  2  0
 18 16  1  0
 19 18  1  0
 19 20  1  0
 20 21  1  0
 22 21  1  6
 22 24  1  0
 22 23  1  0
 23 13  1  0
 24 33  1  0
 25 24  2  0
 26 27  1  0
 27 28  2  0
 27 37  1  0
 28 29  1  0
 29 30  2  0
 30 31  1  0
 32 34  1  0
 32 31  1  1
 33 32  1  0
 34 38  1  0
 35 34  2  0
 36 30  1  0
 37 36  2  0
M  END
$$$$
