WRY.pdb
     RDKit          3D

 38 40  0  0  1  0  0  0  0  0999 V2000
    6.1094  -17.6008   24.6843 N   0  0  0  0  0  0  0  0  0  0  0  0
    6.8319  -16.4964   24.1026 C   0  0  1  0  0  0  0  0  0  0  0  0
    7.5515  -15.6632   25.0963 C   0  0  0  0  0  0  0  0  0  0  0  0
    6.7381  -14.6770   25.8181 C   0  0  0  0  0  0  0  0  0  0  0  0
    5.6632  -14.9305   26.6867 C   0  0  0  0  0  0  0  0  0  0  0  0
    5.2207  -13.7572   27.1464 N   0  0  0  0  0  0  0  0  0  0  0  0
    5.9289  -12.7450   26.6409 C   0  0  0  0  0  0  0  0  0  0  0  0
    5.8797  -11.3805   26.7841 C   0  0  0  0  0  0  0  0  0  0  0  0
    6.7484  -10.5560   26.1243 C   0  0  0  0  0  0  0  0  0  0  0  0
    7.6867  -11.1010   25.3035 C   0  0  0  0  0  0  0  0  0  0  0  0
    7.7530  -12.4771   25.1450 C   0  0  0  0  0  0  0  0  0  0  0  0
    6.8817  -13.3085   25.8076 C   0  0  0  0  0  0  0  0  0  0  0  0
    7.7828  -17.0238   23.0683 C   0  0  0  0  0  0  0  0  0  0  0  0
    8.7271  -17.8006   23.3814 O   0  0  0  0  0  0  0  0  0  0  0  0
   10.2575  -14.2508   16.6139 N   0  0  0  0  0  0  0  0  0  0  0  0
    8.8590  -14.1331   16.3731 C   0  0  0  0  0  0  0  0  0  0  0  0
    8.3460  -14.6073   15.2719 N   0  0  0  0  0  0  0  0  0  0  0  0
    7.9994  -13.5049   17.3137 N   0  0  0  0  0  0  0  0  0  0  0  0
    8.5067  -13.0310   18.5793 C   0  0  0  0  0  0  0  0  0  0  0  0
    9.0842  -14.1973   19.3330 C   0  0  0  0  0  0  0  0  0  0  0  0
    8.0496  -14.8962   20.1520 C   0  0  0  0  0  0  0  0  0  0  0  0
    8.6958  -15.9525   21.0193 C   0  0  2  0  0  0  0  0  0  0  0  0
    7.6758  -16.6826   21.6961 N   0  0  0  0  0  0  0  0  0  0  0  0
    9.6971  -15.3514   21.9310 C   0  0  0  0  0  0  0  0  0  0  0  0
    9.5702  -14.1670   22.3052 O   0  0  0  0  0  0  0  0  0  0  0  0
    7.3253  -14.5829   15.1133 O   0  0  0  0  0  0  0  0  0  0  0  0
   11.4873  -15.5842   30.1717 C   0  0  0  0  0  0  0  0  0  0  0  0
   11.1680  -15.7263   28.8098 C   0  0  0  0  0  0  0  0  0  0  0  0
   10.3829  -16.7854   28.3886 C   0  0  0  0  0  0  0  0  0  0  0  0
   10.0501  -16.9572   27.0658 C   0  0  0  0  0  0  0  0  0  0  0  0
   10.5072  -16.0535   26.1274 C   0  0  0  0  0  0  0  0  0  0  0  0
   10.1717  -16.2198   24.6971 C   0  0  2  0  0  0  0  0  0  0  0  0
   11.3223  -16.0228   23.7669 N   0  0  0  0  0  0  0  0  0  0  0  0
   10.8141  -16.0848   22.4029 C   0  0  0  0  0  0  0  0  0  0  0  0
   12.4741  -16.9127   23.9933 O   0  0  0  0  0  0  0  0  0  0  0  0
   13.5341  -16.5436   24.5456 C   0  0  0  0  0  0  0  0  0  0  0  0
   11.2900  -14.9920   26.5243 C   0  0  0  0  0  0  0  0  0  0  0  0
   11.6110  -14.8400   27.8585 O   0  0  0  0  0  0  0  0  0  0  0  0
  2  1  1  1
  3  2  1  0
  4  5  2  0
  4  3  1  0
  6  5  1  0
  7 12  2  0
  7  6  1  0
  8  7  1  0
  9  8  2  0
  9 10  1  0
 10 11  2  0
 11 12  1  0
 12  4  1  0
 13  2  1  0
 14 13  2  0
 16 15  1  0
 17 16  2  0
 18 16  1  0
 19 18  1  0
 19 20  1  0
 20 21  1  0
 22 21  1  1
 22 24  1  0
 22 23  1  0
 23 13  1  0
 24 33  1  0
 25 24  2  0
 26 27  1  0
 27 28  2  0
 27 37  1  0
 28 29  1  0
 29 30  2  0
 30 31  1  0
 32 34  1  0
 32 31  1  1
 33 32  1  0
 34 38  1  0
 35 34  2  0
 36 30  1  0
 37 36  2  0
M  END
$$$$
