WRY.pdb
     RDKit          3D

 38 40  0  0  1  0  0  0  0  0999 V2000
    6.3527  -18.5351   24.7980 N   0  0  0  0  0  0  0  0  0  0  0  0
    6.6793  -17.1433   24.6079 C   0  0  1  0  0  0  0  0  0  0  0  0
    7.3266  -16.5151   25.7851 C   0  0  0  0  0  0  0  0  0  0  0  0
    6.7926  -15.2096   26.1921 C   0  0  0  0  0  0  0  0  0  0  0  0
    5.4952  -14.9243   26.6495 C   0  0  0  0  0  0  0  0  0  0  0  0
    5.4369  -13.6207   26.9341 N   0  0  0  0  0  0  0  0  0  0  0  0
    6.6068  -13.0240   26.6957 C   0  0  0  0  0  0  0  0  0  0  0  0
    7.0621  -11.7343   26.8142 C   0  0  0  0  0  0  0  0  0  0  0  0
    8.3437  -11.3905   26.4844 C   0  0  0  0  0  0  0  0  0  0  0  0
    9.1914  -12.3510   26.0261 C   0  0  0  0  0  0  0  0  0  0  0  0
    8.7510  -13.6598   25.8990 C   0  0  0  0  0  0  0  0  0  0  0  0
    7.4635  -14.0087   26.2305 C   0  0  0  0  0  0  0  0  0  0  0  0
    7.5478  -17.0058   23.3918 C   0  0  0  0  0  0  0  0  0  0  0  0
    8.3606  -17.9130   23.0607 O   0  0  0  0  0  0  0  0  0  0  0  0
    8.5061  -13.1460   15.4868 N   0  0  0  0  0  0  0  0  0  0  0  0
    8.6720  -14.5006   15.8933 C   0  0  0  0  0  0  0  0  0  0  0  0
    9.0907  -15.3905   15.0368 N   0  0  0  0  0  0  0  0  0  0  0  0
    8.3896  -14.9107   17.2238 N   0  0  0  0  0  0  0  0  0  0  0  0
    8.0828  -13.9412   18.2483 C   0  0  0  0  0  0  0  0  0  0  0  0
    8.8655  -14.2850   19.4857 C   0  0  0  0  0  0  0  0  0  0  0  0
    7.9771  -14.4670   20.6719 C   0  0  0  0  0  0  0  0  0  0  0  0
    8.3492  -15.7303   21.4144 C   0  0  2  0  0  0  0  0  0  0  0  0
    7.5055  -15.8614   22.5556 N   0  0  0  0  0  0  0  0  0  0  0  0
    9.7941  -15.7478   21.7417 C   0  0  0  0  0  0  0  0  0  0  0  0
   10.6413  -15.8185   20.8272 O   0  0  0  0  0  0  0  0  0  0  0  0
    9.2664  -16.3647   15.3332 O   0  0  0  0  0  0  0  0  0  0  0  0
    9.5847  -15.6392   29.5357 C   0  0  0  0  0  0  0  0  0  0  0  0
   10.1331  -15.3578   28.2720 C   0  0  0  0  0  0  0  0  0  0  0  0
   10.0780  -14.0719   27.7630 C   0  0  0  0  0  0  0  0  0  0  0  0
   10.6030  -13.7589   26.5315 C   0  0  0  0  0  0  0  0  0  0  0  0
   11.2025  -14.7479   25.7773 C   0  0  0  0  0  0  0  0  0  0  0  0
   11.7669  -14.4404   24.4458 C   0  0  1  0  0  0  0  0  0  0  0  0
   11.6592  -15.5543   23.4582 N   0  0  0  0  0  0  0  0  0  0  0  0
   10.2586  -15.6858   23.0790 C   0  0  0  0  0  0  0  0  0  0  0  0
   12.2638  -16.8297   23.8797 O   0  0  0  0  0  0  0  0  0  0  0  0
   11.6376  -17.9120   23.9168 C   0  0  0  0  0  0  0  0  0  0  0  0
   11.2683  -16.0345   26.2643 C   0  0  0  0  0  0  0  0  0  0  0  0
   10.7342  -16.3250   27.5039 O   0  0  0  0  0  0  0  0  0  0  0  0
  2  1  1  1
  3  2  1  0
  4  5  2  0
  4  3  1  0
  6  5  1  0
  7 12  2  0
  7  6  1  0
  8  7  1  0
  9  8  2  0
  9 10  1  0
 10 11  2  0
 11 12  1  0
 12  4  1  0
 13  2  1  0
 14 13  2  0
 16 15  1  0
 17 16  2  0
 18 16  1  0
 19 18  1  0
 19 20  1  0
 20 21  1  0
 22 21  1  1
 22 24  1  0
 22 23  1  0
 23 13  1  0
 24 33  1  0
 25 24  2  0
 26 27  1  0
 27 28  2  0
 27 37  1  0
 28 29  1  0
 29 30  2  0
 30 31  1  0
 32 34  1  0
 32 31  1  6
 33 32  1  0
 34 38  1  0
 35 34  2  0
 36 30  1  0
 37 36  2  0
M  END
$$$$
