WRY.pdb
     RDKit          3D

 38 40  0  0  1  0  0  0  0  0999 V2000
    8.6564  -15.0768   24.1498 N   0  0  0  0  0  0  0  0  0  0  0  0
    8.4701  -16.3987   24.6955 C   0  0  1  0  0  0  0  0  0  0  0  0
    7.2104  -16.5569   25.4620 C   0  0  0  0  0  0  0  0  0  0  0  0
    6.5357  -15.3134   25.8538 C   0  0  0  0  0  0  0  0  0  0  0  0
    5.4094  -15.1794   26.6829 C   0  0  0  0  0  0  0  0  0  0  0  0
    5.1373  -13.8771   26.7996 N   0  0  0  0  0  0  0  0  0  0  0  0
    6.0062  -13.1404   26.1040 C   0  0  0  0  0  0  0  0  0  0  0  0
    6.1612  -11.7927   25.8936 C   0  0  0  0  0  0  0  0  0  0  0  0
    7.1647  -11.2979   25.1074 C   0  0  0  0  0  0  0  0  0  0  0  0
    8.0329  -12.1631   24.5170 C   0  0  0  0  0  0  0  0  0  0  0  0
    7.8934  -13.5283   24.7168 C   0  0  0  0  0  0  0  0  0  0  0  0
    6.8863  -14.0286   25.5071 C   0  0  0  0  0  0  0  0  0  0  0  0
    8.5401  -17.4024   23.5820 C   0  0  0  0  0  0  0  0  0  0  0  0
    8.4991  -18.6425   23.8136 O   0  0  0  0  0  0  0  0  0  0  0  0
    8.0678  -13.5746   16.6557 N   0  0  0  0  0  0  0  0  0  0  0  0
    8.3782  -13.3350   18.0246 C   0  0  0  0  0  0  0  0  0  0  0  0
    8.0506  -12.2000   18.5771 N   0  0  0  0  0  0  0  0  0  0  0  0
    9.0432  -14.3129   18.8118 N   0  0  0  0  0  0  0  0  0  0  0  0
    9.5248  -15.5380   18.2195 C   0  0  0  0  0  0  0  0  0  0  0  0
   10.2675  -16.3196   19.2680 C   0  0  0  0  0  0  0  0  0  0  0  0
    9.3806  -17.3006   19.9612 C   0  0  0  0  0  0  0  0  0  0  0  0
    9.7652  -17.4133   21.4190 C   0  0  2  0  0  0  0  0  0  0  0  0
    8.6556  -17.0186   22.2218 N   0  0  0  0  0  0  0  0  0  0  0  0
   11.0022  -16.6486   21.7025 C   0  0  0  0  0  0  0  0  0  0  0  0
   11.1628  -15.5138   21.2072 O   0  0  0  0  0  0  0  0  0  0  0  0
    8.3052  -11.9992   19.5582 O   0  0  0  0  0  0  0  0  0  0  0  0
   11.2099  -14.5026   29.8380 C   0  0  0  0  0  0  0  0  0  0  0  0
   11.1560  -15.0529   28.5452 C   0  0  0  0  0  0  0  0  0  0  0  0
   10.7740  -14.2664   27.4723 C   0  0  0  0  0  0  0  0  0  0  0  0
   10.7093  -14.7691   26.1944 C   0  0  0  0  0  0  0  0  0  0  0  0
   11.0326  -16.0922   25.9676 C   0  0  0  0  0  0  0  0  0  0  0  0
   10.9627  -16.6606   24.6045 C   0  0  2  0  0  0  0  0  0  0  0  0
   12.2765  -16.7373   23.9004 N   0  0  0  0  0  0  0  0  0  0  0  0
   12.0286  -17.1672   22.5305 C   0  0  0  0  0  0  0  0  0  0  0  0
   13.3079  -17.5412   24.5784 O   0  0  0  0  0  0  0  0  0  0  0  0
   14.3073  -17.0464   25.1453 C   0  0  0  0  0  0  0  0  0  0  0  0
   11.4153  -16.8931   27.0207 C   0  0  0  0  0  0  0  0  0  0  0  0
   11.4730  -16.3658   28.2955 O   0  0  0  0  0  0  0  0  0  0  0  0
  2  1  1  6
  3  2  1  0
  4  5  2  0
  4  3  1  0
  6  5  1  0
  7 12  2  0
  7  6  1  0
  8  7  1  0
  9  8  2  0
  9 10  1  0
 10 11  2  0
 11 12  1  0
 12  4  1  0
 13  2  1  0
 14 13  2  0
 16 15  1  0
 17 16  2  0
 18 16  1  0
 19 18  1  0
 19 20  1  0
 20 21  1  0
 22 21  1  6
 22 24  1  0
 22 23  1  0
 23 13  1  0
 24 33  1  0
 25 24  2  0
 26 27  1  0
 27 28  2  0
 27 37  1  0
 28 29  1  0
 29 30  2  0
 30 31  1  0
 32 34  1  0
 32 31  1  6
 33 32  1  0
 34 38  1  0
 35 34  2  0
 36 30  1  0
 37 36  2  0
M  END
$$$$
