WRY.pdb
     RDKit          3D

 38 40  0  0  1  0  0  0  0  0999 V2000
    6.5561  -18.2903   24.1269 N   0  0  0  0  0  0  0  0  0  0  0  0
    6.7781  -16.8678   24.0433 C   0  0  1  0  0  0  0  0  0  0  0  0
    7.0808  -16.2323   25.3486 C   0  0  0  0  0  0  0  0  0  0  0  0
    6.3046  -15.0293   25.6735 C   0  0  0  0  0  0  0  0  0  0  0  0
    4.9172  -14.9389   25.8754 C   0  0  0  0  0  0  0  0  0  0  0  0
    4.6269  -13.6696   26.1730 N   0  0  0  0  0  0  0  0  0  0  0  0
    5.7273  -12.9142   26.1811 C   0  0  0  0  0  0  0  0  0  0  0  0
    5.9697  -11.5834   26.4156 C   0  0  0  0  0  0  0  0  0  0  0  0
    7.2309  -11.0593   26.3500 C   0  0  0  0  0  0  0  0  0  0  0  0
    8.2742  -11.8771   26.0439 C   0  0  0  0  0  0  0  0  0  0  0  0
    8.0506  -13.2244   25.8034 C   0  0  0  0  0  0  0  0  0  0  0  0
    6.7840  -13.7544   25.8694 C   0  0  0  0  0  0  0  0  0  0  0  0
    7.8786  -16.6011   23.0584 C   0  0  0  0  0  0  0  0  0  0  0  0
    8.8344  -17.4117   22.9080 O   0  0  0  0  0  0  0  0  0  0  0  0
    8.1043  -13.3278   15.9862 N   0  0  0  0  0  0  0  0  0  0  0  0
    8.1170  -14.7511   15.9471 C   0  0  0  0  0  0  0  0  0  0  0  0
    8.3563  -15.3692   14.8240 N   0  0  0  0  0  0  0  0  0  0  0  0
    7.8728  -15.5228   17.1147 N   0  0  0  0  0  0  0  0  0  0  0  0
    8.6188  -15.2869   18.3278 C   0  0  0  0  0  0  0  0  0  0  0  0
    7.7999  -14.4080   19.2327 C   0  0  0  0  0  0  0  0  0  0  0  0
    8.5614  -14.0038   20.4519 C   0  0  0  0  0  0  0  0  0  0  0  0
    8.9204  -15.2225   21.2714 C   0  0  2  0  0  0  0  0  0  0  0  0
    7.9071  -15.4361   22.2507 N   0  0  0  0  0  0  0  0  0  0  0  0
   10.2802  -15.0946   21.8454 C   0  0  0  0  0  0  0  0  0  0  0  0
   10.8537  -13.9856   21.8531 O   0  0  0  0  0  0  0  0  0  0  0  0
    8.3973  -16.4011   14.7892 O   0  0  0  0  0  0  0  0  0  0  0  0
   11.6039  -16.6605   30.1752 C   0  0  0  0  0  0  0  0  0  0  0  0
   11.2995  -16.5020   28.8117 C   0  0  0  0  0  0  0  0  0  0  0  0
   11.0873  -15.2372   28.2912 C   0  0  0  0  0  0  0  0  0  0  0  0
   10.7874  -15.0430   26.9637 C   0  0  0  0  0  0  0  0  0  0  0  0
   10.6941  -16.1332   26.1217 C   0  0  0  0  0  0  0  0  0  0  0  0
   10.3640  -15.9532   24.6917 C   0  0  1  0  0  0  0  0  0  0  0  0
   11.4865  -16.2586   23.7566 N   0  0  0  0  0  0  0  0  0  0  0  0
   10.9666  -16.2051   22.3966 C   0  0  0  0  0  0  0  0  0  0  0  0
   12.2235  -17.5014   24.0429 O   0  0  0  0  0  0  0  0  0  0  0  0
   12.0131  -18.5818   23.4484 C   0  0  0  0  0  0  0  0  0  0  0  0
   10.9013  -17.4010   26.6184 C   0  0  0  0  0  0  0  0  0  0  0  0
   11.2014  -17.5714   27.9552 O   0  0  0  0  0  0  0  0  0  0  0  0
  2  1  1  1
  3  2  1  0
  4  5  2  0
  4  3  1  0
  6  5  1  0
  7 12  2  0
  7  6  1  0
  8  7  1  0
  9  8  2  0
  9 10  1  0
 10 11  2  0
 11 12  1  0
 12  4  1  0
 13  2  1  0
 14 13  2  0
 16 15  1  0
 17 16  2  0
 18 16  1  0
 19 18  1  0
 19 20  1  0
 20 21  1  0
 22 21  1  1
 22 24  1  0
 22 23  1  0
 23 13  1  0
 24 33  1  0
 25 24  2  0
 26 27  1  0
 27 28  2  0
 27 37  1  0
 28 29  1  0
 29 30  2  0
 30 31  1  0
 32 34  1  0
 32 31  1  6
 33 32  1  0
 34 38  1  0
 35 34  2  0
 36 30  1  0
 37 36  2  0
M  END
$$$$
