WRY.pdb
     RDKit          3D

 38 40  0  0  1  0  0  0  0  0999 V2000
    6.0906  -18.1264   24.9029 N   0  0  0  0  0  0  0  0  0  0  0  0
    6.5513  -16.8167   24.5125 C   0  0  1  0  0  0  0  0  0  0  0  0
    7.2474  -16.0805   25.5955 C   0  0  0  0  0  0  0  0  0  0  0  0
    6.5098  -14.9571   26.1864 C   0  0  0  0  0  0  0  0  0  0  0  0
    5.3692  -15.0222   27.0042 C   0  0  0  0  0  0  0  0  0  0  0  0
    5.0341  -13.7744   27.3425 N   0  0  0  0  0  0  0  0  0  0  0  0
    5.8746  -12.8883   26.8039 C   0  0  0  0  0  0  0  0  0  0  0  0
    5.9676  -11.5190   26.8365 C   0  0  0  0  0  0  0  0  0  0  0  0
    6.9550  -10.8488   26.1690 C   0  0  0  0  0  0  0  0  0  0  0  0
    7.8701  -11.5564   25.4528 C   0  0  0  0  0  0  0  0  0  0  0  0
    7.7936  -12.9403   25.4070 C   0  0  0  0  0  0  0  0  0  0  0  0
    6.8027  -13.6169   26.0776 C   0  0  0  0  0  0  0  0  0  0  0  0
    7.4382  -16.9483   23.3091 C   0  0  0  0  0  0  0  0  0  0  0  0
    8.2424  -17.9139   23.1898 O   0  0  0  0  0  0  0  0  0  0  0  0
    7.8860  -13.0279   15.4360 N   0  0  0  0  0  0  0  0  0  0  0  0
    8.4448  -14.3310   15.5669 C   0  0  0  0  0  0  0  0  0  0  0  0
    8.6033  -15.0803   14.5114 N   0  0  0  0  0  0  0  0  0  0  0  0
    8.8383  -14.8405   16.8334 N   0  0  0  0  0  0  0  0  0  0  0  0
    8.7561  -14.0214   18.0192 C   0  0  0  0  0  0  0  0  0  0  0  0
    9.1861  -14.8440   19.2026 C   0  0  0  0  0  0  0  0  0  0  0  0
    8.1352  -14.8832   20.2627 C   0  0  0  0  0  0  0  0  0  0  0  0
    8.5022  -15.8945   21.3249 C   0  0  2  0  0  0  0  0  0  0  0  0
    7.4237  -16.0055   22.2500 N   0  0  0  0  0  0  0  0  0  0  0  0
    9.7949  -15.5502   21.9617 C   0  0  0  0  0  0  0  0  0  0  0  0
   10.2293  -14.3812   21.9020 O   0  0  0  0  0  0  0  0  0  0  0  0
    9.0637  -16.0024   14.5845 O   0  0  0  0  0  0  0  0  0  0  0  0
    9.8701  -15.8178   29.2229 C   0  0  0  0  0  0  0  0  0  0  0  0
   10.3869  -15.6317   27.9285 C   0  0  0  0  0  0  0  0  0  0  0  0
    9.6290  -14.9889   26.9652 C   0  0  0  0  0  0  0  0  0  0  0  0
   10.1004  -14.7890   25.6893 C   0  0  0  0  0  0  0  0  0  0  0  0
   11.3619  -15.2381   25.3530 C   0  0  0  0  0  0  0  0  0  0  0  0
   11.8896  -15.0441   23.9855 C   0  0  1  0  0  0  0  0  0  0  0  0
   11.9172  -16.2831   23.1538 N   0  0  0  0  0  0  0  0  0  0  0  0
   10.5705  -16.5166   22.6492 C   0  0  0  0  0  0  0  0  0  0  0  0
   12.5004  -17.4672   23.8077 O   0  0  0  0  0  0  0  0  0  0  0  0
   11.8773  -18.5381   23.9803 C   0  0  0  0  0  0  0  0  0  0  0  0
   12.1334  -15.8804   26.2960 C   0  0  0  0  0  0  0  0  0  0  0  0
   11.6387  -16.0697   27.5710 O   0  0  0  0  0  0  0  0  0  0  0  0
  2  1  1  1
  3  2  1  0
  4  5  2  0
  4  3  1  0
  6  5  1  0
  7 12  2  0
  7  6  1  0
  8  7  1  0
  9  8  2  0
  9 10  1  0
 10 11  2  0
 11 12  1  0
 12  4  1  0
 13  2  1  0
 14 13  2  0
 16 15  1  0
 17 16  2  0
 18 16  1  0
 19 18  1  0
 19 20  1  0
 20 21  1  0
 22 21  1  6
 22 24  1  0
 22 23  1  0
 23 13  1  0
 24 33  1  0
 25 24  2  0
 26 27  1  0
 27 28  2  0
 27 37  1  0
 28 29  1  0
 29 30  2  0
 30 31  1  0
 32 34  1  0
 32 31  1  6
 33 32  1  0
 34 38  1  0
 35 34  2  0
 36 30  1  0
 37 36  2  0
M  END
$$$$
