WRY.pdb
     RDKit          3D

 38 40  0  0  1  0  0  0  0  0999 V2000
    6.6616  -17.6731   25.2714 N   0  0  0  0  0  0  0  0  0  0  0  0
    7.2015  -16.7279   24.3254 C   0  0  1  0  0  0  0  0  0  0  0  0
    7.8008  -15.5269   24.9562 C   0  0  0  0  0  0  0  0  0  0  0  0
    6.8583  -14.5903   25.5803 C   0  0  0  0  0  0  0  0  0  0  0  0
    5.9258  -14.8681   26.5939 C   0  0  0  0  0  0  0  0  0  0  0  0
    5.2873  -13.7324   26.8876 N   0  0  0  0  0  0  0  0  0  0  0  0
    5.7332  -12.7226   26.1373 C   0  0  0  0  0  0  0  0  0  0  0  0
    5.4158  -11.3901   26.0442 C   0  0  0  0  0  0  0  0  0  0  0  0
    6.0454  -10.5607   25.1580 C   0  0  0  0  0  0  0  0  0  0  0  0
    7.0120  -11.0681   24.3460 C   0  0  0  0  0  0  0  0  0  0  0  0
    7.3473  -12.4115   24.4243 C   0  0  0  0  0  0  0  0  0  0  0  0
    6.7168  -13.2475   25.3147 C   0  0  0  0  0  0  0  0  0  0  0  0
    8.2069  -17.4250   23.4562 C   0  0  0  0  0  0  0  0  0  0  0  0
    8.8432  -18.4338   23.8694 O   0  0  0  0  0  0  0  0  0  0  0  0
    6.9967  -13.6797   17.6292 N   0  0  0  0  0  0  0  0  0  0  0  0
    8.2954  -13.2431   18.0171 C   0  0  0  0  0  0  0  0  0  0  0  0
    8.4602  -12.0455   18.5064 N   0  0  0  0  0  0  0  0  0  0  0  0
    9.4283  -14.0896   17.8827 N   0  0  0  0  0  0  0  0  0  0  0  0
    9.3335  -15.5033   18.1590 C   0  0  0  0  0  0  0  0  0  0  0  0
    9.5162  -15.7178   19.6363 C   0  0  0  0  0  0  0  0  0  0  0  0
    9.5315  -17.1687   19.9888 C   0  0  0  0  0  0  0  0  0  0  0  0
    9.7123  -17.3422   21.4797 C   0  0  2  0  0  0  0  0  0  0  0  0
    8.4962  -16.9942   22.1366 N   0  0  0  0  0  0  0  0  0  0  0  0
   10.8859  -16.5789   21.9646 C   0  0  0  0  0  0  0  0  0  0  0  0
   10.9914  -15.3624   21.7043 O   0  0  0  0  0  0  0  0  0  0  0  0
    9.4020  -11.7064   18.7627 O   0  0  0  0  0  0  0  0  0  0  0  0
   11.3999  -15.0799   30.2407 C   0  0  0  0  0  0  0  0  0  0  0  0
   11.2916  -15.5484   28.9194 C   0  0  0  0  0  0  0  0  0  0  0  0
   11.2386  -14.6503   27.8676 C   0  0  0  0  0  0  0  0  0  0  0  0
   11.1325  -15.0706   26.5630 C   0  0  0  0  0  0  0  0  0  0  0  0
   11.0772  -16.4223   26.2871 C   0  0  0  0  0  0  0  0  0  0  0  0
   10.9539  -16.9012   24.8937 C   0  0  2  0  0  0  0  0  0  0  0  0
   12.2229  -16.8503   24.1097 N   0  0  0  0  0  0  0  0  0  0  0  0
   11.9120  -17.1900   22.7274 C   0  0  0  0  0  0  0  0  0  0  0  0
   13.3355  -17.6428   24.6611 O   0  0  0  0  0  0  0  0  0  0  0  0
   14.3327  -17.1366   25.2217 C   0  0  0  0  0  0  0  0  0  0  0  0
   11.1283  -17.3337   27.3184 C   0  0  0  0  0  0  0  0  0  0  0  0
   11.2350  -16.8879   28.6207 O   0  0  0  0  0  0  0  0  0  0  0  0
  2  1  1  1
  3  2  1  0
  4  5  2  0
  4  3  1  0
  6  5  1  0
  7 12  2  0
  7  6  1  0
  8  7  1  0
  9  8  2  0
  9 10  1  0
 10 11  2  0
 11 12  1  0
 12  4  1  0
 13  2  1  0
 14 13  2  0
 16 15  1  0
 17 16  2  0
 18 16  1  0
 19 18  1  0
 19 20  1  0
 20 21  1  0
 22 21  1  6
 22 24  1  0
 22 23  1  0
 23 13  1  0
 24 33  1  0
 25 24  2  0
 26 27  1  0
 27 28  2  0
 27 37  1  0
 28 29  1  0
 29 30  2  0
 30 31  1  0
 32 34  1  0
 32 31  1  6
 33 32  1  0
 34 38  1  0
 35 34  2  0
 36 30  1  0
 37 36  2  0
M  END
$$$$
