WRY.pdb
     RDKit          3D

 38 40  0  0  1  0  0  0  0  0999 V2000
    6.7798  -18.2986   25.6662 N   0  0  0  0  0  0  0  0  0  0  0  0
    7.0179  -16.9871   25.1157 C   0  0  1  0  0  0  0  0  0  0  0  0
    7.7810  -16.0900   26.0171 C   0  0  0  0  0  0  0  0  0  0  0  0
    7.0975  -14.8571   26.4267 C   0  0  0  0  0  0  0  0  0  0  0  0
    5.8327  -14.7431   27.0279 C   0  0  0  0  0  0  0  0  0  0  0  0
    5.6018  -13.4478   27.2573 N   0  0  0  0  0  0  0  0  0  0  0  0
    6.6270  -12.6971   26.8485 C   0  0  0  0  0  0  0  0  0  0  0  0
    6.8827  -11.3483   26.8502 C   0  0  0  0  0  0  0  0  0  0  0  0
    8.0469  -10.8360   26.3484 C   0  0  0  0  0  0  0  0  0  0  0  0
    8.9775  -11.6844   25.8332 C   0  0  0  0  0  0  0  0  0  0  0  0
    8.7384  -13.0503   25.8220 C   0  0  0  0  0  0  0  0  0  0  0  0
    7.5694  -13.5684   26.3264 C   0  0  0  0  0  0  0  0  0  0  0  0
    7.7182  -17.1297   23.7961 C   0  0  0  0  0  0  0  0  0  0  0  0
    8.6305  -17.9855   23.6272 O   0  0  0  0  0  0  0  0  0  0  0  0
    8.0312  -13.1307   15.5965 N   0  0  0  0  0  0  0  0  0  0  0  0
    8.2828  -14.5222   15.7637 C   0  0  0  0  0  0  0  0  0  0  0  0
    8.7829  -15.2160   14.7793 N   0  0  0  0  0  0  0  0  0  0  0  0
    7.9992  -15.1803   16.9904 N   0  0  0  0  0  0  0  0  0  0  0  0
    7.8531  -14.4318   18.2160 C   0  0  0  0  0  0  0  0  0  0  0  0
    8.5174  -15.1957   19.3282 C   0  0  0  0  0  0  0  0  0  0  0  0
    7.6521  -15.2730   20.5426 C   0  0  0  0  0  0  0  0  0  0  0  0
    8.3147  -16.1230   21.6029 C   0  0  2  0  0  0  0  0  0  0  0  0
    7.3988  -16.3195   22.6771 N   0  0  0  0  0  0  0  0  0  0  0  0
    9.6056  -15.5323   22.0268 C   0  0  0  0  0  0  0  0  0  0  0  0
    9.8088  -14.3084   21.8869 O   0  0  0  0  0  0  0  0  0  0  0  0
    8.9522  -16.2301   14.8825 O   0  0  0  0  0  0  0  0  0  0  0  0
   10.0523  -15.9801   29.1512 C   0  0  0  0  0  0  0  0  0  0  0  0
   10.4535  -15.6316   27.8495 C   0  0  0  0  0  0  0  0  0  0  0  0
   11.1855  -16.5251   27.0870 C   0  0  0  0  0  0  0  0  0  0  0  0
   11.5956  -16.2198   25.8108 C   0  0  0  0  0  0  0  0  0  0  0  0
   11.2721  -14.9917   25.2689 C   0  0  0  0  0  0  0  0  0  0  0  0
   11.7083  -14.6343   23.9021 C   0  0  1  0  0  0  0  0  0  0  0  0
   11.9373  -15.8031   23.0026 N   0  0  0  0  0  0  0  0  0  0  0  0
   10.6371  -16.3198   22.5959 C   0  0  0  0  0  0  0  0  0  0  0  0
   12.8287  -16.8455   23.5398 O   0  0  0  0  0  0  0  0  0  0  0  0
   12.4736  -18.0310   23.7228 C   0  0  0  0  0  0  0  0  0  0  0  0
   10.5444  -14.0872   26.0099 C   0  0  0  0  0  0  0  0  0  0  0  0
   10.1435  -14.4163   27.2894 O   0  0  0  0  0  0  0  0  0  0  0  0
  2  1  1  1
  3  2  1  0
  4  5  2  0
  4  3  1  0
  6  5  1  0
  7 12  2  0
  7  6  1  0
  8  7  1  0
  9  8  2  0
  9 10  1  0
 10 11  2  0
 11 12  1  0
 12  4  1  0
 13  2  1  0
 14 13  2  0
 16 15  1  0
 17 16  2  0
 18 16  1  0
 19 18  1  0
 19 20  1  0
 20 21  1  0
 22 21  1  6
 22 24  1  0
 22 23  1  0
 23 13  1  0
 24 33  1  0
 25 24  2  0
 26 27  1  0
 27 28  2  0
 27 37  1  0
 28 29  1  0
 29 30  2  0
 30 31  1  0
 32 34  1  0
 32 31  1  6
 33 32  1  0
 34 38  1  0
 35 34  2  0
 36 30  1  0
 37 36  2  0
M  END
$$$$
