WRY.pdb
     RDKit          3D

 38 40  0  0  1  0  0  0  0  0999 V2000
    6.0531  -18.0098   23.5414 N   0  0  0  0  0  0  0  0  0  0  0  0
    6.6153  -16.6867   23.6568 C   0  0  1  0  0  0  0  0  0  0  0  0
    7.1806  -16.3922   24.9959 C   0  0  0  0  0  0  0  0  0  0  0  0
    6.4499  -15.4043   25.7992 C   0  0  0  0  0  0  0  0  0  0  0  0
    5.2587  -15.6026   26.5173 C   0  0  0  0  0  0  0  0  0  0  0  0
    4.9499  -14.4548   27.1264 N   0  0  0  0  0  0  0  0  0  0  0  0
    5.8550  -13.5107   26.8599 C   0  0  0  0  0  0  0  0  0  0  0  0
    5.9969  -12.1946   27.2240 C   0  0  0  0  0  0  0  0  0  0  0  0
    7.0485  -11.4369   26.7884 C   0  0  0  0  0  0  0  0  0  0  0  0
    7.9796  -12.0009   25.9722 C   0  0  0  0  0  0  0  0  0  0  0  0
    7.8545  -13.3288   25.5928 C   0  0  0  0  0  0  0  0  0  0  0  0
    6.7989  -14.0932   26.0296 C   0  0  0  0  0  0  0  0  0  0  0  0
    7.6567  -16.5026   22.5920 C   0  0  0  0  0  0  0  0  0  0  0  0
    8.2872  -17.4864   22.1147 O   0  0  0  0  0  0  0  0  0  0  0  0
    8.0203  -13.6835   15.6204 N   0  0  0  0  0  0  0  0  0  0  0  0
    8.1825  -14.9284   16.2923 C   0  0  0  0  0  0  0  0  0  0  0  0
    8.8346  -15.8993   15.7153 N   0  0  0  0  0  0  0  0  0  0  0  0
    7.6455  -15.1410   17.5903 N   0  0  0  0  0  0  0  0  0  0  0  0
    7.4845  -14.0434   18.5140 C   0  0  0  0  0  0  0  0  0  0  0  0
    8.8406  -13.6441   19.0273 C   0  0  0  0  0  0  0  0  0  0  0  0
    8.8920  -13.6462   20.5196 C   0  0  0  0  0  0  0  0  0  0  0  0
    8.9594  -15.0648   21.0379 C   0  0  2  0  0  0  0  0  0  0  0  0
    7.9880  -15.2273   22.0682 N   0  0  0  0  0  0  0  0  0  0  0  0
   10.3360  -15.4100   21.4631 C   0  0  0  0  0  0  0  0  0  0  0  0
   11.3077  -15.1095   20.7389 O   0  0  0  0  0  0  0  0  0  0  0  0
    9.0231  -16.7804   16.2209 O   0  0  0  0  0  0  0  0  0  0  0  0
    9.0421  -13.9936   28.4032 C   0  0  0  0  0  0  0  0  0  0  0  0
    9.7162  -14.7710   27.4450 C   0  0  0  0  0  0  0  0  0  0  0  0
   10.5016  -14.1589   26.4836 C   0  0  0  0  0  0  0  0  0  0  0  0
   11.1752  -14.8856   25.5307 C   0  0  0  0  0  0  0  0  0  0  0  0
   11.0705  -16.2624   25.5265 C   0  0  0  0  0  0  0  0  0  0  0  0
   11.7772  -17.0674   24.5074 C   0  0  2  0  0  0  0  0  0  0  0  0
   11.9277  -16.3929   23.1844 N   0  0  0  0  0  0  0  0  0  0  0  0
   10.5954  -16.0807   22.6841 C   0  0  0  0  0  0  0  0  0  0  0  0
   12.7577  -17.1116   22.2024 O   0  0  0  0  0  0  0  0  0  0  0  0
   12.3288  -17.5142   21.0984 C   0  0  0  0  0  0  0  0  0  0  0  0
   10.2943  -16.8923   26.4739 C   0  0  0  0  0  0  0  0  0  0  0  0
    9.6271  -16.1414   27.4211 O   0  0  0  0  0  0  0  0  0  0  0  0
  2  1  1  1
  3  2  1  0
  4  5  2  0
  4  3  1  0
  6  5  1  0
  7 12  2  0
  7  6  1  0
  8  7  1  0
  9  8  2  0
  9 10  1  0
 10 11  2  0
 11 12  1  0
 12  4  1  0
 13  2  1  0
 14 13  2  0
 16 15  1  0
 17 16  2  0
 18 16  1  0
 19 18  1  0
 19 20  1  0
 20 21  1  0
 22 21  1  1
 22 24  1  0
 22 23  1  0
 23 13  1  0
 24 33  1  0
 25 24  2  0
 26 27  1  0
 27 28  2  0
 27 37  1  0
 28 29  1  0
 29 30  2  0
 30 31  1  0
 32 34  1  0
 32 31  1  1
 33 32  1  0
 34 38  1  0
 35 34  2  0
 36 30  1  0
 37 36  2  0
M  END
$$$$
