WRY.pdb
     RDKit          3D

 38 40  0  0  1  0  0  0  0  0999 V2000
    7.2473  -17.7276   25.9055 N   0  0  0  0  0  0  0  0  0  0  0  0
    7.1962  -16.5618   25.0580 C   0  0  1  0  0  0  0  0  0  0  0  0
    8.2592  -15.5679   25.3438 C   0  0  0  0  0  0  0  0  0  0  0  0
    8.1018  -14.7964   26.5828 C   0  0  0  0  0  0  0  0  0  0  0  0
    8.7973  -14.9725   27.7908 C   0  0  0  0  0  0  0  0  0  0  0  0
    8.3670  -14.0466   28.6518 N   0  0  0  0  0  0  0  0  0  0  0  0
    7.4340  -13.2705   28.0962 C   0  0  0  0  0  0  0  0  0  0  0  0
    6.6888  -12.2066   28.5408 C   0  0  0  0  0  0  0  0  0  0  0  0
    5.7734  -11.5839   27.7383 C   0  0  0  0  0  0  0  0  0  0  0  0
    5.5951  -12.0296   26.4653 C   0  0  0  0  0  0  0  0  0  0  0  0
    6.3378  -13.1029   25.9969 C   0  0  0  0  0  0  0  0  0  0  0  0
    7.2593  -13.7305   26.8009 C   0  0  0  0  0  0  0  0  0  0  0  0
    7.2523  -16.9970   23.6229 C   0  0  0  0  0  0  0  0  0  0  0  0
    7.6306  -18.1583   23.3043 O   0  0  0  0  0  0  0  0  0  0  0  0
    9.6903  -14.3884   15.3507 N   0  0  0  0  0  0  0  0  0  0  0  0
    8.8633  -13.9568   16.4265 C   0  0  0  0  0  0  0  0  0  0  0  0
    9.0851  -12.8049   16.9963 N   0  0  0  0  0  0  0  0  0  0  0  0
    7.7906  -14.7592   16.8995 N   0  0  0  0  0  0  0  0  0  0  0  0
    7.1591  -14.4790   18.1670 C   0  0  0  0  0  0  0  0  0  0  0  0
    8.0894  -14.9001   19.2712 C   0  0  0  0  0  0  0  0  0  0  0  0
    7.4207  -14.8606   20.6057 C   0  0  0  0  0  0  0  0  0  0  0  0
    7.5207  -16.2100   21.2802 C   0  0  2  0  0  0  0  0  0  0  0  0
    6.8883  -16.1375   22.5554 N   0  0  0  0  0  0  0  0  0  0  0  0
    8.9279  -16.6692   21.3431 C   0  0  0  0  0  0  0  0  0  0  0  0
    9.3493  -17.5072   20.5190 O   0  0  0  0  0  0  0  0  0  0  0  0
    8.4242  -12.4270   17.6949 O   0  0  0  0  0  0  0  0  0  0  0  0
   12.6570  -13.5572   16.9988 C   0  0  0  0  0  0  0  0  0  0  0  0
   12.5264  -14.0385   18.3135 C   0  0  0  0  0  0  0  0  0  0  0  0
   11.7476  -13.3521   19.2289 C   0  0  0  0  0  0  0  0  0  0  0  0
   11.5965  -13.7917   20.5227 C   0  0  0  0  0  0  0  0  0  0  0  0
   12.2350  -14.9474   20.9265 C   0  0  0  0  0  0  0  0  0  0  0  0
   12.0968  -15.4374   22.3146 C   0  0  2  0  0  0  0  0  0  0  0  0
   11.2100  -16.6289   22.4625 N   0  0  0  0  0  0  0  0  0  0  0  0
    9.8300  -16.1832   22.3219 C   0  0  0  0  0  0  0  0  0  0  0  0
   11.4345  -17.4337   23.6756 O   0  0  0  0  0  0  0  0  0  0  0  0
   10.5190  -17.7763   24.4564 C   0  0  0  0  0  0  0  0  0  0  0  0
   13.0150  -15.6463   20.0321 C   0  0  0  0  0  0  0  0  0  0  0  0
   13.1518  -15.1855   18.7378 O   0  0  0  0  0  0  0  0  0  0  0  0
  2  1  1  1
  3  2  1  0
  4  5  2  0
  4  3  1  0
  6  5  1  0
  7 12  2  0
  7  6  1  0
  8  7  1  0
  9  8  2  0
  9 10  1  0
 10 11  2  0
 11 12  1  0
 12  4  1  0
 13  2  1  0
 14 13  2  0
 16 15  1  0
 17 16  2  0
 18 16  1  0
 19 18  1  0
 19 20  1  0
 20 21  1  0
 22 21  1  1
 22 24  1  0
 22 23  1  0
 23 13  1  0
 24 33  1  0
 25 24  2  0
 26 27  1  0
 27 28  2  0
 27 37  1  0
 28 29  1  0
 29 30  2  0
 30 31  1  0
 32 34  1  0
 32 31  1  6
 33 32  1  0
 34 38  1  0
 35 34  2  0
 36 30  1  0
 37 36  2  0
M  END
$$$$
