ATH.pdb
     RDKit          3D

 23 23  0  0  1  0  0  0  0  0999 V2000
   12.4857  -12.3545  -13.5005 C   0  0  0  0  0  0  0  0  0  0  0  0
   14.0029  -12.4550  -13.6764 C   0  0  2  0  0  0  0  0  0  0  0  0
   14.3220  -13.8655  -13.6166 N   0  0  0  0  0  0  0  0  0  0  0  0
   14.6650  -11.7683  -12.5476 C   0  0  0  0  0  0  0  0  0  0  0  0
   14.6251  -12.2943  -11.4114 O   0  0  0  0  0  0  0  0  0  0  0  0
   18.3323  -10.8314  -12.5995 C   0  0  0  0  0  0  0  0  0  0  0  0
   17.5626   -9.6021  -12.2325 C   0  0  1  0  0  0  0  0  0  0  0  0
   17.4580   -8.7992  -13.3582 O   0  0  0  0  0  0  0  0  0  0  0  0
   16.1758   -9.9479  -11.6731 C   0  0  2  0  0  0  0  0  0  0  0  0
   15.3501  -10.5318  -12.6865 N   0  0  0  0  0  0  0  0  0  0  0  0
   15.5941   -8.6493  -11.1770 C   0  0  0  0  0  0  0  0  0  0  0  0
   15.0185   -7.8482  -11.9721 O   0  0  0  0  0  0  0  0  0  0  0  0
   15.6768   -8.2911   -9.8046 N   0  0  0  0  0  0  0  0  0  0  0  0
   15.0901   -7.0313   -9.3130 C   0  0  1  0  0  0  0  0  0  0  0  0
   15.2235   -7.0706   -7.8109 C   0  0  0  0  0  0  0  0  0  0  0  0
   14.5767   -5.9198   -7.1894 C   0  0  0  0  0  0  0  0  0  0  0  0
   13.9138   -4.9124   -7.8352 C   0  0  0  0  0  0  0  0  0  0  0  0
   13.4493   -4.0259   -6.9405 N   0  0  0  0  0  0  0  0  0  0  0  0
   13.8233   -4.4813   -5.7367 C   0  0  0  0  0  0  0  0  0  0  0  0
   14.5135   -5.6393   -5.8775 N   0  0  0  0  0  0  0  0  0  0  0  0
   15.8894   -5.8802   -9.8103 C   0  0  0  0  0  0  0  0  0  0  0  0
   17.2884   -5.9330   -9.8667 O   0  0  0  0  0  0  0  0  0  0  0  0
   15.3776   -4.8053  -10.2052 O   0  0  0  0  0  0  0  0  0  0  0  0
  2  3  1  0
  2  1  1  1
  4  2  1  0
  5  4  2  0
  7  6  1  6
  7  9  1  0
  8  7  1  0
  9 11  1  0
  9 10  1  6
 10  4  1  0
 11 13  1  0
 12 11  2  0
 13 14  1  0
 14 15  1  1
 14 21  1  0
 16 15  1  0
 17 16  2  0
 18 17  1  0
 19 18  1  0
 19 20  2  0
 20 16  1  0
 21 23  2  0
 21 22  1  0
M  END
$$$$
