ATH.pdb
     RDKit          3D

 23 23  0  0  1  0  0  0  0  0999 V2000
   19.2202  -15.5039  -18.4141 C   0  0  0  0  0  0  0  0  0  0  0  0
   20.4924  -15.7640  -17.6035 C   0  0  2  0  0  0  0  0  0  0  0  0
   20.3136  -17.0572  -16.9786 N   0  0  0  0  0  0  0  0  0  0  0  0
   20.6092  -14.7365  -16.5478 C   0  0  0  0  0  0  0  0  0  0  0  0
   19.8733  -14.8200  -15.5375 O   0  0  0  0  0  0  0  0  0  0  0  0
   23.7192  -13.5111  -14.5634 C   0  0  0  0  0  0  0  0  0  0  0  0
   23.1034  -12.3544  -15.2853 C   0  0  1  0  0  0  0  0  0  0  0  0
   23.8460  -12.1077  -16.4300 O   0  0  0  0  0  0  0  0  0  0  0  0
   21.6320  -12.6210  -15.6314 C   0  0  2  0  0  0  0  0  0  0  0  0
   21.5209  -13.6498  -16.6208 N   0  0  0  0  0  0  0  0  0  0  0  0
   21.0831  -11.3132  -16.1405 C   0  0  0  0  0  0  0  0  0  0  0  0
   21.3252  -10.9212  -17.3208 O   0  0  0  0  0  0  0  0  0  0  0  0
   20.2802  -10.4871  -15.3090 N   0  0  0  0  0  0  0  0  0  0  0  0
   19.7802   -9.1860  -15.7889 C   0  0  1  0  0  0  0  0  0  0  0  0
   18.6029   -8.8448  -14.9096 C   0  0  0  0  0  0  0  0  0  0  0  0
   18.0290   -7.5519  -15.2676 C   0  0  0  0  0  0  0  0  0  0  0  0
   17.4466   -7.2229  -16.4608 C   0  0  0  0  0  0  0  0  0  0  0  0
   17.0326   -5.9463  -16.4291 N   0  0  0  0  0  0  0  0  0  0  0  0
   17.3574   -5.4798  -15.2152 C   0  0  0  0  0  0  0  0  0  0  0  0
   17.9674   -6.4538  -14.4967 N   0  0  0  0  0  0  0  0  0  0  0  0
   20.8200   -8.1434  -15.5807 C   0  0  0  0  0  0  0  0  0  0  0  0
   20.8850   -7.0046  -16.3942 O   0  0  0  0  0  0  0  0  0  0  0  0
   21.6923   -8.2101  -14.6818 O   0  0  0  0  0  0  0  0  0  0  0  0
  2  3  1  0
  2  1  1  6
  4  2  1  0
  5  4  2  0
  7  6  1  6
  7  9  1  0
  8  7  1  0
  9 11  1  0
  9 10  1  6
 10  4  1  0
 11 13  1  0
 12 11  2  0
 13 14  1  0
 14 15  1  1
 14 21  1  0
 16 15  1  0
 17 16  2  0
 18 17  1  0
 19 18  1  0
 19 20  2  0
 20 16  1  0
 21 23  2  0
 21 22  1  0
M  END
$$$$
