ATH.pdb
     RDKit          3D

 23 23  0  0  1  0  0  0  0  0999 V2000
   21.2429  -12.6745  -19.9418 C   0  0  0  0  0  0  0  0  0  0  0  0
   20.3177  -12.7174  -18.7230 C   0  0  2  0  0  0  0  0  0  0  0  0
   19.1050  -13.3745  -19.1618 N   0  0  0  0  0  0  0  0  0  0  0  0
   19.9907  -11.3344  -18.3179 C   0  0  0  0  0  0  0  0  0  0  0  0
   19.6220  -10.5180  -19.1935 O   0  0  0  0  0  0  0  0  0  0  0  0
   17.6455  -10.1991  -15.3389 C   0  0  0  0  0  0  0  0  0  0  0  0
   19.0009   -9.5795  -15.2072 C   0  0  1  0  0  0  0  0  0  0  0  0
   19.7169  -10.2915  -14.2569 O   0  0  0  0  0  0  0  0  0  0  0  0
   19.7445   -9.5528  -16.5497 C   0  0  2  0  0  0  0  0  0  0  0  0
   20.0737  -10.8797  -16.9748 N   0  0  0  0  0  0  0  0  0  0  0  0
   20.9859   -8.7303  -16.3188 C   0  0  0  0  0  0  0  0  0  0  0  0
   22.1315   -9.2714  -16.3031 O   0  0  0  0  0  0  0  0  0  0  0  0
   20.9022   -7.3271  -16.1129 N   0  0  0  0  0  0  0  0  0  0  0  0
   22.1100   -6.5275  -15.8390 C   0  0  1  0  0  0  0  0  0  0  0  0
   22.7340   -6.2458  -17.1831 C   0  0  0  0  0  0  0  0  0  0  0  0
   23.8756   -5.3453  -17.0611 C   0  0  0  0  0  0  0  0  0  0  0  0
   25.1958   -5.7032  -17.0455 C   0  0  0  0  0  0  0  0  0  0  0  0
   25.9631   -4.6089  -16.9195 N   0  0  0  0  0  0  0  0  0  0  0  0
   25.1203   -3.5687  -16.8567 C   0  0  0  0  0  0  0  0  0  0  0  0
   23.8409   -4.0079  -16.9423 N   0  0  0  0  0  0  0  0  0  0  0  0
   21.7208   -5.2247  -15.2367 C   0  0  0  0  0  0  0  0  0  0  0  0
   20.3764   -4.8875  -15.0325 O   0  0  0  0  0  0  0  0  0  0  0  0
   22.5514   -4.3562  -14.8774 O   0  0  0  0  0  0  0  0  0  0  0  0
  2  3  1  0
  2  1  1  6
  4  2  1  0
  5  4  2  0
  7  6  1  6
  7  9  1  0
  8  7  1  0
  9 11  1  0
  9 10  1  1
 10  4  1  0
 11 13  1  0
 12 11  2  0
 13 14  1  0
 14 15  1  6
 14 21  1  0
 16 15  1  0
 17 16  2  0
 18 17  1  0
 19 18  1  0
 19 20  2  0
 20 16  1  0
 21 23  2  0
 21 22  1  0
M  END
$$$$
