ATH.pdb
     RDKit          3D

 23 23  0  0  1  0  0  0  0  0999 V2000
   19.5021  -14.0829  -17.9675 C   0  0  0  0  0  0  0  0  0  0  0  0
   20.8616  -13.9335  -17.2802 C   0  0  2  0  0  0  0  0  0  0  0  0
   21.0985  -15.1795  -16.5827 N   0  0  0  0  0  0  0  0  0  0  0  0
   20.7826  -12.8401  -16.2892 C   0  0  0  0  0  0  0  0  0  0  0  0
   20.1778  -13.0426  -15.2111 O   0  0  0  0  0  0  0  0  0  0  0  0
   23.5615  -11.1226  -14.4685 C   0  0  0  0  0  0  0  0  0  0  0  0
   22.8088  -10.0676  -15.2160 C   0  0  1  0  0  0  0  0  0  0  0  0
   23.5022   -9.7782  -16.3813 O   0  0  0  0  0  0  0  0  0  0  0  0
   21.3720  -10.5094  -15.5265 C   0  0  2  0  0  0  0  0  0  0  0  0
   21.3623  -11.5604  -16.4986 N   0  0  0  0  0  0  0  0  0  0  0  0
   20.6643   -9.2830  -16.0422 C   0  0  0  0  0  0  0  0  0  0  0  0
   20.6857   -8.9893  -17.2745 O   0  0  0  0  0  0  0  0  0  0  0  0
   19.9553   -8.4255  -15.1588 N   0  0  0  0  0  0  0  0  0  0  0  0
   19.2540   -7.2305  -15.6620 C   0  0  1  0  0  0  0  0  0  0  0  0
   18.2714   -6.8426  -14.5852 C   0  0  0  0  0  0  0  0  0  0  0  0
   17.2489   -5.9375  -15.0994 C   0  0  0  0  0  0  0  0  0  0  0  0
   17.1114   -5.5171  -16.3939 C   0  0  0  0  0  0  0  0  0  0  0  0
   16.0590   -4.6899  -16.4949 N   0  0  0  0  0  0  0  0  0  0  0  0
   15.5407   -4.5949  -15.2625 C   0  0  0  0  0  0  0  0  0  0  0  0
   16.2609   -5.3542  -14.4013 N   0  0  0  0  0  0  0  0  0  0  0  0
   20.2216   -6.1122  -15.8185 C   0  0  0  0  0  0  0  0  0  0  0  0
   20.0541   -5.1351  -16.8086 O   0  0  0  0  0  0  0  0  0  0  0  0
   21.2330   -5.9692  -15.0905 O   0  0  0  0  0  0  0  0  0  0  0  0
  2  3  1  0
  2  1  1  1
  4  2  1  0
  5  4  2  0
  7  6  1  6
  7  9  1  0
  8  7  1  0
  9 11  1  0
  9 10  1  6
 10  4  1  0
 11 13  1  0
 12 11  2  0
 13 14  1  0
 14 15  1  1
 14 21  1  0
 16 15  1  0
 17 16  2  0
 18 17  1  0
 19 18  1  0
 19 20  2  0
 20 16  1  0
 21 23  2  0
 21 22  1  0
M  END
$$$$
