ATH.pdb
     RDKit          3D

 23 23  0  0  1  0  0  0  0  0999 V2000
   12.6059  -13.1084  -12.9130 C   0  0  0  0  0  0  0  0  0  0  0  0
   12.1929  -12.1474  -14.0306 C   0  0  2  0  0  0  0  0  0  0  0  0
   11.1665  -12.8301  -14.7890 N   0  0  0  0  0  0  0  0  0  0  0  0
   13.3547  -11.9053  -14.9112 C   0  0  0  0  0  0  0  0  0  0  0  0
   13.8348  -12.8649  -15.5577 O   0  0  0  0  0  0  0  0  0  0  0  0
   13.6326   -9.5963  -17.8783 C   0  0  0  0  0  0  0  0  0  0  0  0
   14.6957   -9.2009  -16.9029 C   0  0  1  0  0  0  0  0  0  0  0  0
   14.2521   -8.0923  -16.1979 O   0  0  0  0  0  0  0  0  0  0  0  0
   15.0482  -10.3525  -15.9514 C   0  0  2  0  0  0  0  0  0  0  0  0
   13.9599  -10.6293  -15.0633 N   0  0  0  0  0  0  0  0  0  0  0  0
   16.2703   -9.9031  -15.1927 C   0  0  0  0  0  0  0  0  0  0  0  0
   16.1636   -9.3291  -14.0682 O   0  0  0  0  0  0  0  0  0  0  0  0
   17.5728  -10.1120  -15.7200 N   0  0  0  0  0  0  0  0  0  0  0  0
   18.7721   -9.7350  -14.9502 C   0  0  1  0  0  0  0  0  0  0  0  0
   19.9354  -10.3991  -15.6438 C   0  0  0  0  0  0  0  0  0  0  0  0
   21.1941  -10.1123  -14.9637 C   0  0  0  0  0  0  0  0  0  0  0  0
   21.3416   -9.6760  -13.6757 C   0  0  0  0  0  0  0  0  0  0  0  0
   22.6448   -9.5198  -13.3939 N   0  0  0  0  0  0  0  0  0  0  0  0
   23.3095   -9.8589  -14.5073 C   0  0  0  0  0  0  0  0  0  0  0  0
   22.4317  -10.2230  -15.4737 N   0  0  0  0  0  0  0  0  0  0  0  0
   18.9751   -8.2640  -15.0300 C   0  0  0  0  0  0  0  0  0  0  0  0
   19.5498   -7.5479  -13.9717 O   0  0  0  0  0  0  0  0  0  0  0  0
   18.6527   -7.5772  -16.0288 O   0  0  0  0  0  0  0  0  0  0  0  0
  2  3  1  0
  2  1  1  1
  4  2  1  0
  5  4  2  0
  7  6  1  6
  7  9  1  0
  8  7  1  0
  9 11  1  0
  9 10  1  1
 10  4  1  0
 11 13  1  0
 12 11  2  0
 13 14  1  0
 14 15  1  6
 14 21  1  0
 16 15  1  0
 17 16  2  0
 18 17  1  0
 19 18  1  0
 19 20  2  0
 20 16  1  0
 21 23  2  0
 21 22  1  0
M  END
$$$$
