ATH.pdb
     RDKit          3D

 23 23  0  0  1  0  0  0  0  0999 V2000
   22.0119  -12.3276  -20.4177 C   0  0  0  0  0  0  0  0  0  0  0  0
   22.4011  -12.8042  -19.0161 C   0  0  2  0  0  0  0  0  0  0  0  0
   21.8262  -14.1240  -18.8661 N   0  0  0  0  0  0  0  0  0  0  0  0
   21.7933  -11.9029  -18.0150 C   0  0  0  0  0  0  0  0  0  0  0  0
   20.5658  -11.9957  -17.7829 O   0  0  0  0  0  0  0  0  0  0  0  0
   22.7691  -11.2666  -14.3060 C   0  0  0  0  0  0  0  0  0  0  0  0
   22.8309   -9.9791  -15.0653 C   0  0  1  0  0  0  0  0  0  0  0  0
   24.1571   -9.7157  -15.3726 O   0  0  0  0  0  0  0  0  0  0  0  0
   21.9716  -10.0292  -16.3362 C   0  0  2  0  0  0  0  0  0  0  0  0
   22.5362  -10.9286  -17.2964 N   0  0  0  0  0  0  0  0  0  0  0  0
   21.9341   -8.6189  -16.8662 C   0  0  0  0  0  0  0  0  0  0  0  0
   22.7535   -8.2351  -17.7531 O   0  0  0  0  0  0  0  0  0  0  0  0
   20.9786   -7.6847  -16.3841 N   0  0  0  0  0  0  0  0  0  0  0  0
   20.9593   -6.2960  -16.8785 C   0  0  1  0  0  0  0  0  0  0  0  0
   19.9102   -6.2564  -17.9616 C   0  0  0  0  0  0  0  0  0  0  0  0
   19.7544   -4.9099  -18.5019 C   0  0  0  0  0  0  0  0  0  0  0  0
   18.5996   -4.1777  -18.5407 C   0  0  0  0  0  0  0  0  0  0  0  0
   18.8357   -2.9845  -19.1088 N   0  0  0  0  0  0  0  0  0  0  0  0
   20.1383   -2.9735  -19.4239 C   0  0  0  0  0  0  0  0  0  0  0  0
   20.7098   -4.1465  -19.0570 N   0  0  0  0  0  0  0  0  0  0  0  0
   20.5221   -5.3836  -15.7886 C   0  0  0  0  0  0  0  0  0  0  0  0
   20.8706   -4.0266  -15.7889 O   0  0  0  0  0  0  0  0  0  0  0  0
   19.8260   -5.7577  -14.8145 O   0  0  0  0  0  0  0  0  0  0  0  0
  2  3  1  0
  2  1  1  6
  4  2  1  0
  5  4  2  0
  7  6  1  6
  7  9  1  0
  8  7  1  0
  9 11  1  0
  9 10  1  6
 10  4  1  0
 11 13  1  0
 12 11  2  0
 13 14  1  0
 14 15  1  6
 14 21  1  0
 16 15  1  0
 17 16  2  0
 18 17  1  0
 19 18  1  0
 19 20  2  0
 20 16  1  0
 21 23  2  0
 21 22  1  0
M  END
$$$$
