ATH.pdb
     RDKit          3D

 23 23  0  0  1  0  0  0  0  0999 V2000
   11.9497  -12.3533  -11.1476 C   0  0  0  0  0  0  0  0  0  0  0  0
   12.9314  -12.8374  -12.2176 C   0  0  2  0  0  0  0  0  0  0  0  0
   13.0882  -14.2605  -12.0052 N   0  0  0  0  0  0  0  0  0  0  0  0
   14.2369  -12.1774  -12.0073 C   0  0  0  0  0  0  0  0  0  0  0  0
   14.9650  -12.5627  -11.0636 O   0  0  0  0  0  0  0  0  0  0  0  0
   17.2035  -12.1809  -14.1245 C   0  0  0  0  0  0  0  0  0  0  0  0
   16.8457  -10.7383  -13.9536 C   0  0  1  0  0  0  0  0  0  0  0  0
   16.1688  -10.3181  -15.0884 O   0  0  0  0  0  0  0  0  0  0  0  0
   16.0005  -10.5099  -12.6929 C   0  0  2  0  0  0  0  0  0  0  0  0
   14.7121  -11.1196  -12.8275 N   0  0  0  0  0  0  0  0  0  0  0  0
   15.8830   -9.0154  -12.5387 C   0  0  0  0  0  0  0  0  0  0  0  0
   15.0369   -8.3561  -13.2131 O   0  0  0  0  0  0  0  0  0  0  0  0
   16.7187   -8.3086  -11.6329 N   0  0  0  0  0  0  0  0  0  0  0  0
   16.6396   -6.8413  -11.5155 C   0  0  1  0  0  0  0  0  0  0  0  0
   17.1138   -6.5110  -10.1221 C   0  0  0  0  0  0  0  0  0  0  0  0
   16.0748   -6.7712   -9.1312 C   0  0  0  0  0  0  0  0  0  0  0  0
   14.8005   -7.2005   -9.3824 C   0  0  0  0  0  0  0  0  0  0  0  0
   14.1277   -7.3305   -8.2281 N   0  0  0  0  0  0  0  0  0  0  0  0
   14.9834   -6.9820   -7.2572 C   0  0  0  0  0  0  0  0  0  0  0  0
   16.1774   -6.6381   -7.7987 N   0  0  0  0  0  0  0  0  0  0  0  0
   17.5825   -6.2115  -12.4776 C   0  0  0  0  0  0  0  0  0  0  0  0
   17.3898   -4.9022  -12.9377 O   0  0  0  0  0  0  0  0  0  0  0  0
   18.5939   -6.7962  -12.9341 O   0  0  0  0  0  0  0  0  0  0  0  0
  2  3  1  0
  2  1  1  1
  4  2  1  0
  5  4  2  0
  7  6  1  6
  7  9  1  0
  8  7  1  0
  9 11  1  0
  9 10  1  6
 10  4  1  0
 11 13  1  0
 12 11  2  0
 13 14  1  0
 14 15  1  1
 14 21  1  0
 16 15  1  0
 17 16  2  0
 18 17  1  0
 19 18  1  0
 19 20  2  0
 20 16  1  0
 21 23  2  0
 21 22  1  0
M  END
$$$$
