ATH.pdb
     RDKit          3D

 23 23  0  0  1  0  0  0  0  0999 V2000
   21.7630  -19.3572  -17.2019 C   0  0  0  0  0  0  0  0  0  0  0  0
   23.1183  -18.9263  -16.6358 C   0  0  2  0  0  0  0  0  0  0  0  0
   23.5214  -19.9709  -15.7186 N   0  0  0  0  0  0  0  0  0  0  0  0
   22.9464  -17.6683  -15.8797 C   0  0  0  0  0  0  0  0  0  0  0  0
   22.2605  -17.6807  -14.8316 O   0  0  0  0  0  0  0  0  0  0  0  0
   25.8080  -15.3346  -14.6247 C   0  0  0  0  0  0  0  0  0  0  0  0
   24.8448  -14.5528  -15.4610 C   0  0  1  0  0  0  0  0  0  0  0  0
   25.3823  -14.4125  -16.7315 O   0  0  0  0  0  0  0  0  0  0  0  0
   23.4672  -15.2271  -15.5182 C   0  0  2  0  0  0  0  0  0  0  0  0
   23.5242  -16.4353  -16.2842 N   0  0  0  0  0  0  0  0  0  0  0  0
   22.5407  -14.2222  -16.1528 C   0  0  0  0  0  0  0  0  0  0  0  0
   22.4942  -14.0840  -17.4114 O   0  0  0  0  0  0  0  0  0  0  0  0
   21.6960  -13.4047  -15.3550 N   0  0  0  0  0  0  0  0  0  0  0  0
   20.7395  -12.4699  -15.9750 C   0  0  1  0  0  0  0  0  0  0  0  0
   19.5128  -12.4896  -15.0974 C   0  0  0  0  0  0  0  0  0  0  0  0
   18.4787  -11.5962  -15.6089 C   0  0  0  0  0  0  0  0  0  0  0  0
   18.4528  -11.0037  -16.8416 C   0  0  0  0  0  0  0  0  0  0  0  0
   17.3489  -10.2492  -16.9613 N   0  0  0  0  0  0  0  0  0  0  0  0
   16.6868  -10.3720  -15.8024 C   0  0  0  0  0  0  0  0  0  0  0  0
   17.3692  -11.1937  -14.9681 N   0  0  0  0  0  0  0  0  0  0  0  0
   21.2973  -11.0917  -15.9457 C   0  0  0  0  0  0  0  0  0  0  0  0
   20.9270  -10.1339  -16.8988 O   0  0  0  0  0  0  0  0  0  0  0  0
   22.1203  -10.6997  -15.0841 O   0  0  0  0  0  0  0  0  0  0  0  0
  2  3  1  0
  2  1  1  1
  4  2  1  0
  5  4  2  0
  7  6  1  1
  7  9  1  0
  8  7  1  0
  9 11  1  0
  9 10  1  6
 10  4  1  0
 11 13  1  0
 12 11  2  0
 13 14  1  0
 14 15  1  1
 14 21  1  0
 16 15  1  0
 17 16  2  0
 18 17  1  0
 19 18  1  0
 19 20  2  0
 20 16  1  0
 21 23  2  0
 21 22  1  0
M  END
$$$$
