ATH.pdb
     RDKit          3D

 23 23  0  0  1  0  0  0  0  0999 V2000
   18.0177  -14.3953  -15.9116 C   0  0  0  0  0  0  0  0  0  0  0  0
   17.7551  -13.3583  -17.0066 C   0  0  2  0  0  0  0  0  0  0  0  0
   17.7488  -14.0870  -18.2572 N   0  0  0  0  0  0  0  0  0  0  0  0
   18.8684  -12.3867  -17.0266 C   0  0  0  0  0  0  0  0  0  0  0  0
   20.0343  -12.7976  -16.8243 O   0  0  0  0  0  0  0  0  0  0  0  0
   18.7355   -8.9283  -19.2636 C   0  0  0  0  0  0  0  0  0  0  0  0
   19.9885   -9.4670  -18.6486 C   0  0  1  0  0  0  0  0  0  0  0  0
   20.9311   -8.4506  -18.6147 O   0  0  0  0  0  0  0  0  0  0  0  0
   19.7337  -10.0276  -17.2426 C   0  0  2  0  0  0  0  0  0  0  0  0
   18.6823  -10.9990  -17.2656 N   0  0  0  0  0  0  0  0  0  0  0  0
   19.3641   -8.8441  -16.3860 C   0  0  0  0  0  0  0  0  0  0  0  0
   18.1996   -8.3468  -16.4306 O   0  0  0  0  0  0  0  0  0  0  0  0
   20.3129   -8.2566  -15.5068 N   0  0  0  0  0  0  0  0  0  0  0  0
   19.9688   -7.0694  -14.7034 C   0  0  1  0  0  0  0  0  0  0  0  0
   20.3942   -7.3872  -13.2915 C   0  0  0  0  0  0  0  0  0  0  0  0
   19.4189   -8.2413  -12.6219 C   0  0  0  0  0  0  0  0  0  0  0  0
   18.2986   -8.7909  -13.1823 C   0  0  0  0  0  0  0  0  0  0  0  0
   17.6405   -9.5181  -12.2657 N   0  0  0  0  0  0  0  0  0  0  0  0
   18.3514   -9.4214  -11.1336 C   0  0  0  0  0  0  0  0  0  0  0  0
   19.4413   -8.6427  -11.3404 N   0  0  0  0  0  0  0  0  0  0  0  0
   20.7673   -5.9037  -15.1671 C   0  0  0  0  0  0  0  0  0  0  0  0
   20.5352   -4.6151  -14.6685 O   0  0  0  0  0  0  0  0  0  0  0  0
   21.6842   -5.9915  -16.0186 O   0  0  0  0  0  0  0  0  0  0  0  0
  2  3  1  0
  2  1  1  1
  4  2  1  0
  5  4  2  0
  7  6  1  1
  7  9  1  0
  8  7  1  0
  9 11  1  0
  9 10  1  6
 10  4  1  0
 11 13  1  0
 12 11  2  0
 13 14  1  0
 14 15  1  1
 14 21  1  0
 16 15  1  0
 17 16  2  0
 18 17  1  0
 19 18  1  0
 19 20  2  0
 20 16  1  0
 21 23  2  0
 21 22  1  0
M  END
$$$$
