ATH.pdb
     RDKit          3D

 23 23  0  0  1  0  0  0  0  0999 V2000
   27.5719  -18.9571  -18.6460 C   0  0  0  0  0  0  0  0  0  0  0  0
   26.0577  -18.8139  -18.8186 C   0  0  2  0  0  0  0  0  0  0  0  0
   25.8588  -17.6844  -19.7016 N   0  0  0  0  0  0  0  0  0  0  0  0
   25.4506  -18.5062  -17.5069 C   0  0  0  0  0  0  0  0  0  0  0  0
   26.1513  -17.9479  -16.6314 O   0  0  0  0  0  0  0  0  0  0  0  0
   23.0018  -16.0639  -16.5779 C   0  0  0  0  0  0  0  0  0  0  0  0
   22.3912  -17.3760  -16.1989 C   0  0  1  0  0  0  0  0  0  0  0  0
   21.5198  -17.7604  -17.2066 O   0  0  0  0  0  0  0  0  0  0  0  0
   23.4610  -18.4501  -15.9579 C   0  0  2  0  0  0  0  0  0  0  0  0
   24.1017  -18.8137  -17.1855 N   0  0  0  0  0  0  0  0  0  0  0  0
   22.7383  -19.6250  -15.3510 C   0  0  0  0  0  0  0  0  0  0  0  0
   22.4060  -20.6213  -16.0597 O   0  0  0  0  0  0  0  0  0  0  0  0
   22.4118  -19.6443  -13.9684 N   0  0  0  0  0  0  0  0  0  0  0  0
   21.7252  -20.8023  -13.3676 C   0  0  1  0  0  0  0  0  0  0  0  0
   22.0117  -20.7318  -11.8882 C   0  0  0  0  0  0  0  0  0  0  0  0
   23.4068  -21.0488  -11.6011 C   0  0  0  0  0  0  0  0  0  0  0  0
   24.2737  -21.7188  -12.4201 C   0  0  0  0  0  0  0  0  0  0  0  0
   25.4722  -21.8258  -11.8248 N   0  0  0  0  0  0  0  0  0  0  0  0
   25.3516  -21.2220  -10.6343 C   0  0  0  0  0  0  0  0  0  0  0  0
   24.0922  -20.7431  -10.4873 N   0  0  0  0  0  0  0  0  0  0  0  0
   20.2563  -20.6638  -13.5531 C   0  0  0  0  0  0  0  0  0  0  0  0
   19.4047  -21.7746  -13.4912 O   0  0  0  0  0  0  0  0  0  0  0  0
   19.6901  -19.5663  -13.7731 O   0  0  0  0  0  0  0  0  0  0  0  0
  2  3  1  0
  2  1  1  1
  4  2  1  0
  5  4  2  0
  7  6  1  6
  7  9  1  0
  8  7  1  0
  9 11  1  0
  9 10  1  6
 10  4  1  0
 11 13  1  0
 12 11  2  0
 13 14  1  0
 14 15  1  1
 14 21  1  0
 16 15  1  0
 17 16  2  0
 18 17  1  0
 19 18  1  0
 19 20  2  0
 20 16  1  0
 21 23  2  0
 21 22  1  0
M  END
$$$$
