ATH.pdb
     RDKit          3D

 23 23  0  0  1  0  0  0  0  0999 V2000
   19.8808  -14.2121  -17.3469 C   0  0  0  0  0  0  0  0  0  0  0  0
   20.5757  -13.6211  -18.5761 C   0  0  2  0  0  0  0  0  0  0  0  0
   21.5367  -14.6126  -19.0102 N   0  0  0  0  0  0  0  0  0  0  0  0
   21.3011  -12.3970  -18.1771 C   0  0  0  0  0  0  0  0  0  0  0  0
   22.3375  -12.5067  -17.4821 O   0  0  0  0  0  0  0  0  0  0  0  0
   23.0206  -10.0015  -20.3452 C   0  0  0  0  0  0  0  0  0  0  0  0
   22.0264   -9.1948  -19.5712 C   0  0  1  0  0  0  0  0  0  0  0  0
   20.9229   -8.9680  -20.3796 O   0  0  0  0  0  0  0  0  0  0  0  0
   21.6186   -9.8966  -18.2685 C   0  0  2  0  0  0  0  0  0  0  0  0
   20.8796  -11.0913  -18.5446 N   0  0  0  0  0  0  0  0  0  0  0  0
   20.7817   -8.9014  -17.5068 C   0  0  0  0  0  0  0  0  0  0  0  0
   19.5217   -8.8754  -17.6378 O   0  0  0  0  0  0  0  0  0  0  0  0
   21.3853   -7.9673  -16.6228 N   0  0  0  0  0  0  0  0  0  0  0  0
   20.5810   -6.9315  -15.9495 C   0  0  1  0  0  0  0  0  0  0  0  0
   20.9315   -7.0216  -14.4851 C   0  0  0  0  0  0  0  0  0  0  0  0
   20.1080   -8.0133  -13.8013 C   0  0  0  0  0  0  0  0  0  0  0  0
   19.1811   -8.8378  -14.3778 C   0  0  0  0  0  0  0  0  0  0  0  0
   18.6187   -9.6169  -13.4403 N   0  0  0  0  0  0  0  0  0  0  0  0
   19.1957   -9.2774  -12.2792 C   0  0  0  0  0  0  0  0  0  0  0  0
   20.1082   -8.2974  -12.4886 N   0  0  0  0  0  0  0  0  0  0  0  0
   20.9920   -5.5867  -16.4332 C   0  0  0  0  0  0  0  0  0  0  0  0
   22.2708   -5.0768  -16.1732 O   0  0  0  0  0  0  0  0  0  0  0  0
   20.2384   -4.8319  -17.0934 O   0  0  0  0  0  0  0  0  0  0  0  0
  2  3  1  0
  2  1  1  1
  4  2  1  0
  5  4  2  0
  7  6  1  6
  7  9  1  0
  8  7  1  0
  9 11  1  0
  9 10  1  6
 10  4  1  0
 11 13  1  0
 12 11  2  0
 13 14  1  0
 14 15  1  1
 14 21  1  0
 16 15  1  0
 17 16  2  0
 18 17  1  0
 19 18  1  0
 19 20  2  0
 20 16  1  0
 21 23  2  0
 21 22  1  0
M  END
$$$$
