ATH.pdb
     RDKit          3D

 23 23  0  0  1  0  0  0  0  0999 V2000
   19.9882  -13.5859  -19.9922 C   0  0  0  0  0  0  0  0  0  0  0  0
   21.2434  -13.9635  -19.2016 C   0  0  2  0  0  0  0  0  0  0  0  0
   21.2088  -15.4031  -19.0559 N   0  0  0  0  0  0  0  0  0  0  0  0
   21.1714  -13.3468  -17.8606 C   0  0  0  0  0  0  0  0  0  0  0  0
   20.3093  -13.7584  -17.0503 O   0  0  0  0  0  0  0  0  0  0  0  0
   23.9100  -12.9201  -15.1877 C   0  0  0  0  0  0  0  0  0  0  0  0
   23.3635  -11.5687  -15.5245 C   0  0  1  0  0  0  0  0  0  0  0  0
   24.2560  -10.9359  -16.3763 O   0  0  0  0  0  0  0  0  0  0  0  0
   21.9697  -11.6636  -16.1603 C   0  0  2  0  0  0  0  0  0  0  0  0
   22.0373  -12.3024  -17.4399 N   0  0  0  0  0  0  0  0  0  0  0  0
   21.4740  -10.2459  -16.2841 C   0  0  0  0  0  0  0  0  0  0  0  0
   21.7664   -9.5401  -17.2949 O   0  0  0  0  0  0  0  0  0  0  0  0
   20.6661   -9.6656  -15.2697 N   0  0  0  0  0  0  0  0  0  0  0  0
   20.1683   -8.2837  -15.3947 C   0  0  1  0  0  0  0  0  0  0  0  0
   18.8269   -8.2626  -14.7050 C   0  0  0  0  0  0  0  0  0  0  0  0
   17.8120   -8.9517  -15.4950 C   0  0  0  0  0  0  0  0  0  0  0  0
   17.7211   -8.9755  -16.8597 C   0  0  0  0  0  0  0  0  0  0  0  0
   16.6605   -9.7089  -17.2330 N   0  0  0  0  0  0  0  0  0  0  0  0
   16.0903  -10.1422  -16.1000 C   0  0  0  0  0  0  0  0  0  0  0  0
   16.7867   -9.6848  -15.0310 N   0  0  0  0  0  0  0  0  0  0  0  0
   21.0716   -7.3587  -14.6599 C   0  0  0  0  0  0  0  0  0  0  0  0
   20.8955   -5.9698  -14.7143 O   0  0  0  0  0  0  0  0  0  0  0  0
   22.0332   -7.7496  -13.9557 O   0  0  0  0  0  0  0  0  0  0  0  0
  2  3  1  0
  2  1  1  6
  4  2  1  0
  5  4  2  0
  7  6  1  6
  7  9  1  0
  8  7  1  0
  9 11  1  0
  9 10  1  6
 10  4  1  0
 11 13  1  0
 12 11  2  0
 13 14  1  0
 14 15  1  1
 14 21  1  0
 16 15  1  0
 17 16  2  0
 18 17  1  0
 19 18  1  0
 19 20  2  0
 20 16  1  0
 21 23  2  0
 21 22  1  0
M  END
$$$$
