ATH.pdb
     RDKit          3D

 23 23  0  0  1  0  0  0  0  0999 V2000
   16.0504  -14.3823  -13.6479 C   0  0  0  0  0  0  0  0  0  0  0  0
   15.9816  -14.1560  -15.1602 C   0  0  2  0  0  0  0  0  0  0  0  0
   16.3096  -15.4261  -15.7720 N   0  0  0  0  0  0  0  0  0  0  0  0
   17.0057  -13.1627  -15.5456 C   0  0  0  0  0  0  0  0  0  0  0  0
   18.1759  -13.5529  -15.7635 O   0  0  0  0  0  0  0  0  0  0  0  0
   16.5519  -10.8060  -18.5338 C   0  0  0  0  0  0  0  0  0  0  0  0
   16.9115   -9.9867  -17.3348 C   0  0  1  0  0  0  0  0  0  0  0  0
   15.7514   -9.4220  -16.8269 O   0  0  0  0  0  0  0  0  0  0  0  0
   17.6265  -10.8274  -16.2680 C   0  0  2  0  0  0  0  0  0  0  0  0
   16.7284  -11.7764  -15.6827 N   0  0  0  0  0  0  0  0  0  0  0  0
   18.1315   -9.8484  -15.2396 C   0  0  0  0  0  0  0  0  0  0  0  0
   17.4703   -9.6139  -14.1845 O   0  0  0  0  0  0  0  0  0  0  0  0
   19.3621   -9.1639  -15.4280 N   0  0  0  0  0  0  0  0  0  0  0  0
   19.8782   -8.2363  -14.4051 C   0  0  1  0  0  0  0  0  0  0  0  0
   21.2992   -8.6652  -14.1361 C   0  0  0  0  0  0  0  0  0  0  0  0
   22.0633   -8.7796  -15.3738 C   0  0  0  0  0  0  0  0  0  0  0  0
   21.8331   -9.6622  -16.3932 C   0  0  0  0  0  0  0  0  0  0  0  0
   22.7361   -9.4769  -17.3691 N   0  0  0  0  0  0  0  0  0  0  0  0
   23.5294   -8.4781  -16.9572 C   0  0  0  0  0  0  0  0  0  0  0  0
   23.1267   -8.0443  -15.7380 N   0  0  0  0  0  0  0  0  0  0  0  0
   19.9168   -6.8557  -14.9564 C   0  0  0  0  0  0  0  0  0  0  0  0
   20.2654   -5.7596  -14.1564 O   0  0  0  0  0  0  0  0  0  0  0  0
   19.6459   -6.5828  -16.1504 O   0  0  0  0  0  0  0  0  0  0  0  0
  2  3  1  0
  2  1  1  1
  4  2  1  0
  5  4  2  0
  7  6  1  6
  7  9  1  0
  8  7  1  0
  9 11  1  0
  9 10  1  1
 10  4  1  0
 11 13  1  0
 12 11  2  0
 13 14  1  0
 14 15  1  6
 14 21  1  0
 16 15  1  0
 17 16  2  0
 18 17  1  0
 19 18  1  0
 19 20  2  0
 20 16  1  0
 21 23  2  0
 21 22  1  0
M  END
$$$$
