YNE.pdb
     RDKit          3D

 30 30  0  0  1  0  0  0  0  0999 V2000
    5.9052  -11.0377   28.3080 O   0  0  0  0  0  0  0  0  0  0  0  0
    6.4252  -11.9795   27.4315 C   0  0  0  0  0  0  0  0  0  0  0  0
    7.1889  -11.6359   26.3384 C   0  0  0  0  0  0  0  0  0  0  0  0
    7.7018  -12.5913   25.4712 C   0  0  0  0  0  0  0  0  0  0  0  0
    7.4656  -13.9347   25.6704 C   0  0  0  0  0  0  0  0  0  0  0  0
    8.0041  -14.9703   24.7594 C   0  0  0  0  0  0  0  0  0  0  0  0
    6.9953  -15.3587   23.6690 C   0  0  2  0  0  0  0  0  0  0  0  0
    6.4065  -16.6581   24.0291 N   0  0  0  0  0  0  0  0  0  0  0  0
    7.8311  -15.6217   22.4636 C   0  0  0  0  0  0  0  0  0  0  0  0
    8.0049  -16.8110   22.1416 O   0  0  0  0  0  0  0  0  0  0  0  0
    6.6981  -14.2794   26.7691 C   0  0  0  0  0  0  0  0  0  0  0  0
    6.1879  -13.3231   27.6324 C   0  0  0  0  0  0  0  0  0  0  0  0
   10.4420  -13.0168   17.6527 N   0  0  0  0  0  0  0  0  0  0  0  0
    9.2819  -13.6460   18.1464 C   0  0  0  0  0  0  0  0  0  0  0  0
    8.6375  -14.3519   17.3063 O   0  0  0  0  0  0  0  0  0  0  0  0
    8.8826  -13.4683   19.5497 C   0  0  0  0  0  0  0  0  0  0  0  0
    8.8880  -14.7583   20.3315 C   0  0  2  0  0  0  0  0  0  0  0  0
    8.4239  -14.5915   21.6841 N   0  0  0  0  0  0  0  0  0  0  0  0
   10.2211  -15.3944   20.2519 C   0  0  0  0  0  0  0  0  0  0  0  0
   10.8130  -15.6698   19.1836 O   0  0  0  0  0  0  0  0  0  0  0  0
   10.8785  -15.7168   21.4655 N   0  0  0  0  0  0  0  0  0  0  0  0
   12.1409  -16.4444   21.4951 C   0  0  1  0  0  0  0  0  0  0  0  0
   13.2554  -15.4297   21.3986 C   0  0  0  0  0  0  0  0  0  0  0  0
   13.5156  -15.2004   19.9075 C   0  0  0  0  0  0  0  0  0  0  0  0
   14.8001  -14.4605   19.7845 C   0  0  0  0  0  0  0  0  0  0  0  0
   15.4836  -14.1549   20.7934 O   0  0  0  0  0  0  0  0  0  0  0  0
   12.2446  -17.0760   22.8333 C   0  0  0  0  0  0  0  0  0  0  0  0
   11.3432  -16.8754   23.6804 O   0  0  0  0  0  0  0  0  0  0  0  0
   15.2863  -14.0826   18.5418 O   0  0  0  0  0  0  0  0  0  0  0  0
   13.3074  -17.8839   23.1834 O   0  0  0  0  0  0  0  0  0  0  0  0
  2  1  1  0
  3  2  2  0
  4  3  1  0
  5  4  2  0
  5 11  1  0
  6  5  1  0
  7  6  1  0
  7  8  1  1
  9  7  1  0
  9 18  1  0
 10  9  2  0
 11 12  2  0
 12  2  1  0
 13 14  1  0
 14 15  2  0
 16 14  1  0
 17 16  1  1
 17 18  1  0
 19 17  1  0
 20 19  2  0
 21 19  1  0
 22 21  1  0
 22 27  1  0
 22 23  1  1
 24 23  1  0
 25 24  1  0
 26 25  2  0
 27 28  2  0
 27 30  1  0
 29 25  1  0
M  END
$$$$
