YNE.pdb
     RDKit          3D

 30 30  0  0  1  0  0  0  0  0999 V2000
    7.3185  -16.2230   14.0586 O   0  0  0  0  0  0  0  0  0  0  0  0
    7.6588  -15.7709   15.3256 C   0  0  0  0  0  0  0  0  0  0  0  0
    8.1236  -14.4961   15.5600 C   0  0  0  0  0  0  0  0  0  0  0  0
    8.4596  -14.0596   16.8345 C   0  0  0  0  0  0  0  0  0  0  0  0
    8.3408  -14.8915   17.9272 C   0  0  0  0  0  0  0  0  0  0  0  0
    8.6916  -14.4463   19.2951 C   0  0  0  0  0  0  0  0  0  0  0  0
    7.6297  -13.5069   19.8847 C   0  0  2  0  0  0  0  0  0  0  0  0
    7.7367  -12.2070   19.2037 N   0  0  0  0  0  0  0  0  0  0  0  0
    8.0833  -13.2613   21.2828 C   0  0  0  0  0  0  0  0  0  0  0  0
    8.2877  -12.0795   21.6142 O   0  0  0  0  0  0  0  0  0  0  0  0
    7.8735  -16.1725   17.6911 C   0  0  0  0  0  0  0  0  0  0  0  0
    7.5392  -16.6046   16.4177 C   0  0  0  0  0  0  0  0  0  0  0  0
    5.7474  -12.6636   26.1471 N   0  0  0  0  0  0  0  0  0  0  0  0
    6.9057  -13.2055   25.5555 C   0  0  0  0  0  0  0  0  0  0  0  0
    7.8469  -13.5039   26.3584 O   0  0  0  0  0  0  0  0  0  0  0  0
    6.9750  -13.3951   24.0997 C   0  0  0  0  0  0  0  0  0  0  0  0
    8.2205  -14.1231   23.6592 C   0  0  2  0  0  0  0  0  0  0  0  0
    8.2867  -14.2997   22.2319 N   0  0  0  0  0  0  0  0  0  0  0  0
    8.3573  -15.3926   24.4059 C   0  0  0  0  0  0  0  0  0  0  0  0
    7.4005  -16.1337   24.7263 O   0  0  0  0  0  0  0  0  0  0  0  0
    9.6589  -15.8034   24.7879 N   0  0  0  0  0  0  0  0  0  0  0  0
    9.9588  -17.1779   25.1686 C   0  0  1  0  0  0  0  0  0  0  0  0
   11.4537  -17.3657   25.0616 C   0  0  0  0  0  0  0  0  0  0  0  0
   11.7400  -18.8302   25.4035 C   0  0  0  0  0  0  0  0  0  0  0  0
   13.2023  -19.0510   25.2435 C   0  0  0  0  0  0  0  0  0  0  0  0
   13.7194  -20.1840   25.4088 O   0  0  0  0  0  0  0  0  0  0  0  0
    9.6063  -17.3160   26.6028 C   0  0  0  0  0  0  0  0  0  0  0  0
    9.6725  -18.4427   27.1474 O   0  0  0  0  0  0  0  0  0  0  0  0
   14.0460  -18.0040   24.9039 O   0  0  0  0  0  0  0  0  0  0  0  0
    9.2040  -16.2393   27.3669 O   0  0  0  0  0  0  0  0  0  0  0  0
  2  1  1  0
  3  2  2  0
  4  3  1  0
  5  4  2  0
  5 11  1  0
  6  5  1  0
  7  6  1  0
  7  8  1  6
  9  7  1  0
  9 18  1  0
 10  9  2  0
 11 12  2  0
 12  2  1  0
 13 14  1  0
 14 15  2  0
 16 14  1  0
 17 16  1  6
 17 18  1  0
 19 17  1  0
 20 19  2  0
 21 19  1  0
 22 21  1  0
 22 27  1  0
 22 23  1  1
 24 23  1  0
 25 24  1  0
 26 25  2  0
 27 28  2  0
 27 30  1  0
 29 25  1  0
M  END
$$$$
