YNE.pdb
     RDKit          3D

 30 30  0  0  1  0  0  0  0  0999 V2000
    7.7384  -12.9956   16.5894 O   0  0  0  0  0  0  0  0  0  0  0  0
    7.8343  -13.4525   17.8962 C   0  0  0  0  0  0  0  0  0  0  0  0
    7.9347  -14.7894   18.2107 C   0  0  0  0  0  0  0  0  0  0  0  0
    8.0301  -15.2298   19.5240 C   0  0  0  0  0  0  0  0  0  0  0  0
    8.0281  -14.3393   20.5762 C   0  0  0  0  0  0  0  0  0  0  0  0
    8.1306  -14.7867   21.9840 C   0  0  0  0  0  0  0  0  0  0  0  0
    6.9109  -15.6136   22.4154 C   0  0  2  0  0  0  0  0  0  0  0  0
    5.7802  -14.6940   22.6176 N   0  0  0  0  0  0  0  0  0  0  0  0
    7.2619  -16.1161   23.7737 C   0  0  0  0  0  0  0  0  0  0  0  0
    7.0469  -15.3546   24.7340 O   0  0  0  0  0  0  0  0  0  0  0  0
    7.9272  -12.9959   20.2596 C   0  0  0  0  0  0  0  0  0  0  0  0
    7.8322  -12.5602   18.9476 C   0  0  0  0  0  0  0  0  0  0  0  0
    7.1460  -20.3959   27.8297 N   0  0  0  0  0  0  0  0  0  0  0  0
    7.5688  -19.1468   27.3333 C   0  0  0  0  0  0  0  0  0  0  0  0
    8.2884  -18.4548   28.1224 O   0  0  0  0  0  0  0  0  0  0  0  0
    7.1781  -18.7148   25.9838 C   0  0  0  0  0  0  0  0  0  0  0  0
    8.2360  -17.8834   25.3022 C   0  0  2  0  0  0  0  0  0  0  0  0
    7.8195  -17.4019   24.0109 N   0  0  0  0  0  0  0  0  0  0  0  0
    9.5146  -18.6260   25.2575 C   0  0  0  0  0  0  0  0  0  0  0  0
    9.6433  -19.7907   24.8166 O   0  0  0  0  0  0  0  0  0  0  0  0
   10.6774  -17.9797   25.7462 N   0  0  0  0  0  0  0  0  0  0  0  0
   12.0110  -18.5383   25.5637 C   0  0  1  0  0  0  0  0  0  0  0  0
   12.8171  -17.5438   24.7622 C   0  0  0  0  0  0  0  0  0  0  0  0
   14.2543  -18.0697   24.7235 C   0  0  0  0  0  0  0  0  0  0  0  0
   15.0639  -17.1060   23.9309 C   0  0  0  0  0  0  0  0  0  0  0  0
   16.2862  -17.2966   23.7115 O   0  0  0  0  0  0  0  0  0  0  0  0
   12.6339  -18.6183   26.9076 C   0  0  0  0  0  0  0  0  0  0  0  0
   12.0651  -18.0752   27.8832 O   0  0  0  0  0  0  0  0  0  0  0  0
   14.4890  -15.9584   23.4056 O   0  0  0  0  0  0  0  0  0  0  0  0
   13.8282  -19.2749   27.1252 O   0  0  0  0  0  0  0  0  0  0  0  0
  2  1  1  0
  3  2  2  0
  4  3  1  0
  5  4  2  0
  5 11  1  0
  6  5  1  0
  7  6  1  0
  7  8  1  1
  9  7  1  0
  9 18  1  0
 10  9  2  0
 11 12  2  0
 12  2  1  0
 13 14  1  0
 14 15  2  0
 16 14  1  0
 17 16  1  6
 17 18  1  0
 19 17  1  0
 20 19  2  0
 21 19  1  0
 22 21  1  0
 22 27  1  0
 22 23  1  6
 24 23  1  0
 25 24  1  0
 26 25  2  0
 27 28  2  0
 27 30  1  0
 29 25  1  0
M  END
$$$$
