YNE.pdb
     RDKit          3D

 30 30  0  0  1  0  0  0  0  0999 V2000
    7.4160  -12.7603   16.2924 O   0  0  0  0  0  0  0  0  0  0  0  0
    7.3531  -13.2269   17.5978 C   0  0  0  0  0  0  0  0  0  0  0  0
    6.7961  -14.4424   17.9267 C   0  0  0  0  0  0  0  0  0  0  0  0
    6.7413  -14.8945   19.2384 C   0  0  0  0  0  0  0  0  0  0  0  0
    7.2467  -14.1385   20.2744 C   0  0  0  0  0  0  0  0  0  0  0  0
    7.2005  -14.6018   21.6800 C   0  0  0  0  0  0  0  0  0  0  0  0
    8.5602  -15.1334   22.1557 C   0  0  2  0  0  0  0  0  0  0  0  0
    9.0977  -16.0207   21.1123 N   0  0  0  0  0  0  0  0  0  0  0  0
    8.2317  -16.0245   23.3042 C   0  0  0  0  0  0  0  0  0  0  0  0
    7.6919  -15.4988   24.2944 O   0  0  0  0  0  0  0  0  0  0  0  0
    7.8065  -12.9170   19.9433 C   0  0  0  0  0  0  0  0  0  0  0  0
    7.8593  -12.4693   18.6330 C   0  0  0  0  0  0  0  0  0  0  0  0
    6.5849  -20.5520   26.0786 N   0  0  0  0  0  0  0  0  0  0  0  0
    7.7905  -20.5001   25.3510 C   0  0  0  0  0  0  0  0  0  0  0  0
    8.7342  -21.2294   25.7949 O   0  0  0  0  0  0  0  0  0  0  0  0
    7.9022  -19.6434   24.1620 C   0  0  0  0  0  0  0  0  0  0  0  0
    8.4122  -18.2596   24.4789 C   0  0  2  0  0  0  0  0  0  0  0  0
    8.5037  -17.4195   23.3132 N   0  0  0  0  0  0  0  0  0  0  0  0
    9.6835  -18.3469   25.2300 C   0  0  0  0  0  0  0  0  0  0  0  0
   10.7799  -18.6886   24.7315 O   0  0  0  0  0  0  0  0  0  0  0  0
    9.6652  -18.0225   26.6096 N   0  0  0  0  0  0  0  0  0  0  0  0
   10.8866  -17.9068   27.3962 C   0  0  1  0  0  0  0  0  0  0  0  0
   11.1196  -16.4389   27.6649 C   0  0  0  0  0  0  0  0  0  0  0  0
   10.1133  -16.0220   28.7406 C   0  0  0  0  0  0  0  0  0  0  0  0
   10.2787  -14.5614   28.9682 C   0  0  0  0  0  0  0  0  0  0  0  0
   11.1090  -13.8826   28.3138 O   0  0  0  0  0  0  0  0  0  0  0  0
   10.6200  -18.5501   28.7059 C   0  0  0  0  0  0  0  0  0  0  0  0
   11.5575  -18.6892   29.5258 O   0  0  0  0  0  0  0  0  0  0  0  0
    9.5147  -13.8991   29.9176 O   0  0  0  0  0  0  0  0  0  0  0  0
    9.3657  -19.0057   29.0583 O   0  0  0  0  0  0  0  0  0  0  0  0
  2  1  1  0
  3  2  2  0
  4  3  1  0
  5  4  2  0
  5 11  1  0
  6  5  1  0
  7  6  1  0
  7  8  1  6
  9  7  1  0
  9 18  1  0
 10  9  2  0
 11 12  2  0
 12  2  1  0
 13 14  1  0
 14 15  2  0
 16 14  1  0
 17 16  1  6
 17 18  1  0
 19 17  1  0
 20 19  2  0
 21 19  1  0
 22 21  1  0
 22 27  1  0
 22 23  1  1
 24 23  1  0
 25 24  1  0
 26 25  2  0
 27 28  2  0
 27 30  1  0
 29 25  1  0
M  END
$$$$
