YNE.pdb
     RDKit          3D

 30 30  0  0  1  0  0  0  0  0999 V2000
   10.3269  -14.9664   31.2231 O   0  0  0  0  0  0  0  0  0  0  0  0
    9.9591  -14.9023   29.8866 C   0  0  0  0  0  0  0  0  0  0  0  0
    9.6223  -13.7211   29.2642 C   0  0  0  0  0  0  0  0  0  0  0  0
    9.2565  -13.6745   27.9256 C   0  0  0  0  0  0  0  0  0  0  0  0
    9.2150  -14.8187   27.1579 C   0  0  0  0  0  0  0  0  0  0  0  0
    8.8296  -14.7918   25.7285 C   0  0  0  0  0  0  0  0  0  0  0  0
    7.6876  -15.7714   25.4218 C   0  0  2  0  0  0  0  0  0  0  0  0
    8.0359  -17.0791   25.9994 N   0  0  0  0  0  0  0  0  0  0  0  0
    7.7454  -15.9616   23.9449 C   0  0  0  0  0  0  0  0  0  0  0  0
    8.1869  -17.0481   23.5291 O   0  0  0  0  0  0  0  0  0  0  0  0
    9.5535  -16.0055   27.7839 C   0  0  0  0  0  0  0  0  0  0  0  0
    9.9181  -16.0480   29.1201 C   0  0  0  0  0  0  0  0  0  0  0  0
    6.6866  -12.8479   18.6718 N   0  0  0  0  0  0  0  0  0  0  0  0
    7.4248  -13.7212   19.4951 C   0  0  0  0  0  0  0  0  0  0  0  0
    8.1640  -14.5596   18.8868 O   0  0  0  0  0  0  0  0  0  0  0  0
    7.3150  -13.6307   20.9580 C   0  0  0  0  0  0  0  0  0  0  0  0
    7.8158  -14.8661   21.6638 C   0  0  2  0  0  0  0  0  0  0  0  0
    7.3252  -14.9739   23.0131 N   0  0  0  0  0  0  0  0  0  0  0  0
    9.2908  -14.9372   21.5775 C   0  0  0  0  0  0  0  0  0  0  0  0
   10.0738  -14.1461   22.1506 O   0  0  0  0  0  0  0  0  0  0  0  0
    9.8628  -15.9698   20.7930 N   0  0  0  0  0  0  0  0  0  0  0  0
   11.3044  -16.1547   20.6848 C   0  0  1  0  0  0  0  0  0  0  0  0
   11.8044  -16.6410   22.0245 C   0  0  0  0  0  0  0  0  0  0  0  0
   13.3256  -16.7682   21.9082 C   0  0  0  0  0  0  0  0  0  0  0  0
   13.8394  -17.2308   23.2251 C   0  0  0  0  0  0  0  0  0  0  0  0
   15.0466  -17.5374   23.3904 O   0  0  0  0  0  0  0  0  0  0  0  0
   11.5276  -17.2538   19.7140 C   0  0  0  0  0  0  0  0  0  0  0  0
   10.5853  -18.0324   19.4379 O   0  0  0  0  0  0  0  0  0  0  0  0
   12.9945  -17.3384   24.3196 O   0  0  0  0  0  0  0  0  0  0  0  0
   12.7465  -17.4527   19.0978 O   0  0  0  0  0  0  0  0  0  0  0  0
  2  1  1  0
  3  2  2  0
  4  3  1  0
  5  4  2  0
  5 11  1  0
  6  5  1  0
  7  6  1  0
  7  8  1  1
  9  7  1  0
  9 18  1  0
 10  9  2  0
 11 12  2  0
 12  2  1  0
 13 14  1  0
 14 15  2  0
 16 14  1  0
 17 16  1  1
 17 18  1  0
 19 17  1  0
 20 19  2  0
 21 19  1  0
 22 21  1  0
 22 27  1  0
 22 23  1  1
 24 23  1  0
 25 24  1  0
 26 25  2  0
 27 28  2  0
 27 30  1  0
 29 25  1  0
M  END
$$$$
