YNE.pdb
     RDKit          3D

 30 30  0  0  1  0  0  0  0  0999 V2000
    4.6404  -10.3469   27.9933 O   0  0  0  0  0  0  0  0  0  0  0  0
    5.4369  -11.1982   27.2407 C   0  0  0  0  0  0  0  0  0  0  0  0
    6.5146  -11.8710   27.7717 C   0  0  0  0  0  0  0  0  0  0  0  0
    7.3015  -12.7195   27.0044 C   0  0  0  0  0  0  0  0  0  0  0  0
    7.0340  -12.9250   25.6678 C   0  0  0  0  0  0  0  0  0  0  0  0
    7.8586  -13.8266   24.8314 C   0  0  0  0  0  0  0  0  0  0  0  0
    7.0206  -14.9396   24.1859 C   0  0  2  0  0  0  0  0  0  0  0  0
    6.7185  -15.9447   25.2172 N   0  0  0  0  0  0  0  0  0  0  0  0
    7.9562  -15.6104   23.2396 C   0  0  0  0  0  0  0  0  0  0  0  0
    8.5177  -16.6477   23.6358 O   0  0  0  0  0  0  0  0  0  0  0  0
    5.9509  -12.2486   25.1347 C   0  0  0  0  0  0  0  0  0  0  0  0
    5.1679  -11.4026   25.9037 C   0  0  0  0  0  0  0  0  0  0  0  0
    7.7380  -13.3299   18.7418 N   0  0  0  0  0  0  0  0  0  0  0  0
    8.1776  -14.6273   19.0721 C   0  0  0  0  0  0  0  0  0  0  0  0
    7.4256  -15.5790   18.6871 O   0  0  0  0  0  0  0  0  0  0  0  0
    9.4315  -14.8183   19.8147 C   0  0  0  0  0  0  0  0  0  0  0  0
    9.2550  -15.6404   21.0670 C   0  0  2  0  0  0  0  0  0  0  0  0
    8.2263  -15.1239   21.9317 N   0  0  0  0  0  0  0  0  0  0  0  0
   10.5555  -15.8081   21.7516 C   0  0  0  0  0  0  0  0  0  0  0  0
   11.1819  -14.8852   22.3202 O   0  0  0  0  0  0  0  0  0  0  0  0
   11.1376  -17.1002   21.7680 N   0  0  0  0  0  0  0  0  0  0  0  0
   12.3240  -17.4074   22.5566 C   0  0  1  0  0  0  0  0  0  0  0  0
   12.0598  -18.6980   23.2955 C   0  0  0  0  0  0  0  0  0  0  0  0
   13.3778  -19.1035   23.9606 C   0  0  0  0  0  0  0  0  0  0  0  0
   13.1226  -20.3412   24.7451 C   0  0  0  0  0  0  0  0  0  0  0  0
   12.5537  -20.3059   25.8647 O   0  0  0  0  0  0  0  0  0  0  0  0
   13.4235  -17.6745   21.5975 C   0  0  0  0  0  0  0  0  0  0  0  0
   13.1517  -18.1152   20.4563 O   0  0  0  0  0  0  0  0  0  0  0  0
   13.5081  -21.5820   24.2601 O   0  0  0  0  0  0  0  0  0  0  0  0
   14.7476  -17.4536   21.9185 O   0  0  0  0  0  0  0  0  0  0  0  0
  2  1  1  0
  3  2  2  0
  4  3  1  0
  5  4  2  0
  5 11  1  0
  6  5  1  0
  7  6  1  0
  7  8  1  1
  9  7  1  0
  9 18  1  0
 10  9  2  0
 11 12  2  0
 12  2  1  0
 13 14  1  0
 14 15  2  0
 16 14  1  0
 17 16  1  6
 17 18  1  0
 19 17  1  0
 20 19  2  0
 21 19  1  0
 22 21  1  0
 22 27  1  0
 22 23  1  6
 24 23  1  0
 25 24  1  0
 26 25  2  0
 27 28  2  0
 27 30  1  0
 29 25  1  0
M  END
$$$$
