YNE.pdb
     RDKit          3D

 30 30  0  0  1  0  0  0  0  0999 V2000
    8.8226  -11.9047   17.5188 O   0  0  0  0  0  0  0  0  0  0  0  0
    8.4418  -12.5374   18.6937 C   0  0  0  0  0  0  0  0  0  0  0  0
    7.4952  -13.5369   18.7266 C   0  0  0  0  0  0  0  0  0  0  0  0
    7.1257  -14.1598   19.9112 C   0  0  0  0  0  0  0  0  0  0  0  0
    7.6960  -13.8002   21.1135 C   0  0  0  0  0  0  0  0  0  0  0  0
    7.3184  -14.4523   22.3881 C   0  0  0  0  0  0  0  0  0  0  0  0
    8.2330  -15.6401   22.7200 C   0  0  2  0  0  0  0  0  0  0  0  0
    8.1348  -16.6165   21.6237 N   0  0  0  0  0  0  0  0  0  0  0  0
    7.5859  -16.2934   23.8928 C   0  0  0  0  0  0  0  0  0  0  0  0
    6.3716  -16.0813   24.0625 O   0  0  0  0  0  0  0  0  0  0  0  0
    8.6473  -12.7957   21.0798 C   0  0  0  0  0  0  0  0  0  0  0  0
    9.0135  -12.1764   19.8956 C   0  0  0  0  0  0  0  0  0  0  0  0
    5.4039  -18.7580   22.6858 N   0  0  0  0  0  0  0  0  0  0  0  0
    5.7192  -18.5824   24.0479 C   0  0  0  0  0  0  0  0  0  0  0  0
    4.8881  -17.8936   24.7218 O   0  0  0  0  0  0  0  0  0  0  0  0
    6.9412  -19.1764   24.6083 C   0  0  0  0  0  0  0  0  0  0  0  0
    7.6919  -18.2336   25.5154 C   0  0  2  0  0  0  0  0  0  0  0  0
    8.2844  -17.1307   24.8045 N   0  0  0  0  0  0  0  0  0  0  0  0
    8.6683  -18.9858   26.3332 C   0  0  0  0  0  0  0  0  0  0  0  0
    8.3815  -19.9669   27.0561 O   0  0  0  0  0  0  0  0  0  0  0  0
   10.0234  -18.5718   26.3003 N   0  0  0  0  0  0  0  0  0  0  0  0
   11.0509  -19.2125   27.1114 C   0  0  1  0  0  0  0  0  0  0  0  0
   12.3938  -18.8040   26.5537 C   0  0  0  0  0  0  0  0  0  0  0  0
   12.2704  -18.8489   25.0284 C   0  0  0  0  0  0  0  0  0  0  0  0
   13.5744  -18.4146   24.4596 C   0  0  0  0  0  0  0  0  0  0  0  0
   14.5237  -18.0454   25.1951 O   0  0  0  0  0  0  0  0  0  0  0  0
   10.9520  -18.6314   28.4726 C   0  0  0  0  0  0  0  0  0  0  0  0
   10.1471  -17.6947   28.6853 O   0  0  0  0  0  0  0  0  0  0  0  0
   13.7835  -18.4044   23.0886 O   0  0  0  0  0  0  0  0  0  0  0  0
   11.7213  -19.0883   29.5235 O   0  0  0  0  0  0  0  0  0  0  0  0
  2  1  1  0
  3  2  2  0
  4  3  1  0
  5  4  2  0
  5 11  1  0
  6  5  1  0
  7  6  1  0
  7  8  1  6
  9  7  1  0
  9 18  1  0
 10  9  2  0
 11 12  2  0
 12  2  1  0
 13 14  1  0
 14 15  2  0
 16 14  1  0
 17 16  1  6
 17 18  1  0
 19 17  1  0
 20 19  2  0
 21 19  1  0
 22 21  1  0
 22 27  1  0
 22 23  1  6
 24 23  1  0
 25 24  1  0
 26 25  2  0
 27 28  2  0
 27 30  1  0
 29 25  1  0
M  END
$$$$
