YNE.pdb
     RDKit          3D

 30 30  0  0  1  0  0  0  0  0999 V2000
    5.6320  -10.6965   28.3020 O   0  0  0  0  0  0  0  0  0  0  0  0
    6.1921  -11.7139   27.5426 C   0  0  0  0  0  0  0  0  0  0  0  0
    5.4381  -12.5549   26.7549 C   0  0  0  0  0  0  0  0  0  0  0  0
    6.0147  -13.5682   26.0008 C   0  0  0  0  0  0  0  0  0  0  0  0
    7.3774  -13.7759   26.0097 C   0  0  0  0  0  0  0  0  0  0  0  0
    8.0135  -14.8490   25.2120 C   0  0  0  0  0  0  0  0  0  0  0  0
    6.9903  -15.6216   24.3671 C   0  0  2  0  0  0  0  0  0  0  0  0
    6.0904  -16.3429   25.2807 N   0  0  0  0  0  0  0  0  0  0  0  0
    7.7909  -16.6763   23.6833 C   0  0  0  0  0  0  0  0  0  0  0  0
    7.6442  -17.8467   24.0794 O   0  0  0  0  0  0  0  0  0  0  0  0
    8.1346  -12.9304   26.8014 C   0  0  0  0  0  0  0  0  0  0  0  0
    7.5556  -11.9203   27.5526 C   0  0  0  0  0  0  0  0  0  0  0  0
    8.1521  -14.9338   19.4786 N   0  0  0  0  0  0  0  0  0  0  0  0
    8.1389  -16.2969   19.8354 C   0  0  0  0  0  0  0  0  0  0  0  0
    7.0206  -16.8901   19.7052 O   0  0  0  0  0  0  0  0  0  0  0  0
    9.3638  -16.9477   20.3214 C   0  0  0  0  0  0  0  0  0  0  0  0
    9.2577  -17.4076   21.7541 C   0  0  2  0  0  0  0  0  0  0  0  0
    8.6947  -16.4050   22.6204 N   0  0  0  0  0  0  0  0  0  0  0  0
   10.5674  -17.9089   22.2246 C   0  0  0  0  0  0  0  0  0  0  0  0
   11.1923  -18.8596   21.7020 O   0  0  0  0  0  0  0  0  0  0  0  0
   11.1606  -17.2733   23.3439 N   0  0  0  0  0  0  0  0  0  0  0  0
   12.3518  -17.8021   23.9960 C   0  0  1  0  0  0  0  0  0  0  0  0
   13.4146  -16.7302   23.9450 C   0  0  0  0  0  0  0  0  0  0  0  0
   13.7966  -16.5572   22.4727 C   0  0  0  0  0  0  0  0  0  0  0  0
   14.9304  -15.5962   22.4129 C   0  0  0  0  0  0  0  0  0  0  0  0
   15.4148  -15.0835   23.4526 O   0  0  0  0  0  0  0  0  0  0  0  0
   12.0087  -18.0044   25.4249 C   0  0  0  0  0  0  0  0  0  0  0  0
   12.8483  -18.5319   26.1911 O   0  0  0  0  0  0  0  0  0  0  0  0
   15.4919  -15.2344   21.1975 O   0  0  0  0  0  0  0  0  0  0  0  0
   10.7871  -17.6297   25.9468 O   0  0  0  0  0  0  0  0  0  0  0  0
  2  1  1  0
  3  2  2  0
  4  3  1  0
  5  4  2  0
  5 11  1  0
  6  5  1  0
  7  6  1  0
  7  8  1  1
  9  7  1  0
  9 18  1  0
 10  9  2  0
 11 12  2  0
 12  2  1  0
 13 14  1  0
 14 15  2  0
 16 14  1  0
 17 16  1  6
 17 18  1  0
 19 17  1  0
 20 19  2  0
 21 19  1  0
 22 21  1  0
 22 27  1  0
 22 23  1  1
 24 23  1  0
 25 24  1  0
 26 25  2  0
 27 28  2  0
 27 30  1  0
 29 25  1  0
M  END
$$$$
