YNE.pdb
     RDKit          3D

 30 30  0  0  1  0  0  0  0  0999 V2000
    7.4620  -12.0158   17.3620 O   0  0  0  0  0  0  0  0  0  0  0  0
    7.4640  -12.6227   18.6100 C   0  0  0  0  0  0  0  0  0  0  0  0
    8.5194  -12.5139   19.4878 C   0  0  0  0  0  0  0  0  0  0  0  0
    8.5051  -13.1276   20.7332 C   0  0  0  0  0  0  0  0  0  0  0  0
    7.4247  -13.8776   21.1457 C   0  0  0  0  0  0  0  0  0  0  0  0
    7.3875  -14.5391   22.4699 C   0  0  0  0  0  0  0  0  0  0  0  0
    7.8382  -16.0050   22.3938 C   0  0  2  0  0  0  0  0  0  0  0  0
    6.8103  -16.7649   21.6652 N   0  0  0  0  0  0  0  0  0  0  0  0
    7.7682  -16.4907   23.8010 C   0  0  0  0  0  0  0  0  0  0  0  0
    6.8156  -16.0893   24.4935 O   0  0  0  0  0  0  0  0  0  0  0  0
    6.3644  -13.9866   20.2632 C   0  0  0  0  0  0  0  0  0  0  0  0
    6.3822  -13.3727   19.0211 C   0  0  0  0  0  0  0  0  0  0  0  0
    8.2089  -18.9179   28.2697 N   0  0  0  0  0  0  0  0  0  0  0  0
    7.1764  -19.1060   27.3294 C   0  0  0  0  0  0  0  0  0  0  0  0
    6.2054  -19.8328   27.7147 O   0  0  0  0  0  0  0  0  0  0  0  0
    7.2606  -18.4819   26.0014 C   0  0  0  0  0  0  0  0  0  0  0  0
    8.6312  -17.9315   25.6951 C   0  0  2  0  0  0  0  0  0  0  0  0
    8.7243  -17.3748   24.3707 N   0  0  0  0  0  0  0  0  0  0  0  0
    9.6621  -18.9574   25.9649 C   0  0  0  0  0  0  0  0  0  0  0  0
    9.5601  -20.1651   25.6511 O   0  0  0  0  0  0  0  0  0  0  0  0
   10.8492  -18.5511   26.6241 N   0  0  0  0  0  0  0  0  0  0  0  0
   12.1726  -18.9174   26.1359 C   0  0  1  0  0  0  0  0  0  0  0  0
   12.6828  -17.7710   25.2951 C   0  0  0  0  0  0  0  0  0  0  0  0
   14.1132  -18.1283   24.8830 C   0  0  0  0  0  0  0  0  0  0  0  0
   14.6130  -17.0374   24.0041 C   0  0  0  0  0  0  0  0  0  0  0  0
   15.1996  -16.0302   24.4730 O   0  0  0  0  0  0  0  0  0  0  0  0
   13.0593  -19.0136   27.3211 C   0  0  0  0  0  0  0  0  0  0  0  0
   12.6986  -18.4956   28.4037 O   0  0  0  0  0  0  0  0  0  0  0  0
   14.4453  -17.0998   22.6288 O   0  0  0  0  0  0  0  0  0  0  0  0
   14.2787  -19.6586   27.2753 O   0  0  0  0  0  0  0  0  0  0  0  0
  2  1  1  0
  3  2  2  0
  4  3  1  0
  5  4  2  0
  5 11  1  0
  6  5  1  0
  7  6  1  0
  7  8  1  6
  9  7  1  0
  9 18  1  0
 10  9  2  0
 11 12  2  0
 12  2  1  0
 13 14  1  0
 14 15  2  0
 16 14  1  0
 17 16  1  6
 17 18  1  0
 19 17  1  0
 20 19  2  0
 21 19  1  0
 22 21  1  0
 22 27  1  0
 22 23  1  6
 24 23  1  0
 25 24  1  0
 26 25  2  0
 27 28  2  0
 27 30  1  0
 29 25  1  0
M  END
$$$$
