YNE.pdb
     RDKit          3D

 30 30  0  0  1  0  0  0  0  0999 V2000
    5.9945  -12.0843   19.3072 O   0  0  0  0  0  0  0  0  0  0  0  0
    7.2418  -12.6681   19.4776 C   0  0  0  0  0  0  0  0  0  0  0  0
    8.2122  -12.6467   18.5008 C   0  0  0  0  0  0  0  0  0  0  0  0
    9.4556  -13.2358   18.6877 C   0  0  0  0  0  0  0  0  0  0  0  0
    9.7725  -13.8719   19.8689 C   0  0  0  0  0  0  0  0  0  0  0  0
   11.0925  -14.5051   20.0903 C   0  0  0  0  0  0  0  0  0  0  0  0
   11.2497  -15.8042   19.2871 C   0  0  2  0  0  0  0  0  0  0  0  0
   10.3572  -16.8173   19.8720 N   0  0  0  0  0  0  0  0  0  0  0  0
   12.6322  -16.2681   19.5941 C   0  0  0  0  0  0  0  0  0  0  0  0
   12.7859  -16.9551   20.6201 O   0  0  0  0  0  0  0  0  0  0  0  0
    8.7969  -13.8931   20.8501 C   0  0  0  0  0  0  0  0  0  0  0  0
    7.5572  -13.3041   20.6599 C   0  0  0  0  0  0  0  0  0  0  0  0
   17.0604  -18.9734   18.1585 N   0  0  0  0  0  0  0  0  0  0  0  0
   17.0385  -17.5839   17.9254 C   0  0  0  0  0  0  0  0  0  0  0  0
   18.1731  -17.0075   17.9212 O   0  0  0  0  0  0  0  0  0  0  0  0
   15.7619  -16.8892   17.7062 C   0  0  0  0  0  0  0  0  0  0  0  0
   15.0809  -16.4892   18.9912 C   0  0  2  0  0  0  0  0  0  0  0  0
   13.7570  -15.9646   18.7798 N   0  0  0  0  0  0  0  0  0  0  0  0
   15.9495  -15.5731   19.7622 C   0  0  0  0  0  0  0  0  0  0  0  0
   15.8988  -14.3239   19.6959 O   0  0  0  0  0  0  0  0  0  0  0  0
   16.9073  -16.1430   20.6377 N   0  0  0  0  0  0  0  0  0  0  0  0
   17.7432  -15.3284   21.5104 C   0  0  1  0  0  0  0  0  0  0  0  0
   17.8087  -16.0169   22.8532 C   0  0  0  0  0  0  0  0  0  0  0  0
   17.0058  -15.1548   23.8308 C   0  0  0  0  0  0  0  0  0  0  0  0
   17.0835  -15.8015   25.1681 C   0  0  0  0  0  0  0  0  0  0  0  0
   16.0539  -16.1983   25.7687 O   0  0  0  0  0  0  0  0  0  0  0  0
   19.1137  -15.3536   20.9433 C   0  0  0  0  0  0  0  0  0  0  0  0
   19.7931  -14.3007   20.9279 O   0  0  0  0  0  0  0  0  0  0  0  0
   18.3053  -15.9877   25.7974 O   0  0  0  0  0  0  0  0  0  0  0  0
   19.6735  -16.5046   20.4268 O   0  0  0  0  0  0  0  0  0  0  0  0
  2  1  1  0
  3  2  2  0
  4  3  1  0
  5  4  2  0
  5 11  1  0
  6  5  1  0
  7  6  1  0
  7  8  1  1
  9  7  1  0
  9 18  1  0
 10  9  2  0
 11 12  2  0
 12  2  1  0
 13 14  1  0
 14 15  2  0
 16 14  1  0
 17 16  1  6
 17 18  1  0
 19 17  1  0
 20 19  2  0
 21 19  1  0
 22 21  1  0
 22 27  1  0
 22 23  1  1
 24 23  1  0
 25 24  1  0
 26 25  2  0
 27 28  2  0
 27 30  1  0
 29 25  1  0
M  END
$$$$
