AQD.pdb
     RDKit          3D

 23 22  0  0  1  0  0  0  0  0999 V2000
    9.4267  -18.9685   16.6570 C   0  0  0  0  0  0  0  0  0  0  0  0
    9.3923  -19.3473   18.1120 C   0  0  2  0  0  0  0  0  0  0  0  0
    8.0452  -19.6946   18.5415 N   0  0  0  0  0  0  0  0  0  0  0  0
    9.8516  -18.2309   18.9954 C   0  0  0  0  0  0  0  0  0  0  0  0
   11.0197  -17.7598   18.9414 O   0  0  0  0  0  0  0  0  0  0  0  0
    6.6622  -13.3690   20.3942 N   0  0  0  0  0  0  0  0  0  0  0  0
    7.7408  -13.1237   21.2727 C   0  0  0  0  0  0  0  0  0  0  0  0
    7.8287  -12.0140   21.8344 O   0  0  0  0  0  0  0  0  0  0  0  0
    8.7368  -14.1898   21.5026 C   0  0  0  0  0  0  0  0  0  0  0  0
    8.3546  -15.3825   20.7033 C   0  0  0  0  0  0  0  0  0  0  0  0
    9.3657  -16.4970   20.7257 C   0  0  2  0  0  0  0  0  0  0  0  0
    8.9695  -17.6363   19.9594 N   0  0  0  0  0  0  0  0  0  0  0  0
    9.7035  -16.8660   22.1431 C   0  0  0  0  0  0  0  0  0  0  0  0
    9.0642  -17.7658   22.7459 O   0  0  0  0  0  0  0  0  0  0  0  0
   10.7463  -16.2243   22.8579 N   0  0  0  0  0  0  0  0  0  0  0  0
   11.1216  -16.7159   24.2102 C   0  0  1  0  0  0  0  0  0  0  0  0
   12.5492  -16.3439   24.4677 C   0  0  0  0  0  0  0  0  0  0  0  0
   13.5439  -16.9182   23.5639 C   0  0  0  0  0  0  0  0  0  0  0  0
   13.6154  -18.1395   23.3526 O   0  0  0  0  0  0  0  0  0  0  0  0
   10.1992  -16.0786   25.1715 C   0  0  0  0  0  0  0  0  0  0  0  0
    9.3893  -15.2021   24.8294 O   0  0  0  0  0  0  0  0  0  0  0  0
   14.4352  -16.0744   22.9224 O   0  0  0  0  0  0  0  0  0  0  0  0
   10.2470  -16.4819   26.5079 O   0  0  0  0  0  0  0  0  0  0  0  0
  2  4  1  0
  2  1  1  6
  2  3  1  0
  4  5  2  0
  6  7  1  0
  7  8  2  0
  7  9  1  0
  9 10  1  0
 11 10  1  1
 11 13  1  0
 12 11  1  0
 12  4  1  0
 13 14  2  0
 13 15  1  0
 15 16  1  0
 16 17  1  1
 17 18  1  0
 18 19  2  0
 18 22  1  0
 20 23  1  0
 20 16  1  0
 21 20  2  0
M  END
$$$$
