AQD.pdb
     RDKit          3D

 23 22  0  0  1  0  0  0  0  0999 V2000
    7.7822  -12.5777   18.9214 C   0  0  0  0  0  0  0  0  0  0  0  0
    8.2923  -13.9779   19.1231 C   0  0  2  0  0  0  0  0  0  0  0  0
    7.2520  -14.9660   18.8751 N   0  0  0  0  0  0  0  0  0  0  0  0
    8.7775  -14.2047   20.5198 C   0  0  0  0  0  0  0  0  0  0  0  0
    9.8557  -13.7143   20.9514 O   0  0  0  0  0  0  0  0  0  0  0  0
    6.7772  -18.1884   25.8894 N   0  0  0  0  0  0  0  0  0  0  0  0
    6.8251  -16.7792   25.8047 C   0  0  0  0  0  0  0  0  0  0  0  0
    5.9395  -16.1048   26.3664 O   0  0  0  0  0  0  0  0  0  0  0  0
    7.9244  -16.1417   25.0520 C   0  0  0  0  0  0  0  0  0  0  0  0
    7.4433  -15.8178   23.6841 C   0  0  0  0  0  0  0  0  0  0  0  0
    8.4933  -15.2359   22.7764 C   0  0  2  0  0  0  0  0  0  0  0  0
    8.0258  -15.0032   21.4462 N   0  0  0  0  0  0  0  0  0  0  0  0
    9.7292  -16.0910   22.7936 C   0  0  0  0  0  0  0  0  0  0  0  0
    9.7401  -17.2213   22.2422 O   0  0  0  0  0  0  0  0  0  0  0  0
   10.9263  -15.6679   23.4248 N   0  0  0  0  0  0  0  0  0  0  0  0
   12.1319  -16.5368   23.3723 C   0  0  1  0  0  0  0  0  0  0  0  0
   13.3394  -15.6604   23.2430 C   0  0  0  0  0  0  0  0  0  0  0  0
   14.6329  -16.3390   23.1936 C   0  0  0  0  0  0  0  0  0  0  0  0
   15.3970  -16.3737   24.1716 O   0  0  0  0  0  0  0  0  0  0  0  0
   12.1491  -17.3257   24.6206 C   0  0  0  0  0  0  0  0  0  0  0  0
   11.4842  -17.0008   25.6175 O   0  0  0  0  0  0  0  0  0  0  0  0
   15.0196  -16.9632   22.0194 O   0  0  0  0  0  0  0  0  0  0  0  0
   12.9426  -18.4739   24.6721 O   0  0  0  0  0  0  0  0  0  0  0  0
  2  4  1  0
  2  1  1  1
  2  3  1  0
  4  5  2  0
  6  7  1  0
  7  8  2  0
  7  9  1  0
  9 10  1  0
 11 10  1  1
 11 13  1  0
 12 11  1  0
 12  4  1  0
 13 14  2  0
 13 15  1  0
 15 16  1  0
 16 17  1  1
 17 18  1  0
 18 19  2  0
 18 22  1  0
 20 23  1  0
 20 16  1  0
 21 20  2  0
M  END
$$$$
