AQD.pdb
     RDKit          3D

 23 22  0  0  1  0  0  0  0  0999 V2000
   11.8450  -19.5080   17.9877 C   0  0  0  0  0  0  0  0  0  0  0  0
   11.6175  -18.0788   17.5788 C   0  0  2  0  0  0  0  0  0  0  0  0
   12.6226  -17.6298   16.6259 N   0  0  0  0  0  0  0  0  0  0  0  0
   11.6801  -17.1430   18.7440 C   0  0  0  0  0  0  0  0  0  0  0  0
   12.7662  -16.6749   19.1805 O   0  0  0  0  0  0  0  0  0  0  0  0
    7.4790  -12.0332   19.7745 N   0  0  0  0  0  0  0  0  0  0  0  0
    7.7170  -13.3698   20.1645 C   0  0  0  0  0  0  0  0  0  0  0  0
    6.8239  -13.9966   20.7678 O   0  0  0  0  0  0  0  0  0  0  0  0
    9.0193  -13.9897   19.8467 C   0  0  0  0  0  0  0  0  0  0  0  0
    9.2635  -15.1050   20.7975 C   0  0  0  0  0  0  0  0  0  0  0  0
   10.5452  -15.8570   20.5592 C   0  0  2  0  0  0  0  0  0  0  0  0
   10.4880  -16.7290   19.4285 N   0  0  0  0  0  0  0  0  0  0  0  0
   10.9623  -16.5846   21.8064 C   0  0  0  0  0  0  0  0  0  0  0  0
   10.5609  -17.7539   22.0366 O   0  0  0  0  0  0  0  0  0  0  0  0
   11.8178  -15.9931   22.7701 N   0  0  0  0  0  0  0  0  0  0  0  0
   12.2413  -16.7798   23.9588 C   0  0  1  0  0  0  0  0  0  0  0  0
   13.6151  -16.3338   24.3544 C   0  0  0  0  0  0  0  0  0  0  0  0
   14.6140  -16.2823   23.2888 C   0  0  0  0  0  0  0  0  0  0  0  0
   14.7438  -17.1993   22.4620 O   0  0  0  0  0  0  0  0  0  0  0  0
   11.2471  -16.5249   25.0206 C   0  0  0  0  0  0  0  0  0  0  0  0
   10.2878  -15.7540   24.8571 O   0  0  0  0  0  0  0  0  0  0  0  0
   15.4424  -15.1763   23.1975 O   0  0  0  0  0  0  0  0  0  0  0  0
   11.3993  -17.1773   26.2462 O   0  0  0  0  0  0  0  0  0  0  0  0
  2  4  1  0
  2  1  1  1
  2  3  1  0
  4  5  2  0
  6  7  1  0
  7  8  2  0
  7  9  1  0
  9 10  1  0
 11 10  1  1
 11 13  1  0
 12 11  1  0
 12  4  1  0
 13 14  2  0
 13 15  1  0
 15 16  1  0
 16 17  1  1
 17 18  1  0
 18 19  2  0
 18 22  1  0
 20 23  1  0
 20 16  1  0
 21 20  2  0
M  END
$$$$
