AQD.pdb
     RDKit          3D

 23 22  0  0  1  0  0  0  0  0999 V2000
    9.6364  -18.0216   15.7728 C   0  0  0  0  0  0  0  0  0  0  0  0
    9.3026  -18.4859   17.1636 C   0  0  2  0  0  0  0  0  0  0  0  0
    7.8979  -18.8502   17.2821 N   0  0  0  0  0  0  0  0  0  0  0  0
    9.5608  -17.4269   18.1879 C   0  0  0  0  0  0  0  0  0  0  0  0
   10.6826  -16.8663   18.3162 O   0  0  0  0  0  0  0  0  0  0  0  0
    8.2541  -12.8700   18.9489 N   0  0  0  0  0  0  0  0  0  0  0  0
    8.1817  -12.7432   20.3538 C   0  0  0  0  0  0  0  0  0  0  0  0
    8.4417  -11.6433   20.8804 O   0  0  0  0  0  0  0  0  0  0  0  0
    7.7992  -13.9185   21.1624 C   0  0  0  0  0  0  0  0  0  0  0  0
    7.5583  -15.0679   20.2523 C   0  0  0  0  0  0  0  0  0  0  0  0
    8.7565  -15.9528   20.0363 C   0  0  2  0  0  0  0  0  0  0  0  0
    8.5270  -16.9942   19.0851 N   0  0  0  0  0  0  0  0  0  0  0  0
    9.2490  -16.4930   21.3496 C   0  0  0  0  0  0  0  0  0  0  0  0
    8.6735  -17.4635   21.9052 O   0  0  0  0  0  0  0  0  0  0  0  0
   10.3721  -15.9400   22.0152 N   0  0  0  0  0  0  0  0  0  0  0  0
   10.8229  -16.5243   23.3062 C   0  0  1  0  0  0  0  0  0  0  0  0
   12.1997  -16.0134   23.5998 C   0  0  0  0  0  0  0  0  0  0  0  0
   13.2526  -16.4088   22.6665 C   0  0  0  0  0  0  0  0  0  0  0  0
   13.4183  -17.5898   22.3213 O   0  0  0  0  0  0  0  0  0  0  0  0
    9.8454  -16.1081   24.3320 C   0  0  0  0  0  0  0  0  0  0  0  0
    8.9149  -15.3258   24.0801 O   0  0  0  0  0  0  0  0  0  0  0  0
   14.0926  -15.4362   22.1502 O   0  0  0  0  0  0  0  0  0  0  0  0
    9.9802  -16.6168   25.6258 O   0  0  0  0  0  0  0  0  0  0  0  0
  2  4  1  0
  2  1  1  6
  2  3  1  0
  4  5  2  0
  6  7  1  0
  7  8  2  0
  7  9  1  0
  9 10  1  0
 11 10  1  1
 11 13  1  0
 12 11  1  0
 12  4  1  0
 13 14  2  0
 13 15  1  0
 15 16  1  0
 16 17  1  1
 17 18  1  0
 18 19  2  0
 18 22  1  0
 20 23  1  0
 20 16  1  0
 21 20  2  0
M  END
$$$$
