AQD.pdb
     RDKit          3D

 23 22  0  0  1  0  0  0  0  0999 V2000
   10.6374  -18.1189   17.0671 C   0  0  0  0  0  0  0  0  0  0  0  0
   10.9751  -18.7092   18.4083 C   0  0  2  0  0  0  0  0  0  0  0  0
    9.8672  -19.4879   18.9431 N   0  0  0  0  0  0  0  0  0  0  0  0
   11.2913  -17.6568   19.4232 C   0  0  0  0  0  0  0  0  0  0  0  0
   12.3714  -17.0067   19.4125 O   0  0  0  0  0  0  0  0  0  0  0  0
    7.1984  -14.6843   23.0992 N   0  0  0  0  0  0  0  0  0  0  0  0
    7.1065  -14.9525   21.7154 C   0  0  0  0  0  0  0  0  0  0  0  0
    6.0558  -14.6670   21.1080 O   0  0  0  0  0  0  0  0  0  0  0  0
    8.2594  -15.5646   21.0243 C   0  0  0  0  0  0  0  0  0  0  0  0
    9.3931  -15.6634   21.9796 C   0  0  0  0  0  0  0  0  0  0  0  0
   10.6365  -16.2894   21.4077 C   0  0  2  0  0  0  0  0  0  0  0  0
   10.3649  -17.3343   20.4714 N   0  0  0  0  0  0  0  0  0  0  0  0
   11.5438  -16.7508   22.5136 C   0  0  0  0  0  0  0  0  0  0  0  0
   11.0762  -17.1160   23.6224 O   0  0  0  0  0  0  0  0  0  0  0  0
   12.9525  -16.7953   22.3596 N   0  0  0  0  0  0  0  0  0  0  0  0
   13.7948  -17.3462   23.4544 C   0  0  1  0  0  0  0  0  0  0  0  0
   14.8515  -18.2149   22.8448 C   0  0  0  0  0  0  0  0  0  0  0  0
   15.8717  -18.7327   23.7542 C   0  0  0  0  0  0  0  0  0  0  0  0
   15.5786  -19.3373   24.7983 O   0  0  0  0  0  0  0  0  0  0  0  0
   14.3710  -16.1937   24.1761 C   0  0  0  0  0  0  0  0  0  0  0  0
   14.9797  -16.3232   25.2503 O   0  0  0  0  0  0  0  0  0  0  0  0
   17.2078  -18.5436   23.4426 O   0  0  0  0  0  0  0  0  0  0  0  0
   14.2211  -14.9195   23.6240 O   0  0  0  0  0  0  0  0  0  0  0  0
  2  4  1  0
  2  1  1  6
  2  3  1  0
  4  5  2  0
  6  7  1  0
  7  8  2  0
  7  9  1  0
  9 10  1  0
 11 10  1  1
 11 13  1  0
 12 11  1  0
 12  4  1  0
 13 14  2  0
 13 15  1  0
 15 16  1  0
 16 17  1  6
 17 18  1  0
 18 19  2  0
 18 22  1  0
 20 23  1  0
 20 16  1  0
 21 20  2  0
M  END
$$$$
