AQD.pdb
     RDKit          3D

 23 22  0  0  1  0  0  0  0  0999 V2000
   10.9253  -17.9311   14.8415 C   0  0  0  0  0  0  0  0  0  0  0  0
   10.7075  -16.4547   14.6567 C   0  0  2  0  0  0  0  0  0  0  0  0
   11.4462  -15.9455   13.5099 N   0  0  0  0  0  0  0  0  0  0  0  0
   11.1591  -15.6659   15.8447 C   0  0  0  0  0  0  0  0  0  0  0  0
   12.3324  -15.2183   15.9557 O   0  0  0  0  0  0  0  0  0  0  0  0
    7.5535  -13.2410   20.4516 N   0  0  0  0  0  0  0  0  0  0  0  0
    7.4369  -12.8603   19.0964 C   0  0  0  0  0  0  0  0  0  0  0  0
    6.4473  -12.1941   18.7337 O   0  0  0  0  0  0  0  0  0  0  0  0
    8.4920  -13.2619   18.1441 C   0  0  0  0  0  0  0  0  0  0  0  0
    9.5008  -14.0809   18.8646 C   0  0  0  0  0  0  0  0  0  0  0  0
   10.6562  -14.5355   18.0140 C   0  0  2  0  0  0  0  0  0  0  0  0
   10.2632  -15.3783   16.9289 N   0  0  0  0  0  0  0  0  0  0  0  0
   11.7112  -15.1797   18.8691 C   0  0  0  0  0  0  0  0  0  0  0  0
   11.7937  -16.4313   18.9594 O   0  0  0  0  0  0  0  0  0  0  0  0
   12.6514  -14.4149   19.6049 N   0  0  0  0  0  0  0  0  0  0  0  0
   13.7775  -15.0992   20.2940 C   0  0  1  0  0  0  0  0  0  0  0  0
   14.9365  -14.1528   20.3575 C   0  0  0  0  0  0  0  0  0  0  0  0
   16.1550  -14.6585   20.9862 C   0  0  0  0  0  0  0  0  0  0  0  0
   16.8526  -13.9539   21.7334 O   0  0  0  0  0  0  0  0  0  0  0  0
   13.2945  -15.4771   21.6375 C   0  0  0  0  0  0  0  0  0  0  0  0
   14.0038  -16.0992   22.4445 O   0  0  0  0  0  0  0  0  0  0  0  0
   16.5449  -15.9647   20.7415 O   0  0  0  0  0  0  0  0  0  0  0  0
   11.9952  -15.1185   22.0035 O   0  0  0  0  0  0  0  0  0  0  0  0
  2  4  1  0
  2  1  1  1
  2  3  1  0
  4  5  2  0
  6  7  1  0
  7  8  2  0
  7  9  1  0
  9 10  1  0
 11 10  1  1
 11 13  1  0
 12 11  1  0
 12  4  1  0
 13 14  2  0
 13 15  1  0
 15 16  1  0
 16 17  1  1
 17 18  1  0
 18 19  2  0
 18 22  1  0
 20 23  1  0
 20 16  1  0
 21 20  2  0
M  END
$$$$
