AQD.pdb
     RDKit          3D

 23 22  0  0  1  0  0  0  0  0999 V2000
    8.5551  -15.4399   16.8623 C   0  0  0  0  0  0  0  0  0  0  0  0
    8.1042  -14.3897   17.8397 C   0  0  2  0  0  0  0  0  0  0  0  0
    8.4153  -13.0491   17.3642 N   0  0  0  0  0  0  0  0  0  0  0  0
    8.7675  -14.5388   19.1722 C   0  0  0  0  0  0  0  0  0  0  0  0
    9.8206  -13.9176   19.4790 O   0  0  0  0  0  0  0  0  0  0  0  0
    8.5365  -14.0089   24.5075 N   0  0  0  0  0  0  0  0  0  0  0  0
    7.3583  -13.5884   23.8515 C   0  0  0  0  0  0  0  0  0  0  0  0
    6.8026  -12.5330   24.2144 O   0  0  0  0  0  0  0  0  0  0  0  0
    6.8157  -14.4116   22.7517 C   0  0  0  0  0  0  0  0  0  0  0  0
    7.6922  -15.5963   22.5629 C   0  0  0  0  0  0  0  0  0  0  0  0
    8.7506  -15.4256   21.5067 C   0  0  2  0  0  0  0  0  0  0  0  0
    8.2264  -15.4093   20.1773 N   0  0  0  0  0  0  0  0  0  0  0  0
    9.8243  -16.4643   21.6720 C   0  0  0  0  0  0  0  0  0  0  0  0
    9.6512  -17.6421   21.2666 O   0  0  0  0  0  0  0  0  0  0  0  0
   11.0676  -16.1679   22.2857 N   0  0  0  0  0  0  0  0  0  0  0  0
   12.0716  -17.2488   22.4726 C   0  0  1  0  0  0  0  0  0  0  0  0
   13.4384  -16.6488   22.3519 C   0  0  0  0  0  0  0  0  0  0  0  0
   13.7608  -16.0179   21.0736 C   0  0  0  0  0  0  0  0  0  0  0  0
   13.4687  -16.5428   19.9870 O   0  0  0  0  0  0  0  0  0  0  0  0
   11.8357  -17.8292   23.8100 C   0  0  0  0  0  0  0  0  0  0  0  0
   12.4599  -18.8210   24.2200 O   0  0  0  0  0  0  0  0  0  0  0  0
   14.4128  -14.7960   21.0731 O   0  0  0  0  0  0  0  0  0  0  0  0
   10.8766  -17.2358   24.6338 O   0  0  0  0  0  0  0  0  0  0  0  0
  2  4  1  0
  2  1  1  6
  2  3  1  0
  4  5  2  0
  6  7  1  0
  7  8  2  0
  7  9  1  0
  9 10  1  0
 11 10  1  1
 11 13  1  0
 12 11  1  0
 12  4  1  0
 13 14  2  0
 13 15  1  0
 15 16  1  0
 16 17  1  1
 17 18  1  0
 18 19  2  0
 18 22  1  0
 20 23  1  0
 20 16  1  0
 21 20  2  0
M  END
$$$$
