AQD.pdb
     RDKit          3D

 23 22  0  0  1  0  0  0  0  0999 V2000
    7.5418  -12.2925   19.3199 C   0  0  0  0  0  0  0  0  0  0  0  0
    8.7057  -13.1754   18.9630 C   0  0  2  0  0  0  0  0  0  0  0  0
    8.4414  -13.9449   17.7555 N   0  0  0  0  0  0  0  0  0  0  0  0
    9.0159  -14.1623   20.0434 C   0  0  0  0  0  0  0  0  0  0  0  0
    9.1862  -13.8214   21.2451 O   0  0  0  0  0  0  0  0  0  0  0  0
    7.5243  -20.1130   19.9545 N   0  0  0  0  0  0  0  0  0  0  0  0
    6.6493  -19.0142   20.1035 C   0  0  0  0  0  0  0  0  0  0  0  0
    5.4228  -19.1885   19.9623 O   0  0  0  0  0  0  0  0  0  0  0  0
    7.2116  -17.6863   20.4232 C   0  0  0  0  0  0  0  0  0  0  0  0
    8.6804  -17.8192   20.6035 C   0  0  0  0  0  0  0  0  0  0  0  0
    9.4054  -16.5135   20.7897 C   0  0  2  0  0  0  0  0  0  0  0  0
    9.1356  -15.5638   19.7564 N   0  0  0  0  0  0  0  0  0  0  0  0
   10.8794  -16.7549   20.9567 C   0  0  0  0  0  0  0  0  0  0  0  0
   11.6032  -17.0395   19.9683 O   0  0  0  0  0  0  0  0  0  0  0  0
   11.5149  -16.6740   22.2215 N   0  0  0  0  0  0  0  0  0  0  0  0
   12.9602  -17.0031   22.3407 C   0  0  1  0  0  0  0  0  0  0  0  0
   13.6622  -15.8297   22.9515 C   0  0  0  0  0  0  0  0  0  0  0  0
   15.1222  -15.8888   22.9807 C   0  0  0  0  0  0  0  0  0  0  0  0
   15.7560  -16.8072   22.4364 O   0  0  0  0  0  0  0  0  0  0  0  0
   13.0588  -18.2108   23.1849 C   0  0  0  0  0  0  0  0  0  0  0  0
   12.2105  -18.4848   24.0490 O   0  0  0  0  0  0  0  0  0  0  0  0
   15.8220  -14.8892   23.6359 O   0  0  0  0  0  0  0  0  0  0  0  0
   14.1461  -19.0673   22.9980 O   0  0  0  0  0  0  0  0  0  0  0  0
  2  4  1  0
  2  1  1  1
  2  3  1  0
  4  5  2  0
  6  7  1  0
  7  8  2  0
  7  9  1  0
  9 10  1  0
 11 10  1  6
 11 13  1  0
 12 11  1  0
 12  4  1  0
 13 14  2  0
 13 15  1  0
 15 16  1  0
 16 17  1  1
 17 18  1  0
 18 19  2  0
 18 22  1  0
 20 23  1  0
 20 16  1  0
 21 20  2  0
M  END
$$$$
