AQD.pdb
     RDKit          3D

 23 22  0  0  1  0  0  0  0  0999 V2000
    9.3468  -14.3357   18.1224 C   0  0  0  0  0  0  0  0  0  0  0  0
    7.8993  -14.2929   18.5277 C   0  0  2  0  0  0  0  0  0  0  0  0
    7.3335  -12.9634   18.3476 N   0  0  0  0  0  0  0  0  0  0  0  0
    7.7068  -14.6514   19.9672 C   0  0  0  0  0  0  0  0  0  0  0  0
    7.8712  -13.8207   20.9010 O   0  0  0  0  0  0  0  0  0  0  0  0
    3.1552  -18.3744   20.5174 N   0  0  0  0  0  0  0  0  0  0  0  0
    3.7300  -17.8128   21.6790 C   0  0  0  0  0  0  0  0  0  0  0  0
    3.3732  -18.2306   22.7983 O   0  0  0  0  0  0  0  0  0  0  0  0
    4.7397  -16.7443   21.5363 C   0  0  0  0  0  0  0  0  0  0  0  0
    6.0487  -17.2551   22.0189 C   0  0  0  0  0  0  0  0  0  0  0  0
    7.2149  -16.3477   21.7328 C   0  0  2  0  0  0  0  0  0  0  0  0
    7.3200  -15.9780   20.3563 N   0  0  0  0  0  0  0  0  0  0  0  0
    8.4886  -16.9577   22.2472 C   0  0  0  0  0  0  0  0  0  0  0  0
    8.9737  -17.9871   21.7118 O   0  0  0  0  0  0  0  0  0  0  0  0
    9.1940  -16.4073   23.3470 N   0  0  0  0  0  0  0  0  0  0  0  0
   10.4400  -17.0638   23.8243 C   0  0  1  0  0  0  0  0  0  0  0  0
   11.5593  -16.0729   23.7344 C   0  0  0  0  0  0  0  0  0  0  0  0
   12.3025  -16.0440   22.4764 C   0  0  0  0  0  0  0  0  0  0  0  0
   12.2940  -16.9994   21.6835 O   0  0  0  0  0  0  0  0  0  0  0  0
   10.1928  -17.4983   25.2139 C   0  0  0  0  0  0  0  0  0  0  0  0
    9.1734  -17.1655   25.8396 O   0  0  0  0  0  0  0  0  0  0  0  0
   13.0400  -14.9160   22.1576 O   0  0  0  0  0  0  0  0  0  0  0  0
   11.1431  -18.3105   25.8369 O   0  0  0  0  0  0  0  0  0  0  0  0
  2  4  1  0
  2  1  1  1
  2  3  1  0
  4  5  2  0
  6  7  1  0
  7  8  2  0
  7  9  1  0
  9 10  1  0
 11 10  1  6
 11 13  1  0
 12 11  1  0
 12  4  1  0
 13 14  2  0
 13 15  1  0
 15 16  1  0
 16 17  1  1
 17 18  1  0
 18 19  2  0
 18 22  1  0
 20 23  1  0
 20 16  1  0
 21 20  2  0
M  END
$$$$
