AQD.pdb
     RDKit          3D

 23 22  0  0  1  0  0  0  0  0999 V2000
    7.5776  -19.7949   18.3570 C   0  0  0  0  0  0  0  0  0  0  0  0
    7.5903  -18.3856   17.8326 C   0  0  2  0  0  0  0  0  0  0  0  0
    8.0380  -18.3352   16.4480 N   0  0  0  0  0  0  0  0  0  0  0  0
    8.5095  -17.5020   18.6149 C   0  0  0  0  0  0  0  0  0  0  0  0
    9.7642  -17.6120   18.5620 O   0  0  0  0  0  0  0  0  0  0  0  0
    9.9134  -13.0843   19.0425 N   0  0  0  0  0  0  0  0  0  0  0  0
    8.5516  -12.9247   18.7029 C   0  0  0  0  0  0  0  0  0  0  0  0
    8.2494  -12.2557   17.6951 O   0  0  0  0  0  0  0  0  0  0  0  0
    7.5209  -13.5557   19.5520 C   0  0  0  0  0  0  0  0  0  0  0  0
    8.1938  -14.3211   20.6330 C   0  0  0  0  0  0  0  0  0  0  0  0
    8.8709  -15.5841   20.1730 C   0  0  2  0  0  0  0  0  0  0  0  0
    7.9966  -16.4729   19.4744 N   0  0  0  0  0  0  0  0  0  0  0  0
    9.5507  -16.2621   21.3294 C   0  0  0  0  0  0  0  0  0  0  0  0
    8.8900  -16.6653   22.3206 O   0  0  0  0  0  0  0  0  0  0  0  0
   10.9521  -16.4760   21.3560 N   0  0  0  0  0  0  0  0  0  0  0  0
   11.5644  -17.1954   22.5043 C   0  0  1  0  0  0  0  0  0  0  0  0
   12.7135  -18.0084   21.9929 C   0  0  0  0  0  0  0  0  0  0  0  0
   12.4188  -18.9372   20.9037 C   0  0  0  0  0  0  0  0  0  0  0  0
   11.5131  -19.7825   20.9848 O   0  0  0  0  0  0  0  0  0  0  0  0
   11.9978  -16.1693   23.4740 C   0  0  0  0  0  0  0  0  0  0  0  0
   11.9578  -14.9558   23.2149 O   0  0  0  0  0  0  0  0  0  0  0  0
   13.1731  -18.8733   19.7439 O   0  0  0  0  0  0  0  0  0  0  0  0
   12.4666  -16.5874   24.7214 O   0  0  0  0  0  0  0  0  0  0  0  0
  2  4  1  0
  2  1  1  1
  2  3  1  0
  4  5  2  0
  6  7  1  0
  7  8  2  0
  7  9  1  0
  9 10  1  0
 11 10  1  1
 11 13  1  0
 12 11  1  0
 12  4  1  0
 13 14  2  0
 13 15  1  0
 15 16  1  0
 16 17  1  6
 17 18  1  0
 18 19  2  0
 18 22  1  0
 20 23  1  0
 20 16  1  0
 21 20  2  0
M  END
$$$$
