AQD.pdb
     RDKit          3D

 23 22  0  0  1  0  0  0  0  0999 V2000
    7.0527  -14.9932   19.1230 C   0  0  0  0  0  0  0  0  0  0  0  0
    7.1733  -13.6577   19.8036 C   0  0  2  0  0  0  0  0  0  0  0  0
    7.8726  -12.6931   18.9666 N   0  0  0  0  0  0  0  0  0  0  0  0
    7.9361  -13.7468   21.0872 C   0  0  0  0  0  0  0  0  0  0  0  0
    9.1881  -13.6104   21.1433 O   0  0  0  0  0  0  0  0  0  0  0  0
    5.6212  -12.5461   26.6894 N   0  0  0  0  0  0  0  0  0  0  0  0
    6.9766  -12.7615   27.0236 C   0  0  0  0  0  0  0  0  0  0  0  0
    7.3698  -12.4940   28.1761 O   0  0  0  0  0  0  0  0  0  0  0  0
    7.8929  -13.2986   25.9972 C   0  0  0  0  0  0  0  0  0  0  0  0
    7.1538  -13.4249   24.7145 C   0  0  0  0  0  0  0  0  0  0  0  0
    7.9733  -13.9672   23.5746 C   0  0  2  0  0  0  0  0  0  0  0  0
    7.2668  -13.9955   22.3327 N   0  0  0  0  0  0  0  0  0  0  0  0
    8.5334  -15.3157   23.9305 C   0  0  0  0  0  0  0  0  0  0  0  0
    7.8384  -16.3566   23.8071 O   0  0  0  0  0  0  0  0  0  0  0  0
    9.8559  -15.4751   24.4162 N   0  0  0  0  0  0  0  0  0  0  0  0
   10.3470  -16.8305   24.7808 C   0  0  1  0  0  0  0  0  0  0  0  0
   11.8367  -16.8492   24.6280 C   0  0  0  0  0  0  0  0  0  0  0  0
   12.3526  -16.6994   23.2688 C   0  0  0  0  0  0  0  0  0  0  0  0
   13.4408  -16.1500   23.0335 O   0  0  0  0  0  0  0  0  0  0  0  0
    9.9283  -17.0797   26.1750 C   0  0  0  0  0  0  0  0  0  0  0  0
    9.4925  -16.1761   26.9062 O   0  0  0  0  0  0  0  0  0  0  0  0
   11.6049  -17.1853   22.2092 O   0  0  0  0  0  0  0  0  0  0  0  0
   10.0297  -18.3784   26.6788 O   0  0  0  0  0  0  0  0  0  0  0  0
  2  4  1  0
  2  1  1  6
  2  3  1  0
  4  5  2  0
  6  7  1  0
  7  8  2  0
  7  9  1  0
  9 10  1  0
 11 10  1  1
 11 13  1  0
 12 11  1  0
 12  4  1  0
 13 14  2  0
 13 15  1  0
 15 16  1  0
 16 17  1  1
 17 18  1  0
 18 19  2  0
 18 22  1  0
 20 23  1  0
 20 16  1  0
 21 20  2  0
M  END
$$$$
