AQD.pdb
     RDKit          3D

 23 22  0  0  1  0  0  0  0  0999 V2000
    8.0233  -12.3564   19.7149 C   0  0  0  0  0  0  0  0  0  0  0  0
    8.2673  -13.6162   18.9308 C   0  0  2  0  0  0  0  0  0  0  0  0
    7.0251  -14.1714   18.4124 N   0  0  0  0  0  0  0  0  0  0  0  0
    8.9017  -14.6842   19.7642 C   0  0  0  0  0  0  0  0  0  0  0  0
    8.3988  -15.0878   20.8474 O   0  0  0  0  0  0  0  0  0  0  0  0
    9.2159  -18.2388   17.1472 N   0  0  0  0  0  0  0  0  0  0  0  0
    8.6842  -18.7669   18.3444 C   0  0  0  0  0  0  0  0  0  0  0  0
    7.6286  -19.4293   18.3023 O   0  0  0  0  0  0  0  0  0  0  0  0
    9.3939  -18.5201   19.6160 C   0  0  0  0  0  0  0  0  0  0  0  0
   10.6092  -17.7121   19.3369 C   0  0  0  0  0  0  0  0  0  0  0  0
   10.6773  -16.4101   20.0887 C   0  0  2  0  0  0  0  0  0  0  0  0
   10.1307  -15.3076   19.3620 N   0  0  0  0  0  0  0  0  0  0  0  0
   12.0860  -16.1407   20.5381 C   0  0  0  0  0  0  0  0  0  0  0  0
   12.8004  -15.2899   19.9486 O   0  0  0  0  0  0  0  0  0  0  0  0
   12.6681  -16.8254   21.6348 N   0  0  0  0  0  0  0  0  0  0  0  0
   14.0756  -16.5371   22.0183 C   0  0  1  0  0  0  0  0  0  0  0  0
   14.2301  -16.8080   23.4831 C   0  0  0  0  0  0  0  0  0  0  0  0
   14.6270  -15.6742   24.3155 C   0  0  0  0  0  0  0  0  0  0  0  0
   14.9597  -14.5822   23.8272 O   0  0  0  0  0  0  0  0  0  0  0  0
   14.9341  -17.4146   21.1974 C   0  0  0  0  0  0  0  0  0  0  0  0
   16.1672  -17.2777   21.1508 O   0  0  0  0  0  0  0  0  0  0  0  0
   14.6327  -15.8213   25.6926 O   0  0  0  0  0  0  0  0  0  0  0  0
   14.3298  -18.4294   20.4519 O   0  0  0  0  0  0  0  0  0  0  0  0
  2  4  1  0
  2  1  1  1
  2  3  1  0
  4  5  2  0
  6  7  1  0
  7  8  2  0
  7  9  1  0
  9 10  1  0
 11 10  1  6
 11 13  1  0
 12 11  1  0
 12  4  1  0
 13 14  2  0
 13 15  1  0
 15 16  1  0
 16 17  1  1
 17 18  1  0
 18 19  2  0
 18 22  1  0
 20 23  1  0
 20 16  1  0
 21 20  2  0
M  END
$$$$
