AQD.pdb
     RDKit          3D

 23 22  0  0  1  0  0  0  0  0999 V2000
    7.6376  -12.7179   19.3500 C   0  0  0  0  0  0  0  0  0  0  0  0
    7.7518  -14.0566   20.0255 C   0  0  2  0  0  0  0  0  0  0  0  0
    6.4460  -14.5749   20.4079 N   0  0  0  0  0  0  0  0  0  0  0  0
    8.5709  -13.9886   21.2753 C   0  0  0  0  0  0  0  0  0  0  0  0
    9.7917  -13.6742   21.2701 O   0  0  0  0  0  0  0  0  0  0  0  0
    7.2354  -11.8808   26.8192 N   0  0  0  0  0  0  0  0  0  0  0  0
    6.4291  -12.9825   26.4570 C   0  0  0  0  0  0  0  0  0  0  0  0
    5.3709  -13.1944   27.0813 O   0  0  0  0  0  0  0  0  0  0  0  0
    6.8620  -13.8551   25.3467 C   0  0  0  0  0  0  0  0  0  0  0  0
    8.1573  -13.3528   24.8200 C   0  0  0  0  0  0  0  0  0  0  0  0
    8.7734  -14.2181   23.7538 C   0  0  2  0  0  0  0  0  0  0  0  0
    7.9951  -14.2826   22.5571 N   0  0  0  0  0  0  0  0  0  0  0  0
    9.0727  -15.5857   24.3010 C   0  0  0  0  0  0  0  0  0  0  0  0
    8.1790  -16.4687   24.3565 O   0  0  0  0  0  0  0  0  0  0  0  0
   10.3616  -15.9395   24.7742 N   0  0  0  0  0  0  0  0  0  0  0  0
   10.6302  -17.3389   25.1993 C   0  0  1  0  0  0  0  0  0  0  0  0
   12.0147  -17.7068   24.7625 C   0  0  0  0  0  0  0  0  0  0  0  0
   12.3271  -17.5004   23.3498 C   0  0  0  0  0  0  0  0  0  0  0  0
   11.7540  -18.1334   22.4485 O   0  0  0  0  0  0  0  0  0  0  0  0
   10.4819  -17.3790   26.6681 C   0  0  0  0  0  0  0  0  0  0  0  0
   10.2748  -16.3559   27.3401 O   0  0  0  0  0  0  0  0  0  0  0  0
   13.2927  -16.5697   23.0044 O   0  0  0  0  0  0  0  0  0  0  0  0
   10.5794  -18.6136   27.3139 O   0  0  0  0  0  0  0  0  0  0  0  0
  2  4  1  0
  2  1  1  1
  2  3  1  0
  4  5  2  0
  6  7  1  0
  7  8  2  0
  7  9  1  0
  9 10  1  0
 11 10  1  1
 11 13  1  0
 12 11  1  0
 12  4  1  0
 13 14  2  0
 13 15  1  0
 15 16  1  0
 16 17  1  1
 17 18  1  0
 18 19  2  0
 18 22  1  0
 20 23  1  0
 20 16  1  0
 21 20  2  0
M  END
$$$$
