AQD.pdb
     RDKit          3D

 23 22  0  0  1  0  0  0  0  0999 V2000
   10.2236  -18.2671   16.3245 C   0  0  0  0  0  0  0  0  0  0  0  0
   11.4208  -18.2525   15.4147 C   0  0  2  0  0  0  0  0  0  0  0  0
   11.1697  -18.9986   14.1899 N   0  0  0  0  0  0  0  0  0  0  0  0
   12.6230  -18.8696   16.0561 C   0  0  0  0  0  0  0  0  0  0  0  0
   12.6103  -20.0323   16.5433 O   0  0  0  0  0  0  0  0  0  0  0  0
   17.8196  -21.1886   14.2321 N   0  0  0  0  0  0  0  0  0  0  0  0
   18.1789  -20.1177   15.0802 C   0  0  0  0  0  0  0  0  0  0  0  0
   19.2383  -19.4972   14.8625 O   0  0  0  0  0  0  0  0  0  0  0  0
   17.2887  -19.7611   16.2035 C   0  0  0  0  0  0  0  0  0  0  0  0
   16.0243  -19.2063   15.6550 C   0  0  0  0  0  0  0  0  0  0  0  0
   15.0340  -18.7643   16.6986 C   0  0  2  0  0  0  0  0  0  0  0  0
   13.8647  -18.1550   16.1473 N   0  0  0  0  0  0  0  0  0  0  0  0
   15.7036  -17.8767   17.7099 C   0  0  0  0  0  0  0  0  0  0  0  0
   15.9078  -16.6599   17.4663 O   0  0  0  0  0  0  0  0  0  0  0  0
   16.1313  -18.3644   18.9706 N   0  0  0  0  0  0  0  0  0  0  0  0
   16.7659  -17.4344   19.9420 C   0  0  1  0  0  0  0  0  0  0  0  0
   16.4015  -17.8767   21.3256 C   0  0  0  0  0  0  0  0  0  0  0  0
   16.9385  -17.0787   22.4259 C   0  0  0  0  0  0  0  0  0  0  0  0
   17.6498  -16.0801   22.2301 O   0  0  0  0  0  0  0  0  0  0  0  0
   18.2226  -17.4928   19.7056 C   0  0  0  0  0  0  0  0  0  0  0  0
   18.9308  -16.4733   19.6857 O   0  0  0  0  0  0  0  0  0  0  0  0
   16.6454  -17.4470   23.7283 O   0  0  0  0  0  0  0  0  0  0  0  0
   18.8142  -18.7409   19.4985 O   0  0  0  0  0  0  0  0  0  0  0  0
  2  4  1  0
  2  1  1  1
  2  3  1  0
  4  5  2  0
  6  7  1  0
  7  8  2  0
  7  9  1  0
  9 10  1  0
 11 10  1  6
 11 13  1  0
 12 11  1  0
 12  4  1  0
 13 14  2  0
 13 15  1  0
 15 16  1  0
 16 17  1  1
 17 18  1  0
 18 19  2  0
 18 22  1  0
 20 23  1  0
 20 16  1  0
 21 20  2  0
M  END
$$$$
