WRM.pdb
     RDKit          3D

 34 35  0  0  1  0  0  0  0  0999 V2000
    6.1599  -18.3197   25.2380 N   0  0  0  0  0  0  0  0  0  0  0  0
    6.5469  -16.9608   24.9162 C   0  0  1  0  0  0  0  0  0  0  0  0
    7.1674  -16.2628   26.1068 C   0  0  0  0  0  0  0  0  0  0  0  0
    6.4357  -15.0304   26.4702 C   0  0  0  0  0  0  0  0  0  0  0  0
    5.1431  -14.9385   26.8878 C   0  0  0  0  0  0  0  0  0  0  0  0
    4.8715  -13.6444   27.1117 N   0  0  0  0  0  0  0  0  0  0  0  0
    5.9662  -12.9121   26.8446 C   0  0  0  0  0  0  0  0  0  0  0  0
    6.1964  -11.5398   26.9169 C   0  0  0  0  0  0  0  0  0  0  0  0
    7.4414  -11.0638   26.5734 C   0  0  0  0  0  0  0  0  0  0  0  0
    8.4574  -11.9009   26.1635 C   0  0  0  0  0  0  0  0  0  0  0  0
    8.2163  -13.2498   26.0971 C   0  0  0  0  0  0  0  0  0  0  0  0
    6.9788  -13.7585   26.4346 C   0  0  0  0  0  0  0  0  0  0  0  0
    7.5237  -16.9145   23.8050 C   0  0  0  0  0  0  0  0  0  0  0  0
    8.4657  -17.7367   23.8059 O   0  0  0  0  0  0  0  0  0  0  0  0
    9.9731  -14.4911   17.0775 N   0  0  0  0  0  0  0  0  0  0  0  0
    8.5362  -14.4870   17.0157 C   0  0  0  0  0  0  0  0  0  0  0  0
    7.9190  -15.1416   16.0943 N   0  0  0  0  0  0  0  0  0  0  0  0
    7.7538  -13.7715   17.9564 N   0  0  0  0  0  0  0  0  0  0  0  0
    8.3126  -13.0676   19.0676 C   0  0  0  0  0  0  0  0  0  0  0  0
    9.0581  -13.9729   20.0403 C   0  0  0  0  0  0  0  0  0  0  0  0
    8.0394  -14.3973   21.0774 C   0  0  0  0  0  0  0  0  0  0  0  0
    8.5019  -15.5940   21.8733 C   0  0  2  0  0  0  0  0  0  0  0  0
    7.4099  -15.9739   22.7631 N   0  0  0  0  0  0  0  0  0  0  0  0
    9.7355  -15.3050   22.6721 C   0  0  0  0  0  0  0  0  0  0  0  0
    9.9683  -14.1284   22.9784 O   0  0  0  0  0  0  0  0  0  0  0  0
    6.8968  -15.1018   15.9848 C   0  0  0  0  0  0  0  0  0  0  0  0
    9.7364  -14.6472   28.0856 S   0  0  0  0  0  0  0  0  0  0  0  0
   11.4051  -14.4513   27.4016 C   0  0  0  0  0  0  0  0  0  0  0  0
   11.2745  -14.6317   25.5980 C   0  0  0  0  0  0  0  0  0  0  0  0
   11.8805  -15.9076   25.1193 C   0  0  2  0  0  0  0  0  0  0  0  0
   11.9462  -16.0532   23.6365 N   0  0  0  0  0  0  0  0  0  0  0  0
   10.6331  -16.3080   23.0854 C   0  0  0  0  0  0  0  0  0  0  0  0
   12.9340  -17.0675   23.1947 O   0  0  0  0  0  0  0  0  0  0  0  0
   14.3220  -16.8622   23.3307 O   0  0  0  0  0  0  0  0  0  0  0  0
  2  1  1  1
  2  3  1  0
  3  4  1  0
  4  5  2  0
  5  6  1  0
  7  6  1  0
  8  7  2  0
  9  8  1  0
 10 11  1  0
 10  9  2  0
 11 12  2  0
 12  4  1  0
 12  7  1  0
 13  2  1  0
 13 23  1  0
 14 13  2  0
 16 15  1  0
 17 16  2  0
 18 16  1  0
 19 18  1  0
 20 19  1  0
 20 21  1  0
 22 21  1  1
 22 24  1  0
 22 23  1  0
 24 31  1  0
 25 24  2  0
 27 28  1  0
 27 26  1  0
 29 28  1  0
 30 29  1  6
 31 30  1  0
 32 33  1  0
 32 30  1  0
 34 32  2  0
M  END
$$$$
