WRM.pdb
     RDKit          3D

 34 35  0  0  1  0  0  0  0  0999 V2000
    6.0477  -18.2264   24.2315 N   0  0  0  0  0  0  0  0  0  0  0  0
    6.9621  -17.1288   23.9881 C   0  0  1  0  0  0  0  0  0  0  0  0
    7.6046  -16.6458   25.2701 C   0  0  0  0  0  0  0  0  0  0  0  0
    6.8783  -15.4990   25.8563 C   0  0  0  0  0  0  0  0  0  0  0  0
    5.7821  -15.5493   26.6623 C   0  0  0  0  0  0  0  0  0  0  0  0
    5.4372  -14.2907   26.9711 N   0  0  0  0  0  0  0  0  0  0  0  0
    6.2928  -13.4414   26.3772 C   0  0  0  0  0  0  0  0  0  0  0  0
    6.3627  -12.0498   26.3840 C   0  0  0  0  0  0  0  0  0  0  0  0
    7.3672  -11.4392   25.6680 C   0  0  0  0  0  0  0  0  0  0  0  0
    8.2976  -12.1612   24.9509 C   0  0  0  0  0  0  0  0  0  0  0  0
    8.2164  -13.5307   24.9533 C   0  0  0  0  0  0  0  0  0  0  0  0
    7.2211  -14.1730   25.6610 C   0  0  0  0  0  0  0  0  0  0  0  0
    8.0457  -17.5109   23.0550 C   0  0  0  0  0  0  0  0  0  0  0  0
    8.5957  -18.6237   23.2052 O   0  0  0  0  0  0  0  0  0  0  0  0
    8.7050  -14.2856   16.6373 N   0  0  0  0  0  0  0  0  0  0  0  0
    8.2212  -13.5513   17.7753 C   0  0  0  0  0  0  0  0  0  0  0  0
    8.6747  -12.3743   18.0356 N   0  0  0  0  0  0  0  0  0  0  0  0
    7.2376  -14.0882   18.6431 N   0  0  0  0  0  0  0  0  0  0  0  0
    7.5164  -15.0977   19.6157 C   0  0  0  0  0  0  0  0  0  0  0  0
    8.7031  -15.9787   19.2455 C   0  0  0  0  0  0  0  0  0  0  0  0
    9.7768  -15.6828   20.2718 C   0  0  0  0  0  0  0  0  0  0  0  0
    9.7805  -16.6884   21.3980 C   0  0  2  0  0  0  0  0  0  0  0  0
    8.4598  -16.6542   22.0168 N   0  0  0  0  0  0  0  0  0  0  0  0
   10.8330  -16.3933   22.4219 C   0  0  0  0  0  0  0  0  0  0  0  0
   11.9947  -16.2221   22.0302 O   0  0  0  0  0  0  0  0  0  0  0  0
    8.3312  -11.8180   18.8299 C   0  0  0  0  0  0  0  0  0  0  0  0
   10.2335  -13.2689   28.8233 S   0  0  0  0  0  0  0  0  0  0  0  0
   10.8848  -14.9611   28.7677 C   0  0  0  0  0  0  0  0  0  0  0  0
   11.7616  -15.1512   27.1873 C   0  0  0  0  0  0  0  0  0  0  0  0
   10.8463  -15.5739   26.0884 C   0  0  2  0  0  0  0  0  0  0  0  0
   11.5231  -15.9092   24.8024 N   0  0  0  0  0  0  0  0  0  0  0  0
   10.5574  -16.3033   23.7998 C   0  0  0  0  0  0  0  0  0  0  0  0
   12.5984  -16.9190   24.9568 O   0  0  0  0  0  0  0  0  0  0  0  0
   12.4389  -18.2484   24.5159 O   0  0  0  0  0  0  0  0  0  0  0  0
  2  1  1  1
  2  3  1  0
  3  4  1  0
  4  5  2  0
  5  6  1  0
  7  6  1  0
  8  7  2  0
  9  8  1  0
 10 11  1  0
 10  9  2  0
 11 12  2  0
 12  4  1  0
 12  7  1  0
 13  2  1  0
 13 23  1  0
 14 13  2  0
 16 15  1  0
 17 16  2  0
 18 16  1  0
 19 18  1  0
 20 19  1  0
 20 21  1  0
 22 21  1  6
 22 24  1  0
 22 23  1  0
 24 31  1  0
 25 24  2  0
 27 28  1  0
 27 26  1  0
 29 28  1  0
 30 29  1  6
 31 30  1  0
 32 33  1  0
 32 30  1  0
 34 32  2  0
M  END
$$$$
