WRM.pdb
     RDKit          3D

 34 35  0  0  1  0  0  0  0  0999 V2000
    6.6023  -19.4073   20.5168 N   0  0  0  0  0  0  0  0  0  0  0  0
    6.2643  -18.1553   21.1636 C   0  0  1  0  0  0  0  0  0  0  0  0
    5.8189  -18.3709   22.5936 C   0  0  0  0  0  0  0  0  0  0  0  0
    4.6821  -19.3120   22.6843 C   0  0  0  0  0  0  0  0  0  0  0  0
    4.6490  -20.4936   23.3599 C   0  0  0  0  0  0  0  0  0  0  0  0
    3.4350  -21.0360   23.1860 N   0  0  0  0  0  0  0  0  0  0  0  0
    2.6959  -20.2224   22.4129 C   0  0  0  0  0  0  0  0  0  0  0  0
    1.3874  -20.3328   21.9468 C   0  0  0  0  0  0  0  0  0  0  0  0
    0.8852  -19.3254   21.1546 C   0  0  0  0  0  0  0  0  0  0  0  0
    1.6355  -18.2201   20.8132 C   0  0  0  0  0  0  0  0  0  0  0  0
    2.9223  -18.1249   21.2793 C   0  0  0  0  0  0  0  0  0  0  0  0
    3.4551  -19.1181   22.0754 C   0  0  0  0  0  0  0  0  0  0  0  0
    7.4098  -17.2182   21.1829 C   0  0  0  0  0  0  0  0  0  0  0  0
    8.5612  -17.6881   21.3128 O   0  0  0  0  0  0  0  0  0  0  0  0
    9.8519  -15.1205   16.7247 N   0  0  0  0  0  0  0  0  0  0  0  0
    8.8532  -14.2253   16.2055 C   0  0  0  0  0  0  0  0  0  0  0  0
    8.4459  -14.3342   14.9886 N   0  0  0  0  0  0  0  0  0  0  0  0
    8.2849  -13.2017   17.0044 N   0  0  0  0  0  0  0  0  0  0  0  0
    8.5055  -13.0918   18.4122 C   0  0  0  0  0  0  0  0  0  0  0  0
    7.3918  -13.7128   19.2462 C   0  0  0  0  0  0  0  0  0  0  0  0
    7.8070  -13.5360   20.6919 C   0  0  0  0  0  0  0  0  0  0  0  0
    8.2618  -14.8332   21.3163 C   0  0  2  0  0  0  0  0  0  0  0  0
    7.2258  -15.8276   21.0585 N   0  0  0  0  0  0  0  0  0  0  0  0
    8.4929  -14.7058   22.7906 C   0  0  0  0  0  0  0  0  0  0  0  0
    8.1711  -13.6446   23.3408 O   0  0  0  0  0  0  0  0  0  0  0  0
    7.8221  -13.6402   14.5554 C   0  0  0  0  0  0  0  0  0  0  0  0
    6.6725  -11.4196   27.1462 S   0  0  0  0  0  0  0  0  0  0  0  0
    6.6340  -13.2221   26.9452 C   0  0  0  0  0  0  0  0  0  0  0  0
    8.1207  -13.6938   26.0127 C   0  0  0  0  0  0  0  0  0  0  0  0
    8.1710  -15.1604   25.7468 C   0  0  2  0  0  0  0  0  0  0  0  0
    9.3644  -15.6181   24.9782 N   0  0  0  0  0  0  0  0  0  0  0  0
    9.0560  -15.7347   23.5696 C   0  0  0  0  0  0  0  0  0  0  0  0
    9.9593  -16.8658   25.5158 O   0  0  0  0  0  0  0  0  0  0  0  0
    9.8786  -18.0884   24.8188 O   0  0  0  0  0  0  0  0  0  0  0  0
  2  1  1  1
  2  3  1  0
  3  4  1  0
  4  5  2  0
  5  6  1  0
  7  6  1  0
  8  7  2  0
  9  8  1  0
 10 11  1  0
 10  9  2  0
 11 12  2  0
 12  4  1  0
 12  7  1  0
 13  2  1  0
 13 23  1  0
 14 13  2  0
 16 15  1  0
 17 16  2  0
 18 16  1  0
 19 18  1  0
 20 19  1  0
 20 21  1  0
 22 21  1  1
 22 24  1  0
 22 23  1  0
 24 31  1  0
 25 24  2  0
 27 28  1  0
 27 26  1  0
 29 28  1  0
 30 29  1  6
 31 30  1  0
 32 33  1  0
 32 30  1  0
 34 32  2  0
M  END
$$$$
