WRM.pdb
     RDKit          3D

 34 35  0  0  1  0  0  0  0  0999 V2000
    6.3572  -17.5220   23.9816 N   0  0  0  0  0  0  0  0  0  0  0  0
    7.4727  -16.6001   23.9051 C   0  0  1  0  0  0  0  0  0  0  0  0
    7.8854  -16.1118   25.2767 C   0  0  0  0  0  0  0  0  0  0  0  0
    6.9069  -15.1593   25.8436 C   0  0  0  0  0  0  0  0  0  0  0  0
    5.7449  -15.4634   26.4847 C   0  0  0  0  0  0  0  0  0  0  0  0
    5.1541  -14.3127   26.8388 N   0  0  0  0  0  0  0  0  0  0  0  0
    5.9180  -13.2833   26.4354 C   0  0  0  0  0  0  0  0  0  0  0  0
    5.7471  -11.9059   26.5586 C   0  0  0  0  0  0  0  0  0  0  0  0
    6.7125  -11.0751   26.0369 C   0  0  0  0  0  0  0  0  0  0  0  0
    7.8338  -11.5648   25.4014 C   0  0  0  0  0  0  0  0  0  0  0  0
    7.9887  -12.9232   25.2873 C   0  0  0  0  0  0  0  0  0  0  0  0
    7.0388  -13.7829   25.7998 C   0  0  0  0  0  0  0  0  0  0  0  0
    8.6574  -17.2200   23.2702 C   0  0  0  0  0  0  0  0  0  0  0  0
    8.7701  -18.4646   23.3081 O   0  0  0  0  0  0  0  0  0  0  0  0
    9.7468  -12.9212   19.3291 N   0  0  0  0  0  0  0  0  0  0  0  0
    8.5787  -13.6591   18.9298 C   0  0  0  0  0  0  0  0  0  0  0  0
    7.5365  -13.0452   18.4875 N   0  0  0  0  0  0  0  0  0  0  0  0
    8.5310  -15.0736   19.0059 N   0  0  0  0  0  0  0  0  0  0  0  0
    9.5331  -15.8584   19.6559 C   0  0  0  0  0  0  0  0  0  0  0  0
   10.3806  -15.0590   20.6377 C   0  0  0  0  0  0  0  0  0  0  0  0
   11.4531  -16.0082   21.1301 C   0  0  0  0  0  0  0  0  0  0  0  0
   10.9354  -16.9528   22.1880 C   0  0  2  0  0  0  0  0  0  0  0  0
    9.6435  -16.4419   22.6337 N   0  0  0  0  0  0  0  0  0  0  0  0
   11.8687  -17.0699   23.3535 C   0  0  0  0  0  0  0  0  0  0  0  0
   13.0702  -17.2567   23.1208 O   0  0  0  0  0  0  0  0  0  0  0  0
    6.6725  -13.5438   18.2359 C   0  0  0  0  0  0  0  0  0  0  0  0
   10.3484  -12.5333   27.6899 S   0  0  0  0  0  0  0  0  0  0  0  0
   11.0280  -14.1308   28.2161 C   0  0  0  0  0  0  0  0  0  0  0  0
   11.4314  -15.0682   26.7124 C   0  0  0  0  0  0  0  0  0  0  0  0
   11.8462  -16.4671   27.0211 C   0  0  2  0  0  0  0  0  0  0  0  0
   12.2700  -17.2711   25.8386 N   0  0  0  0  0  0  0  0  0  0  0  0
   11.4395  -16.9766   24.6912 C   0  0  0  0  0  0  0  0  0  0  0  0
   12.3286  -18.7270   26.1156 O   0  0  0  0  0  0  0  0  0  0  0  0
   13.2257  -19.2689   27.0583 O   0  0  0  0  0  0  0  0  0  0  0  0
  2  1  1  1
  2  3  1  0
  3  4  1  0
  4  5  2  0
  5  6  1  0
  7  6  1  0
  8  7  2  0
  9  8  1  0
 10 11  1  0
 10  9  2  0
 11 12  2  0
 12  4  1  0
 12  7  1  0
 13  2  1  0
 13 23  1  0
 14 13  2  0
 16 15  1  0
 17 16  2  0
 18 16  1  0
 19 18  1  0
 20 19  1  0
 20 21  1  0
 22 21  1  6
 22 24  1  0
 22 23  1  0
 24 31  1  0
 25 24  2  0
 27 28  1  0
 27 26  1  0
 29 28  1  0
 30 29  1  6
 31 30  1  0
 32 33  1  0
 32 30  1  0
 34 32  2  0
M  END
$$$$
