WRM.pdb
     RDKit          3D

 34 35  0  0  1  0  0  0  0  0999 V2000
    5.9488  -18.2181   25.1889 N   0  0  0  0  0  0  0  0  0  0  0  0
    6.8460  -17.1921   24.6965 C   0  0  1  0  0  0  0  0  0  0  0  0
    7.3683  -16.3241   25.8205 C   0  0  0  0  0  0  0  0  0  0  0  0
    6.6145  -15.0576   25.9390 C   0  0  0  0  0  0  0  0  0  0  0  0
    5.4185  -14.8717   26.5625 C   0  0  0  0  0  0  0  0  0  0  0  0
    5.0842  -13.5788   26.4394 N   0  0  0  0  0  0  0  0  0  0  0  0
    6.0443  -12.9394   25.7499 C   0  0  0  0  0  0  0  0  0  0  0  0
    6.1665  -11.6071   25.3606 C   0  0  0  0  0  0  0  0  0  0  0  0
    7.2813  -11.2314   24.6460 C   0  0  0  0  0  0  0  0  0  0  0  0
    8.2713  -12.1298   24.3085 C   0  0  0  0  0  0  0  0  0  0  0  0
    8.1375  -13.4383   24.6986 C   0  0  0  0  0  0  0  0  0  0  0  0
    7.0317  -13.8468   25.4158 C   0  0  0  0  0  0  0  0  0  0  0  0
    8.0122  -17.7714   23.9928 C   0  0  0  0  0  0  0  0  0  0  0  0
    8.6411  -18.6993   24.5468 O   0  0  0  0  0  0  0  0  0  0  0  0
   13.8179  -17.4343   18.4378 N   0  0  0  0  0  0  0  0  0  0  0  0
   12.7962  -18.3839   18.0871 C   0  0  0  0  0  0  0  0  0  0  0  0
   12.3639  -18.4628   16.8765 N   0  0  0  0  0  0  0  0  0  0  0  0
   12.2336  -19.2596   19.0491 N   0  0  0  0  0  0  0  0  0  0  0  0
   11.2824  -18.8405   20.0301 C   0  0  0  0  0  0  0  0  0  0  0  0
   10.9802  -17.3481   19.9762 C   0  0  0  0  0  0  0  0  0  0  0  0
    9.6542  -17.1665   20.6851 C   0  0  0  0  0  0  0  0  0  0  0  0
    9.7356  -17.5336   22.1474 C   0  0  2  0  0  0  0  0  0  0  0  0
    8.4178  -17.3014   22.7288 N   0  0  0  0  0  0  0  0  0  0  0  0
   10.7664  -16.7311   22.8799 C   0  0  0  0  0  0  0  0  0  0  0  0
   10.8145  -15.5125   22.6677 O   0  0  0  0  0  0  0  0  0  0  0  0
   11.5759  -19.0702   16.6146 C   0  0  0  0  0  0  0  0  0  0  0  0
   10.0407  -15.4653   29.3070 S   0  0  0  0  0  0  0  0  0  0  0  0
   10.7379  -14.7022   27.8161 C   0  0  0  0  0  0  0  0  0  0  0  0
   11.3064  -16.0480   26.7354 C   0  0  0  0  0  0  0  0  0  0  0  0
   11.8381  -15.5365   25.4394 C   0  0  1  0  0  0  0  0  0  0  0  0
   12.5812  -16.5415   24.6257 N   0  0  0  0  0  0  0  0  0  0  0  0
   11.6749  -17.3010   23.7923 C   0  0  0  0  0  0  0  0  0  0  0  0
   13.4482  -17.4252   25.4425 O   0  0  0  0  0  0  0  0  0  0  0  0
   13.2589  -18.8215   25.4827 O   0  0  0  0  0  0  0  0  0  0  0  0
  2  1  1  1
  2  3  1  0
  3  4  1  0
  4  5  2  0
  5  6  1  0
  7  6  1  0
  8  7  2  0
  9  8  1  0
 10 11  1  0
 10  9  2  0
 11 12  2  0
 12  4  1  0
 12  7  1  0
 13  2  1  0
 13 23  1  0
 14 13  2  0
 16 15  1  0
 17 16  2  0
 18 16  1  0
 19 18  1  0
 20 19  1  0
 20 21  1  0
 22 21  1  6
 22 24  1  0
 22 23  1  0
 24 31  1  0
 25 24  2  0
 27 28  1  0
 27 26  1  0
 29 28  1  0
 30 29  1  6
 31 30  1  0
 32 33  1  0
 32 30  1  0
 34 32  2  0
M  END
$$$$
