WRM.pdb
     RDKit          3D

 34 35  0  0  1  0  0  0  0  0999 V2000
    5.6338  -18.4605   23.9979 N   0  0  0  0  0  0  0  0  0  0  0  0
    6.6269  -17.4227   23.8067 C   0  0  1  0  0  0  0  0  0  0  0  0
    6.4944  -16.3286   24.8437 C   0  0  0  0  0  0  0  0  0  0  0  0
    6.9895  -15.0282   24.3438 C   0  0  0  0  0  0  0  0  0  0  0  0
    7.7535  -14.8131   23.2376 C   0  0  0  0  0  0  0  0  0  0  0  0
    7.9822  -13.4951   23.1423 N   0  0  0  0  0  0  0  0  0  0  0  0
    7.3786  -12.8683   24.1664 C   0  0  0  0  0  0  0  0  0  0  0  0
    7.3178  -11.5204   24.5141 C   0  0  0  0  0  0  0  0  0  0  0  0
    6.6132  -11.1642   25.6416 C   0  0  0  0  0  0  0  0  0  0  0  0
    5.9717  -12.0969   26.4287 C   0  0  0  0  0  0  0  0  0  0  0  0
    6.0402  -13.4204   26.0741 C   0  0  0  0  0  0  0  0  0  0  0  0
    6.7387  -13.8100   24.9497 C   0  0  0  0  0  0  0  0  0  0  0  0
    8.0049  -17.9571   23.8865 C   0  0  0  0  0  0  0  0  0  0  0  0
    8.2642  -18.8054   24.7677 O   0  0  0  0  0  0  0  0  0  0  0  0
   14.4688  -19.5208   18.6926 N   0  0  0  0  0  0  0  0  0  0  0  0
   13.1070  -19.1656   18.3963 C   0  0  0  0  0  0  0  0  0  0  0  0
   12.4974  -19.6917   17.3912 N   0  0  0  0  0  0  0  0  0  0  0  0
   12.3920  -18.2345   19.1905 N   0  0  0  0  0  0  0  0  0  0  0  0
   12.9516  -17.5872   20.3353 C   0  0  0  0  0  0  0  0  0  0  0  0
   12.4051  -18.1189   21.6544 C   0  0  0  0  0  0  0  0  0  0  0  0
   11.1430  -17.3285   21.9304 C   0  0  0  0  0  0  0  0  0  0  0  0
   10.4347  -17.8036   23.1762 C   0  0  2  0  0  0  0  0  0  0  0  0
    9.0122  -17.5322   22.9989 N   0  0  0  0  0  0  0  0  0  0  0  0
   10.9354  -17.1213   24.4118 C   0  0  0  0  0  0  0  0  0  0  0  0
   10.4438  -16.0254   24.7116 O   0  0  0  0  0  0  0  0  0  0  0  0
   11.5446  -19.4129   17.1210 C   0  0  0  0  0  0  0  0  0  0  0  0
   10.1460  -12.9534   28.6476 S   0  0  0  0  0  0  0  0  0  0  0  0
   10.3865  -14.7252   28.9541 C   0  0  0  0  0  0  0  0  0  0  0  0
   11.9154  -15.2180   28.1044 C   0  0  0  0  0  0  0  0  0  0  0  0
   11.6422  -15.8163   26.7659 C   0  0  1  0  0  0  0  0  0  0  0  0
   12.3858  -17.0768   26.4787 N   0  0  0  0  0  0  0  0  0  0  0  0
   11.9334  -17.6705   25.2394 C   0  0  0  0  0  0  0  0  0  0  0  0
   12.3429  -18.0462   27.6004 O   0  0  0  0  0  0  0  0  0  0  0  0
   11.9024  -19.3730   27.4201 O   0  0  0  0  0  0  0  0  0  0  0  0
  2  1  1  1
  2  3  1  0
  3  4  1  0
  4  5  2  0
  5  6  1  0
  7  6  1  0
  8  7  2  0
  9  8  1  0
 10 11  1  0
 10  9  2  0
 11 12  2  0
 12  4  1  0
 12  7  1  0
 13  2  1  0
 13 23  1  0
 14 13  2  0
 16 15  1  0
 17 16  2  0
 18 16  1  0
 19 18  1  0
 20 19  1  0
 20 21  1  0
 22 21  1  6
 22 24  1  0
 22 23  1  0
 24 31  1  0
 25 24  2  0
 27 28  1  0
 27 26  1  0
 29 28  1  0
 30 29  1  6
 31 30  1  0
 32 33  1  0
 32 30  1  0
 34 32  2  0
M  END
$$$$
