WRM.pdb
     RDKit          3D

 34 35  0  0  1  0  0  0  0  0999 V2000
    6.8630  -18.9181   25.3113 N   0  0  0  0  0  0  0  0  0  0  0  0
    6.8758  -17.5210   24.9267 C   0  0  1  0  0  0  0  0  0  0  0  0
    7.2892  -16.6311   26.0787 C   0  0  0  0  0  0  0  0  0  0  0  0
    6.3866  -15.4703   26.2340 C   0  0  0  0  0  0  0  0  0  0  0  0
    5.0253  -15.4870   26.2443 C   0  0  0  0  0  0  0  0  0  0  0  0
    4.5971  -14.2266   26.4070 N   0  0  0  0  0  0  0  0  0  0  0  0
    5.6596  -13.4092   26.5003 C   0  0  0  0  0  0  0  0  0  0  0  0
    5.7477  -12.0292   26.6718 C   0  0  0  0  0  0  0  0  0  0  0  0
    6.9964  -11.4532   26.7315 C   0  0  0  0  0  0  0  0  0  0  0  0
    8.1518  -12.1984   26.6272 C   0  0  0  0  0  0  0  0  0  0  0  0
    8.0497  -13.5562   26.4586 C   0  0  0  0  0  0  0  0  0  0  0  0
    6.8125  -14.1639   26.3947 C   0  0  0  0  0  0  0  0  0  0  0  0
    7.8052  -17.2673   23.8030 C   0  0  0  0  0  0  0  0  0  0  0  0
    8.6527  -18.1426   23.5222 O   0  0  0  0  0  0  0  0  0  0  0  0
    8.9003  -15.3890   17.0212 N   0  0  0  0  0  0  0  0  0  0  0  0
    8.3792  -14.0642   16.8168 C   0  0  0  0  0  0  0  0  0  0  0  0
    7.9028  -13.7179   15.6715 N   0  0  0  0  0  0  0  0  0  0  0  0
    8.3692  -13.1008   17.8564 N   0  0  0  0  0  0  0  0  0  0  0  0
    7.8693  -13.3677   19.1685 C   0  0  0  0  0  0  0  0  0  0  0  0
    8.8668  -14.1037   20.0544 C   0  0  0  0  0  0  0  0  0  0  0  0
    8.1094  -14.4781   21.3113 C   0  0  0  0  0  0  0  0  0  0  0  0
    8.5621  -15.8034   21.8753 C   0  0  2  0  0  0  0  0  0  0  0  0
    7.7501  -16.0743   23.0567 N   0  0  0  0  0  0  0  0  0  0  0  0
   10.0141  -15.8003   22.2425 C   0  0  0  0  0  0  0  0  0  0  0  0
   10.8349  -15.4901   21.3692 O   0  0  0  0  0  0  0  0  0  0  0  0
    7.4809  -12.7935   15.5104 C   0  0  0  0  0  0  0  0  0  0  0  0
   11.8246  -15.0866   28.7913 S   0  0  0  0  0  0  0  0  0  0  0  0
   11.7355  -14.4705   27.0874 C   0  0  0  0  0  0  0  0  0  0  0  0
   12.8082  -15.5299   26.0728 C   0  0  0  0  0  0  0  0  0  0  0  0
   12.0313  -16.5666   25.3339 C   0  0  2  0  0  0  0  0  0  0  0  0
   11.8737  -16.3099   23.8733 N   0  0  0  0  0  0  0  0  0  0  0  0
   10.4798  -16.1326   23.5290 C   0  0  0  0  0  0  0  0  0  0  0  0
   12.5217  -17.3420   23.0279 O   0  0  0  0  0  0  0  0  0  0  0  0
   13.9236  -17.4388   22.9161 O   0  0  0  0  0  0  0  0  0  0  0  0
  2  1  1  1
  2  3  1  0
  3  4  1  0
  4  5  2  0
  5  6  1  0
  7  6  1  0
  8  7  2  0
  9  8  1  0
 10 11  1  0
 10  9  2  0
 11 12  2  0
 12  4  1  0
 12  7  1  0
 13  2  1  0
 13 23  1  0
 14 13  2  0
 16 15  1  0
 17 16  2  0
 18 16  1  0
 19 18  1  0
 20 19  1  0
 20 21  1  0
 22 21  1  1
 22 24  1  0
 22 23  1  0
 24 31  1  0
 25 24  2  0
 27 28  1  0
 27 26  1  0
 29 28  1  0
 30 29  1  1
 31 30  1  0
 32 33  1  0
 32 30  1  0
 34 32  2  0
M  END
$$$$
