WRM.pdb
     RDKit          3D

 34 35  0  0  1  0  0  0  0  0999 V2000
    7.7997  -16.7862   20.3747 N   0  0  0  0  0  0  0  0  0  0  0  0
    8.2600  -16.3759   21.6861 C   0  0  1  0  0  0  0  0  0  0  0  0
    7.1371  -15.7829   22.5090 C   0  0  0  0  0  0  0  0  0  0  0  0
    7.1196  -14.3060   22.4402 C   0  0  0  0  0  0  0  0  0  0  0  0
    7.0676  -13.5391   21.3164 C   0  0  0  0  0  0  0  0  0  0  0  0
    7.0705  -12.2520   21.6931 N   0  0  0  0  0  0  0  0  0  0  0  0
    7.1233  -12.1859   23.0343 C   0  0  0  0  0  0  0  0  0  0  0  0
    7.1493  -11.0963   23.9023 C   0  0  0  0  0  0  0  0  0  0  0  0
    7.2070  -11.3365   25.2564 C   0  0  0  0  0  0  0  0  0  0  0  0
    7.2395  -12.6149   25.7720 C   0  0  0  0  0  0  0  0  0  0  0  0
    7.2135  -13.6781   24.9053 C   0  0  0  0  0  0  0  0  0  0  0  0
    7.1558  -13.4707   23.5424 C   0  0  0  0  0  0  0  0  0  0  0  0
    8.8306  -17.5086   22.4491 C   0  0  0  0  0  0  0  0  0  0  0  0
    8.0509  -18.2498   23.0866 O   0  0  0  0  0  0  0  0  0  0  0  0
   16.2617  -20.7798   23.9581 N   0  0  0  0  0  0  0  0  0  0  0  0
   15.5586  -22.0252   24.1099 C   0  0  0  0  0  0  0  0  0  0  0  0
   16.1019  -23.0115   24.7350 N   0  0  0  0  0  0  0  0  0  0  0  0
   14.2556  -22.2120   23.5842 N   0  0  0  0  0  0  0  0  0  0  0  0
   13.5533  -21.2053   22.8522 C   0  0  0  0  0  0  0  0  0  0  0  0
   12.5492  -20.4347   23.7004 C   0  0  0  0  0  0  0  0  0  0  0  0
   11.9033  -19.4296   22.7696 C   0  0  0  0  0  0  0  0  0  0  0  0
   10.8942  -18.5610   23.4815 C   0  0  2  0  0  0  0  0  0  0  0  0
   10.2159  -17.7608   22.4675 N   0  0  0  0  0  0  0  0  0  0  0  0
   11.5307  -17.6648   24.4988 C   0  0  0  0  0  0  0  0  0  0  0  0
   12.6225  -17.1517   24.2210 O   0  0  0  0  0  0  0  0  0  0  0  0
   15.6410  -23.9274   24.8193 C   0  0  0  0  0  0  0  0  0  0  0  0
   10.5197  -13.0320   29.1294 S   0  0  0  0  0  0  0  0  0  0  0  0
    9.2681  -14.0536   28.3043 C   0  0  0  0  0  0  0  0  0  0  0  0
   10.1413  -15.1465   27.1445 C   0  0  0  0  0  0  0  0  0  0  0  0
   10.9347  -16.1922   27.8525 C   0  0  2  0  0  0  0  0  0  0  0  0
   11.6866  -17.1207   26.9599 N   0  0  0  0  0  0  0  0  0  0  0  0
   10.9431  -17.3843   25.7472 C   0  0  0  0  0  0  0  0  0  0  0  0
   12.0960  -18.3750   27.6373 O   0  0  0  0  0  0  0  0  0  0  0  0
   11.2510  -19.5022   27.6885 O   0  0  0  0  0  0  0  0  0  0  0  0
  2  1  1  6
  2  3  1  0
  3  4  1  0
  4  5  2  0
  5  6  1  0
  7  6  1  0
  8  7  2  0
  9  8  1  0
 10 11  1  0
 10  9  2  0
 11 12  2  0
 12  4  1  0
 12  7  1  0
 13  2  1  0
 13 23  1  0
 14 13  2  0
 16 15  1  0
 17 16  2  0
 18 16  1  0
 19 18  1  0
 20 19  1  0
 20 21  1  0
 22 21  1  6
 22 24  1  0
 22 23  1  0
 24 31  1  0
 25 24  2  0
 27 28  1  0
 27 26  1  0
 29 28  1  0
 30 29  1  6
 31 30  1  0
 32 33  1  0
 32 30  1  0
 34 32  2  0
M  END
$$$$
