WRM.pdb
     RDKit          3D

 34 35  0  0  1  0  0  0  0  0999 V2000
    6.2119  -17.7122   25.3662 N   0  0  0  0  0  0  0  0  0  0  0  0
    6.9720  -16.8624   24.4717 C   0  0  1  0  0  0  0  0  0  0  0  0
    7.6989  -15.7706   25.2261 C   0  0  0  0  0  0  0  0  0  0  0  0
    6.7730  -14.7333   25.7291 C   0  0  0  0  0  0  0  0  0  0  0  0
    5.7084  -14.9180   26.5575 C   0  0  0  0  0  0  0  0  0  0  0  0
    5.1353  -13.7239   26.7674 N   0  0  0  0  0  0  0  0  0  0  0  0
    5.8147  -12.7839   26.0886 C   0  0  0  0  0  0  0  0  0  0  0  0
    5.6231  -11.4082   25.9785 C   0  0  0  0  0  0  0  0  0  0  0  0
    6.4931  -10.6846   25.1950 C   0  0  0  0  0  0  0  0  0  0  0  0
    7.5397  -11.2791   24.5224 C   0  0  0  0  0  0  0  0  0  0  0  0
    7.7161  -12.6346   24.6400 C   0  0  0  0  0  0  0  0  0  0  0  0
    6.8610  -13.3882   25.4177 C   0  0  0  0  0  0  0  0  0  0  0  0
    7.9789  -17.6302   23.7052 C   0  0  0  0  0  0  0  0  0  0  0  0
    8.3962  -18.7076   24.1832 O   0  0  0  0  0  0  0  0  0  0  0  0
   13.8107  -18.1037   18.3194 N   0  0  0  0  0  0  0  0  0  0  0  0
   12.7622  -18.7733   17.5980 C   0  0  0  0  0  0  0  0  0  0  0  0
   13.0151  -19.8301   16.9067 N   0  0  0  0  0  0  0  0  0  0  0  0
   11.4257  -18.3017   17.6208 N   0  0  0  0  0  0  0  0  0  0  0  0
   11.0083  -17.1640   18.3784 C   0  0  0  0  0  0  0  0  0  0  0  0
   11.1928  -17.3405   19.8805 C   0  0  0  0  0  0  0  0  0  0  0  0
    9.8176  -17.1689   20.4914 C   0  0  0  0  0  0  0  0  0  0  0  0
    9.8268  -17.3882   21.9851 C   0  0  2  0  0  0  0  0  0  0  0  0
    8.4660  -17.1734   22.4654 N   0  0  0  0  0  0  0  0  0  0  0  0
   10.7701  -16.4636   22.6910 C   0  0  0  0  0  0  0  0  0  0  0  0
   10.4584  -15.2687   22.7779 O   0  0  0  0  0  0  0  0  0  0  0  0
   12.2814  -20.3397   16.3964 C   0  0  0  0  0  0  0  0  0  0  0  0
   11.5575  -14.3252   29.1488 S   0  0  0  0  0  0  0  0  0  0  0  0
   11.0683  -14.6440   27.4313 C   0  0  0  0  0  0  0  0  0  0  0  0
   11.7414  -16.2678   26.9701 C   0  0  0  0  0  0  0  0  0  0  0  0
   11.3627  -16.6550   25.5805 C   0  0  2  0  0  0  0  0  0  0  0  0
   12.4536  -16.5209   24.5725 N   0  0  0  0  0  0  0  0  0  0  0  0
   11.9863  -16.8940   23.2552 C   0  0  0  0  0  0  0  0  0  0  0  0
   13.6858  -17.2563   24.9474 O   0  0  0  0  0  0  0  0  0  0  0  0
   13.7716  -18.6601   24.8528 O   0  0  0  0  0  0  0  0  0  0  0  0
  2  1  1  1
  2  3  1  0
  3  4  1  0
  4  5  2  0
  5  6  1  0
  7  6  1  0
  8  7  2  0
  9  8  1  0
 10 11  1  0
 10  9  2  0
 11 12  2  0
 12  4  1  0
 12  7  1  0
 13  2  1  0
 13 23  1  0
 14 13  2  0
 16 15  1  0
 17 16  2  0
 18 16  1  0
 19 18  1  0
 20 19  1  0
 20 21  1  0
 22 21  1  6
 22 24  1  0
 22 23  1  0
 24 31  1  0
 25 24  2  0
 27 28  1  0
 27 26  1  0
 29 28  1  0
 30 29  1  6
 31 30  1  0
 32 33  1  0
 32 30  1  0
 34 32  2  0
M  END
$$$$
