WRM.pdb
     RDKit          3D

 34 35  0  0  1  0  0  0  0  0999 V2000
    6.0104  -18.2928   24.1918 N   0  0  0  0  0  0  0  0  0  0  0  0
    6.6063  -16.9728   24.1432 C   0  0  1  0  0  0  0  0  0  0  0  0
    7.1415  -16.5544   25.4954 C   0  0  0  0  0  0  0  0  0  0  0  0
    6.4618  -15.3468   26.0111 C   0  0  0  0  0  0  0  0  0  0  0  0
    5.2308  -15.2839   26.5894 C   0  0  0  0  0  0  0  0  0  0  0  0
    4.9906  -14.0049   26.9134 N   0  0  0  0  0  0  0  0  0  0  0  0
    6.0447  -13.2537   26.5521 C   0  0  0  0  0  0  0  0  0  0  0  0
    6.2837  -11.8859   26.6679 C   0  0  0  0  0  0  0  0  0  0  0  0
    7.4772  -11.3858   26.1989 C   0  0  0  0  0  0  0  0  0  0  0  0
    8.4338  -12.1947   25.6230 C   0  0  0  0  0  0  0  0  0  0  0  0
    8.1847  -13.5395   25.5156 C   0  0  0  0  0  0  0  0  0  0  0  0
    6.9978  -14.0719   25.9760 C   0  0  0  0  0  0  0  0  0  0  0  0
    7.7237  -16.9079   23.1746 C   0  0  0  0  0  0  0  0  0  0  0  0
    8.5109  -17.8771   23.1082 O   0  0  0  0  0  0  0  0  0  0  0  0
    8.5297  -12.8829   16.9752 N   0  0  0  0  0  0  0  0  0  0  0  0
    7.9659  -14.0532   16.3581 C   0  0  0  0  0  0  0  0  0  0  0  0
    7.6117  -14.0339   15.1200 N   0  0  0  0  0  0  0  0  0  0  0  0
    7.7817  -15.2588   17.0803 N   0  0  0  0  0  0  0  0  0  0  0  0
    8.3796  -15.5092   18.3541 C   0  0  0  0  0  0  0  0  0  0  0  0
    7.6485  -14.8308   19.5059 C   0  0  0  0  0  0  0  0  0  0  0  0
    8.7149  -14.4647   20.5171 C   0  0  0  0  0  0  0  0  0  0  0  0
    9.0445  -15.6144   21.4385 C   0  0  2  0  0  0  0  0  0  0  0  0
    7.9105  -15.7895   22.3396 N   0  0  0  0  0  0  0  0  0  0  0  0
   10.2931  -15.3712   22.2290 C   0  0  0  0  0  0  0  0  0  0  0  0
   10.8034  -14.2444   22.1796 O   0  0  0  0  0  0  0  0  0  0  0  0
    7.2627  -14.8724   14.6368 C   0  0  0  0  0  0  0  0  0  0  0  0
   11.6753  -14.1775   28.8314 S   0  0  0  0  0  0  0  0  0  0  0  0
   10.7864  -13.9802   27.2624 C   0  0  0  0  0  0  0  0  0  0  0  0
   11.2064  -15.4083   26.2199 C   0  0  0  0  0  0  0  0  0  0  0  0
   11.6652  -14.9932   24.8630 C   0  0  1  0  0  0  0  0  0  0  0  0
   11.9933  -16.1181   23.9404 N   0  0  0  0  0  0  0  0  0  0  0  0
   10.9049  -16.3630   23.0194 C   0  0  0  0  0  0  0  0  0  0  0  0
   12.4001  -17.3543   24.6518 O   0  0  0  0  0  0  0  0  0  0  0  0
   13.6058  -17.4317   25.3780 O   0  0  0  0  0  0  0  0  0  0  0  0
  2  1  1  1
  2  3  1  0
  3  4  1  0
  4  5  2  0
  5  6  1  0
  7  6  1  0
  8  7  2  0
  9  8  1  0
 10 11  1  0
 10  9  2  0
 11 12  2  0
 12  4  1  0
 12  7  1  0
 13  2  1  0
 13 23  1  0
 14 13  2  0
 16 15  1  0
 17 16  2  0
 18 16  1  0
 19 18  1  0
 20 19  1  0
 20 21  1  0
 22 21  1  6
 22 24  1  0
 22 23  1  0
 24 31  1  0
 25 24  2  0
 27 28  1  0
 27 26  1  0
 29 28  1  0
 30 29  1  6
 31 30  1  0
 32 33  1  0
 32 30  1  0
 34 32  2  0
M  END
$$$$
