WRM.pdb
     RDKit          3D

 34 35  0  0  1  0  0  0  0  0999 V2000
    6.6668  -18.6689   25.8577 N   0  0  0  0  0  0  0  0  0  0  0  0
    6.7551  -17.2833   25.4425 C   0  0  1  0  0  0  0  0  0  0  0  0
    7.2187  -16.3923   26.5743 C   0  0  0  0  0  0  0  0  0  0  0  0
    6.3154  -15.2397   26.7781 C   0  0  0  0  0  0  0  0  0  0  0  0
    5.0076  -15.2806   27.1543 C   0  0  0  0  0  0  0  0  0  0  0  0
    4.5568  -14.0195   27.2225 N   0  0  0  0  0  0  0  0  0  0  0  0
    5.5525  -13.1777   26.8969 C   0  0  0  0  0  0  0  0  0  0  0  0
    5.5937  -11.7873   26.8164 C   0  0  0  0  0  0  0  0  0  0  0  0
    6.7755  -11.1856   26.4476 C   0  0  0  0  0  0  0  0  0  0  0  0
    7.9091  -11.9152   26.1585 C   0  0  0  0  0  0  0  0  0  0  0  0
    7.8537  -13.2835   26.2419 C   0  0  0  0  0  0  0  0  0  0  0  0
    6.6840  -13.9170   26.6087 C   0  0  0  0  0  0  0  0  0  0  0  0
    7.6946  -17.1054   24.3127 C   0  0  0  0  0  0  0  0  0  0  0  0
    8.7284  -17.8081   24.2819 O   0  0  0  0  0  0  0  0  0  0  0  0
    9.3328  -14.5727   16.9855 N   0  0  0  0  0  0  0  0  0  0  0  0
    9.6449  -13.3780   17.7228 C   0  0  0  0  0  0  0  0  0  0  0  0
   10.8512  -12.9285   17.7603 N   0  0  0  0  0  0  0  0  0  0  0  0
    8.6481  -12.6575   18.4272 N   0  0  0  0  0  0  0  0  0  0  0  0
    7.9214  -13.1998   19.5320 C   0  0  0  0  0  0  0  0  0  0  0  0
    8.6723  -14.3072   20.2608 C   0  0  0  0  0  0  0  0  0  0  0  0
    7.7758  -14.7346   21.4042 C   0  0  0  0  0  0  0  0  0  0  0  0
    8.3958  -15.8332   22.2338 C   0  0  2  0  0  0  0  0  0  0  0  0
    7.4457  -16.1722   23.2878 N   0  0  0  0  0  0  0  0  0  0  0  0
    9.7038  -15.4226   22.8370 C   0  0  0  0  0  0  0  0  0  0  0  0
    9.8003  -14.2757   23.2927 O   0  0  0  0  0  0  0  0  0  0  0  0
   11.1189  -12.1257   18.3453 C   0  0  0  0  0  0  0  0  0  0  0  0
   10.6441  -14.9639   28.1013 S   0  0  0  0  0  0  0  0  0  0  0  0
   12.2969  -15.3693   27.4731 C   0  0  0  0  0  0  0  0  0  0  0  0
   12.0768  -16.2188   25.8817 C   0  0  0  0  0  0  0  0  0  0  0  0
   12.0230  -15.2607   24.7401 C   0  0  1  0  0  0  0  0  0  0  0  0
   12.1236  -15.8869   23.3904 N   0  0  0  0  0  0  0  0  0  0  0  0
   10.8182  -16.2804   22.9066 C   0  0  0  0  0  0  0  0  0  0  0  0
   13.0900  -17.0109   23.3409 O   0  0  0  0  0  0  0  0  0  0  0  0
   14.4683  -16.8168   23.5639 O   0  0  0  0  0  0  0  0  0  0  0  0
  2  1  1  1
  2  3  1  0
  3  4  1  0
  4  5  2  0
  5  6  1  0
  7  6  1  0
  8  7  2  0
  9  8  1  0
 10 11  1  0
 10  9  2  0
 11 12  2  0
 12  4  1  0
 12  7  1  0
 13  2  1  0
 13 23  1  0
 14 13  2  0
 16 15  1  0
 17 16  2  0
 18 16  1  0
 19 18  1  0
 20 19  1  0
 20 21  1  0
 22 21  1  1
 22 24  1  0
 22 23  1  0
 24 31  1  0
 25 24  2  0
 27 28  1  0
 27 26  1  0
 29 28  1  0
 30 29  1  6
 31 30  1  0
 32 33  1  0
 32 30  1  0
 34 32  2  0
M  END
$$$$
