WRM.pdb
     RDKit          3D

 34 35  0  0  1  0  0  0  0  0999 V2000
    8.2216  -16.2745   20.9640 N   0  0  0  0  0  0  0  0  0  0  0  0
    8.6380  -16.6594   22.2976 C   0  0  1  0  0  0  0  0  0  0  0  0
    7.7146  -16.0920   23.3537 C   0  0  0  0  0  0  0  0  0  0  0  0
    7.6096  -14.6198   23.2653 C   0  0  0  0  0  0  0  0  0  0  0  0
    7.7770  -13.8522   22.1533 C   0  0  0  0  0  0  0  0  0  0  0  0
    7.5973  -12.5704   22.5043 N   0  0  0  0  0  0  0  0  0  0  0  0
    7.3190  -12.5084   23.8176 C   0  0  0  0  0  0  0  0  0  0  0  0
    7.0566  -11.4247   24.6532 C   0  0  0  0  0  0  0  0  0  0  0  0
    6.8017  -11.6680   25.9838 C   0  0  0  0  0  0  0  0  0  0  0  0
    6.7989  -12.9437   26.5070 C   0  0  0  0  0  0  0  0  0  0  0  0
    7.0590  -14.0010   25.6723 C   0  0  0  0  0  0  0  0  0  0  0  0
    7.3185  -13.7904   24.3336 C   0  0  0  0  0  0  0  0  0  0  0  0
    8.6654  -18.1299   22.4635 C   0  0  0  0  0  0  0  0  0  0  0  0
    8.2080  -18.8415   21.5427 O   0  0  0  0  0  0  0  0  0  0  0  0
   11.8777  -18.1601   18.1939 N   0  0  0  0  0  0  0  0  0  0  0  0
   12.8401  -19.0372   18.8046 C   0  0  0  0  0  0  0  0  0  0  0  0
   13.9941  -19.2210   18.2632 N   0  0  0  0  0  0  0  0  0  0  0  0
   12.5587  -19.7240   20.0122 N   0  0  0  0  0  0  0  0  0  0  0  0
   11.2514  -20.1768   20.3708 C   0  0  0  0  0  0  0  0  0  0  0  0
   10.4705  -19.1650   21.2002 C   0  0  0  0  0  0  0  0  0  0  0  0
   11.2731  -18.9585   22.4678 C   0  0  0  0  0  0  0  0  0  0  0  0
   10.5031  -19.3638   23.7016 C   0  0  2  0  0  0  0  0  0  0  0  0
    9.1910  -18.7306   23.6238 N   0  0  0  0  0  0  0  0  0  0  0  0
   11.1946  -18.9538   24.9652 C   0  0  0  0  0  0  0  0  0  0  0  0
   12.1307  -19.6553   25.3705 O   0  0  0  0  0  0  0  0  0  0  0  0
   14.8679  -18.9374   18.7262 C   0  0  0  0  0  0  0  0  0  0  0  0
   10.5663  -13.2903   29.2097 S   0  0  0  0  0  0  0  0  0  0  0  0
    9.4541  -13.9325   27.9285 C   0  0  0  0  0  0  0  0  0  0  0  0
    9.7771  -15.7143   27.7760 C   0  0  0  0  0  0  0  0  0  0  0  0
   11.1498  -15.9909   27.2627 C   0  0  1  0  0  0  0  0  0  0  0  0
   11.4296  -17.4244   26.9609 N   0  0  0  0  0  0  0  0  0  0  0  0
   10.8271  -17.8132   25.7045 C   0  0  0  0  0  0  0  0  0  0  0  0
   11.0409  -18.3377   28.0629 O   0  0  0  0  0  0  0  0  0  0  0  0
   11.6472  -18.2698   29.3337 O   0  0  0  0  0  0  0  0  0  0  0  0
  2  1  1  6
  2  3  1  0
  3  4  1  0
  4  5  2  0
  5  6  1  0
  7  6  1  0
  8  7  2  0
  9  8  1  0
 10 11  1  0
 10  9  2  0
 11 12  2  0
 12  4  1  0
 12  7  1  0
 13  2  1  0
 13 23  1  0
 14 13  2  0
 16 15  1  0
 17 16  2  0
 18 16  1  0
 19 18  1  0
 20 19  1  0
 20 21  1  0
 22 21  1  6
 22 24  1  0
 22 23  1  0
 24 31  1  0
 25 24  2  0
 27 28  1  0
 27 26  1  0
 29 28  1  0
 30 29  1  6
 31 30  1  0
 32 33  1  0
 32 30  1  0
 34 32  2  0
M  END
$$$$
