WRM.pdb
     RDKit          3D

 34 35  0  0  1  0  0  0  0  0999 V2000
    6.2957  -18.4694   25.0989 N   0  0  0  0  0  0  0  0  0  0  0  0
    6.7537  -17.1948   24.5836 C   0  0  1  0  0  0  0  0  0  0  0  0
    7.5406  -16.4256   25.6223 C   0  0  0  0  0  0  0  0  0  0  0  0
    6.8161  -15.2241   26.0890 C   0  0  0  0  0  0  0  0  0  0  0  0
    5.5065  -15.1474   26.4533 C   0  0  0  0  0  0  0  0  0  0  0  0
    5.2496  -13.8805   26.8102 N   0  0  0  0  0  0  0  0  0  0  0  0
    6.3703  -13.1505   26.6797 C   0  0  0  0  0  0  0  0  0  0  0  0
    6.6236  -11.8013   26.9185 C   0  0  0  0  0  0  0  0  0  0  0  0
    7.8931  -11.3209   26.6901 C   0  0  0  0  0  0  0  0  0  0  0  0
    8.9115  -12.1317   26.2357 C   0  0  0  0  0  0  0  0  0  0  0  0
    8.6476  -13.4580   26.0049 C   0  0  0  0  0  0  0  0  0  0  0  0
    7.3852  -13.9703   26.2239 C   0  0  0  0  0  0  0  0  0  0  0  0
    7.6170  -17.3599   23.3927 C   0  0  0  0  0  0  0  0  0  0  0  0
    8.6142  -18.1093   23.4797 O   0  0  0  0  0  0  0  0  0  0  0  0
    8.0156  -15.5267   16.7166 N   0  0  0  0  0  0  0  0  0  0  0  0
    8.3269  -14.1528   16.4267 C   0  0  0  0  0  0  0  0  0  0  0  0
    8.7356  -13.8077   15.2551 N   0  0  0  0  0  0  0  0  0  0  0  0
    8.1963  -13.1381   17.4075 N   0  0  0  0  0  0  0  0  0  0  0  0
    7.6718  -13.3745   18.7158 C   0  0  0  0  0  0  0  0  0  0  0  0
    8.5504  -14.2892   19.5602 C   0  0  0  0  0  0  0  0  0  0  0  0
    7.6069  -15.0492   20.4690 C   0  0  0  0  0  0  0  0  0  0  0  0
    8.3374  -16.0242   21.3607 C   0  0  2  0  0  0  0  0  0  0  0  0
    7.3369  -16.6970   22.1823 N   0  0  0  0  0  0  0  0  0  0  0  0
    9.3479  -15.3490   22.2360 C   0  0  0  0  0  0  0  0  0  0  0  0
    8.9987  -14.3338   22.8524 O   0  0  0  0  0  0  0  0  0  0  0  0
    8.9132  -12.8260   15.0040 C   0  0  0  0  0  0  0  0  0  0  0  0
   12.1261  -13.8608   28.0981 S   0  0  0  0  0  0  0  0  0  0  0  0
   10.7859  -14.4789   27.0433 C   0  0  0  0  0  0  0  0  0  0  0  0
   11.4542  -15.8655   26.0772 C   0  0  0  0  0  0  0  0  0  0  0  0
   10.7212  -16.0553   24.7924 C   0  0  2  0  0  0  0  0  0  0  0  0
   11.4706  -15.6329   23.5742 N   0  0  0  0  0  0  0  0  0  0  0  0
   10.6672  -15.8177   22.3854 C   0  0  0  0  0  0  0  0  0  0  0  0
   12.7954  -16.2880   23.4497 O   0  0  0  0  0  0  0  0  0  0  0  0
   13.1661  -17.0016   22.2919 O   0  0  0  0  0  0  0  0  0  0  0  0
  2  1  1  1
  2  3  1  0
  3  4  1  0
  4  5  2  0
  5  6  1  0
  7  6  1  0
  8  7  2  0
  9  8  1  0
 10 11  1  0
 10  9  2  0
 11 12  2  0
 12  4  1  0
 12  7  1  0
 13  2  1  0
 13 23  1  0
 14 13  2  0
 16 15  1  0
 17 16  2  0
 18 16  1  0
 19 18  1  0
 20 19  1  0
 20 21  1  0
 22 21  1  1
 22 24  1  0
 22 23  1  0
 24 31  1  0
 25 24  2  0
 27 28  1  0
 27 26  1  0
 29 28  1  0
 30 29  1  1
 31 30  1  0
 32 33  1  0
 32 30  1  0
 34 32  2  0
M  END
$$$$
