YIN.pdb
     RDKit          3D

 29 29  0  0  1  0  0  0  0  0999 V2000
   17.0744  -25.4764  -15.4647 O   0  0  0  0  0  0  0  0  0  0  0  0
   18.1588  -24.6078  -15.3573 C   0  0  0  0  0  0  0  0  0  0  0  0
   19.2434  -25.0232  -14.6106 C   0  0  0  0  0  0  0  0  0  0  0  0
   20.3347  -24.1717  -14.4909 C   0  0  0  0  0  0  0  0  0  0  0  0
   20.3341  -22.9475  -15.1007 C   0  0  0  0  0  0  0  0  0  0  0  0
   21.5160  -22.0597  -14.9546 C   0  0  0  0  0  0  0  0  0  0  0  0
   21.7140  -21.6691  -13.5180 C   0  0  2  0  0  0  0  0  0  0  0  0
   20.5892  -20.9845  -12.9484 N   0  0  0  0  0  0  0  0  0  0  0  0
   22.9777  -20.8927  -13.4209 C   0  0  0  0  0  0  0  0  0  0  0  0
   22.9341  -19.6534  -13.5376 O   0  0  0  0  0  0  0  0  0  0  0  0
   19.2444  -22.5493  -15.8416 C   0  0  0  0  0  0  0  0  0  0  0  0
   18.1437  -23.3819  -15.9752 C   0  0  0  0  0  0  0  0  0  0  0  0
   26.3095  -21.2811   -9.5867 C   0  0  0  0  0  0  0  0  0  0  0  0
   25.5733  -20.8443  -10.8040 C   0  0  0  0  0  0  0  0  0  0  0  0
   26.3294  -21.1659  -12.1102 C   0  0  2  0  0  0  0  0  0  0  0  0
   27.6674  -20.4626  -12.0820 C   0  0  0  0  0  0  0  0  0  0  0  0
   25.5103  -20.7605  -13.2849 C   0  0  2  0  0  0  0  0  0  0  0  0
   24.2208  -21.5086  -13.2020 N   0  0  0  0  0  0  0  0  0  0  0  0
   26.0907  -20.9429  -14.6093 C   0  0  0  0  0  0  0  0  0  0  0  0
   26.0871  -22.1391  -15.1040 O   0  0  0  0  0  0  0  0  0  0  0  0
   25.3462  -20.9206  -19.7497 N   0  0  0  0  0  0  0  0  0  0  0  0
   25.6485  -19.6984  -19.0388 C   0  0  0  0  0  0  0  0  0  0  0  0
   26.0106  -18.7324  -19.7415 O   0  0  0  0  0  0  0  0  0  0  0  0
   25.5140  -19.6749  -17.5821 C   0  0  0  0  0  0  0  0  0  0  0  0
   26.7650  -20.1841  -16.9212 C   0  0  2  0  0  0  0  0  0  0  0  0
   26.6671  -19.9994  -15.4638 N   0  0  0  0  0  0  0  0  0  0  0  0
   27.9078  -19.3632  -17.3325 C   0  0  0  0  0  0  0  0  0  0  0  0
   28.1292  -18.2475  -16.8359 O   0  0  0  0  0  0  0  0  0  0  0  0
   28.7852  -19.8074  -18.2950 O   0  0  0  0  0  0  0  0  0  0  0  0
  2  1  1  0
  3  2  2  0
  4  3  1  0
  5  4  2  0
  5 11  1  0
  6  5  1  0
  7  6  1  0
  7  9  1  0
  7  8  1  6
  9 10  2  0
 11 12  2  0
 12  2  1  0
 13 14  1  0
 15 14  1  0
 15 17  1  0
 15 16  1  1
 17 18  1  6
 18  9  1  0
 19 17  1  0
 19 20  2  0
 21 22  1  0
 22 24  1  0
 23 22  2  0
 25 24  1  6
 25 26  1  0
 25 27  1  0
 26 19  1  0
 27 29  1  0
 28 27  2  0
M  END
$$$$
