YIN.pdb
     RDKit          3D

 29 29  0  0  1  0  0  0  0  0999 V2000
   28.6108  -13.3386  -17.2229 O   0  0  0  0  0  0  0  0  0  0  0  0
   27.9530  -14.4611  -16.7237 C   0  0  0  0  0  0  0  0  0  0  0  0
   27.6117  -15.4565  -17.6176 C   0  0  0  0  0  0  0  0  0  0  0  0
   26.9550  -16.5839  -17.1401 C   0  0  0  0  0  0  0  0  0  0  0  0
   26.6534  -16.7047  -15.8116 C   0  0  0  0  0  0  0  0  0  0  0  0
   25.9511  -17.9223  -15.3313 C   0  0  0  0  0  0  0  0  0  0  0  0
   26.8934  -18.8186  -14.5800 C   0  0  2  0  0  0  0  0  0  0  0  0
   27.9628  -19.3331  -15.3862 N   0  0  0  0  0  0  0  0  0  0  0  0
   26.0920  -19.8864  -13.9265 C   0  0  0  0  0  0  0  0  0  0  0  0
   25.9338  -20.9698  -14.5200 O   0  0  0  0  0  0  0  0  0  0  0  0
   27.0013  -15.7028  -14.9340 C   0  0  0  0  0  0  0  0  0  0  0  0
   27.6569  -14.5682  -15.3873 C   0  0  0  0  0  0  0  0  0  0  0  0
   26.6773  -20.7407   -8.7770 C   0  0  0  0  0  0  0  0  0  0  0  0
   26.3212  -21.0653  -10.1849 C   0  0  0  0  0  0  0  0  0  0  0  0
   24.8772  -20.6594  -10.5474 C   0  0  2  0  0  0  0  0  0  0  0  0
   23.9183  -21.5336   -9.7716 C   0  0  0  0  0  0  0  0  0  0  0  0
   24.6710  -20.7724  -12.0171 C   0  0  2  0  0  0  0  0  0  0  0  0
   25.5061  -19.7157  -12.6616 N   0  0  0  0  0  0  0  0  0  0  0  0
   23.3051  -20.6811  -12.5173 C   0  0  0  0  0  0  0  0  0  0  0  0
   22.7463  -19.5134  -12.5201 O   0  0  0  0  0  0  0  0  0  0  0  0
   18.6431  -21.1147  -14.5705 N   0  0  0  0  0  0  0  0  0  0  0  0
   19.3859  -22.2656  -15.0333 C   0  0  0  0  0  0  0  0  0  0  0  0
   18.7897  -23.0158  -15.8331 O   0  0  0  0  0  0  0  0  0  0  0  0
   20.7505  -22.4701  -14.5465 C   0  0  0  0  0  0  0  0  0  0  0  0
   21.1131  -21.4328  -13.5199 C   0  0  2  0  0  0  0  0  0  0  0  0
   22.4733  -21.6866  -13.0167 N   0  0  0  0  0  0  0  0  0  0  0  0
   20.2422  -21.5738  -12.3491 C   0  0  0  0  0  0  0  0  0  0  0  0
   20.4451  -22.4339  -11.4778 O   0  0  0  0  0  0  0  0  0  0  0  0
   19.1566  -20.7466  -12.1741 O   0  0  0  0  0  0  0  0  0  0  0  0
  2  1  1  0
  3  2  2  0
  4  3  1  0
  5  4  2  0
  5 11  1  0
  6  5  1  0
  7  6  1  0
  7  9  1  0
  7  8  1  6
  9 10  2  0
 11 12  2  0
 12  2  1  0
 13 14  1  0
 15 14  1  0
 15 17  1  0
 15 16  1  1
 17 18  1  6
 18  9  1  0
 19 17  1  0
 19 20  2  0
 21 22  1  0
 22 24  1  0
 23 22  2  0
 25 24  1  6
 25 26  1  0
 25 27  1  0
 26 19  1  0
 27 29  1  0
 28 27  2  0
M  END
$$$$
