YIN.pdb
     RDKit          3D

 29 29  0  0  1  0  0  0  0  0999 V2000
   25.1942  -13.0086  -20.0877 O   0  0  0  0  0  0  0  0  0  0  0  0
   24.9707  -14.2277  -19.4506 C   0  0  0  0  0  0  0  0  0  0  0  0
   24.7045  -14.2055  -18.0960 C   0  0  0  0  0  0  0  0  0  0  0  0
   24.4790  -15.4103  -17.4419 C   0  0  0  0  0  0  0  0  0  0  0  0
   24.5198  -16.5936  -18.1264 C   0  0  0  0  0  0  0  0  0  0  0  0
   24.2740  -17.8654  -17.3993 C   0  0  0  0  0  0  0  0  0  0  0  0
   25.5543  -18.4123  -16.8360 C   0  0  2  0  0  0  0  0  0  0  0  0
   26.5182  -18.7660  -17.8380 N   0  0  0  0  0  0  0  0  0  0  0  0
   25.2148  -19.5417  -15.9311 C   0  0  0  0  0  0  0  0  0  0  0  0
   24.8075  -20.6093  -16.4264 O   0  0  0  0  0  0  0  0  0  0  0  0
   24.7863  -16.5974  -19.4770 C   0  0  0  0  0  0  0  0  0  0  0  0
   25.0148  -15.4076  -20.1512 C   0  0  0  0  0  0  0  0  0  0  0  0
   28.5101  -20.7313  -12.1686 C   0  0  0  0  0  0  0  0  0  0  0  0
   27.4123  -20.8296  -13.1684 C   0  0  0  0  0  0  0  0  0  0  0  0
   26.0158  -20.6095  -12.5496 C   0  0  2  0  0  0  0  0  0  0  0  0
   25.7516  -21.7083  -11.5453 C   0  0  0  0  0  0  0  0  0  0  0  0
   24.9843  -20.5737  -13.6220 C   0  0  2  0  0  0  0  0  0  0  0  0
   25.3374  -19.4464  -14.5352 N   0  0  0  0  0  0  0  0  0  0  0  0
   23.5904  -20.4480  -13.2155 C   0  0  0  0  0  0  0  0  0  0  0  0
   23.2479  -19.3746  -12.5782 O   0  0  0  0  0  0  0  0  0  0  0  0
   18.5330  -20.6102  -12.4446 N   0  0  0  0  0  0  0  0  0  0  0  0
   18.8738  -20.6899  -13.8475 C   0  0  0  0  0  0  0  0  0  0  0  0
   17.9229  -20.5785  -14.6484 O   0  0  0  0  0  0  0  0  0  0  0  0
   20.2728  -20.8908  -14.2260 C   0  0  0  0  0  0  0  0  0  0  0  0
   21.1421  -21.0289  -13.0069 C   0  0  2  0  0  0  0  0  0  0  0  0
   22.5246  -21.3295  -13.4144 N   0  0  0  0  0  0  0  0  0  0  0  0
   20.7139  -22.1939  -12.2267 C   0  0  0  0  0  0  0  0  0  0  0  0
   21.1352  -23.3366  -12.4654 O   0  0  0  0  0  0  0  0  0  0  0  0
   19.8192  -22.0584  -11.1901 O   0  0  0  0  0  0  0  0  0  0  0  0
  2  1  1  0
  3  2  2  0
  4  3  1  0
  5  4  2  0
  5 11  1  0
  6  5  1  0
  7  6  1  0
  7  9  1  0
  7  8  1  6
  9 10  2  0
 11 12  2  0
 12  2  1  0
 13 14  1  0
 15 14  1  0
 15 17  1  0
 15 16  1  1
 17 18  1  6
 18  9  1  0
 19 17  1  0
 19 20  2  0
 21 22  1  0
 22 24  1  0
 23 22  2  0
 25 24  1  6
 25 26  1  0
 25 27  1  0
 26 19  1  0
 27 29  1  0
 28 27  2  0
M  END
$$$$
