YIN.pdb
     RDKit          3D

 29 29  0  0  1  0  0  0  0  0999 V2000
   16.6191  -24.5345  -16.2146 O   0  0  0  0  0  0  0  0  0  0  0  0
   17.7499  -23.7864  -15.8926 C   0  0  0  0  0  0  0  0  0  0  0  0
   18.7538  -24.4130  -15.1813 C   0  0  0  0  0  0  0  0  0  0  0  0
   19.8895  -23.6846  -14.8500 C   0  0  0  0  0  0  0  0  0  0  0  0
   20.0101  -22.3739  -15.2213 C   0  0  0  0  0  0  0  0  0  0  0  0
   21.2367  -21.6216  -14.8527 C   0  0  0  0  0  0  0  0  0  0  0  0
   21.1894  -21.1995  -13.4122 C   0  0  2  0  0  0  0  0  0  0  0  0
   20.0641  -20.3687  -13.0934 N   0  0  0  0  0  0  0  0  0  0  0  0
   22.4923  -20.5693  -13.0731 C   0  0  0  0  0  0  0  0  0  0  0  0
   22.6069  -19.3329  -13.1697 O   0  0  0  0  0  0  0  0  0  0  0  0
   18.9996  -21.7647  -15.9305 C   0  0  0  0  0  0  0  0  0  0  0  0
   17.8566  -22.4714  -16.2723 C   0  0  0  0  0  0  0  0  0  0  0  0
   24.6246  -21.1057   -8.5646 C   0  0  0  0  0  0  0  0  0  0  0  0
   24.3115  -20.6443   -9.9442 C   0  0  0  0  0  0  0  0  0  0  0  0
   25.3269  -21.1493  -10.9908 C   0  0  2  0  0  0  0  0  0  0  0  0
   26.7027  -20.6499  -10.6122 C   0  0  0  0  0  0  0  0  0  0  0  0
   24.9236  -20.6970  -12.3502 C   0  0  2  0  0  0  0  0  0  0  0  0
   23.5998  -21.3206  -12.6472 N   0  0  0  0  0  0  0  0  0  0  0  0
   25.8410  -20.9626  -13.4511 C   0  0  0  0  0  0  0  0  0  0  0  0
   25.9160  -22.1793  -13.8865 O   0  0  0  0  0  0  0  0  0  0  0  0
   28.8591  -21.3451  -17.4649 N   0  0  0  0  0  0  0  0  0  0  0  0
   28.8367  -22.2184  -16.3127 C   0  0  0  0  0  0  0  0  0  0  0  0
   29.4806  -23.2822  -16.4203 O   0  0  0  0  0  0  0  0  0  0  0  0
   28.0809  -21.8090  -15.1286 C   0  0  0  0  0  0  0  0  0  0  0  0
   27.4391  -20.4659  -15.3418 C   0  0  2  0  0  0  0  0  0  0  0  0
   26.6794  -20.0825  -14.1403 N   0  0  0  0  0  0  0  0  0  0  0  0
   26.4389  -20.5624  -16.4092 C   0  0  0  0  0  0  0  0  0  0  0  0
   25.9038  -21.6398  -16.7142 O   0  0  0  0  0  0  0  0  0  0  0  0
   26.0545  -19.4475  -17.1183 O   0  0  0  0  0  0  0  0  0  0  0  0
  2  1  1  0
  3  2  2  0
  4  3  1  0
  5  4  2  0
  5 11  1  0
  6  5  1  0
  7  6  1  0
  7  9  1  0
  7  8  1  6
  9 10  2  0
 11 12  2  0
 12  2  1  0
 13 14  1  0
 15 14  1  0
 15 17  1  0
 15 16  1  1
 17 18  1  6
 18  9  1  0
 19 17  1  0
 19 20  2  0
 21 22  1  0
 22 24  1  0
 23 22  2  0
 25 24  1  1
 25 26  1  0
 25 27  1  0
 26 19  1  0
 27 29  1  0
 28 27  2  0
M  END
$$$$
