YIN.pdb
     RDKit          3D

 29 29  0  0  1  0  0  0  0  0999 V2000
   19.0284  -16.6293  -21.2433 O   0  0  0  0  0  0  0  0  0  0  0  0
   19.8041  -15.7756  -20.4613 C   0  0  0  0  0  0  0  0  0  0  0  0
   20.0099  -16.1230  -19.1410 C   0  0  0  0  0  0  0  0  0  0  0  0
   20.7802  -15.2850  -18.3443 C   0  0  0  0  0  0  0  0  0  0  0  0
   21.3234  -14.1399  -18.8580 C   0  0  0  0  0  0  0  0  0  0  0  0
   22.1428  -13.2645  -17.9813 C   0  0  0  0  0  0  0  0  0  0  0  0
   23.6031  -13.4072  -18.3021 C   0  0  2  0  0  0  0  0  0  0  0  0
   24.0879  -14.7525  -18.1874 N   0  0  0  0  0  0  0  0  0  0  0  0
   24.3571  -12.4433  -17.4583 C   0  0  0  0  0  0  0  0  0  0  0  0
   25.2246  -12.8767  -16.6767 O   0  0  0  0  0  0  0  0  0  0  0  0
   21.1083  -13.8087  -20.1768 C   0  0  0  0  0  0  0  0  0  0  0  0
   20.3428  -14.6293  -20.9912 C   0  0  0  0  0  0  0  0  0  0  0  0
   28.7176   -9.3714  -16.9678 C   0  0  0  0  0  0  0  0  0  0  0  0
   27.3008   -9.2568  -16.5273 C   0  0  0  0  0  0  0  0  0  0  0  0
   26.3771  -10.2923  -17.2025 C   0  0  2  0  0  0  0  0  0  0  0  0
   26.5329  -10.1767  -18.7018 C   0  0  0  0  0  0  0  0  0  0  0  0
   24.9695  -10.0767  -16.7694 C   0  0  2  0  0  0  0  0  0  0  0  0
   24.1249  -11.0592  -17.5117 N   0  0  0  0  0  0  0  0  0  0  0  0
   24.4100   -8.7405  -16.9291 C   0  0  0  0  0  0  0  0  0  0  0  0
   24.2879   -8.2835  -18.1341 O   0  0  0  0  0  0  0  0  0  0  0  0
   21.2223   -4.7444  -16.4617 N   0  0  0  0  0  0  0  0  0  0  0  0
   20.7735   -5.9200  -15.7495 C   0  0  0  0  0  0  0  0  0  0  0  0
   19.6077   -5.8783  -15.3053 O   0  0  0  0  0  0  0  0  0  0  0  0
   21.6904   -7.0504  -15.6000 C   0  0  0  0  0  0  0  0  0  0  0  0
   23.0181   -6.7501  -16.2389 C   0  0  2  0  0  0  0  0  0  0  0  0
   23.9636   -7.8426  -15.9559 N   0  0  0  0  0  0  0  0  0  0  0  0
   23.6089   -5.5640  -15.6119 C   0  0  0  0  0  0  0  0  0  0  0  0
   24.6231   -5.6324  -14.8999 O   0  0  0  0  0  0  0  0  0  0  0  0
   23.0522   -4.3189  -15.7938 O   0  0  0  0  0  0  0  0  0  0  0  0
  2  1  1  0
  3  2  2  0
  4  3  1  0
  5  4  2  0
  5 11  1  0
  6  5  1  0
  7  6  1  0
  7  9  1  0
  7  8  1  1
  9 10  2  0
 11 12  2  0
 12  2  1  0
 13 14  1  0
 15 14  1  0
 15 17  1  0
 15 16  1  6
 17 18  1  6
 18  9  1  0
 19 17  1  0
 19 20  2  0
 21 22  1  0
 22 24  1  0
 23 22  2  0
 25 24  1  1
 25 26  1  0
 25 27  1  0
 26 19  1  0
 27 29  1  0
 28 27  2  0
M  END
$$$$
