YIN.pdb
     RDKit          3D

 29 29  0  0  1  0  0  0  0  0999 V2000
   21.1772  -16.4314  -24.2261 O   0  0  0  0  0  0  0  0  0  0  0  0
   21.3152  -15.6218  -23.1004 C   0  0  0  0  0  0  0  0  0  0  0  0
   20.1813  -15.3510  -22.3606 C   0  0  0  0  0  0  0  0  0  0  0  0
   20.2975  -14.5455  -21.2345 C   0  0  0  0  0  0  0  0  0  0  0  0
   21.5104  -14.0319  -20.8668 C   0  0  0  0  0  0  0  0  0  0  0  0
   21.6027  -13.1743  -19.6575 C   0  0  0  0  0  0  0  0  0  0  0  0
   22.6780  -13.6706  -18.7339 C   0  0  2  0  0  0  0  0  0  0  0  0
   22.4651  -15.0123  -18.2725 N   0  0  0  0  0  0  0  0  0  0  0  0
   22.8231  -12.6905  -17.6258 C   0  0  0  0  0  0  0  0  0  0  0  0
   22.1358  -12.8374  -16.5976 O   0  0  0  0  0  0  0  0  0  0  0  0
   22.6310  -14.3121  -21.6158 C   0  0  0  0  0  0  0  0  0  0  0  0
   22.5397  -15.1134  -22.7437 C   0  0  0  0  0  0  0  0  0  0  0  0
   27.4655  -11.9206  -15.8189 C   0  0  0  0  0  0  0  0  0  0  0  0
   25.9909  -11.9515  -16.0165 C   0  0  0  0  0  0  0  0  0  0  0  0
   25.4012  -10.5652  -16.3509 C   0  0  2  0  0  0  0  0  0  0  0  0
   25.7525   -9.6067  -15.2358 C   0  0  0  0  0  0  0  0  0  0  0  0
   23.9303  -10.6733  -16.5512 C   0  0  2  0  0  0  0  0  0  0  0  0
   23.7091  -11.6033  -17.6982 N   0  0  0  0  0  0  0  0  0  0  0  0
   23.1863   -9.4407  -16.7779 C   0  0  0  0  0  0  0  0  0  0  0  0
   23.5022   -8.7340  -17.8154 O   0  0  0  0  0  0  0  0  0  0  0  0
   18.0992   -6.2562  -15.8588 N   0  0  0  0  0  0  0  0  0  0  0  0
   19.2908   -6.5539  -16.6218 C   0  0  0  0  0  0  0  0  0  0  0  0
   19.6441   -5.6851  -17.4454 O   0  0  0  0  0  0  0  0  0  0  0  0
   19.9852   -7.8198  -16.3851 C   0  0  0  0  0  0  0  0  0  0  0  0
   21.4759   -7.6227  -16.3979 C   0  0  2  0  0  0  0  0  0  0  0  0
   22.1463   -8.8811  -16.0311 N   0  0  0  0  0  0  0  0  0  0  0  0
   21.8553   -6.6704  -15.3499 C   0  0  0  0  0  0  0  0  0  0  0  0
   22.2738   -7.0429  -14.2424 O   0  0  0  0  0  0  0  0  0  0  0  0
   21.7593   -5.3140  -15.5611 O   0  0  0  0  0  0  0  0  0  0  0  0
  2  1  1  0
  3  2  2  0
  4  3  1  0
  5  4  2  0
  5 11  1  0
  6  5  1  0
  7  6  1  0
  7  9  1  0
  7  8  1  1
  9 10  2  0
 11 12  2  0
 12  2  1  0
 13 14  1  0
 15 14  1  0
 15 17  1  0
 15 16  1  1
 17 18  1  6
 18  9  1  0
 19 17  1  0
 19 20  2  0
 21 22  1  0
 22 24  1  0
 23 22  2  0
 25 24  1  1
 25 26  1  0
 25 27  1  0
 26 19  1  0
 27 29  1  0
 28 27  2  0
M  END
$$$$
