YIN.pdb
     RDKit          3D

 29 29  0  0  1  0  0  0  0  0999 V2000
   21.1655  -16.3171  -18.6065 O   0  0  0  0  0  0  0  0  0  0  0  0
   21.2158  -17.2594  -17.5811 C   0  0  0  0  0  0  0  0  0  0  0  0
   21.0375  -16.8114  -16.2873 C   0  0  0  0  0  0  0  0  0  0  0  0
   21.0843  -17.7350  -15.2505 C   0  0  0  0  0  0  0  0  0  0  0  0
   21.3024  -19.0605  -15.5068 C   0  0  0  0  0  0  0  0  0  0  0  0
   21.3465  -20.0239  -14.3771 C   0  0  0  0  0  0  0  0  0  0  0  0
   22.6864  -19.9885  -13.6995 C   0  0  2  0  0  0  0  0  0  0  0  0
   23.7820  -20.2857  -14.5766 N   0  0  0  0  0  0  0  0  0  0  0  0
   22.6288  -20.8859  -12.5160 C   0  0  0  0  0  0  0  0  0  0  0  0
   22.5992  -22.1181  -12.6949 O   0  0  0  0  0  0  0  0  0  0  0  0
   21.4779  -19.4901  -16.8029 C   0  0  0  0  0  0  0  0  0  0  0  0
   21.4355  -18.5868  -17.8540 C   0  0  0  0  0  0  0  0  0  0  0  0
   25.8436  -19.8373   -8.6474 C   0  0  0  0  0  0  0  0  0  0  0  0
   24.9476  -20.6942   -9.4704 C   0  0  0  0  0  0  0  0  0  0  0  0
   23.4828  -20.6702   -8.9854 C   0  0  2  0  0  0  0  0  0  0  0  0
   23.4001  -21.3853   -7.6560 C   0  0  0  0  0  0  0  0  0  0  0  0
   22.5980  -21.2907  -10.0089 C   0  0  2  0  0  0  0  0  0  0  0  0
   22.6063  -20.3921  -11.2014 N   0  0  0  0  0  0  0  0  0  0  0  0
   21.2204  -21.5762   -9.6283 C   0  0  0  0  0  0  0  0  0  0  0  0
   20.3980  -20.5785   -9.5676 O   0  0  0  0  0  0  0  0  0  0  0  0
   16.5779  -23.3761   -8.4709 N   0  0  0  0  0  0  0  0  0  0  0  0
   17.1168  -24.0395   -9.6372 C   0  0  0  0  0  0  0  0  0  0  0  0
   16.3179  -24.7521  -10.2789 O   0  0  0  0  0  0  0  0  0  0  0  0
   18.5251  -23.8376   -9.9791 C   0  0  0  0  0  0  0  0  0  0  0  0
   19.1941  -22.9356   -8.9792 C   0  0  2  0  0  0  0  0  0  0  0  0
   20.6219  -22.7984   -9.3116 N   0  0  0  0  0  0  0  0  0  0  0  0
   19.1708  -23.5653   -7.6555 C   0  0  0  0  0  0  0  0  0  0  0  0
   20.2084  -23.9386   -7.0860 O   0  0  0  0  0  0  0  0  0  0  0  0
   17.9828  -23.7663   -6.9910 O   0  0  0  0  0  0  0  0  0  0  0  0
  2  1  1  0
  3  2  2  0
  4  3  1  0
  5  4  2  0
  5 11  1  0
  6  5  1  0
  7  6  1  0
  7  9  1  0
  7  8  1  6
  9 10  2  0
 11 12  2  0
 12  2  1  0
 13 14  1  0
 15 14  1  0
 15 17  1  0
 15 16  1  1
 17 18  1  6
 18  9  1  0
 19 17  1  0
 19 20  2  0
 21 22  1  0
 22 24  1  0
 23 22  2  0
 25 24  1  6
 25 26  1  0
 25 27  1  0
 26 19  1  0
 27 29  1  0
 28 27  2  0
M  END
$$$$
