YIN.pdb
     RDKit          3D

 29 29  0  0  1  0  0  0  0  0999 V2000
   29.6605  -16.2603  -19.3068 O   0  0  0  0  0  0  0  0  0  0  0  0
   28.8039  -17.1028  -18.6009 C   0  0  0  0  0  0  0  0  0  0  0  0
   28.3383  -16.6665  -17.3765 C   0  0  0  0  0  0  0  0  0  0  0  0
   27.4834  -17.4919  -16.6566 C   0  0  0  0  0  0  0  0  0  0  0  0
   27.1109  -18.7113  -17.1513 C   0  0  0  0  0  0  0  0  0  0  0  0
   26.1952  -19.5710  -16.3584 C   0  0  0  0  0  0  0  0  0  0  0  0
   26.9350  -20.2467  -15.2396 C   0  0  2  0  0  0  0  0  0  0  0  0
   27.9925  -21.1069  -15.6870 N   0  0  0  0  0  0  0  0  0  0  0  0
   25.9400  -20.9448  -14.3840 C   0  0  0  0  0  0  0  0  0  0  0  0
   25.5757  -22.0936  -14.6980 O   0  0  0  0  0  0  0  0  0  0  0  0
   27.5844  -19.1306  -18.3741 C   0  0  0  0  0  0  0  0  0  0  0  0
   28.4389  -18.3243  -19.1105 C   0  0  0  0  0  0  0  0  0  0  0  0
   26.5026  -20.8991   -9.2163 C   0  0  0  0  0  0  0  0  0  0  0  0
   26.0653  -21.2986  -10.5814 C   0  0  0  0  0  0  0  0  0  0  0  0
   24.6913  -20.7115  -10.9672 C   0  0  2  0  0  0  0  0  0  0  0  0
   23.6484  -21.2516  -10.0152 C   0  0  0  0  0  0  0  0  0  0  0  0
   24.3773  -21.0409  -12.3843 C   0  0  2  0  0  0  0  0  0  0  0  0
   25.3957  -20.3531  -13.2324 N   0  0  0  0  0  0  0  0  0  0  0  0
   23.0430  -20.7182  -12.8738 C   0  0  0  0  0  0  0  0  0  0  0  0
   22.7121  -19.4679  -12.9277 O   0  0  0  0  0  0  0  0  0  0  0  0
   18.2934  -20.4431  -14.7851 N   0  0  0  0  0  0  0  0  0  0  0  0
   19.0236  -21.4487  -15.5243 C   0  0  0  0  0  0  0  0  0  0  0  0
   18.4455  -21.9187  -16.5256 O   0  0  0  0  0  0  0  0  0  0  0  0
   20.3560  -21.8389  -15.0622 C   0  0  0  0  0  0  0  0  0  0  0  0
   20.7287  -21.0911  -13.8119 C   0  0  2  0  0  0  0  0  0  0  0  0
   22.0284  -21.5719  -13.3148 N   0  0  0  0  0  0  0  0  0  0  0  0
   19.7733  -21.4077  -12.7460 C   0  0  0  0  0  0  0  0  0  0  0  0
   19.8716  -22.4361  -12.0583 O   0  0  0  0  0  0  0  0  0  0  0  0
   18.7218  -20.5646  -12.4681 O   0  0  0  0  0  0  0  0  0  0  0  0
  2  1  1  0
  3  2  2  0
  4  3  1  0
  5  4  2  0
  5 11  1  0
  6  5  1  0
  7  6  1  0
  7  9  1  0
  7  8  1  6
  9 10  2  0
 11 12  2  0
 12  2  1  0
 13 14  1  0
 15 14  1  0
 15 17  1  0
 15 16  1  1
 17 18  1  6
 18  9  1  0
 19 17  1  0
 19 20  2  0
 21 22  1  0
 22 24  1  0
 23 22  2  0
 25 24  1  6
 25 26  1  0
 25 27  1  0
 26 19  1  0
 27 29  1  0
 28 27  2  0
M  END
$$$$
