YIN.pdb
     RDKit          3D

 29 29  0  0  1  0  0  0  0  0999 V2000
   25.9052  -16.7628  -18.1915 O   0  0  0  0  0  0  0  0  0  0  0  0
   25.5003  -17.4593  -17.0544 C   0  0  0  0  0  0  0  0  0  0  0  0
   25.0264  -18.7451  -17.2232 C   0  0  0  0  0  0  0  0  0  0  0  0
   24.6174  -19.4565  -16.1021 C   0  0  0  0  0  0  0  0  0  0  0  0
   24.6834  -18.8942  -14.8571 C   0  0  0  0  0  0  0  0  0  0  0  0
   24.2392  -19.6803  -13.6776 C   0  0  0  0  0  0  0  0  0  0  0  0
   25.4166  -20.2801  -12.9638 C   0  0  2  0  0  0  0  0  0  0  0  0
   26.1874  -21.1750  -13.7781 N   0  0  0  0  0  0  0  0  0  0  0  0
   24.9241  -20.9114  -11.7114 C   0  0  0  0  0  0  0  0  0  0  0  0
   24.6261  -22.1206  -11.7229 O   0  0  0  0  0  0  0  0  0  0  0  0
   25.1589  -17.6110  -14.7069 C   0  0  0  0  0  0  0  0  0  0  0  0
   25.5725  -16.8815  -15.8111 C   0  0  0  0  0  0  0  0  0  0  0  0
   27.3714  -19.7290   -7.4088 C   0  0  0  0  0  0  0  0  0  0  0  0
   26.5172  -20.4822   -8.3665 C   0  0  0  0  0  0  0  0  0  0  0  0
   25.0088  -20.2617   -8.1268 C   0  0  2  0  0  0  0  0  0  0  0  0
   24.6250  -20.9144   -6.8183 C   0  0  0  0  0  0  0  0  0  0  0  0
   24.2273  -20.8043   -9.2715 C   0  0  2  0  0  0  0  0  0  0  0  0
   24.7828  -20.1907  -10.5142 N   0  0  0  0  0  0  0  0  0  0  0  0
   22.7811  -20.6249   -9.2485 C   0  0  0  0  0  0  0  0  0  0  0  0
   22.2469  -19.9507  -10.2158 O   0  0  0  0  0  0  0  0  0  0  0  0
   18.8681  -23.8363  -10.6746 N   0  0  0  0  0  0  0  0  0  0  0  0
   19.1539  -22.4262  -10.5316 C   0  0  0  0  0  0  0  0  0  0  0  0
   18.2089  -21.6490  -10.7780 O   0  0  0  0  0  0  0  0  0  0  0  0
   20.4959  -22.0141  -10.1191 C   0  0  0  0  0  0  0  0  0  0  0  0
   20.4948  -21.5403   -8.6920 C   0  0  2  0  0  0  0  0  0  0  0  0
   21.8441  -21.0842   -8.3193 N   0  0  0  0  0  0  0  0  0  0  0  0
   20.2148  -22.6688   -7.7991 C   0  0  0  0  0  0  0  0  0  0  0  0
   21.0238  -23.5959   -7.6368 O   0  0  0  0  0  0  0  0  0  0  0  0
   19.0307  -22.7394   -7.1017 O   0  0  0  0  0  0  0  0  0  0  0  0
  2  1  1  0
  3  2  2  0
  4  3  1  0
  5  4  2  0
  5 11  1  0
  6  5  1  0
  7  6  1  0
  7  9  1  0
  7  8  1  6
  9 10  2  0
 11 12  2  0
 12  2  1  0
 13 14  1  0
 15 14  1  0
 15 17  1  0
 15 16  1  1
 17 18  1  6
 18  9  1  0
 19 17  1  0
 19 20  2  0
 21 22  1  0
 22 24  1  0
 23 22  2  0
 25 24  1  6
 25 26  1  0
 25 27  1  0
 26 19  1  0
 27 29  1  0
 28 27  2  0
M  END
$$$$
