YIN.pdb
     RDKit          3D

 29 29  0  0  1  0  0  0  0  0999 V2000
   30.5585  -29.1239  -20.2321 O   0  0  0  0  0  0  0  0  0  0  0  0
   30.0059  -28.1305  -19.4261 C   0  0  0  0  0  0  0  0  0  0  0  0
   29.4909  -27.0106  -20.0484 C   0  0  0  0  0  0  0  0  0  0  0  0
   28.9356  -26.0084  -19.2627 C   0  0  0  0  0  0  0  0  0  0  0  0
   28.8999  -26.1292  -17.9009 C   0  0  0  0  0  0  0  0  0  0  0  0
   28.2992  -25.0408  -17.0878 C   0  0  0  0  0  0  0  0  0  0  0  0
   29.2980  -23.9462  -16.8429 C   0  0  2  0  0  0  0  0  0  0  0  0
   30.4746  -24.3863  -16.1501 N   0  0  0  0  0  0  0  0  0  0  0  0
   28.5995  -22.8304  -16.1524 C   0  0  0  0  0  0  0  0  0  0  0  0
   29.2311  -22.1421  -15.3286 O   0  0  0  0  0  0  0  0  0  0  0  0
   29.4177  -27.2526  -17.2968 C   0  0  0  0  0  0  0  0  0  0  0  0
   29.9772  -28.2659  -18.0602 C   0  0  0  0  0  0  0  0  0  0  0  0
   29.7005  -18.9676  -16.5730 C   0  0  0  0  0  0  0  0  0  0  0  0
   28.8792  -20.1028  -16.0718 C   0  0  0  0  0  0  0  0  0  0  0  0
   27.4767  -20.1578  -16.7132 C   0  0  2  0  0  0  0  0  0  0  0  0
   26.8440  -18.7883  -16.6144 C   0  0  0  0  0  0  0  0  0  0  0  0
   26.6530  -21.2027  -16.0459 C   0  0  2  0  0  0  0  0  0  0  0  0
   27.2506  -22.5252  -16.3967 N   0  0  0  0  0  0  0  0  0  0  0  0
   25.2249  -21.2253  -16.3359 C   0  0  0  0  0  0  0  0  0  0  0  0
   24.8599  -21.6256  -17.5116 O   0  0  0  0  0  0  0  0  0  0  0  0
   21.6461  -24.1662  -13.3178 N   0  0  0  0  0  0  0  0  0  0  0  0
   22.1824  -23.9261  -14.6390 C   0  0  0  0  0  0  0  0  0  0  0  0
   21.5936  -24.4967  -15.5801 O   0  0  0  0  0  0  0  0  0  0  0  0
   23.3485  -23.0541  -14.7821 C   0  0  0  0  0  0  0  0  0  0  0  0
   22.9523  -21.7208  -15.3535 C   0  0  2  0  0  0  0  0  0  0  0  0
   24.1471  -20.8763  -15.5180 N   0  0  0  0  0  0  0  0  0  0  0  0
   22.1096  -21.0039  -14.3917 C   0  0  0  0  0  0  0  0  0  0  0  0
   22.5872  -20.2300  -13.5471 O   0  0  0  0  0  0  0  0  0  0  0  0
   20.7432  -21.1667  -14.3926 O   0  0  0  0  0  0  0  0  0  0  0  0
  2  1  1  0
  3  2  2  0
  4  3  1  0
  5  4  2  0
  5 11  1  0
  6  5  1  0
  7  6  1  0
  7  9  1  0
  7  8  1  1
  9 10  2  0
 11 12  2  0
 12  2  1  0
 13 14  1  0
 15 14  1  0
 15 17  1  0
 15 16  1  1
 17 18  1  6
 18  9  1  0
 19 17  1  0
 19 20  2  0
 21 22  1  0
 22 24  1  0
 23 22  2  0
 25 24  1  1
 25 26  1  0
 25 27  1  0
 26 19  1  0
 27 29  1  0
 28 27  2  0
M  END
$$$$
