YIN.pdb
     RDKit          3D

 29 29  0  0  1  0  0  0  0  0999 V2000
   18.3656  -22.9316  -17.7311 O   0  0  0  0  0  0  0  0  0  0  0  0
   18.9643  -21.7020  -17.4636 C   0  0  0  0  0  0  0  0  0  0  0  0
   18.5681  -21.0285  -16.3252 C   0  0  0  0  0  0  0  0  0  0  0  0
   19.1527  -19.8007  -16.0405 C   0  0  0  0  0  0  0  0  0  0  0  0
   20.1013  -19.2708  -16.8711 C   0  0  0  0  0  0  0  0  0  0  0  0
   20.7084  -17.9563  -16.5395 C   0  0  0  0  0  0  0  0  0  0  0  0
   22.1067  -18.1316  -16.0204 C   0  0  2  0  0  0  0  0  0  0  0  0
   22.1810  -18.9206  -14.8245 N   0  0  0  0  0  0  0  0  0  0  0  0
   22.7142  -16.7837  -15.8667 C   0  0  0  0  0  0  0  0  0  0  0  0
   22.4759  -16.1296  -14.8340 O   0  0  0  0  0  0  0  0  0  0  0  0
   20.4848  -19.9559  -18.0018 C   0  0  0  0  0  0  0  0  0  0  0  0
   19.9153  -21.1828  -18.3068 C   0  0  0  0  0  0  0  0  0  0  0  0
   27.6541  -16.3176  -15.8907 C   0  0  0  0  0  0  0  0  0  0  0  0
   26.2026  -16.0241  -15.7437 C   0  0  0  0  0  0  0  0  0  0  0  0
   25.6643  -15.0907  -16.8484 C   0  0  2  0  0  0  0  0  0  0  0  0
   26.4264  -13.7861  -16.7951 C   0  0  0  0  0  0  0  0  0  0  0  0
   24.1999  -14.8891  -16.6748 C   0  0  2  0  0  0  0  0  0  0  0  0
   23.5484  -16.2215  -16.8467 N   0  0  0  0  0  0  0  0  0  0  0  0
   23.5443  -13.9153  -17.5386 C   0  0  0  0  0  0  0  0  0  0  0  0
   23.3309  -14.2558  -18.7691 O   0  0  0  0  0  0  0  0  0  0  0  0
   21.0619  -10.0422  -19.8073 N   0  0  0  0  0  0  0  0  0  0  0  0
   20.3727  -10.4641  -18.6082 C   0  0  0  0  0  0  0  0  0  0  0  0
   19.2214  -10.0086  -18.4503 O   0  0  0  0  0  0  0  0  0  0  0  0
   21.0519  -11.3723  -17.6837 C   0  0  0  0  0  0  0  0  0  0  0  0
   22.4002  -11.7695  -18.2180 C   0  0  2  0  0  0  0  0  0  0  0  0
   23.0882  -12.6287  -17.2402 N   0  0  0  0  0  0  0  0  0  0  0  0
   23.2493  -10.5811  -18.3436 C   0  0  0  0  0  0  0  0  0  0  0  0
   24.2304  -10.3926  -17.6073 O   0  0  0  0  0  0  0  0  0  0  0  0
   22.9842   -9.6222  -19.2942 O   0  0  0  0  0  0  0  0  0  0  0  0
  2  1  1  0
  3  2  2  0
  4  3  1  0
  5  4  2  0
  5 11  1  0
  6  5  1  0
  7  6  1  0
  7  9  1  0
  7  8  1  1
  9 10  2  0
 11 12  2  0
 12  2  1  0
 13 14  1  0
 15 14  1  0
 15 17  1  0
 15 16  1  1
 17 18  1  6
 18  9  1  0
 19 17  1  0
 19 20  2  0
 21 22  1  0
 22 24  1  0
 23 22  2  0
 25 24  1  1
 25 26  1  0
 25 27  1  0
 26 19  1  0
 27 29  1  0
 28 27  2  0
M  END
$$$$
