YIN.pdb
     RDKit          3D

 29 29  0  0  1  0  0  0  0  0999 V2000
   29.9836  -16.2809  -19.0298 O   0  0  0  0  0  0  0  0  0  0  0  0
   29.0981  -17.0389  -18.2662 C   0  0  0  0  0  0  0  0  0  0  0  0
   28.4833  -18.1151  -18.8747 C   0  0  0  0  0  0  0  0  0  0  0  0
   27.5967  -18.8836  -18.1306 C   0  0  0  0  0  0  0  0  0  0  0  0
   27.3387  -18.5799  -16.8223 C   0  0  0  0  0  0  0  0  0  0  0  0
   26.3862  -19.4207  -16.0528 C   0  0  0  0  0  0  0  0  0  0  0  0
   27.1174  -20.2902  -15.0705 C   0  0  2  0  0  0  0  0  0  0  0  0
   28.0141  -21.2252  -15.6870 N   0  0  0  0  0  0  0  0  0  0  0  0
   26.1105  -20.9421  -14.1926 C   0  0  0  0  0  0  0  0  0  0  0  0
   25.6828  -22.0705  -14.5008 O   0  0  0  0  0  0  0  0  0  0  0  0
   27.9607  -17.5033  -16.2312 C   0  0  0  0  0  0  0  0  0  0  0  0
   28.8492  -16.7217  -16.9538 C   0  0  0  0  0  0  0  0  0  0  0  0
   26.7237  -20.7197   -8.9960 C   0  0  0  0  0  0  0  0  0  0  0  0
   26.2666  -21.1941  -10.3303 C   0  0  0  0  0  0  0  0  0  0  0  0
   24.9110  -20.5882  -10.7504 C   0  0  2  0  0  0  0  0  0  0  0  0
   23.8487  -21.0583   -9.7829 C   0  0  0  0  0  0  0  0  0  0  0  0
   24.5962  -20.9707  -12.1540 C   0  0  2  0  0  0  0  0  0  0  0  0
   25.6240  -20.3290  -13.0265 N   0  0  0  0  0  0  0  0  0  0  0  0
   23.2666  -20.6532  -12.6594 C   0  0  0  0  0  0  0  0  0  0  0  0
   22.9824  -19.4050  -12.8515 O   0  0  0  0  0  0  0  0  0  0  0  0
   18.7554  -21.4782  -16.2709 N   0  0  0  0  0  0  0  0  0  0  0  0
   18.9965  -21.7121  -14.8645 C   0  0  0  0  0  0  0  0  0  0  0  0
   18.0126  -21.5691  -14.1099 O   0  0  0  0  0  0  0  0  0  0  0  0
   20.3416  -22.0902  -14.4301 C   0  0  0  0  0  0  0  0  0  0  0  0
   20.9275  -21.0392  -13.5283 C   0  0  2  0  0  0  0  0  0  0  0  0
   22.2128  -21.5105  -12.9863 N   0  0  0  0  0  0  0  0  0  0  0  0
   20.0643  -20.8588  -12.3572 C   0  0  0  0  0  0  0  0  0  0  0  0
   20.1290  -21.6086  -11.3703 O   0  0  0  0  0  0  0  0  0  0  0  0
   19.1415  -19.8391  -12.3116 O   0  0  0  0  0  0  0  0  0  0  0  0
  2  1  1  0
  3  2  2  0
  4  3  1  0
  5  4  2  0
  5 11  1  0
  6  5  1  0
  7  6  1  0
  7  9  1  0
  7  8  1  6
  9 10  2  0
 11 12  2  0
 12  2  1  0
 13 14  1  0
 15 14  1  0
 15 17  1  0
 15 16  1  1
 17 18  1  6
 18  9  1  0
 19 17  1  0
 19 20  2  0
 21 22  1  0
 22 24  1  0
 23 22  2  0
 25 24  1  6
 25 26  1  0
 25 27  1  0
 26 19  1  0
 27 29  1  0
 28 27  2  0
M  END
$$$$
