YIN.pdb
     RDKit          3D

 29 29  0  0  1  0  0  0  0  0999 V2000
   14.9638  -14.0688  -21.1377 O   0  0  0  0  0  0  0  0  0  0  0  0
   15.6263  -13.2304  -20.2432 C   0  0  0  0  0  0  0  0  0  0  0  0
   14.9698  -12.8864  -19.0783 C   0  0  0  0  0  0  0  0  0  0  0  0
   15.6129  -12.0512  -18.1733 C   0  0  0  0  0  0  0  0  0  0  0  0
   16.8706  -11.5800  -18.4315 C   0  0  0  0  0  0  0  0  0  0  0  0
   17.5323  -10.6891  -17.4442 C   0  0  0  0  0  0  0  0  0  0  0  0
   18.6133  -11.4242  -16.7047 C   0  0  2  0  0  0  0  0  0  0  0  0
   18.1528  -12.6123  -16.0457 N   0  0  0  0  0  0  0  0  0  0  0  0
   19.2742  -10.4654  -15.7808 C   0  0  0  0  0  0  0  0  0  0  0  0
   18.8237  -10.3322  -14.6273 O   0  0  0  0  0  0  0  0  0  0  0  0
   17.5108  -11.9332  -19.5979 C   0  0  0  0  0  0  0  0  0  0  0  0
   16.8889  -12.7654  -20.5163 C   0  0  0  0  0  0  0  0  0  0  0  0
   24.0431  -10.9691  -14.5935 C   0  0  0  0  0  0  0  0  0  0  0  0
   22.6360  -10.4856  -14.5696 C   0  0  0  0  0  0  0  0  0  0  0  0
   22.4775   -9.0707  -15.1648 C   0  0  2  0  0  0  0  0  0  0  0  0
   23.2529   -8.0948  -14.3093 C   0  0  0  0  0  0  0  0  0  0  0  0
   21.0351   -8.7138  -15.2508 C   0  0  2  0  0  0  0  0  0  0  0  0
   20.3901   -9.7037  -16.1639 N   0  0  0  0  0  0  0  0  0  0  0  0
   20.6972   -7.3641  -15.6848 C   0  0  0  0  0  0  0  0  0  0  0  0
   20.8485   -7.0841  -16.9395 O   0  0  0  0  0  0  0  0  0  0  0  0
   19.4266   -2.6111  -16.7520 N   0  0  0  0  0  0  0  0  0  0  0  0
   20.3760   -3.4868  -17.4018 C   0  0  0  0  0  0  0  0  0  0  0  0
   20.8405   -3.0808  -18.4869 O   0  0  0  0  0  0  0  0  0  0  0  0
   20.7202   -4.7570  -16.7624 C   0  0  0  0  0  0  0  0  0  0  0  0
   19.8896   -4.9770  -15.5284 C   0  0  2  0  0  0  0  0  0  0  0  0
   20.2142   -6.2862  -14.9383 N   0  0  0  0  0  0  0  0  0  0  0  0
   18.4738   -5.0670  -15.8978 C   0  0  0  0  0  0  0  0  0  0  0  0
   17.6798   -4.1354  -15.6933 O   0  0  0  0  0  0  0  0  0  0  0  0
   17.9707   -6.2019  -16.4915 O   0  0  0  0  0  0  0  0  0  0  0  0
  2  1  1  0
  3  2  2  0
  4  3  1  0
  5  4  2  0
  5 11  1  0
  6  5  1  0
  7  6  1  0
  7  9  1  0
  7  8  1  1
  9 10  2  0
 11 12  2  0
 12  2  1  0
 13 14  1  0
 15 14  1  0
 15 17  1  0
 15 16  1  1
 17 18  1  6
 18  9  1  0
 19 17  1  0
 19 20  2  0
 21 22  1  0
 22 24  1  0
 23 22  2  0
 25 24  1  6
 25 26  1  0
 25 27  1  0
 26 19  1  0
 27 29  1  0
 28 27  2  0
M  END
$$$$
