CVI.pdb
     RDKit          3D

 22 21  0  0  1  0  0  0  0  0999 V2000
   24.4107  -21.4318   -9.0827 N   0  0  0  0  0  0  0  0  0  0  0  0
   23.8096  -20.9355  -10.2896 C   0  0  1  0  0  0  0  0  0  0  0  0
   22.6073  -20.1213   -9.9269 C   0  0  0  0  0  0  0  0  0  0  0  0
   21.2912  -21.2658   -9.4209 S   0  0  0  0  0  0  0  0  0  0  0  0
   24.8101  -20.1958  -11.0860 C   0  0  0  0  0  0  0  0  0  0  0  0
   25.6062  -19.3983  -10.5226 O   0  0  0  0  0  0  0  0  0  0  0  0
   27.5045  -21.6214  -12.7811 C   0  0  0  0  0  0  0  0  0  0  0  0
   26.7975  -20.8263  -13.8736 C   0  0  1  0  0  0  0  0  0  0  0  0
   25.9506  -21.7843  -14.6461 C   0  0  0  0  0  0  0  0  0  0  0  0
   25.9763  -19.6958  -13.2565 C   0  0  2  0  0  0  0  0  0  0  0  0
   24.9155  -20.3493  -12.4958 N   0  0  0  0  0  0  0  0  0  0  0  0
   25.4010  -18.9283  -14.3867 C   0  0  0  0  0  0  0  0  0  0  0  0
   24.2366  -19.1970  -14.7701 O   0  0  0  0  0  0  0  0  0  0  0  0
   27.1563  -13.8371  -15.1373 C   0  0  0  0  0  0  0  0  0  0  0  0
   26.2034  -14.9883  -15.1510 C   0  0  0  0  0  0  0  0  0  0  0  0
   26.3078  -15.8526  -16.3879 C   0  0  2  0  0  0  0  0  0  0  0  0
   25.7366  -15.1668  -17.6024 C   0  0  0  0  0  0  0  0  0  0  0  0
   25.5825  -17.1658  -16.1949 C   0  0  2  0  0  0  0  0  0  0  0  0
   26.1043  -17.9011  -15.0588 N   0  0  0  0  0  0  0  0  0  0  0  0
   25.7455  -17.9729  -17.4548 C   0  0  0  0  0  0  0  0  0  0  0  0
   26.8529  -18.5604  -17.6528 O   0  0  0  0  0  0  0  0  0  0  0  0
   24.7738  -18.1159  -18.4051 O   0  0  0  0  0  0  0  0  0  0  0  0
  2  1  1  1
  3  2  1  0
  4  3  1  0
  5  2  1  0
  5  6  2  0
  8  7  1  1
  8 10  1  0
  9  8  1  0
 10 11  1  1
 10 12  1  0
 11  5  1  0
 12 19  1  0
 13 12  2  0
 15 14  1  0
 16 17  1  6
 16 15  1  0
 18 16  1  0
 18 19  1  1
 20 22  1  0
 20 18  1  0
 21 20  2  0
M  END
$$$$
