CVI.pdb
     RDKit          3D

 22 21  0  0  1  0  0  0  0  0999 V2000
   27.1716  -20.6635  -16.7668 N   0  0  0  0  0  0  0  0  0  0  0  0
   27.3461  -21.2442  -15.4642 C   0  0  1  0  0  0  0  0  0  0  0  0
   28.8113  -21.3942  -15.1985 C   0  0  0  0  0  0  0  0  0  0  0  0
   29.3470  -22.9780  -15.9072 S   0  0  0  0  0  0  0  0  0  0  0  0
   26.6378  -20.4356  -14.4508 C   0  0  0  0  0  0  0  0  0  0  0  0
   26.1453  -19.3184  -14.7612 O   0  0  0  0  0  0  0  0  0  0  0  0
   23.8677  -21.9741  -12.9398 C   0  0  0  0  0  0  0  0  0  0  0  0
   24.1530  -20.4797  -12.8344 C   0  0  1  0  0  0  0  0  0  0  0  0
   23.0507  -19.8702  -12.0312 C   0  0  0  0  0  0  0  0  0  0  0  0
   25.5248  -20.2471  -12.2043 C   0  0  2  0  0  0  0  0  0  0  0  0
   26.4846  -20.8754  -13.1072 N   0  0  0  0  0  0  0  0  0  0  0  0
   25.5122  -20.9480  -10.8982 C   0  0  0  0  0  0  0  0  0  0  0  0
   25.3746  -22.1954  -10.8822 O   0  0  0  0  0  0  0  0  0  0  0  0
   28.3560  -18.6763   -6.8636 C   0  0  0  0  0  0  0  0  0  0  0  0
   27.7255  -19.7166   -7.7318 C   0  0  0  0  0  0  0  0  0  0  0  0
   26.3222  -20.0935   -7.3120 C   0  0  2  0  0  0  0  0  0  0  0  0
   26.3106  -20.8584   -6.0134 C   0  0  0  0  0  0  0  0  0  0  0  0
   25.6477  -20.9378   -8.3703 C   0  0  2  0  0  0  0  0  0  0  0  0
   25.6484  -20.2759   -9.6609 N   0  0  0  0  0  0  0  0  0  0  0  0
   24.2349  -21.1990   -7.9216 C   0  0  0  0  0  0  0  0  0  0  0  0
   23.3231  -20.4107   -8.3189 O   0  0  0  0  0  0  0  0  0  0  0  0
   23.8671  -22.2352   -7.1100 O   0  0  0  0  0  0  0  0  0  0  0  0
  2  1  1  6
  3  2  1  0
  4  3  1  0
  5  2  1  0
  5  6  2  0
  8  7  1  1
  8 10  1  0
  9  8  1  0
 10 11  1  6
 10 12  1  0
 11  5  1  0
 12 19  1  0
 13 12  2  0
 15 14  1  0
 16 17  1  1
 16 15  1  0
 18 16  1  0
 18 19  1  6
 20 22  1  0
 20 18  1  0
 21 20  2  0
M  END
$$$$
