CVI.pdb
     RDKit          3D

 22 21  0  0  1  0  0  0  0  0999 V2000
   18.7302  -22.6440  -12.4177 N   0  0  0  0  0  0  0  0  0  0  0  0
   19.4572  -22.4884  -13.6472 C   0  0  1  0  0  0  0  0  0  0  0  0
   18.5411  -21.9014  -14.6749 C   0  0  0  0  0  0  0  0  0  0  0  0
   19.4421  -21.8320  -16.2501 S   0  0  0  0  0  0  0  0  0  0  0  0
   20.6789  -21.6910  -13.4151 C   0  0  0  0  0  0  0  0  0  0  0  0
   20.6189  -20.6113  -12.7687 O   0  0  0  0  0  0  0  0  0  0  0  0
   24.4483  -23.1570  -14.6810 C   0  0  0  0  0  0  0  0  0  0  0  0
   24.3094  -22.1121  -13.5789 C   0  0  1  0  0  0  0  0  0  0  0  0
   25.5907  -21.3460  -13.5258 C   0  0  0  0  0  0  0  0  0  0  0  0
   23.1074  -21.2107  -13.8543 C   0  0  2  0  0  0  0  0  0  0  0  0
   21.9508  -22.1002  -13.9020 N   0  0  0  0  0  0  0  0  0  0  0  0
   23.3385  -20.5956  -15.1830 C   0  0  0  0  0  0  0  0  0  0  0  0
   23.1299  -21.2826  -16.2124 O   0  0  0  0  0  0  0  0  0  0  0  0
   21.0299  -16.2780  -16.3316 C   0  0  0  0  0  0  0  0  0  0  0  0
   21.7889  -17.5156  -16.6865 C   0  0  0  0  0  0  0  0  0  0  0  0
   23.2868  -17.3159  -16.7498 C   0  0  2  0  0  0  0  0  0  0  0  0
   23.7107  -16.6463  -18.0318 C   0  0  0  0  0  0  0  0  0  0  0  0
   24.0154  -18.6366  -16.6366 C   0  0  2  0  0  0  0  0  0  0  0  0
   23.7855  -19.2637  -15.3491 N   0  0  0  0  0  0  0  0  0  0  0  0
   25.4844  -18.3718  -16.8301 C   0  0  0  0  0  0  0  0  0  0  0  0
   26.1564  -17.9592  -15.8357 O   0  0  0  0  0  0  0  0  0  0  0  0
   26.1461  -18.5474  -18.0129 O   0  0  0  0  0  0  0  0  0  0  0  0
  2  1  1  1
  3  2  1  0
  4  3  1  0
  5  2  1  0
  5  6  2  0
  8  7  1  6
  8 10  1  0
  9  8  1  0
 10 11  1  6
 10 12  1  0
 11  5  1  0
 12 19  1  0
 13 12  2  0
 15 14  1  0
 16 17  1  6
 16 15  1  0
 18 16  1  0
 18 19  1  1
 20 22  1  0
 20 18  1  0
 21 20  2  0
M  END
$$$$
