CVI.pdb
     RDKit          3D

 22 21  0  0  1  0  0  0  0  0999 V2000
   28.0081  -21.7446  -16.1136 N   0  0  0  0  0  0  0  0  0  0  0  0
   28.3851  -20.3834  -15.8503 C   0  0  1  0  0  0  0  0  0  0  0  0
   28.3040  -19.6077  -17.1276 C   0  0  0  0  0  0  0  0  0  0  0  0
   29.7228  -20.0804  -18.1578 S   0  0  0  0  0  0  0  0  0  0  0  0
   27.5515  -19.8287  -14.7641 C   0  0  0  0  0  0  0  0  0  0  0  0
   27.7570  -18.6604  -14.3397 O   0  0  0  0  0  0  0  0  0  0  0  0
   23.8701  -21.6051  -13.9330 C   0  0  0  0  0  0  0  0  0  0  0  0
   24.2025  -20.1301  -13.7338 C   0  0  1  0  0  0  0  0  0  0  0  0
   23.1647  -19.5574  -12.8245 C   0  0  0  0  0  0  0  0  0  0  0  0
   25.6136  -19.9783  -13.1693 C   0  0  2  0  0  0  0  0  0  0  0  0
   26.5015  -20.5755  -14.1624 N   0  0  0  0  0  0  0  0  0  0  0  0
   25.6496  -20.7605  -11.9106 C   0  0  0  0  0  0  0  0  0  0  0  0
   25.6903  -22.0131  -11.9775 O   0  0  0  0  0  0  0  0  0  0  0  0
   28.0123  -18.8076   -7.4838 C   0  0  0  0  0  0  0  0  0  0  0  0
   27.4792  -19.8875   -8.3687 C   0  0  0  0  0  0  0  0  0  0  0  0
   25.9959  -20.1343   -8.2050 C   0  0  2  0  0  0  0  0  0  0  0  0
   25.6915  -20.9193   -6.9550 C   0  0  0  0  0  0  0  0  0  0  0  0
   25.4373  -20.8885   -9.3912 C   0  0  2  0  0  0  0  0  0  0  0  0
   25.6403  -20.1608  -10.6294 N   0  0  0  0  0  0  0  0  0  0  0  0
   23.9672  -21.1039   -9.1508 C   0  0  0  0  0  0  0  0  0  0  0  0
   23.1588  -20.1987   -9.5220 O   0  0  0  0  0  0  0  0  0  0  0  0
   23.4424  -22.2168   -8.5559 O   0  0  0  0  0  0  0  0  0  0  0  0
  2  1  1  6
  3  2  1  0
  4  3  1  0
  5  2  1  0
  5  6  2  0
  8  7  1  1
  8 10  1  0
  9  8  1  0
 10 11  1  6
 10 12  1  0
 11  5  1  0
 12 19  1  0
 13 12  2  0
 15 14  1  0
 16 17  1  1
 16 15  1  0
 18 16  1  0
 18 19  1  6
 20 22  1  0
 20 18  1  0
 21 20  2  0
M  END
$$$$
