CVI.pdb
     RDKit          3D

 22 21  0  0  1  0  0  0  0  0999 V2000
   25.7207  -22.7173  -17.0544 N   0  0  0  0  0  0  0  0  0  0  0  0
   25.1402  -22.7403  -15.7404 C   0  0  1  0  0  0  0  0  0  0  0  0
   24.5092  -24.0791  -15.5182 C   0  0  0  0  0  0  0  0  0  0  0  0
   23.3429  -23.9230  -14.1350 S   0  0  0  0  0  0  0  0  0  0  0  0
   26.1597  -22.3888  -14.7307 C   0  0  0  0  0  0  0  0  0  0  0  0
   27.2554  -23.0093  -14.6924 O   0  0  0  0  0  0  0  0  0  0  0  0
   28.0770  -19.4461  -14.2894 C   0  0  0  0  0  0  0  0  0  0  0  0
   27.3395  -19.5996  -12.9633 C   0  0  1  0  0  0  0  0  0  0  0  0
   26.1549  -18.6903  -13.0034 C   0  0  0  0  0  0  0  0  0  0  0  0
   26.9421  -21.0583  -12.7460 C   0  0  2  0  0  0  0  0  0  0  0  0
   25.9519  -21.3547  -13.7769 N   0  0  0  0  0  0  0  0  0  0  0  0
   26.3220  -21.1296  -11.4015 C   0  0  0  0  0  0  0  0  0  0  0  0
   25.1148  -21.4597  -11.3086 O   0  0  0  0  0  0  0  0  0  0  0  0
   29.6698  -20.4428   -6.8637 C   0  0  0  0  0  0  0  0  0  0  0  0
   28.6127  -21.0895   -7.6989 C   0  0  0  0  0  0  0  0  0  0  0  0
   27.3616  -20.2540   -7.8547 C   0  0  2  0  0  0  0  0  0  0  0  0
   26.6081  -20.1229   -6.5559 C   0  0  0  0  0  0  0  0  0  0  0  0
   26.4335  -20.8541   -8.8874 C   0  0  2  0  0  0  0  0  0  0  0  0
   27.0286  -20.8420  -10.2101 N   0  0  0  0  0  0  0  0  0  0  0  0
   25.1593  -20.0531   -8.8842 C   0  0  0  0  0  0  0  0  0  0  0  0
   25.1874  -18.8777   -9.3621 O   0  0  0  0  0  0  0  0  0  0  0  0
   23.9668  -20.5108   -8.3979 O   0  0  0  0  0  0  0  0  0  0  0  0
  2  1  1  6
  3  2  1  0
  4  3  1  0
  5  2  1  0
  5  6  2  0
  8  7  1  6
  8 10  1  0
  9  8  1  0
 10 11  1  6
 10 12  1  0
 11  5  1  0
 12 19  1  0
 13 12  2  0
 15 14  1  0
 16 17  1  1
 16 15  1  0
 18 16  1  0
 18 19  1  6
 20 22  1  0
 20 18  1  0
 21 20  2  0
M  END
$$$$
