CVI.pdb
     RDKit          3D

 22 21  0  0  1  0  0  0  0  0999 V2000
   26.2220  -21.7447  -16.9735 N   0  0  0  0  0  0  0  0  0  0  0  0
   26.9092  -22.0290  -15.7442 C   0  0  1  0  0  0  0  0  0  0  0  0
   28.3774  -22.1090  -16.0230 C   0  0  0  0  0  0  0  0  0  0  0  0
   29.2113  -22.5940  -14.4843 S   0  0  0  0  0  0  0  0  0  0  0  0
   26.5522  -21.0248  -14.7211 C   0  0  0  0  0  0  0  0  0  0  0  0
   26.4980  -19.8029  -15.0229 O   0  0  0  0  0  0  0  0  0  0  0  0
   24.3018  -19.5227  -14.1607 C   0  0  0  0  0  0  0  0  0  0  0  0
   24.3967  -20.0530  -12.7339 C   0  0  1  0  0  0  0  0  0  0  0  0
   23.4988  -21.2431  -12.6393 C   0  0  0  0  0  0  0  0  0  0  0  0
   25.8461  -20.3931  -12.3923 C   0  0  2  0  0  0  0  0  0  0  0  0
   26.2601  -21.3876  -13.3775 N   0  0  0  0  0  0  0  0  0  0  0  0
   25.8297  -20.9891  -11.0352 C   0  0  0  0  0  0  0  0  0  0  0  0
   25.5696  -22.2109  -10.9140 O   0  0  0  0  0  0  0  0  0  0  0  0
   28.9254  -18.7075   -7.1043 C   0  0  0  0  0  0  0  0  0  0  0  0
   28.2016  -19.7316   -7.9172 C   0  0  0  0  0  0  0  0  0  0  0  0
   26.7515  -19.9086   -7.5255 C   0  0  2  0  0  0  0  0  0  0  0  0
   26.6103  -20.5210   -6.1556 C   0  0  0  0  0  0  0  0  0  0  0  0
   26.0243  -20.7870   -8.5192 C   0  0  2  0  0  0  0  0  0  0  0  0
   26.0945  -20.2438   -9.8623 N   0  0  0  0  0  0  0  0  0  0  0  0
   24.5897  -20.8948   -8.0772 C   0  0  0  0  0  0  0  0  0  0  0  0
   23.7558  -20.0539   -8.5333 O   0  0  0  0  0  0  0  0  0  0  0  0
   24.1230  -21.8444   -7.2121 O   0  0  0  0  0  0  0  0  0  0  0  0
  2  1  1  6
  3  2  1  0
  4  3  1  0
  5  2  1  0
  5  6  2  0
  8  7  1  6
  8 10  1  0
  9  8  1  0
 10 11  1  6
 10 12  1  0
 11  5  1  0
 12 19  1  0
 13 12  2  0
 15 14  1  0
 16 17  1  1
 16 15  1  0
 18 16  1  0
 18 19  1  6
 20 22  1  0
 20 18  1  0
 21 20  2  0
M  END
$$$$
