CVI.pdb
     RDKit          3D

 22 21  0  0  1  0  0  0  0  0999 V2000
   24.5621  -23.8753  -17.4792 N   0  0  0  0  0  0  0  0  0  0  0  0
   24.5490  -24.1194  -16.0634 C   0  0  1  0  0  0  0  0  0  0  0  0
   25.3195  -25.3720  -15.7856 C   0  0  0  0  0  0  0  0  0  0  0  0
   25.2277  -25.6988  -14.0016 S   0  0  0  0  0  0  0  0  0  0  0  0
   25.0584  -22.9356  -15.3412 C   0  0  0  0  0  0  0  0  0  0  0  0
   26.0374  -22.2868  -15.7969 O   0  0  0  0  0  0  0  0  0  0  0  0
   23.9679  -19.0401  -12.7435 C   0  0  0  0  0  0  0  0  0  0  0  0
   23.6511  -20.3626  -13.4339 C   0  0  1  0  0  0  0  0  0  0  0  0
   23.1226  -20.0411  -14.7936 C   0  0  0  0  0  0  0  0  0  0  0  0
   24.8996  -21.2407  -13.4910 C   0  0  2  0  0  0  0  0  0  0  0  0
   24.4765  -22.4863  -14.1239 N   0  0  0  0  0  0  0  0  0  0  0  0
   25.3041  -21.4887  -12.0867 C   0  0  0  0  0  0  0  0  0  0  0  0
   24.5400  -22.1530  -11.3452 O   0  0  0  0  0  0  0  0  0  0  0  0
   30.6996  -21.0856  -10.7537 C   0  0  0  0  0  0  0  0  0  0  0  0
   29.2820  -21.5556  -10.8084 C   0  0  0  0  0  0  0  0  0  0  0  0
   28.3431  -20.7684   -9.9216 C   0  0  2  0  0  0  0  0  0  0  0  0
   28.6644  -20.9517   -8.4605 C   0  0  0  0  0  0  0  0  0  0  0  0
   26.9062  -21.1815  -10.1507 C   0  0  2  0  0  0  0  0  0  0  0  0
   26.5170  -21.0104  -11.5375 N   0  0  0  0  0  0  0  0  0  0  0  0
   26.0353  -20.3378   -9.2592 C   0  0  0  0  0  0  0  0  0  0  0  0
   25.6359  -20.8369   -8.1629 O   0  0  0  0  0  0  0  0  0  0  0  0
   25.6439  -19.0620   -9.5542 O   0  0  0  0  0  0  0  0  0  0  0  0
  2  1  1  6
  3  2  1  0
  4  3  1  0
  5  2  1  0
  5  6  2  0
  8  7  1  6
  8 10  1  0
  9  8  1  0
 10 11  1  1
 10 12  1  0
 11  5  1  0
 12 19  1  0
 13 12  2  0
 15 14  1  0
 16 17  1  1
 16 15  1  0
 18 16  1  0
 18 19  1  6
 20 22  1  0
 20 18  1  0
 21 20  2  0
M  END
$$$$
