CVI.pdb
     RDKit          3D

 22 21  0  0  1  0  0  0  0  0999 V2000
   23.0262  -20.8141  -13.2116 N   0  0  0  0  0  0  0  0  0  0  0  0
   22.9699  -20.2605  -11.8870 C   0  0  1  0  0  0  0  0  0  0  0  0
   21.5537  -20.3121  -11.4055 C   0  0  0  0  0  0  0  0  0  0  0  0
   21.4191  -19.2303   -9.9531 S   0  0  0  0  0  0  0  0  0  0  0  0
   23.9238  -20.9627  -11.0042 C   0  0  0  0  0  0  0  0  0  0  0  0
   23.7773  -22.1899  -10.7599 O   0  0  0  0  0  0  0  0  0  0  0  0
   26.6357  -22.2403  -11.6091 C   0  0  0  0  0  0  0  0  0  0  0  0
   27.1345  -21.4034  -10.4358 C   0  0  1  0  0  0  0  0  0  0  0  0
   27.8437  -20.2173  -11.0031 C   0  0  0  0  0  0  0  0  0  0  0  0
   25.9655  -21.0036   -9.5377 C   0  0  2  0  0  0  0  0  0  0  0  0
   25.0272  -20.2962  -10.4038 N   0  0  0  0  0  0  0  0  0  0  0  0
   26.5165  -20.0825   -8.5152 C   0  0  0  0  0  0  0  0  0  0  0  0
   26.3188  -18.8497   -8.6420 O   0  0  0  0  0  0  0  0  0  0  0  0
   26.9321  -21.5614   -3.1555 C   0  0  0  0  0  0  0  0  0  0  0  0
   26.7535  -20.8098   -4.4349 C   0  0  0  0  0  0  0  0  0  0  0  0
   28.0540  -20.3893   -5.0825 C   0  0  2  0  0  0  0  0  0  0  0  0
   28.8708  -19.5022   -4.1784 C   0  0  0  0  0  0  0  0  0  0  0  0
   27.8010  -19.6492   -6.3771 C   0  0  2  0  0  0  0  0  0  0  0  0
   27.2589  -20.5275   -7.3962 N   0  0  0  0  0  0  0  0  0  0  0  0
   29.1090  -19.0644   -6.8381 C   0  0  0  0  0  0  0  0  0  0  0  0
   29.8655  -19.7813   -7.5623 O   0  0  0  0  0  0  0  0  0  0  0  0
   29.5382  -17.8049   -6.5266 O   0  0  0  0  0  0  0  0  0  0  0  0
  2  1  1  6
  3  2  1  0
  4  3  1  0
  5  2  1  0
  5  6  2  0
  8  7  1  6
  8 10  1  0
  9  8  1  0
 10 11  1  6
 10 12  1  0
 11  5  1  0
 12 19  1  0
 13 12  2  0
 15 14  1  0
 16 17  1  1
 16 15  1  0
 18 16  1  0
 18 19  1  6
 20 22  1  0
 20 18  1  0
 21 20  2  0
M  END
$$$$
