CVI.pdb
     RDKit          3D

 22 21  0  0  1  0  0  0  0  0999 V2000
   32.0655  -21.8693  -12.8942 N   0  0  0  0  0  0  0  0  0  0  0  0
   31.0067  -21.7682  -11.9283 C   0  0  1  0  0  0  0  0  0  0  0  0
   31.6021  -21.4269  -10.5983 C   0  0  0  0  0  0  0  0  0  0  0  0
   32.5882  -22.8489  -10.0476 S   0  0  0  0  0  0  0  0  0  0  0  0
   29.9907  -20.8006  -12.3907 C   0  0  0  0  0  0  0  0  0  0  0  0
   30.3067  -19.5987  -12.5977 O   0  0  0  0  0  0  0  0  0  0  0  0
   29.5047  -19.2301  -14.4636 C   0  0  0  0  0  0  0  0  0  0  0  0
   28.1038  -19.8313  -14.5073 C   0  0  1  0  0  0  0  0  0  0  0  0
   28.1506  -21.0063  -15.4286 C   0  0  0  0  0  0  0  0  0  0  0  0
   27.6506  -20.2168  -13.1005 C   0  0  2  0  0  0  0  0  0  0  0  0
   28.6384  -21.1771  -12.6177 N   0  0  0  0  0  0  0  0  0  0  0  0
   26.3280  -20.8697  -13.2487 C   0  0  0  0  0  0  0  0  0  0  0  0
   26.2846  -22.0885  -13.5445 O   0  0  0  0  0  0  0  0  0  0  0  0
   24.5351  -20.5687   -8.6676 C   0  0  0  0  0  0  0  0  0  0  0  0
   24.5419  -21.1010  -10.0641 C   0  0  0  0  0  0  0  0  0  0  0  0
   23.7394  -20.2682  -11.0388 C   0  0  2  0  0  0  0  0  0  0  0  0
   22.2672  -20.2895  -10.7168 C   0  0  0  0  0  0  0  0  0  0  0  0
   23.9260  -20.7620  -12.4562 C   0  0  2  0  0  0  0  0  0  0  0  0
   25.1043  -20.1821  -13.0720 N   0  0  0  0  0  0  0  0  0  0  0  0
   22.6955  -20.3922  -13.2400 C   0  0  0  0  0  0  0  0  0  0  0  0
   22.6816  -19.2769  -13.8455 O   0  0  0  0  0  0  0  0  0  0  0  0
   21.5856  -21.1830  -13.3434 O   0  0  0  0  0  0  0  0  0  0  0  0
  2  1  1  6
  3  2  1  0
  4  3  1  0
  5  2  1  0
  5  6  2  0
  8  7  1  1
  8 10  1  0
  9  8  1  0
 10 11  1  6
 10 12  1  0
 11  5  1  0
 12 19  1  0
 13 12  2  0
 15 14  1  0
 16 17  1  1
 16 15  1  0
 18 16  1  0
 18 19  1  6
 20 22  1  0
 20 18  1  0
 21 20  2  0
M  END
$$$$
