AHH.pdb
     RDKit          3D

 26 27  0  0  1  0  0  0  0  0999 V2000
   17.1576  -14.6615  -17.0804 C   0  0  0  0  0  0  0  0  0  0  0  0
   16.8834  -13.2617  -16.5719 C   0  0  2  0  0  0  0  0  0  0  0  0
   15.8681  -12.6878  -17.3954 N   0  0  0  0  0  0  0  0  0  0  0  0
   18.1565  -12.5202  -16.5675 C   0  0  0  0  0  0  0  0  0  0  0  0
   19.1488  -13.0824  -16.0348 O   0  0  0  0  0  0  0  0  0  0  0  0
   18.3115  -11.2357  -17.1213 N   0  0  0  0  0  0  0  0  0  0  0  0
   19.5232  -10.4364  -16.9939 C   0  0  1  0  0  0  0  0  0  0  0  0
   20.1106  -10.0970  -18.3166 C   0  0  0  0  0  0  0  0  0  0  0  0
   20.6269  -11.3034  -19.0034 C   0  0  0  0  0  0  0  0  0  0  0  0
   20.0703  -11.9315  -20.0962 C   0  0  0  0  0  0  0  0  0  0  0  0
   20.8093  -12.9757  -20.4302 N   0  0  0  0  0  0  0  0  0  0  0  0
   21.8403  -13.0421  -19.5749 C   0  0  0  0  0  0  0  0  0  0  0  0
   21.7265  -12.0241  -18.7087 N   0  0  0  0  0  0  0  0  0  0  0  0
   19.2945   -9.2485  -16.1501 C   0  0  0  0  0  0  0  0  0  0  0  0
   18.2879   -8.5330  -16.2855 O   0  0  0  0  0  0  0  0  0  0  0  0
   20.2177   -8.8512  -15.1273 N   0  0  0  0  0  0  0  0  0  0  0  0
   19.9185   -7.7123  -14.2566 C   0  0  1  0  0  0  0  0  0  0  0  0
   20.1280   -8.0630  -12.8205 C   0  0  0  0  0  0  0  0  0  0  0  0
   19.0130   -8.8859  -12.3284 C   0  0  0  0  0  0  0  0  0  0  0  0
   17.9579   -9.3368  -13.1281 C   0  0  0  0  0  0  0  0  0  0  0  0
   17.1146  -10.0580  -12.3744 N   0  0  0  0  0  0  0  0  0  0  0  0
   17.6100  -10.0719  -11.1276 C   0  0  0  0  0  0  0  0  0  0  0  0
   18.7623   -9.3592  -11.1047 N   0  0  0  0  0  0  0  0  0  0  0  0
   20.6628   -6.5115  -14.6973 C   0  0  0  0  0  0  0  0  0  0  0  0
   20.4153   -5.2504  -14.2284 O   0  0  0  0  0  0  0  0  0  0  0  0
   21.5937   -6.6289  -15.5638 O   0  0  0  0  0  0  0  0  0  0  0  0
  2  1  1  6
  2  4  1  0
  3  2  1  0
  4  5  2  0
  6  4  1  0
  6  7  1  0
  7 14  1  0
  7  8  1  6
  9  8  1  0
 10  9  2  0
 11 12  1  0
 11 10  1  0
 12 13  2  0
 13  9  1  0
 14 15  2  0
 16 17  1  0
 16 14  1  0
 17 24  1  0
 18 19  1  0
 17 18  1  1
 19 23  1  0
 20 21  1  0
 20 19  2  0
 21 22  1  0
 22 23  2  0
 24 26  2  0
 24 25  1  0
M  END
$$$$
