AHH.pdb
     RDKit          3D

 26 27  0  0  1  0  0  0  0  0999 V2000
   34.0105  -34.9838   -2.0435 C   0  0  0  0  0  0  0  0  0  0  0  0
   33.0247  -35.5800   -3.0263 C   0  0  2  0  0  0  0  0  0  0  0  0
   33.5949  -35.4831   -4.3316 N   0  0  0  0  0  0  0  0  0  0  0  0
   31.7401  -34.8760   -2.8681 C   0  0  0  0  0  0  0  0  0  0  0  0
   31.6588  -33.7125   -3.3415 O   0  0  0  0  0  0  0  0  0  0  0  0
   30.6203  -35.4342   -2.2240 N   0  0  0  0  0  0  0  0  0  0  0  0
   29.3313  -34.7646   -2.1087 C   0  0  1  0  0  0  0  0  0  0  0  0
   28.2428  -35.5292   -2.7723 C   0  0  0  0  0  0  0  0  0  0  0  0
   28.2991  -35.3806   -4.2448 C   0  0  0  0  0  0  0  0  0  0  0  0
   29.1974  -34.6217   -4.9630 C   0  0  0  0  0  0  0  0  0  0  0  0
   28.9384  -34.7343   -6.2546 N   0  0  0  0  0  0  0  0  0  0  0  0
   27.8860  -35.5539   -6.3945 C   0  0  0  0  0  0  0  0  0  0  0  0
   27.4997  -35.9451   -5.1709 N   0  0  0  0  0  0  0  0  0  0  0  0
   29.0226  -34.4358   -0.7044 C   0  0  0  0  0  0  0  0  0  0  0  0
   29.4411  -35.1292    0.2377 O   0  0  0  0  0  0  0  0  0  0  0  0
   28.2240  -33.3002   -0.3455 N   0  0  0  0  0  0  0  0  0  0  0  0
   27.8840  -33.0426    1.0555 C   0  0  1  0  0  0  0  0  0  0  0  0
   27.1913  -31.7289    1.2085 C   0  0  0  0  0  0  0  0  0  0  0  0
   27.0092  -31.4109    2.6328 C   0  0  0  0  0  0  0  0  0  0  0  0
   27.9675  -31.6587    3.6208 C   0  0  0  0  0  0  0  0  0  0  0  0
   27.4889  -31.2527    4.8064 N   0  0  0  0  0  0  0  0  0  0  0  0
   26.2605  -30.7585    4.5900 C   0  0  0  0  0  0  0  0  0  0  0  0
   25.9738  -30.8567    3.2692 N   0  0  0  0  0  0  0  0  0  0  0  0
   27.1390  -34.1858    1.6283 C   0  0  0  0  0  0  0  0  0  0  0  0
   27.4419  -34.7637    2.8307 O   0  0  0  0  0  0  0  0  0  0  0  0
   26.1531  -34.6821    0.9855 O   0  0  0  0  0  0  0  0  0  0  0  0
  2  1  1  1
  2  4  1  0
  3  2  1  0
  4  5  2  0
  6  4  1  0
  6  7  1  0
  7 14  1  0
  7  8  1  1
  9  8  1  0
 10  9  2  0
 11 12  1  0
 11 10  1  0
 12 13  2  0
 13  9  1  0
 14 15  2  0
 16 17  1  0
 16 14  1  0
 17 24  1  0
 18 19  1  0
 17 18  1  6
 19 23  1  0
 20 21  1  0
 20 19  2  0
 21 22  1  0
 22 23  2  0
 24 26  2  0
 24 25  1  0
M  END
$$$$
