AHH.pdb
     RDKit          3D

 26 27  0  0  1  0  0  0  0  0999 V2000
   12.5346  -11.3371  -12.8346 C   0  0  0  0  0  0  0  0  0  0  0  0
   13.9086  -11.4967  -13.4511 C   0  0  2  0  0  0  0  0  0  0  0  0
   14.2034  -12.8925  -13.5079 N   0  0  0  0  0  0  0  0  0  0  0  0
   14.8613  -10.7041  -12.6543 C   0  0  0  0  0  0  0  0  0  0  0  0
   15.1603  -11.1409  -11.5123 O   0  0  0  0  0  0  0  0  0  0  0  0
   15.4417   -9.5031  -13.1030 N   0  0  0  0  0  0  0  0  0  0  0  0
   16.5161   -8.8092  -12.4050 C   0  0  1  0  0  0  0  0  0  0  0  0
   17.5834   -8.3533  -13.3340 C   0  0  0  0  0  0  0  0  0  0  0  0
   18.2423   -9.4989  -14.0026 C   0  0  0  0  0  0  0  0  0  0  0  0
   17.9556  -10.8346  -13.8228 C   0  0  0  0  0  0  0  0  0  0  0  0
   18.7490  -11.5643  -14.5883 N   0  0  0  0  0  0  0  0  0  0  0  0
   19.5505  -10.7294  -15.2662 C   0  0  0  0  0  0  0  0  0  0  0  0
   19.2400   -9.4746  -14.9079 N   0  0  0  0  0  0  0  0  0  0  0  0
   15.9903   -7.7190  -11.5621 C   0  0  0  0  0  0  0  0  0  0  0  0
   15.0846   -6.9653  -11.9560 O   0  0  0  0  0  0  0  0  0  0  0  0
   16.4921   -7.4661  -10.2428 N   0  0  0  0  0  0  0  0  0  0  0  0
   16.0678   -6.2769   -9.5008 C   0  0  1  0  0  0  0  0  0  0  0  0
   15.6708   -6.6268   -8.1047 C   0  0  0  0  0  0  0  0  0  0  0  0
   14.3506   -7.2746   -8.0967 C   0  0  0  0  0  0  0  0  0  0  0  0
   13.5969   -7.5338   -9.2460 C   0  0  0  0  0  0  0  0  0  0  0  0
   12.4490   -8.1304   -8.8913 N   0  0  0  0  0  0  0  0  0  0  0  0
   12.4617   -8.2521   -7.5553 C   0  0  0  0  0  0  0  0  0  0  0  0
   13.6179   -7.7312   -7.0776 N   0  0  0  0  0  0  0  0  0  0  0  0
   17.0967   -5.2167   -9.5857 C   0  0  0  0  0  0  0  0  0  0  0  0
   16.8841   -3.9200   -9.2046 O   0  0  0  0  0  0  0  0  0  0  0  0
   18.2578   -5.4989  -10.0368 O   0  0  0  0  0  0  0  0  0  0  0  0
  2  1  1  1
  2  4  1  0
  3  2  1  0
  4  5  2  0
  6  4  1  0
  6  7  1  0
  7 14  1  0
  7  8  1  6
  9  8  1  0
 10  9  2  0
 11 12  1  0
 11 10  1  0
 12 13  2  0
 13  9  1  0
 14 15  2  0
 16 17  1  0
 16 14  1  0
 17 24  1  0
 18 19  1  0
 17 18  1  1
 19 23  1  0
 20 21  1  0
 20 19  2  0
 21 22  1  0
 22 23  2  0
 24 26  2  0
 24 25  1  0
M  END
$$$$
