AHH.pdb
     RDKit          3D

 26 27  0  0  1  0  0  0  0  0999 V2000
   35.6776  -11.7480  -19.9312 C   0  0  0  0  0  0  0  0  0  0  0  0
   34.4984  -12.2926  -19.1527 C   0  0  2  0  0  0  0  0  0  0  0  0
   33.9324  -13.3641  -19.9079 N   0  0  0  0  0  0  0  0  0  0  0  0
   33.5723  -11.1778  -18.8875 C   0  0  0  0  0  0  0  0  0  0  0  0
   33.6415  -10.1780  -19.6491 O   0  0  0  0  0  0  0  0  0  0  0  0
   32.6312  -11.1792  -17.8412 N   0  0  0  0  0  0  0  0  0  0  0  0
   31.6549  -10.1194  -17.6247 C   0  0  1  0  0  0  0  0  0  0  0  0
   30.3846  -10.6379  -17.0525 C   0  0  0  0  0  0  0  0  0  0  0  0
   29.5960  -11.3733  -18.0678 C   0  0  0  0  0  0  0  0  0  0  0  0
   29.9109  -11.5324  -19.3997 C   0  0  0  0  0  0  0  0  0  0  0  0
   28.9714  -12.2480  -19.9940 N   0  0  0  0  0  0  0  0  0  0  0  0
   28.0466  -12.5602  -19.0741 C   0  0  0  0  0  0  0  0  0  0  0  0
   28.4292  -12.0270  -17.9042 N   0  0  0  0  0  0  0  0  0  0  0  0
   32.2291   -9.0165  -16.8313 C   0  0  0  0  0  0  0  0  0  0  0  0
   33.0616   -9.2211  -15.9321 O   0  0  0  0  0  0  0  0  0  0  0  0
   31.8612   -7.6480  -17.0507 N   0  0  0  0  0  0  0  0  0  0  0  0
   32.6578   -6.5621  -16.4754 C   0  0  1  0  0  0  0  0  0  0  0  0
   34.0779   -6.6371  -16.9302 C   0  0  0  0  0  0  0  0  0  0  0  0
   34.9297   -7.1723  -15.8575 C   0  0  0  0  0  0  0  0  0  0  0  0
   34.4695   -7.4923  -14.5762 C   0  0  0  0  0  0  0  0  0  0  0  0
   35.4954   -7.9534  -13.8451 N   0  0  0  0  0  0  0  0  0  0  0  0
   36.5832   -7.9315  -14.6302 C   0  0  0  0  0  0  0  0  0  0  0  0
   36.2348   -7.4566  -15.8506 N   0  0  0  0  0  0  0  0  0  0  0  0
   32.0134   -5.2542  -16.7286 C   0  0  0  0  0  0  0  0  0  0  0  0
   32.0113   -4.2223  -15.8304 O   0  0  0  0  0  0  0  0  0  0  0  0
   31.4175   -5.0490  -17.8395 O   0  0  0  0  0  0  0  0  0  0  0  0
  2  1  1  6
  2  4  1  0
  3  2  1  0
  4  5  2  0
  6  4  1  0
  6  7  1  0
  7 14  1  0
  7  8  1  1
  9  8  1  0
 10  9  2  0
 11 12  1  0
 11 10  1  0
 12 13  2  0
 13  9  1  0
 14 15  2  0
 16 17  1  0
 16 14  1  0
 17 24  1  0
 18 19  1  0
 17 18  1  6
 19 23  1  0
 20 21  1  0
 20 19  2  0
 21 22  1  0
 22 23  2  0
 24 26  2  0
 24 25  1  0
M  END
$$$$
