AHH.pdb
     RDKit          3D

 26 27  0  0  1  0  0  0  0  0999 V2000
   36.6112  -12.0067   -8.2397 C   0  0  0  0  0  0  0  0  0  0  0  0
   37.4817  -12.6169   -7.1612 C   0  0  2  0  0  0  0  0  0  0  0  0
   36.6474  -12.9143   -6.0414 N   0  0  0  0  0  0  0  0  0  0  0  0
   38.5777  -11.6756   -6.8722 C   0  0  0  0  0  0  0  0  0  0  0  0
   38.3481  -10.7636   -6.0355 O   0  0  0  0  0  0  0  0  0  0  0  0
   39.8462  -11.7477   -7.4774 N   0  0  0  0  0  0  0  0  0  0  0  0
   40.9139  -10.7840   -7.2445 C   0  0  1  0  0  0  0  0  0  0  0  0
   42.2466  -11.3244   -7.6206 C   0  0  0  0  0  0  0  0  0  0  0  0
   43.3316  -10.3814   -7.2640 C   0  0  0  0  0  0  0  0  0  0  0  0
   44.0618  -10.3687   -6.0955 C   0  0  0  0  0  0  0  0  0  0  0  0
   44.9422   -9.3831   -6.1348 N   0  0  0  0  0  0  0  0  0  0  0  0
   44.8011   -8.7502   -7.3089 C   0  0  0  0  0  0  0  0  0  0  0  0
   43.8212   -9.3595   -7.9930 N   0  0  0  0  0  0  0  0  0  0  0  0
   40.6193   -9.4919   -7.8920 C   0  0  0  0  0  0  0  0  0  0  0  0
   39.9944   -9.4239   -8.9636 O   0  0  0  0  0  0  0  0  0  0  0  0
   41.0357   -8.2426   -7.3242 N   0  0  0  0  0  0  0  0  0  0  0  0
   40.5690   -6.9755   -7.8911 C   0  0  1  0  0  0  0  0  0  0  0  0
   39.2718   -6.5583   -7.2809 C   0  0  0  0  0  0  0  0  0  0  0  0
   38.7989   -5.3075   -7.8929 C   0  0  0  0  0  0  0  0  0  0  0  0
   39.4648   -4.6380   -8.9246 C   0  0  0  0  0  0  0  0  0  0  0  0
   38.7715   -3.5371   -9.2511 N   0  0  0  0  0  0  0  0  0  0  0  0
   37.6923   -3.4975   -8.4550 C   0  0  0  0  0  0  0  0  0  0  0  0
   37.7134   -4.5741   -7.6324 N   0  0  0  0  0  0  0  0  0  0  0  0
   41.6303   -5.9474   -7.8098 C   0  0  0  0  0  0  0  0  0  0  0  0
   42.3046   -5.6417   -6.6593 O   0  0  0  0  0  0  0  0  0  0  0  0
   41.9557   -5.2922   -8.8567 O   0  0  0  0  0  0  0  0  0  0  0  0
  2  1  1  6
  2  4  1  0
  3  2  1  0
  4  5  2  0
  6  4  1  0
  6  7  1  0
  7 14  1  0
  7  8  1  6
  9  8  1  0
 10  9  2  0
 11 12  1  0
 11 10  1  0
 12 13  2  0
 13  9  1  0
 14 15  2  0
 16 17  1  0
 16 14  1  0
 17 24  1  0
 18 19  1  0
 17 18  1  1
 19 23  1  0
 20 21  1  0
 20 19  2  0
 21 22  1  0
 22 23  2  0
 24 26  2  0
 24 25  1  0
M  END
$$$$
