AHH.pdb
     RDKit          3D

 26 27  0  0  1  0  0  0  0  0999 V2000
   24.9563   -9.3478  -20.8710 C   0  0  0  0  0  0  0  0  0  0  0  0
   24.1402  -10.5979  -20.6170 C   0  0  2  0  0  0  0  0  0  0  0  0
   23.7974  -11.1617  -21.8832 N   0  0  0  0  0  0  0  0  0  0  0  0
   22.9846  -10.2268  -19.7818 C   0  0  0  0  0  0  0  0  0  0  0  0
   22.1474   -9.4289  -20.2786 O   0  0  0  0  0  0  0  0  0  0  0  0
   22.7775  -10.7144  -18.4780 N   0  0  0  0  0  0  0  0  0  0  0  0
   21.6532  -10.3290  -17.6351 C   0  0  1  0  0  0  0  0  0  0  0  0
   21.3924  -11.3238  -16.5618 C   0  0  0  0  0  0  0  0  0  0  0  0
   20.1677  -10.9871  -15.7999 C   0  0  0  0  0  0  0  0  0  0  0  0
   19.3361   -9.9089  -16.0106 C   0  0  0  0  0  0  0  0  0  0  0  0
   18.3449   -9.9371  -15.1361 N   0  0  0  0  0  0  0  0  0  0  0  0
   18.5132  -11.0152  -14.3563 C   0  0  0  0  0  0  0  0  0  0  0  0
   19.6222  -11.6515  -14.7623 N   0  0  0  0  0  0  0  0  0  0  0  0
   21.8194   -8.9591  -17.1144 C   0  0  0  0  0  0  0  0  0  0  0  0
   22.9388   -8.4311  -17.0059 O   0  0  0  0  0  0  0  0  0  0  0  0
   20.7022   -8.1590  -16.7043 N   0  0  0  0  0  0  0  0  0  0  0  0
   20.8695   -6.7287  -16.4379 C   0  0  1  0  0  0  0  0  0  0  0  0
   21.5860   -6.0525  -17.5598 C   0  0  0  0  0  0  0  0  0  0  0  0
   22.9345   -5.6484  -17.1341 C   0  0  0  0  0  0  0  0  0  0  0  0
   23.4603   -5.8891  -15.8607 C   0  0  0  0  0  0  0  0  0  0  0  0
   24.7063   -5.3957  -15.8012 N   0  0  0  0  0  0  0  0  0  0  0  0
   24.9758   -4.8538  -16.9986 C   0  0  0  0  0  0  0  0  0  0  0  0
   23.8973   -5.0097  -17.8041 N   0  0  0  0  0  0  0  0  0  0  0  0
   19.5707   -6.1087  -16.0933 C   0  0  0  0  0  0  0  0  0  0  0  0
   19.4265   -5.1154  -15.1637 O   0  0  0  0  0  0  0  0  0  0  0  0
   18.5074   -6.5039  -16.6803 O   0  0  0  0  0  0  0  0  0  0  0  0
  2  1  1  6
  2  4  1  0
  3  2  1  0
  4  5  2  0
  6  4  1  0
  6  7  1  0
  7 14  1  0
  7  8  1  1
  9  8  1  0
 10  9  2  0
 11 12  1  0
 11 10  1  0
 12 13  2  0
 13  9  1  0
 14 15  2  0
 16 17  1  0
 16 14  1  0
 17 24  1  0
 18 19  1  0
 17 18  1  6
 19 23  1  0
 20 21  1  0
 20 19  2  0
 21 22  1  0
 22 23  2  0
 24 26  2  0
 24 25  1  0
M  END
$$$$
