AHH.pdb
     RDKit          3D

 26 27  0  0  1  0  0  0  0  0999 V2000
   17.6921  -13.3916  -14.2679 C   0  0  0  0  0  0  0  0  0  0  0  0
   17.3421  -12.7242  -15.5814 C   0  0  2  0  0  0  0  0  0  0  0  0
   17.6381  -13.6442  -16.6324 N   0  0  0  0  0  0  0  0  0  0  0  0
   18.0813  -11.4521  -15.6583 C   0  0  0  0  0  0  0  0  0  0  0  0
   19.3227  -11.4940  -15.4544 O   0  0  0  0  0  0  0  0  0  0  0  0
   17.4745  -10.2148  -15.9440 N   0  0  0  0  0  0  0  0  0  0  0  0
   18.1970   -8.9512  -16.0099 C   0  0  1  0  0  0  0  0  0  0  0  0
   17.5946   -8.0135  -16.9937 C   0  0  0  0  0  0  0  0  0  0  0  0
   17.7881   -8.4907  -18.3823 C   0  0  0  0  0  0  0  0  0  0  0  0
   18.5198   -9.5875  -18.7828 C   0  0  0  0  0  0  0  0  0  0  0  0
   18.4639   -9.7000  -20.0989 N   0  0  0  0  0  0  0  0  0  0  0  0
   17.7081   -8.6958  -20.5672 C   0  0  0  0  0  0  0  0  0  0  0  0
   17.2988   -7.9625  -19.5212 N   0  0  0  0  0  0  0  0  0  0  0  0
   18.3501   -8.3517  -14.6710 C   0  0  0  0  0  0  0  0  0  0  0  0
   17.5118   -8.5336  -13.7723 O   0  0  0  0  0  0  0  0  0  0  0  0
   19.4720   -7.5265  -14.3294 N   0  0  0  0  0  0  0  0  0  0  0  0
   19.5775   -6.9291  -12.9964 C   0  0  1  0  0  0  0  0  0  0  0  0
   20.7979   -7.4125  -12.2851 C   0  0  0  0  0  0  0  0  0  0  0  0
   20.9521   -6.7109  -11.0018 C   0  0  0  0  0  0  0  0  0  0  0  0
   19.9165   -6.5238  -10.0806 C   0  0  0  0  0  0  0  0  0  0  0  0
   20.3892   -5.8495   -9.0217 N   0  0  0  0  0  0  0  0  0  0  0  0
   21.6889   -5.6092   -9.2525 C   0  0  0  0  0  0  0  0  0  0  0  0
   22.0258   -6.1340  -10.4556 N   0  0  0  0  0  0  0  0  0  0  0  0
   19.4728   -5.4551  -13.0776 C   0  0  0  0  0  0  0  0  0  0  0  0
   18.8943   -4.6806  -12.1096 O   0  0  0  0  0  0  0  0  0  0  0  0
   19.9395   -4.8447  -14.0978 O   0  0  0  0  0  0  0  0  0  0  0  0
  2  1  1  1
  2  4  1  0
  3  2  1  0
  4  5  2  0
  6  4  1  0
  6  7  1  0
  7 14  1  0
  7  8  1  6
  9  8  1  0
 10  9  2  0
 11 12  1  0
 11 10  1  0
 12 13  2  0
 13  9  1  0
 14 15  2  0
 16 17  1  0
 16 14  1  0
 17 24  1  0
 18 19  1  0
 17 18  1  6
 19 23  1  0
 20 21  1  0
 20 19  2  0
 21 22  1  0
 22 23  2  0
 24 26  2  0
 24 25  1  0
M  END
$$$$
