AHH.pdb
     RDKit          3D

 26 27  0  0  1  0  0  0  0  0999 V2000
   26.9258  -33.1973   -3.9847 C   0  0  0  0  0  0  0  0  0  0  0  0
   27.8050  -33.4666   -5.1878 C   0  0  2  0  0  0  0  0  0  0  0  0
   26.9732  -33.9676   -6.2346 N   0  0  0  0  0  0  0  0  0  0  0  0
   28.8801  -34.3839   -4.7713 C   0  0  0  0  0  0  0  0  0  0  0  0
   28.6332  -35.6175   -4.8134 O   0  0  0  0  0  0  0  0  0  0  0  0
   30.1471  -33.9524   -4.3366 N   0  0  0  0  0  0  0  0  0  0  0  0
   31.2184  -34.8538   -3.9327 C   0  0  1  0  0  0  0  0  0  0  0  0
   32.5530  -34.2030   -4.0032 C   0  0  0  0  0  0  0  0  0  0  0  0
   32.9644  -33.9661   -5.4062 C   0  0  0  0  0  0  0  0  0  0  0  0
   32.2753  -34.3354   -6.5408 C   0  0  0  0  0  0  0  0  0  0  0  0
   32.9512  -33.9559   -7.6119 N   0  0  0  0  0  0  0  0  0  0  0  0
   34.0710  -33.3446   -7.1982 C   0  0  0  0  0  0  0  0  0  0  0  0
   34.0760  -33.3524   -5.8567 N   0  0  0  0  0  0  0  0  0  0  0  0
   30.9451  -35.4523   -2.6126 C   0  0  0  0  0  0  0  0  0  0  0  0
   30.2677  -34.8629   -1.7540 O   0  0  0  0  0  0  0  0  0  0  0  0
   31.4438  -36.7453   -2.2442 N   0  0  0  0  0  0  0  0  0  0  0  0
   31.1051  -37.3309   -0.9453 C   0  0  1  0  0  0  0  0  0  0  0  0
   31.4261  -38.7887   -0.9120 C   0  0  0  0  0  0  0  0  0  0  0  0
   30.3730  -39.5587   -1.5908 C   0  0  0  0  0  0  0  0  0  0  0  0
   29.2398  -38.9883   -2.1795 C   0  0  0  0  0  0  0  0  0  0  0  0
   28.4846  -39.9622   -2.7092 N   0  0  0  0  0  0  0  0  0  0  0  0
   29.1109  -41.1243   -2.4697 C   0  0  0  0  0  0  0  0  0  0  0  0
   30.2566  -40.8742   -1.7907 N   0  0  0  0  0  0  0  0  0  0  0  0
   31.7229  -36.5538    0.1522 C   0  0  0  0  0  0  0  0  0  0  0  0
   31.1031  -36.3000    1.3451 O   0  0  0  0  0  0  0  0  0  0  0  0
   32.9000  -36.0804    0.0052 O   0  0  0  0  0  0  0  0  0  0  0  0
  2  1  1  1
  2  4  1  0
  3  2  1  0
  4  5  2  0
  6  4  1  0
  6  7  1  0
  7 14  1  0
  7  8  1  1
  9  8  1  0
 10  9  2  0
 11 12  1  0
 11 10  1  0
 12 13  2  0
 13  9  1  0
 14 15  2  0
 16 17  1  0
 16 14  1  0
 17 24  1  0
 18 19  1  0
 17 18  1  6
 19 23  1  0
 20 21  1  0
 20 19  2  0
 21 22  1  0
 22 23  2  0
 24 26  2  0
 24 25  1  0
M  END
$$$$
