AHH.pdb
     RDKit          3D

 26 27  0  0  1  0  0  0  0  0999 V2000
   23.9787  -11.3436  -17.4778 C   0  0  0  0  0  0  0  0  0  0  0  0
   22.6985  -12.0476  -17.0796 C   0  0  2  0  0  0  0  0  0  0  0  0
   22.3695  -12.9758  -18.1134 N   0  0  0  0  0  0  0  0  0  0  0  0
   21.6710  -11.0211  -16.8320 C   0  0  0  0  0  0  0  0  0  0  0  0
   21.3321  -10.2988  -17.8056 O   0  0  0  0  0  0  0  0  0  0  0  0
   21.0621  -10.8148  -15.5802 N   0  0  0  0  0  0  0  0  0  0  0  0
   19.9798   -9.8669  -15.3491 C   0  0  1  0  0  0  0  0  0  0  0  0
   18.9982  -10.3712  -14.3531 C   0  0  0  0  0  0  0  0  0  0  0  0
   18.0990  -11.3867  -14.9480 C   0  0  0  0  0  0  0  0  0  0  0  0
   18.1069  -11.8322  -16.2518 C   0  0  0  0  0  0  0  0  0  0  0  0
   17.1601  -12.7405  -16.4147 N   0  0  0  0  0  0  0  0  0  0  0  0
   16.5323  -12.8974  -15.2399 C   0  0  0  0  0  0  0  0  0  0  0  0
   17.1054  -12.0730  -14.3503 N   0  0  0  0  0  0  0  0  0  0  0  0
   20.5023   -8.5304  -15.0082 C   0  0  0  0  0  0  0  0  0  0  0  0
   21.3936   -8.3734  -14.1570 O   0  0  0  0  0  0  0  0  0  0  0  0
   20.0137   -7.3380  -15.6372 N   0  0  0  0  0  0  0  0  0  0  0  0
   20.5637   -6.0289  -15.2786 C   0  0  1  0  0  0  0  0  0  0  0  0
   21.0974   -5.3218  -16.4804 C   0  0  0  0  0  0  0  0  0  0  0  0
   21.5604   -3.9744  -16.1160 C   0  0  0  0  0  0  0  0  0  0  0  0
   22.8866   -3.6580  -15.8043 C   0  0  0  0  0  0  0  0  0  0  0  0
   22.9690   -2.3500  -15.5187 N   0  0  0  0  0  0  0  0  0  0  0  0
   21.7348   -1.8386  -15.6422 C   0  0  0  0  0  0  0  0  0  0  0  0
   20.8833   -2.8284  -16.0049 N   0  0  0  0  0  0  0  0  0  0  0  0
   19.5744   -5.2428  -14.5082 C   0  0  0  0  0  0  0  0  0  0  0  0
   19.9128   -4.3250  -13.5518 O   0  0  0  0  0  0  0  0  0  0  0  0
   18.3272   -5.4103  -14.7268 O   0  0  0  0  0  0  0  0  0  0  0  0
  2  1  1  6
  2  4  1  0
  3  2  1  0
  4  5  2  0
  6  4  1  0
  6  7  1  0
  7 14  1  0
  7  8  1  1
  9  8  1  0
 10  9  2  0
 11 12  1  0
 11 10  1  0
 12 13  2  0
 13  9  1  0
 14 15  2  0
 16 17  1  0
 16 14  1  0
 17 24  1  0
 18 19  1  0
 17 18  1  6
 19 23  1  0
 20 21  1  0
 20 19  2  0
 21 22  1  0
 22 23  2  0
 24 26  2  0
 24 25  1  0
M  END
$$$$
