NMC.pdb
     RDKit          3D

 23 22  0  0  1  0  0  0  0  0999 V2000
    7.1905  -13.1526   17.4130 N   0  0  0  0  0  0  0  0  0  0  0  0
    8.1222  -13.8955   18.1709 C   0  0  0  0  0  0  0  0  0  0  0  0
    8.7126  -14.8470   17.5566 O   0  0  0  0  0  0  0  0  0  0  0  0
    8.4200  -13.6124   19.5987 C   0  0  0  0  0  0  0  0  0  0  0  0
    8.4403  -14.8921   20.3917 C   0  0  2  0  0  0  0  0  0  0  0  0
    7.1582  -15.5506   20.2250 N   0  0  0  0  0  0  0  0  0  0  0  0
    8.7000  -14.6913   21.8208 C   0  0  0  0  0  0  0  0  0  0  0  0
    9.7739  -14.1143   22.2120 O   0  0  0  0  0  0  0  0  0  0  0  0
    7.7015  -12.0352   28.2523 C   0  0  0  0  0  0  0  0  0  0  0  0
    7.6427  -12.5250   26.5219 S   0  0  0  0  0  0  0  0  0  0  0  0
    6.7912  -14.1373   26.3260 C   0  0  0  0  0  0  0  0  0  0  0  0
    6.7896  -14.4424   24.8723 C   0  0  0  0  0  0  0  0  0  0  0  0
    8.0973  -14.8680   24.2838 C   0  0  2  0  0  0  0  0  0  0  0  0
    7.8327  -15.0945   22.8680 N   0  0  0  0  0  0  0  0  0  0  0  0
    8.7383  -16.0166   24.9262 C   0  0  0  0  0  0  0  0  0  0  0  0
    8.0946  -17.0942   24.9833 O   0  0  0  0  0  0  0  0  0  0  0  0
   10.0489  -15.9788   25.4886 N   0  0  0  0  0  0  0  0  0  0  0  0
   10.5899  -17.1967   26.0299 C   0  0  1  0  0  0  0  0  0  0  0  0
   12.0817  -17.2254   25.7850 C   0  0  0  0  0  0  0  0  0  0  0  0
   12.3143  -17.1251   23.9700 S   0  0  0  0  0  0  0  0  0  0  0  0
   10.4044  -17.2692   27.5156 C   0  0  0  0  0  0  0  0  0  0  0  0
   10.8494  -18.4140   28.1567 O   0  0  0  0  0  0  0  0  0  0  0  0
    9.8813  -16.3712   28.1902 O   0  0  0  0  0  0  0  0  0  0  0  0
  1  2  1  0
  2  3  2  0
  4  5  1  0
  4  2  1  0
  5  6  1  1
  7  5  1  0
  8  7  2  0
  9 10  1  0
 11 10  1  0
 11 12  1  0
 13 12  1  1
 13 15  1  0
 13 14  1  0
 14  7  1  0
 15 17  1  0
 16 15  2  0
 17 18  1  0
 18 21  1  0
 18 19  1  1
 20 19  1  0
 21 23  2  0
 21 22  1  0
M  END
$$$$
