NMC.pdb
     RDKit          3D

 23 22  0  0  1  0  0  0  0  0999 V2000
   10.8518  -17.3130   18.0013 N   0  0  0  0  0  0  0  0  0  0  0  0
    9.7070  -16.8561   18.6906 C   0  0  0  0  0  0  0  0  0  0  0  0
    8.5818  -17.2413   18.2252 O   0  0  0  0  0  0  0  0  0  0  0  0
    9.7742  -15.9791   19.8881 C   0  0  0  0  0  0  0  0  0  0  0  0
    9.3531  -16.7404   21.1170 C   0  0  2  0  0  0  0  0  0  0  0  0
    8.0044  -17.2325   20.9071 N   0  0  0  0  0  0  0  0  0  0  0  0
    9.3910  -15.9384   22.3440 C   0  0  0  0  0  0  0  0  0  0  0  0
   10.4679  -15.3442   22.6997 O   0  0  0  0  0  0  0  0  0  0  0  0
    6.8339  -11.1797   25.5183 C   0  0  0  0  0  0  0  0  0  0  0  0
    7.7325  -12.5023   26.3435 S   0  0  0  0  0  0  0  0  0  0  0  0
    6.8204  -14.0887   26.2224 C   0  0  0  0  0  0  0  0  0  0  0  0
    7.0360  -14.5977   24.8437 C   0  0  0  0  0  0  0  0  0  0  0  0
    8.3989  -15.1354   24.5421 C   0  0  2  0  0  0  0  0  0  0  0  0
    8.2942  -15.7459   23.2223 N   0  0  0  0  0  0  0  0  0  0  0  0
    8.9559  -16.0490   25.5410 C   0  0  0  0  0  0  0  0  0  0  0  0
    8.3543  -17.1326   25.7482 O   0  0  0  0  0  0  0  0  0  0  0  0
   10.1399  -15.7768   26.2890 N   0  0  0  0  0  0  0  0  0  0  0  0
   10.6729  -16.8233   27.1194 C   0  0  1  0  0  0  0  0  0  0  0  0
   12.1744  -16.8726   26.9479 C   0  0  0  0  0  0  0  0  0  0  0  0
   12.7625  -15.1377   27.0005 S   0  0  0  0  0  0  0  0  0  0  0  0
   10.4226  -16.5545   28.5727 C   0  0  0  0  0  0  0  0  0  0  0  0
   10.8610  -17.5055   29.4799 O   0  0  0  0  0  0  0  0  0  0  0  0
    9.8521  -15.5404   28.9985 O   0  0  0  0  0  0  0  0  0  0  0  0
  1  2  1  0
  2  3  2  0
  4  5  1  0
  4  2  1  0
  5  6  1  6
  7  5  1  0
  8  7  2  0
  9 10  1  0
 11 10  1  0
 11 12  1  0
 13 12  1  1
 13 15  1  0
 13 14  1  0
 14  7  1  0
 15 17  1  0
 16 15  2  0
 17 18  1  0
 18 21  1  0
 18 19  1  1
 20 19  1  0
 21 23  2  0
 21 22  1  0
M  END
$$$$
