NMC.pdb
     RDKit          3D

 23 22  0  0  1  0  0  0  0  0999 V2000
   10.4627  -18.9768   18.9323 N   0  0  0  0  0  0  0  0  0  0  0  0
    9.6575  -18.7129   20.0621 C   0  0  0  0  0  0  0  0  0  0  0  0
    8.5016  -19.2561   20.0657 O   0  0  0  0  0  0  0  0  0  0  0  0
   10.0995  -17.8591   21.1949 C   0  0  0  0  0  0  0  0  0  0  0  0
    9.3056  -16.5801   21.2254 C   0  0  2  0  0  0  0  0  0  0  0  0
    9.6918  -15.7778   20.0798 N   0  0  0  0  0  0  0  0  0  0  0  0
    9.4999  -15.7997   22.4515 C   0  0  0  0  0  0  0  0  0  0  0  0
   10.5343  -15.0588   22.5940 O   0  0  0  0  0  0  0  0  0  0  0  0
    6.0745  -12.6983   27.1532 C   0  0  0  0  0  0  0  0  0  0  0  0
    6.6669  -11.9775   25.6146 S   0  0  0  0  0  0  0  0  0  0  0  0
    7.0743  -13.2836   24.3935 C   0  0  0  0  0  0  0  0  0  0  0  0
    7.5211  -14.4674   25.1715 C   0  0  0  0  0  0  0  0  0  0  0  0
    8.8456  -15.0487   24.7901 C   0  0  2  0  0  0  0  0  0  0  0  0
    8.6074  -15.7838   23.5537 N   0  0  0  0  0  0  0  0  0  0  0  0
    9.4976  -15.8672   25.8135 C   0  0  0  0  0  0  0  0  0  0  0  0
    9.5381  -17.1105   25.6355 O   0  0  0  0  0  0  0  0  0  0  0  0
   10.0872  -15.3321   26.9973 N   0  0  0  0  0  0  0  0  0  0  0  0
   10.9000  -16.2030   27.8034 C   0  0  1  0  0  0  0  0  0  0  0  0
   11.3814  -15.4434   29.0189 C   0  0  0  0  0  0  0  0  0  0  0  0
   11.2766  -13.6631   28.5965 S   0  0  0  0  0  0  0  0  0  0  0  0
   10.1129  -17.3698   28.3192 C   0  0  0  0  0  0  0  0  0  0  0  0
   10.8072  -18.3494   29.0104 O   0  0  0  0  0  0  0  0  0  0  0  0
    8.8910  -17.5015   28.1616 O   0  0  0  0  0  0  0  0  0  0  0  0
  1  2  1  0
  2  3  2  0
  4  5  1  0
  4  2  1  0
  5  6  1  6
  7  5  1  0
  8  7  2  0
  9 10  1  0
 11 10  1  0
 11 12  1  0
 13 12  1  1
 13 15  1  0
 13 14  1  0
 14  7  1  0
 15 17  1  0
 16 15  2  0
 17 18  1  0
 18 21  1  0
 18 19  1  1
 20 19  1  0
 21 23  2  0
 21 22  1  0
M  END
$$$$
