NMC.pdb
     RDKit          3D

 23 22  0  0  1  0  0  0  0  0999 V2000
    4.4098  -20.7069   21.6030 N   0  0  0  0  0  0  0  0  0  0  0  0
    4.6495  -20.7950   22.9919 C   0  0  0  0  0  0  0  0  0  0  0  0
    4.1816  -21.8294   23.5768 O   0  0  0  0  0  0  0  0  0  0  0  0
    5.3974  -19.7630   23.7557 C   0  0  0  0  0  0  0  0  0  0  0  0
    5.6859  -18.5724   22.8803 C   0  0  2  0  0  0  0  0  0  0  0  0
    6.1067  -19.0563   21.5788 N   0  0  0  0  0  0  0  0  0  0  0  0
    6.7172  -17.6827   23.4234 C   0  0  0  0  0  0  0  0  0  0  0  0
    7.9364  -17.7955   23.0492 O   0  0  0  0  0  0  0  0  0  0  0  0
    6.4325  -11.1928   25.3983 C   0  0  0  0  0  0  0  0  0  0  0  0
    6.6466  -12.3064   26.7954 S   0  0  0  0  0  0  0  0  0  0  0  0
    7.7133  -13.7277   26.3428 C   0  0  0  0  0  0  0  0  0  0  0  0
    6.8479  -14.6940   25.6191 C   0  0  0  0  0  0  0  0  0  0  0  0
    7.5386  -15.8700   25.0047 C   0  0  2  0  0  0  0  0  0  0  0  0
    6.4849  -16.6550   24.3728 N   0  0  0  0  0  0  0  0  0  0  0  0
    8.3644  -16.6668   25.9134 C   0  0  0  0  0  0  0  0  0  0  0  0
    7.7926  -17.5325   26.6224 O   0  0  0  0  0  0  0  0  0  0  0  0
    9.7775  -16.5144   26.0372 N   0  0  0  0  0  0  0  0  0  0  0  0
   10.5402  -17.6330   26.5227 C   0  0  1  0  0  0  0  0  0  0  0  0
   10.5128  -18.7351   25.4878 C   0  0  0  0  0  0  0  0  0  0  0  0
   11.4896  -20.1235   26.1784 S   0  0  0  0  0  0  0  0  0  0  0  0
   11.9822  -17.2731   26.7180 C   0  0  0  0  0  0  0  0  0  0  0  0
   12.6642  -17.9127   27.7405 O   0  0  0  0  0  0  0  0  0  0  0  0
   12.5870  -16.4452   26.0224 O   0  0  0  0  0  0  0  0  0  0  0  0
  1  2  1  0
  2  3  2  0
  4  5  1  0
  4  2  1  0
  5  6  1  6
  7  5  1  0
  8  7  2  0
  9 10  1  0
 11 10  1  0
 11 12  1  0
 13 12  1  1
 13 15  1  0
 13 14  1  0
 14  7  1  0
 15 17  1  0
 16 15  2  0
 17 18  1  0
 18 21  1  0
 18 19  1  6
 20 19  1  0
 21 23  2  0
 21 22  1  0
M  END
$$$$
