NMC.pdb
     RDKit          3D

 23 22  0  0  1  0  0  0  0  0999 V2000
    7.1522  -13.0532   17.1979 N   0  0  0  0  0  0  0  0  0  0  0  0
    8.0224  -13.9677   17.8310 C   0  0  0  0  0  0  0  0  0  0  0  0
    8.3088  -15.0204   17.1670 O   0  0  0  0  0  0  0  0  0  0  0  0
    8.5877  -13.7474   19.1873 C   0  0  0  0  0  0  0  0  0  0  0  0
    8.4341  -14.9890   20.0251 C   0  0  2  0  0  0  0  0  0  0  0  0
    7.0937  -15.5080   19.8272 N   0  0  0  0  0  0  0  0  0  0  0  0
    8.6595  -14.7613   21.4559 C   0  0  0  0  0  0  0  0  0  0  0  0
    9.7717  -14.2818   21.8710 O   0  0  0  0  0  0  0  0  0  0  0  0
    7.1399  -12.1199   28.0168 C   0  0  0  0  0  0  0  0  0  0  0  0
    7.2946  -12.5581   26.2784 S   0  0  0  0  0  0  0  0  0  0  0  0
    6.6332  -14.2395   25.9652 C   0  0  0  0  0  0  0  0  0  0  0  0
    6.6584  -14.4380   24.4934 C   0  0  0  0  0  0  0  0  0  0  0  0
    7.9725  -14.8392   23.9019 C   0  0  2  0  0  0  0  0  0  0  0  0
    7.7169  -15.0344   22.4798 N   0  0  0  0  0  0  0  0  0  0  0  0
    8.6194  -15.9975   24.5205 C   0  0  0  0  0  0  0  0  0  0  0  0
    8.0080  -17.0951   24.4980 O   0  0  0  0  0  0  0  0  0  0  0  0
    9.9012  -15.9479   25.1448 N   0  0  0  0  0  0  0  0  0  0  0  0
   10.4455  -17.1696   25.6740 C   0  0  1  0  0  0  0  0  0  0  0  0
   11.9551  -17.0968   25.6301 C   0  0  0  0  0  0  0  0  0  0  0  0
   12.4139  -16.8371   23.8749 S   0  0  0  0  0  0  0  0  0  0  0  0
   10.0737  -17.3601   27.1136 C   0  0  0  0  0  0  0  0  0  0  0  0
   10.5073  -18.5205   27.7340 O   0  0  0  0  0  0  0  0  0  0  0  0
    9.4082  -16.5451   27.7679 O   0  0  0  0  0  0  0  0  0  0  0  0
  1  2  1  0
  2  3  2  0
  4  5  1  0
  4  2  1  0
  5  6  1  1
  7  5  1  0
  8  7  2  0
  9 10  1  0
 11 10  1  0
 11 12  1  0
 13 12  1  1
 13 15  1  0
 13 14  1  0
 14  7  1  0
 15 17  1  0
 16 15  2  0
 17 18  1  0
 18 21  1  0
 18 19  1  1
 20 19  1  0
 21 23  2  0
 21 22  1  0
M  END
$$$$
