NMC.pdb
     RDKit          3D

 23 22  0  0  1  0  0  0  0  0999 V2000
    8.4566  -19.8130   20.4538 N   0  0  0  0  0  0  0  0  0  0  0  0
    8.3280  -18.5741   19.7882 C   0  0  0  0  0  0  0  0  0  0  0  0
    8.1691  -18.6319   18.5223 O   0  0  0  0  0  0  0  0  0  0  0  0
    8.3707  -17.2651   20.4899 C   0  0  0  0  0  0  0  0  0  0  0  0
    8.6083  -17.4696   21.9625 C   0  0  2  0  0  0  0  0  0  0  0  0
    7.3592  -17.8879   22.5708 N   0  0  0  0  0  0  0  0  0  0  0  0
    9.1038  -16.2715   22.6475 C   0  0  0  0  0  0  0  0  0  0  0  0
   10.2550  -15.7888   22.3630 O   0  0  0  0  0  0  0  0  0  0  0  0
    6.3330  -11.3320   26.1570 C   0  0  0  0  0  0  0  0  0  0  0  0
    6.1805  -12.9937   26.8303 S   0  0  0  0  0  0  0  0  0  0  0  0
    6.7323  -14.2477   25.6114 C   0  0  0  0  0  0  0  0  0  0  0  0
    7.7413  -13.5837   24.7469 C   0  0  0  0  0  0  0  0  0  0  0  0
    8.9310  -14.4066   24.3660 C   0  0  2  0  0  0  0  0  0  0  0  0
    8.3958  -15.5567   23.6471 N   0  0  0  0  0  0  0  0  0  0  0  0
    9.8136  -14.7939   25.4677 C   0  0  0  0  0  0  0  0  0  0  0  0
   10.4612  -13.8878   26.0496 O   0  0  0  0  0  0  0  0  0  0  0  0
    9.9776  -16.1387   25.9146 N   0  0  0  0  0  0  0  0  0  0  0  0
   10.6069  -16.3577   27.1894 C   0  0  1  0  0  0  0  0  0  0  0  0
    9.7655  -15.7187   28.2710 C   0  0  0  0  0  0  0  0  0  0  0  0
   10.8817  -14.6138   29.2155 S   0  0  0  0  0  0  0  0  0  0  0  0
   10.6843  -17.8173   27.5218 C   0  0  0  0  0  0  0  0  0  0  0  0
   11.4745  -18.1827   28.5996 O   0  0  0  0  0  0  0  0  0  0  0  0
   10.0869  -18.7010   26.8916 O   0  0  0  0  0  0  0  0  0  0  0  0
  1  2  1  0
  2  3  2  0
  4  5  1  0
  4  2  1  0
  5  6  1  1
  7  5  1  0
  8  7  2  0
  9 10  1  0
 11 10  1  0
 11 12  1  0
 13 12  1  1
 13 15  1  0
 13 14  1  0
 14  7  1  0
 15 17  1  0
 16 15  2  0
 17 18  1  0
 18 21  1  0
 18 19  1  1
 20 19  1  0
 21 23  2  0
 21 22  1  0
M  END
$$$$
