NMC.pdb
     RDKit          3D

 23 22  0  0  1  0  0  0  0  0999 V2000
    8.9572  -19.6556   18.9927 N   0  0  0  0  0  0  0  0  0  0  0  0
    8.1594  -18.9011   19.8807 C   0  0  0  0  0  0  0  0  0  0  0  0
    6.9181  -18.8234   19.5905 O   0  0  0  0  0  0  0  0  0  0  0  0
    8.7013  -18.2261   21.0883 C   0  0  0  0  0  0  0  0  0  0  0  0
    8.3760  -16.7563   21.0552 C   0  0  2  0  0  0  0  0  0  0  0  0
    9.0550  -16.1658   19.9171 N   0  0  0  0  0  0  0  0  0  0  0  0
    8.7652  -16.0430   22.2757 C   0  0  0  0  0  0  0  0  0  0  0  0
    9.9984  -15.8057   22.5252 O   0  0  0  0  0  0  0  0  0  0  0  0
    7.4953  -11.3291   25.4544 C   0  0  0  0  0  0  0  0  0  0  0  0
    6.6678  -12.3060   26.7188 S   0  0  0  0  0  0  0  0  0  0  0  0
    7.1530  -14.0708   26.6052 C   0  0  0  0  0  0  0  0  0  0  0  0
    7.0741  -14.4408   25.1688 C   0  0  0  0  0  0  0  0  0  0  0  0
    8.2534  -15.1699   24.6074 C   0  0  2  0  0  0  0  0  0  0  0  0
    7.8624  -15.5646   23.2593 N   0  0  0  0  0  0  0  0  0  0  0  0
    8.7402  -16.2975   25.4038 C   0  0  0  0  0  0  0  0  0  0  0  0
    8.0466  -17.3451   25.4267 O   0  0  0  0  0  0  0  0  0  0  0  0
    9.9545  -16.2715   26.1522 N   0  0  0  0  0  0  0  0  0  0  0  0
   10.3638  -17.4766   26.8225 C   0  0  1  0  0  0  0  0  0  0  0  0
   11.7654  -17.8342   26.3823 C   0  0  0  0  0  0  0  0  0  0  0  0
   12.2644  -19.2966   27.3678 S   0  0  0  0  0  0  0  0  0  0  0  0
   10.4234  -17.2872   28.3083 C   0  0  0  0  0  0  0  0  0  0  0  0
   10.7481  -18.3928   29.0776 O   0  0  0  0  0  0  0  0  0  0  0  0
   10.2004  -16.2086   28.8758 O   0  0  0  0  0  0  0  0  0  0  0  0
  1  2  1  0
  2  3  2  0
  4  5  1  0
  4  2  1  0
  5  6  1  6
  7  5  1  0
  8  7  2  0
  9 10  1  0
 11 10  1  0
 11 12  1  0
 13 12  1  1
 13 15  1  0
 13 14  1  0
 14  7  1  0
 15 17  1  0
 16 15  2  0
 17 18  1  0
 18 21  1  0
 18 19  1  6
 20 19  1  0
 21 23  2  0
 21 22  1  0
M  END
$$$$
