NMC.pdb
     RDKit          3D

 23 22  0  0  1  0  0  0  0  0999 V2000
    7.5631  -17.7776   18.2755 N   0  0  0  0  0  0  0  0  0  0  0  0
    7.7424  -18.6056   19.4053 C   0  0  0  0  0  0  0  0  0  0  0  0
    7.4115  -19.8306   19.2606 O   0  0  0  0  0  0  0  0  0  0  0  0
    8.2814  -18.1117   20.6989 C   0  0  0  0  0  0  0  0  0  0  0  0
    8.4176  -16.6125   20.6694 C   0  0  2  0  0  0  0  0  0  0  0  0
    9.3678  -16.2627   19.6302 N   0  0  0  0  0  0  0  0  0  0  0  0
    8.8609  -16.0399   21.9444 C   0  0  0  0  0  0  0  0  0  0  0  0
   10.1086  -15.9395   22.2137 O   0  0  0  0  0  0  0  0  0  0  0  0
    7.2079  -11.1324   27.3526 C   0  0  0  0  0  0  0  0  0  0  0  0
    6.3650  -12.4377   26.4452 S   0  0  0  0  0  0  0  0  0  0  0  0
    7.4414  -13.9117   26.2667 C   0  0  0  0  0  0  0  0  0  0  0  0
    7.2744  -14.3924   24.8713 C   0  0  0  0  0  0  0  0  0  0  0  0
    8.4511  -15.0903   24.2664 C   0  0  2  0  0  0  0  0  0  0  0  0
    7.9979  -15.5608   22.9629 N   0  0  0  0  0  0  0  0  0  0  0  0
    9.0400  -16.1587   25.0755 C   0  0  0  0  0  0  0  0  0  0  0  0
    8.4020  -17.2360   25.1824 O   0  0  0  0  0  0  0  0  0  0  0  0
   10.2938  -16.0434   25.7463 N   0  0  0  0  0  0  0  0  0  0  0  0
   10.7666  -17.1743   26.4989 C   0  0  1  0  0  0  0  0  0  0  0  0
   12.2763  -17.1253   26.5668 C   0  0  0  0  0  0  0  0  0  0  0  0
   12.7921  -18.4803   27.6878 S   0  0  0  0  0  0  0  0  0  0  0  0
   10.2788  -17.1357   27.9158 C   0  0  0  0  0  0  0  0  0  0  0  0
    9.9796  -18.3469   28.5184 O   0  0  0  0  0  0  0  0  0  0  0  0
   10.1315  -16.0917   28.5665 O   0  0  0  0  0  0  0  0  0  0  0  0
  1  2  1  0
  2  3  2  0
  4  5  1  0
  4  2  1  0
  5  6  1  6
  7  5  1  0
  8  7  2  0
  9 10  1  0
 11 10  1  0
 11 12  1  0
 13 12  1  1
 13 15  1  0
 13 14  1  0
 14  7  1  0
 15 17  1  0
 16 15  2  0
 17 18  1  0
 18 21  1  0
 18 19  1  1
 20 19  1  0
 21 23  2  0
 21 22  1  0
M  END
$$$$
