CGR.pdb
     RDKit          3D

 22 21  0  0  1  0  0  0  0  0999 V2000
   26.0826  -16.6365  -16.8520 N   0  0  0  0  0  0  0  0  0  0  0  0
   27.3098  -17.0700  -17.4806 C   0  0  1  0  0  0  0  0  0  0  0  0
   28.2183  -15.8850  -17.7705 C   0  0  0  0  0  0  0  0  0  0  0  0
   27.2179  -14.5478  -18.4894 S   0  0  0  0  0  0  0  0  0  0  0  0
   27.9731  -18.0570  -16.6052 C   0  0  0  0  0  0  0  0  0  0  0  0
   29.0845  -18.5275  -16.9441 O   0  0  0  0  0  0  0  0  0  0  0  0
   27.3404  -18.4522  -15.4004 N   0  0  0  0  0  0  0  0  0  0  0  0
   27.9758  -19.4574  -14.5738 C   0  0  0  0  0  0  0  0  0  0  0  0
   27.1822  -19.6760  -13.3202 C   0  0  0  0  0  0  0  0  0  0  0  0
   27.3198  -18.8682  -12.3479 O   0  0  0  0  0  0  0  0  0  0  0  0
   20.6570  -22.6492  -13.9245 N   0  0  0  0  0  0  0  0  0  0  0  0
   20.0069  -21.9955  -12.8457 C   0  0  0  0  0  0  0  0  0  0  0  0
   18.8608  -22.4149  -12.4254 N   0  0  0  0  0  0  0  0  0  0  0  0
   20.5719  -20.8676  -12.1833 N   0  0  0  0  0  0  0  0  0  0  0  0
   21.9560  -20.5256  -12.2792 C   0  0  0  0  0  0  0  0  0  0  0  0
   22.8904  -21.4990  -11.6343 C   0  0  0  0  0  0  0  0  0  0  0  0
   24.1557  -21.7383  -12.4027 C   0  0  0  0  0  0  0  0  0  0  0  0
   25.2238  -20.7303  -12.1472 C   0  0  2  0  0  0  0  0  0  0  0  0
   26.2711  -20.7475  -13.1491 N   0  0  0  0  0  0  0  0  0  0  0  0
   25.8590  -21.0831  -10.8288 C   0  0  0  0  0  0  0  0  0  0  0  0
   26.8680  -21.8376  -10.7582 O   0  0  0  0  0  0  0  0  0  0  0  0
   25.3385  -20.5789   -9.6624 O   0  0  0  0  0  0  0  0  0  0  0  0
  2  1  1  1
  2  5  1  0
  2  3  1  0
  4  3  1  0
  5  6  2  0
  7  5  1  0
  7  8  1  0
  8  9  1  0
  9 19  1  0
  9 10  2  0
 11 12  1  0
 12 13  2  0
 14 12  1  0
 14 15  1  0
 16 17  1  0
 16 15  1  0
 18 17  1  6
 18 20  1  0
 19 18  1  0
 20 22  1  0
 21 20  2  0
M  END
$$$$
