CGR.pdb
     RDKit          3D

 22 21  0  0  1  0  0  0  0  0999 V2000
   26.4207  -16.6744  -17.5373 N   0  0  0  0  0  0  0  0  0  0  0  0
   27.4447  -17.3223  -16.7494 C   0  0  1  0  0  0  0  0  0  0  0  0
   27.3943  -16.8528  -15.3035 C   0  0  0  0  0  0  0  0  0  0  0  0
   26.3319  -15.3804  -15.2072 S   0  0  0  0  0  0  0  0  0  0  0  0
   27.2704  -18.7853  -16.8479 C   0  0  0  0  0  0  0  0  0  0  0  0
   26.1640  -19.2474  -17.2136 O   0  0  0  0  0  0  0  0  0  0  0  0
   28.3568  -19.6369  -16.5275 N   0  0  0  0  0  0  0  0  0  0  0  0
   28.1647  -21.0708  -16.5940 C   0  0  0  0  0  0  0  0  0  0  0  0
   27.2950  -21.5309  -15.4621 C   0  0  0  0  0  0  0  0  0  0  0  0
   27.0396  -22.7703  -15.3378 O   0  0  0  0  0  0  0  0  0  0  0  0
   26.0108  -19.9374   -7.0053 N   0  0  0  0  0  0  0  0  0  0  0  0
   25.1033  -20.9615   -7.3812 C   0  0  0  0  0  0  0  0  0  0  0  0
   24.0672  -21.2131   -6.6536 N   0  0  0  0  0  0  0  0  0  0  0  0
   25.2826  -21.7484   -8.5553 N   0  0  0  0  0  0  0  0  0  0  0  0
   26.1509  -21.3617   -9.6223 C   0  0  0  0  0  0  0  0  0  0  0  0
   25.5112  -21.3309  -10.9739 C   0  0  0  0  0  0  0  0  0  0  0  0
   26.4577  -21.0233  -12.0955 C   0  0  0  0  0  0  0  0  0  0  0  0
   25.8447  -21.1104  -13.4515 C   0  0  2  0  0  0  0  0  0  0  0  0
   26.7297  -20.6530  -14.5043 N   0  0  0  0  0  0  0  0  0  0  0  0
   24.6419  -20.2052  -13.4523 C   0  0  0  0  0  0  0  0  0  0  0  0
   24.7180  -18.9996  -13.8174 O   0  0  0  0  0  0  0  0  0  0  0  0
   23.4220  -20.6886  -13.0475 O   0  0  0  0  0  0  0  0  0  0  0  0
  2  1  1  6
  2  5  1  0
  2  3  1  0
  4  3  1  0
  5  6  2  0
  7  5  1  0
  7  8  1  0
  8  9  1  0
  9 19  1  0
  9 10  2  0
 11 12  1  0
 12 13  2  0
 14 12  1  0
 14 15  1  0
 16 17  1  0
 16 15  1  0
 18 17  1  1
 18 20  1  0
 19 18  1  0
 20 22  1  0
 21 20  2  0
M  END
$$$$
