CGR.pdb
     RDKit          3D

 22 21  0  0  1  0  0  0  0  0999 V2000
   16.6389  -17.1416  -15.1828 N   0  0  0  0  0  0  0  0  0  0  0  0
   16.2637  -16.1785  -14.1725 C   0  0  1  0  0  0  0  0  0  0  0  0
   17.2957  -16.1340  -13.0561 C   0  0  0  0  0  0  0  0  0  0  0  0
   17.2336  -17.7058  -12.1442 S   0  0  0  0  0  0  0  0  0  0  0  0
   16.1002  -14.8562  -14.8091 C   0  0  0  0  0  0  0  0  0  0  0  0
   16.8461  -14.5402  -15.7658 O   0  0  0  0  0  0  0  0  0  0  0  0
   15.1039  -13.9717  -14.3261 N   0  0  0  0  0  0  0  0  0  0  0  0
   14.9814  -12.6603  -14.9284 C   0  0  0  0  0  0  0  0  0  0  0  0
   15.5822  -11.6191  -14.0316 C   0  0  0  0  0  0  0  0  0  0  0  0
   16.0170  -11.9603  -12.8865 O   0  0  0  0  0  0  0  0  0  0  0  0
   22.8019   -8.7569  -15.0131 N   0  0  0  0  0  0  0  0  0  0  0  0
   21.9208   -8.7766  -16.1254 C   0  0  0  0  0  0  0  0  0  0  0  0
   22.3895   -8.7623  -17.3280 N   0  0  0  0  0  0  0  0  0  0  0  0
   20.5042   -8.8133  -15.9777 N   0  0  0  0  0  0  0  0  0  0  0  0
   19.8601   -8.9249  -14.7070 C   0  0  0  0  0  0  0  0  0  0  0  0
   18.3674   -9.0002  -14.7631 C   0  0  0  0  0  0  0  0  0  0  0  0
   17.7130   -9.2328  -13.4341 C   0  0  0  0  0  0  0  0  0  0  0  0
   16.2232   -9.2504  -13.4831 C   0  0  2  0  0  0  0  0  0  0  0  0
   15.6975  -10.2528  -14.3885 N   0  0  0  0  0  0  0  0  0  0  0  0
   15.7815   -7.9062  -13.9973 C   0  0  0  0  0  0  0  0  0  0  0  0
   15.9884   -6.8452  -13.3463 O   0  0  0  0  0  0  0  0  0  0  0  0
   15.1348   -7.8150  -15.2052 O   0  0  0  0  0  0  0  0  0  0  0  0
  2  1  1  6
  2  5  1  0
  2  3  1  0
  4  3  1  0
  5  6  2  0
  7  5  1  0
  7  8  1  0
  8  9  1  0
  9 19  1  0
  9 10  2  0
 11 12  1  0
 12 13  2  0
 14 12  1  0
 14 15  1  0
 16 17  1  0
 16 15  1  0
 18 17  1  6
 18 20  1  0
 19 18  1  0
 20 22  1  0
 21 20  2  0
M  END
$$$$
