CGR.pdb
     RDKit          3D

 22 21  0  0  1  0  0  0  0  0999 V2000
   28.2526  -15.3753  -20.3297 N   0  0  0  0  0  0  0  0  0  0  0  0
   27.2213  -16.3878  -20.3213 C   0  0  1  0  0  0  0  0  0  0  0  0
   27.7115  -17.6664  -20.9836 C   0  0  0  0  0  0  0  0  0  0  0  0
   29.0947  -18.3322  -20.0093 S   0  0  0  0  0  0  0  0  0  0  0  0
   26.7995  -16.6299  -18.9270 C   0  0  0  0  0  0  0  0  0  0  0  0
   25.8526  -17.4197  -18.7015 O   0  0  0  0  0  0  0  0  0  0  0  0
   27.4736  -15.9649  -17.8726 N   0  0  0  0  0  0  0  0  0  0  0  0
   26.9862  -16.1276  -16.5186 C   0  0  0  0  0  0  0  0  0  0  0  0
   27.4226  -17.4516  -15.9655 C   0  0  0  0  0  0  0  0  0  0  0  0
   28.5811  -17.8927  -16.2485 O   0  0  0  0  0  0  0  0  0  0  0  0
   23.8273  -21.0683  -10.1483 N   0  0  0  0  0  0  0  0  0  0  0  0
   25.1090  -21.0817   -9.5395 C   0  0  0  0  0  0  0  0  0  0  0  0
   25.2543  -20.6896   -8.3183 N   0  0  0  0  0  0  0  0  0  0  0  0
   26.2774  -21.5194  -10.2276 N   0  0  0  0  0  0  0  0  0  0  0  0
   26.4216  -21.4271  -11.6462 C   0  0  0  0  0  0  0  0  0  0  0  0
   27.4195  -20.4152  -12.1123 C   0  0  0  0  0  0  0  0  0  0  0  0
   26.8310  -19.2992  -12.9228 C   0  0  0  0  0  0  0  0  0  0  0  0
   27.1295  -19.3818  -14.3809 C   0  0  2  0  0  0  0  0  0  0  0  0
   26.6081  -18.2566  -15.1311 N   0  0  0  0  0  0  0  0  0  0  0  0
   26.4512  -20.6207  -14.9018 C   0  0  0  0  0  0  0  0  0  0  0  0
   25.2854  -20.5872  -15.3835 O   0  0  0  0  0  0  0  0  0  0  0  0
   27.1049  -21.8276  -14.8587 O   0  0  0  0  0  0  0  0  0  0  0  0
  2  1  1  1
  2  5  1  0
  2  3  1  0
  4  3  1  0
  5  6  2  0
  7  5  1  0
  7  8  1  0
  8  9  1  0
  9 19  1  0
  9 10  2  0
 11 12  1  0
 12 13  2  0
 14 12  1  0
 14 15  1  0
 16 17  1  0
 16 15  1  0
 18 17  1  1
 18 20  1  0
 19 18  1  0
 20 22  1  0
 21 20  2  0
M  END
$$$$
