CGR.pdb
     RDKit          3D

 22 21  0  0  1  0  0  0  0  0999 V2000
   26.5053  -22.8375  -16.3360 N   0  0  0  0  0  0  0  0  0  0  0  0
   26.7413  -21.4882  -16.7970 C   0  0  1  0  0  0  0  0  0  0  0  0
   26.8747  -21.4485  -18.3117 C   0  0  0  0  0  0  0  0  0  0  0  0
   28.1037  -22.6885  -18.8196 S   0  0  0  0  0  0  0  0  0  0  0  0
   25.6396  -20.6231  -16.3296 C   0  0  0  0  0  0  0  0  0  0  0  0
   25.6363  -19.4102  -16.6461 O   0  0  0  0  0  0  0  0  0  0  0  0
   24.6090  -21.1813  -15.5331 N   0  0  0  0  0  0  0  0  0  0  0  0
   23.4794  -20.3513  -15.1689 C   0  0  0  0  0  0  0  0  0  0  0  0
   22.4176  -21.1801  -14.5095 C   0  0  0  0  0  0  0  0  0  0  0  0
   22.5652  -22.4413  -14.4421 O   0  0  0  0  0  0  0  0  0  0  0  0
   17.3862  -24.4210   -8.9241 N   0  0  0  0  0  0  0  0  0  0  0  0
   18.2326  -25.0352   -9.8833 C   0  0  0  0  0  0  0  0  0  0  0  0
   18.4594  -26.3050   -9.8339 N   0  0  0  0  0  0  0  0  0  0  0  0
   18.8624  -24.3002  -10.9289 N   0  0  0  0  0  0  0  0  0  0  0  0
   18.5088  -22.9538  -11.2516 C   0  0  0  0  0  0  0  0  0  0  0  0
   19.5619  -21.9367  -10.9464 C   0  0  0  0  0  0  0  0  0  0  0  0
   19.7476  -20.9034  -12.0172 C   0  0  0  0  0  0  0  0  0  0  0  0
   20.2193  -21.4536  -13.3199 C   0  0  2  0  0  0  0  0  0  0  0  0
   21.2377  -20.6342  -13.9461 N   0  0  0  0  0  0  0  0  0  0  0  0
   19.0323  -21.4784  -14.2454 C   0  0  0  0  0  0  0  0  0  0  0  0
   18.6435  -20.4443  -14.8552 O   0  0  0  0  0  0  0  0  0  0  0  0
   18.3430  -22.6497  -14.4422 O   0  0  0  0  0  0  0  0  0  0  0  0
  2  1  1  6
  2  5  1  0
  2  3  1  0
  4  3  1  0
  5  6  2  0
  7  5  1  0
  7  8  1  0
  8  9  1  0
  9 19  1  0
  9 10  2  0
 11 12  1  0
 12 13  2  0
 14 12  1  0
 14 15  1  0
 16 17  1  0
 16 15  1  0
 18 17  1  1
 18 20  1  0
 19 18  1  0
 20 22  1  0
 21 20  2  0
M  END
$$$$
