CGR.pdb
     RDKit          3D

 22 21  0  0  1  0  0  0  0  0999 V2000
   25.1780  -15.8883  -19.4021 N   0  0  0  0  0  0  0  0  0  0  0  0
   25.4506  -17.1825  -18.8194 C   0  0  1  0  0  0  0  0  0  0  0  0
   26.8130  -17.6980  -19.2573 C   0  0  0  0  0  0  0  0  0  0  0  0
   26.7913  -17.9396  -21.0593 S   0  0  0  0  0  0  0  0  0  0  0  0
   25.3618  -17.0739  -17.3494 C   0  0  0  0  0  0  0  0  0  0  0  0
   25.8161  -16.0527  -16.7818 O   0  0  0  0  0  0  0  0  0  0  0  0
   24.7650  -18.1256  -16.6106 N   0  0  0  0  0  0  0  0  0  0  0  0
   24.6301  -17.9833  -15.1756 C   0  0  0  0  0  0  0  0  0  0  0  0
   23.9732  -19.1990  -14.5930 C   0  0  0  0  0  0  0  0  0  0  0  0
   23.2083  -19.9037  -15.3245 O   0  0  0  0  0  0  0  0  0  0  0  0
   28.3108  -21.7958  -11.5465 N   0  0  0  0  0  0  0  0  0  0  0  0
   28.4752  -21.1036  -10.3186 C   0  0  0  0  0  0  0  0  0  0  0  0
   29.6562  -20.7997   -9.8952 N   0  0  0  0  0  0  0  0  0  0  0  0
   27.3709  -20.7152   -9.5064 N   0  0  0  0  0  0  0  0  0  0  0  0
   26.0303  -21.1340   -9.7694 C   0  0  0  0  0  0  0  0  0  0  0  0
   25.4997  -20.7386  -11.1107 C   0  0  0  0  0  0  0  0  0  0  0  0
   24.0977  -21.1989  -11.3776 C   0  0  0  0  0  0  0  0  0  0  0  0
   23.5890  -20.8483  -12.7342 C   0  0  2  0  0  0  0  0  0  0  0  0
   24.1557  -19.6189  -13.2521 N   0  0  0  0  0  0  0  0  0  0  0  0
   22.1034  -20.6392  -12.6093 C   0  0  0  0  0  0  0  0  0  0  0  0
   21.6059  -19.4920  -12.4399 O   0  0  0  0  0  0  0  0  0  0  0  0
   21.2532  -21.7153  -12.6790 O   0  0  0  0  0  0  0  0  0  0  0  0
  2  1  1  6
  2  5  1  0
  2  3  1  0
  4  3  1  0
  5  6  2  0
  7  5  1  0
  7  8  1  0
  8  9  1  0
  9 19  1  0
  9 10  2  0
 11 12  1  0
 12 13  2  0
 14 12  1  0
 14 15  1  0
 16 17  1  0
 16 15  1  0
 18 17  1  1
 18 20  1  0
 19 18  1  0
 20 22  1  0
 21 20  2  0
M  END
$$$$
