CGR.pdb
     RDKit          3D

 22 21  0  0  1  0  0  0  0  0999 V2000
   19.3724  -25.8685  -10.4538 N   0  0  0  0  0  0  0  0  0  0  0  0
   18.9724  -24.9054   -9.4531 C   0  0  1  0  0  0  0  0  0  0  0  0
   18.4319  -23.6410  -10.1031 C   0  0  0  0  0  0  0  0  0  0  0  0
   19.7841  -22.8286  -11.0072 S   0  0  0  0  0  0  0  0  0  0  0  0
   17.9694  -25.5266   -8.5650 C   0  0  0  0  0  0  0  0  0  0  0  0
   17.0875  -26.2672   -9.0600 O   0  0  0  0  0  0  0  0  0  0  0  0
   18.0243  -25.2732   -7.1718 N   0  0  0  0  0  0  0  0  0  0  0  0
   17.0460  -25.9009   -6.3078 C   0  0  0  0  0  0  0  0  0  0  0  0
   17.3500  -25.5950   -4.8714 C   0  0  0  0  0  0  0  0  0  0  0  0
   18.4577  -25.0465   -4.5731 O   0  0  0  0  0  0  0  0  0  0  0  0
   12.1985  -21.8968    1.7887 N   0  0  0  0  0  0  0  0  0  0  0  0
   13.4488  -21.3955    1.3426 C   0  0  0  0  0  0  0  0  0  0  0  0
   13.6993  -20.1303    1.3940 N   0  0  0  0  0  0  0  0  0  0  0  0
   14.4717  -22.2426    0.8265 N   0  0  0  0  0  0  0  0  0  0  0  0
   14.3420  -22.9509   -0.4077 C   0  0  0  0  0  0  0  0  0  0  0  0
   15.5407  -23.7542   -0.8007 C   0  0  0  0  0  0  0  0  0  0  0  0
   15.3867  -24.4960   -2.0949 C   0  0  0  0  0  0  0  0  0  0  0  0
   16.5902  -25.2792   -2.4953 C   0  0  2  0  0  0  0  0  0  0  0  0
   16.4622  -25.8850   -3.8059 N   0  0  0  0  0  0  0  0  0  0  0  0
   16.7428  -26.3966   -1.4981 C   0  0  0  0  0  0  0  0  0  0  0  0
   17.0747  -26.1775   -0.3005 O   0  0  0  0  0  0  0  0  0  0  0  0
   16.5187  -27.6946   -1.8861 O   0  0  0  0  0  0  0  0  0  0  0  0
  2  1  1  6
  2  5  1  0
  2  3  1  0
  4  3  1  0
  5  6  2  0
  7  5  1  0
  7  8  1  0
  8  9  1  0
  9 19  1  0
  9 10  2  0
 11 12  1  0
 12 13  2  0
 14 12  1  0
 14 15  1  0
 16 17  1  0
 16 15  1  0
 18 17  1  1
 18 20  1  0
 19 18  1  0
 20 22  1  0
 21 20  2  0
M  END
$$$$
