CGR.pdb
     RDKit          3D

 22 21  0  0  1  0  0  0  0  0999 V2000
   17.5387  -12.5299  -13.2544 N   0  0  0  0  0  0  0  0  0  0  0  0
   16.3979  -11.7385  -12.8528 C   0  0  1  0  0  0  0  0  0  0  0  0
   15.2259  -12.6305  -12.4733 C   0  0  0  0  0  0  0  0  0  0  0  0
   14.7074  -13.5659  -13.9437 S   0  0  0  0  0  0  0  0  0  0  0  0
   16.7940  -10.8622  -11.7322 C   0  0  0  0  0  0  0  0  0  0  0  0
   17.5967  -11.2933  -10.8712 O   0  0  0  0  0  0  0  0  0  0  0  0
   16.2591   -9.5523  -11.6528 N   0  0  0  0  0  0  0  0  0  0  0  0
   16.6561   -8.7004  -10.5509 C   0  0  0  0  0  0  0  0  0  0  0  0
   15.9961   -7.3588  -10.6682 C   0  0  0  0  0  0  0  0  0  0  0  0
   15.2300   -7.1266  -11.6562 O   0  0  0  0  0  0  0  0  0  0  0  0
   12.9706   -3.7248   -3.7328 N   0  0  0  0  0  0  0  0  0  0  0  0
   12.1621   -4.5396   -4.5671 C   0  0  0  0  0  0  0  0  0  0  0  0
   11.0026   -4.9376   -4.1628 N   0  0  0  0  0  0  0  0  0  0  0  0
   12.5769   -4.9520   -5.8663 N   0  0  0  0  0  0  0  0  0  0  0  0
   13.7039   -4.3842   -6.5366 C   0  0  0  0  0  0  0  0  0  0  0  0
   14.0115   -4.9867   -7.8705 C   0  0  0  0  0  0  0  0  0  0  0  0
   15.2075   -4.3927   -8.5526 C   0  0  0  0  0  0  0  0  0  0  0  0
   15.5359   -5.0213   -9.8638 C   0  0  2  0  0  0  0  0  0  0  0  0
   16.1769   -6.3142   -9.7281 N   0  0  0  0  0  0  0  0  0  0  0  0
   16.5100   -4.1090  -10.5602 C   0  0  0  0  0  0  0  0  0  0  0  0
   16.1467   -3.0121  -11.0675 O   0  0  0  0  0  0  0  0  0  0  0  0
   17.8327   -4.4653  -10.6549 O   0  0  0  0  0  0  0  0  0  0  0  0
  2  1  1  1
  2  5  1  0
  2  3  1  0
  4  3  1  0
  5  6  2  0
  7  5  1  0
  7  8  1  0
  8  9  1  0
  9 19  1  0
  9 10  2  0
 11 12  1  0
 12 13  2  0
 14 12  1  0
 14 15  1  0
 16 17  1  0
 16 15  1  0
 18 17  1  1
 18 20  1  0
 19 18  1  0
 20 22  1  0
 21 20  2  0
M  END
$$$$
