CGR.pdb
     RDKit          3D

 22 21  0  0  1  0  0  0  0  0999 V2000
   27.5156  -17.7439  -16.6637 N   0  0  0  0  0  0  0  0  0  0  0  0
   26.4180  -18.6500  -16.9151 C   0  0  1  0  0  0  0  0  0  0  0  0
   26.8360  -19.7554  -17.8726 C   0  0  0  0  0  0  0  0  0  0  0  0
   27.5344  -18.9948  -19.3690 S   0  0  0  0  0  0  0  0  0  0  0  0
   25.9473  -19.2003  -15.6281 C   0  0  0  0  0  0  0  0  0  0  0  0
   26.6623  -19.0684  -14.6070 O   0  0  0  0  0  0  0  0  0  0  0  0
   24.6974  -19.8660  -15.5735 N   0  0  0  0  0  0  0  0  0  0  0  0
   24.2389  -20.3895  -14.3033 C   0  0  0  0  0  0  0  0  0  0  0  0
   22.8211  -20.8645  -14.4192 C   0  0  0  0  0  0  0  0  0  0  0  0
   22.1971  -20.6990  -15.5147 O   0  0  0  0  0  0  0  0  0  0  0  0
   16.1358  -23.3337  -10.2560 N   0  0  0  0  0  0  0  0  0  0  0  0
   16.0843  -24.4570  -11.1216 C   0  0  0  0  0  0  0  0  0  0  0  0
   14.9550  -25.0225  -11.3885 N   0  0  0  0  0  0  0  0  0  0  0  0
   17.2494  -25.0076  -11.7294 N   0  0  0  0  0  0  0  0  0  0  0  0
   18.5517  -24.4446  -11.5596 C   0  0  0  0  0  0  0  0  0  0  0  0
   18.9848  -23.5208  -12.6531 C   0  0  0  0  0  0  0  0  0  0  0  0
   20.3711  -22.9747  -12.4839 C   0  0  0  0  0  0  0  0  0  0  0  0
   20.7477  -21.9442  -13.4932 C   0  0  2  0  0  0  0  0  0  0  0  0
   22.1206  -21.4983  -13.3632 N   0  0  0  0  0  0  0  0  0  0  0  0
   19.8638  -20.7489  -13.2559 C   0  0  0  0  0  0  0  0  0  0  0  0
   20.1672  -19.8539  -12.4196 O   0  0  0  0  0  0  0  0  0  0  0  0
   18.6926  -20.6140  -13.9600 O   0  0  0  0  0  0  0  0  0  0  0  0
  2  1  1  1
  2  5  1  0
  2  3  1  0
  4  3  1  0
  5  6  2  0
  7  5  1  0
  7  8  1  0
  8  9  1  0
  9 19  1  0
  9 10  2  0
 11 12  1  0
 12 13  2  0
 14 12  1  0
 14 15  1  0
 16 17  1  0
 16 15  1  0
 18 17  1  1
 18 20  1  0
 19 18  1  0
 20 22  1  0
 21 20  2  0
M  END
$$$$
