CGR.pdb
     RDKit          3D

 22 21  0  0  1  0  0  0  0  0999 V2000
   27.5649  -21.5574  -10.4184 N   0  0  0  0  0  0  0  0  0  0  0  0
   26.2039  -21.3057  -10.8344 C   0  0  1  0  0  0  0  0  0  0  0  0
   25.4667  -20.4691   -9.7999 C   0  0  0  0  0  0  0  0  0  0  0  0
   25.9494  -21.0377   -8.1417 S   0  0  0  0  0  0  0  0  0  0  0  0
   26.2216  -20.6407  -12.1528 C   0  0  0  0  0  0  0  0  0  0  0  0
   27.3184  -20.4539  -12.7302 O   0  0  0  0  0  0  0  0  0  0  0  0
   24.9990  -20.2276  -12.7383 N   0  0  0  0  0  0  0  0  0  0  0  0
   24.8075  -20.4129  -14.1618 C   0  0  0  0  0  0  0  0  0  0  0  0
   23.4998  -19.8176  -14.5914 C   0  0  0  0  0  0  0  0  0  0  0  0
   22.4237  -20.2220  -14.0478 O   0  0  0  0  0  0  0  0  0  0  0  0
   19.7307  -12.4500  -15.6221 N   0  0  0  0  0  0  0  0  0  0  0  0
   18.9152  -13.2886  -16.4255 C   0  0  0  0  0  0  0  0  0  0  0  0
   17.7003  -12.9483  -16.6981 N   0  0  0  0  0  0  0  0  0  0  0  0
   19.3833  -14.5225  -16.9626 N   0  0  0  0  0  0  0  0  0  0  0  0
   20.6355  -15.1032  -16.5931 C   0  0  0  0  0  0  0  0  0  0  0  0
   20.9232  -16.4297  -17.2211 C   0  0  0  0  0  0  0  0  0  0  0  0
   22.2349  -17.0315  -16.8138 C   0  0  0  0  0  0  0  0  0  0  0  0
   22.1092  -18.2905  -16.0255 C   0  0  2  0  0  0  0  0  0  0  0  0
   23.3870  -18.8133  -15.5845 N   0  0  0  0  0  0  0  0  0  0  0  0
   21.4924  -19.3211  -16.9331 C   0  0  0  0  0  0  0  0  0  0  0  0
   22.1967  -20.1530  -17.5691 O   0  0  0  0  0  0  0  0  0  0  0  0
   20.1285  -19.3705  -17.0843 O   0  0  0  0  0  0  0  0  0  0  0  0
  2  1  1  1
  2  5  1  0
  2  3  1  0
  4  3  1  0
  5  6  2  0
  7  5  1  0
  7  8  1  0
  8  9  1  0
  9 19  1  0
  9 10  2  0
 11 12  1  0
 12 13  2  0
 14 12  1  0
 14 15  1  0
 16 17  1  0
 16 15  1  0
 18 17  1  6
 18 20  1  0
 19 18  1  0
 20 22  1  0
 21 20  2  0
M  END
$$$$
