CGR.pdb
     RDKit          3D

 22 21  0  0  1  0  0  0  0  0999 V2000
   23.6874  -17.7275  -19.1627 N   0  0  0  0  0  0  0  0  0  0  0  0
   22.3445  -17.8752  -19.6765 C   0  0  1  0  0  0  0  0  0  0  0  0
   22.2639  -19.0352  -20.6571 C   0  0  0  0  0  0  0  0  0  0  0  0
   23.9028  -19.2783  -21.4058 S   0  0  0  0  0  0  0  0  0  0  0  0
   21.4163  -18.0612  -18.5432 C   0  0  0  0  0  0  0  0  0  0  0  0
   20.2047  -18.2851  -18.7738 O   0  0  0  0  0  0  0  0  0  0  0  0
   21.9137  -17.9829  -17.2186 N   0  0  0  0  0  0  0  0  0  0  0  0
   20.9852  -18.1094  -16.1143 C   0  0  0  0  0  0  0  0  0  0  0  0
   21.3798  -19.2571  -15.2333 C   0  0  0  0  0  0  0  0  0  0  0  0
   21.9981  -20.2462  -15.7396 O   0  0  0  0  0  0  0  0  0  0  0  0
   26.8943  -20.8850  -10.0491 N   0  0  0  0  0  0  0  0  0  0  0  0
   26.2816  -20.9862  -11.3250 C   0  0  0  0  0  0  0  0  0  0  0  0
   27.0046  -21.0260  -12.3936 N   0  0  0  0  0  0  0  0  0  0  0  0
   24.8679  -21.0487  -11.4912 N   0  0  0  0  0  0  0  0  0  0  0  0
   23.9546  -20.9738  -10.3947 C   0  0  0  0  0  0  0  0  0  0  0  0
   22.5097  -21.0458  -10.7738 C   0  0  0  0  0  0  0  0  0  0  0  0
   22.0543  -19.9371  -11.6749 C   0  0  0  0  0  0  0  0  0  0  0  0
   21.5457  -20.3975  -12.9984 C   0  0  2  0  0  0  0  0  0  0  0  0
   21.1009  -19.3084  -13.8450 N   0  0  0  0  0  0  0  0  0  0  0  0
   20.3517  -21.2750  -12.7327 C   0  0  0  0  0  0  0  0  0  0  0  0
   19.1783  -20.8110  -12.7091 O   0  0  0  0  0  0  0  0  0  0  0  0
   20.5268  -22.6182  -12.5077 O   0  0  0  0  0  0  0  0  0  0  0  0
  2  1  1  1
  2  5  1  0
  2  3  1  0
  4  3  1  0
  5  6  2  0
  7  5  1  0
  7  8  1  0
  8  9  1  0
  9 19  1  0
  9 10  2  0
 11 12  1  0
 12 13  2  0
 14 12  1  0
 14 15  1  0
 16 17  1  0
 16 15  1  0
 18 17  1  1
 18 20  1  0
 19 18  1  0
 20 22  1  0
 21 20  2  0
M  END
$$$$
