CGR.pdb
     RDKit          3D

 22 21  0  0  1  0  0  0  0  0999 V2000
   24.0337  -18.7842  -18.7534 N   0  0  0  0  0  0  0  0  0  0  0  0
   25.0324  -19.1770  -17.7853 C   0  0  1  0  0  0  0  0  0  0  0  0
   26.3276  -18.4091  -18.0006 C   0  0  0  0  0  0  0  0  0  0  0  0
   27.0610  -18.9372  -19.5783 S   0  0  0  0  0  0  0  0  0  0  0  0
   24.4949  -18.9584  -16.4275 C   0  0  0  0  0  0  0  0  0  0  0  0
   25.2075  -19.2356  -15.4342 O   0  0  0  0  0  0  0  0  0  0  0  0
   23.1850  -18.4397  -16.2748 N   0  0  0  0  0  0  0  0  0  0  0  0
   22.5948  -18.4087  -14.9526 C   0  0  0  0  0  0  0  0  0  0  0  0
   21.7537  -19.6305  -14.7310 C   0  0  0  0  0  0  0  0  0  0  0  0
   21.5098  -20.4039  -15.7104 O   0  0  0  0  0  0  0  0  0  0  0  0
   19.2877  -24.7078   -7.8086 N   0  0  0  0  0  0  0  0  0  0  0  0
   18.5016  -25.1046   -8.9214 C   0  0  0  0  0  0  0  0  0  0  0  0
   17.8080  -26.1923   -8.8743 N   0  0  0  0  0  0  0  0  0  0  0  0
   18.4366  -24.3409  -10.1225 N   0  0  0  0  0  0  0  0  0  0  0  0
   19.2092  -23.1571  -10.3309 C   0  0  0  0  0  0  0  0  0  0  0  0
   19.0145  -22.5055  -11.6630 C   0  0  0  0  0  0  0  0  0  0  0  0
   19.8723  -21.2962  -11.8873 C   0  0  0  0  0  0  0  0  0  0  0  0
   20.3456  -21.1368  -13.2919 C   0  0  2  0  0  0  0  0  0  0  0  0
   21.2036  -19.9829  -13.4736 N   0  0  0  0  0  0  0  0  0  0  0  0
   19.1257  -20.9276  -14.1488 C   0  0  0  0  0  0  0  0  0  0  0  0
   18.6182  -21.8661  -14.8226 O   0  0  0  0  0  0  0  0  0  0  0  0
   18.5374  -19.6883  -14.2100 O   0  0  0  0  0  0  0  0  0  0  0  0
  2  1  1  6
  2  5  1  0
  2  3  1  0
  4  3  1  0
  5  6  2  0
  7  5  1  0
  7  8  1  0
  8  9  1  0
  9 19  1  0
  9 10  2  0
 11 12  1  0
 12 13  2  0
 14 12  1  0
 14 15  1  0
 16 17  1  0
 16 15  1  0
 18 17  1  1
 18 20  1  0
 19 18  1  0
 20 22  1  0
 21 20  2  0
M  END
$$$$
