IYW.pdb
     RDKit          3D

 35 37  0  0  1  0  0  0  0  0999 V2000
   30.2748  -17.1439  -18.3013 C   0  0  0  0  0  0  0  0  0  0  0  0
   28.9579  -17.8428  -18.5503 C   0  0  0  0  0  0  0  0  0  0  0  0
   28.0367  -17.7637  -17.3738 C   0  0  2  0  0  0  0  0  0  0  0  0
   28.7048  -18.1623  -16.0856 C   0  0  0  0  0  0  0  0  0  0  0  0
   26.7411  -18.4736  -17.6066 C   0  0  2  0  0  0  0  0  0  0  0  0
   26.1433  -17.8965  -18.8038 N   0  0  0  0  0  0  0  0  0  0  0  0
   25.8052  -18.4572  -16.4679 C   0  0  0  0  0  0  0  0  0  0  0  0
   25.4338  -17.3690  -15.9646 O   0  0  0  0  0  0  0  0  0  0  0  0
   19.8389  -20.4799  -10.3186 O   0  0  0  0  0  0  0  0  0  0  0  0
   20.6398  -20.4043  -11.4572 C   0  0  0  0  0  0  0  0  0  0  0  0
   21.4399  -21.4945  -11.7510 C   0  0  0  0  0  0  0  0  0  0  0  0
   22.2529  -21.4894  -12.8561 C   0  0  0  0  0  0  0  0  0  0  0  0
   22.2782  -20.3730  -13.6991 C   0  0  0  0  0  0  0  0  0  0  0  0
   23.1614  -20.3443  -14.8784 C   0  0  0  0  0  0  0  0  0  0  0  0
   24.4614  -19.6470  -14.6693 C   0  0  2  0  0  0  0  0  0  0  0  0
   25.2736  -19.6383  -15.8783 N   0  0  0  0  0  0  0  0  0  0  0  0
   25.2415  -20.3410  -13.6135 C   0  0  0  0  0  0  0  0  0  0  0  0
   25.7416  -21.4940  -13.8132 O   0  0  0  0  0  0  0  0  0  0  0  0
   21.4805  -19.2995  -13.3954 C   0  0  0  0  0  0  0  0  0  0  0  0
   20.6552  -19.2925  -12.2828 C   0  0  0  0  0  0  0  0  0  0  0  0
   25.4686  -19.7604  -12.3387 N   0  0  0  0  0  0  0  0  0  0  0  0
   26.1593  -20.5136  -11.3019 C   0  0  1  0  0  0  0  0  0  0  0  0
   27.4301  -19.8045  -10.9064 C   0  0  0  0  0  0  0  0  0  0  0  0
   28.2009  -20.4430   -9.8370 C   0  0  0  0  0  0  0  0  0  0  0  0
   29.1007  -21.5010   -9.9987 C   0  0  0  0  0  0  0  0  0  0  0  0
   29.5967  -21.8477   -8.8037 N   0  0  0  0  0  0  0  0  0  0  0  0
   29.0760  -21.0744   -7.8390 C   0  0  0  0  0  0  0  0  0  0  0  0
   29.2612  -21.0087   -6.4613 C   0  0  0  0  0  0  0  0  0  0  0  0
   28.5815  -20.0740   -5.7454 C   0  0  0  0  0  0  0  0  0  0  0  0
   27.7129  -19.1886   -6.3455 C   0  0  0  0  0  0  0  0  0  0  0  0
   27.5361  -19.2609   -7.7022 C   0  0  0  0  0  0  0  0  0  0  0  0
   28.1983  -20.1884   -8.4772 C   0  0  0  0  0  0  0  0  0  0  0  0
   25.2702  -20.9106  -10.2226 C   0  0  0  0  0  0  0  0  0  0  0  0
   25.2952  -22.0931   -9.5105 O   0  0  0  0  0  0  0  0  0  0  0  0
   24.3491  -20.0960   -9.8745 O   0  0  0  0  0  0  0  0  0  0  0  0
  2  1  1  0
  3  5  1  0
  3  2  1  0
  3  4  1  1
  5  6  1  6
  7  8  2  0
  7  5  1  0
  9 10  1  0
 10 11  2  0
 10 20  1  0
 11 12  1  0
 12 13  2  0
 13 14  1  0
 15 14  1  6
 15 16  1  0
 15 17  1  0
 16  7  1  0
 17 21  1  0
 18 17  2  0
 19 13  1  0
 20 19  2  0
 21 22  1  0
 22 23  1  1
 22 33  1  0
 24 23  1  0
 25 24  2  0
 26 25  1  0
 27 26  1  0
 27 32  2  0
 28 29  2  0
 28 27  1  0
 29 30  1  0
 30 31  2  0
 32 31  1  0
 32 24  1  0
 33 35  2  0
 33 34  1  0
M  END
$$$$
