IYW.pdb
     RDKit          3D

 35 37  0  0  1  0  0  0  0  0999 V2000
   30.5874  -31.7619  -19.8248 C   0  0  0  0  0  0  0  0  0  0  0  0
   30.2173  -32.6600  -18.6666 C   0  0  0  0  0  0  0  0  0  0  0  0
   29.0519  -32.1374  -17.8870 C   0  0  2  0  0  0  0  0  0  0  0  0
   29.2449  -30.7138  -17.4388 C   0  0  0  0  0  0  0  0  0  0  0  0
   28.6441  -33.0519  -16.7762 C   0  0  2  0  0  0  0  0  0  0  0  0
   28.3015  -34.3341  -17.3781 N   0  0  0  0  0  0  0  0  0  0  0  0
   27.5592  -32.5464  -15.9159 C   0  0  0  0  0  0  0  0  0  0  0  0
   27.6200  -31.3922  -15.4265 O   0  0  0  0  0  0  0  0  0  0  0  0
   19.6571  -31.6711  -11.9553 O   0  0  0  0  0  0  0  0  0  0  0  0
   20.7269  -32.1024  -12.7383 C   0  0  0  0  0  0  0  0  0  0  0  0
   21.3368  -31.1700  -13.5590 C   0  0  0  0  0  0  0  0  0  0  0  0
   22.3957  -31.5243  -14.3562 C   0  0  0  0  0  0  0  0  0  0  0  0
   22.8687  -32.8409  -14.3441 C   0  0  0  0  0  0  0  0  0  0  0  0
   23.9919  -33.2418  -15.2098 C   0  0  0  0  0  0  0  0  0  0  0  0
   25.3377  -32.8351  -14.7166 C   0  0  2  0  0  0  0  0  0  0  0  0
   26.4023  -33.3087  -15.5905 N   0  0  0  0  0  0  0  0  0  0  0  0
   25.5768  -33.4130  -13.3698 C   0  0  0  0  0  0  0  0  0  0  0  0
   25.9539  -34.6200  -13.2274 O   0  0  0  0  0  0  0  0  0  0  0  0
   22.2545  -33.7546  -13.5261 C   0  0  0  0  0  0  0  0  0  0  0  0
   21.1848  -33.4092  -12.7166 C   0  0  0  0  0  0  0  0  0  0  0  0
   25.3995  -32.6569  -12.1822 N   0  0  0  0  0  0  0  0  0  0  0  0
   25.6904  -33.2495  -10.8846 C   0  0  1  0  0  0  0  0  0  0  0  0
   26.0031  -32.1689   -9.8803 C   0  0  0  0  0  0  0  0  0  0  0  0
   26.2089  -32.6280   -8.5047 C   0  0  0  0  0  0  0  0  0  0  0  0
   27.4113  -33.1056   -7.9744 C   0  0  0  0  0  0  0  0  0  0  0  0
   27.2216  -33.4638   -6.6978 N   0  0  0  0  0  0  0  0  0  0  0  0
   25.9471  -33.2512   -6.3369 C   0  0  0  0  0  0  0  0  0  0  0  0
   25.2462  -33.4334   -5.1485 C   0  0  0  0  0  0  0  0  0  0  0  0
   23.9309  -33.0939   -5.0966 C   0  0  0  0  0  0  0  0  0  0  0  0
   23.2704  -32.5741   -6.1885 C   0  0  0  0  0  0  0  0  0  0  0  0
   23.9681  -32.3988   -7.3545 C   0  0  0  0  0  0  0  0  0  0  0  0
   25.3024  -32.7261   -7.4644 C   0  0  0  0  0  0  0  0  0  0  0  0
   24.6979  -34.2369  -10.4934 C   0  0  0  0  0  0  0  0  0  0  0  0
   24.9092  -35.3949   -9.7721 O   0  0  0  0  0  0  0  0  0  0  0  0
   23.4854  -34.0404  -10.8463 O   0  0  0  0  0  0  0  0  0  0  0  0
  2  1  1  0
  3  5  1  0
  3  2  1  0
  3  4  1  1
  5  6  1  6
  7  8  2  0
  7  5  1  0
  9 10  1  0
 10 11  2  0
 10 20  1  0
 11 12  1  0
 12 13  2  0
 13 14  1  0
 15 14  1  6
 15 16  1  0
 15 17  1  0
 16  7  1  0
 17 21  1  0
 18 17  2  0
 19 13  1  0
 20 19  2  0
 21 22  1  0
 22 23  1  1
 22 33  1  0
 24 23  1  0
 25 24  2  0
 26 25  1  0
 27 26  1  0
 27 32  2  0
 28 29  2  0
 28 27  1  0
 29 30  1  0
 30 31  2  0
 32 31  1  0
 32 24  1  0
 33 35  2  0
 33 34  1  0
M  END
$$$$
