IYW.pdb
     RDKit          3D

 35 37  0  0  1  0  0  0  0  0999 V2000
   29.5652  -20.2210  -19.1702 C   0  0  0  0  0  0  0  0  0  0  0  0
   29.4338  -20.9499  -17.8525 C   0  0  0  0  0  0  0  0  0  0  0  0
   28.3740  -20.3605  -16.9759 C   0  0  2  0  0  0  0  0  0  0  0  0
   28.5078  -18.8691  -16.8259 C   0  0  0  0  0  0  0  0  0  0  0  0
   28.2462  -21.0724  -15.6669 C   0  0  2  0  0  0  0  0  0  0  0  0
   28.0533  -22.4863  -15.9630 N   0  0  0  0  0  0  0  0  0  0  0  0
   27.1949  -20.5544  -14.7729 C   0  0  0  0  0  0  0  0  0  0  0  0
   27.2050  -19.3539  -14.4069 O   0  0  0  0  0  0  0  0  0  0  0  0
   19.5122  -19.5560  -10.5136 O   0  0  0  0  0  0  0  0  0  0  0  0
   20.5550  -19.9785  -11.3368 C   0  0  0  0  0  0  0  0  0  0  0  0
   21.0598  -21.2501  -11.1294 C   0  0  0  0  0  0  0  0  0  0  0  0
   22.0858  -21.7315  -11.9028 C   0  0  0  0  0  0  0  0  0  0  0  0
   22.6320  -20.9331  -12.9136 C   0  0  0  0  0  0  0  0  0  0  0  0
   23.7478  -21.4282  -13.7390 C   0  0  0  0  0  0  0  0  0  0  0  0
   25.0806  -20.8572  -13.3964 C   0  0  2  0  0  0  0  0  0  0  0  0
   26.1277  -21.3553  -14.2779 N   0  0  0  0  0  0  0  0  0  0  0  0
   25.4494  -21.2353  -12.0086 C   0  0  0  0  0  0  0  0  0  0  0  0
   25.8882  -22.3983  -11.7363 O   0  0  0  0  0  0  0  0  0  0  0  0
   22.1222  -19.6747  -13.1076 C   0  0  0  0  0  0  0  0  0  0  0  0
   21.0866  -19.1774  -12.3336 C   0  0  0  0  0  0  0  0  0  0  0  0
   25.3333  -20.3282  -10.9236 N   0  0  0  0  0  0  0  0  0  0  0  0
   25.6726  -20.7525   -9.5729 C   0  0  1  0  0  0  0  0  0  0  0  0
   26.4983  -19.6918   -8.8891 C   0  0  0  0  0  0  0  0  0  0  0  0
   27.7075  -20.1716   -8.2162 C   0  0  0  0  0  0  0  0  0  0  0  0
   28.6354  -21.0723   -8.7482 C   0  0  0  0  0  0  0  0  0  0  0  0
   29.5951  -21.3062   -7.8436 N   0  0  0  0  0  0  0  0  0  0  0  0
   29.3623  -20.6062   -6.7231 C   0  0  0  0  0  0  0  0  0  0  0  0
   30.0421  -20.4799   -5.5154 C   0  0  0  0  0  0  0  0  0  0  0  0
   29.5444  -19.6522   -4.5586 C   0  0  0  0  0  0  0  0  0  0  0  0
   28.3842  -18.9340   -4.7502 C   0  0  0  0  0  0  0  0  0  0  0  0
   27.7211  -19.0652   -5.9419 C   0  0  0  0  0  0  0  0  0  0  0  0
   28.1793  -19.8899   -6.9466 C   0  0  0  0  0  0  0  0  0  0  0  0
   24.5180  -21.2516   -8.8444 C   0  0  0  0  0  0  0  0  0  0  0  0
   24.5015  -22.2345   -7.8751 O   0  0  0  0  0  0  0  0  0  0  0  0
   23.3754  -20.7459   -9.1127 O   0  0  0  0  0  0  0  0  0  0  0  0
  2  1  1  0
  3  5  1  0
  3  2  1  0
  3  4  1  1
  5  6  1  6
  7  8  2  0
  7  5  1  0
  9 10  1  0
 10 11  2  0
 10 20  1  0
 11 12  1  0
 12 13  2  0
 13 14  1  0
 15 14  1  6
 15 16  1  0
 15 17  1  0
 16  7  1  0
 17 21  1  0
 18 17  2  0
 19 13  1  0
 20 19  2  0
 21 22  1  0
 22 23  1  1
 22 33  1  0
 24 23  1  0
 25 24  2  0
 26 25  1  0
 27 26  1  0
 27 32  2  0
 28 29  2  0
 28 27  1  0
 29 30  1  0
 30 31  2  0
 32 31  1  0
 32 24  1  0
 33 35  2  0
 33 34  1  0
M  END
$$$$
