IYW.pdb
     RDKit          3D

 35 37  0  0  1  0  0  0  0  0999 V2000
   25.3168  -15.0350  -20.3754 C   0  0  0  0  0  0  0  0  0  0  0  0
   25.7046  -16.2969  -19.6392 C   0  0  0  0  0  0  0  0  0  0  0  0
   25.0499  -16.4009  -18.2977 C   0  0  2  0  0  0  0  0  0  0  0  0
   25.2230  -15.1564  -17.4694 C   0  0  0  0  0  0  0  0  0  0  0  0
   25.4280  -17.6494  -17.5664 C   0  0  2  0  0  0  0  0  0  0  0  0
   25.1832  -18.7674  -18.4686 N   0  0  0  0  0  0  0  0  0  0  0  0
   24.7584  -17.8407  -16.2672 C   0  0  0  0  0  0  0  0  0  0  0  0
   24.9021  -16.9995  -15.3469 O   0  0  0  0  0  0  0  0  0  0  0  0
   19.6626  -21.2310   -9.8072 O   0  0  0  0  0  0  0  0  0  0  0  0
   20.2849  -20.9752  -11.0282 C   0  0  0  0  0  0  0  0  0  0  0  0
   20.1703  -19.6989  -11.5505 C   0  0  0  0  0  0  0  0  0  0  0  0
   20.7578  -19.3764  -12.7477 C   0  0  0  0  0  0  0  0  0  0  0  0
   21.4817  -20.3437  -13.4532 C   0  0  0  0  0  0  0  0  0  0  0  0
   22.1011  -20.0184  -14.7501 C   0  0  0  0  0  0  0  0  0  0  0  0
   23.3600  -19.2265  -14.6608 C   0  0  2  0  0  0  0  0  0  0  0  0
   23.9274  -18.9585  -15.9753 N   0  0  0  0  0  0  0  0  0  0  0  0
   24.3755  -19.9803  -13.8826 C   0  0  0  0  0  0  0  0  0  0  0  0
   25.0066  -20.9591  -14.3955 O   0  0  0  0  0  0  0  0  0  0  0  0
   21.5866  -21.6047  -12.9239 C   0  0  0  0  0  0  0  0  0  0  0  0
   20.9983  -21.9426  -11.7161 C   0  0  0  0  0  0  0  0  0  0  0  0
   24.6928  -19.6517  -12.5391 N   0  0  0  0  0  0  0  0  0  0  0  0
   25.7024  -20.4120  -11.8166 C   0  0  1  0  0  0  0  0  0  0  0  0
   26.5607  -19.4831  -10.9952 C   0  0  0  0  0  0  0  0  0  0  0  0
   27.5767  -20.1338  -10.1647 C   0  0  0  0  0  0  0  0  0  0  0  0
   28.5936  -20.9747  -10.6273 C   0  0  0  0  0  0  0  0  0  0  0  0
   29.3156  -21.4110   -9.5869 N   0  0  0  0  0  0  0  0  0  0  0  0
   28.8367  -20.9053   -8.4403 C   0  0  0  0  0  0  0  0  0  0  0  0
   29.2199  -21.0256   -7.1079 C   0  0  0  0  0  0  0  0  0  0  0  0
   28.5224  -20.3523   -6.1548 C   0  0  0  0  0  0  0  0  0  0  0  0
   27.4451  -19.5533   -6.4704 C   0  0  0  0  0  0  0  0  0  0  0  0
   27.0745  -19.4413   -7.7846 C   0  0  0  0  0  0  0  0  0  0  0  0
   27.7446  -20.1014   -8.7920 C   0  0  0  0  0  0  0  0  0  0  0  0
   25.1398  -21.5615  -11.1272 C   0  0  0  0  0  0  0  0  0  0  0  0
   25.6640  -22.8370  -11.0627 O   0  0  0  0  0  0  0  0  0  0  0  0
   24.0340  -21.4056  -10.5058 O   0  0  0  0  0  0  0  0  0  0  0  0
  2  1  1  0
  3  5  1  0
  3  2  1  0
  3  4  1  1
  5  6  1  6
  7  8  2  0
  7  5  1  0
  9 10  1  0
 10 11  2  0
 10 20  1  0
 11 12  1  0
 12 13  2  0
 13 14  1  0
 15 14  1  6
 15 16  1  0
 15 17  1  0
 16  7  1  0
 17 21  1  0
 18 17  2  0
 19 13  1  0
 20 19  2  0
 21 22  1  0
 22 23  1  1
 22 33  1  0
 24 23  1  0
 25 24  2  0
 26 25  1  0
 27 26  1  0
 27 32  2  0
 28 29  2  0
 28 27  1  0
 29 30  1  0
 30 31  2  0
 32 31  1  0
 32 24  1  0
 33 35  2  0
 33 34  1  0
M  END
$$$$
