IYW.pdb
     RDKit          3D

 35 37  0  0  1  0  0  0  0  0999 V2000
   28.9461  -19.0232  -17.8585 C   0  0  0  0  0  0  0  0  0  0  0  0
   29.0887  -19.8386  -16.5937 C   0  0  0  0  0  0  0  0  0  0  0  0
   28.1447  -19.3981  -15.5194 C   0  0  2  0  0  0  0  0  0  0  0  0
   28.2108  -17.9172  -15.2602 C   0  0  0  0  0  0  0  0  0  0  0  0
   28.2648  -20.2174  -14.2741 C   0  0  2  0  0  0  0  0  0  0  0  0
   28.0756  -21.6111  -14.6560 N   0  0  0  0  0  0  0  0  0  0  0  0
   27.3613  -19.8253  -13.1775 C   0  0  0  0  0  0  0  0  0  0  0  0
   27.3612  -18.6479  -12.7429 O   0  0  0  0  0  0  0  0  0  0  0  0
   22.1848  -17.7817  -16.4978 O   0  0  0  0  0  0  0  0  0  0  0  0
   22.6396  -18.4570  -15.3660 C   0  0  0  0  0  0  0  0  0  0  0  0
   23.2445  -19.6873  -15.5542 C   0  0  0  0  0  0  0  0  0  0  0  0
   23.7161  -20.4070  -14.4856 C   0  0  0  0  0  0  0  0  0  0  0  0
   23.5872  -19.8973  -13.1891 C   0  0  0  0  0  0  0  0  0  0  0  0
   24.0703  -20.6676  -12.0295 C   0  0  0  0  0  0  0  0  0  0  0  0
   25.4488  -20.3236  -11.5805 C   0  0  2  0  0  0  0  0  0  0  0  0
   26.4537  -20.7272  -12.5545 N   0  0  0  0  0  0  0  0  0  0  0  0
   25.7543  -21.0256  -10.3082 C   0  0  0  0  0  0  0  0  0  0  0  0
   26.3811  -22.1330  -10.2999 O   0  0  0  0  0  0  0  0  0  0  0  0
   22.9852  -18.6769  -13.0174 C   0  0  0  0  0  0  0  0  0  0  0  0
   22.5051  -17.9407  -14.0880 C   0  0  0  0  0  0  0  0  0  0  0  0
   25.3676  -20.5032   -9.0467 N   0  0  0  0  0  0  0  0  0  0  0  0
   24.8222  -21.3839   -8.0238 C   0  0  1  0  0  0  0  0  0  0  0  0
   25.4531  -21.0792   -6.6883 C   0  0  0  0  0  0  0  0  0  0  0  0
   26.5868  -20.1525   -6.7242 C   0  0  0  0  0  0  0  0  0  0  0  0
   26.7751  -19.1281   -7.6572 C   0  0  0  0  0  0  0  0  0  0  0  0
   27.9330  -18.5044   -7.4032 N   0  0  0  0  0  0  0  0  0  0  0  0
   28.5389  -19.0573   -6.3417 C   0  0  0  0  0  0  0  0  0  0  0  0
   29.7260  -18.7849   -5.6685 C   0  0  0  0  0  0  0  0  0  0  0  0
   30.0602  -19.5350   -4.5851 C   0  0  0  0  0  0  0  0  0  0  0  0
   29.2564  -20.5591   -4.1338 C   0  0  0  0  0  0  0  0  0  0  0  0
   28.0899  -20.8207   -4.8031 C   0  0  0  0  0  0  0  0  0  0  0  0
   27.7017  -20.0931   -5.9073 C   0  0  0  0  0  0  0  0  0  0  0  0
   23.3702  -21.4418   -8.0619 C   0  0  0  0  0  0  0  0  0  0  0  0
   22.5245  -20.7032   -8.8649 O   0  0  0  0  0  0  0  0  0  0  0  0
   22.7819  -22.2556   -7.2713 O   0  0  0  0  0  0  0  0  0  0  0  0
  2  1  1  0
  3  5  1  0
  3  2  1  0
  3  4  1  1
  5  6  1  6
  7  8  2  0
  7  5  1  0
  9 10  1  0
 10 11  2  0
 10 20  1  0
 11 12  1  0
 12 13  2  0
 13 14  1  0
 15 14  1  6
 15 16  1  0
 15 17  1  0
 16  7  1  0
 17 21  1  0
 18 17  2  0
 19 13  1  0
 20 19  2  0
 21 22  1  0
 22 23  1  1
 22 33  1  0
 24 23  1  0
 25 24  2  0
 26 25  1  0
 27 26  1  0
 27 32  2  0
 28 29  2  0
 28 27  1  0
 29 30  1  0
 30 31  2  0
 32 31  1  0
 32 24  1  0
 33 35  2  0
 33 34  1  0
M  END
$$$$
