IYW.pdb
     RDKit          3D

 35 37  0  0  1  0  0  0  0  0999 V2000
   29.9583  -18.7261  -17.6337 C   0  0  0  0  0  0  0  0  0  0  0  0
   28.8056  -19.6696  -17.3770 C   0  0  0  0  0  0  0  0  0  0  0  0
   28.0087  -19.2843  -16.1704 C   0  0  2  0  0  0  0  0  0  0  0  0
   28.8660  -19.0738  -14.9516 C   0  0  0  0  0  0  0  0  0  0  0  0
   26.8544  -20.2027  -15.9240 C   0  0  2  0  0  0  0  0  0  0  0  0
   26.1211  -20.3184  -17.1781 N   0  0  0  0  0  0  0  0  0  0  0  0
   25.9712  -19.8127  -14.8102 C   0  0  0  0  0  0  0  0  0  0  0  0
   25.4642  -18.6652  -14.7714 O   0  0  0  0  0  0  0  0  0  0  0  0
   20.3371  -18.3059  -16.7518 O   0  0  0  0  0  0  0  0  0  0  0  0
   21.1023  -18.9708  -15.7946 C   0  0  0  0  0  0  0  0  0  0  0  0
   21.2127  -18.3874  -14.5447 C   0  0  0  0  0  0  0  0  0  0  0  0
   21.9494  -18.9865  -13.5544 C   0  0  0  0  0  0  0  0  0  0  0  0
   22.5986  -20.2004  -13.8045 C   0  0  0  0  0  0  0  0  0  0  0  0
   23.4102  -20.8458  -12.7575 C   0  0  0  0  0  0  0  0  0  0  0  0
   24.7911  -20.3049  -12.6143 C   0  0  2  0  0  0  0  0  0  0  0  0
   25.6417  -20.6840  -13.7342 N   0  0  0  0  0  0  0  0  0  0  0  0
   25.4166  -20.8404  -11.3786 C   0  0  0  0  0  0  0  0  0  0  0  0
   25.8543  -22.0341  -11.3248 O   0  0  0  0  0  0  0  0  0  0  0  0
   22.4809  -20.7669  -15.0480 C   0  0  0  0  0  0  0  0  0  0  0  0
   21.7400  -20.1721  -16.0560 C   0  0  0  0  0  0  0  0  0  0  0  0
   25.5582  -20.0566  -10.2042 N   0  0  0  0  0  0  0  0  0  0  0  0
   26.0647  -20.6566   -8.9782 C   0  0  1  0  0  0  0  0  0  0  0  0
   27.1855  -19.8184   -8.4164 C   0  0  0  0  0  0  0  0  0  0  0  0
   27.5984  -20.1525   -7.0514 C   0  0  0  0  0  0  0  0  0  0  0  0
   27.3818  -21.3753   -6.4088 C   0  0  0  0  0  0  0  0  0  0  0  0
   27.8652  -21.3124   -5.1612 N   0  0  0  0  0  0  0  0  0  0  0  0
   28.4000  -20.1045   -4.9273 C   0  0  0  0  0  0  0  0  0  0  0  0
   29.0341  -19.5358   -3.8268 C   0  0  0  0  0  0  0  0  0  0  0  0
   29.4946  -18.2597   -3.9140 C   0  0  0  0  0  0  0  0  0  0  0  0
   29.3511  -17.5118   -5.0623 C   0  0  0  0  0  0  0  0  0  0  0  0
   28.7249  -18.0793   -6.1406 C   0  0  0  0  0  0  0  0  0  0  0  0
   28.2380  -19.3683   -6.1082 C   0  0  0  0  0  0  0  0  0  0  0  0
   24.9984  -21.0208   -8.0600 C   0  0  0  0  0  0  0  0  0  0  0  0
   24.9905  -22.0682   -7.1607 O   0  0  0  0  0  0  0  0  0  0  0  0
   23.9343  -20.3130   -8.0660 O   0  0  0  0  0  0  0  0  0  0  0  0
  2  1  1  0
  3  5  1  0
  3  2  1  0
  3  4  1  1
  5  6  1  6
  7  8  2  0
  7  5  1  0
  9 10  1  0
 10 11  2  0
 10 20  1  0
 11 12  1  0
 12 13  2  0
 13 14  1  0
 15 14  1  6
 15 16  1  0
 15 17  1  0
 16  7  1  0
 17 21  1  0
 18 17  2  0
 19 13  1  0
 20 19  2  0
 21 22  1  0
 22 23  1  1
 22 33  1  0
 24 23  1  0
 25 24  2  0
 26 25  1  0
 27 26  1  0
 27 32  2  0
 28 29  2  0
 28 27  1  0
 29 30  1  0
 30 31  2  0
 32 31  1  0
 32 24  1  0
 33 35  2  0
 33 34  1  0
M  END
$$$$
