IYW.pdb
     RDKit          3D

 35 37  0  0  1  0  0  0  0  0999 V2000
   27.9175  -18.3949  -18.5561 C   0  0  0  0  0  0  0  0  0  0  0  0
   27.9872  -19.5047  -17.5321 C   0  0  0  0  0  0  0  0  0  0  0  0
   27.4380  -19.0918  -16.2028 C   0  0  2  0  0  0  0  0  0  0  0  0
   28.0190  -17.7930  -15.7128 C   0  0  0  0  0  0  0  0  0  0  0  0
   27.5063  -20.1858  -15.1854 C   0  0  2  0  0  0  0  0  0  0  0  0
   26.8964  -21.3672  -15.7821 N   0  0  0  0  0  0  0  0  0  0  0  0
   26.9054  -19.8634  -13.8786 C   0  0  0  0  0  0  0  0  0  0  0  0
   27.1124  -18.7486  -13.3403 O   0  0  0  0  0  0  0  0  0  0  0  0
   20.9462  -18.1146  -16.0060 O   0  0  0  0  0  0  0  0  0  0  0  0
   21.6841  -18.7309  -14.9964 C   0  0  0  0  0  0  0  0  0  0  0  0
   22.0344  -20.0573  -15.1777 C   0  0  0  0  0  0  0  0  0  0  0  0
   22.7606  -20.7267  -14.2254 C   0  0  0  0  0  0  0  0  0  0  0  0
   23.1542  -20.0670  -13.0561 C   0  0  0  0  0  0  0  0  0  0  0  0
   23.9169  -20.7782  -12.0149 C   0  0  0  0  0  0  0  0  0  0  0  0
   25.3599  -20.4149  -11.9385 C   0  0  2  0  0  0  0  0  0  0  0  0
   26.0737  -20.7662  -13.1586 N   0  0  0  0  0  0  0  0  0  0  0  0
   26.0052  -21.1460  -10.8187 C   0  0  0  0  0  0  0  0  0  0  0  0
   26.4567  -22.3255  -10.9742 O   0  0  0  0  0  0  0  0  0  0  0  0
   22.7997  -18.7526  -12.8895 C   0  0  0  0  0  0  0  0  0  0  0  0
   22.0668  -18.0658  -13.8435 C   0  0  0  0  0  0  0  0  0  0  0  0
   26.1512  -20.5731   -9.5286 N   0  0  0  0  0  0  0  0  0  0  0  0
   26.5257  -21.4053   -8.3943 C   0  0  1  0  0  0  0  0  0  0  0  0
   27.9054  -21.0333   -7.9125 C   0  0  0  0  0  0  0  0  0  0  0  0
   27.9547  -19.9810   -6.8949 C   0  0  0  0  0  0  0  0  0  0  0  0
   27.4466  -18.6857   -7.0344 C   0  0  0  0  0  0  0  0  0  0  0  0
   27.6959  -17.9891   -5.9179 N   0  0  0  0  0  0  0  0  0  0  0  0
   28.3488  -18.7509   -5.0273 C   0  0  0  0  0  0  0  0  0  0  0  0
   28.8188  -18.5245   -3.7372 C   0  0  0  0  0  0  0  0  0  0  0  0
   29.4395  -19.5344   -3.0717 C   0  0  0  0  0  0  0  0  0  0  0  0
   29.6173  -20.7776   -3.6387 C   0  0  0  0  0  0  0  0  0  0  0  0
   29.1520  -20.9913   -4.9095 C   0  0  0  0  0  0  0  0  0  0  0  0
   28.5161  -20.0040   -5.6308 C   0  0  0  0  0  0  0  0  0  0  0  0
   25.4786  -21.4714   -7.3882 C   0  0  0  0  0  0  0  0  0  0  0  0
   24.2516  -20.8391   -7.4153 O   0  0  0  0  0  0  0  0  0  0  0  0
   25.6905  -22.1834   -6.3484 O   0  0  0  0  0  0  0  0  0  0  0  0
  2  1  1  0
  3  5  1  0
  3  2  1  0
  3  4  1  1
  5  6  1  6
  7  8  2  0
  7  5  1  0
  9 10  1  0
 10 11  2  0
 10 20  1  0
 11 12  1  0
 12 13  2  0
 13 14  1  0
 15 14  1  6
 15 16  1  0
 15 17  1  0
 16  7  1  0
 17 21  1  0
 18 17  2  0
 19 13  1  0
 20 19  2  0
 21 22  1  0
 22 23  1  1
 22 33  1  0
 24 23  1  0
 25 24  2  0
 26 25  1  0
 27 26  1  0
 27 32  2  0
 28 29  2  0
 28 27  1  0
 29 30  1  0
 30 31  2  0
 32 31  1  0
 32 24  1  0
 33 35  2  0
 33 34  1  0
M  END
$$$$
