IYW.pdb
     RDKit          3D

 35 37  0  0  1  0  0  0  0  0999 V2000
   20.0239  -13.9139  -18.5232 C   0  0  0  0  0  0  0  0  0  0  0  0
   19.6762  -12.7046  -19.3608 C   0  0  0  0  0  0  0  0  0  0  0  0
   20.3390  -11.4571  -18.8673 C   0  0  2  0  0  0  0  0  0  0  0  0
   20.0284  -11.1669  -17.4237 C   0  0  0  0  0  0  0  0  0  0  0  0
   20.1030  -10.2845  -19.7652 C   0  0  2  0  0  0  0  0  0  0  0  0
   20.5685  -10.6597  -21.0942 N   0  0  0  0  0  0  0  0  0  0  0  0
   20.7077   -9.0186  -19.3131 C   0  0  0  0  0  0  0  0  0  0  0  0
   21.6521   -8.4988  -19.9560 O   0  0  0  0  0  0  0  0  0  0  0  0
   15.0924   -5.0872  -19.8391 O   0  0  0  0  0  0  0  0  0  0  0  0
   16.4407   -5.2692  -19.5346 C   0  0  0  0  0  0  0  0  0  0  0  0
   17.1564   -6.1664  -20.3077 C   0  0  0  0  0  0  0  0  0  0  0  0
   18.4872   -6.3948  -20.0648 C   0  0  0  0  0  0  0  0  0  0  0  0
   19.1336   -5.7166  -19.0258 C   0  0  0  0  0  0  0  0  0  0  0  0
   20.5575   -5.9662  -18.7395 C   0  0  0  0  0  0  0  0  0  0  0  0
   20.8150   -7.0328  -17.7314 C   0  0  2  0  0  0  0  0  0  0  0  0
   20.2756   -8.3188  -18.1516 N   0  0  0  0  0  0  0  0  0  0  0  0
   20.1662   -6.6768  -16.4440 C   0  0  0  0  0  0  0  0  0  0  0  0
   19.1308   -7.2928  -16.0347 O   0  0  0  0  0  0  0  0  0  0  0  0
   18.4119   -4.8306  -18.2674 C   0  0  0  0  0  0  0  0  0  0  0  0
   17.0679   -4.5912  -18.5027 C   0  0  0  0  0  0  0  0  0  0  0  0
   20.6624   -5.6412  -15.6103 N   0  0  0  0  0  0  0  0  0  0  0  0
   20.1896   -5.5129  -14.2394 C   0  0  1  0  0  0  0  0  0  0  0  0
   20.3906   -6.8111  -13.4988 C   0  0  0  0  0  0  0  0  0  0  0  0
   20.0275   -6.7895  -12.0800 C   0  0  0  0  0  0  0  0  0  0  0  0
   18.8038   -7.2025  -11.5438 C   0  0  0  0  0  0  0  0  0  0  0  0
   18.8142   -7.0128  -10.2179 N   0  0  0  0  0  0  0  0  0  0  0  0
   19.9874   -6.4910   -9.8293 C   0  0  0  0  0  0  0  0  0  0  0  0
   20.5093   -6.1264   -8.5918 C   0  0  0  0  0  0  0  0  0  0  0  0
   21.7738   -5.6316   -8.5260 C   0  0  0  0  0  0  0  0  0  0  0  0
   22.5548   -5.4800   -9.6510 C   0  0  0  0  0  0  0  0  0  0  0  0
   22.0326   -5.8408  -10.8652 C   0  0  0  0  0  0  0  0  0  0  0  0
   20.7570   -6.3471  -10.9911 C   0  0  0  0  0  0  0  0  0  0  0  0
   20.6872   -4.3093  -13.5939 C   0  0  0  0  0  0  0  0  0  0  0  0
   19.9982   -3.4732  -12.7382 O   0  0  0  0  0  0  0  0  0  0  0  0
   21.8931   -3.9578  -13.8293 O   0  0  0  0  0  0  0  0  0  0  0  0
  2  1  1  0
  3  5  1  0
  3  2  1  0
  3  4  1  1
  5  6  1  6
  7  8  2  0
  7  5  1  0
  9 10  1  0
 10 11  2  0
 10 20  1  0
 11 12  1  0
 12 13  2  0
 13 14  1  0
 15 14  1  6
 15 16  1  0
 15 17  1  0
 16  7  1  0
 17 21  1  0
 18 17  2  0
 19 13  1  0
 20 19  2  0
 21 22  1  0
 22 23  1  1
 22 33  1  0
 24 23  1  0
 25 24  2  0
 26 25  1  0
 27 26  1  0
 27 32  2  0
 28 29  2  0
 28 27  1  0
 29 30  1  0
 30 31  2  0
 32 31  1  0
 32 24  1  0
 33 35  2  0
 33 34  1  0
M  END
$$$$
