IYW.pdb
     RDKit          3D

 35 37  0  0  1  0  0  0  0  0999 V2000
   17.4956  -23.0040    3.7213 C   0  0  0  0  0  0  0  0  0  0  0  0
   16.6309  -22.2004    2.7772 C   0  0  0  0  0  0  0  0  0  0  0  0
   15.1735  -22.4960    2.9444 C   0  0  2  0  0  0  0  0  0  0  0  0
   14.8643  -23.9655    2.8458 C   0  0  0  0  0  0  0  0  0  0  0  0
   14.3090  -21.6542    2.0609 C   0  0  2  0  0  0  0  0  0  0  0  0
   14.6053  -22.0301    0.6844 N   0  0  0  0  0  0  0  0  0  0  0  0
   14.4318  -20.1999    2.2672 C   0  0  0  0  0  0  0  0  0  0  0  0
   14.9589  -19.4745    1.3889 O   0  0  0  0  0  0  0  0  0  0  0  0
    8.6710  -16.5799    0.3724 O   0  0  0  0  0  0  0  0  0  0  0  0
    9.6917  -16.7832    1.3000 C   0  0  0  0  0  0  0  0  0  0  0  0
    9.7366  -18.0067    1.9450 C   0  0  0  0  0  0  0  0  0  0  0  0
   10.7139  -18.2760    2.8695 C   0  0  0  0  0  0  0  0  0  0  0  0
   11.6784  -17.3074    3.1680 C   0  0  0  0  0  0  0  0  0  0  0  0
   12.7221  -17.5742    4.1735 C   0  0  0  0  0  0  0  0  0  0  0  0
   14.0051  -18.0923    3.6209 C   0  0  2  0  0  0  0  0  0  0  0  0
   13.9747  -19.5373    3.4408 N   0  0  0  0  0  0  0  0  0  0  0  0
   15.1175  -17.7831    4.5546 C   0  0  0  0  0  0  0  0  0  0  0  0
   15.3671  -18.5305    5.5538 O   0  0  0  0  0  0  0  0  0  0  0  0
   11.6215  -16.0992    2.5215 C   0  0  0  0  0  0  0  0  0  0  0  0
   10.6399  -15.8153    1.5861 C   0  0  0  0  0  0  0  0  0  0  0  0
   15.9531  -16.6490    4.3832 N   0  0  0  0  0  0  0  0  0  0  0  0
   16.9672  -16.3278    5.3772 C   0  0  1  0  0  0  0  0  0  0  0  0
   18.2337  -15.8732    4.6963 C   0  0  0  0  0  0  0  0  0  0  0  0
   19.2074  -15.2023    5.5607 C   0  0  0  0  0  0  0  0  0  0  0  0
   19.8817  -15.7857    6.6378 C   0  0  0  0  0  0  0  0  0  0  0  0
   20.6686  -14.8694    7.2170 N   0  0  0  0  0  0  0  0  0  0  0  0
   20.5602  -13.6920    6.5832 C   0  0  0  0  0  0  0  0  0  0  0  0
   21.1581  -12.4487    6.7658 C   0  0  0  0  0  0  0  0  0  0  0  0
   20.8439  -11.4321    5.9197 C   0  0  0  0  0  0  0  0  0  0  0  0
   19.9489  -11.5973    4.8852 C   0  0  0  0  0  0  0  0  0  0  0  0
   19.3645  -12.8245    4.7133 C   0  0  0  0  0  0  0  0  0  0  0  0
   19.6451  -13.8902    5.5411 C   0  0  0  0  0  0  0  0  0  0  0  0
   16.4524  -15.4744    6.4354 C   0  0  0  0  0  0  0  0  0  0  0  0
   16.8013  -15.4955    7.7710 O   0  0  0  0  0  0  0  0  0  0  0  0
   15.5737  -14.5996    6.1259 O   0  0  0  0  0  0  0  0  0  0  0  0
  2  1  1  0
  3  5  1  0
  3  2  1  0
  3  4  1  6
  5  6  1  6
  7  8  2  0
  7  5  1  0
  9 10  1  0
 10 11  2  0
 10 20  1  0
 11 12  1  0
 12 13  2  0
 13 14  1  0
 15 14  1  1
 15 16  1  0
 15 17  1  0
 16  7  1  0
 17 21  1  0
 18 17  2  0
 19 13  1  0
 20 19  2  0
 21 22  1  0
 22 23  1  6
 22 33  1  0
 24 23  1  0
 25 24  2  0
 26 25  1  0
 27 26  1  0
 27 32  2  0
 28 29  2  0
 28 27  1  0
 29 30  1  0
 30 31  2  0
 32 31  1  0
 32 24  1  0
 33 35  2  0
 33 34  1  0
M  END
$$$$
