IYW.pdb
     RDKit          3D

 35 37  0  0  1  0  0  0  0  0999 V2000
   30.8457  -20.9234  -17.3950 C   0  0  0  0  0  0  0  0  0  0  0  0
   29.4535  -21.5102  -17.3445 C   0  0  0  0  0  0  0  0  0  0  0  0
   28.6060  -20.8819  -16.2833 C   0  0  2  0  0  0  0  0  0  0  0  0
   29.2303  -20.9658  -14.9166 C   0  0  0  0  0  0  0  0  0  0  0  0
   27.1914  -21.3664  -16.3127 C   0  0  2  0  0  0  0  0  0  0  0  0
   26.7008  -21.1800  -17.6722 N   0  0  0  0  0  0  0  0  0  0  0  0
   26.2964  -20.7447  -15.3202 C   0  0  0  0  0  0  0  0  0  0  0  0
   25.8984  -19.5642  -15.4730 O   0  0  0  0  0  0  0  0  0  0  0  0
   19.4849  -19.1984  -10.1694 O   0  0  0  0  0  0  0  0  0  0  0  0
   20.4713  -19.7139  -11.0090 C   0  0  0  0  0  0  0  0  0  0  0  0
   20.9906  -20.9584  -10.6982 C   0  0  0  0  0  0  0  0  0  0  0  0
   21.9635  -21.5270  -11.4808 C   0  0  0  0  0  0  0  0  0  0  0  0
   22.4402  -20.8465  -12.6065 C   0  0  0  0  0  0  0  0  0  0  0  0
   23.4993  -21.4349  -13.4453 C   0  0  0  0  0  0  0  0  0  0  0  0
   24.8583  -20.8637  -13.2287 C   0  0  2  0  0  0  0  0  0  0  0  0
   25.8350  -21.4196  -14.1553 N   0  0  0  0  0  0  0  0  0  0  0  0
   25.3223  -21.1746  -11.8528 C   0  0  0  0  0  0  0  0  0  0  0  0
   25.5989  -22.3666  -11.5035 O   0  0  0  0  0  0  0  0  0  0  0  0
   21.9168  -19.6137  -12.9022 C   0  0  0  0  0  0  0  0  0  0  0  0
   20.9343  -19.0291  -12.1201 C   0  0  0  0  0  0  0  0  0  0  0  0
   25.4807  -20.1684  -10.8648 N   0  0  0  0  0  0  0  0  0  0  0  0
   25.7685  -20.5335   -9.4852 C   0  0  1  0  0  0  0  0  0  0  0  0
   26.7722  -19.5754   -8.8947 C   0  0  0  0  0  0  0  0  0  0  0  0
   27.8600  -20.1932   -8.1329 C   0  0  0  0  0  0  0  0  0  0  0  0
   28.6213  -21.2927   -8.5414 C   0  0  0  0  0  0  0  0  0  0  0  0
   29.5030  -21.6025   -7.5819 N   0  0  0  0  0  0  0  0  0  0  0  0
   29.3760  -20.7647   -6.5418 C   0  0  0  0  0  0  0  0  0  0  0  0
   30.0410  -20.6420   -5.3255 C   0  0  0  0  0  0  0  0  0  0  0  0
   29.6801  -19.6485   -4.4706 C   0  0  0  0  0  0  0  0  0  0  0  0
   28.6731  -18.7582   -4.7740 C   0  0  0  0  0  0  0  0  0  0  0  0
   28.0235  -18.8869   -5.9734 C   0  0  0  0  0  0  0  0  0  0  0  0
   28.3470  -19.8754   -6.8777 C   0  0  0  0  0  0  0  0  0  0  0  0
   24.5600  -20.7708   -8.7131 C   0  0  0  0  0  0  0  0  0  0  0  0
   23.2880  -20.3098   -8.9878 O   0  0  0  0  0  0  0  0  0  0  0  0
   24.6550  -21.4787   -7.6534 O   0  0  0  0  0  0  0  0  0  0  0  0
  2  1  1  0
  3  5  1  0
  3  2  1  0
  3  4  1  1
  5  6  1  6
  7  8  2  0
  7  5  1  0
  9 10  1  0
 10 11  2  0
 10 20  1  0
 11 12  1  0
 12 13  2  0
 13 14  1  0
 15 14  1  6
 15 16  1  0
 15 17  1  0
 16  7  1  0
 17 21  1  0
 18 17  2  0
 19 13  1  0
 20 19  2  0
 21 22  1  0
 22 23  1  1
 22 33  1  0
 24 23  1  0
 25 24  2  0
 26 25  1  0
 27 26  1  0
 27 32  2  0
 28 29  2  0
 28 27  1  0
 29 30  1  0
 30 31  2  0
 32 31  1  0
 32 24  1  0
 33 35  2  0
 33 34  1  0
M  END
$$$$
