IYW.pdb
     RDKit          3D

 35 37  0  0  1  0  0  0  0  0999 V2000
   22.7839  -22.8147  -19.6775 C   0  0  0  0  0  0  0  0  0  0  0  0
   23.8071  -21.7375  -19.3987 C   0  0  0  0  0  0  0  0  0  0  0  0
   24.6427  -22.0398  -18.1947 C   0  0  2  0  0  0  0  0  0  0  0  0
   23.8235  -22.5085  -17.0225 C   0  0  0  0  0  0  0  0  0  0  0  0
   25.5792  -20.9266  -17.8481 C   0  0  2  0  0  0  0  0  0  0  0  0
   26.4053  -20.6778  -19.0226 N   0  0  0  0  0  0  0  0  0  0  0  0
   26.3982  -21.1503  -16.6431 C   0  0  0  0  0  0  0  0  0  0  0  0
   27.3856  -21.9243  -16.6790 O   0  0  0  0  0  0  0  0  0  0  0  0
   28.3895  -15.1791  -17.2967 O   0  0  0  0  0  0  0  0  0  0  0  0
   28.0748  -16.1680  -16.3658 C   0  0  0  0  0  0  0  0  0  0  0  0
   28.8782  -17.2942  -16.3313 C   0  0  0  0  0  0  0  0  0  0  0  0
   28.6273  -18.3069  -15.4403 C   0  0  0  0  0  0  0  0  0  0  0  0
   27.5492  -18.2061  -14.5544 C   0  0  0  0  0  0  0  0  0  0  0  0
   27.2546  -19.2945  -13.6055 C   0  0  0  0  0  0  0  0  0  0  0  0
   27.0104  -20.6231  -14.2340 C   0  0  2  0  0  0  0  0  0  0  0  0
   26.1344  -20.5228  -15.3933 N   0  0  0  0  0  0  0  0  0  0  0  0
   26.3551  -21.5298  -13.2575 C   0  0  0  0  0  0  0  0  0  0  0  0
   26.8490  -21.7211  -12.1005 O   0  0  0  0  0  0  0  0  0  0  0  0
   26.7610  -17.0846  -14.6000 C   0  0  0  0  0  0  0  0  0  0  0  0
   27.0040  -16.0553  -15.4947 C   0  0  0  0  0  0  0  0  0  0  0  0
   25.1547  -22.2235  -13.5602 N   0  0  0  0  0  0  0  0  0  0  0  0
   23.9670  -22.0264  -12.7417 C   0  0  1  0  0  0  0  0  0  0  0  0
   23.9397  -20.6196  -12.1992 C   0  0  0  0  0  0  0  0  0  0  0  0
   22.7548  -20.2711  -11.4119 C   0  0  0  0  0  0  0  0  0  0  0  0
   22.5184  -20.6418  -10.0845 C   0  0  0  0  0  0  0  0  0  0  0  0
   21.3236  -20.1743   -9.6998 N   0  0  0  0  0  0  0  0  0  0  0  0
   20.7386  -19.5035  -10.7035 C   0  0  0  0  0  0  0  0  0  0  0  0
   19.5301  -18.8238  -10.8236 C   0  0  0  0  0  0  0  0  0  0  0  0
   19.2276  -18.2135  -12.0000 C   0  0  0  0  0  0  0  0  0  0  0  0
   20.0840  -18.2487  -13.0789 C   0  0  0  0  0  0  0  0  0  0  0  0
   21.2712  -18.9207  -12.9519 C   0  0  0  0  0  0  0  0  0  0  0  0
   21.6293  -19.5579  -11.7835 C   0  0  0  0  0  0  0  0  0  0  0  0
   22.7588  -22.4960  -13.3996 C   0  0  0  0  0  0  0  0  0  0  0  0
   22.5750  -22.7218  -14.7491 O   0  0  0  0  0  0  0  0  0  0  0  0
   21.7335  -22.7305  -12.6736 O   0  0  0  0  0  0  0  0  0  0  0  0
  2  1  1  0
  3  5  1  0
  3  2  1  0
  3  4  1  1
  5  6  1  6
  7  8  2  0
  7  5  1  0
  9 10  1  0
 10 11  2  0
 10 20  1  0
 11 12  1  0
 12 13  2  0
 13 14  1  0
 15 14  1  1
 15 16  1  0
 15 17  1  0
 16  7  1  0
 17 21  1  0
 18 17  2  0
 19 13  1  0
 20 19  2  0
 21 22  1  0
 22 23  1  6
 22 33  1  0
 24 23  1  0
 25 24  2  0
 26 25  1  0
 27 26  1  0
 27 32  2  0
 28 29  2  0
 28 27  1  0
 29 30  1  0
 30 31  2  0
 32 31  1  0
 32 24  1  0
 33 35  2  0
 33 34  1  0
M  END
$$$$
