IYW.pdb
     RDKit          3D

 35 37  0  0  1  0  0  0  0  0999 V2000
   25.4517  -22.4937  -20.5230 C   0  0  0  0  0  0  0  0  0  0  0  0
   25.0576  -22.8445  -19.1065 C   0  0  0  0  0  0  0  0  0  0  0  0
   25.9303  -22.1800  -18.0886 C   0  0  2  0  0  0  0  0  0  0  0  0
   27.3967  -22.3592  -18.3755 C   0  0  0  0  0  0  0  0  0  0  0  0
   25.5587  -22.5415  -16.6858 C   0  0  2  0  0  0  0  0  0  0  0  0
   24.1504  -22.2084  -16.5142 N   0  0  0  0  0  0  0  0  0  0  0  0
   26.3955  -21.9277  -15.6389 C   0  0  0  0  0  0  0  0  0  0  0  0
   27.6312  -22.1444  -15.6031 O   0  0  0  0  0  0  0  0  0  0  0  0
   28.8491  -16.6155  -18.3380 O   0  0  0  0  0  0  0  0  0  0  0  0
   28.3375  -17.2044  -17.1825 C   0  0  0  0  0  0  0  0  0  0  0  0
   26.9680  -17.1540  -16.9905 C   0  0  0  0  0  0  0  0  0  0  0  0
   26.3956  -17.7134  -15.8762 C   0  0  0  0  0  0  0  0  0  0  0  0
   27.1995  -18.3431  -14.9198 C   0  0  0  0  0  0  0  0  0  0  0  0
   26.6018  -18.9306  -13.7078 C   0  0  0  0  0  0  0  0  0  0  0  0
   26.6973  -20.4149  -13.6198 C   0  0  2  0  0  0  0  0  0  0  0  0
   25.8759  -21.0726  -14.6269 N   0  0  0  0  0  0  0  0  0  0  0  0
   26.2225  -20.8726  -12.2894 C   0  0  0  0  0  0  0  0  0  0  0  0
   24.9980  -21.1536  -12.0869 O   0  0  0  0  0  0  0  0  0  0  0  0
   28.5553  -18.3852  -15.1228 C   0  0  0  0  0  0  0  0  0  0  0  0
   29.1452  -17.8242  -16.2437 C   0  0  0  0  0  0  0  0  0  0  0  0
   27.1008  -21.0197  -11.1846 N   0  0  0  0  0  0  0  0  0  0  0  0
   26.5692  -21.1248   -9.8334 C   0  0  1  0  0  0  0  0  0  0  0  0
   27.6693  -20.9050   -8.8256 C   0  0  0  0  0  0  0  0  0  0  0  0
   27.2311  -20.7677   -7.4348 C   0  0  0  0  0  0  0  0  0  0  0  0
   25.9543  -21.0641   -6.9478 C   0  0  0  0  0  0  0  0  0  0  0  0
   25.9048  -20.7899   -5.6377 N   0  0  0  0  0  0  0  0  0  0  0  0
   27.0880  -20.3218   -5.2128 C   0  0  0  0  0  0  0  0  0  0  0  0
   27.5649  -19.9125   -3.9712 C   0  0  0  0  0  0  0  0  0  0  0  0
   28.8550  -19.4981   -3.8609 C   0  0  0  0  0  0  0  0  0  0  0  0
   29.7052  -19.4712   -4.9449 C   0  0  0  0  0  0  0  0  0  0  0  0
   29.2270  -19.8751   -6.1635 C   0  0  0  0  0  0  0  0  0  0  0  0
   27.9284  -20.3041   -6.3336 C   0  0  0  0  0  0  0  0  0  0  0  0
   25.3553  -20.3451   -9.6553 C   0  0  0  0  0  0  0  0  0  0  0  0
   24.1730  -20.7590   -9.0752 O   0  0  0  0  0  0  0  0  0  0  0  0
   25.3505  -19.1388  -10.0771 O   0  0  0  0  0  0  0  0  0  0  0  0
  2  1  1  0
  3  5  1  0
  3  2  1  0
  3  4  1  6
  5  6  1  1
  7  8  2  0
  7  5  1  0
  9 10  1  0
 10 11  2  0
 10 20  1  0
 11 12  1  0
 12 13  2  0
 13 14  1  0
 15 14  1  1
 15 16  1  0
 15 17  1  0
 16  7  1  0
 17 21  1  0
 18 17  2  0
 19 13  1  0
 20 19  2  0
 21 22  1  0
 22 23  1  1
 22 33  1  0
 24 23  1  0
 25 24  2  0
 26 25  1  0
 27 26  1  0
 27 32  2  0
 28 29  2  0
 28 27  1  0
 29 30  1  0
 30 31  2  0
 32 31  1  0
 32 24  1  0
 33 35  2  0
 33 34  1  0
M  END
$$$$
