IYW.pdb
     RDKit          3D

 35 37  0  0  1  0  0  0  0  0999 V2000
   29.5243  -20.1231  -17.8323 C   0  0  0  0  0  0  0  0  0  0  0  0
   28.0176  -20.2385  -17.7956 C   0  0  0  0  0  0  0  0  0  0  0  0
   27.4420  -19.8017  -16.4852 C   0  0  2  0  0  0  0  0  0  0  0  0
   28.1658  -20.3951  -15.3068 C   0  0  0  0  0  0  0  0  0  0  0  0
   25.9594  -19.9857  -16.4163 C   0  0  2  0  0  0  0  0  0  0  0  0
   25.3838  -19.2692  -17.5472 N   0  0  0  0  0  0  0  0  0  0  0  0
   25.3375  -19.5828  -15.1421 C   0  0  0  0  0  0  0  0  0  0  0  0
   25.2863  -18.3726  -14.8132 O   0  0  0  0  0  0  0  0  0  0  0  0
   19.3209  -17.9636  -16.7608 O   0  0  0  0  0  0  0  0  0  0  0  0
   20.1353  -18.5704  -15.8057 C   0  0  0  0  0  0  0  0  0  0  0  0
   20.8036  -19.7248  -16.1741 C   0  0  0  0  0  0  0  0  0  0  0  0
   21.6222  -20.3745  -15.2852 C   0  0  0  0  0  0  0  0  0  0  0  0
   21.7873  -19.8698  -13.9908 C   0  0  0  0  0  0  0  0  0  0  0  0
   22.6470  -20.5675  -13.0184 C   0  0  0  0  0  0  0  0  0  0  0  0
   24.0687  -20.1216  -13.0076 C   0  0  2  0  0  0  0  0  0  0  0  0
   24.7689  -20.5100  -14.2242 N   0  0  0  0  0  0  0  0  0  0  0  0
   24.7834  -20.7439  -11.8644 C   0  0  0  0  0  0  0  0  0  0  0  0
   25.0120  -21.9953  -11.8316 O   0  0  0  0  0  0  0  0  0  0  0  0
   21.1185  -18.7251  -13.6393 C   0  0  0  0  0  0  0  0  0  0  0  0
   20.2894  -18.0600  -14.5276 C   0  0  0  0  0  0  0  0  0  0  0  0
   25.2451  -19.9831  -10.7591 N   0  0  0  0  0  0  0  0  0  0  0  0
   25.6249  -20.6456   -9.5196 C   0  0  1  0  0  0  0  0  0  0  0  0
   26.7122  -19.8634   -8.8266 C   0  0  0  0  0  0  0  0  0  0  0  0
   27.0648  -20.3292   -7.4835 C   0  0  0  0  0  0  0  0  0  0  0  0
   26.6606  -21.5367   -6.9057 C   0  0  0  0  0  0  0  0  0  0  0  0
   27.1443  -21.6155   -5.6591 N   0  0  0  0  0  0  0  0  0  0  0  0
   27.8580  -20.5184   -5.3642 C   0  0  0  0  0  0  0  0  0  0  0  0
   28.5689  -20.1136   -4.2384 C   0  0  0  0  0  0  0  0  0  0  0  0
   29.2206  -18.9208   -4.2601 C   0  0  0  0  0  0  0  0  0  0  0  0
   29.1972  -18.0995   -5.3662 C   0  0  0  0  0  0  0  0  0  0  0  0
   28.4943  -18.5056   -6.4698 C   0  0  0  0  0  0  0  0  0  0  0  0
   27.8147  -19.7042   -6.5034 C   0  0  0  0  0  0  0  0  0  0  0  0
   24.4721  -21.0148   -8.7149 C   0  0  0  0  0  0  0  0  0  0  0  0
   24.3356  -22.1284   -7.9105 O   0  0  0  0  0  0  0  0  0  0  0  0
   23.4534  -20.2434   -8.7376 O   0  0  0  0  0  0  0  0  0  0  0  0
  2  1  1  0
  3  5  1  0
  3  2  1  0
  3  4  1  1
  5  6  1  6
  7  8  2  0
  7  5  1  0
  9 10  1  0
 10 11  2  0
 10 20  1  0
 11 12  1  0
 12 13  2  0
 13 14  1  0
 15 14  1  6
 15 16  1  0
 15 17  1  0
 16  7  1  0
 17 21  1  0
 18 17  2  0
 19 13  1  0
 20 19  2  0
 21 22  1  0
 22 23  1  1
 22 33  1  0
 24 23  1  0
 25 24  2  0
 26 25  1  0
 27 26  1  0
 27 32  2  0
 28 29  2  0
 28 27  1  0
 29 30  1  0
 30 31  2  0
 32 31  1  0
 32 24  1  0
 33 35  2  0
 33 34  1  0
M  END
$$$$
