IYW.pdb
     RDKit          3D

 35 37  0  0  1  0  0  0  0  0999 V2000
   27.8152  -20.6250  -20.9708 C   0  0  0  0  0  0  0  0  0  0  0  0
   28.5190  -21.0407  -19.6992 C   0  0  0  0  0  0  0  0  0  0  0  0
   27.5658  -21.2914  -18.5733 C   0  0  2  0  0  0  0  0  0  0  0  0
   26.5125  -20.2230  -18.4557 C   0  0  0  0  0  0  0  0  0  0  0  0
   28.2618  -21.5737  -17.2801 C   0  0  2  0  0  0  0  0  0  0  0  0
   29.1454  -22.7103  -17.5061 N   0  0  0  0  0  0  0  0  0  0  0  0
   27.3720  -21.7960  -16.1262 C   0  0  0  0  0  0  0  0  0  0  0  0
   26.6406  -22.8146  -16.0731 O   0  0  0  0  0  0  0  0  0  0  0  0
   23.3400  -20.7497   -8.2523 O   0  0  0  0  0  0  0  0  0  0  0  0
   24.1537  -20.6071   -9.3753 C   0  0  0  0  0  0  0  0  0  0  0  0
   25.2801  -21.4069   -9.4558 C   0  0  0  0  0  0  0  0  0  0  0  0
   26.1255  -21.3202  -10.5329 C   0  0  0  0  0  0  0  0  0  0  0  0
   25.8515  -20.4156  -11.5644 C   0  0  0  0  0  0  0  0  0  0  0  0
   26.7608  -20.2964  -12.7179 C   0  0  0  0  0  0  0  0  0  0  0  0
   26.3327  -21.0467  -13.9319 C   0  0  2  0  0  0  0  0  0  0  0  0
   27.2834  -20.8985  -15.0253 N   0  0  0  0  0  0  0  0  0  0  0  0
   25.0234  -20.5319  -14.4070 C   0  0  0  0  0  0  0  0  0  0  0  0
   24.9325  -19.4120  -15.0044 O   0  0  0  0  0  0  0  0  0  0  0  0
   24.7318  -19.6290  -11.4713 C   0  0  0  0  0  0  0  0  0  0  0  0
   23.8706  -19.7071  -10.3891 C   0  0  0  0  0  0  0  0  0  0  0  0
   23.8165  -21.2550  -14.2221 N   0  0  0  0  0  0  0  0  0  0  0  0
   22.5350  -20.6324  -14.5212 C   0  0  1  0  0  0  0  0  0  0  0  0
   22.2094  -20.7950  -15.9847 C   0  0  0  0  0  0  0  0  0  0  0  0
   20.9403  -20.2052  -16.4168 C   0  0  0  0  0  0  0  0  0  0  0  0
   20.7598  -18.8922  -16.8626 C   0  0  0  0  0  0  0  0  0  0  0  0
   19.4653  -18.6934  -17.1438 N   0  0  0  0  0  0  0  0  0  0  0  0
   18.7592  -19.8099  -16.9102 C   0  0  0  0  0  0  0  0  0  0  0  0
   17.4140  -20.1379  -17.0498 C   0  0  0  0  0  0  0  0  0  0  0  0
   17.0033  -21.3961  -16.7393 C   0  0  0  0  0  0  0  0  0  0  0  0
   17.8819  -22.3575  -16.2893 C   0  0  0  0  0  0  0  0  0  0  0  0
   19.2042  -22.0256  -16.1543 C   0  0  0  0  0  0  0  0  0  0  0  0
   19.6761  -20.7657  -16.4536 C   0  0  0  0  0  0  0  0  0  0  0  0
   21.5001  -21.0167  -13.5755 C   0  0  0  0  0  0  0  0  0  0  0  0
   20.3872  -20.2859  -13.2108 O   0  0  0  0  0  0  0  0  0  0  0  0
   21.6078  -22.1515  -12.9976 O   0  0  0  0  0  0  0  0  0  0  0  0
  2  1  1  0
  3  5  1  0
  3  2  1  0
  3  4  1  1
  5  6  1  6
  7  8  2  0
  7  5  1  0
  9 10  1  0
 10 11  2  0
 10 20  1  0
 11 12  1  0
 12 13  2  0
 13 14  1  0
 15 14  1  1
 15 16  1  0
 15 17  1  0
 16  7  1  0
 17 21  1  0
 18 17  2  0
 19 13  1  0
 20 19  2  0
 21 22  1  0
 22 23  1  6
 22 33  1  0
 24 23  1  0
 25 24  2  0
 26 25  1  0
 27 26  1  0
 27 32  2  0
 28 29  2  0
 28 27  1  0
 29 30  1  0
 30 31  2  0
 32 31  1  0
 32 24  1  0
 33 35  2  0
 33 34  1  0
M  END
$$$$
