FYK.pdb
     RDKit          3D

 33 34  0  0  1  0  0  0  0  0999 V2000
   28.2114   -9.0594  -19.7730 N   0  0  0  0  0  0  0  0  0  0  0  0
   28.4445  -10.4609  -19.3841 C   0  0  1  0  0  0  0  0  0  0  0  0
   28.7532  -10.4190  -17.9087 C   0  0  0  0  0  0  0  0  0  0  0  0
   30.0940   -9.9775  -17.5612 C   0  0  0  0  0  0  0  0  0  0  0  0
   31.1811  -10.7616  -17.8741 C   0  0  0  0  0  0  0  0  0  0  0  0
   32.4757  -10.3694  -17.5614 C   0  0  0  0  0  0  0  0  0  0  0  0
   32.6936   -9.1703  -16.9230 C   0  0  0  0  0  0  0  0  0  0  0  0
   31.6108   -8.3851  -16.6091 C   0  0  0  0  0  0  0  0  0  0  0  0
   30.3188   -8.7889  -16.9276 C   0  0  0  0  0  0  0  0  0  0  0  0
   27.1836  -11.2040  -19.6098 C   0  0  0  0  0  0  0  0  0  0  0  0
   26.1205  -10.8879  -19.0040 O   0  0  0  0  0  0  0  0  0  0  0  0
   22.4474   -7.6051  -20.5863 O   0  0  0  0  0  0  0  0  0  0  0  0
   23.1104   -8.7985  -20.9105 C   0  0  0  0  0  0  0  0  0  0  0  0
   22.4948   -9.9987  -20.6975 C   0  0  0  0  0  0  0  0  0  0  0  0
   23.1176  -11.2156  -21.0057 C   0  0  0  0  0  0  0  0  0  0  0  0
   24.3835  -11.1960  -21.5371 C   0  0  0  0  0  0  0  0  0  0  0  0
   25.0696  -12.4543  -21.8751 C   0  0  0  0  0  0  0  0  0  0  0  0
   25.8489  -13.0360  -20.7320 C   0  0  2  0  0  0  0  0  0  0  0  0
   27.0984  -12.3168  -20.5229 N   0  0  0  0  0  0  0  0  0  0  0  0
   26.0525  -14.4908  -20.7949 C   0  0  0  0  0  0  0  0  0  0  0  0
   27.0822  -14.9765  -21.3794 O   0  0  0  0  0  0  0  0  0  0  0  0
   25.0003   -9.9952  -21.7506 C   0  0  0  0  0  0  0  0  0  0  0  0
   24.3944   -8.7855  -21.4498 C   0  0  0  0  0  0  0  0  0  0  0  0
   25.1726  -15.4409  -20.2401 N   0  0  0  0  0  0  0  0  0  0  0  0
   25.3294  -16.8662  -20.3773 C   0  0  1  0  0  0  0  0  0  0  0  0
   24.3329  -17.5462  -19.4643 C   0  0  0  0  0  0  0  0  0  0  0  0
   24.3850  -19.0418  -19.5361 C   0  0  0  0  0  0  0  0  0  0  0  0
   23.4044  -19.5772  -18.5138 C   0  0  0  0  0  0  0  0  0  0  0  0
   23.3263  -21.0868  -18.5487 C   0  0  0  0  0  0  0  0  0  0  0  0
   22.4337  -21.5090  -17.4783 N   0  0  0  0  0  0  0  0  0  0  0  0
   25.2761  -17.3569  -21.7529 C   0  0  0  0  0  0  0  0  0  0  0  0
   24.2682  -17.1325  -22.4734 O   0  0  0  0  0  0  0  0  0  0  0  0
   26.2908  -18.0829  -22.3590 O   0  0  0  0  0  0  0  0  0  0  0  0
  2  1  1  1
  2  3  1  0
  4  3  1  0
  5  4  2  0
  6  5  1  0
  7  6  2  0
  7  8  1  0
  8  9  2  0
  9  4  1  0
 10 19  1  0
 10  2  1  0
 11 10  2  0
 13 12  1  0
 14 13  2  0
 15 14  1  0
 16 22  1  0
 16 15  2  0
 17 16  1  0
 18 19  1  0
 18 17  1  6
 20 21  2  0
 20 18  1  0
 22 23  2  0
 23 13  1  0
 24 20  1  0
 25 24  1  0
 25 31  1  0
 25 26  1  1
 27 26  1  0
 28 27  1  0
 28 29  1  0
 29 30  1  0
 31 33  1  0
 32 31  2  0
M  END
$$$$
