FYK.pdb
     RDKit          3D

 33 34  0  0  1  0  0  0  0  0999 V2000
   15.3221  -23.5966   -4.2937 N   0  0  0  0  0  0  0  0  0  0  0  0
   14.8012  -23.9175   -2.9537 C   0  0  1  0  0  0  0  0  0  0  0  0
   15.9957  -24.3909   -2.1645 C   0  0  0  0  0  0  0  0  0  0  0  0
   16.3665  -25.7825   -2.3628 C   0  0  0  0  0  0  0  0  0  0  0  0
   17.5053  -26.0991   -3.0677 C   0  0  0  0  0  0  0  0  0  0  0  0
   17.8921  -27.4167   -3.2726 C   0  0  0  0  0  0  0  0  0  0  0  0
   17.1285  -28.4423   -2.7647 C   0  0  0  0  0  0  0  0  0  0  0  0
   15.9908  -28.1299   -2.0606 C   0  0  0  0  0  0  0  0  0  0  0  0
   15.6140  -26.8062   -1.8620 C   0  0  0  0  0  0  0  0  0  0  0  0
   14.2779  -22.6637   -2.3645 C   0  0  0  0  0  0  0  0  0  0  0  0
   14.7498  -21.5388   -2.6950 O   0  0  0  0  0  0  0  0  0  0  0  0
    9.2284  -16.0089   -0.3148 O   0  0  0  0  0  0  0  0  0  0  0  0
    9.7779  -17.2509   -0.6679 C   0  0  0  0  0  0  0  0  0  0  0  0
    9.2355  -18.4013   -0.1706 C   0  0  0  0  0  0  0  0  0  0  0  0
    9.7503  -19.6635   -0.4952 C   0  0  0  0  0  0  0  0  0  0  0  0
   10.8316  -19.7413   -1.3379 C   0  0  0  0  0  0  0  0  0  0  0  0
   11.3994  -21.0500   -1.7031 C   0  0  0  0  0  0  0  0  0  0  0  0
   12.6261  -21.4097   -0.9169 C   0  0  2  0  0  0  0  0  0  0  0  0
   13.2131  -22.6554   -1.3922 N   0  0  0  0  0  0  0  0  0  0  0  0
   12.4531  -21.4021    0.5433 C   0  0  0  0  0  0  0  0  0  0  0  0
   11.8881  -22.3868    1.1341 O   0  0  0  0  0  0  0  0  0  0  0  0
   11.3750  -18.5905   -1.8360 C   0  0  0  0  0  0  0  0  0  0  0  0
   10.8745  -17.3367   -1.5222 C   0  0  0  0  0  0  0  0  0  0  0  0
   12.8766  -20.3574    1.3881 N   0  0  0  0  0  0  0  0  0  0  0  0
   12.6965  -20.3488    2.8172 C   0  0  1  0  0  0  0  0  0  0  0  0
   13.9023  -19.6862    3.4464 C   0  0  0  0  0  0  0  0  0  0  0  0
   14.7407  -20.6254    4.2585 C   0  0  0  0  0  0  0  0  0  0  0  0
   15.9962  -19.8790    4.6583 C   0  0  0  0  0  0  0  0  0  0  0  0
   16.9621  -20.7679    5.4088 C   0  0  0  0  0  0  0  0  0  0  0  0
   18.1154  -19.9582    5.7761 N   0  0  0  0  0  0  0  0  0  0  0  0
   11.4279  -19.7813    3.2695 C   0  0  0  0  0  0  0  0  0  0  0  0
   10.8884  -18.8357    2.6369 O   0  0  0  0  0  0  0  0  0  0  0  0
   10.7364  -20.2183    4.3899 O   0  0  0  0  0  0  0  0  0  0  0  0
  2  1  1  6
  2  3  1  0
  4  3  1  0
  5  4  2  0
  6  5  1  0
  7  6  2  0
  7  8  1  0
  8  9  2  0
  9  4  1  0
 10 19  1  0
 10  2  1  0
 11 10  2  0
 13 12  1  0
 14 13  2  0
 15 14  1  0
 16 22  1  0
 16 15  2  0
 17 16  1  0
 18 19  1  0
 18 17  1  6
 20 21  2  0
 20 18  1  0
 22 23  2  0
 23 13  1  0
 24 20  1  0
 25 24  1  0
 25 31  1  0
 25 26  1  1
 27 26  1  0
 28 27  1  0
 28 29  1  0
 29 30  1  0
 31 33  1  0
 32 31  2  0
M  END
$$$$
