FYK.pdb
     RDKit          3D

 33 34  0  0  1  0  0  0  0  0999 V2000
   28.5550  -20.6859   -8.4882 N   0  0  0  0  0  0  0  0  0  0  0  0
   27.1298  -20.6011   -8.1259 C   0  0  1  0  0  0  0  0  0  0  0  0
   27.0395  -19.4785   -7.1232 C   0  0  0  0  0  0  0  0  0  0  0  0
   27.7724  -19.6839   -5.8846 C   0  0  0  0  0  0  0  0  0  0  0  0
   29.0545  -19.2007   -5.7537 C   0  0  0  0  0  0  0  0  0  0  0  0
   29.7821  -19.3746   -4.5840 C   0  0  0  0  0  0  0  0  0  0  0  0
   29.2216  -20.0445   -3.5211 C   0  0  0  0  0  0  0  0  0  0  0  0
   27.9421  -20.5283   -3.6484 C   0  0  0  0  0  0  0  0  0  0  0  0
   27.2234  -20.3477   -4.8251 C   0  0  0  0  0  0  0  0  0  0  0  0
   26.3774  -20.2402   -9.3493 C   0  0  0  0  0  0  0  0  0  0  0  0
   26.6915  -19.2262  -10.0352 O   0  0  0  0  0  0  0  0  0  0  0  0
   30.1358  -20.6854  -14.7336 O   0  0  0  0  0  0  0  0  0  0  0  0
   28.9569  -21.0275  -14.0535 C   0  0  0  0  0  0  0  0  0  0  0  0
   27.7446  -20.6709  -14.5713 C   0  0  0  0  0  0  0  0  0  0  0  0
   26.5415  -20.9905  -13.9278 C   0  0  0  0  0  0  0  0  0  0  0  0
   26.5876  -21.6823  -12.7426 C   0  0  0  0  0  0  0  0  0  0  0  0
   25.3443  -22.0375  -12.0380 C   0  0  0  0  0  0  0  0  0  0  0  0
   24.7930  -20.9217  -11.1992 C   0  0  2  0  0  0  0  0  0  0  0  0
   25.2574  -21.0160   -9.8216 N   0  0  0  0  0  0  0  0  0  0  0  0
   23.3356  -20.7447  -11.2802 C   0  0  0  0  0  0  0  0  0  0  0  0
   22.5659  -21.3079  -10.4268 O   0  0  0  0  0  0  0  0  0  0  0  0
   27.8005  -22.0396  -12.2239 C   0  0  0  0  0  0  0  0  0  0  0  0
   28.9967  -21.7291  -12.8511 C   0  0  0  0  0  0  0  0  0  0  0  0
   22.6825  -19.9713  -12.2599 N   0  0  0  0  0  0  0  0  0  0  0  0
   21.2539  -19.8045  -12.3396 C   0  0  1  0  0  0  0  0  0  0  0  0
   20.9529  -18.7628  -13.3946 C   0  0  0  0  0  0  0  0  0  0  0  0
   19.4929  -18.4528  -13.5246 C   0  0  0  0  0  0  0  0  0  0  0  0
   19.3431  -17.4482  -14.6478 C   0  0  0  0  0  0  0  0  0  0  0  0
   17.8965  -17.0694  -14.8722 C   0  0  0  0  0  0  0  0  0  0  0  0
   17.8536  -16.1162  -15.9723 N   0  0  0  0  0  0  0  0  0  0  0  0
   20.5037  -21.0448  -12.5264 C   0  0  0  0  0  0  0  0  0  0  0  0
   20.9225  -21.9331  -13.3143 O   0  0  0  0  0  0  0  0  0  0  0  0
   19.3134  -21.3384  -11.8775 O   0  0  0  0  0  0  0  0  0  0  0  0
  2  1  1  6
  2  3  1  0
  4  3  1  0
  5  4  2  0
  6  5  1  0
  7  6  2  0
  7  8  1  0
  8  9  2  0
  9  4  1  0
 10 19  1  0
 10  2  1  0
 11 10  2  0
 13 12  1  0
 14 13  2  0
 15 14  1  0
 16 22  1  0
 16 15  2  0
 17 16  1  0
 18 19  1  0
 18 17  1  6
 20 21  2  0
 20 18  1  0
 22 23  2  0
 23 13  1  0
 24 20  1  0
 25 24  1  0
 25 31  1  0
 25 26  1  6
 27 26  1  0
 28 27  1  0
 28 29  1  0
 29 30  1  0
 31 33  1  0
 32 31  2  0
M  END
$$$$
