FYK.pdb
     RDKit          3D

 33 34  0  0  1  0  0  0  0  0999 V2000
   24.3996  -20.6129   -8.0516 N   0  0  0  0  0  0  0  0  0  0  0  0
   25.7093  -20.1520   -8.5438 C   0  0  1  0  0  0  0  0  0  0  0  0
   26.7248  -21.0295   -7.8563 C   0  0  0  0  0  0  0  0  0  0  0  0
   27.3979  -20.4327   -6.7142 C   0  0  0  0  0  0  0  0  0  0  0  0
   26.7824  -20.4138   -5.4833 C   0  0  0  0  0  0  0  0  0  0  0  0
   27.3973  -19.8564   -4.3703 C   0  0  0  0  0  0  0  0  0  0  0  0
   28.6528  -19.3053   -4.4846 C   0  0  0  0  0  0  0  0  0  0  0  0
   29.2701  -19.3223   -5.7119 C   0  0  0  0  0  0  0  0  0  0  0  0
   28.6439  -19.8837   -6.8193 C   0  0  0  0  0  0  0  0  0  0  0  0
   25.7486  -20.3923  -10.0045 C   0  0  0  0  0  0  0  0  0  0  0  0
   24.8074  -20.9956  -10.5938 O   0  0  0  0  0  0  0  0  0  0  0  0
   27.3516  -17.1510  -18.1141 O   0  0  0  0  0  0  0  0  0  0  0  0
   27.4615  -17.5279  -16.7669 C   0  0  0  0  0  0  0  0  0  0  0  0
   26.8047  -16.8150  -15.8050 C   0  0  0  0  0  0  0  0  0  0  0  0
   26.8849  -17.1540  -14.4476 C   0  0  0  0  0  0  0  0  0  0  0  0
   27.6470  -18.2349  -14.0786 C   0  0  0  0  0  0  0  0  0  0  0  0
   27.7541  -18.6226  -12.6621 C   0  0  0  0  0  0  0  0  0  0  0  0
   26.6474  -19.5273  -12.2046 C   0  0  2  0  0  0  0  0  0  0  0  0
   26.8497  -19.9564  -10.8273 N   0  0  0  0  0  0  0  0  0  0  0  0
   26.3590  -20.6581  -13.0991 C   0  0  0  0  0  0  0  0  0  0  0  0
   26.9327  -21.7881  -12.9209 O   0  0  0  0  0  0  0  0  0  0  0  0
   28.3045  -18.9489  -15.0408 C   0  0  0  0  0  0  0  0  0  0  0  0
   28.2328  -18.6232  -16.3860 C   0  0  0  0  0  0  0  0  0  0  0  0
   25.4627  -20.6038  -14.1846 N   0  0  0  0  0  0  0  0  0  0  0  0
   25.2082  -21.7034  -15.0797 C   0  0  1  0  0  0  0  0  0  0  0  0
   24.1437  -22.5842  -14.4635 C   0  0  0  0  0  0  0  0  0  0  0  0
   22.8126  -21.9084  -14.3371 C   0  0  0  0  0  0  0  0  0  0  0  0
   21.8459  -22.9200  -13.7578 C   0  0  0  0  0  0  0  0  0  0  0  0
   20.4655  -22.3325  -13.5691 C   0  0  0  0  0  0  0  0  0  0  0  0
   19.6139  -23.3728  -13.0096 N   0  0  0  0  0  0  0  0  0  0  0  0
   24.9057  -21.3135  -16.4554 C   0  0  0  0  0  0  0  0  0  0  0  0
   24.6579  -20.1123  -16.7401 O   0  0  0  0  0  0  0  0  0  0  0  0
   24.8672  -22.1980  -17.5233 O   0  0  0  0  0  0  0  0  0  0  0  0
  2  1  1  1
  2  3  1  0
  4  3  1  0
  5  4  2  0
  6  5  1  0
  7  6  2  0
  7  8  1  0
  8  9  2  0
  9  4  1  0
 10 19  1  0
 10  2  1  0
 11 10  2  0
 13 12  1  0
 14 13  2  0
 15 14  1  0
 16 22  1  0
 16 15  2  0
 17 16  1  0
 18 19  1  0
 18 17  1  6
 20 21  2  0
 20 18  1  0
 22 23  2  0
 23 13  1  0
 24 20  1  0
 25 24  1  0
 25 31  1  0
 25 26  1  1
 27 26  1  0
 28 27  1  0
 28 29  1  0
 29 30  1  0
 31 33  1  0
 32 31  2  0
M  END
$$$$
