FYK.pdb
     RDKit          3D

 33 34  0  0  1  0  0  0  0  0999 V2000
   23.1425  -12.9070  -18.2915 N   0  0  0  0  0  0  0  0  0  0  0  0
   22.8669  -11.5999  -18.9121 C   0  0  1  0  0  0  0  0  0  0  0  0
   21.4232  -11.6597  -19.3432 C   0  0  0  0  0  0  0  0  0  0  0  0
   21.1392  -12.5433  -20.4621 C   0  0  0  0  0  0  0  0  0  0  0  0
   21.6137  -12.2402  -21.7180 C   0  0  0  0  0  0  0  0  0  0  0  0
   21.3656  -13.0633  -22.8082 C   0  0  0  0  0  0  0  0  0  0  0  0
   20.6288  -14.2137  -22.6452 C   0  0  0  0  0  0  0  0  0  0  0  0
   20.1534  -14.5193  -21.3929 C   0  0  0  0  0  0  0  0  0  0  0  0
   20.4087  -13.6869  -20.3087 C   0  0  0  0  0  0  0  0  0  0  0  0
   23.0340  -10.5639  -17.8672 C   0  0  0  0  0  0  0  0  0  0  0  0
   22.6742  -10.7742  -16.6740 O   0  0  0  0  0  0  0  0  0  0  0  0
   28.6638  -12.3258  -16.0120 O   0  0  0  0  0  0  0  0  0  0  0  0
   27.8169  -11.2294  -16.2349 C   0  0  0  0  0  0  0  0  0  0  0  0
   27.6546  -10.7409  -17.4998 C   0  0  0  0  0  0  0  0  0  0  0  0
   26.8197   -9.6484  -17.7703 C   0  0  0  0  0  0  0  0  0  0  0  0
   26.1472   -9.0551  -16.7306 C   0  0  0  0  0  0  0  0  0  0  0  0
   25.2597   -7.9060  -16.9760 C   0  0  0  0  0  0  0  0  0  0  0  0
   23.8123   -8.2838  -17.0975 C   0  0  2  0  0  0  0  0  0  0  0  0
   23.6097   -9.2721  -18.1485 N   0  0  0  0  0  0  0  0  0  0  0  0
   22.8821   -7.1514  -17.2171 C   0  0  0  0  0  0  0  0  0  0  0  0
   22.7498   -6.5362  -18.3315 O   0  0  0  0  0  0  0  0  0  0  0  0
   26.3090   -9.5435  -15.4645 C   0  0  0  0  0  0  0  0  0  0  0  0
   27.1319  -10.6231  -15.1848 C   0  0  0  0  0  0  0  0  0  0  0  0
   22.0852   -6.6633  -16.1629 N   0  0  0  0  0  0  0  0  0  0  0  0
   21.1284   -5.5952  -16.2994 C   0  0  1  0  0  0  0  0  0  0  0  0
   20.1383   -5.9759  -17.3780 C   0  0  0  0  0  0  0  0  0  0  0  0
   19.0318   -4.9802  -17.5478 C   0  0  0  0  0  0  0  0  0  0  0  0
   18.1158   -5.5042  -18.6340 C   0  0  0  0  0  0  0  0  0  0  0  0
   16.9490   -4.5745  -18.8803 C   0  0  0  0  0  0  0  0  0  0  0  0
   16.0541   -5.2276  -19.8254 N   0  0  0  0  0  0  0  0  0  0  0  0
   20.4885   -5.1853  -15.0509 C   0  0  0  0  0  0  0  0  0  0  0  0
   20.5007   -5.9446  -14.0466 O   0  0  0  0  0  0  0  0  0  0  0  0
   19.8388   -3.9728  -14.8721 O   0  0  0  0  0  0  0  0  0  0  0  0
  2  1  1  1
  2  3  1  0
  4  3  1  0
  5  4  2  0
  6  5  1  0
  7  6  2  0
  7  8  1  0
  8  9  2  0
  9  4  1  0
 10 19  1  0
 10  2  1  0
 11 10  2  0
 13 12  1  0
 14 13  2  0
 15 14  1  0
 16 22  1  0
 16 15  2  0
 17 16  1  0
 18 19  1  0
 18 17  1  6
 20 21  2  0
 20 18  1  0
 22 23  2  0
 23 13  1  0
 24 20  1  0
 25 24  1  0
 25 31  1  0
 25 26  1  6
 27 26  1  0
 28 27  1  0
 28 29  1  0
 29 30  1  0
 31 33  1  0
 32 31  2  0
M  END
$$$$
