FYK.pdb
     RDKit          3D

 33 34  0  0  1  0  0  0  0  0999 V2000
   26.6126  -24.6605  -16.0251 N   0  0  0  0  0  0  0  0  0  0  0  0
   25.8185  -23.5293  -16.5346 C   0  0  1  0  0  0  0  0  0  0  0  0
   25.1400  -24.0465  -17.7779 C   0  0  0  0  0  0  0  0  0  0  0  0
   25.9593  -24.0621  -18.9787 C   0  0  0  0  0  0  0  0  0  0  0  0
   26.5091  -25.2430  -19.4232 C   0  0  0  0  0  0  0  0  0  0  0  0
   27.2928  -25.2957  -20.5680 C   0  0  0  0  0  0  0  0  0  0  0  0
   27.5350  -24.1478  -21.2867 C   0  0  0  0  0  0  0  0  0  0  0  0
   26.9878  -22.9672  -20.8458 C   0  0  0  0  0  0  0  0  0  0  0  0
   26.2044  -22.9272  -19.6975 C   0  0  0  0  0  0  0  0  0  0  0  0
   24.8009  -23.1992  -15.5105 C   0  0  0  0  0  0  0  0  0  0  0  0
   24.3047  -24.0943  -14.7691 O   0  0  0  0  0  0  0  0  0  0  0  0
   20.0974  -18.7182   -9.5096 O   0  0  0  0  0  0  0  0  0  0  0  0
   20.9752  -19.0768  -10.5440 C   0  0  0  0  0  0  0  0  0  0  0  0
   20.6646  -18.7686  -11.8377 C   0  0  0  0  0  0  0  0  0  0  0  0
   21.5100  -19.1065  -12.9030 C   0  0  0  0  0  0  0  0  0  0  0  0
   22.6837  -19.7664  -12.6338 C   0  0  0  0  0  0  0  0  0  0  0  0
   23.5983  -20.1366  -13.7268 C   0  0  0  0  0  0  0  0  0  0  0  0
   23.3894  -21.5337  -14.2337 C   0  0  2  0  0  0  0  0  0  0  0  0
   24.3246  -21.8540  -15.3037 N   0  0  0  0  0  0  0  0  0  0  0  0
   22.0026  -21.8631  -14.5947 C   0  0  0  0  0  0  0  0  0  0  0  0
   21.5605  -21.6083  -15.7684 O   0  0  0  0  0  0  0  0  0  0  0  0
   22.9952  -20.0751  -11.3393 C   0  0  0  0  0  0  0  0  0  0  0  0
   22.1671  -19.7462  -10.2777 C   0  0  0  0  0  0  0  0  0  0  0  0
   21.0757  -22.4648  -13.7210 N   0  0  0  0  0  0  0  0  0  0  0  0
   19.7101  -22.7624  -14.0697 C   0  0  1  0  0  0  0  0  0  0  0  0
   19.3349  -24.0870  -13.4424 C   0  0  0  0  0  0  0  0  0  0  0  0
   17.9579  -24.5496  -13.8089 C   0  0  0  0  0  0  0  0  0  0  0  0
   17.7722  -25.9298  -13.2141 C   0  0  0  0  0  0  0  0  0  0  0  0
   16.4012  -26.4911  -13.5169 C   0  0  0  0  0  0  0  0  0  0  0  0
   16.2485  -27.7227  -12.7548 N   0  0  0  0  0  0  0  0  0  0  0  0
   18.7572  -21.6951  -13.7717 C   0  0  0  0  0  0  0  0  0  0  0  0
   18.9340  -20.9379  -12.7813 O   0  0  0  0  0  0  0  0  0  0  0  0
   17.6213  -21.4348  -14.5242 O   0  0  0  0  0  0  0  0  0  0  0  0
  2  1  1  1
  2  3  1  0
  4  3  1  0
  5  4  2  0
  6  5  1  0
  7  6  2  0
  7  8  1  0
  8  9  2  0
  9  4  1  0
 10 19  1  0
 10  2  1  0
 11 10  2  0
 13 12  1  0
 14 13  2  0
 15 14  1  0
 16 22  1  0
 16 15  2  0
 17 16  1  0
 18 19  1  0
 18 17  1  6
 20 21  2  0
 20 18  1  0
 22 23  2  0
 23 13  1  0
 24 20  1  0
 25 24  1  0
 25 31  1  0
 25 26  1  1
 27 26  1  0
 28 27  1  0
 28 29  1  0
 29 30  1  0
 31 33  1  0
 32 31  2  0
M  END
$$$$
