FYK.pdb
     RDKit          3D

 33 34  0  0  1  0  0  0  0  0999 V2000
   16.1010  -15.1370    6.4292 N   0  0  0  0  0  0  0  0  0  0  0  0
   17.2806  -15.7289    5.7751 C   0  0  1  0  0  0  0  0  0  0  0  0
   18.4672  -15.2094    6.5471 C   0  0  0  0  0  0  0  0  0  0  0  0
   18.9771  -13.9174    6.1182 C   0  0  0  0  0  0  0  0  0  0  0  0
   20.1005  -13.3878    6.7114 C   0  0  0  0  0  0  0  0  0  0  0  0
   20.6177  -12.1589    6.3241 C   0  0  0  0  0  0  0  0  0  0  0  0
   20.0034  -11.4409    5.3242 C   0  0  0  0  0  0  0  0  0  0  0  0
   18.8817  -11.9665    4.7299 C   0  0  0  0  0  0  0  0  0  0  0  0
   18.3732  -13.1985    5.1266 C   0  0  0  0  0  0  0  0  0  0  0  0
   17.1882  -17.1988    5.9301 C   0  0  0  0  0  0  0  0  0  0  0  0
   16.7279  -17.7175    6.9866 O   0  0  0  0  0  0  0  0  0  0  0  0
   17.2634  -25.8996    4.2517 O   0  0  0  0  0  0  0  0  0  0  0  0
   17.3881  -24.5064    4.1408 C   0  0  0  0  0  0  0  0  0  0  0  0
   18.6266  -23.9310    4.1502 C   0  0  0  0  0  0  0  0  0  0  0  0
   18.8000  -22.5446    4.0422 C   0  0  0  0  0  0  0  0  0  0  0  0
   17.6899  -21.7453    3.9236 C   0  0  0  0  0  0  0  0  0  0  0  0
   17.8323  -20.2844    3.8063 C   0  0  0  0  0  0  0  0  0  0  0  0
   17.5733  -19.5535    5.0913 C   0  0  2  0  0  0  0  0  0  0  0  0
   17.6130  -18.1103    4.8967 N   0  0  0  0  0  0  0  0  0  0  0  0
   18.4027  -19.9810    6.2277 C   0  0  0  0  0  0  0  0  0  0  0  0
   19.5331  -19.4241    6.4507 O   0  0  0  0  0  0  0  0  0  0  0  0
   16.4501  -22.3204    3.9140 C   0  0  0  0  0  0  0  0  0  0  0  0
   16.2662  -23.6901    4.0202 C   0  0  0  0  0  0  0  0  0  0  0  0
   18.0435  -20.9962    7.1359 N   0  0  0  0  0  0  0  0  0  0  0  0
   18.8916  -21.4663    8.2011 C   0  0  1  0  0  0  0  0  0  0  0  0
   18.2344  -21.1256    9.5205 C   0  0  0  0  0  0  0  0  0  0  0  0
   18.9261  -21.7314   10.7033 C   0  0  0  0  0  0  0  0  0  0  0  0
   19.6356  -20.6107   11.4341 C   0  0  0  0  0  0  0  0  0  0  0  0
   20.4264  -21.1244   12.6161 C   0  0  0  0  0  0  0  0  0  0  0  0
   21.1724  -20.0035   13.1709 N   0  0  0  0  0  0  0  0  0  0  0  0
   19.2789  -22.8718    8.0983 C   0  0  0  0  0  0  0  0  0  0  0  0
   18.4645  -23.7298    7.6670 O   0  0  0  0  0  0  0  0  0  0  0  0
   20.5273  -23.3619    8.4528 O   0  0  0  0  0  0  0  0  0  0  0  0
  2  1  1  1
  2  3  1  0
  4  3  1  0
  5  4  2  0
  6  5  1  0
  7  6  2  0
  7  8  1  0
  8  9  2  0
  9  4  1  0
 10 19  1  0
 10  2  1  0
 11 10  2  0
 13 12  1  0
 14 13  2  0
 15 14  1  0
 16 22  1  0
 16 15  2  0
 17 16  1  0
 18 19  1  0
 18 17  1  6
 20 21  2  0
 20 18  1  0
 22 23  2  0
 23 13  1  0
 24 20  1  0
 25 24  1  0
 25 31  1  0
 25 26  1  1
 27 26  1  0
 28 27  1  0
 28 29  1  0
 29 30  1  0
 31 33  1  0
 32 31  2  0
M  END
$$$$
