FYK.pdb
     RDKit          3D

 33 34  0  0  1  0  0  0  0  0999 V2000
   27.1609  -20.1510  -19.5019 N   0  0  0  0  0  0  0  0  0  0  0  0
   26.6031  -19.1460  -18.5807 C   0  0  1  0  0  0  0  0  0  0  0  0
   25.3407  -18.6550  -19.2432 C   0  0  0  0  0  0  0  0  0  0  0  0
   25.5334  -17.8019  -20.4045 C   0  0  0  0  0  0  0  0  0  0  0  0
   25.9273  -16.4933  -20.2413 C   0  0  0  0  0  0  0  0  0  0  0  0
   26.1250  -15.6516  -21.3276 C   0  0  0  0  0  0  0  0  0  0  0  0
   25.9262  -16.1224  -22.6049 C   0  0  0  0  0  0  0  0  0  0  0  0
   25.5328  -17.4282  -22.7716 C   0  0  0  0  0  0  0  0  0  0  0  0
   25.3381  -18.2616  -21.6755 C   0  0  0  0  0  0  0  0  0  0  0  0
   26.2669  -19.8367  -17.3146 C   0  0  0  0  0  0  0  0  0  0  0  0
   25.7576  -20.9933  -17.3157 O   0  0  0  0  0  0  0  0  0  0  0  0
   25.2519  -21.7160   -8.7065 O   0  0  0  0  0  0  0  0  0  0  0  0
   25.6328  -21.1200   -9.9184 C   0  0  0  0  0  0  0  0  0  0  0  0
   26.5604  -21.7291  -10.7144 C   0  0  0  0  0  0  0  0  0  0  0  0
   26.9715  -21.1716  -11.9325 C   0  0  0  0  0  0  0  0  0  0  0  0
   26.4232  -19.9783  -12.3336 C   0  0  0  0  0  0  0  0  0  0  0  0
   26.8291  -19.3625  -13.6081 C   0  0  0  0  0  0  0  0  0  0  0  0
   26.0733  -19.8883  -14.7934 C   0  0  2  0  0  0  0  0  0  0  0  0
   26.4990  -19.2360  -16.0245 N   0  0  0  0  0  0  0  0  0  0  0  0
   24.6103  -19.8907  -14.6466 C   0  0  0  0  0  0  0  0  0  0  0  0
   23.9343  -18.8282  -14.8748 O   0  0  0  0  0  0  0  0  0  0  0  0
   25.4948  -19.3682  -11.5376 C   0  0  0  0  0  0  0  0  0  0  0  0
   25.0805  -19.9099  -10.3310 C   0  0  0  0  0  0  0  0  0  0  0  0
   23.8524  -21.0138  -14.2608 N   0  0  0  0  0  0  0  0  0  0  0  0
   22.4279  -20.9945  -14.0482 C   0  0  1  0  0  0  0  0  0  0  0  0
   21.8566  -22.3130  -14.5215 C   0  0  0  0  0  0  0  0  0  0  0  0
   20.3649  -22.3906  -14.4054 C   0  0  0  0  0  0  0  0  0  0  0  0
   19.9505  -23.7821  -14.8361 C   0  0  0  0  0  0  0  0  0  0  0  0
   18.4464  -23.9311  -14.8790 C   0  0  0  0  0  0  0  0  0  0  0  0
   18.1478  -25.2793  -15.3417 N   0  0  0  0  0  0  0  0  0  0  0  0
   22.0178  -20.6454  -12.6895 C   0  0  0  0  0  0  0  0  0  0  0  0
   21.0996  -19.8062  -12.4942 O   0  0  0  0  0  0  0  0  0  0  0  0
   22.5822  -21.1869  -11.5439 O   0  0  0  0  0  0  0  0  0  0  0  0
  2  1  1  6
  2  3  1  0
  4  3  1  0
  5  4  2  0
  6  5  1  0
  7  6  2  0
  7  8  1  0
  8  9  2  0
  9  4  1  0
 10 19  1  0
 10  2  1  0
 11 10  2  0
 13 12  1  0
 14 13  2  0
 15 14  1  0
 16 22  1  0
 16 15  2  0
 17 16  1  0
 18 19  1  0
 18 17  1  1
 20 21  2  0
 20 18  1  0
 22 23  2  0
 23 13  1  0
 24 20  1  0
 25 24  1  0
 25 31  1  0
 25 26  1  1
 27 26  1  0
 28 27  1  0
 28 29  1  0
 29 30  1  0
 31 33  1  0
 32 31  2  0
M  END
$$$$
