FYK.pdb
     RDKit          3D

 33 34  0  0  1  0  0  0  0  0999 V2000
   23.6561   -7.2431  -15.5516 N   0  0  0  0  0  0  0  0  0  0  0  0
   23.7469   -8.5350  -16.2535 C   0  0  1  0  0  0  0  0  0  0  0  0
   24.1843   -9.5278  -15.2062 C   0  0  0  0  0  0  0  0  0  0  0  0
   25.4735  -10.1579  -15.4397 C   0  0  0  0  0  0  0  0  0  0  0  0
   26.5098   -9.4295  -15.9778 C   0  0  0  0  0  0  0  0  0  0  0  0
   27.7553   -9.9974  -16.2101 C   0  0  0  0  0  0  0  0  0  0  0  0
   27.9745  -11.3198  -15.9001 C   0  0  0  0  0  0  0  0  0  0  0  0
   26.9421  -12.0500  -15.3628 C   0  0  0  0  0  0  0  0  0  0  0  0
   25.6991  -11.4697  -15.1347 C   0  0  0  0  0  0  0  0  0  0  0  0
   22.3891   -8.8804  -16.7332 C   0  0  0  0  0  0  0  0  0  0  0  0
   21.3818   -8.7754  -15.9772 O   0  0  0  0  0  0  0  0  0  0  0  0
   15.1924  -10.3390  -21.5322 O   0  0  0  0  0  0  0  0  0  0  0  0
   16.4685   -9.9866  -21.0669 C   0  0  0  0  0  0  0  0  0  0  0  0
   16.6164   -8.9183  -20.2292 C   0  0  0  0  0  0  0  0  0  0  0  0
   17.8703   -8.5293  -19.7393 C   0  0  0  0  0  0  0  0  0  0  0  0
   18.9797   -9.2458  -20.1150 C   0  0  0  0  0  0  0  0  0  0  0  0
   20.3140   -8.8682  -19.6195 C   0  0  0  0  0  0  0  0  0  0  0  0
   20.8097   -9.7470  -18.5084 C   0  0  2  0  0  0  0  0  0  0  0  0
   22.1424   -9.3501  -18.0740 N   0  0  0  0  0  0  0  0  0  0  0  0
   20.7213  -11.1910  -18.7713 C   0  0  0  0  0  0  0  0  0  0  0  0
   21.6538  -11.7918  -19.4096 O   0  0  0  0  0  0  0  0  0  0  0  0
   18.8325  -10.3152  -20.9533 C   0  0  0  0  0  0  0  0  0  0  0  0
   17.5977  -10.7092  -21.4441 C   0  0  0  0  0  0  0  0  0  0  0  0
   19.6505  -12.0091  -18.3608 N   0  0  0  0  0  0  0  0  0  0  0  0
   19.5804  -13.4286  -18.5954 C   0  0  1  0  0  0  0  0  0  0  0  0
   19.5406  -14.1324  -17.2568 C   0  0  0  0  0  0  0  0  0  0  0  0
   19.5772  -15.6259  -17.3689 C   0  0  0  0  0  0  0  0  0  0  0  0
   19.6078  -16.1837  -15.9613 C   0  0  0  0  0  0  0  0  0  0  0  0
   19.7433  -17.6896  -15.9576 C   0  0  0  0  0  0  0  0  0  0  0  0
   19.8001  -18.1259  -14.5694 N   0  0  0  0  0  0  0  0  0  0  0  0
   18.5082  -13.8466  -19.4963 C   0  0  0  0  0  0  0  0  0  0  0  0
   17.3509  -14.0694  -19.0532 O   0  0  0  0  0  0  0  0  0  0  0  0
   18.6669  -14.0265  -20.8626 O   0  0  0  0  0  0  0  0  0  0  0  0
  2  1  1  1
  2  3  1  0
  4  3  1  0
  5  4  2  0
  6  5  1  0
  7  6  2  0
  7  8  1  0
  8  9  2  0
  9  4  1  0
 10 19  1  0
 10  2  1  0
 11 10  2  0
 13 12  1  0
 14 13  2  0
 15 14  1  0
 16 22  1  0
 16 15  2  0
 17 16  1  0
 18 19  1  0
 18 17  1  6
 20 21  2  0
 20 18  1  0
 22 23  2  0
 23 13  1  0
 24 20  1  0
 25 24  1  0
 25 31  1  0
 25 26  1  1
 27 26  1  0
 28 27  1  0
 28 29  1  0
 29 30  1  0
 31 33  1  0
 32 31  2  0
M  END
$$$$
