FYK.pdb
     RDKit          3D

 33 34  0  0  1  0  0  0  0  0999 V2000
   33.5794  -27.1640  -19.0544 N   0  0  0  0  0  0  0  0  0  0  0  0
   32.1740  -27.2882  -19.4777 C   0  0  1  0  0  0  0  0  0  0  0  0
   32.2256  -27.5302  -20.9652 C   0  0  0  0  0  0  0  0  0  0  0  0
   32.5694  -26.3740  -21.7767 C   0  0  0  0  0  0  0  0  0  0  0  0
   31.8612  -25.2016  -21.6418 C   0  0  0  0  0  0  0  0  0  0  0  0
   32.1647  -24.0767  -22.3970 C   0  0  0  0  0  0  0  0  0  0  0  0
   33.1959  -24.1194  -23.3068 C   0  0  0  0  0  0  0  0  0  0  0  0
   33.9049  -25.2882  -23.4441 C   0  0  0  0  0  0  0  0  0  0  0  0
   33.5913  -26.4082  -22.6819 C   0  0  0  0  0  0  0  0  0  0  0  0
   31.6046  -28.4743  -18.7980 C   0  0  0  0  0  0  0  0  0  0  0  0
   32.3382  -29.4414  -18.4459 O   0  0  0  0  0  0  0  0  0  0  0  0
   26.3218  -33.7202  -14.0373 O   0  0  0  0  0  0  0  0  0  0  0  0
   26.8602  -32.6379  -14.7499 C   0  0  0  0  0  0  0  0  0  0  0  0
   28.0622  -32.1078  -14.3769 C   0  0  0  0  0  0  0  0  0  0  0  0
   28.6386  -31.0274  -15.0582 C   0  0  0  0  0  0  0  0  0  0  0  0
   27.9722  -30.4893  -16.1314 C   0  0  0  0  0  0  0  0  0  0  0  0
   28.5471  -29.3546  -16.8731 C   0  0  0  0  0  0  0  0  0  0  0  0
   29.6622  -29.7481  -17.7974 C   0  0  2  0  0  0  0  0  0  0  0  0
   30.1981  -28.5915  -18.5027 N   0  0  0  0  0  0  0  0  0  0  0  0
   29.3501  -30.8569  -18.7113 C   0  0  0  0  0  0  0  0  0  0  0  0
   28.8308  -30.6251  -19.8579 O   0  0  0  0  0  0  0  0  0  0  0  0
   26.7693  -31.0194  -16.5054 C   0  0  0  0  0  0  0  0  0  0  0  0
   26.1894  -32.0876  -15.8393 C   0  0  0  0  0  0  0  0  0  0  0  0
   29.5858  -32.2152  -18.4219 N   0  0  0  0  0  0  0  0  0  0  0  0
   29.3637  -33.2915  -19.3532 C   0  0  1  0  0  0  0  0  0  0  0  0
   30.3281  -34.4108  -19.0282 C   0  0  0  0  0  0  0  0  0  0  0  0
   31.7430  -34.1082  -19.4170 C   0  0  0  0  0  0  0  0  0  0  0  0
   32.6010  -35.2559  -18.9270 C   0  0  0  0  0  0  0  0  0  0  0  0
   34.0524  -35.0746  -19.3106 C   0  0  0  0  0  0  0  0  0  0  0  0
   34.8305  -36.0663  -18.5814 N   0  0  0  0  0  0  0  0  0  0  0  0
   27.9757  -33.7390  -19.4496 C   0  0  0  0  0  0  0  0  0  0  0  0
   27.3981  -33.7958  -20.5670 O   0  0  0  0  0  0  0  0  0  0  0  0
   27.2059  -34.1243  -18.3618 O   0  0  0  0  0  0  0  0  0  0  0  0
  2  1  1  1
  2  3  1  0
  4  3  1  0
  5  4  2  0
  6  5  1  0
  7  6  2  0
  7  8  1  0
  8  9  2  0
  9  4  1  0
 10 19  1  0
 10  2  1  0
 11 10  2  0
 13 12  1  0
 14 13  2  0
 15 14  1  0
 16 22  1  0
 16 15  2  0
 17 16  1  0
 18 19  1  0
 18 17  1  6
 20 21  2  0
 20 18  1  0
 22 23  2  0
 23 13  1  0
 24 20  1  0
 25 24  1  0
 25 31  1  0
 25 26  1  1
 27 26  1  0
 28 27  1  0
 28 29  1  0
 29 30  1  0
 31 33  1  0
 32 31  2  0
M  END
$$$$
