FYK.pdb
     RDKit          3D

 33 34  0  0  1  0  0  0  0  0999 V2000
   28.3468  -21.6437  -16.9328 N   0  0  0  0  0  0  0  0  0  0  0  0
   27.9150  -20.4576  -16.1735 C   0  0  1  0  0  0  0  0  0  0  0  0
   27.1791  -19.5944  -17.1671 C   0  0  0  0  0  0  0  0  0  0  0  0
   28.0159  -18.8805  -18.1178 C   0  0  0  0  0  0  0  0  0  0  0  0
   28.0729  -19.2908  -19.4303 C   0  0  0  0  0  0  0  0  0  0  0  0
   28.8575  -18.6302  -20.3661 C   0  0  0  0  0  0  0  0  0  0  0  0
   29.6022  -17.5371  -19.9874 C   0  0  0  0  0  0  0  0  0  0  0  0
   29.5477  -17.1249  -18.6779 C   0  0  0  0  0  0  0  0  0  0  0  0
   28.7579  -17.7947  -17.7499 C   0  0  0  0  0  0  0  0  0  0  0  0
   26.9798  -20.9158  -15.1206 C   0  0  0  0  0  0  0  0  0  0  0  0
   26.1749  -21.8675  -15.3296 O   0  0  0  0  0  0  0  0  0  0  0  0
   22.3645  -21.3322   -7.5410 O   0  0  0  0  0  0  0  0  0  0  0  0
   23.3444  -21.0577   -8.5072 C   0  0  0  0  0  0  0  0  0  0  0  0
   23.1182  -20.0986   -9.4526 C   0  0  0  0  0  0  0  0  0  0  0  0
   24.0671  -19.7903  -10.4367 C   0  0  0  0  0  0  0  0  0  0  0  0
   25.2573  -20.4748  -10.4469 C   0  0  0  0  0  0  0  0  0  0  0  0
   26.2794  -20.1776  -11.4645 C   0  0  0  0  0  0  0  0  0  0  0  0
   25.9303  -20.6922  -12.8304 C   0  0  2  0  0  0  0  0  0  0  0  0
   26.9354  -20.3095  -13.8131 N   0  0  0  0  0  0  0  0  0  0  0  0
   24.5670  -20.3782  -13.2833 C   0  0  0  0  0  0  0  0  0  0  0  0
   24.3324  -19.3023  -13.9354 O   0  0  0  0  0  0  0  0  0  0  0  0
   25.4845  -21.4348   -9.5010 C   0  0  0  0  0  0  0  0  0  0  0  0
   24.5538  -21.7483   -8.5230 C   0  0  0  0  0  0  0  0  0  0  0  0
   23.4448  -21.1979  -13.0527 N   0  0  0  0  0  0  0  0  0  0  0  0
   22.1786  -21.0434  -13.7218 C   0  0  1  0  0  0  0  0  0  0  0  0
   22.4120  -21.1386  -15.2135 C   0  0  0  0  0  0  0  0  0  0  0  0
   21.1459  -21.1432  -16.0144 C   0  0  0  0  0  0  0  0  0  0  0  0
   20.6066  -19.7280  -16.0143 C   0  0  0  0  0  0  0  0  0  0  0  0
   19.3334  -19.6131  -16.8218 C   0  0  0  0  0  0  0  0  0  0  0  0
   18.8225  -18.2598  -16.6531 N   0  0  0  0  0  0  0  0  0  0  0  0
   21.1239  -21.9370  -13.2472 C   0  0  0  0  0  0  0  0  0  0  0  0
   20.1246  -21.4780  -12.6339 O   0  0  0  0  0  0  0  0  0  0  0  0
   21.1328  -23.3128  -13.4244 O   0  0  0  0  0  0  0  0  0  0  0  0
  2  1  1  6
  2  3  1  0
  4  3  1  0
  5  4  2  0
  6  5  1  0
  7  6  2  0
  7  8  1  0
  8  9  2  0
  9  4  1  0
 10 19  1  0
 10  2  1  0
 11 10  2  0
 13 12  1  0
 14 13  2  0
 15 14  1  0
 16 22  1  0
 16 15  2  0
 17 16  1  0
 18 19  1  0
 18 17  1  1
 20 21  2  0
 20 18  1  0
 22 23  2  0
 23 13  1  0
 24 20  1  0
 25 24  1  0
 25 31  1  0
 25 26  1  6
 27 26  1  0
 28 27  1  0
 28 29  1  0
 29 30  1  0
 31 33  1  0
 32 31  2  0
M  END
$$$$
