FYK.pdb
     RDKit          3D

 33 34  0  0  1  0  0  0  0  0999 V2000
   29.3297  -22.2244  -10.3251 N   0  0  0  0  0  0  0  0  0  0  0  0
   28.6114  -21.7047   -9.1488 C   0  0  1  0  0  0  0  0  0  0  0  0
   29.5055  -20.6336   -8.5769 C   0  0  0  0  0  0  0  0  0  0  0  0
   29.1511  -20.1655   -7.2469 C   0  0  0  0  0  0  0  0  0  0  0  0
   28.3662  -19.0450   -7.0965 C   0  0  0  0  0  0  0  0  0  0  0  0
   28.0047  -18.5723   -5.8421 C   0  0  0  0  0  0  0  0  0  0  0  0
   28.4339  -19.2292   -4.7120 C   0  0  0  0  0  0  0  0  0  0  0  0
   29.2176  -20.3481   -4.8584 C   0  0  0  0  0  0  0  0  0  0  0  0
   29.5729  -20.8118   -6.1203 C   0  0  0  0  0  0  0  0  0  0  0  0
   27.3480  -21.0981   -9.6274 C   0  0  0  0  0  0  0  0  0  0  0  0
   27.1566  -20.8686  -10.8553 O   0  0  0  0  0  0  0  0  0  0  0  0
   18.4765  -21.1416   -9.2331 O   0  0  0  0  0  0  0  0  0  0  0  0
   19.8355  -20.9850   -8.9204 C   0  0  0  0  0  0  0  0  0  0  0  0
   20.5466  -19.9573   -9.4710 C   0  0  0  0  0  0  0  0  0  0  0  0
   21.9050  -19.7616   -9.1882 C   0  0  0  0  0  0  0  0  0  0  0  0
   22.5354  -20.6306   -8.3321 C   0  0  0  0  0  0  0  0  0  0  0  0
   23.9616  -20.4561   -8.0097 C   0  0  0  0  0  0  0  0  0  0  0  0
   24.8806  -20.8647   -9.1237 C   0  0  2  0  0  0  0  0  0  0  0  0
   26.2776  -20.7396   -8.7302 N   0  0  0  0  0  0  0  0  0  0  0  0
   24.6115  -20.2224  -10.4187 C   0  0  0  0  0  0  0  0  0  0  0  0
   25.0211  -19.0320  -10.6493 O   0  0  0  0  0  0  0  0  0  0  0  0
   21.8244  -21.6593   -7.7806 C   0  0  0  0  0  0  0  0  0  0  0  0
   20.4808  -21.8629   -8.0529 C   0  0  0  0  0  0  0  0  0  0  0  0
   23.9111  -20.8325  -11.4778 N   0  0  0  0  0  0  0  0  0  0  0  0
   23.6192  -20.1879  -12.7325 C   0  0  1  0  0  0  0  0  0  0  0  0
   24.4159  -20.8756  -13.8193 C   0  0  0  0  0  0  0  0  0  0  0  0
   24.2551  -20.2405  -15.1667 C   0  0  0  0  0  0  0  0  0  0  0  0
   25.1469  -20.9949  -16.1306 C   0  0  0  0  0  0  0  0  0  0  0  0
   25.0640  -20.4298  -17.5306 C   0  0  0  0  0  0  0  0  0  0  0  0
   25.9855  -21.1845  -18.3683 N   0  0  0  0  0  0  0  0  0  0  0  0
   22.1959  -20.0777  -13.0459 C   0  0  0  0  0  0  0  0  0  0  0  0
   21.7055  -18.9783  -13.4149 O   0  0  0  0  0  0  0  0  0  0  0  0
   21.2987  -21.1327  -12.9670 O   0  0  0  0  0  0  0  0  0  0  0  0
  2  1  1  6
  2  3  1  0
  4  3  1  0
  5  4  2  0
  6  5  1  0
  7  6  2  0
  7  8  1  0
  8  9  2  0
  9  4  1  0
 10 19  1  0
 10  2  1  0
 11 10  2  0
 13 12  1  0
 14 13  2  0
 15 14  1  0
 16 22  1  0
 16 15  2  0
 17 16  1  0
 18 19  1  0
 18 17  1  1
 20 21  2  0
 20 18  1  0
 22 23  2  0
 23 13  1  0
 24 20  1  0
 25 24  1  0
 25 31  1  0
 25 26  1  6
 27 26  1  0
 28 27  1  0
 28 29  1  0
 29 30  1  0
 31 33  1  0
 32 31  2  0
M  END
$$$$
