IFK.pdb
     RDKit          3D

 29 29  0  0  1  0  0  0  0  0999 V2000
   27.1433  -22.9864  -20.9349 C   0  0  0  0  0  0  0  0  0  0  0  0
   28.2337  -22.9464  -19.8885 C   0  0  0  0  0  0  0  0  0  0  0  0
   27.7025  -23.2074  -18.5085 C   0  0  2  0  0  0  0  0  0  0  0  0
   26.9363  -24.5112  -18.5340 C   0  0  0  0  0  0  0  0  0  0  0  0
   26.7946  -22.0837  -18.0309 C   0  0  2  0  0  0  0  0  0  0  0  0
   27.5147  -20.8300  -18.0872 N   0  0  0  0  0  0  0  0  0  0  0  0
   26.3396  -22.3123  -16.6534 C   0  0  0  0  0  0  0  0  0  0  0  0
   25.7793  -23.3850  -16.3336 O   0  0  0  0  0  0  0  0  0  0  0  0
   26.5007  -21.3500  -15.6071 N   0  0  0  0  0  0  0  0  0  0  0  0
   25.8152  -21.5098  -14.3362 C   0  0  1  0  0  0  0  0  0  0  0  0
   26.5649  -20.6118  -13.3463 C   0  0  0  0  0  0  0  0  0  0  0  0
   25.9763  -20.6801  -12.0042 C   0  0  0  0  0  0  0  0  0  0  0  0
   26.3118  -21.6770  -11.1125 C   0  0  0  0  0  0  0  0  0  0  0  0
   25.7475  -21.7220   -9.8592 C   0  0  0  0  0  0  0  0  0  0  0  0
   24.8301  -20.7908   -9.4279 C   0  0  0  0  0  0  0  0  0  0  0  0
   24.4814  -19.7859  -10.3046 C   0  0  0  0  0  0  0  0  0  0  0  0
   25.0432  -19.7369  -11.5590 C   0  0  0  0  0  0  0  0  0  0  0  0
   24.4014  -21.1150  -14.4195 C   0  0  0  0  0  0  0  0  0  0  0  0
   23.9975  -20.0456  -14.9472 O   0  0  0  0  0  0  0  0  0  0  0  0
   23.4126  -21.9742  -13.8799 N   0  0  0  0  0  0  0  0  0  0  0  0
   21.9861  -21.6665  -13.9011 C   0  0  1  0  0  0  0  0  0  0  0  0
   21.1531  -22.8533  -13.6078 C   0  0  0  0  0  0  0  0  0  0  0  0
   19.6837  -22.5482  -13.6500 C   0  0  0  0  0  0  0  0  0  0  0  0
   18.8179  -23.7592  -13.4080 C   0  0  0  0  0  0  0  0  0  0  0  0
   17.3688  -23.4862  -13.6553 C   0  0  0  0  0  0  0  0  0  0  0  0
   16.5833  -24.6652  -13.3447 N   0  0  0  0  0  0  0  0  0  0  0  0
   21.7457  -20.5993  -12.9129 C   0  0  0  0  0  0  0  0  0  0  0  0
   22.3150  -20.5482  -11.6430 O   0  0  0  0  0  0  0  0  0  0  0  0
   20.9587  -19.6501  -13.2340 O   0  0  0  0  0  0  0  0  0  0  0  0
  2  1  1  0
  3  2  1  0
  3  4  1  6
  5  3  1  0
  5  6  1  1
  7  8  2  0
  7  5  1  0
  9  7  1  0
 10  9  1  0
 10 11  1  1
 12 17  2  0
 12 11  1  0
 13 12  1  0
 14 15  1  0
 14 13  2  0
 15 16  2  0
 16 17  1  0
 18 20  1  0
 18 10  1  0
 19 18  2  0
 21 20  1  0
 21 27  1  0
 21 22  1  1
 22 23  1  0
 24 23  1  0
 25 26  1  0
 25 24  1  0
 27 28  1  0
 29 27  2  0
M  END
$$$$
