IFK.pdb
     RDKit          3D

 29 29  0  0  1  0  0  0  0  0999 V2000
   28.7183  -17.2472  -17.3921 C   0  0  0  0  0  0  0  0  0  0  0  0
   28.7939  -17.6105  -15.9265 C   0  0  0  0  0  0  0  0  0  0  0  0
   27.5985  -18.4007  -15.4779 C   0  0  2  0  0  0  0  0  0  0  0  0
   26.9732  -17.6875  -14.2999 C   0  0  0  0  0  0  0  0  0  0  0  0
   27.9763  -19.8202  -15.0814 C   0  0  2  0  0  0  0  0  0  0  0  0
   28.5603  -20.4958  -16.2199 N   0  0  0  0  0  0  0  0  0  0  0  0
   26.8041  -20.5784  -14.6252 C   0  0  0  0  0  0  0  0  0  0  0  0
   25.9369  -20.9682  -15.4394 O   0  0  0  0  0  0  0  0  0  0  0  0
   26.5768  -20.9159  -13.2537 N   0  0  0  0  0  0  0  0  0  0  0  0
   25.3641  -21.6052  -12.8475 C   0  0  1  0  0  0  0  0  0  0  0  0
   25.7108  -22.3116  -11.5325 C   0  0  0  0  0  0  0  0  0  0  0  0
   25.9866  -21.3491  -10.4601 C   0  0  0  0  0  0  0  0  0  0  0  0
   27.2734  -20.9936  -10.1147 C   0  0  0  0  0  0  0  0  0  0  0  0
   27.5090  -20.0894   -9.1058 C   0  0  0  0  0  0  0  0  0  0  0  0
   26.4920  -19.4956   -8.3931 C   0  0  0  0  0  0  0  0  0  0  0  0
   25.1981  -19.8377   -8.7231 C   0  0  0  0  0  0  0  0  0  0  0  0
   24.9577  -20.7416   -9.7315 C   0  0  0  0  0  0  0  0  0  0  0  0
   24.2417  -20.6759  -12.6516 C   0  0  0  0  0  0  0  0  0  0  0  0
   24.3520  -19.5376  -12.1250 O   0  0  0  0  0  0  0  0  0  0  0  0
   22.9454  -21.0619  -13.0730 N   0  0  0  0  0  0  0  0  0  0  0  0
   21.7885  -20.1737  -13.0204 C   0  0  1  0  0  0  0  0  0  0  0  0
   21.6050  -19.4183  -14.2789 C   0  0  0  0  0  0  0  0  0  0  0  0
   20.1697  -19.3721  -14.7171 C   0  0  0  0  0  0  0  0  0  0  0  0
   20.0081  -19.2017  -16.2069 C   0  0  0  0  0  0  0  0  0  0  0  0
   18.5752  -19.0874  -16.6184 C   0  0  0  0  0  0  0  0  0  0  0  0
   18.4838  -18.9510  -18.0594 N   0  0  0  0  0  0  0  0  0  0  0  0
   20.6043  -21.0014  -12.7277 C   0  0  0  0  0  0  0  0  0  0  0  0
   19.4304  -20.5320  -12.1436 O   0  0  0  0  0  0  0  0  0  0  0  0
   20.6488  -22.2395  -13.0253 O   0  0  0  0  0  0  0  0  0  0  0  0
  2  1  1  0
  3  2  1  0
  3  4  1  1
  5  3  1  0
  5  6  1  6
  7  8  2  0
  7  5  1  0
  9  7  1  0
 10  9  1  0
 10 11  1  1
 12 17  2  0
 12 11  1  0
 13 12  1  0
 14 15  1  0
 14 13  2  0
 15 16  2  0
 16 17  1  0
 18 20  1  0
 18 10  1  0
 19 18  2  0
 21 20  1  0
 21 27  1  0
 21 22  1  6
 22 23  1  0
 24 23  1  0
 25 26  1  0
 25 24  1  0
 27 28  1  0
 29 27  2  0
M  END
$$$$
