IFK.pdb
     RDKit          3D

 29 29  0  0  1  0  0  0  0  0999 V2000
   18.7327  -20.8848  -15.7348 C   0  0  0  0  0  0  0  0  0  0  0  0
   19.2023  -21.1800  -14.3284 C   0  0  0  0  0  0  0  0  0  0  0  0
   20.5895  -20.6636  -14.0759 C   0  0  2  0  0  0  0  0  0  0  0  0
   21.5143  -21.2617  -15.1124 C   0  0  0  0  0  0  0  0  0  0  0  0
   21.0790  -21.0191  -12.6798 C   0  0  2  0  0  0  0  0  0  0  0  0
   20.2191  -20.3950  -11.6977 N   0  0  0  0  0  0  0  0  0  0  0  0
   22.4589  -20.5646  -12.4647 C   0  0  0  0  0  0  0  0  0  0  0  0
   22.7496  -19.3486  -12.5259 O   0  0  0  0  0  0  0  0  0  0  0  0
   23.5399  -21.4565  -12.1776 N   0  0  0  0  0  0  0  0  0  0  0  0
   24.8961  -20.9583  -12.0250 C   0  0  1  0  0  0  0  0  0  0  0  0
   25.5245  -21.8041  -10.9123 C   0  0  0  0  0  0  0  0  0  0  0  0
   26.8632  -21.3196  -10.5577 C   0  0  0  0  0  0  0  0  0  0  0  0
   27.9766  -21.6487  -11.3017 C   0  0  0  0  0  0  0  0  0  0  0  0
   29.2223  -21.1836  -10.9510 C   0  0  0  0  0  0  0  0  0  0  0  0
   29.4282  -20.3759   -9.8555 C   0  0  0  0  0  0  0  0  0  0  0  0
   28.3277  -20.0355   -9.0986 C   0  0  0  0  0  0  0  0  0  0  0  0
   27.0799  -20.4984   -9.4455 C   0  0  0  0  0  0  0  0  0  0  0  0
   25.6723  -21.0843  -13.2673 C   0  0  0  0  0  0  0  0  0  0  0  0
   25.7154  -22.1286  -13.9692 O   0  0  0  0  0  0  0  0  0  0  0  0
   26.4270  -19.9759  -13.7242 N   0  0  0  0  0  0  0  0  0  0  0  0
   27.0112  -19.9005  -15.0595 C   0  0  1  0  0  0  0  0  0  0  0  0
   27.7017  -18.6139  -15.2965 C   0  0  0  0  0  0  0  0  0  0  0  0
   28.3518  -18.5515  -16.6484 C   0  0  0  0  0  0  0  0  0  0  0  0
   29.0040  -17.2218  -16.9336 C   0  0  0  0  0  0  0  0  0  0  0  0
   29.7537  -17.2171  -18.2273 C   0  0  0  0  0  0  0  0  0  0  0  0
   30.3747  -15.9229  -18.4344 N   0  0  0  0  0  0  0  0  0  0  0  0
   27.9458  -21.0316  -15.2015 C   0  0  0  0  0  0  0  0  0  0  0  0
   28.9663  -21.3378  -14.3046 O   0  0  0  0  0  0  0  0  0  0  0  0
   27.8203  -21.7900  -16.2176 O   0  0  0  0  0  0  0  0  0  0  0  0
  2  1  1  0
  3  2  1  0
  3  4  1  6
  5  3  1  0
  5  6  1  1
  7  8  2  0
  7  5  1  0
  9  7  1  0
 10  9  1  0
 10 11  1  1
 12 17  2  0
 12 11  1  0
 13 12  1  0
 14 15  1  0
 14 13  2  0
 15 16  2  0
 16 17  1  0
 18 20  1  0
 18 10  1  0
 19 18  2  0
 21 20  1  0
 21 27  1  0
 21 22  1  1
 22 23  1  0
 24 23  1  0
 25 26  1  0
 25 24  1  0
 27 28  1  0
 29 27  2  0
M  END
$$$$
