IFK.pdb
     RDKit          3D

 29 29  0  0  1  0  0  0  0  0999 V2000
   30.2045  -18.4110  -13.9350 C   0  0  0  0  0  0  0  0  0  0  0  0
   29.8940  -19.8411  -14.3146 C   0  0  0  0  0  0  0  0  0  0  0  0
   28.7432  -20.3976  -13.5268 C   0  0  2  0  0  0  0  0  0  0  0  0
   27.5304  -19.5308  -13.7819 C   0  0  0  0  0  0  0  0  0  0  0  0
   29.0458  -20.4373  -12.0363 C   0  0  2  0  0  0  0  0  0  0  0  0
   30.1088  -21.3872  -11.7888 N   0  0  0  0  0  0  0  0  0  0  0  0
   27.8626  -20.8311  -11.2603 C   0  0  0  0  0  0  0  0  0  0  0  0
   27.4510  -22.0131  -11.2756 O   0  0  0  0  0  0  0  0  0  0  0  0
   27.1167  -19.9152  -10.4533 N   0  0  0  0  0  0  0  0  0  0  0  0
   25.8460  -20.3040   -9.8662 C   0  0  1  0  0  0  0  0  0  0  0  0
   25.6317  -19.3576   -8.6802 C   0  0  0  0  0  0  0  0  0  0  0  0
   26.5305  -19.6780   -7.5658 C   0  0  0  0  0  0  0  0  0  0  0  0
   26.5331  -20.9204   -6.9673 C   0  0  0  0  0  0  0  0  0  0  0  0
   27.3841  -21.1991   -5.9236 C   0  0  0  0  0  0  0  0  0  0  0  0
   28.2685  -20.2706   -5.4230 C   0  0  0  0  0  0  0  0  0  0  0  0
   28.2813  -19.0224   -6.0077 C   0  0  0  0  0  0  0  0  0  0  0  0
   27.4320  -18.7392   -7.0517 C   0  0  0  0  0  0  0  0  0  0  0  0
   24.7374  -20.1864  -10.8248 C   0  0  0  0  0  0  0  0  0  0  0  0
   24.6296  -19.2577  -11.6681 O   0  0  0  0  0  0  0  0  0  0  0  0
   23.7142  -21.1663  -10.8194 N   0  0  0  0  0  0  0  0  0  0  0  0
   22.6550  -21.2238  -11.8217 C   0  0  1  0  0  0  0  0  0  0  0  0
   22.3512  -22.6110  -12.2361 C   0  0  0  0  0  0  0  0  0  0  0  0
   21.2492  -22.6782  -13.2535 C   0  0  0  0  0  0  0  0  0  0  0  0
   20.8574  -24.0895  -13.6133 C   0  0  0  0  0  0  0  0  0  0  0  0
   19.7621  -24.1387  -14.6298 C   0  0  0  0  0  0  0  0  0  0  0  0
   19.4362  -25.5176  -14.9396 N   0  0  0  0  0  0  0  0  0  0  0  0
   21.4625  -20.5745  -11.2476 C   0  0  0  0  0  0  0  0  0  0  0  0
   20.4304  -20.0070  -11.9908 O   0  0  0  0  0  0  0  0  0  0  0  0
   21.3602  -20.5214   -9.9787 O   0  0  0  0  0  0  0  0  0  0  0  0
  2  1  1  0
  3  2  1  0
  3  4  1  1
  5  3  1  0
  5  6  1  6
  7  8  2  0
  7  5  1  0
  9  7  1  0
 10  9  1  0
 10 11  1  1
 12 17  2  0
 12 11  1  0
 13 12  1  0
 14 15  1  0
 14 13  2  0
 15 16  2  0
 16 17  1  0
 18 20  1  0
 18 10  1  0
 19 18  2  0
 21 20  1  0
 21 27  1  0
 21 22  1  1
 22 23  1  0
 24 23  1  0
 25 26  1  0
 25 24  1  0
 27 28  1  0
 29 27  2  0
M  END
$$$$
