IFK.pdb
     RDKit          3D

 29 29  0  0  1  0  0  0  0  0999 V2000
   31.1384  -20.8336  -14.2324 C   0  0  0  0  0  0  0  0  0  0  0  0
   31.2981  -20.9885  -12.7370 C   0  0  0  0  0  0  0  0  0  0  0  0
   29.9788  -21.1715  -12.0438 C   0  0  2  0  0  0  0  0  0  0  0  0
   29.0681  -20.0342  -12.4493 C   0  0  0  0  0  0  0  0  0  0  0  0
   30.1344  -21.1945  -10.5304 C   0  0  2  0  0  0  0  0  0  0  0  0
   30.9890  -22.2997  -10.1539 N   0  0  0  0  0  0  0  0  0  0  0  0
   28.8358  -21.3449   -9.8612 C   0  0  0  0  0  0  0  0  0  0  0  0
   28.3018  -22.4710   -9.7448 O   0  0  0  0  0  0  0  0  0  0  0  0
   28.1085  -20.2433   -9.3095 N   0  0  0  0  0  0  0  0  0  0  0  0
   26.7016  -20.3742   -8.9715 C   0  0  1  0  0  0  0  0  0  0  0  0
   26.4581  -19.3858   -7.8260 C   0  0  0  0  0  0  0  0  0  0  0  0
   27.2458  -19.7331   -6.6379 C   0  0  0  0  0  0  0  0  0  0  0  0
   28.3795  -19.0313   -6.2861 C   0  0  0  0  0  0  0  0  0  0  0  0
   29.1032  -19.3742   -5.1682 C   0  0  0  0  0  0  0  0  0  0  0  0
   28.7450  -20.4201   -4.3480 C   0  0  0  0  0  0  0  0  0  0  0  0
   27.6144  -21.1342   -4.6825 C   0  0  0  0  0  0  0  0  0  0  0  0
   26.8876  -20.7949   -5.7997 C   0  0  0  0  0  0  0  0  0  0  0  0
   25.8295  -20.0628  -10.1135 C   0  0  0  0  0  0  0  0  0  0  0  0
   26.2008  -19.4187  -11.1296 O   0  0  0  0  0  0  0  0  0  0  0  0
   24.4834  -20.5038  -10.0934 N   0  0  0  0  0  0  0  0  0  0  0  0
   23.7221  -20.8082  -11.3008 C   0  0  1  0  0  0  0  0  0  0  0  0
   24.1211  -22.0988  -11.9036 C   0  0  0  0  0  0  0  0  0  0  0  0
   23.3525  -22.4101  -13.1552 C   0  0  0  0  0  0  0  0  0  0  0  0
   23.7266  -23.7364  -13.7682 C   0  0  0  0  0  0  0  0  0  0  0  0
   22.9422  -24.0376  -15.0049 C   0  0  0  0  0  0  0  0  0  0  0  0
   23.3718  -25.3037  -15.5670 N   0  0  0  0  0  0  0  0  0  0  0  0
   22.2938  -20.8184  -10.9363 C   0  0  0  0  0  0  0  0  0  0  0  0
   21.2448  -20.5889  -11.8232 O   0  0  0  0  0  0  0  0  0  0  0  0
   21.9857  -21.0513   -9.7221 O   0  0  0  0  0  0  0  0  0  0  0  0
  2  1  1  0
  3  2  1  0
  3  4  1  1
  5  3  1  0
  5  6  1  6
  7  8  2  0
  7  5  1  0
  9  7  1  0
 10  9  1  0
 10 11  1  1
 12 17  2  0
 12 11  1  0
 13 12  1  0
 14 15  1  0
 14 13  2  0
 15 16  2  0
 16 17  1  0
 18 20  1  0
 18 10  1  0
 19 18  2  0
 21 20  1  0
 21 27  1  0
 21 22  1  1
 22 23  1  0
 24 23  1  0
 25 26  1  0
 25 24  1  0
 27 28  1  0
 29 27  2  0
M  END
$$$$
