IFK.pdb
     RDKit          3D

 29 29  0  0  1  0  0  0  0  0999 V2000
   27.1826  -19.1765  -18.7361 C   0  0  0  0  0  0  0  0  0  0  0  0
   27.9686  -20.1205  -17.8548 C   0  0  0  0  0  0  0  0  0  0  0  0
   27.2732  -20.3872  -16.5510 C   0  0  2  0  0  0  0  0  0  0  0  0
   27.0808  -19.0676  -15.8375 C   0  0  0  0  0  0  0  0  0  0  0  0
   28.0691  -21.3394  -15.6707 C   0  0  2  0  0  0  0  0  0  0  0  0
   28.1809  -22.6216  -16.3317 N   0  0  0  0  0  0  0  0  0  0  0  0
   27.4223  -21.5289  -14.3659 C   0  0  0  0  0  0  0  0  0  0  0  0
   26.3564  -22.1778  -14.2677 O   0  0  0  0  0  0  0  0  0  0  0  0
   27.9512  -20.9990  -13.1469 N   0  0  0  0  0  0  0  0  0  0  0  0
   27.2099  -21.1109  -11.9025 C   0  0  1  0  0  0  0  0  0  0  0  0
   28.1864  -20.6875  -10.8000 C   0  0  0  0  0  0  0  0  0  0  0  0
   27.4963  -20.4674   -9.5241 C   0  0  0  0  0  0  0  0  0  0  0  0
   28.1840  -20.3654   -8.3332 C   0  0  0  0  0  0  0  0  0  0  0  0
   27.5169  -20.1593   -7.1485 C   0  0  0  0  0  0  0  0  0  0  0  0
   26.1467  -20.0445   -7.0822 C   0  0  0  0  0  0  0  0  0  0  0  0
   25.4408  -20.1437   -8.2620 C   0  0  0  0  0  0  0  0  0  0  0  0
   26.1039  -20.3499   -9.4492 C   0  0  0  0  0  0  0  0  0  0  0  0
   26.0180  -20.2502  -11.8921 C   0  0  0  0  0  0  0  0  0  0  0  0
   26.0456  -19.0047  -12.0743 O   0  0  0  0  0  0  0  0  0  0  0  0
   24.7475  -20.8344  -11.6650 N   0  0  0  0  0  0  0  0  0  0  0  0
   23.4906  -20.1768  -12.0081 C   0  0  1  0  0  0  0  0  0  0  0  0
   23.0495  -20.4954  -13.3837 C   0  0  0  0  0  0  0  0  0  0  0  0
   21.7582  -19.8195  -13.7438 C   0  0  0  0  0  0  0  0  0  0  0  0
   21.2477  -20.2021  -15.1104 C   0  0  0  0  0  0  0  0  0  0  0  0
   19.9956  -19.4730  -15.4793 C   0  0  0  0  0  0  0  0  0  0  0  0
   19.5774  -19.8526  -16.8152 N   0  0  0  0  0  0  0  0  0  0  0  0
   22.4813  -20.6022  -11.0215 C   0  0  0  0  0  0  0  0  0  0  0  0
   21.3365  -19.8803  -10.6928 O   0  0  0  0  0  0  0  0  0  0  0  0
   22.6614  -21.7097  -10.4178 O   0  0  0  0  0  0  0  0  0  0  0  0
  2  1  1  0
  3  2  1  0
  3  4  1  1
  5  3  1  0
  5  6  1  6
  7  8  2  0
  7  5  1  0
  9  7  1  0
 10  9  1  0
 10 11  1  1
 12 17  2  0
 12 11  1  0
 13 12  1  0
 14 15  1  0
 14 13  2  0
 15 16  2  0
 16 17  1  0
 18 20  1  0
 18 10  1  0
 19 18  2  0
 21 20  1  0
 21 27  1  0
 21 22  1  6
 22 23  1  0
 24 23  1  0
 25 26  1  0
 25 24  1  0
 27 28  1  0
 29 27  2  0
M  END
$$$$
