IFK.pdb
     RDKit          3D

 29 29  0  0  1  0  0  0  0  0999 V2000
   28.3614  -22.5935  -19.0215 C   0  0  0  0  0  0  0  0  0  0  0  0
   27.1368  -21.9539  -18.4076 C   0  0  0  0  0  0  0  0  0  0  0  0
   26.9800  -22.3103  -16.9574 C   0  0  2  0  0  0  0  0  0  0  0  0
   26.7961  -23.8080  -16.8543 C   0  0  0  0  0  0  0  0  0  0  0  0
   25.7923  -21.5991  -16.3262 C   0  0  2  0  0  0  0  0  0  0  0  0
   25.8760  -20.1829  -16.6107 N   0  0  0  0  0  0  0  0  0  0  0  0
   25.7639  -21.7935  -14.8708 C   0  0  0  0  0  0  0  0  0  0  0  0
   25.5227  -22.9192  -14.3795 O   0  0  0  0  0  0  0  0  0  0  0  0
   26.0036  -20.7372  -13.9362 N   0  0  0  0  0  0  0  0  0  0  0  0
   25.8226  -20.9488  -12.5104 C   0  0  1  0  0  0  0  0  0  0  0  0
   26.8332  -20.0240  -11.8235 C   0  0  0  0  0  0  0  0  0  0  0  0
   26.7632  -20.1395  -10.3626 C   0  0  0  0  0  0  0  0  0  0  0  0
   27.5274  -21.0532   -9.6677 C   0  0  0  0  0  0  0  0  0  0  0  0
   27.4459  -21.1446   -8.2980 C   0  0  0  0  0  0  0  0  0  0  0  0
   26.6111  -20.3435   -7.5522 C   0  0  0  0  0  0  0  0  0  0  0  0
   25.8387  -19.4235   -8.2283 C   0  0  0  0  0  0  0  0  0  0  0  0
   25.9170  -19.3285   -9.5981 C   0  0  0  0  0  0  0  0  0  0  0  0
   24.4549  -20.6294  -12.0754 C   0  0  0  0  0  0  0  0  0  0  0  0
   23.7472  -19.7206  -12.5837 O   0  0  0  0  0  0  0  0  0  0  0  0
   23.8747  -21.3762  -11.0206 N   0  0  0  0  0  0  0  0  0  0  0  0
   22.4448  -21.3721  -10.7285 C   0  0  1  0  0  0  0  0  0  0  0  0
   22.1041  -22.2492   -9.5871 C   0  0  0  0  0  0  0  0  0  0  0  0
   20.6220  -22.3870   -9.3910 C   0  0  0  0  0  0  0  0  0  0  0  0
   20.2558  -23.3033   -8.2504 C   0  0  0  0  0  0  0  0  0  0  0  0
   18.7780  -23.4809   -8.1098 C   0  0  0  0  0  0  0  0  0  0  0  0
   18.4868  -24.3085   -6.9549 N   0  0  0  0  0  0  0  0  0  0  0  0
   22.0498  -19.9783  -10.4555 C   0  0  0  0  0  0  0  0  0  0  0  0
   20.8977  -19.3677  -10.9448 O   0  0  0  0  0  0  0  0  0  0  0  0
   22.8133  -19.2709   -9.7206 O   0  0  0  0  0  0  0  0  0  0  0  0
  2  1  1  0
  3  2  1  0
  3  4  1  6
  5  3  1  0
  5  6  1  1
  7  8  2  0
  7  5  1  0
  9  7  1  0
 10  9  1  0
 10 11  1  1
 12 17  2  0
 12 11  1  0
 13 12  1  0
 14 15  1  0
 14 13  2  0
 15 16  2  0
 16 17  1  0
 18 20  1  0
 18 10  1  0
 19 18  2  0
 21 20  1  0
 21 27  1  0
 21 22  1  1
 22 23  1  0
 24 23  1  0
 25 26  1  0
 25 24  1  0
 27 28  1  0
 29 27  2  0
M  END
$$$$
