IFK.pdb
     RDKit          3D

 29 29  0  0  1  0  0  0  0  0999 V2000
   29.6234  -23.4238  -18.8392 C   0  0  0  0  0  0  0  0  0  0  0  0
   28.7018  -22.2968  -18.4315 C   0  0  0  0  0  0  0  0  0  0  0  0
   27.9046  -22.6345  -17.2048 C   0  0  2  0  0  0  0  0  0  0  0  0
   27.0280  -23.8256  -17.5218 C   0  0  0  0  0  0  0  0  0  0  0  0
   27.0433  -21.4651  -16.7512 C   0  0  2  0  0  0  0  0  0  0  0  0
   27.8342  -20.2536  -16.7676 N   0  0  0  0  0  0  0  0  0  0  0  0
   26.5232  -21.6782  -15.3944 C   0  0  0  0  0  0  0  0  0  0  0  0
   25.6345  -22.5322  -15.1759 O   0  0  0  0  0  0  0  0  0  0  0  0
   26.9837  -20.9437  -14.2564 N   0  0  0  0  0  0  0  0  0  0  0  0
   26.2721  -21.0069  -12.9914 C   0  0  1  0  0  0  0  0  0  0  0  0
   27.2829  -20.5685  -11.9262 C   0  0  0  0  0  0  0  0  0  0  0  0
   26.6649  -20.4868  -10.5980 C   0  0  0  0  0  0  0  0  0  0  0  0
   26.5517  -21.5906   -9.7792 C   0  0  0  0  0  0  0  0  0  0  0  0
   25.9685  -21.4914   -8.5378 C   0  0  0  0  0  0  0  0  0  0  0  0
   25.4717  -20.3050   -8.0472 C   0  0  0  0  0  0  0  0  0  0  0  0
   25.5753  -19.1898   -8.8507 C   0  0  0  0  0  0  0  0  0  0  0  0
   26.1578  -19.2843  -10.0930 C   0  0  0  0  0  0  0  0  0  0  0  0
   25.0952  -20.1258  -12.9769 C   0  0  0  0  0  0  0  0  0  0  0  0
   25.0330  -19.0219  -13.5791 O   0  0  0  0  0  0  0  0  0  0  0  0
   23.9469  -20.5210  -12.2473 N   0  0  0  0  0  0  0  0  0  0  0  0
   22.5890  -20.1403  -12.6229 C   0  0  1  0  0  0  0  0  0  0  0  0
   22.2734  -20.5008  -14.0224 C   0  0  0  0  0  0  0  0  0  0  0  0
   21.7239  -19.3427  -14.8039 C   0  0  0  0  0  0  0  0  0  0  0  0
   20.3382  -19.5937  -15.3437 C   0  0  0  0  0  0  0  0  0  0  0  0
   19.8229  -18.4482  -16.1547 C   0  0  0  0  0  0  0  0  0  0  0  0
   18.4496  -18.6987  -16.5482 N   0  0  0  0  0  0  0  0  0  0  0  0
   21.6646  -20.8069  -11.6879 C   0  0  0  0  0  0  0  0  0  0  0  0
   20.6365  -20.1707  -10.9967 O   0  0  0  0  0  0  0  0  0  0  0  0
   21.8100  -22.0570  -11.4890 O   0  0  0  0  0  0  0  0  0  0  0  0
  2  1  1  0
  3  2  1  0
  3  4  1  6
  5  3  1  0
  5  6  1  1
  7  8  2  0
  7  5  1  0
  9  7  1  0
 10  9  1  0
 10 11  1  1
 12 17  2  0
 12 11  1  0
 13 12  1  0
 14 15  1  0
 14 13  2  0
 15 16  2  0
 16 17  1  0
 18 20  1  0
 18 10  1  0
 19 18  2  0
 21 20  1  0
 21 27  1  0
 21 22  1  6
 22 23  1  0
 24 23  1  0
 25 26  1  0
 25 24  1  0
 27 28  1  0
 29 27  2  0
M  END
$$$$
