IFK.pdb
     RDKit          3D

 29 29  0  0  1  0  0  0  0  0999 V2000
   28.3915  -17.6272  -16.9285 C   0  0  0  0  0  0  0  0  0  0  0  0
   29.1128  -17.8187  -15.6137 C   0  0  0  0  0  0  0  0  0  0  0  0
   28.4603  -18.8665  -14.7587 C   0  0  2  0  0  0  0  0  0  0  0  0
   28.5667  -20.1954  -15.4729 C   0  0  0  0  0  0  0  0  0  0  0  0
   26.9992  -18.5425  -14.4847 C   0  0  2  0  0  0  0  0  0  0  0  0
   26.9116  -17.2744  -13.7936 N   0  0  0  0  0  0  0  0  0  0  0  0
   26.3662  -19.5807  -13.6610 C   0  0  0  0  0  0  0  0  0  0  0  0
   26.3945  -20.7820  -14.0113 O   0  0  0  0  0  0  0  0  0  0  0  0
   25.6903  -19.2991  -12.4319 N   0  0  0  0  0  0  0  0  0  0  0  0
   24.9723  -20.3429  -11.7207 C   0  0  1  0  0  0  0  0  0  0  0  0
   24.9022  -19.8766  -10.2627 C   0  0  0  0  0  0  0  0  0  0  0  0
   26.1952  -20.0271   -9.5859 C   0  0  0  0  0  0  0  0  0  0  0  0
   27.1823  -20.8543  -10.0787 C   0  0  0  0  0  0  0  0  0  0  0  0
   28.3871  -20.9806   -9.4279 C   0  0  0  0  0  0  0  0  0  0  0  0
   28.6744  -20.3006   -8.2660 C   0  0  0  0  0  0  0  0  0  0  0  0
   27.7006  -19.4684   -7.7571 C   0  0  0  0  0  0  0  0  0  0  0  0
   26.4941  -19.3389   -8.4046 C   0  0  0  0  0  0  0  0  0  0  0  0
   23.6202  -20.5474  -12.2608 C   0  0  0  0  0  0  0  0  0  0  0  0
   22.8739  -19.6174  -12.6649 O   0  0  0  0  0  0  0  0  0  0  0  0
   23.1020  -21.8634  -12.3420 N   0  0  0  0  0  0  0  0  0  0  0  0
   21.7702  -22.1695  -12.8545 C   0  0  1  0  0  0  0  0  0  0  0  0
   21.5752  -23.6191  -13.0759 C   0  0  0  0  0  0  0  0  0  0  0  0
   21.3597  -23.9553  -14.5232 C   0  0  0  0  0  0  0  0  0  0  0  0
   21.2440  -25.4372  -14.7785 C   0  0  0  0  0  0  0  0  0  0  0  0
   20.9929  -25.7527  -16.2183 C   0  0  0  0  0  0  0  0  0  0  0  0
   20.9023  -27.1885  -16.4016 N   0  0  0  0  0  0  0  0  0  0  0  0
   20.7892  -21.6500  -11.8846 C   0  0  0  0  0  0  0  0  0  0  0  0
   19.5939  -21.0200  -12.2221 O   0  0  0  0  0  0  0  0  0  0  0  0
   21.0454  -21.7802  -10.6433 O   0  0  0  0  0  0  0  0  0  0  0  0
  2  1  1  0
  3  2  1  0
  3  4  1  6
  5  3  1  0
  5  6  1  1
  7  8  2  0
  7  5  1  0
  9  7  1  0
 10  9  1  0
 10 11  1  1
 12 17  2  0
 12 11  1  0
 13 12  1  0
 14 15  1  0
 14 13  2  0
 15 16  2  0
 16 17  1  0
 18 20  1  0
 18 10  1  0
 19 18  2  0
 21 20  1  0
 21 27  1  0
 21 22  1  1
 22 23  1  0
 24 23  1  0
 25 26  1  0
 25 24  1  0
 27 28  1  0
 29 27  2  0
M  END
$$$$
