IFK.pdb
     RDKit          3D

 29 29  0  0  1  0  0  0  0  0999 V2000
   25.3979  -12.9951  -16.3371 C   0  0  0  0  0  0  0  0  0  0  0  0
   23.9245  -12.6789  -16.4576 C   0  0  0  0  0  0  0  0  0  0  0  0
   23.5486  -11.4396  -15.6976 C   0  0  2  0  0  0  0  0  0  0  0  0
   23.9214  -11.6420  -14.2459 C   0  0  0  0  0  0  0  0  0  0  0  0
   22.0620  -11.1361  -15.8119 C   0  0  2  0  0  0  0  0  0  0  0  0
   21.7011  -11.0309  -17.2091 N   0  0  0  0  0  0  0  0  0  0  0  0
   21.7187   -9.8796  -15.1335 C   0  0  0  0  0  0  0  0  0  0  0  0
   21.6040   -9.8348  -13.8879 O   0  0  0  0  0  0  0  0  0  0  0  0
   21.4971   -8.6502  -15.8307 N   0  0  0  0  0  0  0  0  0  0  0  0
   21.1523   -7.4369  -15.1098 C   0  0  1  0  0  0  0  0  0  0  0  0
   21.5691   -6.2800  -16.0243 C   0  0  0  0  0  0  0  0  0  0  0  0
   21.2258   -4.9794  -15.4386 C   0  0  0  0  0  0  0  0  0  0  0  0
   20.0659   -4.3136  -15.7747 C   0  0  0  0  0  0  0  0  0  0  0  0
   19.7639   -3.0950  -15.2136 C   0  0  0  0  0  0  0  0  0  0  0  0
   20.5872   -2.4780  -14.2990 C   0  0  0  0  0  0  0  0  0  0  0  0
   21.7518   -3.1275  -13.9498 C   0  0  0  0  0  0  0  0  0  0  0  0
   22.0579   -4.3464  -14.5085 C   0  0  0  0  0  0  0  0  0  0  0  0
   19.7147   -7.3636  -14.8105 C   0  0  0  0  0  0  0  0  0  0  0  0
   18.8096   -7.7400  -15.6007 O   0  0  0  0  0  0  0  0  0  0  0  0
   19.2960   -6.8408  -13.5622 N   0  0  0  0  0  0  0  0  0  0  0  0
   17.8947   -6.7299  -13.1697 C   0  0  1  0  0  0  0  0  0  0  0  0
   17.6689   -7.1612  -11.7728 C   0  0  0  0  0  0  0  0  0  0  0  0
   16.2585   -6.9198  -11.3181 C   0  0  0  0  0  0  0  0  0  0  0  0
   16.0115   -7.3489   -9.8935 C   0  0  0  0  0  0  0  0  0  0  0  0
   14.6117   -7.0728   -9.4464 C   0  0  0  0  0  0  0  0  0  0  0  0
   14.4665   -7.4042   -8.0419 N   0  0  0  0  0  0  0  0  0  0  0  0
   17.4893   -5.3250  -13.3573 C   0  0  0  0  0  0  0  0  0  0  0  0
   18.1997   -4.2227  -12.8886 O   0  0  0  0  0  0  0  0  0  0  0  0
   16.4094   -5.0915  -13.9919 O   0  0  0  0  0  0  0  0  0  0  0  0
  2  1  1  0
  3  2  1  0
  3  4  1  1
  5  3  1  0
  5  6  1  6
  7  8  2  0
  7  5  1  0
  9  7  1  0
 10  9  1  0
 10 11  1  6
 12 17  2  0
 12 11  1  0
 13 12  1  0
 14 15  1  0
 14 13  2  0
 15 16  2  0
 16 17  1  0
 18 20  1  0
 18 10  1  0
 19 18  2  0
 21 20  1  0
 21 27  1  0
 21 22  1  1
 22 23  1  0
 24 23  1  0
 25 26  1  0
 25 24  1  0
 27 28  1  0
 29 27  2  0
M  END
$$$$
