IFK.pdb
     RDKit          3D

 29 29  0  0  1  0  0  0  0  0999 V2000
   24.1110  -20.5243  -20.7921 C   0  0  0  0  0  0  0  0  0  0  0  0
   22.7979  -20.3795  -20.0571 C   0  0  0  0  0  0  0  0  0  0  0  0
   22.9048  -20.8032  -18.6205 C   0  0  2  0  0  0  0  0  0  0  0  0
   23.2537  -22.2744  -18.5846 C   0  0  0  0  0  0  0  0  0  0  0  0
   21.6082  -20.5609  -17.8622 C   0  0  2  0  0  0  0  0  0  0  0  0
   21.2820  -19.1521  -17.9098 N   0  0  0  0  0  0  0  0  0  0  0  0
   21.7231  -20.9779  -16.4587 C   0  0  0  0  0  0  0  0  0  0  0  0
   21.9714  -22.1684  -16.1625 O   0  0  0  0  0  0  0  0  0  0  0  0
   21.5637  -20.0759  -15.3597 N   0  0  0  0  0  0  0  0  0  0  0  0
   21.5344  -20.5659  -13.9923 C   0  0  1  0  0  0  0  0  0  0  0  0
   21.9925  -19.3905  -13.1222 C   0  0  0  0  0  0  0  0  0  0  0  0
   22.0415  -19.7578  -11.7026 C   0  0  0  0  0  0  0  0  0  0  0  0
   21.0473  -19.3891  -10.8210 C   0  0  0  0  0  0  0  0  0  0  0  0
   21.1136  -19.7441   -9.4941 C   0  0  0  0  0  0  0  0  0  0  0  0
   22.1582  -20.4758   -8.9761 C   0  0  0  0  0  0  0  0  0  0  0  0
   23.1623  -20.8542   -9.8413 C   0  0  0  0  0  0  0  0  0  0  0  0
   23.1002  -20.5014  -11.1692 C   0  0  0  0  0  0  0  0  0  0  0  0
   20.1897  -21.0072  -13.5940 C   0  0  0  0  0  0  0  0  0  0  0  0
   19.1363  -20.3585  -13.8278 O   0  0  0  0  0  0  0  0  0  0  0  0
   20.0436  -22.2352  -12.9029 N   0  0  0  0  0  0  0  0  0  0  0  0
   18.7528  -22.7641  -12.4738 C   0  0  1  0  0  0  0  0  0  0  0  0
   18.8769  -24.0918  -11.8333 C   0  0  0  0  0  0  0  0  0  0  0  0
   17.5453  -24.7485  -11.6104 C   0  0  0  0  0  0  0  0  0  0  0  0
   17.6582  -26.1634  -11.1006 C   0  0  0  0  0  0  0  0  0  0  0  0
   16.3368  -26.8612  -11.0494 C   0  0  0  0  0  0  0  0  0  0  0  0
   16.5273  -28.2564  -10.7019 N   0  0  0  0  0  0  0  0  0  0  0  0
   18.1574  -21.7867  -11.5446 C   0  0  0  0  0  0  0  0  0  0  0  0
   16.8312  -21.3628  -11.5783 O   0  0  0  0  0  0  0  0  0  0  0  0
   18.9034  -21.2851  -10.6417 O   0  0  0  0  0  0  0  0  0  0  0  0
  2  1  1  0
  3  2  1  0
  3  4  1  6
  5  3  1  0
  5  6  1  1
  7  8  2  0
  7  5  1  0
  9  7  1  0
 10  9  1  0
 10 11  1  1
 12 17  2  0
 12 11  1  0
 13 12  1  0
 14 15  1  0
 14 13  2  0
 15 16  2  0
 16 17  1  0
 18 20  1  0
 18 10  1  0
 19 18  2  0
 21 20  1  0
 21 27  1  0
 21 22  1  1
 22 23  1  0
 24 23  1  0
 25 26  1  0
 25 24  1  0
 27 28  1  0
 29 27  2  0
M  END
$$$$
