IFK.pdb
     RDKit          3D

 29 29  0  0  1  0  0  0  0  0999 V2000
   28.4509  -17.3431  -16.4330 C   0  0  0  0  0  0  0  0  0  0  0  0
   28.9063  -18.2513  -15.3135 C   0  0  0  0  0  0  0  0  0  0  0  0
   27.7657  -19.0171  -14.7077 C   0  0  2  0  0  0  0  0  0  0  0  0
   26.7161  -18.0264  -14.2558 C   0  0  0  0  0  0  0  0  0  0  0  0
   28.2179  -19.8650  -13.5281 C   0  0  2  0  0  0  0  0  0  0  0  0
   29.1524  -20.8683  -13.9902 N   0  0  0  0  0  0  0  0  0  0  0  0
   27.0806  -20.5326  -12.8817 C   0  0  0  0  0  0  0  0  0  0  0  0
   26.6218  -21.6034  -13.3396 O   0  0  0  0  0  0  0  0  0  0  0  0
   26.4340  -20.0194  -11.7133 N   0  0  0  0  0  0  0  0  0  0  0  0
   25.3201  -20.7278  -11.1066 C   0  0  1  0  0  0  0  0  0  0  0  0
   25.2569  -20.2348   -9.6570 C   0  0  0  0  0  0  0  0  0  0  0  0
   26.5395  -20.4187   -8.9687 C   0  0  0  0  0  0  0  0  0  0  0  0
   26.9296  -19.6036   -7.9271 C   0  0  0  0  0  0  0  0  0  0  0  0
   28.1366  -19.7939   -7.2961 C   0  0  0  0  0  0  0  0  0  0  0  0
   29.0119  -20.7918   -7.6605 C   0  0  0  0  0  0  0  0  0  0  0  0
   28.6403  -21.6176   -8.6998 C   0  0  0  0  0  0  0  0  0  0  0  0
   27.4341  -21.4311   -9.3338 C   0  0  0  0  0  0  0  0  0  0  0  0
   24.0517  -20.4552  -11.7982 C   0  0  0  0  0  0  0  0  0  0  0  0
   23.5362  -19.3112  -11.9016 O   0  0  0  0  0  0  0  0  0  0  0  0
   23.3462  -21.5298  -12.3937 N   0  0  0  0  0  0  0  0  0  0  0  0
   22.1924  -21.3439  -13.2679 C   0  0  1  0  0  0  0  0  0  0  0  0
   22.1467  -22.3459  -14.3552 C   0  0  0  0  0  0  0  0  0  0  0  0
   22.6092  -21.7880  -15.6701 C   0  0  0  0  0  0  0  0  0  0  0  0
   21.4780  -21.2982  -16.5390 C   0  0  0  0  0  0  0  0  0  0  0  0
   21.9529  -20.7735  -17.8561 C   0  0  0  0  0  0  0  0  0  0  0  0
   20.8321  -20.2497  -18.6131 N   0  0  0  0  0  0  0  0  0  0  0  0
   20.9817  -21.4224  -12.4305 C   0  0  0  0  0  0  0  0  0  0  0  0
   20.9072  -22.0673  -11.1984 O   0  0  0  0  0  0  0  0  0  0  0  0
   19.9191  -20.8640  -12.8576 O   0  0  0  0  0  0  0  0  0  0  0  0
  2  1  1  0
  3  2  1  0
  3  4  1  1
  5  3  1  0
  5  6  1  6
  7  8  2  0
  7  5  1  0
  9  7  1  0
 10  9  1  0
 10 11  1  1
 12 17  2  0
 12 11  1  0
 13 12  1  0
 14 15  1  0
 14 13  2  0
 15 16  2  0
 16 17  1  0
 18 20  1  0
 18 10  1  0
 19 18  2  0
 21 20  1  0
 21 27  1  0
 21 22  1  6
 22 23  1  0
 24 23  1  0
 25 26  1  0
 25 24  1  0
 27 28  1  0
 29 27  2  0
M  END
$$$$
