IFK.pdb
     RDKit          3D

 29 29  0  0  1  0  0  0  0  0999 V2000
   26.4422  -20.2487  -19.5262 C   0  0  0  0  0  0  0  0  0  0  0  0
   25.9044  -21.6515  -19.3570 C   0  0  0  0  0  0  0  0  0  0  0  0
   25.5325  -21.9461  -17.9324 C   0  0  2  0  0  0  0  0  0  0  0  0
   24.4364  -20.9887  -17.5206 C   0  0  0  0  0  0  0  0  0  0  0  0
   26.7232  -21.8018  -16.9963 C   0  0  2  0  0  0  0  0  0  0  0  0
   27.7022  -22.8211  -17.3067 N   0  0  0  0  0  0  0  0  0  0  0  0
   26.3190  -21.9392  -15.5911 C   0  0  0  0  0  0  0  0  0  0  0  0
   25.8090  -23.0029  -15.1724 O   0  0  0  0  0  0  0  0  0  0  0  0
   26.4757  -20.8941  -14.6269 N   0  0  0  0  0  0  0  0  0  0  0  0
   25.9949  -21.0583  -13.2658 C   0  0  1  0  0  0  0  0  0  0  0  0
   26.8470  -20.1151  -12.4098 C   0  0  0  0  0  0  0  0  0  0  0  0
   26.5424  -20.2601  -10.9819 C   0  0  0  0  0  0  0  0  0  0  0  0
   27.1400  -21.2304  -10.2054 C   0  0  0  0  0  0  0  0  0  0  0  0
   26.8394  -21.3486   -8.8687 C   0  0  0  0  0  0  0  0  0  0  0  0
   25.9399  -20.5197   -8.2373 C   0  0  0  0  0  0  0  0  0  0  0  0
   25.3316  -19.5429   -8.9963 C   0  0  0  0  0  0  0  0  0  0  0  0
   25.6291  -19.4211  -10.3336 C   0  0  0  0  0  0  0  0  0  0  0  0
   24.5697  -20.7199  -13.1404 C   0  0  0  0  0  0  0  0  0  0  0  0
   24.0614  -19.6435  -13.5508 O   0  0  0  0  0  0  0  0  0  0  0  0
   23.6928  -21.6458  -12.5233 N   0  0  0  0  0  0  0  0  0  0  0  0
   22.2542  -21.4304  -12.4056 C   0  0  1  0  0  0  0  0  0  0  0  0
   21.5735  -22.5550  -11.7271 C   0  0  0  0  0  0  0  0  0  0  0  0
   20.0810  -22.3935  -11.7047 C   0  0  0  0  0  0  0  0  0  0  0  0
   19.3682  -23.5460  -11.0428 C   0  0  0  0  0  0  0  0  0  0  0  0
   17.8822  -23.4567  -11.1818 C   0  0  0  0  0  0  0  0  0  0  0  0
   17.2525  -24.5588  -10.4801 N   0  0  0  0  0  0  0  0  0  0  0  0
   22.0510  -20.1712  -11.6666 C   0  0  0  0  0  0  0  0  0  0  0  0
   22.9490  -19.6346  -10.7473 O   0  0  0  0  0  0  0  0  0  0  0  0
   20.9766  -19.5190  -11.8758 O   0  0  0  0  0  0  0  0  0  0  0  0
  2  1  1  0
  3  2  1  0
  3  4  1  1
  5  3  1  0
  5  6  1  6
  7  8  2  0
  7  5  1  0
  9  7  1  0
 10  9  1  0
 10 11  1  1
 12 17  2  0
 12 11  1  0
 13 12  1  0
 14 15  1  0
 14 13  2  0
 15 16  2  0
 16 17  1  0
 18 20  1  0
 18 10  1  0
 19 18  2  0
 21 20  1  0
 21 27  1  0
 21 22  1  1
 22 23  1  0
 24 23  1  0
 25 26  1  0
 25 24  1  0
 27 28  1  0
 29 27  2  0
M  END
$$$$
