CPI.pdb
     RDKit          3D

 22 22  0  0  1  0  0  0  0  0999 V2000
   11.7591  -17.3512   19.5367 N   0  0  0  0  0  0  0  0  0  0  0  0
   10.3818  -17.1913   19.8601 C   0  0  1  0  0  0  0  0  0  0  0  0
    9.7209  -18.5073   20.2432 C   0  0  0  0  0  0  0  0  0  0  0  0
    9.4390  -19.5448   18.7890 S   0  0  0  0  0  0  0  0  0  0  0  0
   10.1092  -16.1405   20.8707 C   0  0  0  0  0  0  0  0  0  0  0  0
   11.0189  -15.7972   21.7002 O   0  0  0  0  0  0  0  0  0  0  0  0
    8.8635  -15.4698   20.9797 N   0  0  0  0  0  0  0  0  0  0  0  0
    7.7102  -15.7599   20.1719 C   0  0  0  0  0  0  0  0  0  0  0  0
    6.6354  -14.7614   20.5327 C   0  0  0  0  0  0  0  0  0  0  0  0
    7.3637  -13.6464   21.2502 C   0  0  0  0  0  0  0  0  0  0  0  0
    8.5115  -14.4138   21.8747 C   0  0  1  0  0  0  0  0  0  0  0  0
    8.0238  -14.9092   23.1866 C   0  0  0  0  0  0  0  0  0  0  0  0
    7.7059  -16.1239   23.2614 O   0  0  0  0  0  0  0  0  0  0  0  0
    5.8104  -11.7459   27.4519 C   0  0  0  0  0  0  0  0  0  0  0  0
    6.1399  -12.7655   26.4178 C   0  0  0  0  0  0  0  0  0  0  0  0
    7.3649  -13.5764   26.6334 C   0  0  2  0  0  0  0  0  0  0  0  0
    8.5578  -12.7493   27.0422 C   0  0  0  0  0  0  0  0  0  0  0  0
    7.6017  -14.6540   25.6747 C   0  0  2  0  0  0  0  0  0  0  0  0
    7.9052  -14.0862   24.3313 N   0  0  0  0  0  0  0  0  0  0  0  0
    6.5236  -15.6322   25.5719 C   0  0  0  0  0  0  0  0  0  0  0  0
    5.7852  -15.5656   24.5218 O   0  0  0  0  0  0  0  0  0  0  0  0
    6.2200  -16.6176   26.4710 O   0  0  0  0  0  0  0  0  0  0  0  0
  2  1  1  1
  2  5  1  0
  2  3  1  0
  3  4  1  0
  5  6  2  0
  7  5  1  0
  7 11  1  0
  8  7  1  0
  9 10  1  0
  9  8  1  0
 10 11  1  0
 11 12  1  1
 12 19  1  0
 12 13  2  0
 14 15  1  0
 15 16  1  0
 16 17  1  6
 18 16  1  0
 18 19  1  6
 20 18  1  0
 20 22  1  0
 21 20  2  0
M  END
$$$$
