CPI.pdb
     RDKit          3D

 22 22  0  0  1  0  0  0  0  0999 V2000
    6.1589  -19.3822   21.1594 N   0  0  0  0  0  0  0  0  0  0  0  0
    6.0351  -18.0683   21.6938 C   0  0  1  0  0  0  0  0  0  0  0  0
    5.2281  -18.0420   22.9834 C   0  0  0  0  0  0  0  0  0  0  0  0
    6.2173  -18.6133   24.3854 S   0  0  0  0  0  0  0  0  0  0  0  0
    7.3226  -17.3492   21.8523 C   0  0  0  0  0  0  0  0  0  0  0  0
    8.4035  -18.0038   22.0430 O   0  0  0  0  0  0  0  0  0  0  0  0
    7.4354  -15.9354   21.8043 N   0  0  0  0  0  0  0  0  0  0  0  0
    6.3184  -15.0309   21.7758 C   0  0  0  0  0  0  0  0  0  0  0  0
    6.8664  -13.6312   21.6249 C   0  0  0  0  0  0  0  0  0  0  0  0
    8.2874  -13.8185   21.1411 C   0  0  0  0  0  0  0  0  0  0  0  0
    8.6290  -15.1516   21.7754 C   0  0  1  0  0  0  0  0  0  0  0  0
    9.1540  -14.8516   23.1314 C   0  0  0  0  0  0  0  0  0  0  0  0
   10.3373  -14.4327   23.2112 O   0  0  0  0  0  0  0  0  0  0  0  0
    6.0724  -12.1592   26.0839 C   0  0  0  0  0  0  0  0  0  0  0  0
    7.2369  -12.8462   25.4598 C   0  0  0  0  0  0  0  0  0  0  0  0
    8.0481  -13.7314   26.3334 C   0  0  2  0  0  0  0  0  0  0  0  0
    8.5948  -13.0242   27.5480 C   0  0  0  0  0  0  0  0  0  0  0  0
    8.9411  -14.6668   25.6523 C   0  0  2  0  0  0  0  0  0  0  0  0
    8.3916  -15.0151   24.3121 N   0  0  0  0  0  0  0  0  0  0  0  0
    9.2423  -15.8831   26.4005 C   0  0  0  0  0  0  0  0  0  0  0  0
    8.4068  -16.8528   26.2818 O   0  0  0  0  0  0  0  0  0  0  0  0
   10.3236  -16.1037   27.2088 O   0  0  0  0  0  0  0  0  0  0  0  0
  2  1  1  1
  2  5  1  0
  2  3  1  0
  3  4  1  0
  5  6  2  0
  7  5  1  0
  7 11  1  0
  8  7  1  0
  9 10  1  0
  9  8  1  0
 10 11  1  0
 11 12  1  1
 12 19  1  0
 12 13  2  0
 14 15  1  0
 15 16  1  0
 16 17  1  1
 18 16  1  0
 18 19  1  6
 20 18  1  0
 20 22  1  0
 21 20  2  0
M  END
$$$$
