CPI.pdb
     RDKit          3D

 22 22  0  0  1  0  0  0  0  0999 V2000
    6.7285  -19.3517   20.7670 N   0  0  0  0  0  0  0  0  0  0  0  0
    6.4853  -18.1020   21.4044 C   0  0  1  0  0  0  0  0  0  0  0  0
    5.8101  -18.2648   22.7582 C   0  0  0  0  0  0  0  0  0  0  0  0
    4.5796  -19.5896   22.7199 S   0  0  0  0  0  0  0  0  0  0  0  0
    7.6764  -17.2235   21.5016 C   0  0  0  0  0  0  0  0  0  0  0  0
    8.8431  -17.7343   21.6062 O   0  0  0  0  0  0  0  0  0  0  0  0
    7.6017  -15.8065   21.4855 N   0  0  0  0  0  0  0  0  0  0  0  0
    6.3798  -15.0577   21.3720 C   0  0  0  0  0  0  0  0  0  0  0  0
    6.7454  -13.5941   21.2917 C   0  0  0  0  0  0  0  0  0  0  0  0
    8.2149  -13.5781   20.9329 C   0  0  0  0  0  0  0  0  0  0  0  0
    8.6771  -14.8707   21.5745 C   0  0  1  0  0  0  0  0  0  0  0  0
    9.0387  -14.5406   22.9762 C   0  0  0  0  0  0  0  0  0  0  0  0
    9.8059  -13.5605   23.1575 O   0  0  0  0  0  0  0  0  0  0  0  0
    7.2698  -11.5810   27.1336 C   0  0  0  0  0  0  0  0  0  0  0  0
    8.0934  -12.8044   26.9279 C   0  0  0  0  0  0  0  0  0  0  0  0
    7.9229  -13.5266   25.6419 C   0  0  2  0  0  0  0  0  0  0  0  0
    6.4918  -13.5602   25.1673 C   0  0  0  0  0  0  0  0  0  0  0  0
    8.7041  -14.7515   25.4817 C   0  0  2  0  0  0  0  0  0  0  0  0
    8.5641  -15.2697   24.0920 N   0  0  0  0  0  0  0  0  0  0  0  0
    8.3954  -15.8063   26.4420 C   0  0  0  0  0  0  0  0  0  0  0  0
    8.7335  -15.5890   27.6630 O   0  0  0  0  0  0  0  0  0  0  0  0
    7.7777  -16.9989   26.1819 O   0  0  0  0  0  0  0  0  0  0  0  0
  2  1  1  1
  2  5  1  0
  2  3  1  0
  3  4  1  0
  5  6  2  0
  7  5  1  0
  7 11  1  0
  8  7  1  0
  9 10  1  0
  9  8  1  0
 10 11  1  0
 11 12  1  1
 12 19  1  0
 12 13  2  0
 14 15  1  0
 15 16  1  0
 16 17  1  1
 18 16  1  0
 18 19  1  6
 20 18  1  0
 20 22  1  0
 21 20  2  0
M  END
$$$$
