CPI.pdb
     RDKit          3D

 22 22  0  0  1  0  0  0  0  0999 V2000
    6.7849  -20.0229   22.0795 N   0  0  0  0  0  0  0  0  0  0  0  0
    6.4701  -18.6501   22.2881 C   0  0  1  0  0  0  0  0  0  0  0  0
    5.5810  -18.4389   23.5047 C   0  0  0  0  0  0  0  0  0  0  0  0
    6.0403  -19.5548   24.8517 S   0  0  0  0  0  0  0  0  0  0  0  0
    7.6493  -17.7512   22.3234 C   0  0  0  0  0  0  0  0  0  0  0  0
    8.8147  -18.2303   22.5371 O   0  0  0  0  0  0  0  0  0  0  0  0
    7.5645  -16.3481   22.1290 N   0  0  0  0  0  0  0  0  0  0  0  0
    6.3327  -15.6167   22.0084 C   0  0  0  0  0  0  0  0  0  0  0  0
    6.6820  -14.1771   21.7124 C   0  0  0  0  0  0  0  0  0  0  0  0
    8.1215  -14.2122   21.2487 C   0  0  0  0  0  0  0  0  0  0  0  0
    8.6374  -15.4119   22.0173 C   0  0  1  0  0  0  0  0  0  0  0  0
    9.0975  -14.9035   23.3342 C   0  0  0  0  0  0  0  0  0  0  0  0
   10.1631  -14.2357   23.3534 O   0  0  0  0  0  0  0  0  0  0  0  0
    5.5134  -12.6465   26.1405 C   0  0  0  0  0  0  0  0  0  0  0  0
    6.7670  -13.1798   25.5391 C   0  0  0  0  0  0  0  0  0  0  0  0
    7.7422  -13.8160   26.4604 C   0  0  2  0  0  0  0  0  0  0  0  0
    8.0774  -12.9561   27.6530 C   0  0  0  0  0  0  0  0  0  0  0  0
    8.8464  -14.5384   25.8318 C   0  0  2  0  0  0  0  0  0  0  0  0
    8.3990  -15.1358   24.5425 N   0  0  0  0  0  0  0  0  0  0  0  0
    9.4660  -15.5613   26.6683 C   0  0  0  0  0  0  0  0  0  0  0  0
   10.1343  -15.1454   27.6846 O   0  0  0  0  0  0  0  0  0  0  0  0
    9.4047  -16.9162   26.4901 O   0  0  0  0  0  0  0  0  0  0  0  0
  2  1  1  1
  2  5  1  0
  2  3  1  0
  3  4  1  0
  5  6  2  0
  7  5  1  0
  7 11  1  0
  8  7  1  0
  9 10  1  0
  9  8  1  0
 10 11  1  0
 11 12  1  1
 12 19  1  0
 12 13  2  0
 14 15  1  0
 15 16  1  0
 16 17  1  6
 18 16  1  0
 18 19  1  6
 20 18  1  0
 20 22  1  0
 21 20  2  0
M  END
$$$$
