CPI.pdb
     RDKit          3D

 22 22  0  0  1  0  0  0  0  0999 V2000
    7.5332  -12.7497   19.6798 N   0  0  0  0  0  0  0  0  0  0  0  0
    7.9493  -14.0541   20.0706 C   0  0  1  0  0  0  0  0  0  0  0  0
    9.3817  -14.3536   19.6536 C   0  0  0  0  0  0  0  0  0  0  0  0
    9.5423  -14.3991   17.8529 S   0  0  0  0  0  0  0  0  0  0  0  0
    7.7337  -14.3599   21.5058 C   0  0  0  0  0  0  0  0  0  0  0  0
    7.7164  -13.4159   22.3671 O   0  0  0  0  0  0  0  0  0  0  0  0
    7.5392  -15.6756   22.0006 N   0  0  0  0  0  0  0  0  0  0  0  0
    7.5818  -16.8633   21.1916 C   0  0  0  0  0  0  0  0  0  0  0  0
    7.2268  -18.0340   22.0779 C   0  0  0  0  0  0  0  0  0  0  0  0
    6.5701  -17.4181   23.2936 C   0  0  0  0  0  0  0  0  0  0  0  0
    7.2722  -16.0762   23.3453 C   0  0  1  0  0  0  0  0  0  0  0  0
    8.5084  -16.2771   24.1426 C   0  0  0  0  0  0  0  0  0  0  0  0
    9.5273  -16.6897   23.5313 O   0  0  0  0  0  0  0  0  0  0  0  0
    9.3939  -13.1168   28.9126 C   0  0  0  0  0  0  0  0  0  0  0  0
    9.2747  -14.4152   28.1934 C   0  0  0  0  0  0  0  0  0  0  0  0
    9.9227  -14.5127   26.8610 C   0  0  2  0  0  0  0  0  0  0  0  0
    9.6518  -13.3173   25.9824 C   0  0  0  0  0  0  0  0  0  0  0  0
    9.8891  -15.8269   26.2223 C   0  0  2  0  0  0  0  0  0  0  0  0
    8.5836  -16.0278   25.5333 N   0  0  0  0  0  0  0  0  0  0  0  0
   10.1618  -16.9498   27.1137 C   0  0  0  0  0  0  0  0  0  0  0  0
    9.1640  -17.7043   27.4096 O   0  0  0  0  0  0  0  0  0  0  0  0
   11.3683  -17.2892   27.6620 O   0  0  0  0  0  0  0  0  0  0  0  0
  2  1  1  1
  2  5  1  0
  2  3  1  0
  3  4  1  0
  5  6  2  0
  7  5  1  0
  7 11  1  0
  8  7  1  0
  9 10  1  0
  9  8  1  0
 10 11  1  0
 11 12  1  1
 12 19  1  0
 12 13  2  0
 14 15  1  0
 15 16  1  0
 16 17  1  6
 18 16  1  0
 18 19  1  1
 20 18  1  0
 20 22  1  0
 21 20  2  0
M  END
$$$$
