CPI.pdb
     RDKit          3D

 22 22  0  0  1  0  0  0  0  0999 V2000
   10.4596  -18.1114   20.0402 N   0  0  0  0  0  0  0  0  0  0  0  0
    9.2759  -17.4990   20.5412 C   0  0  1  0  0  0  0  0  0  0  0  0
    8.3376  -18.5025   21.1952 C   0  0  0  0  0  0  0  0  0  0  0  0
    7.6286  -19.6288   19.9708 S   0  0  0  0  0  0  0  0  0  0  0  0
    9.5183  -16.3349   21.4278 C   0  0  0  0  0  0  0  0  0  0  0  0
   10.5168  -16.3332   22.2253 O   0  0  0  0  0  0  0  0  0  0  0  0
    8.6860  -15.1857   21.4484 N   0  0  0  0  0  0  0  0  0  0  0  0
    7.5980  -14.9530   20.5381 C   0  0  0  0  0  0  0  0  0  0  0  0
    7.0398  -13.5805   20.8329 C   0  0  0  0  0  0  0  0  0  0  0  0
    8.1155  -12.8868   21.6391 C   0  0  0  0  0  0  0  0  0  0  0  0
    8.7532  -14.0704   22.3381 C   0  0  1  0  0  0  0  0  0  0  0  0
    7.9848  -14.2854   23.5902 C   0  0  0  0  0  0  0  0  0  0  0  0
    6.9458  -14.9902   23.5144 O   0  0  0  0  0  0  0  0  0  0  0  0
   10.5719  -13.9778   28.4471 C   0  0  0  0  0  0  0  0  0  0  0  0
    9.6285  -14.4173   27.3821 C   0  0  0  0  0  0  0  0  0  0  0  0
    8.3531  -13.6675   27.2563 C   0  0  2  0  0  0  0  0  0  0  0  0
    7.6138  -13.5340   28.5639 C   0  0  0  0  0  0  0  0  0  0  0  0
    7.5523  -13.9524   26.0673 C   0  0  2  0  0  0  0  0  0  0  0  0
    8.3673  -13.7402   24.8385 N   0  0  0  0  0  0  0  0  0  0  0  0
    6.3034  -13.2029   25.9743 C   0  0  0  0  0  0  0  0  0  0  0  0
    5.3357  -13.6037   26.7196 O   0  0  0  0  0  0  0  0  0  0  0  0
    6.0555  -12.1144   25.1838 O   0  0  0  0  0  0  0  0  0  0  0  0
  2  1  1  1
  2  5  1  0
  2  3  1  0
  3  4  1  0
  5  6  2  0
  7  5  1  0
  7 11  1  0
  8  7  1  0
  9 10  1  0
  9  8  1  0
 10 11  1  0
 11 12  1  1
 12 19  1  0
 12 13  2  0
 14 15  1  0
 15 16  1  0
 16 17  1  1
 18 16  1  0
 18 19  1  6
 20 18  1  0
 20 22  1  0
 21 20  2  0
M  END
$$$$
