CPI.pdb
     RDKit          3D

 22 22  0  0  1  0  0  0  0  0999 V2000
   11.0191  -16.6068   18.8929 N   0  0  0  0  0  0  0  0  0  0  0  0
   10.0924  -17.0680   19.8705 C   0  0  1  0  0  0  0  0  0  0  0  0
   10.2728  -18.5453   20.1871 C   0  0  0  0  0  0  0  0  0  0  0  0
    9.1811  -19.0635   21.5326 S   0  0  0  0  0  0  0  0  0  0  0  0
   10.0564  -16.2546   21.1103 C   0  0  0  0  0  0  0  0  0  0  0  0
   11.1438  -15.8302   21.6306 O   0  0  0  0  0  0  0  0  0  0  0  0
    8.8536  -15.9058   21.7776 N   0  0  0  0  0  0  0  0  0  0  0  0
    7.5421  -16.3208   21.3601 C   0  0  0  0  0  0  0  0  0  0  0  0
    6.5390  -15.6566   22.2739 C   0  0  0  0  0  0  0  0  0  0  0  0
    7.3007  -14.5294   22.9356 C   0  0  0  0  0  0  0  0  0  0  0  0
    8.7022  -15.1053   22.9508 C   0  0  1  0  0  0  0  0  0  0  0  0
    8.8217  -15.8921   24.2042 C   0  0  0  0  0  0  0  0  0  0  0  0
    8.6647  -17.1372   24.1197 O   0  0  0  0  0  0  0  0  0  0  0  0
    9.7996  -13.5365   29.4395 C   0  0  0  0  0  0  0  0  0  0  0  0
    9.3112  -14.3911   28.3221 C   0  0  0  0  0  0  0  0  0  0  0  0
   10.3340  -15.1254   27.5351 C   0  0  2  0  0  0  0  0  0  0  0  0
   11.5094  -14.2655   27.1438 C   0  0  0  0  0  0  0  0  0  0  0  0
    9.8272  -16.0549   26.5273 C   0  0  2  0  0  0  0  0  0  0  0  0
    9.0995  -15.3087   25.4629 N   0  0  0  0  0  0  0  0  0  0  0  0
    8.9868  -17.1279   27.0492 C   0  0  0  0  0  0  0  0  0  0  0  0
    9.5577  -17.9796   27.8245 O   0  0  0  0  0  0  0  0  0  0  0  0
    7.6542  -17.3193   26.8068 O   0  0  0  0  0  0  0  0  0  0  0  0
  2  1  1  6
  2  5  1  0
  2  3  1  0
  3  4  1  0
  5  6  2  0
  7  5  1  0
  7 11  1  0
  8  7  1  0
  9 10  1  0
  9  8  1  0
 10 11  1  0
 11 12  1  1
 12 19  1  0
 12 13  2  0
 14 15  1  0
 15 16  1  0
 16 17  1  6
 18 16  1  0
 18 19  1  6
 20 18  1  0
 20 22  1  0
 21 20  2  0
M  END
$$$$
