CPI.pdb
     RDKit          3D

 22 22  0  0  1  0  0  0  0  0999 V2000
   11.6946  -17.0672   19.6444 N   0  0  0  0  0  0  0  0  0  0  0  0
   10.2962  -17.0129   19.9066 C   0  0  1  0  0  0  0  0  0  0  0  0
    9.6823  -18.3965   20.0604 C   0  0  0  0  0  0  0  0  0  0  0  0
   10.7947  -19.6784   19.4359 S   0  0  0  0  0  0  0  0  0  0  0  0
    9.9204  -16.1309   21.0383 C   0  0  0  0  0  0  0  0  0  0  0  0
   10.8005  -15.7755   21.8941 O   0  0  0  0  0  0  0  0  0  0  0  0
    8.6041  -15.6401   21.2388 N   0  0  0  0  0  0  0  0  0  0  0  0
    7.4816  -15.9557   20.3979 C   0  0  0  0  0  0  0  0  0  0  0  0
    6.2992  -15.1566   20.8934 C   0  0  0  0  0  0  0  0  0  0  0  0
    6.8979  -14.0701   21.7592 C   0  0  0  0  0  0  0  0  0  0  0  0
    8.1409  -14.7690   22.2716 C   0  0  1  0  0  0  0  0  0  0  0  0
    7.7391  -15.4969   23.5017 C   0  0  0  0  0  0  0  0  0  0  0  0
    7.3618  -16.6893   23.3679 O   0  0  0  0  0  0  0  0  0  0  0  0
    9.2588  -12.5686   27.9161 C   0  0  0  0  0  0  0  0  0  0  0  0
    9.0969  -13.5533   26.8108 C   0  0  0  0  0  0  0  0  0  0  0  0
    8.3801  -14.8144   27.1277 C   0  0  2  0  0  0  0  0  0  0  0  0
    8.8443  -15.4520   28.4131 C   0  0  0  0  0  0  0  0  0  0  0  0
    8.1177  -15.7076   26.0009 C   0  0  2  0  0  0  0  0  0  0  0  0
    7.7636  -14.9143   24.7907 N   0  0  0  0  0  0  0  0  0  0  0  0
    7.1001  -16.7243   26.2475 C   0  0  0  0  0  0  0  0  0  0  0  0
    5.8942  -16.4216   25.9211 O   0  0  0  0  0  0  0  0  0  0  0  0
    7.2945  -17.9684   26.7822 O   0  0  0  0  0  0  0  0  0  0  0  0
  2  1  1  1
  2  5  1  0
  2  3  1  0
  3  4  1  0
  5  6  2  0
  7  5  1  0
  7 11  1  0
  8  7  1  0
  9 10  1  0
  9  8  1  0
 10 11  1  0
 11 12  1  1
 12 19  1  0
 12 13  2  0
 14 15  1  0
 15 16  1  0
 16 17  1  1
 18 16  1  0
 18 19  1  6
 20 18  1  0
 20 22  1  0
 21 20  2  0
M  END
$$$$
