CPI.pdb
     RDKit          3D

 22 22  0  0  1  0  0  0  0  0999 V2000
    7.7315  -17.2539   18.7110 N   0  0  0  0  0  0  0  0  0  0  0  0
    8.2302  -17.7081   19.9649 C   0  0  1  0  0  0  0  0  0  0  0  0
    9.7470  -17.6231   20.0494 C   0  0  0  0  0  0  0  0  0  0  0  0
   10.5311  -18.6805   18.8094 S   0  0  0  0  0  0  0  0  0  0  0  0
    7.5912  -17.0730   21.1431 C   0  0  0  0  0  0  0  0  0  0  0  0
    7.1686  -15.8690   21.0722 O   0  0  0  0  0  0  0  0  0  0  0  0
    7.4129  -17.7374   22.3843 N   0  0  0  0  0  0  0  0  0  0  0  0
    7.8853  -19.0644   22.6717 C   0  0  0  0  0  0  0  0  0  0  0  0
    7.4045  -19.4318   24.0559 C   0  0  0  0  0  0  0  0  0  0  0  0
    6.2964  -18.4474   24.3582 C   0  0  0  0  0  0  0  0  0  0  0  0
    6.7562  -17.2479   23.5544 C   0  0  1  0  0  0  0  0  0  0  0  0
    7.6593  -16.4685   24.4383 C   0  0  0  0  0  0  0  0  0  0  0  0
    8.8662  -16.8200   24.4824 O   0  0  0  0  0  0  0  0  0  0  0  0
    6.2600  -11.4828   27.3015 C   0  0  0  0  0  0  0  0  0  0  0  0
    6.4772  -12.8637   26.7881 C   0  0  0  0  0  0  0  0  0  0  0  0
    7.6071  -13.0654   25.8461 C   0  0  2  0  0  0  0  0  0  0  0  0
    7.4017  -12.3778   24.5198 C   0  0  0  0  0  0  0  0  0  0  0  0
    8.1897  -14.4056   25.8156 C   0  0  2  0  0  0  0  0  0  0  0  0
    7.2248  -15.3694   25.2161 N   0  0  0  0  0  0  0  0  0  0  0  0
    8.6554  -14.9021   27.1065 C   0  0  0  0  0  0  0  0  0  0  0  0
    9.6243  -14.2589   27.6542 O   0  0  0  0  0  0  0  0  0  0  0  0
    8.1652  -15.9749   27.7994 O   0  0  0  0  0  0  0  0  0  0  0  0
  2  1  1  6
  2  5  1  0
  2  3  1  0
  3  4  1  0
  5  6  2  0
  7  5  1  0
  7 11  1  0
  8  7  1  0
  9 10  1  0
  9  8  1  0
 10 11  1  0
 11 12  1  1
 12 19  1  0
 12 13  2  0
 14 15  1  0
 15 16  1  0
 16 17  1  6
 18 16  1  0
 18 19  1  1
 20 18  1  0
 20 22  1  0
 21 20  2  0
M  END
$$$$
