CPI.pdb
     RDKit          3D

 22 22  0  0  1  0  0  0  0  0999 V2000
    6.5324  -19.7749   21.8104 N   0  0  0  0  0  0  0  0  0  0  0  0
    6.3290  -18.4095   22.1589 C   0  0  1  0  0  0  0  0  0  0  0  0
    5.5822  -18.2534   23.4753 C   0  0  0  0  0  0  0  0  0  0  0  0
    6.6021  -18.7819   24.8721 S   0  0  0  0  0  0  0  0  0  0  0  0
    7.5611  -17.5840   22.1404 C   0  0  0  0  0  0  0  0  0  0  0  0
    8.7054  -18.1367   22.2759 O   0  0  0  0  0  0  0  0  0  0  0  0
    7.5512  -16.1745   21.9766 N   0  0  0  0  0  0  0  0  0  0  0  0
    6.3602  -15.3757   21.8760 C   0  0  0  0  0  0  0  0  0  0  0  0
    6.7855  -13.9507   21.6101 C   0  0  0  0  0  0  0  0  0  0  0  0
    8.2200  -14.0529   21.1408 C   0  0  0  0  0  0  0  0  0  0  0  0
    8.6725  -15.2949   21.8816 C   0  0  1  0  0  0  0  0  0  0  0  0
    9.1621  -14.8407   23.2076 C   0  0  0  0  0  0  0  0  0  0  0  0
   10.3091  -14.3265   23.2529 O   0  0  0  0  0  0  0  0  0  0  0  0
    6.0638  -11.9647   26.0550 C   0  0  0  0  0  0  0  0  0  0  0  0
    7.2069  -12.7092   25.4578 C   0  0  0  0  0  0  0  0  0  0  0  0
    7.9705  -13.6112   26.3567 C   0  0  2  0  0  0  0  0  0  0  0  0
    8.4065  -12.9416   27.6357 C   0  0  0  0  0  0  0  0  0  0  0  0
    8.9345  -14.5000   25.7109 C   0  0  2  0  0  0  0  0  0  0  0  0
    8.4051  -14.9610   24.3969 N   0  0  0  0  0  0  0  0  0  0  0  0
    9.3459  -15.6469   26.5142 C   0  0  0  0  0  0  0  0  0  0  0  0
   10.0821  -15.3971   27.5380 O   0  0  0  0  0  0  0  0  0  0  0  0
    9.0251  -16.9590   26.2976 O   0  0  0  0  0  0  0  0  0  0  0  0
  2  1  1  1
  2  5  1  0
  2  3  1  0
  3  4  1  0
  5  6  2  0
  7  5  1  0
  7 11  1  0
  8  7  1  0
  9 10  1  0
  9  8  1  0
 10 11  1  0
 11 12  1  1
 12 19  1  0
 12 13  2  0
 14 15  1  0
 15 16  1  0
 16 17  1  1
 18 16  1  0
 18 19  1  6
 20 18  1  0
 20 22  1  0
 21 20  2  0
M  END
$$$$
