PRF.pdb
     RDKit          3D

 30 31  0  0  1  0  0  0  0  0999 V2000
   27.0021  -17.6390  -17.0236 N   0  0  0  0  0  0  0  0  0  0  0  0
   28.3419  -17.5497  -17.5761 C   0  0  0  0  0  0  0  0  0  0  0  0
   28.2617  -18.2238  -18.9330 C   0  0  0  0  0  0  0  0  0  0  0  0
   27.2402  -19.3125  -18.6951 C   0  0  0  0  0  0  0  0  0  0  0  0
   26.3742  -18.7698  -17.6312 C   0  0  1  0  0  0  0  0  0  0  0  0
   25.9515  -19.7548  -16.6150 C   0  0  0  0  0  0  0  0  0  0  0  0
   25.1536  -20.6540  -16.9793 O   0  0  0  0  0  0  0  0  0  0  0  0
   28.3461  -21.6699   -9.8836 N   0  0  0  0  0  0  0  0  0  0  0  0
   29.4095  -21.7767  -10.8150 C   0  0  0  0  0  0  0  0  0  0  0  0
   30.2496  -22.7466  -10.7255 N   0  0  0  0  0  0  0  0  0  0  0  0
   29.5909  -20.8299  -11.8706 N   0  0  0  0  0  0  0  0  0  0  0  0
   28.8083  -19.6248  -11.9667 C   0  0  0  0  0  0  0  0  0  0  0  0
   27.9036  -19.6448  -13.1903 C   0  0  0  0  0  0  0  0  0  0  0  0
   26.8444  -20.7075  -13.0728 C   0  0  0  0  0  0  0  0  0  0  0  0
   25.9195  -20.6886  -14.2984 C   0  0  2  0  0  0  0  0  0  0  0  0
   26.4105  -19.7167  -15.2676 N   0  0  0  0  0  0  0  0  0  0  0  0
   24.6220  -20.1370  -13.7698 C   0  0  0  0  0  0  0  0  0  0  0  0
   24.5624  -19.0059  -13.2139 O   0  0  0  0  0  0  0  0  0  0  0  0
   31.0563  -22.8596  -11.3503 N   0  0  0  0  0  0  0  0  0  0  0  0
   23.4065  -20.8362  -13.8597 C   0  0  1  0  0  0  0  0  0  0  0  0
   22.1819  -20.2870  -13.4231 C   0  0  0  0  0  0  0  0  0  0  0  0
   21.8314  -18.9306  -13.9289 C   0  0  0  0  0  0  0  0  0  0  0  0
   20.5036  -18.4248  -13.4490 C   0  0  0  0  0  0  0  0  0  0  0  0
   20.3859  -17.8065  -12.2192 C   0  0  0  0  0  0  0  0  0  0  0  0
   19.1548  -17.3595  -11.8025 C   0  0  0  0  0  0  0  0  0  0  0  0
   18.0124  -17.5017  -12.5676 C   0  0  0  0  0  0  0  0  0  0  0  0
   18.1187  -18.1137  -13.7890 C   0  0  0  0  0  0  0  0  0  0  0  0
   19.3589  -18.5603  -14.2006 C   0  0  0  0  0  0  0  0  0  0  0  0
   21.0733  -21.2162  -13.7244 O   0  0  0  0  0  0  0  0  0  0  0  0
   19.9656  -21.3744  -12.8774 O   0  0  0  0  0  0  0  0  0  0  0  0
  1  2  1  0
  3  2  1  0
  4  5  1  0
  4  3  1  0
  5  1  1  0
  6 16  1  0
  5  6  1  1
  7  6  2  0
  9 10  2  0
  9  8  1  0
 11  9  1  0
 12 11  1  0
 12 13  1  0
 14 13  1  0
 15 14  1  1
 15 16  1  0
 17 19  1  0
 17 15  1  0
 18 17  2  0
 20 19  1  0
 20 28  1  0
 21 22  1  0
 20 21  1  1
 22 27  1  0
 23 22  2  0
 23 24  1  0
 24 25  2  0
 25 26  1  0
 27 26  2  0
 28 29  1  0
 30 28  2  0
M  END
$$$$
