PRF.pdb
     RDKit          3D

 30 31  0  0  1  0  0  0  0  0999 V2000
   24.3748  -17.5906  -17.4672 N   0  0  0  0  0  0  0  0  0  0  0  0
   24.1229  -17.2928  -18.8657 C   0  0  0  0  0  0  0  0  0  0  0  0
   22.6996  -17.7513  -19.1231 C   0  0  0  0  0  0  0  0  0  0  0  0
   22.5762  -18.9533  -18.2146 C   0  0  0  0  0  0  0  0  0  0  0  0
   23.5056  -18.6656  -17.1057 C   0  0  1  0  0  0  0  0  0  0  0  0
   24.2724  -19.8320  -16.6229 C   0  0  0  0  0  0  0  0  0  0  0  0
   23.6244  -20.7738  -16.1022 O   0  0  0  0  0  0  0  0  0  0  0  0
   30.2790  -25.4036  -16.1173 N   0  0  0  0  0  0  0  0  0  0  0  0
   29.7718  -25.0359  -17.3890 C   0  0  0  0  0  0  0  0  0  0  0  0
   29.3300  -25.9383  -18.1920 N   0  0  0  0  0  0  0  0  0  0  0  0
   29.7321  -23.6751  -17.8249 N   0  0  0  0  0  0  0  0  0  0  0  0
   29.8595  -22.5697  -16.9106 C   0  0  0  0  0  0  0  0  0  0  0  0
   28.5584  -22.3114  -16.1648 C   0  0  0  0  0  0  0  0  0  0  0  0
   27.7936  -21.1677  -16.7747 C   0  0  0  0  0  0  0  0  0  0  0  0
   26.4003  -21.0482  -16.1404 C   0  0  2  0  0  0  0  0  0  0  0  0
   25.6898  -19.9189  -16.7278 N   0  0  0  0  0  0  0  0  0  0  0  0
   26.6801  -20.6709  -14.7098 C   0  0  0  0  0  0  0  0  0  0  0  0
   27.2313  -19.5760  -14.4107 O   0  0  0  0  0  0  0  0  0  0  0  0
   28.9079  -25.7302  -19.1044 N   0  0  0  0  0  0  0  0  0  0  0  0
   26.3499  -21.5025  -13.6263 C   0  0  2  0  0  0  0  0  0  0  0  0
   26.6064  -21.1399  -12.2866 C   0  0  0  0  0  0  0  0  0  0  0  0
   25.9237  -19.9191  -11.7748 C   0  0  0  0  0  0  0  0  0  0  0  0
   24.4265  -20.0014  -11.8001 C   0  0  0  0  0  0  0  0  0  0  0  0
   23.7196  -20.3606  -10.6687 C   0  0  0  0  0  0  0  0  0  0  0  0
   22.3484  -20.4347  -10.7238 C   0  0  0  0  0  0  0  0  0  0  0  0
   21.6330  -20.1627  -11.8749 C   0  0  0  0  0  0  0  0  0  0  0  0
   22.3250  -19.8056  -13.0023 C   0  0  0  0  0  0  0  0  0  0  0  0
   23.7026  -19.7335  -12.9393 C   0  0  0  0  0  0  0  0  0  0  0  0
   26.3063  -22.2738  -11.3880 O   0  0  0  0  0  0  0  0  0  0  0  0
   25.8238  -23.5053  -11.8570 O   0  0  0  0  0  0  0  0  0  0  0  0
  1  2  1  0
  3  2  1  0
  4  5  1  0
  4  3  1  0
  5  1  1  0
  6 16  1  0
  5  6  1  6
  7  6  2  0
  9 10  2  0
  9  8  1  0
 11  9  1  0
 12 11  1  0
 12 13  1  0
 14 13  1  0
 15 14  1  6
 15 16  1  0
 17 19  1  0
 17 15  1  0
 18 17  2  0
 20 19  1  0
 20 28  1  0
 21 22  1  0
 20 21  1  6
 22 27  1  0
 23 22  2  0
 23 24  1  0
 24 25  2  0
 25 26  1  0
 27 26  2  0
 28 29  1  0
 30 28  2  0
M  END
$$$$
