PRF.pdb
     RDKit          3D

 30 31  0  0  1  0  0  0  0  0999 V2000
   26.2596  -23.2145  -17.0177 N   0  0  0  0  0  0  0  0  0  0  0  0
   26.1617  -24.6611  -17.0955 C   0  0  0  0  0  0  0  0  0  0  0  0
   24.8154  -25.0050  -16.4861 C   0  0  0  0  0  0  0  0  0  0  0  0
   24.6636  -23.9480  -15.4160 C   0  0  0  0  0  0  0  0  0  0  0  0
   25.4279  -22.7971  -15.9333 C   0  0  1  0  0  0  0  0  0  0  0  0
   26.2074  -22.0642  -14.9151 C   0  0  0  0  0  0  0  0  0  0  0  0
   27.3785  -22.4589  -14.6899 O   0  0  0  0  0  0  0  0  0  0  0  0
   24.4620  -17.1583  -15.6777 N   0  0  0  0  0  0  0  0  0  0  0  0
   25.5276  -16.6449  -16.4590 C   0  0  0  0  0  0  0  0  0  0  0  0
   25.3254  -16.3107  -17.6845 N   0  0  0  0  0  0  0  0  0  0  0  0
   26.8456  -16.4817  -15.9299 N   0  0  0  0  0  0  0  0  0  0  0  0
   27.1682  -16.7855  -14.5596 C   0  0  0  0  0  0  0  0  0  0  0  0
   27.3231  -18.2839  -14.3434 C   0  0  0  0  0  0  0  0  0  0  0  0
   26.3758  -18.7873  -13.2878 C   0  0  0  0  0  0  0  0  0  0  0  0
   26.4758  -20.3137  -13.1534 C   0  0  2  0  0  0  0  0  0  0  0  0
   25.6841  -20.9504  -14.1988 N   0  0  0  0  0  0  0  0  0  0  0  0
   25.7763  -20.6137  -11.8543 C   0  0  0  0  0  0  0  0  0  0  0  0
   24.5175  -20.6163  -11.7666 O   0  0  0  0  0  0  0  0  0  0  0  0
   26.0514  -15.9156  -18.2934 N   0  0  0  0  0  0  0  0  0  0  0  0
   26.4699  -20.9074  -10.6681 C   0  0  2  0  0  0  0  0  0  0  0  0
   25.8110  -21.2811   -9.4772 C   0  0  0  0  0  0  0  0  0  0  0  0
   26.6520  -21.8616   -8.3936 C   0  0  0  0  0  0  0  0  0  0  0  0
   27.4472  -20.8462   -7.6282 C   0  0  0  0  0  0  0  0  0  0  0  0
   28.8042  -21.0144   -7.4312 C   0  0  0  0  0  0  0  0  0  0  0  0
   29.5058  -20.0709   -6.7194 C   0  0  0  0  0  0  0  0  0  0  0  0
   28.9085  -18.9453   -6.1839 C   0  0  0  0  0  0  0  0  0  0  0  0
   27.5629  -18.7693   -6.3739 C   0  0  0  0  0  0  0  0  0  0  0  0
   26.8648  -19.7217   -7.0899 C   0  0  0  0  0  0  0  0  0  0  0  0
   25.0509  -20.1348   -8.9371 O   0  0  0  0  0  0  0  0  0  0  0  0
   25.3352  -18.8054   -9.2852 O   0  0  0  0  0  0  0  0  0  0  0  0
  1  2  1  0
  3  2  1  0
  4  5  1  0
  4  3  1  0
  5  1  1  0
  6 16  1  0
  5  6  1  1
  7  6  2  0
  9 10  2  0
  9  8  1  0
 11  9  1  0
 12 11  1  0
 12 13  1  0
 14 13  1  0
 15 14  1  6
 15 16  1  0
 17 19  1  0
 17 15  1  0
 18 17  2  0
 20 19  1  0
 20 28  1  0
 21 22  1  0
 20 21  1  6
 22 27  1  0
 23 22  2  0
 23 24  1  0
 24 25  2  0
 25 26  1  0
 27 26  2  0
 28 29  1  0
 30 28  2  0
M  END
$$$$
