PRF.pdb
     RDKit          3D

 30 31  0  0  1  0  0  0  0  0999 V2000
   21.1146  -16.5738  -16.7485 N   0  0  0  0  0  0  0  0  0  0  0  0
   20.7221  -15.4704  -15.8903 C   0  0  0  0  0  0  0  0  0  0  0  0
   21.9241  -14.5452  -15.8520 C   0  0  0  0  0  0  0  0  0  0  0  0
   23.0820  -15.5131  -15.9393 C   0  0  0  0  0  0  0  0  0  0  0  0
   22.5400  -16.6585  -16.6947 C   0  0  1  0  0  0  0  0  0  0  0  0
   22.9774  -17.9828  -16.2085 C   0  0  0  0  0  0  0  0  0  0  0  0
   22.4210  -18.4313  -15.1755 O   0  0  0  0  0  0  0  0  0  0  0  0
   28.5911  -24.6329  -16.9841 N   0  0  0  0  0  0  0  0  0  0  0  0
   27.2635  -25.1298  -17.0043 C   0  0  0  0  0  0  0  0  0  0  0  0
   26.9925  -26.2662  -16.4663 N   0  0  0  0  0  0  0  0  0  0  0  0
   26.1918  -24.4051  -17.6124 N   0  0  0  0  0  0  0  0  0  0  0  0
   26.2855  -22.9996  -17.9123 C   0  0  0  0  0  0  0  0  0  0  0  0
   25.6141  -22.1554  -16.8388 C   0  0  0  0  0  0  0  0  0  0  0  0
   25.0939  -20.8610  -17.4036 C   0  0  0  0  0  0  0  0  0  0  0  0
   24.3993  -20.0339  -16.3120 C   0  0  2  0  0  0  0  0  0  0  0  0
   23.9860  -18.7480  -16.8603 N   0  0  0  0  0  0  0  0  0  0  0  0
   25.4959  -19.7370  -15.3238 C   0  0  0  0  0  0  0  0  0  0  0  0
   26.2290  -18.7164  -15.4370 O   0  0  0  0  0  0  0  0  0  0  0  0
   26.0403  -26.6379  -16.3716 N   0  0  0  0  0  0  0  0  0  0  0  0
   25.7720  -20.5662  -14.2235 C   0  0  2  0  0  0  0  0  0  0  0  0
   26.8269  -20.3049  -13.3231 C   0  0  0  0  0  0  0  0  0  0  0  0
   26.5711  -19.2963  -12.2574 C   0  0  0  0  0  0  0  0  0  0  0  0
   25.4915  -19.6882  -11.2930 C   0  0  0  0  0  0  0  0  0  0  0  0
   25.8071  -20.2072  -10.0522 C   0  0  0  0  0  0  0  0  0  0  0  0
   24.7964  -20.5643   -9.1920 C   0  0  0  0  0  0  0  0  0  0  0  0
   23.4594  -20.4263   -9.5150 C   0  0  0  0  0  0  0  0  0  0  0  0
   23.1361  -19.9124  -10.7434 C   0  0  0  0  0  0  0  0  0  0  0  0
   24.1571  -19.5561  -11.6023 C   0  0  0  0  0  0  0  0  0  0  0  0
   27.2832  -21.5634  -12.6975 O   0  0  0  0  0  0  0  0  0  0  0  0
   26.6354  -22.7909  -12.9044 O   0  0  0  0  0  0  0  0  0  0  0  0
  1  2  1  0
  3  2  1  0
  4  5  1  0
  4  3  1  0
  5  1  1  0
  6 16  1  0
  5  6  1  1
  7  6  2  0
  9 10  2  0
  9  8  1  0
 11  9  1  0
 12 11  1  0
 12 13  1  0
 14 13  1  0
 15 14  1  6
 15 16  1  0
 17 19  1  0
 17 15  1  0
 18 17  2  0
 20 19  1  0
 20 28  1  0
 21 22  1  0
 20 21  1  6
 22 27  1  0
 23 22  2  0
 23 24  1  0
 24 25  2  0
 25 26  1  0
 27 26  2  0
 28 29  1  0
 30 28  2  0
M  END
$$$$
