PRF.pdb
     RDKit          3D

 30 31  0  0  1  0  0  0  0  0999 V2000
   21.5590  -18.1996  -15.5259 N   0  0  0  0  0  0  0  0  0  0  0  0
   20.8146  -18.0436  -16.7626 C   0  0  0  0  0  0  0  0  0  0  0  0
   19.5962  -18.9353  -16.6123 C   0  0  0  0  0  0  0  0  0  0  0  0
   20.1336  -20.0837  -15.7891 C   0  0  0  0  0  0  0  0  0  0  0  0
   21.2190  -19.4809  -14.9923 C   0  0  1  0  0  0  0  0  0  0  0  0
   22.4180  -20.3295  -14.8381 C   0  0  0  0  0  0  0  0  0  0  0  0
   22.2585  -21.4677  -14.3309 O   0  0  0  0  0  0  0  0  0  0  0  0
   27.8768  -24.7782  -16.5021 N   0  0  0  0  0  0  0  0  0  0  0  0
   27.3027  -24.5045  -17.7690 C   0  0  0  0  0  0  0  0  0  0  0  0
   26.8551  -25.4671  -18.4953 N   0  0  0  0  0  0  0  0  0  0  0  0
   27.2001  -23.1747  -18.2837 N   0  0  0  0  0  0  0  0  0  0  0  0
   27.5710  -22.0187  -17.5090 C   0  0  0  0  0  0  0  0  0  0  0  0
   26.7550  -21.9219  -16.2281 C   0  0  0  0  0  0  0  0  0  0  0  0
   25.5942  -20.9771  -16.3864 C   0  0  0  0  0  0  0  0  0  0  0  0
   24.8648  -20.7859  -15.0488 C   0  0  2  0  0  0  0  0  0  0  0  0
   23.7176  -19.9066  -15.2377 N   0  0  0  0  0  0  0  0  0  0  0  0
   25.8468  -20.0202  -14.2022 C   0  0  0  0  0  0  0  0  0  0  0  0
   26.4038  -18.9693  -14.6233 O   0  0  0  0  0  0  0  0  0  0  0  0
   26.3597  -25.3265  -19.3833 N   0  0  0  0  0  0  0  0  0  0  0  0
   26.2033  -20.4199  -12.9031 C   0  0  2  0  0  0  0  0  0  0  0  0
   27.4869  -20.1879  -12.3640 C   0  0  0  0  0  0  0  0  0  0  0  0
   27.8963  -21.0321  -11.2073 C   0  0  0  0  0  0  0  0  0  0  0  0
   27.0995  -20.7866   -9.9606 C   0  0  0  0  0  0  0  0  0  0  0  0
   27.5133  -19.8527   -9.0304 C   0  0  0  0  0  0  0  0  0  0  0  0
   26.7667  -19.6543   -7.8937 C   0  0  0  0  0  0  0  0  0  0  0  0
   25.6041  -20.3556   -7.6340 C   0  0  0  0  0  0  0  0  0  0  0  0
   25.1853  -21.2841   -8.5505 C   0  0  0  0  0  0  0  0  0  0  0  0
   25.9409  -21.4780   -9.6901 C   0  0  0  0  0  0  0  0  0  0  0  0
   28.5095  -20.2941  -13.4253 O   0  0  0  0  0  0  0  0  0  0  0  0
   28.5196  -21.3349  -14.3666 O   0  0  0  0  0  0  0  0  0  0  0  0
  1  2  1  0
  3  2  1  0
  4  5  1  0
  4  3  1  0
  5  1  1  0
  6 16  1  0
  5  6  1  6
  7  6  2  0
  9 10  2  0
  9  8  1  0
 11  9  1  0
 12 11  1  0
 12 13  1  0
 14 13  1  0
 15 14  1  6
 15 16  1  0
 17 19  1  0
 17 15  1  0
 18 17  2  0
 20 19  1  0
 20 28  1  0
 21 22  1  0
 20 21  1  6
 22 27  1  0
 23 22  2  0
 23 24  1  0
 24 25  2  0
 25 26  1  0
 27 26  2  0
 28 29  1  0
 30 28  2  0
M  END
$$$$
