PRF.pdb
     RDKit          3D

 30 31  0  0  1  0  0  0  0  0999 V2000
   29.1115  -22.7491  -15.5565 N   0  0  0  0  0  0  0  0  0  0  0  0
   29.1797  -23.5705  -16.7518 C   0  0  0  0  0  0  0  0  0  0  0  0
   29.6936  -22.6492  -17.8424 C   0  0  0  0  0  0  0  0  0  0  0  0
   29.0899  -21.3185  -17.4548 C   0  0  0  0  0  0  0  0  0  0  0  0
   28.9556  -21.3958  -15.9877 C   0  0  1  0  0  0  0  0  0  0  0  0
   27.7146  -20.8039  -15.4481 C   0  0  0  0  0  0  0  0  0  0  0  0
   27.4763  -19.6037  -15.7322 O   0  0  0  0  0  0  0  0  0  0  0  0
   23.6397  -26.1147  -14.3346 N   0  0  0  0  0  0  0  0  0  0  0  0
   22.5433  -25.2283  -14.1866 C   0  0  0  0  0  0  0  0  0  0  0  0
   21.5733  -25.5292  -13.3973 N   0  0  0  0  0  0  0  0  0  0  0  0
   22.4695  -23.9886  -14.8947 N   0  0  0  0  0  0  0  0  0  0  0  0
   23.4720  -23.5849  -15.8465 C   0  0  0  0  0  0  0  0  0  0  0  0
   24.6707  -22.9498  -15.1568 C   0  0  0  0  0  0  0  0  0  0  0  0
   24.3558  -21.5576  -14.6797 C   0  0  0  0  0  0  0  0  0  0  0  0
   25.6107  -20.8853  -14.1040 C   0  0  2  0  0  0  0  0  0  0  0  0
   26.8023  -21.5354  -14.6356 N   0  0  0  0  0  0  0  0  0  0  0  0
   25.5666  -21.2223  -12.6372 C   0  0  0  0  0  0  0  0  0  0  0  0
   25.7368  -22.4026  -12.2248 O   0  0  0  0  0  0  0  0  0  0  0  0
   20.7668  -24.9169  -13.2283 N   0  0  0  0  0  0  0  0  0  0  0  0
   25.3364  -20.2570  -11.6425 C   0  0  1  0  0  0  0  0  0  0  0  0
   25.2117  -20.5904  -10.2767 C   0  0  0  0  0  0  0  0  0  0  0  0
   25.7836  -19.6303   -9.2921 C   0  0  0  0  0  0  0  0  0  0  0  0
   27.0976  -20.0616   -8.7120 C   0  0  0  0  0  0  0  0  0  0  0  0
   27.8706  -21.0152   -9.3458 C   0  0  0  0  0  0  0  0  0  0  0  0
   29.0670  -21.3961   -8.7868 C   0  0  0  0  0  0  0  0  0  0  0  0
   29.5400  -20.8618   -7.6029 C   0  0  0  0  0  0  0  0  0  0  0  0
   28.7806  -19.9152   -6.9666 C   0  0  0  0  0  0  0  0  0  0  0  0
   27.5796  -19.5378   -7.5343 C   0  0  0  0  0  0  0  0  0  0  0  0
   23.7938  -20.8378   -9.9424 O   0  0  0  0  0  0  0  0  0  0  0  0
   22.7454  -20.5574  -10.8321 O   0  0  0  0  0  0  0  0  0  0  0  0
  1  2  1  0
  3  2  1  0
  4  5  1  0
  4  3  1  0
  5  1  1  0
  6 16  1  0
  5  6  1  6
  7  6  2  0
  9 10  2  0
  9  8  1  0
 11  9  1  0
 12 11  1  0
 12 13  1  0
 14 13  1  0
 15 14  1  6
 15 16  1  0
 17 19  1  0
 17 15  1  0
 18 17  2  0
 20 19  1  0
 20 28  1  0
 21 22  1  0
 20 21  1  1
 22 27  1  0
 23 22  2  0
 23 24  1  0
 24 25  2  0
 25 26  1  0
 27 26  2  0
 28 29  1  0
 30 28  2  0
M  END
$$$$
