PRF.pdb
     RDKit          3D

 30 31  0  0  1  0  0  0  0  0999 V2000
   27.1714  -18.3290  -16.3887 N   0  0  0  0  0  0  0  0  0  0  0  0
   27.9302  -17.1206  -16.6570 C   0  0  0  0  0  0  0  0  0  0  0  0
   29.2886  -17.3508  -16.0215 C   0  0  0  0  0  0  0  0  0  0  0  0
   28.9431  -18.1868  -14.8102 C   0  0  0  0  0  0  0  0  0  0  0  0
   27.7255  -18.9173  -15.2102 C   0  0  1  0  0  0  0  0  0  0  0  0
   26.7058  -19.0477  -14.1495 C   0  0  0  0  0  0  0  0  0  0  0  0
   25.9496  -18.0643  -13.9515 O   0  0  0  0  0  0  0  0  0  0  0  0
   21.7181  -24.3387  -12.8306 N   0  0  0  0  0  0  0  0  0  0  0  0
   22.3460  -24.0705  -14.0729 C   0  0  0  0  0  0  0  0  0  0  0  0
   21.6444  -24.0063  -15.1490 N   0  0  0  0  0  0  0  0  0  0  0  0
   23.7567  -23.8657  -14.1809 N   0  0  0  0  0  0  0  0  0  0  0  0
   24.6397  -23.9768  -13.0486 C   0  0  0  0  0  0  0  0  0  0  0  0
   25.4944  -22.7284  -12.8847 C   0  0  0  0  0  0  0  0  0  0  0  0
   24.6527  -21.5270  -12.5480 C   0  0  0  0  0  0  0  0  0  0  0  0
   25.5367  -20.2912  -12.3257 C   0  0  2  0  0  0  0  0  0  0  0  0
   26.5577  -20.2261  -13.3641 N   0  0  0  0  0  0  0  0  0  0  0  0
   26.2625  -20.5865  -11.0400 C   0  0  0  0  0  0  0  0  0  0  0  0
   27.3743  -21.1832  -11.0306 O   0  0  0  0  0  0  0  0  0  0  0  0
   22.0413  -23.8132  -16.0759 N   0  0  0  0  0  0  0  0  0  0  0  0
   25.7567  -20.2215   -9.7809 C   0  0  1  0  0  0  0  0  0  0  0  0
   26.4540  -20.4769   -8.5806 C   0  0  0  0  0  0  0  0  0  0  0  0
   27.2983  -19.3743   -8.0424 C   0  0  0  0  0  0  0  0  0  0  0  0
   27.8569  -19.6445   -6.6770 C   0  0  0  0  0  0  0  0  0  0  0  0
   27.2911  -19.0688   -5.5558 C   0  0  0  0  0  0  0  0  0  0  0  0
   27.8291  -19.3289   -4.3181 C   0  0  0  0  0  0  0  0  0  0  0  0
   28.9255  -20.1516   -4.1401 C   0  0  0  0  0  0  0  0  0  0  0  0
   29.4939  -20.7274   -5.2460 C   0  0  0  0  0  0  0  0  0  0  0  0
   28.9479  -20.4612   -6.4862 C   0  0  0  0  0  0  0  0  0  0  0  0
   25.5125  -20.9204   -7.5317 O   0  0  0  0  0  0  0  0  0  0  0  0
   25.8846  -21.7966   -6.5007 O   0  0  0  0  0  0  0  0  0  0  0  0
  1  2  1  0
  3  2  1  0
  4  5  1  0
  4  3  1  0
  5  1  1  0
  6 16  1  0
  5  6  1  1
  7  6  2  0
  9 10  2  0
  9  8  1  0
 11  9  1  0
 12 11  1  0
 12 13  1  0
 14 13  1  0
 15 14  1  6
 15 16  1  0
 17 19  1  0
 17 15  1  0
 18 17  2  0
 20 19  1  0
 20 28  1  0
 21 22  1  0
 20 21  1  1
 22 27  1  0
 23 22  2  0
 23 24  1  0
 24 25  2  0
 25 26  1  0
 27 26  2  0
 28 29  1  0
 30 28  2  0
M  END
$$$$
