PRF.pdb
     RDKit          3D

 30 31  0  0  1  0  0  0  0  0999 V2000
   20.5435  -25.4328  -17.9557 N   0  0  0  0  0  0  0  0  0  0  0  0
   20.8349  -25.8771  -19.3069 C   0  0  0  0  0  0  0  0  0  0  0  0
   21.3173  -27.3084  -19.1630 C   0  0  0  0  0  0  0  0  0  0  0  0
   22.0403  -27.2756  -17.8357 C   0  0  0  0  0  0  0  0  0  0  0  0
   21.3523  -26.2153  -17.0750 C   0  0  1  0  0  0  0  0  0  0  0  0
   22.2418  -25.3583  -16.2653 C   0  0  0  0  0  0  0  0  0  0  0  0
   22.6160  -25.8035  -15.1518 O   0  0  0  0  0  0  0  0  0  0  0  0
   28.3075  -20.9615  -14.7929 N   0  0  0  0  0  0  0  0  0  0  0  0
   28.3627  -21.4411  -16.1258 C   0  0  0  0  0  0  0  0  0  0  0  0
   29.3197  -22.2187  -16.4918 N   0  0  0  0  0  0  0  0  0  0  0  0
   27.3785  -21.0872  -17.1003 N   0  0  0  0  0  0  0  0  0  0  0  0
   26.1094  -20.5104  -16.7385 C   0  0  0  0  0  0  0  0  0  0  0  0
   25.2867  -21.4656  -15.8861 C   0  0  0  0  0  0  0  0  0  0  0  0
   24.3761  -22.3127  -16.7336 C   0  0  0  0  0  0  0  0  0  0  0  0
   23.5647  -23.2788  -15.8583 C   0  0  2  0  0  0  0  0  0  0  0  0
   22.6778  -24.0739  -16.6987 N   0  0  0  0  0  0  0  0  0  0  0  0
   22.6759  -22.3768  -15.0438 C   0  0  0  0  0  0  0  0  0  0  0  0
   21.7659  -21.6864  -15.5797 O   0  0  0  0  0  0  0  0  0  0  0  0
   29.4400  -22.5587  -17.4530 N   0  0  0  0  0  0  0  0  0  0  0  0
   22.7988  -22.2459  -13.6502 C   0  0  2  0  0  0  0  0  0  0  0  0
   22.0688  -21.2905  -12.9111 C   0  0  0  0  0  0  0  0  0  0  0  0
   22.2030  -21.3371  -11.4285 C   0  0  0  0  0  0  0  0  0  0  0  0
   23.6211  -21.2906  -10.9425 C   0  0  0  0  0  0  0  0  0  0  0  0
   24.0322  -20.3141  -10.0560 C   0  0  0  0  0  0  0  0  0  0  0  0
   25.3398  -20.2920   -9.6336 C   0  0  0  0  0  0  0  0  0  0  0  0
   26.2765  -21.2147  -10.0604 C   0  0  0  0  0  0  0  0  0  0  0  0
   25.8785  -22.1873  -10.9397 C   0  0  0  0  0  0  0  0  0  0  0  0
   24.5631  -22.2028  -11.3597 C   0  0  0  0  0  0  0  0  0  0  0  0
   22.3934  -19.9283  -13.3828 O   0  0  0  0  0  0  0  0  0  0  0  0
   21.6186  -18.8065  -13.0503 O   0  0  0  0  0  0  0  0  0  0  0  0
  1  2  1  0
  3  2  1  0
  4  5  1  0
  4  3  1  0
  5  1  1  0
  6 16  1  0
  5  6  1  6
  7  6  2  0
  9 10  2  0
  9  8  1  0
 11  9  1  0
 12 11  1  0
 12 13  1  0
 14 13  1  0
 15 14  1  6
 15 16  1  0
 17 19  1  0
 17 15  1  0
 18 17  2  0
 20 19  1  0
 20 28  1  0
 21 22  1  0
 20 21  1  1
 22 27  1  0
 23 22  2  0
 23 24  1  0
 24 25  2  0
 25 26  1  0
 27 26  2  0
 28 29  1  0
 30 28  2  0
M  END
$$$$
