PRF.pdb
     RDKit          3D

 30 31  0  0  1  0  0  0  0  0999 V2000
   27.5610  -17.9855  -16.3132 N   0  0  0  0  0  0  0  0  0  0  0  0
   28.6893  -17.0718  -16.3228 C   0  0  0  0  0  0  0  0  0  0  0  0
   29.8625  -17.8781  -15.7979 C   0  0  0  0  0  0  0  0  0  0  0  0
   29.2019  -18.8000  -14.7984 C   0  0  0  0  0  0  0  0  0  0  0  0
   27.8316  -18.9732  -15.3166 C   0  0  1  0  0  0  0  0  0  0  0  0
   26.7769  -18.9904  -14.2828 C   0  0  0  0  0  0  0  0  0  0  0  0
   26.0694  -17.9593  -14.1625 O   0  0  0  0  0  0  0  0  0  0  0  0
   20.2753  -20.0568  -12.1224 N   0  0  0  0  0  0  0  0  0  0  0  0
   20.2115  -21.1716  -11.2491 C   0  0  0  0  0  0  0  0  0  0  0  0
   19.3022  -21.2277  -10.3411 N   0  0  0  0  0  0  0  0  0  0  0  0
   21.1368  -22.2577  -11.3371 N   0  0  0  0  0  0  0  0  0  0  0  0
   22.2419  -22.2546  -12.2606 C   0  0  0  0  0  0  0  0  0  0  0  0
   23.2825  -21.2115  -11.8798 C   0  0  0  0  0  0  0  0  0  0  0  0
   24.4242  -21.1913  -12.8602 C   0  0  0  0  0  0  0  0  0  0  0  0
   25.4378  -20.0991  -12.4891 C   0  0  2  0  0  0  0  0  0  0  0  0
   26.5433  -20.1135  -13.4393 N   0  0  0  0  0  0  0  0  0  0  0  0
   26.0077  -20.5598  -11.1738 C   0  0  0  0  0  0  0  0  0  0  0  0
   26.7205  -21.5975  -11.0895 O   0  0  0  0  0  0  0  0  0  0  0  0
   19.1557  -22.0415   -9.7326 N   0  0  0  0  0  0  0  0  0  0  0  0
   25.7866  -19.8732   -9.9679 C   0  0  1  0  0  0  0  0  0  0  0  0
   26.3511  -20.2905   -8.7434 C   0  0  0  0  0  0  0  0  0  0  0  0
   27.2699  -19.3358   -8.0632 C   0  0  0  0  0  0  0  0  0  0  0  0
   27.6917  -19.7682   -6.6904 C   0  0  0  0  0  0  0  0  0  0  0  0
   27.1768  -19.1517   -5.5664 C   0  0  0  0  0  0  0  0  0  0  0  0
   27.5875  -19.5643   -4.3214 C   0  0  0  0  0  0  0  0  0  0  0  0
   28.5048  -20.5821   -4.1387 C   0  0  0  0  0  0  0  0  0  0  0  0
   29.0213  -21.1999   -5.2473 C   0  0  0  0  0  0  0  0  0  0  0  0
   28.6041  -20.7796   -6.4949 C   0  0  0  0  0  0  0  0  0  0  0  0
   25.2836  -20.6874   -7.8020 O   0  0  0  0  0  0  0  0  0  0  0  0
   23.9931  -20.1377   -7.8441 O   0  0  0  0  0  0  0  0  0  0  0  0
  1  2  1  0
  3  2  1  0
  4  5  1  0
  4  3  1  0
  5  1  1  0
  6 16  1  0
  5  6  1  1
  7  6  2  0
  9 10  2  0
  9  8  1  0
 11  9  1  0
 12 11  1  0
 12 13  1  0
 14 13  1  0
 15 14  1  6
 15 16  1  0
 17 19  1  0
 17 15  1  0
 18 17  2  0
 20 19  1  0
 20 28  1  0
 21 22  1  0
 20 21  1  1
 22 27  1  0
 23 22  2  0
 23 24  1  0
 24 25  2  0
 25 26  1  0
 27 26  2  0
 28 29  1  0
 30 28  2  0
M  END
$$$$
