PRF.pdb
     RDKit          3D

 30 31  0  0  1  0  0  0  0  0999 V2000
   27.4669  -16.8625  -15.8550 N   0  0  0  0  0  0  0  0  0  0  0  0
   28.1346  -16.2082  -16.9659 C   0  0  0  0  0  0  0  0  0  0  0  0
   27.0292  -15.5348  -17.7576 C   0  0  0  0  0  0  0  0  0  0  0  0
   25.8723  -16.4913  -17.5785 C   0  0  0  0  0  0  0  0  0  0  0  0
   26.1241  -17.1225  -16.2691 C   0  0  1  0  0  0  0  0  0  0  0  0
   25.8178  -18.5661  -16.2092 C   0  0  0  0  0  0  0  0  0  0  0  0
   24.6211  -18.9099  -16.3755 O   0  0  0  0  0  0  0  0  0  0  0  0
   27.8662  -26.6090  -15.6748 N   0  0  0  0  0  0  0  0  0  0  0  0
   27.1755  -26.5021  -16.9081 C   0  0  0  0  0  0  0  0  0  0  0  0
   26.3813  -27.4409  -17.2854 N   0  0  0  0  0  0  0  0  0  0  0  0
   27.3300  -25.3708  -17.7683 N   0  0  0  0  0  0  0  0  0  0  0  0
   27.9874  -24.1628  -17.3408 C   0  0  0  0  0  0  0  0  0  0  0  0
   27.0586  -23.2870  -16.5122 C   0  0  0  0  0  0  0  0  0  0  0  0
   27.4354  -21.8337  -16.6173 C   0  0  0  0  0  0  0  0  0  0  0  0
   26.4381  -20.9583  -15.8448 C   0  0  2  0  0  0  0  0  0  0  0  0
   26.8143  -19.5559  -15.9747 N   0  0  0  0  0  0  0  0  0  0  0  0
   26.6698  -21.3242  -14.4027 C   0  0  0  0  0  0  0  0  0  0  0  0
   27.7992  -21.7079  -13.9915 O   0  0  0  0  0  0  0  0  0  0  0  0
   25.8633  -27.4256  -18.1716 N   0  0  0  0  0  0  0  0  0  0  0  0
   25.6566  -21.2630  -13.4311 C   0  0  1  0  0  0  0  0  0  0  0  0
   25.9315  -21.2787  -12.0469 C   0  0  0  0  0  0  0  0  0  0  0  0
   26.9003  -20.2678  -11.5392 C   0  0  0  0  0  0  0  0  0  0  0  0
   27.0859  -20.2940  -10.0512 C   0  0  0  0  0  0  0  0  0  0  0  0
   27.9572  -21.1909   -9.4638 C   0  0  0  0  0  0  0  0  0  0  0  0
   28.1013  -21.1967   -8.0970 C   0  0  0  0  0  0  0  0  0  0  0  0
   27.4051  -20.3346   -7.2706 C   0  0  0  0  0  0  0  0  0  0  0  0
   26.5384  -19.4413   -7.8437 C   0  0  0  0  0  0  0  0  0  0  0  0
   26.3989  -19.4416   -9.2176 C   0  0  0  0  0  0  0  0  0  0  0  0
   24.6739  -21.1708  -11.2787 O   0  0  0  0  0  0  0  0  0  0  0  0
   24.5664  -21.5775   -9.9399 O   0  0  0  0  0  0  0  0  0  0  0  0
  1  2  1  0
  3  2  1  0
  4  5  1  0
  4  3  1  0
  5  1  1  0
  6 16  1  0
  5  6  1  6
  7  6  2  0
  9 10  2  0
  9  8  1  0
 11  9  1  0
 12 11  1  0
 12 13  1  0
 14 13  1  0
 15 14  1  6
 15 16  1  0
 17 19  1  0
 17 15  1  0
 18 17  2  0
 20 19  1  0
 20 28  1  0
 21 22  1  0
 20 21  1  1
 22 27  1  0
 23 22  2  0
 23 24  1  0
 24 25  2  0
 25 26  1  0
 27 26  2  0
 28 29  1  0
 30 28  2  0
M  END
$$$$
