PRF.pdb
     RDKit          3D

 30 31  0  0  1  0  0  0  0  0999 V2000
   28.4511  -18.7083  -15.2078 N   0  0  0  0  0  0  0  0  0  0  0  0
   28.3282  -18.5169  -16.6418 C   0  0  0  0  0  0  0  0  0  0  0  0
   27.9324  -17.0630  -16.8197 C   0  0  0  0  0  0  0  0  0  0  0  0
   27.0789  -16.8069  -15.5984 C   0  0  0  0  0  0  0  0  0  0  0  0
   27.6131  -17.7340  -14.5829 C   0  0  1  0  0  0  0  0  0  0  0  0
   26.5902  -18.3770  -13.7332 C   0  0  0  0  0  0  0  0  0  0  0  0
   25.7557  -17.6278  -13.1671 O   0  0  0  0  0  0  0  0  0  0  0  0
   24.0565  -25.9567  -15.7536 N   0  0  0  0  0  0  0  0  0  0  0  0
   23.8322  -25.5028  -14.4295 C   0  0  0  0  0  0  0  0  0  0  0  0
   22.9965  -26.1185  -13.6700 N   0  0  0  0  0  0  0  0  0  0  0  0
   24.5099  -24.3640  -13.8933 N   0  0  0  0  0  0  0  0  0  0  0  0
   25.5240  -23.6544  -14.6295 C   0  0  0  0  0  0  0  0  0  0  0  0
   26.0784  -22.4855  -13.8281 C   0  0  0  0  0  0  0  0  0  0  0  0
   24.9736  -21.6548  -13.2326 C   0  0  0  0  0  0  0  0  0  0  0  0
   25.5341  -20.3563  -12.6347 C   0  0  2  0  0  0  0  0  0  0  0  0
   26.5230  -19.7863  -13.5415 N   0  0  0  0  0  0  0  0  0  0  0  0
   26.2934  -20.8116  -11.4168 C   0  0  0  0  0  0  0  0  0  0  0  0
   27.5440  -20.9772  -11.4412 O   0  0  0  0  0  0  0  0  0  0  0  0
   22.8338  -25.8727  -12.6867 N   0  0  0  0  0  0  0  0  0  0  0  0
   25.6676  -21.0785  -10.1873 C   0  0  1  0  0  0  0  0  0  0  0  0
   26.3501  -20.9930   -8.9549 C   0  0  0  0  0  0  0  0  0  0  0  0
   27.0717  -19.7218   -8.6692 C   0  0  0  0  0  0  0  0  0  0  0  0
   27.6962  -19.6677   -7.3067 C   0  0  0  0  0  0  0  0  0  0  0  0
   27.0723  -19.0016   -6.2697 C   0  0  0  0  0  0  0  0  0  0  0  0
   27.6720  -18.9625   -5.0337 C   0  0  0  0  0  0  0  0  0  0  0  0
   28.8878  -19.5676   -4.7759 C   0  0  0  0  0  0  0  0  0  0  0  0
   29.5147  -20.2309   -5.7979 C   0  0  0  0  0  0  0  0  0  0  0  0
   28.9060  -20.2656   -7.0371 C   0  0  0  0  0  0  0  0  0  0  0  0
   25.4237  -21.2834   -7.8409 O   0  0  0  0  0  0  0  0  0  0  0  0
   25.7899  -22.0662   -6.7353 O   0  0  0  0  0  0  0  0  0  0  0  0
  1  2  1  0
  3  2  1  0
  4  5  1  0
  4  3  1  0
  5  1  1  0
  6 16  1  0
  5  6  1  6
  7  6  2  0
  9 10  2  0
  9  8  1  0
 11  9  1  0
 12 11  1  0
 12 13  1  0
 14 13  1  0
 15 14  1  6
 15 16  1  0
 17 19  1  0
 17 15  1  0
 18 17  2  0
 20 19  1  0
 20 28  1  0
 21 22  1  0
 20 21  1  1
 22 27  1  0
 23 22  2  0
 23 24  1  0
 24 25  2  0
 25 26  1  0
 27 26  2  0
 28 29  1  0
 30 28  2  0
M  END
$$$$
