PRF.pdb
     RDKit          3D

 30 31  0  0  1  0  0  0  0  0999 V2000
   27.1069  -21.6166  -14.9304 N   0  0  0  0  0  0  0  0  0  0  0  0
   26.5110  -21.6019  -16.2544 C   0  0  0  0  0  0  0  0  0  0  0  0
   27.0444  -20.3470  -16.9200 C   0  0  0  0  0  0  0  0  0  0  0  0
   27.1651  -19.3886  -15.7571 C   0  0  0  0  0  0  0  0  0  0  0  0
   27.4087  -20.2613  -14.5929 C   0  0  1  0  0  0  0  0  0  0  0  0
   26.7119  -19.8520  -13.3565 C   0  0  0  0  0  0  0  0  0  0  0  0
   26.8370  -18.6564  -12.9920 O   0  0  0  0  0  0  0  0  0  0  0  0
   21.3599  -19.6075  -14.8968 N   0  0  0  0  0  0  0  0  0  0  0  0
   20.6854  -20.8383  -14.6971 C   0  0  0  0  0  0  0  0  0  0  0  0
   19.6970  -21.1617  -15.4540 N   0  0  0  0  0  0  0  0  0  0  0  0
   21.0660  -21.7529  -13.6665 N   0  0  0  0  0  0  0  0  0  0  0  0
   21.5147  -21.3104  -12.3716 C   0  0  0  0  0  0  0  0  0  0  0  0
   22.8448  -20.5767  -12.4642 C   0  0  0  0  0  0  0  0  0  0  0  0
   23.8013  -21.0370  -11.3973 C   0  0  0  0  0  0  0  0  0  0  0  0
   25.1184  -20.2514  -11.4749 C   0  0  2  0  0  0  0  0  0  0  0  0
   25.9216  -20.7501  -12.5844 N   0  0  0  0  0  0  0  0  0  0  0  0
   25.8507  -20.6390  -10.2177 C   0  0  0  0  0  0  0  0  0  0  0  0
   26.1293  -21.8422   -9.9594 O   0  0  0  0  0  0  0  0  0  0  0  0
   19.1779  -22.0430  -15.3658 N   0  0  0  0  0  0  0  0  0  0  0  0
   26.2677  -19.6984   -9.2607 C   0  0  1  0  0  0  0  0  0  0  0  0
   26.9251  -20.0703   -8.0684 C   0  0  0  0  0  0  0  0  0  0  0  0
   27.7750  -19.0363   -7.4150 C   0  0  0  0  0  0  0  0  0  0  0  0
   28.3881  -19.4798   -6.1201 C   0  0  0  0  0  0  0  0  0  0  0  0
   27.8658  -19.0615   -4.9115 C   0  0  0  0  0  0  0  0  0  0  0  0
   28.4531  -19.4783   -3.7409 C   0  0  0  0  0  0  0  0  0  0  0  0
   29.5580  -20.3086   -3.7160 C   0  0  0  0  0  0  0  0  0  0  0  0
   30.0835  -20.7290   -4.9096 C   0  0  0  0  0  0  0  0  0  0  0  0
   29.4880  -20.3058   -6.0816 C   0  0  0  0  0  0  0  0  0  0  0  0
   25.9455  -20.5809   -7.0872 O   0  0  0  0  0  0  0  0  0  0  0  0
   26.2816  -21.5179   -6.0981 O   0  0  0  0  0  0  0  0  0  0  0  0
  1  2  1  0
  3  2  1  0
  4  5  1  0
  4  3  1  0
  5  1  1  0
  6 16  1  0
  5  6  1  1
  7  6  2  0
  9 10  2  0
  9  8  1  0
 11  9  1  0
 12 11  1  0
 12 13  1  0
 14 13  1  0
 15 14  1  1
 15 16  1  0
 17 19  1  0
 17 15  1  0
 18 17  2  0
 20 19  1  0
 20 28  1  0
 21 22  1  0
 20 21  1  1
 22 27  1  0
 23 22  2  0
 23 24  1  0
 24 25  2  0
 25 26  1  0
 27 26  2  0
 28 29  1  0
 30 28  2  0
M  END
$$$$
