PRF.pdb
     RDKit          3D

 30 31  0  0  1  0  0  0  0  0999 V2000
   26.5354  -17.4784  -19.4147 N   0  0  0  0  0  0  0  0  0  0  0  0
   26.0893  -16.3363  -20.1923 C   0  0  0  0  0  0  0  0  0  0  0  0
   26.1852  -15.1492  -19.2522 C   0  0  0  0  0  0  0  0  0  0  0  0
   25.8509  -15.7670  -17.9135 C   0  0  0  0  0  0  0  0  0  0  0  0
   26.2949  -17.1681  -18.0407 C   0  0  1  0  0  0  0  0  0  0  0  0
   25.3951  -18.1610  -17.4195 C   0  0  0  0  0  0  0  0  0  0  0  0
   24.4847  -18.6443  -18.1376 O   0  0  0  0  0  0  0  0  0  0  0  0
   23.5311  -24.3262  -13.5357 N   0  0  0  0  0  0  0  0  0  0  0  0
   24.9356  -24.1511  -13.6156 C   0  0  0  0  0  0  0  0  0  0  0  0
   25.6556  -25.0021  -14.2573 N   0  0  0  0  0  0  0  0  0  0  0  0
   25.5982  -23.0452  -12.9979 N   0  0  0  0  0  0  0  0  0  0  0  0
   24.8797  -21.9133  -12.4720 C   0  0  0  0  0  0  0  0  0  0  0  0
   24.2282  -21.1026  -13.5830 C   0  0  0  0  0  0  0  0  0  0  0  0
   25.2440  -20.2844  -14.3339 C   0  0  0  0  0  0  0  0  0  0  0  0
   24.5807  -19.5306  -15.4957 C   0  0  2  0  0  0  0  0  0  0  0  0
   25.5257  -18.5771  -16.0640 N   0  0  0  0  0  0  0  0  0  0  0  0
   23.5038  -18.7122  -14.8342 C   0  0  0  0  0  0  0  0  0  0  0  0
   23.7814  -17.7215  -14.1037 O   0  0  0  0  0  0  0  0  0  0  0  0
   26.6776  -24.9399  -14.3328 N   0  0  0  0  0  0  0  0  0  0  0  0
   22.1354  -18.9935  -14.9846 C   0  0  2  0  0  0  0  0  0  0  0  0
   21.1267  -18.1270  -14.5115 C   0  0  0  0  0  0  0  0  0  0  0  0
   20.9566  -16.8331  -15.2291 C   0  0  0  0  0  0  0  0  0  0  0  0
   20.7970  -16.9751  -16.7136 C   0  0  0  0  0  0  0  0  0  0  0  0
   21.8113  -16.5978  -17.5723 C   0  0  0  0  0  0  0  0  0  0  0  0
   21.6338  -16.7327  -18.9285 C   0  0  0  0  0  0  0  0  0  0  0  0
   20.4711  -17.2358  -19.4814 C   0  0  0  0  0  0  0  0  0  0  0  0
   19.4591  -17.6129  -18.6381 C   0  0  0  0  0  0  0  0  0  0  0  0
   19.6448  -17.4741  -17.2767 C   0  0  0  0  0  0  0  0  0  0  0  0
   19.8290  -18.8325  -14.4733 O   0  0  0  0  0  0  0  0  0  0  0  0
   19.6712  -20.1537  -14.9193 O   0  0  0  0  0  0  0  0  0  0  0  0
  1  2  1  0
  3  2  1  0
  4  5  1  0
  4  3  1  0
  5  1  1  0
  6 16  1  0
  5  6  1  6
  7  6  2  0
  9 10  2  0
  9  8  1  0
 11  9  1  0
 12 11  1  0
 12 13  1  0
 14 13  1  0
 15 14  1  1
 15 16  1  0
 17 19  1  0
 17 15  1  0
 18 17  2  0
 20 19  1  0
 20 28  1  0
 21 22  1  0
 20 21  1  6
 22 27  1  0
 23 22  2  0
 23 24  1  0
 24 25  2  0
 25 26  1  0
 27 26  2  0
 28 29  1  0
 30 28  2  0
M  END
$$$$
