PRF.pdb
     RDKit          3D

 30 31  0  0  1  0  0  0  0  0999 V2000
   28.0507  -18.4334  -17.6925 N   0  0  0  0  0  0  0  0  0  0  0  0
   27.4962  -17.4293  -18.5828 C   0  0  0  0  0  0  0  0  0  0  0  0
   27.4920  -16.1411  -17.7810 C   0  0  0  0  0  0  0  0  0  0  0  0
   27.2263  -16.6335  -16.3766 C   0  0  0  0  0  0  0  0  0  0  0  0
   27.7946  -17.9947  -16.3569 C   0  0  1  0  0  0  0  0  0  0  0  0
   26.9938  -18.9887  -15.6136 C   0  0  0  0  0  0  0  0  0  0  0  0
   26.3083  -19.7979  -16.2868 O   0  0  0  0  0  0  0  0  0  0  0  0
   25.0177  -20.7860   -6.8355 N   0  0  0  0  0  0  0  0  0  0  0  0
   24.2315  -21.5131   -7.7644 C   0  0  0  0  0  0  0  0  0  0  0  0
   23.1323  -22.0639   -7.3864 N   0  0  0  0  0  0  0  0  0  0  0  0
   24.6193  -21.6635   -9.1321 N   0  0  0  0  0  0  0  0  0  0  0  0
   25.2376  -20.5984   -9.8786 C   0  0  0  0  0  0  0  0  0  0  0  0
   25.5744  -21.0354  -11.2969 C   0  0  0  0  0  0  0  0  0  0  0  0
   26.4042  -20.0005  -12.0079 C   0  0  0  0  0  0  0  0  0  0  0  0
   26.0998  -20.0025  -13.5130 C   0  0  2  0  0  0  0  0  0  0  0  0
   26.9764  -19.0558  -14.1914 N   0  0  0  0  0  0  0  0  0  0  0  0
   24.7101  -19.4304  -13.6064 C   0  0  0  0  0  0  0  0  0  0  0  0
   24.4698  -18.2268  -13.3134 O   0  0  0  0  0  0  0  0  0  0  0  0
   22.5375  -22.6285   -8.0040 N   0  0  0  0  0  0  0  0  0  0  0  0
   23.6025  -20.1890  -14.0212 C   0  0  1  0  0  0  0  0  0  0  0  0
   22.2943  -19.6608  -14.0624 C   0  0  0  0  0  0  0  0  0  0  0  0
   21.6998  -19.4336  -15.4090 C   0  0  0  0  0  0  0  0  0  0  0  0
   22.2937  -18.2730  -16.1502 C   0  0  0  0  0  0  0  0  0  0  0  0
   21.8528  -16.9849  -15.9157 C   0  0  0  0  0  0  0  0  0  0  0  0
   22.4106  -15.9418  -16.6153 C   0  0  0  0  0  0  0  0  0  0  0  0
   23.4068  -16.1238  -17.5563 C   0  0  0  0  0  0  0  0  0  0  0  0
   23.8510  -17.3977  -17.7961 C   0  0  0  0  0  0  0  0  0  0  0  0
   23.2855  -18.4407  -17.0893 C   0  0  0  0  0  0  0  0  0  0  0  0
   21.3804  -20.5070  -13.2674 O   0  0  0  0  0  0  0  0  0  0  0  0
   20.0410  -20.1615  -13.0311 O   0  0  0  0  0  0  0  0  0  0  0  0
  1  2  1  0
  3  2  1  0
  4  5  1  0
  4  3  1  0
  5  1  1  0
  6 16  1  0
  5  6  1  6
  7  6  2  0
  9 10  2  0
  9  8  1  0
 11  9  1  0
 12 11  1  0
 12 13  1  0
 14 13  1  0
 15 14  1  1
 15 16  1  0
 17 19  1  0
 17 15  1  0
 18 17  2  0
 20 19  1  0
 20 28  1  0
 21 22  1  0
 20 21  1  6
 22 27  1  0
 23 22  2  0
 23 24  1  0
 24 25  2  0
 25 26  1  0
 27 26  2  0
 28 29  1  0
 30 28  2  0
M  END
$$$$
