PRF.pdb
     RDKit          3D

 30 31  0  0  1  0  0  0  0  0999 V2000
   27.8239  -19.7617  -15.1031 N   0  0  0  0  0  0  0  0  0  0  0  0
   29.0824  -19.9231  -15.8089 C   0  0  0  0  0  0  0  0  0  0  0  0
   28.9896  -19.0004  -17.0098 C   0  0  0  0  0  0  0  0  0  0  0  0
   27.5190  -19.0628  -17.3546 C   0  0  0  0  0  0  0  0  0  0  0  0
   26.8565  -19.3373  -16.0654 C   0  0  1  0  0  0  0  0  0  0  0  0
   25.7270  -20.2861  -16.1400 C   0  0  0  0  0  0  0  0  0  0  0  0
   24.7731  -19.9895  -16.9016 O   0  0  0  0  0  0  0  0  0  0  0  0
   21.7043  -25.9851  -13.6194 N   0  0  0  0  0  0  0  0  0  0  0  0
   21.8910  -27.0349  -14.5536 C   0  0  0  0  0  0  0  0  0  0  0  0
   21.0420  -27.9989  -14.6179 N   0  0  0  0  0  0  0  0  0  0  0  0
   23.0086  -27.0672  -15.4446 N   0  0  0  0  0  0  0  0  0  0  0  0
   24.1432  -26.1941  -15.2883 C   0  0  0  0  0  0  0  0  0  0  0  0
   23.7344  -24.7304  -15.3680 C   0  0  0  0  0  0  0  0  0  0  0  0
   24.9287  -23.8203  -15.2656 C   0  0  0  0  0  0  0  0  0  0  0  0
   24.5097  -22.3541  -15.4463 C   0  0  2  0  0  0  0  0  0  0  0  0
   25.6882  -21.4978  -15.3931 N   0  0  0  0  0  0  0  0  0  0  0  0
   23.7098  -22.0464  -14.2084 C   0  0  0  0  0  0  0  0  0  0  0  0
   23.9727  -22.5886  -13.0998 O   0  0  0  0  0  0  0  0  0  0  0  0
   21.0686  -28.7331  -15.3350 N   0  0  0  0  0  0  0  0  0  0  0  0
   22.6311  -21.1460  -14.2052 C   0  0  1  0  0  0  0  0  0  0  0  0
   21.8488  -20.9039  -13.0557 C   0  0  0  0  0  0  0  0  0  0  0  0
   22.3729  -19.9087  -12.0793 C   0  0  0  0  0  0  0  0  0  0  0  0
   23.4939  -20.4231  -11.2260 C   0  0  0  0  0  0  0  0  0  0  0  0
   24.8023  -20.3586  -11.6646 C   0  0  0  0  0  0  0  0  0  0  0  0
   25.8082  -20.8445  -10.8640 C   0  0  0  0  0  0  0  0  0  0  0  0
   25.5684  -21.4027   -9.6223 C   0  0  0  0  0  0  0  0  0  0  0  0
   24.2739  -21.4712   -9.1783 C   0  0  0  0  0  0  0  0  0  0  0  0
   23.2687  -20.9811   -9.9885 C   0  0  0  0  0  0  0  0  0  0  0  0
   20.4769  -20.5199  -13.4474 O   0  0  0  0  0  0  0  0  0  0  0  0
   20.0930  -20.3402  -14.7852 O   0  0  0  0  0  0  0  0  0  0  0  0
  1  2  1  0
  3  2  1  0
  4  5  1  0
  4  3  1  0
  5  1  1  0
  6 16  1  0
  5  6  1  6
  7  6  2  0
  9 10  2  0
  9  8  1  0
 11  9  1  0
 12 11  1  0
 12 13  1  0
 14 13  1  0
 15 14  1  1
 15 16  1  0
 17 19  1  0
 17 15  1  0
 18 17  2  0
 20 19  1  0
 20 28  1  0
 21 22  1  0
 20 21  1  1
 22 27  1  0
 23 22  2  0
 23 24  1  0
 24 25  2  0
 25 26  1  0
 27 26  2  0
 28 29  1  0
 30 28  2  0
M  END
$$$$
