PRF.pdb
     RDKit          3D

 30 31  0  0  1  0  0  0  0  0999 V2000
   25.8902  -15.3659  -16.6146 N   0  0  0  0  0  0  0  0  0  0  0  0
   25.1127  -14.1993  -16.2367 C   0  0  0  0  0  0  0  0  0  0  0  0
   25.7898  -13.6517  -14.9942 C   0  0  0  0  0  0  0  0  0  0  0  0
   26.2898  -14.9072  -14.3166 C   0  0  0  0  0  0  0  0  0  0  0  0
   26.5208  -15.8502  -15.4272 C   0  0  1  0  0  0  0  0  0  0  0  0
   26.1272  -17.2457  -15.1458 C   0  0  0  0  0  0  0  0  0  0  0  0
   25.0003  -17.6214  -15.5543 O   0  0  0  0  0  0  0  0  0  0  0  0
   26.3196  -24.9466  -16.2816 N   0  0  0  0  0  0  0  0  0  0  0  0
   27.0243  -24.1404  -17.2106 C   0  0  0  0  0  0  0  0  0  0  0  0
   26.8577  -24.3171  -18.4737 N   0  0  0  0  0  0  0  0  0  0  0  0
   27.9326  -23.1188  -16.7921 N   0  0  0  0  0  0  0  0  0  0  0  0
   28.1970  -22.8456  -15.4031 C   0  0  0  0  0  0  0  0  0  0  0  0
   27.1553  -21.9065  -14.8124 C   0  0  0  0  0  0  0  0  0  0  0  0
   27.6331  -20.4794  -14.8240 C   0  0  0  0  0  0  0  0  0  0  0  0
   26.5545  -19.5424  -14.2613 C   0  0  2  0  0  0  0  0  0  0  0  0
   26.9667  -18.1560  -14.4429 N   0  0  0  0  0  0  0  0  0  0  0  0
   26.5838  -19.7991  -12.7779 C   0  0  0  0  0  0  0  0  0  0  0  0
   27.6304  -19.6188  -12.0965 O   0  0  0  0  0  0  0  0  0  0  0  0
   27.2925  -23.7272  -19.1926 N   0  0  0  0  0  0  0  0  0  0  0  0
   25.4618  -20.2505  -12.0626 C   0  0  1  0  0  0  0  0  0  0  0  0
   25.5649  -20.8467  -10.7875 C   0  0  0  0  0  0  0  0  0  0  0  0
   25.0973  -20.0410   -9.6254 C   0  0  0  0  0  0  0  0  0  0  0  0
   26.1733  -19.7248   -8.6297 C   0  0  0  0  0  0  0  0  0  0  0  0
   26.6552  -18.4369   -8.4956 C   0  0  0  0  0  0  0  0  0  0  0  0
   27.6468  -18.1783   -7.5798 C   0  0  0  0  0  0  0  0  0  0  0  0
   28.1924  -19.1608   -6.7748 C   0  0  0  0  0  0  0  0  0  0  0  0
   27.7211  -20.4413   -6.9002 C   0  0  0  0  0  0  0  0  0  0  0  0
   26.7249  -20.6934   -7.8228 C   0  0  0  0  0  0  0  0  0  0  0  0
   24.8723  -22.1518  -10.7804 O   0  0  0  0  0  0  0  0  0  0  0  0
   24.9101  -23.0238   -9.6815 O   0  0  0  0  0  0  0  0  0  0  0  0
  1  2  1  0
  3  2  1  0
  4  5  1  0
  4  3  1  0
  5  1  1  0
  6 16  1  0
  5  6  1  1
  7  6  2  0
  9 10  2  0
  9  8  1  0
 11  9  1  0
 12 11  1  0
 12 13  1  0
 14 13  1  0
 15 14  1  6
 15 16  1  0
 17 19  1  0
 17 15  1  0
 18 17  2  0
 20 19  1  0
 20 28  1  0
 21 22  1  0
 20 21  1  1
 22 27  1  0
 23 22  2  0
 23 24  1  0
 24 25  2  0
 25 26  1  0
 27 26  2  0
 28 29  1  0
 30 28  2  0
M  END
$$$$
