ALD.pdb
     RDKit          3D

 22 21  0  0  1  0  0  0  0  0999 V2000
   21.1587  -10.4555  -20.0068 C   0  0  0  0  0  0  0  0  0  0  0  0
   22.2497  -11.2540  -19.3295 C   0  0  2  0  0  0  0  0  0  0  0  0
   21.7762  -12.6122  -19.0208 N   0  0  0  0  0  0  0  0  0  0  0  0
   22.6532  -10.6205  -18.0579 C   0  0  0  0  0  0  0  0  0  0  0  0
   21.8856  -10.6699  -17.0662 O   0  0  0  0  0  0  0  0  0  0  0  0
   27.7968  -10.3593  -16.1374 C   0  0  0  0  0  0  0  0  0  0  0  0
   26.2694  -10.4983  -16.2524 C   0  0  1  0  0  0  0  0  0  0  0  0
   25.7932  -10.9298  -14.8601 C   0  0  0  0  0  0  0  0  0  0  0  0
   25.6898   -9.1307  -16.4697 C   0  0  0  0  0  0  0  0  0  0  0  0
   24.2638   -9.1682  -16.7618 C   0  0  2  0  0  0  0  0  0  0  0  0
   23.8764   -9.9560  -17.9091 N   0  0  0  0  0  0  0  0  0  0  0  0
   23.7458   -7.7980  -17.0221 C   0  0  0  0  0  0  0  0  0  0  0  0
   23.8764   -7.1626  -18.0940 O   0  0  0  0  0  0  0  0  0  0  0  0
   23.0250   -7.0877  -15.9979 N   0  0  0  0  0  0  0  0  0  0  0  0
   22.4344   -5.7878  -16.2998 C   0  0  1  0  0  0  0  0  0  0  0  0
   21.4479   -6.0325  -17.3999 C   0  0  0  0  0  0  0  0  0  0  0  0
   20.9289   -4.8425  -18.0693 C   0  0  0  0  0  0  0  0  0  0  0  0
   19.6696   -4.7497  -18.1635 O   0  0  0  0  0  0  0  0  0  0  0  0
   21.7789   -5.2488  -15.0767 C   0  0  0  0  0  0  0  0  0  0  0  0
   21.4560   -3.8911  -15.0696 O   0  0  0  0  0  0  0  0  0  0  0  0
   21.6491   -3.8074  -18.6122 O   0  0  0  0  0  0  0  0  0  0  0  0
   21.5054   -5.9309  -14.0721 O   0  0  0  0  0  0  0  0  0  0  0  0
  2  1  1  1
  2  4  1  0
  2  3  1  0
  4  5  2  0
  7  6  1  1
  7  9  1  0
  8  7  1  0
 10  9  1  6
 10 11  1  0
 10 12  1  0
 11  4  1  0
 12 14  1  0
 13 12  2  0
 14 15  1  0
 15 19  1  0
 16 17  1  0
 15 16  1  6
 17 18  2  0
 19 22  2  0
 19 20  1  0
 21 17  1  0
M  END
$$$$
