ALD.pdb
     RDKit          3D

 22 21  0  0  1  0  0  0  0  0999 V2000
   20.2231  -12.3652  -17.7317 C   0  0  0  0  0  0  0  0  0  0  0  0
   20.5839  -10.9522  -18.1313 C   0  0  2  0  0  0  0  0  0  0  0  0
   21.4681  -10.9605  -19.3071 N   0  0  0  0  0  0  0  0  0  0  0  0
   21.2987  -10.2625  -17.0384 C   0  0  0  0  0  0  0  0  0  0  0  0
   20.7629  -10.1652  -15.9077 O   0  0  0  0  0  0  0  0  0  0  0  0
   26.6943  -10.4690  -16.1032 C   0  0  0  0  0  0  0  0  0  0  0  0
   25.1638  -10.4204  -15.9587 C   0  0  1  0  0  0  0  0  0  0  0  0
   24.8868  -10.6653  -14.4704 C   0  0  0  0  0  0  0  0  0  0  0  0
   24.7128   -9.0137  -16.2255 C   0  0  0  0  0  0  0  0  0  0  0  0
   23.2624   -8.8859  -16.2435 C   0  0  2  0  0  0  0  0  0  0  0  0
   22.5702   -9.7031  -17.2130 N   0  0  0  0  0  0  0  0  0  0  0  0
   22.8633   -7.4840  -16.5417 C   0  0  0  0  0  0  0  0  0  0  0  0
   22.6914   -7.0047  -17.6865 O   0  0  0  0  0  0  0  0  0  0  0  0
   22.6400   -6.5492  -15.4697 N   0  0  0  0  0  0  0  0  0  0  0  0
   22.1729   -5.2004  -15.7734 C   0  0  1  0  0  0  0  0  0  0  0  0
   20.8562   -5.3701  -16.4668 C   0  0  0  0  0  0  0  0  0  0  0  0
   20.1536   -4.1376  -16.8146 C   0  0  0  0  0  0  0  0  0  0  0  0
   20.7766   -3.0541  -16.6116 O   0  0  0  0  0  0  0  0  0  0  0  0
   22.0376   -4.4294  -14.5070 C   0  0  0  0  0  0  0  0  0  0  0  0
   21.7438   -3.0694  -14.6144 O   0  0  0  0  0  0  0  0  0  0  0  0
   18.8903   -4.0144  -17.3377 O   0  0  0  0  0  0  0  0  0  0  0  0
   22.1696   -4.9220  -13.3716 O   0  0  0  0  0  0  0  0  0  0  0  0
  2  1  1  1
  2  4  1  0
  2  3  1  0
  4  5  2  0
  7  6  1  1
  7  9  1  0
  8  7  1  0
 10  9  1  6
 10 11  1  0
 10 12  1  0
 11  4  1  0
 12 14  1  0
 13 12  2  0
 14 15  1  0
 15 19  1  0
 16 17  1  0
 15 16  1  1
 17 18  2  0
 19 22  2  0
 19 20  1  0
 21 17  1  0
M  END
$$$$
