ALD.pdb
     RDKit          3D

 22 21  0  0  1  0  0  0  0  0999 V2000
   27.2542  -18.8741  -16.5299 C   0  0  0  0  0  0  0  0  0  0  0  0
   27.7871  -19.8506  -15.5058 C   0  0  2  0  0  0  0  0  0  0  0  0
   28.5922  -20.8934  -16.1604 N   0  0  0  0  0  0  0  0  0  0  0  0
   26.6813  -20.5206  -14.7921 C   0  0  0  0  0  0  0  0  0  0  0  0
   26.1773  -21.5674  -15.2667 O   0  0  0  0  0  0  0  0  0  0  0  0
   26.0420  -20.3470   -9.1962 C   0  0  0  0  0  0  0  0  0  0  0  0
   26.2152  -20.7546  -10.6690 C   0  0  1  0  0  0  0  0  0  0  0  0
   26.1313  -22.2857  -10.6810 C   0  0  0  0  0  0  0  0  0  0  0  0
   25.0119  -20.2800  -11.4308 C   0  0  0  0  0  0  0  0  0  0  0  0
   25.0750  -20.6221  -12.8447 C   0  0  2  0  0  0  0  0  0  0  0  0
   26.1624  -20.0292  -13.5882 N   0  0  0  0  0  0  0  0  0  0  0  0
   23.8320  -20.1966  -13.5430 C   0  0  0  0  0  0  0  0  0  0  0  0
   23.5265  -19.0157  -13.8290 O   0  0  0  0  0  0  0  0  0  0  0  0
   22.8577  -21.1749  -13.9513 N   0  0  0  0  0  0  0  0  0  0  0  0
   21.6614  -20.7465  -14.6690 C   0  0  1  0  0  0  0  0  0  0  0  0
   21.3666  -21.8327  -15.6572 C   0  0  0  0  0  0  0  0  0  0  0  0
   20.1972  -21.6234  -16.5071 C   0  0  0  0  0  0  0  0  0  0  0  0
   19.5999  -20.5135  -16.3851 O   0  0  0  0  0  0  0  0  0  0  0  0
   20.5463  -20.5604  -13.7003 C   0  0  0  0  0  0  0  0  0  0  0  0
   20.6947  -21.1333  -12.4365 O   0  0  0  0  0  0  0  0  0  0  0  0
   19.6655  -22.4929  -17.4268 O   0  0  0  0  0  0  0  0  0  0  0  0
   19.5020  -19.9306  -13.9495 O   0  0  0  0  0  0  0  0  0  0  0  0
  2  1  1  6
  2  4  1  0
  2  3  1  0
  4  5  2  0
  7  6  1  1
  7  9  1  0
  8  7  1  0
 10  9  1  1
 10 11  1  0
 10 12  1  0
 11  4  1  0
 12 14  1  0
 13 12  2  0
 14 15  1  0
 15 19  1  0
 16 17  1  0
 15 16  1  6
 17 18  2  0
 19 22  2  0
 19 20  1  0
 21 17  1  0
M  END
$$$$
