ALD.pdb
     RDKit          3D

 22 21  0  0  1  0  0  0  0  0999 V2000
   28.2273  -22.2257  -15.6525 C   0  0  0  0  0  0  0  0  0  0  0  0
   27.0575  -21.2905  -15.8606 C   0  0  2  0  0  0  0  0  0  0  0  0
   27.4653  -19.8969  -15.6242 N   0  0  0  0  0  0  0  0  0  0  0  0
   25.9614  -21.6018  -14.9211 C   0  0  0  0  0  0  0  0  0  0  0  0
   25.4099  -22.7286  -14.9587 O   0  0  0  0  0  0  0  0  0  0  0  0
   26.0833  -20.1969   -9.6674 C   0  0  0  0  0  0  0  0  0  0  0  0
   25.8781  -20.9437  -10.9962 C   0  0  1  0  0  0  0  0  0  0  0  0
   25.4731  -22.3698  -10.6042 C   0  0  0  0  0  0  0  0  0  0  0  0
   24.6774  -20.3587  -11.6815 C   0  0  0  0  0  0  0  0  0  0  0  0
   24.4599  -20.9231  -13.0060 C   0  0  2  0  0  0  0  0  0  0  0  0
   25.5035  -20.6778  -13.9743 N   0  0  0  0  0  0  0  0  0  0  0  0
   23.2148  -20.3772  -13.6104 C   0  0  0  0  0  0  0  0  0  0  0  0
   22.8710  -19.1723  -13.6042 O   0  0  0  0  0  0  0  0  0  0  0  0
   22.2847  -21.2539  -14.2731 N   0  0  0  0  0  0  0  0  0  0  0  0
   21.0873  -20.6988  -14.8959 C   0  0  1  0  0  0  0  0  0  0  0  0
   20.9867  -21.3498  -16.2410 C   0  0  0  0  0  0  0  0  0  0  0  0
   19.8154  -20.9934  -17.0375 C   0  0  0  0  0  0  0  0  0  0  0  0
   19.0893  -20.0577  -16.5894 O   0  0  0  0  0  0  0  0  0  0  0  0
   19.9043  -21.0004  -14.0438 C   0  0  0  0  0  0  0  0  0  0  0  0
   18.8126  -20.1360  -14.1360 O   0  0  0  0  0  0  0  0  0  0  0  0
   19.4057  -21.5567  -18.2205 O   0  0  0  0  0  0  0  0  0  0  0  0
   19.8336  -21.9676  -13.2635 O   0  0  0  0  0  0  0  0  0  0  0  0
  2  1  1  1
  2  4  1  0
  2  3  1  0
  4  5  2  0
  7  6  1  1
  7  9  1  0
  8  7  1  0
 10  9  1  1
 10 11  1  0
 10 12  1  0
 11  4  1  0
 12 14  1  0
 13 12  2  0
 14 15  1  0
 15 19  1  0
 16 17  1  0
 15 16  1  6
 17 18  2  0
 19 22  2  0
 19 20  1  0
 21 17  1  0
M  END
$$$$
