ALD.pdb
     RDKit          3D

 22 21  0  0  1  0  0  0  0  0999 V2000
   17.7619   -8.7968  -19.8019 C   0  0  0  0  0  0  0  0  0  0  0  0
   18.4533  -10.0506  -19.3156 C   0  0  2  0  0  0  0  0  0  0  0  0
   17.4915  -11.1583  -19.2060 N   0  0  0  0  0  0  0  0  0  0  0  0
   19.0475   -9.8396  -17.9802 C   0  0  0  0  0  0  0  0  0  0  0  0
   18.3012   -9.7158  -16.9788 O   0  0  0  0  0  0  0  0  0  0  0  0
   21.8912  -10.1985  -13.7574 C   0  0  0  0  0  0  0  0  0  0  0  0
   22.8702   -9.8490  -14.8910 C   0  0  1  0  0  0  0  0  0  0  0  0
   24.0677  -10.7874  -14.6995 C   0  0  0  0  0  0  0  0  0  0  0  0
   22.2439  -10.2568  -16.1929 C   0  0  0  0  0  0  0  0  0  0  0  0
   21.0789   -9.4506  -16.5292 C   0  0  2  0  0  0  0  0  0  0  0  0
   20.4315   -9.7706  -17.7804 N   0  0  0  0  0  0  0  0  0  0  0  0
   21.4465   -8.0120  -16.6237 C   0  0  0  0  0  0  0  0  0  0  0  0
   22.1495   -7.4987  -17.5250 O   0  0  0  0  0  0  0  0  0  0  0  0
   20.9879   -7.0787  -15.6280 N   0  0  0  0  0  0  0  0  0  0  0  0
   21.3950   -5.6795  -15.7079 C   0  0  1  0  0  0  0  0  0  0  0  0
   20.1714   -4.9207  -16.1208 C   0  0  0  0  0  0  0  0  0  0  0  0
   20.2955   -3.4654  -16.1321 C   0  0  0  0  0  0  0  0  0  0  0  0
   21.4420   -2.9968  -16.3957 O   0  0  0  0  0  0  0  0  0  0  0  0
   21.8999   -5.2370  -14.3791 C   0  0  0  0  0  0  0  0  0  0  0  0
   22.9818   -4.3557  -14.3671 O   0  0  0  0  0  0  0  0  0  0  0  0
   19.3108   -2.5403  -15.8884 O   0  0  0  0  0  0  0  0  0  0  0  0
   21.4184   -5.6032  -13.2913 O   0  0  0  0  0  0  0  0  0  0  0  0
  2  1  1  1
  2  4  1  0
  2  3  1  0
  4  5  2  0
  7  6  1  1
  7  9  1  0
  8  7  1  0
 10  9  1  6
 10 11  1  0
 10 12  1  0
 11  4  1  0
 12 14  1  0
 13 12  2  0
 14 15  1  0
 15 19  1  0
 16 17  1  0
 15 16  1  1
 17 18  2  0
 19 22  2  0
 19 20  1  0
 21 17  1  0
M  END
$$$$
