ALD.pdb
     RDKit          3D

 22 21  0  0  1  0  0  0  0  0999 V2000
   20.5899  -12.4480  -19.3487 C   0  0  0  0  0  0  0  0  0  0  0  0
   21.9885  -12.5031  -18.7766 C   0  0  2  0  0  0  0  0  0  0  0  0
   22.2699  -13.8416  -18.2350 N   0  0  0  0  0  0  0  0  0  0  0  0
   22.1450  -11.5321  -17.6749 C   0  0  0  0  0  0  0  0  0  0  0  0
   21.3445  -11.5521  -16.7085 O   0  0  0  0  0  0  0  0  0  0  0  0
   27.0793   -9.8305  -16.0014 C   0  0  0  0  0  0  0  0  0  0  0  0
   25.6264  -10.3332  -16.0451 C   0  0  1  0  0  0  0  0  0  0  0  0
   25.2758  -10.6937  -14.5964 C   0  0  0  0  0  0  0  0  0  0  0  0
   24.7401   -9.1738  -16.3967 C   0  0  0  0  0  0  0  0  0  0  0  0
   23.3615   -9.5767  -16.6358 C   0  0  2  0  0  0  0  0  0  0  0  0
   23.1658  -10.5741  -17.6624 N   0  0  0  0  0  0  0  0  0  0  0  0
   22.5379   -8.4085  -17.0486 C   0  0  0  0  0  0  0  0  0  0  0  0
   22.4546   -7.9524  -18.2126 O   0  0  0  0  0  0  0  0  0  0  0  0
   21.7467   -7.6986  -16.0775 N   0  0  0  0  0  0  0  0  0  0  0  0
   20.9457   -6.5531  -16.4969 C   0  0  1  0  0  0  0  0  0  0  0  0
   19.5821   -7.0955  -16.7966 C   0  0  0  0  0  0  0  0  0  0  0  0
   18.6397   -6.1572  -17.4008 C   0  0  0  0  0  0  0  0  0  0  0  0
   19.0681   -4.9856  -17.6184 O   0  0  0  0  0  0  0  0  0  0  0  0
   20.9135   -5.5468  -15.4002 C   0  0  0  0  0  0  0  0  0  0  0  0
   20.2786   -4.3326  -15.6647 O   0  0  0  0  0  0  0  0  0  0  0  0
   17.3369   -6.3964  -17.7617 O   0  0  0  0  0  0  0  0  0  0  0  0
   21.4141   -5.7240  -14.2744 O   0  0  0  0  0  0  0  0  0  0  0  0
  2  1  1  1
  2  4  1  0
  2  3  1  0
  4  5  2  0
  7  6  1  1
  7  9  1  0
  8  7  1  0
 10  9  1  6
 10 11  1  0
 10 12  1  0
 11  4  1  0
 12 14  1  0
 13 12  2  0
 14 15  1  0
 15 19  1  0
 16 17  1  0
 15 16  1  1
 17 18  2  0
 19 22  2  0
 19 20  1  0
 21 17  1  0
M  END
$$$$
