ALD.pdb
     RDKit          3D

 22 21  0  0  1  0  0  0  0  0999 V2000
   17.3057  -11.5703  -16.7823 C   0  0  0  0  0  0  0  0  0  0  0  0
   18.0413  -10.3183  -17.2042 C   0  0  2  0  0  0  0  0  0  0  0  0
   18.7932  -10.5578  -18.4458 N   0  0  0  0  0  0  0  0  0  0  0  0
   19.0080   -9.9018  -16.1684 C   0  0  0  0  0  0  0  0  0  0  0  0
   18.6217   -9.7375  -14.9857 O   0  0  0  0  0  0  0  0  0  0  0  0
   24.1421  -11.7511  -15.7473 C   0  0  0  0  0  0  0  0  0  0  0  0
   22.7477  -11.2344  -15.3548 C   0  0  1  0  0  0  0  0  0  0  0  0
   22.6925  -11.3311  -13.8253 C   0  0  0  0  0  0  0  0  0  0  0  0
   22.6869   -9.7674  -15.6674 C   0  0  0  0  0  0  0  0  0  0  0  0
   21.3484   -9.2170  -15.5072 C   0  0  2  0  0  0  0  0  0  0  0  0
   20.3602   -9.6785  -16.4546 N   0  0  0  0  0  0  0  0  0  0  0  0
   21.3713   -7.7354  -15.6405 C   0  0  0  0  0  0  0  0  0  0  0  0
   21.3577   -7.1021  -16.7216 O   0  0  0  0  0  0  0  0  0  0  0  0
   21.4125   -6.9016  -14.4674 N   0  0  0  0  0  0  0  0  0  0  0  0
   21.4804   -5.4513  -14.6144 C   0  0  1  0  0  0  0  0  0  0  0  0
   20.0935   -5.0110  -14.9695 C   0  0  0  0  0  0  0  0  0  0  0  0
   19.8929   -3.5695  -15.0943 C   0  0  0  0  0  0  0  0  0  0  0  0
   20.8960   -2.8876  -15.4581 O   0  0  0  0  0  0  0  0  0  0  0  0
   21.9433   -4.8479  -13.3346 C   0  0  0  0  0  0  0  0  0  0  0  0
   22.1453   -3.4672  -13.3146 O   0  0  0  0  0  0  0  0  0  0  0  0
   18.7393   -2.8625  -14.8616 O   0  0  0  0  0  0  0  0  0  0  0  0
   22.1577   -5.4959  -12.2937 O   0  0  0  0  0  0  0  0  0  0  0  0
  2  1  1  1
  2  4  1  0
  2  3  1  0
  4  5  2  0
  7  6  1  1
  7  9  1  0
  8  7  1  0
 10  9  1  6
 10 11  1  0
 10 12  1  0
 11  4  1  0
 12 14  1  0
 13 12  2  0
 14 15  1  0
 15 19  1  0
 16 17  1  0
 15 16  1  1
 17 18  2  0
 19 22  2  0
 19 20  1  0
 21 17  1  0
M  END
$$$$
