ALD.pdb
     RDKit          3D

 22 21  0  0  1  0  0  0  0  0999 V2000
   17.8530  -11.0047  -19.6293 C   0  0  0  0  0  0  0  0  0  0  0  0
   18.8973   -9.9111  -19.6138 C   0  0  2  0  0  0  0  0  0  0  0  0
   20.0559  -10.2954  -20.4348 N   0  0  0  0  0  0  0  0  0  0  0  0
   19.3827   -9.6664  -18.2407 C   0  0  0  0  0  0  0  0  0  0  0  0
   18.5816   -9.2760  -17.3571 O   0  0  0  0  0  0  0  0  0  0  0  0
   21.9191  -10.6364  -13.7742 C   0  0  0  0  0  0  0  0  0  0  0  0
   22.9306  -10.1391  -14.8206 C   0  0  1  0  0  0  0  0  0  0  0  0
   24.1702  -11.0240  -14.6423 C   0  0  0  0  0  0  0  0  0  0  0  0
   22.3943  -10.4681  -16.1836 C   0  0  0  0  0  0  0  0  0  0  0  0
   21.2679   -9.6253  -16.5592 C   0  0  2  0  0  0  0  0  0  0  0  0
   20.7214   -9.8548  -17.8766 N   0  0  0  0  0  0  0  0  0  0  0  0
   21.6550   -8.1890  -16.5296 C   0  0  0  0  0  0  0  0  0  0  0  0
   22.4101   -7.6222  -17.3533 O   0  0  0  0  0  0  0  0  0  0  0  0
   21.1541   -7.3234  -15.4939 N   0  0  0  0  0  0  0  0  0  0  0  0
   21.5566   -5.9209  -15.4675 C   0  0  1  0  0  0  0  0  0  0  0  0
   20.4223   -5.1584  -16.0800 C   0  0  0  0  0  0  0  0  0  0  0  0
   20.5273   -3.7026  -16.0248 C   0  0  0  0  0  0  0  0  0  0  0  0
   21.6926   -3.2151  -16.1137 O   0  0  0  0  0  0  0  0  0  0  0  0
   21.8070   -5.5070  -14.0595 C   0  0  0  0  0  0  0  0  0  0  0  0
   21.6528   -6.4789  -13.0701 O   0  0  0  0  0  0  0  0  0  0  0  0
   19.5064   -2.7952  -15.8864 O   0  0  0  0  0  0  0  0  0  0  0  0
   22.1422   -4.3579  -13.7181 O   0  0  0  0  0  0  0  0  0  0  0  0
  2  1  1  1
  2  4  1  0
  2  3  1  0
  4  5  2  0
  7  6  1  1
  7  9  1  0
  8  7  1  0
 10  9  1  6
 10 11  1  0
 10 12  1  0
 11  4  1  0
 12 14  1  0
 13 12  2  0
 14 15  1  0
 15 19  1  0
 16 17  1  0
 15 16  1  1
 17 18  2  0
 19 22  2  0
 19 20  1  0
 21 17  1  0
M  END
$$$$
