ALD.pdb
     RDKit          3D

 22 21  0  0  1  0  0  0  0  0999 V2000
   18.9129  -10.4962  -18.1630 C   0  0  0  0  0  0  0  0  0  0  0  0
   20.0772  -11.3418  -17.6986 C   0  0  2  0  0  0  0  0  0  0  0  0
   19.5944  -12.5893  -17.0864 N   0  0  0  0  0  0  0  0  0  0  0  0
   20.8765  -10.6253  -16.6844 C   0  0  0  0  0  0  0  0  0  0  0  0
   20.3872  -10.4000  -15.5509 O   0  0  0  0  0  0  0  0  0  0  0  0
   26.3511  -11.2073  -16.2355 C   0  0  0  0  0  0  0  0  0  0  0  0
   24.8388  -11.0939  -15.9794 C   0  0  1  0  0  0  0  0  0  0  0  0
   24.6526  -11.4082  -14.4901 C   0  0  0  0  0  0  0  0  0  0  0  0
   24.4436   -9.6545  -16.1391 C   0  0  0  0  0  0  0  0  0  0  0  0
   23.0080   -9.4511  -16.0052 C   0  0  2  0  0  0  0  0  0  0  0  0
   22.1791  -10.1791  -16.9379 N   0  0  0  0  0  0  0  0  0  0  0  0
   22.6617   -8.0167  -16.1951 C   0  0  0  0  0  0  0  0  0  0  0  0
   22.4664   -7.4556  -17.2983 O   0  0  0  0  0  0  0  0  0  0  0  0
   22.5243   -7.1463  -15.0566 N   0  0  0  0  0  0  0  0  0  0  0  0
   22.1606   -5.7472  -15.2569 C   0  0  1  0  0  0  0  0  0  0  0  0
   20.7719   -5.7621  -15.8179 C   0  0  0  0  0  0  0  0  0  0  0  0
   20.1433   -4.4566  -16.0028 C   0  0  0  0  0  0  0  0  0  0  0  0
   19.2308   -4.1462  -15.1816 O   0  0  0  0  0  0  0  0  0  0  0  0
   22.2247   -5.0303  -13.9537 C   0  0  0  0  0  0  0  0  0  0  0  0
   22.0444   -3.6467  -13.9753 O   0  0  0  0  0  0  0  0  0  0  0  0
   20.4258   -3.5216  -16.9675 O   0  0  0  0  0  0  0  0  0  0  0  0
   22.4271   -5.5872  -12.8591 O   0  0  0  0  0  0  0  0  0  0  0  0
  2  1  1  1
  2  4  1  0
  2  3  1  0
  4  5  2  0
  7  6  1  1
  7  9  1  0
  8  7  1  0
 10  9  1  6
 10 11  1  0
 10 12  1  0
 11  4  1  0
 12 14  1  0
 13 12  2  0
 14 15  1  0
 15 19  1  0
 16 17  1  0
 15 16  1  1
 17 18  2  0
 19 22  2  0
 19 20  1  0
 21 17  1  0
M  END
$$$$
