PCG.pdb
     RDKit          3D

 18 18  0  0  1  0  0  0  0  0999 V2000
    7.1385  -14.7923   21.0355 N   0  0  0  0  0  0  0  0  0  0  0  0
    6.9166  -14.4736   19.6350 C   0  0  0  0  0  0  0  0  0  0  0  0
    7.2493  -13.0191   19.5679 C   0  0  0  0  0  0  0  0  0  0  0  0
    8.2644  -12.8247   20.6747 C   0  0  0  0  0  0  0  0  0  0  0  0
    8.4493  -14.2316   21.2599 C   0  0  1  0  0  0  0  0  0  0  0  0
    8.7680  -14.0907   22.6962 C   0  0  0  0  0  0  0  0  0  0  0  0
    9.8910  -13.7042   23.1279 O   0  0  0  0  0  0  0  0  0  0  0  0
    7.7613  -14.4057   23.6410 N   0  0  0  0  0  0  0  0  0  0  0  0
    7.9417  -14.3614   25.0635 C   0  0  1  0  0  0  0  0  0  0  0  0
    6.5979  -13.9437   25.6696 C   0  0  0  0  0  0  0  0  0  0  0  0
    6.1944  -12.2729   25.1062 S   0  0  0  0  0  0  0  0  0  0  0  0
    8.3975  -15.6472   25.6189 C   0  0  0  0  0  0  0  0  0  0  0  0
    8.0343  -16.0178   26.7604 O   0  0  0  0  0  0  0  0  0  0  0  0
    9.2584  -16.4833   24.8599 N   0  0  0  0  0  0  0  0  0  0  0  0
    9.6621  -17.8025   25.3182 C   0  0  0  0  0  0  0  0  0  0  0  0
   11.1448  -17.8694   25.4281 C   0  0  0  0  0  0  0  0  0  0  0  0
   11.7209  -18.4344   26.5402 O   0  0  0  0  0  0  0  0  0  0  0  0
   11.8820  -17.4161   24.5169 O   0  0  0  0  0  0  0  0  0  0  0  0
  1  2  1  0
  2  3  1  0
  4  3  1  0
  5  1  1  0
  5  4  1  0
  5  6  1  1
  7  6  2  0
  8  6  1  0
  9  8  1  0
  9 12  1  0
  9 10  1  1
 11 10  1  0
 12 14  1  0
 13 12  2  0
 14 15  1  0
 15 16  1  0
 16 18  2  0
 16 17  1  0
M  END
$$$$
