PCG.pdb
     RDKit          3D

 18 18  0  0  1  0  0  0  0  0999 V2000
    7.6015  -15.0607   19.7870 N   0  0  0  0  0  0  0  0  0  0  0  0
    6.9512  -14.6294   18.5609 C   0  0  0  0  0  0  0  0  0  0  0  0
    7.2168  -13.1598   18.5424 C   0  0  0  0  0  0  0  0  0  0  0  0
    8.5200  -13.0141   19.2998 C   0  0  0  0  0  0  0  0  0  0  0  0
    8.9057  -14.4565   19.6555 C   0  0  1  0  0  0  0  0  0  0  0  0
    9.6496  -14.4289   20.9323 C   0  0  0  0  0  0  0  0  0  0  0  0
   10.8087  -13.9407   21.0549 O   0  0  0  0  0  0  0  0  0  0  0  0
    9.0313  -14.9791   22.0813 N   0  0  0  0  0  0  0  0  0  0  0  0
    9.6421  -15.0455   23.3777 C   0  0  1  0  0  0  0  0  0  0  0  0
    8.6697  -14.3870   24.3618 C   0  0  0  0  0  0  0  0  0  0  0  0
    7.0956  -15.2766   24.3150 S   0  0  0  0  0  0  0  0  0  0  0  0
    9.9584  -16.4247   23.7869 C   0  0  0  0  0  0  0  0  0  0  0  0
    9.0466  -17.2245   24.1051 O   0  0  0  0  0  0  0  0  0  0  0  0
   11.3087  -16.8622   23.8245 N   0  0  0  0  0  0  0  0  0  0  0  0
   11.8238  -17.7007   24.8945 C   0  0  0  0  0  0  0  0  0  0  0  0
   13.2321  -18.0849   24.6045 C   0  0  0  0  0  0  0  0  0  0  0  0
   13.8903  -18.9477   25.4473 O   0  0  0  0  0  0  0  0  0  0  0  0
   13.8320  -17.6317   23.5976 O   0  0  0  0  0  0  0  0  0  0  0  0
  1  2  1  0
  2  3  1  0
  4  3  1  0
  5  1  1  0
  5  4  1  0
  5  6  1  1
  7  6  2  0
  8  6  1  0
  9  8  1  0
  9 12  1  0
  9 10  1  1
 11 10  1  0
 12 14  1  0
 13 12  2  0
 14 15  1  0
 15 16  1  0
 16 18  2  0
 16 17  1  0
M  END
$$$$
