PCG.pdb
     RDKit          3D

 18 18  0  0  1  0  0  0  0  0999 V2000
    7.0491  -14.6104   20.9496 N   0  0  0  0  0  0  0  0  0  0  0  0
    6.9250  -14.2140   19.5568 C   0  0  0  0  0  0  0  0  0  0  0  0
    7.5606  -12.8627   19.5374 C   0  0  0  0  0  0  0  0  0  0  0  0
    8.5741  -12.9190   20.6612 C   0  0  0  0  0  0  0  0  0  0  0  0
    8.4451  -14.3482   21.2059 C   0  0  1  0  0  0  0  0  0  0  0  0
    8.7609  -14.3173   22.6494 C   0  0  0  0  0  0  0  0  0  0  0  0
    9.9273  -14.1493   23.1058 O   0  0  0  0  0  0  0  0  0  0  0  0
    7.6999  -14.4848   23.5722 N   0  0  0  0  0  0  0  0  0  0  0  0
    7.8662  -14.5526   24.9955 C   0  0  1  0  0  0  0  0  0  0  0  0
    7.2443  -13.2789   25.5772 C   0  0  0  0  0  0  0  0  0  0  0  0
    5.4429  -13.4389   25.5465 S   0  0  0  0  0  0  0  0  0  0  0  0
    7.2550  -15.7574   25.5824 C   0  0  0  0  0  0  0  0  0  0  0  0
    6.0205  -15.9587   25.4933 O   0  0  0  0  0  0  0  0  0  0  0  0
    8.0653  -16.7073   26.2586 N   0  0  0  0  0  0  0  0  0  0  0  0
    7.5133  -17.9083   26.8636 C   0  0  0  0  0  0  0  0  0  0  0  0
    8.5952  -18.6847   27.5283 C   0  0  0  0  0  0  0  0  0  0  0  0
    8.2814  -19.8129   28.2470 O   0  0  0  0  0  0  0  0  0  0  0  0
    9.7960  -18.3242   27.4431 O   0  0  0  0  0  0  0  0  0  0  0  0
  1  2  1  0
  2  3  1  0
  4  3  1  0
  5  1  1  0
  5  4  1  0
  5  6  1  1
  7  6  2  0
  8  6  1  0
  9  8  1  0
  9 12  1  0
  9 10  1  1
 11 10  1  0
 12 14  1  0
 13 12  2  0
 14 15  1  0
 15 16  1  0
 16 18  2  0
 16 17  1  0
M  END
$$$$
