PCG.pdb
     RDKit          3D

 18 18  0  0  1  0  0  0  0  0999 V2000
    7.7418  -15.0275   19.9520 N   0  0  0  0  0  0  0  0  0  0  0  0
    6.7431  -15.5585   19.0393 C   0  0  0  0  0  0  0  0  0  0  0  0
    6.0878  -16.6288   19.8489 C   0  0  0  0  0  0  0  0  0  0  0  0
    6.2445  -16.1539   21.2783 C   0  0  0  0  0  0  0  0  0  0  0  0
    6.9596  -14.8024   21.1439 C   0  0  1  0  0  0  0  0  0  0  0  0
    7.7987  -14.6081   22.3449 C   0  0  0  0  0  0  0  0  0  0  0  0
    8.9967  -15.0010   22.4310 O   0  0  0  0  0  0  0  0  0  0  0  0
    7.2309  -13.9458   23.4604 N   0  0  0  0  0  0  0  0  0  0  0  0
    7.8817  -13.7913   24.7295 C   0  0  1  0  0  0  0  0  0  0  0  0
    7.0345  -12.8110   25.5474 C   0  0  0  0  0  0  0  0  0  0  0  0
    7.8502  -12.5132   27.1341 S   0  0  0  0  0  0  0  0  0  0  0  0
    8.0495  -15.0698   25.4416 C   0  0  0  0  0  0  0  0  0  0  0  0
    7.0573  -15.7843   25.7194 O   0  0  0  0  0  0  0  0  0  0  0  0
    9.3463  -15.5060   25.8216 N   0  0  0  0  0  0  0  0  0  0  0  0
    9.5928  -16.8351   26.3563 C   0  0  0  0  0  0  0  0  0  0  0  0
   11.0506  -17.0269   26.5864 C   0  0  0  0  0  0  0  0  0  0  0  0
   11.9470  -16.6767   25.6058 O   0  0  0  0  0  0  0  0  0  0  0  0
   11.4773  -17.5059   27.6670 O   0  0  0  0  0  0  0  0  0  0  0  0
  1  2  1  0
  2  3  1  0
  4  3  1  0
  5  1  1  0
  5  4  1  0
  5  6  1  1
  7  6  2  0
  8  6  1  0
  9  8  1  0
  9 12  1  0
  9 10  1  1
 11 10  1  0
 12 14  1  0
 13 12  2  0
 14 15  1  0
 15 16  1  0
 16 18  2  0
 16 17  1  0
M  END
$$$$
