PCG.pdb
     RDKit          3D

 18 18  0  0  1  0  0  0  0  0999 V2000
    7.1293  -15.1522   20.2096 N   0  0  0  0  0  0  0  0  0  0  0  0
    6.3745  -14.6587   19.0699 C   0  0  0  0  0  0  0  0  0  0  0  0
    6.8253  -13.2390   18.9616 C   0  0  0  0  0  0  0  0  0  0  0  0
    8.2303  -13.2573   19.5265 C   0  0  0  0  0  0  0  0  0  0  0  0
    8.4697  -14.7322   19.8778 C   0  0  1  0  0  0  0  0  0  0  0  0
    9.3838  -14.7829   21.0381 C   0  0  0  0  0  0  0  0  0  0  0  0
   10.6053  -14.4644   20.9794 O   0  0  0  0  0  0  0  0  0  0  0  0
    8.8641  -15.2114   22.2837 N   0  0  0  0  0  0  0  0  0  0  0  0
    9.6290  -15.3009   23.4940 C   0  0  1  0  0  0  0  0  0  0  0  0
    8.6275  -15.3085   24.6536 C   0  0  0  0  0  0  0  0  0  0  0  0
    9.5316  -15.5025   26.2082 S   0  0  0  0  0  0  0  0  0  0  0  0
   10.4946  -16.4920   23.5326 C   0  0  0  0  0  0  0  0  0  0  0  0
   10.0098  -17.6416   23.4067 O   0  0  0  0  0  0  0  0  0  0  0  0
   11.8953  -16.3464   23.7141 N   0  0  0  0  0  0  0  0  0  0  0  0
   12.7863  -17.4892   23.8296 C   0  0  0  0  0  0  0  0  0  0  0  0
   14.1820  -17.0235   24.0537 C   0  0  0  0  0  0  0  0  0  0  0  0
   15.1942  -17.9432   24.1856 O   0  0  0  0  0  0  0  0  0  0  0  0
   14.4515  -15.7982   24.1247 O   0  0  0  0  0  0  0  0  0  0  0  0
  1  2  1  0
  2  3  1  0
  4  3  1  0
  5  1  1  0
  5  4  1  0
  5  6  1  1
  7  6  2  0
  8  6  1  0
  9  8  1  0
  9 12  1  0
  9 10  1  1
 11 10  1  0
 12 14  1  0
 13 12  2  0
 14 15  1  0
 15 16  1  0
 16 18  2  0
 16 17  1  0
M  END
$$$$
