PCG.pdb
     RDKit          3D

 18 18  0  0  1  0  0  0  0  0999 V2000
    6.9646  -14.6301   21.1657 N   0  0  0  0  0  0  0  0  0  0  0  0
    6.9518  -14.4953   19.7187 C   0  0  0  0  0  0  0  0  0  0  0  0
    7.6344  -13.1850   19.5004 C   0  0  0  0  0  0  0  0  0  0  0  0
    8.5646  -13.0548   20.6883 C   0  0  0  0  0  0  0  0  0  0  0  0
    8.3478  -14.3556   21.4736 C   0  0  1  0  0  0  0  0  0  0  0  0
    8.5633  -14.0654   22.9067 C   0  0  0  0  0  0  0  0  0  0  0  0
    9.7023  -13.8607   23.4143 O   0  0  0  0  0  0  0  0  0  0  0  0
    7.4331  -14.0137   23.7583 N   0  0  0  0  0  0  0  0  0  0  0  0
    7.4788  -13.6504   25.1454 C   0  0  1  0  0  0  0  0  0  0  0  0
    6.2746  -12.7397   25.4067 C   0  0  0  0  0  0  0  0  0  0  0  0
    6.3038  -12.2105   27.1360 S   0  0  0  0  0  0  0  0  0  0  0  0
    7.4633  -14.8204   26.0402 C   0  0  0  0  0  0  0  0  0  0  0  0
    7.6275  -14.6852   27.2759 O   0  0  0  0  0  0  0  0  0  0  0  0
    7.2606  -16.1203   25.5059 N   0  0  0  0  0  0  0  0  0  0  0  0
    7.2027  -17.3050   26.3463 C   0  0  0  0  0  0  0  0  0  0  0  0
    8.5801  -17.7859   26.6405 C   0  0  0  0  0  0  0  0  0  0  0  0
    8.8674  -19.1265   26.5505 O   0  0  0  0  0  0  0  0  0  0  0  0
    9.4887  -16.9832   26.9712 O   0  0  0  0  0  0  0  0  0  0  0  0
  1  2  1  0
  2  3  1  0
  4  3  1  0
  5  1  1  0
  5  4  1  0
  5  6  1  1
  7  6  2  0
  8  6  1  0
  9  8  1  0
  9 12  1  0
  9 10  1  1
 11 10  1  0
 12 14  1  0
 13 12  2  0
 14 15  1  0
 15 16  1  0
 16 18  2  0
 16 17  1  0
M  END
$$$$
