PCG.pdb
     RDKit          3D

 18 18  0  0  1  0  0  0  0  0999 V2000
    7.5198  -14.9839   20.9291 N   0  0  0  0  0  0  0  0  0  0  0  0
    7.3222  -14.7851   19.5030 C   0  0  0  0  0  0  0  0  0  0  0  0
    7.0953  -13.3125   19.4006 C   0  0  0  0  0  0  0  0  0  0  0  0
    7.8617  -12.7417   20.5754 C   0  0  0  0  0  0  0  0  0  0  0  0
    8.5027  -13.9716   21.2330 C   0  0  1  0  0  0  0  0  0  0  0  0
    8.6158  -13.7077   22.6827 C   0  0  0  0  0  0  0  0  0  0  0  0
    9.2731  -12.7436   23.1680 O   0  0  0  0  0  0  0  0  0  0  0  0
    7.9522  -14.5816   23.5778 N   0  0  0  0  0  0  0  0  0  0  0  0
    7.8252  -14.3543   24.9886 C   0  0  1  0  0  0  0  0  0  0  0  0
    7.1246  -13.0025   25.1600 C   0  0  0  0  0  0  0  0  0  0  0  0
    6.9690  -12.6423   26.9257 S   0  0  0  0  0  0  0  0  0  0  0  0
    7.0830  -15.4272   25.6726 C   0  0  0  0  0  0  0  0  0  0  0  0
    5.8366  -15.5137   25.5658 O   0  0  0  0  0  0  0  0  0  0  0  0
    7.7787  -16.3789   26.4640 N   0  0  0  0  0  0  0  0  0  0  0  0
    7.1246  -17.5501   27.0239 C   0  0  0  0  0  0  0  0  0  0  0  0
    8.1223  -18.3998   27.7292 C   0  0  0  0  0  0  0  0  0  0  0  0
    7.7067  -19.5251   28.3992 O   0  0  0  0  0  0  0  0  0  0  0  0
    9.3437  -18.1042   27.7224 O   0  0  0  0  0  0  0  0  0  0  0  0
  1  2  1  0
  2  3  1  0
  4  3  1  0
  5  1  1  0
  5  4  1  0
  5  6  1  1
  7  6  2  0
  8  6  1  0
  9  8  1  0
  9 12  1  0
  9 10  1  6
 11 10  1  0
 12 14  1  0
 13 12  2  0
 14 15  1  0
 15 16  1  0
 16 18  2  0
 16 17  1  0
M  END
$$$$
