PCG.pdb
     RDKit          3D

 18 18  0  0  1  0  0  0  0  0999 V2000
    6.9093  -14.7964   21.1453 N   0  0  0  0  0  0  0  0  0  0  0  0
    6.7676  -14.6714   19.7043 C   0  0  0  0  0  0  0  0  0  0  0  0
    7.4102  -13.3537   19.4197 C   0  0  0  0  0  0  0  0  0  0  0  0
    8.4392  -13.2032   20.5205 C   0  0  0  0  0  0  0  0  0  0  0  0
    8.3102  -14.5015   21.3289 C   0  0  1  0  0  0  0  0  0  0  0  0
    8.6466  -14.1989   22.7359 C   0  0  0  0  0  0  0  0  0  0  0  0
    9.8225  -13.9732   23.1399 O   0  0  0  0  0  0  0  0  0  0  0  0
    7.5953  -14.1595   23.6838 N   0  0  0  0  0  0  0  0  0  0  0  0
    7.7734  -13.8908   25.0818 C   0  0  1  0  0  0  0  0  0  0  0  0
    6.8235  -12.7429   25.4387 C   0  0  0  0  0  0  0  0  0  0  0  0
    5.1886  -13.4259   25.8022 S   0  0  0  0  0  0  0  0  0  0  0  0
    7.5188  -15.0718   25.9244 C   0  0  0  0  0  0  0  0  0  0  0  0
    7.6922  -15.0239   27.1653 O   0  0  0  0  0  0  0  0  0  0  0  0
    7.0715  -16.2828   25.3332 N   0  0  0  0  0  0  0  0  0  0  0  0
    6.7897  -17.4729   26.1190 C   0  0  0  0  0  0  0  0  0  0  0  0
    7.9851  -18.3590   26.1442 C   0  0  0  0  0  0  0  0  0  0  0  0
    9.1534  -17.9440   25.5520 O   0  0  0  0  0  0  0  0  0  0  0  0
    7.9439  -19.4851   26.7004 O   0  0  0  0  0  0  0  0  0  0  0  0
  1  2  1  0
  2  3  1  0
  4  3  1  0
  5  1  1  0
  5  4  1  0
  5  6  1  1
  7  6  2  0
  8  6  1  0
  9  8  1  0
  9 12  1  0
  9 10  1  1
 11 10  1  0
 12 14  1  0
 13 12  2  0
 14 15  1  0
 15 16  1  0
 16 18  2  0
 16 17  1  0
M  END
$$$$
