PCG.pdb
     RDKit          3D

 18 18  0  0  1  0  0  0  0  0999 V2000
    7.0387  -14.7415   20.6905 N   0  0  0  0  0  0  0  0  0  0  0  0
    6.7843  -14.3466   19.3151 C   0  0  0  0  0  0  0  0  0  0  0  0
    7.2253  -12.9200   19.2913 C   0  0  0  0  0  0  0  0  0  0  0  0
    8.2974  -12.8507   20.3586 C   0  0  0  0  0  0  0  0  0  0  0  0
    8.3972  -14.2915   20.8783 C   0  0  1  0  0  0  0  0  0  0  0  0
    8.7850  -14.2373   22.3034 C   0  0  0  0  0  0  0  0  0  0  0  0
    9.9445  -13.9292   22.7006 O   0  0  0  0  0  0  0  0  0  0  0  0
    7.8053  -14.5473   23.2778 N   0  0  0  0  0  0  0  0  0  0  0  0
    8.0610  -14.6302   24.6870 C   0  0  1  0  0  0  0  0  0  0  0  0
    6.7696  -14.2137   25.3986 C   0  0  0  0  0  0  0  0  0  0  0  0
    6.4055  -12.4893   24.9914 S   0  0  0  0  0  0  0  0  0  0  0  0
    8.4892  -15.9750   25.1088 C   0  0  0  0  0  0  0  0  0  0  0  0
    7.6450  -16.8656   25.3665 O   0  0  0  0  0  0  0  0  0  0  0  0
    9.8719  -16.2752   25.2276 N   0  0  0  0  0  0  0  0  0  0  0  0
   10.3502  -17.5927   25.6131 C   0  0  0  0  0  0  0  0  0  0  0  0
   11.8358  -17.6357   25.5360 C   0  0  0  0  0  0  0  0  0  0  0  0
   12.5061  -18.7688   25.9293 O   0  0  0  0  0  0  0  0  0  0  0  0
   12.4905  -16.6488   25.1155 O   0  0  0  0  0  0  0  0  0  0  0  0
  1  2  1  0
  2  3  1  0
  4  3  1  0
  5  1  1  0
  5  4  1  0
  5  6  1  1
  7  6  2  0
  8  6  1  0
  9  8  1  0
  9 12  1  0
  9 10  1  1
 11 10  1  0
 12 14  1  0
 13 12  2  0
 14 15  1  0
 15 16  1  0
 16 18  2  0
 16 17  1  0
M  END
$$$$
