ILG.pdb
     RDKit          3D

 21 20  0  0  1  0  0  0  0  0999 V2000
   11.2043  -19.8211   28.4025 C   0  0  0  0  0  0  0  0  0  0  0  0
    9.8858  -19.1096   28.6642 C   0  0  0  0  0  0  0  0  0  0  0  0
    9.4978  -18.3261   27.4283 C   0  0  2  0  0  0  0  0  0  0  0  0
   10.6534  -17.5099   26.9620 C   0  0  0  0  0  0  0  0  0  0  0  0
    8.2185  -17.5727   27.5809 C   0  0  2  0  0  0  0  0  0  0  0  0
    7.1924  -18.5235   27.9711 N   0  0  0  0  0  0  0  0  0  0  0  0
    7.8371  -16.7750   26.4074 C   0  0  0  0  0  0  0  0  0  0  0  0
    7.1316  -17.3144   25.5162 O   0  0  0  0  0  0  0  0  0  0  0  0
    7.0178  -11.4174   27.0599 C   0  0  0  0  0  0  0  0  0  0  0  0
    6.8756  -12.8412   26.6004 C   0  0  1  0  0  0  0  0  0  0  0  0
    5.3896  -13.0093   26.2553 C   0  0  0  0  0  0  0  0  0  0  0  0
    7.7352  -13.1802   25.4328 C   0  0  0  0  0  0  0  0  0  0  0  0
    7.7094  -14.6243   25.0527 C   0  0  2  0  0  0  0  0  0  0  0  0
    8.2137  -15.4218   26.2072 N   0  0  0  0  0  0  0  0  0  0  0  0
    8.5792  -15.0036   23.9267 C   0  0  0  0  0  0  0  0  0  0  0  0
    8.3015  -14.6173   22.7438 O   0  0  0  0  0  0  0  0  0  0  0  0
    9.7522  -15.7899   24.0406 N   0  0  0  0  0  0  0  0  0  0  0  0
   10.5330  -16.1565   22.8618 C   0  0  0  0  0  0  0  0  0  0  0  0
   11.8147  -16.7755   23.2225 C   0  0  0  0  0  0  0  0  0  0  0  0
   12.7591  -16.6950   22.3997 O   0  0  0  0  0  0  0  0  0  0  0  0
   11.9237  -17.4200   24.4537 O   0  0  0  0  0  0  0  0  0  0  0  0
  2  1  1  0
  3  4  1  1
  3  2  1  0
  5  7  1  0
  5  3  1  0
  5  6  1  6
  7  8  2  0
 10  9  1  6
 10 12  1  0
 11 10  1  0
 13 12  1  1
 14  7  1  0
 14 13  1  0
 15 17  1  0
 15 13  1  0
 16 15  2  0
 18 17  1  0
 19 18  1  0
 19 21  1  0
 20 19  2  0
M  END
$$$$
