ILG.pdb
     RDKit          3D

 21 20  0  0  1  0  0  0  0  0999 V2000
    6.6499  -21.8128   24.7997 C   0  0  0  0  0  0  0  0  0  0  0  0
    5.8142  -20.5478   24.6792 C   0  0  0  0  0  0  0  0  0  0  0  0
    6.7414  -19.3559   24.5724 C   0  0  2  0  0  0  0  0  0  0  0  0
    7.7694  -19.4153   25.6488 C   0  0  0  0  0  0  0  0  0  0  0  0
    6.0223  -18.0527   24.4628 C   0  0  2  0  0  0  0  0  0  0  0  0
    5.0672  -18.1679   23.3748 N   0  0  0  0  0  0  0  0  0  0  0  0
    6.8995  -16.8818   24.3270 C   0  0  0  0  0  0  0  0  0  0  0  0
    7.4873  -16.6938   23.2306 O   0  0  0  0  0  0  0  0  0  0  0  0
    6.1575  -12.1653   27.1383 C   0  0  0  0  0  0  0  0  0  0  0  0
    6.5733  -13.0398   25.9889 C   0  0  1  0  0  0  0  0  0  0  0  0
    6.7295  -12.0906   24.7931 C   0  0  0  0  0  0  0  0  0  0  0  0
    7.8327  -13.7942   26.2382 C   0  0  0  0  0  0  0  0  0  0  0  0
    8.1322  -14.8400   25.2149 C   0  0  2  0  0  0  0  0  0  0  0  0
    7.1325  -15.9368   25.3593 N   0  0  0  0  0  0  0  0  0  0  0  0
    9.4395  -15.5050   25.3456 C   0  0  0  0  0  0  0  0  0  0  0  0
    9.7974  -16.0012   26.4642 O   0  0  0  0  0  0  0  0  0  0  0  0
   10.3781  -15.6560   24.2952 N   0  0  0  0  0  0  0  0  0  0  0  0
   11.7608  -16.0404   24.5674 C   0  0  0  0  0  0  0  0  0  0  0  0
   12.5793  -16.0469   23.3484 C   0  0  0  0  0  0  0  0  0  0  0  0
   12.0095  -15.8077   22.2560 O   0  0  0  0  0  0  0  0  0  0  0  0
   13.9425  -16.3166   23.4588 O   0  0  0  0  0  0  0  0  0  0  0  0
  2  1  1  0
  3  4  1  1
  3  2  1  0
  5  7  1  0
  5  3  1  0
  5  6  1  6
  7  8  2  0
 10  9  1  1
 10 12  1  0
 11 10  1  0
 13 12  1  1
 14  7  1  0
 14 13  1  0
 15 17  1  0
 15 13  1  0
 16 15  2  0
 18 17  1  0
 19 18  1  0
 19 21  1  0
 20 19  2  0
M  END
$$$$
