ILG.pdb
     RDKit          3D

 21 20  0  0  1  0  0  0  0  0999 V2000
    3.8592  -19.6772   22.1836 C   0  0  0  0  0  0  0  0  0  0  0  0
    4.8319  -19.6661   23.3527 C   0  0  0  0  0  0  0  0  0  0  0  0
    5.7991  -18.5152   23.1748 C   0  0  2  0  0  0  0  0  0  0  0  0
    6.3260  -18.5067   21.7815 C   0  0  0  0  0  0  0  0  0  0  0  0
    6.8420  -18.4465   24.2403 C   0  0  2  0  0  0  0  0  0  0  0  0
    6.2115  -18.8122   25.4965 N   0  0  0  0  0  0  0  0  0  0  0  0
    7.5542  -17.1635   24.3145 C   0  0  0  0  0  0  0  0  0  0  0  0
    8.2382  -16.7965   23.3243 O   0  0  0  0  0  0  0  0  0  0  0  0
    5.7564  -12.5189   26.9431 C   0  0  0  0  0  0  0  0  0  0  0  0
    6.4594  -13.3627   25.9171 C   0  0  1  0  0  0  0  0  0  0  0  0
    6.8911  -12.3854   24.8153 C   0  0  0  0  0  0  0  0  0  0  0  0
    7.6303  -14.1071   26.4575 C   0  0  0  0  0  0  0  0  0  0  0  0
    8.2849  -15.0175   25.4709 C   0  0  2  0  0  0  0  0  0  0  0  0
    7.5238  -16.2992   25.4392 N   0  0  0  0  0  0  0  0  0  0  0  0
    9.6685  -15.4110   25.7858 C   0  0  0  0  0  0  0  0  0  0  0  0
   10.6081  -14.5509   25.7298 O   0  0  0  0  0  0  0  0  0  0  0  0
   10.0712  -16.7146   26.1671 N   0  0  0  0  0  0  0  0  0  0  0  0
   11.4690  -17.0163   26.4652 C   0  0  0  0  0  0  0  0  0  0  0  0
   11.6422  -18.3895   26.9555 C   0  0  0  0  0  0  0  0  0  0  0  0
   10.6732  -19.1798   26.8458 O   0  0  0  0  0  0  0  0  0  0  0  0
   12.8660  -18.7507   27.5164 O   0  0  0  0  0  0  0  0  0  0  0  0
  2  1  1  0
  3  4  1  6
  3  2  1  0
  5  7  1  0
  5  3  1  0
  5  6  1  1
  7  8  2  0
 10  9  1  1
 10 12  1  0
 11 10  1  0
 13 12  1  1
 14  7  1  0
 14 13  1  0
 15 17  1  0
 15 13  1  0
 16 15  2  0
 18 17  1  0
 19 18  1  0
 19 21  1  0
 20 19  2  0
M  END
$$$$
