ILG.pdb
     RDKit          3D

 21 20  0  0  1  0  0  0  0  0999 V2000
    8.0183  -18.1107   19.1758 C   0  0  0  0  0  0  0  0  0  0  0  0
    7.3711  -16.8112   19.6293 C   0  0  0  0  0  0  0  0  0  0  0  0
    7.9957  -16.3840   20.9405 C   0  0  2  0  0  0  0  0  0  0  0  0
    8.1049  -17.5546   21.8551 C   0  0  0  0  0  0  0  0  0  0  0  0
    7.3519  -15.1779   21.5392 C   0  0  2  0  0  0  0  0  0  0  0  0
    7.1489  -14.2131   20.4728 N   0  0  0  0  0  0  0  0  0  0  0  0
    8.0697  -14.6111   22.6891 C   0  0  0  0  0  0  0  0  0  0  0  0
    9.0865  -13.9019   22.4741 O   0  0  0  0  0  0  0  0  0  0  0  0
    5.4627  -12.1701   26.7327 C   0  0  0  0  0  0  0  0  0  0  0  0
    6.5752  -12.5010   25.7779 C   0  0  1  0  0  0  0  0  0  0  0  0
    7.4675  -11.2527   25.7469 C   0  0  0  0  0  0  0  0  0  0  0  0
    7.3581  -13.7058   26.1685 C   0  0  0  0  0  0  0  0  0  0  0  0
    8.3851  -14.1196   25.1661 C   0  0  2  0  0  0  0  0  0  0  0  0
    7.6910  -14.8103   24.0418 N   0  0  0  0  0  0  0  0  0  0  0  0
    9.3861  -15.0895   25.6410 C   0  0  0  0  0  0  0  0  0  0  0  0
   10.2024  -14.7674   26.5660 O   0  0  0  0  0  0  0  0  0  0  0  0
    9.5306  -16.4094   25.1469 N   0  0  0  0  0  0  0  0  0  0  0  0
   10.5632  -17.3019   25.6676 C   0  0  0  0  0  0  0  0  0  0  0  0
   10.1871  -17.8796   26.9640 C   0  0  0  0  0  0  0  0  0  0  0  0
    9.6365  -17.1283   27.8053 O   0  0  0  0  0  0  0  0  0  0  0  0
   10.4567  -19.2267   27.2001 O   0  0  0  0  0  0  0  0  0  0  0  0
  2  1  1  0
  3  4  1  1
  3  2  1  0
  5  7  1  0
  5  3  1  0
  5  6  1  6
  7  8  2  0
 10  9  1  1
 10 12  1  0
 11 10  1  0
 13 12  1  1
 14  7  1  0
 14 13  1  0
 15 17  1  0
 15 13  1  0
 16 15  2  0
 18 17  1  0
 19 18  1  0
 19 21  1  0
 20 19  2  0
M  END
$$$$
