ILG.pdb
     RDKit          3D

 21 20  0  0  1  0  0  0  0  0999 V2000
    7.9004  -21.8374   25.6804 C   0  0  0  0  0  0  0  0  0  0  0  0
    6.8230  -20.7661   25.6120 C   0  0  0  0  0  0  0  0  0  0  0  0
    7.4491  -19.4703   25.1422 C   0  0  2  0  0  0  0  0  0  0  0  0
    8.7202  -19.2252   25.8792 C   0  0  0  0  0  0  0  0  0  0  0  0
    6.4975  -18.3206   25.1331 C   0  0  2  0  0  0  0  0  0  0  0  0
    5.3311  -18.7217   24.3663 N   0  0  0  0  0  0  0  0  0  0  0  0
    7.0764  -17.0536   24.6658 C   0  0  0  0  0  0  0  0  0  0  0  0
    7.1391  -16.8409   23.4272 O   0  0  0  0  0  0  0  0  0  0  0  0
    6.2519  -12.2553   27.3605 C   0  0  0  0  0  0  0  0  0  0  0  0
    6.4497  -13.2007   26.2091 C   0  0  1  0  0  0  0  0  0  0  0  0
    6.0337  -12.4114   24.9603 C   0  0  0  0  0  0  0  0  0  0  0  0
    7.8460  -13.7020   26.0817 C   0  0  0  0  0  0  0  0  0  0  0  0
    8.0346  -14.7206   25.0058 C   0  0  2  0  0  0  0  0  0  0  0  0
    7.5759  -16.0410   25.5248 N   0  0  0  0  0  0  0  0  0  0  0  0
    9.4254  -14.9483   24.5792 C   0  0  0  0  0  0  0  0  0  0  0  0
   10.0512  -14.0492   23.9267 O   0  0  0  0  0  0  0  0  0  0  0  0
   10.1690  -16.1252   24.8419 N   0  0  0  0  0  0  0  0  0  0  0  0
   11.5283  -16.2891   24.3325 C   0  0  0  0  0  0  0  0  0  0  0  0
   12.1154  -17.5727   24.7371 C   0  0  0  0  0  0  0  0  0  0  0  0
   11.3380  -18.4800   25.1216 O   0  0  0  0  0  0  0  0  0  0  0  0
   13.4998  -17.7244   24.6763 O   0  0  0  0  0  0  0  0  0  0  0  0
  2  1  1  0
  3  4  1  1
  3  2  1  0
  5  7  1  0
  5  3  1  0
  5  6  1  6
  7  8  2  0
 10  9  1  1
 10 12  1  0
 11 10  1  0
 13 12  1  1
 14  7  1  0
 14 13  1  0
 15 17  1  0
 15 13  1  0
 16 15  2  0
 18 17  1  0
 19 18  1  0
 19 21  1  0
 20 19  2  0
M  END
$$$$
