ILG.pdb
     RDKit          3D

 21 20  0  0  1  0  0  0  0  0999 V2000
    7.7210  -17.5415   20.1813 C   0  0  0  0  0  0  0  0  0  0  0  0
    8.2748  -16.1691   20.5318 C   0  0  0  0  0  0  0  0  0  0  0  0
    7.1230  -15.1965   20.6708 C   0  0  2  0  0  0  0  0  0  0  0  0
    6.3166  -15.1836   19.4184 C   0  0  0  0  0  0  0  0  0  0  0  0
    7.5393  -13.8503   21.1629 C   0  0  2  0  0  0  0  0  0  0  0  0
    8.4507  -13.2866   20.1827 N   0  0  0  0  0  0  0  0  0  0  0  0
    8.0931  -13.8431   22.5238 C   0  0  0  0  0  0  0  0  0  0  0  0
    9.3155  -13.5864   22.6750 O   0  0  0  0  0  0  0  0  0  0  0  0
    5.4017  -11.6071   26.8277 C   0  0  0  0  0  0  0  0  0  0  0  0
    6.5112  -12.0359   25.9090 C   0  0  1  0  0  0  0  0  0  0  0  0
    7.7312  -11.2063   26.3319 C   0  0  0  0  0  0  0  0  0  0  0  0
    6.8098  -13.4933   25.9736 C   0  0  0  0  0  0  0  0  0  0  0  0
    7.9060  -13.9343   25.0602 C   0  0  2  0  0  0  0  0  0  0  0  0
    7.3357  -14.1088   23.6936 N   0  0  0  0  0  0  0  0  0  0  0  0
    8.5185  -15.2347   25.3795 C   0  0  0  0  0  0  0  0  0  0  0  0
    9.0270  -15.4384   26.5309 O   0  0  0  0  0  0  0  0  0  0  0  0
    8.5951  -16.3328   24.4876 N   0  0  0  0  0  0  0  0  0  0  0  0
    9.1480  -17.6156   24.9150 C   0  0  0  0  0  0  0  0  0  0  0  0
   10.6100  -17.6544   24.7848 C   0  0  0  0  0  0  0  0  0  0  0  0
   11.1960  -18.7317   25.0525 O   0  0  0  0  0  0  0  0  0  0  0  0
   11.2762  -16.5014   24.3728 O   0  0  0  0  0  0  0  0  0  0  0  0
  2  1  1  0
  3  4  1  6
  3  2  1  0
  5  7  1  0
  5  3  1  0
  5  6  1  6
  7  8  2  0
 10  9  1  1
 10 12  1  0
 11 10  1  0
 13 12  1  1
 14  7  1  0
 14 13  1  0
 15 17  1  0
 15 13  1  0
 16 15  2  0
 18 17  1  0
 19 18  1  0
 19 21  1  0
 20 19  2  0
M  END
$$$$
