ILG.pdb
     RDKit          3D

 21 20  0  0  1  0  0  0  0  0999 V2000
    7.2567  -11.8845   27.8276 C   0  0  0  0  0  0  0  0  0  0  0  0
    6.4043  -12.8743   27.0486 C   0  0  0  0  0  0  0  0  0  0  0  0
    7.2834  -13.6014   26.0535 C   0  0  2  0  0  0  0  0  0  0  0  0
    8.0845  -12.6185   25.2719 C   0  0  0  0  0  0  0  0  0  0  0  0
    6.5446  -14.6042   25.2311 C   0  0  2  0  0  0  0  0  0  0  0  0
    5.9257  -15.5501   26.1429 N   0  0  0  0  0  0  0  0  0  0  0  0
    7.3555  -15.2601   24.1962 C   0  0  0  0  0  0  0  0  0  0  0  0
    7.4304  -16.5161   24.1961 O   0  0  0  0  0  0  0  0  0  0  0  0
    6.5089  -14.2827   20.4772 C   0  0  0  0  0  0  0  0  0  0  0  0
    7.9000  -14.1449   19.9254 C   0  0  1  0  0  0  0  0  0  0  0  0
    7.9365  -12.7632   19.2582 C   0  0  0  0  0  0  0  0  0  0  0  0
    8.9662  -14.2662   20.9578 C   0  0  0  0  0  0  0  0  0  0  0  0
    8.6765  -15.2742   22.0210 C   0  0  2  0  0  0  0  0  0  0  0  0
    8.0686  -14.5670   23.1843 N   0  0  0  0  0  0  0  0  0  0  0  0
    9.8489  -15.9706   22.5767 C   0  0  0  0  0  0  0  0  0  0  0  0
   10.3593  -16.9612   21.9572 O   0  0  0  0  0  0  0  0  0  0  0  0
   10.4954  -15.6240   23.7888 N   0  0  0  0  0  0  0  0  0  0  0  0
   11.6858  -16.3397   24.2412 C   0  0  0  0  0  0  0  0  0  0  0  0
   12.8692  -15.9976   23.4421 C   0  0  0  0  0  0  0  0  0  0  0  0
   12.7194  -15.2096   22.4767 O   0  0  0  0  0  0  0  0  0  0  0  0
   14.0967  -16.5596   23.7893 O   0  0  0  0  0  0  0  0  0  0  0  0
  2  1  1  0
  3  4  1  6
  3  2  1  0
  5  7  1  0
  5  3  1  0
  5  6  1  1
  7  8  2  0
 10  9  1  1
 10 12  1  0
 11 10  1  0
 13 12  1  6
 14  7  1  0
 14 13  1  0
 15 17  1  0
 15 13  1  0
 16 15  2  0
 18 17  1  0
 19 18  1  0
 19 21  1  0
 20 19  2  0
M  END
$$$$
