ILG.pdb
     RDKit          3D

 21 20  0  0  1  0  0  0  0  0999 V2000
   11.4241  -14.6885   30.3437 C   0  0  0  0  0  0  0  0  0  0  0  0
   10.8761  -15.9187   29.6371 C   0  0  0  0  0  0  0  0  0  0  0  0
   10.0521  -15.4745   28.4474 C   0  0  2  0  0  0  0  0  0  0  0  0
    9.2067  -14.3072   28.8238 C   0  0  0  0  0  0  0  0  0  0  0  0
    9.3190  -16.5919   27.7829 C   0  0  2  0  0  0  0  0  0  0  0  0
   10.2229  -17.7259   27.7055 N   0  0  0  0  0  0  0  0  0  0  0  0
    8.7290  -16.2459   26.4825 C   0  0  0  0  0  0  0  0  0  0  0  0
    8.2204  -17.1640   25.7887 O   0  0  0  0  0  0  0  0  0  0  0  0
    6.7496  -11.2581   26.3168 C   0  0  0  0  0  0  0  0  0  0  0  0
    6.9475  -12.7410   26.1740 C   0  0  1  0  0  0  0  0  0  0  0  0
    5.5638  -13.3598   26.4147 C   0  0  0  0  0  0  0  0  0  0  0  0
    7.4884  -13.1458   24.8470 C   0  0  0  0  0  0  0  0  0  0  0  0
    7.8680  -14.5873   24.7549 C   0  0  2  0  0  0  0  0  0  0  0  0
    8.6927  -14.9320   25.9483 N   0  0  0  0  0  0  0  0  0  0  0  0
    8.7066  -14.9541   23.6014 C   0  0  0  0  0  0  0  0  0  0  0  0
    8.2289  -14.9050   22.4202 O   0  0  0  0  0  0  0  0  0  0  0  0
   10.0580  -15.3711   23.6845 N   0  0  0  0  0  0  0  0  0  0  0  0
   10.8585  -15.5822   22.4810 C   0  0  0  0  0  0  0  0  0  0  0  0
   10.9089  -16.9983   22.0963 C   0  0  0  0  0  0  0  0  0  0  0  0
   10.1065  -17.7877   22.6518 O   0  0  0  0  0  0  0  0  0  0  0  0
   11.8388  -17.3991   21.1383 O   0  0  0  0  0  0  0  0  0  0  0  0
  2  1  1  0
  3  4  1  1
  3  2  1  0
  5  7  1  0
  5  3  1  0
  5  6  1  6
  7  8  2  0
 10  9  1  6
 10 12  1  0
 11 10  1  0
 13 12  1  6
 14  7  1  0
 14 13  1  0
 15 17  1  0
 15 13  1  0
 16 15  2  0
 18 17  1  0
 19 18  1  0
 19 21  1  0
 20 19  2  0
M  END
$$$$
