ILG.pdb
     RDKit          3D

 21 20  0  0  1  0  0  0  0  0999 V2000
   11.5909  -15.0076   30.0837 C   0  0  0  0  0  0  0  0  0  0  0  0
   10.4987  -16.0179   29.7680 C   0  0  0  0  0  0  0  0  0  0  0  0
    9.8737  -15.6639   28.4354 C   0  0  2  0  0  0  0  0  0  0  0  0
    9.6463  -14.1939   28.3568 C   0  0  0  0  0  0  0  0  0  0  0  0
    8.6860  -16.5016   28.0959 C   0  0  2  0  0  0  0  0  0  0  0  0
    9.0366  -17.8868   28.3555 N   0  0  0  0  0  0  0  0  0  0  0  0
    8.1605  -16.2931   26.7397 C   0  0  0  0  0  0  0  0  0  0  0  0
    7.5872  -17.2526   26.1621 O   0  0  0  0  0  0  0  0  0  0  0  0
    6.8251  -11.1426   25.6477 C   0  0  0  0  0  0  0  0  0  0  0  0
    6.7955  -12.6399   25.7749 C   0  0  1  0  0  0  0  0  0  0  0  0
    5.3194  -12.9991   25.9928 C   0  0  0  0  0  0  0  0  0  0  0  0
    7.3469  -13.3505   24.5882 C   0  0  0  0  0  0  0  0  0  0  0  0
    7.4912  -14.8258   24.7710 C   0  0  2  0  0  0  0  0  0  0  0  0
    8.2559  -15.0697   26.0276 N   0  0  0  0  0  0  0  0  0  0  0  0
    8.2550  -15.5268   23.7254 C   0  0  0  0  0  0  0  0  0  0  0  0
    7.7941  -15.6063   22.5393 O   0  0  0  0  0  0  0  0  0  0  0  0
    9.5142  -16.1457   23.9218 N   0  0  0  0  0  0  0  0  0  0  0  0
   10.1978  -16.8309   22.8277 C   0  0  0  0  0  0  0  0  0  0  0  0
   11.0920  -15.9305   22.0891 C   0  0  0  0  0  0  0  0  0  0  0  0
   10.5767  -14.9693   21.4678 O   0  0  0  0  0  0  0  0  0  0  0  0
   12.4628  -16.1821   22.1112 O   0  0  0  0  0  0  0  0  0  0  0  0
  2  1  1  0
  3  4  1  1
  3  2  1  0
  5  7  1  0
  5  3  1  0
  5  6  1  6
  7  8  2  0
 10  9  1  6
 10 12  1  0
 11 10  1  0
 13 12  1  6
 14  7  1  0
 14 13  1  0
 15 17  1  0
 15 13  1  0
 16 15  2  0
 18 17  1  0
 19 18  1  0
 19 21  1  0
 20 19  2  0
M  END
$$$$
