ILG.pdb
     RDKit          3D

 21 20  0  0  1  0  0  0  0  0999 V2000
    6.5878  -11.9535   28.0531 C   0  0  0  0  0  0  0  0  0  0  0  0
    5.9558  -13.1031   27.2837 C   0  0  0  0  0  0  0  0  0  0  0  0
    6.9957  -13.7087   26.3653 C   0  0  2  0  0  0  0  0  0  0  0  0
    7.7560  -12.6278   25.6779 C   0  0  0  0  0  0  0  0  0  0  0  0
    6.4476  -14.7625   25.4616 C   0  0  2  0  0  0  0  0  0  0  0  0
    5.8769  -15.8044   26.2970 N   0  0  0  0  0  0  0  0  0  0  0  0
    7.4085  -15.2840   24.4800 C   0  0  0  0  0  0  0  0  0  0  0  0
    7.8268  -16.4630   24.6146 O   0  0  0  0  0  0  0  0  0  0  0  0
    7.5977  -12.3192   19.9559 C   0  0  0  0  0  0  0  0  0  0  0  0
    7.4429  -13.5720   20.7715 C   0  0  1  0  0  0  0  0  0  0  0  0
    6.5829  -14.5103   19.9139 C   0  0  0  0  0  0  0  0  0  0  0  0
    8.7374  -14.2147   21.1297 C   0  0  0  0  0  0  0  0  0  0  0  0
    8.6453  -15.1890   22.2578 C   0  0  2  0  0  0  0  0  0  0  0  0
    7.9035  -14.5412   23.3773 N   0  0  0  0  0  0  0  0  0  0  0  0
    9.9284  -15.6041   22.8491 C   0  0  0  0  0  0  0  0  0  0  0  0
   10.5764  -14.8038   23.6010 O   0  0  0  0  0  0  0  0  0  0  0  0
   10.5360  -16.8692   22.6556 N   0  0  0  0  0  0  0  0  0  0  0  0
   11.8560  -17.1652   23.2066 C   0  0  0  0  0  0  0  0  0  0  0  0
   12.8322  -17.4793   22.1557 C   0  0  0  0  0  0  0  0  0  0  0  0
   13.3688  -16.5221   21.5463 O   0  0  0  0  0  0  0  0  0  0  0  0
   13.1166  -18.8166   21.8842 O   0  0  0  0  0  0  0  0  0  0  0  0
  2  1  1  0
  3  4  1  6
  3  2  1  0
  5  7  1  0
  5  3  1  0
  5  6  1  1
  7  8  2  0
 10  9  1  6
 10 12  1  0
 11 10  1  0
 13 12  1  6
 14  7  1  0
 14 13  1  0
 15 17  1  0
 15 13  1  0
 16 15  2  0
 18 17  1  0
 19 18  1  0
 19 21  1  0
 20 19  2  0
M  END
$$$$
