ILG.pdb
     RDKit          3D

 21 20  0  0  1  0  0  0  0  0999 V2000
    7.8171  -12.9100   17.8814 C   0  0  0  0  0  0  0  0  0  0  0  0
    7.6109  -14.1492   18.7388 C   0  0  0  0  0  0  0  0  0  0  0  0
    7.7645  -13.7683   20.1959 C   0  0  2  0  0  0  0  0  0  0  0  0
    9.0856  -13.1150   20.4124 C   0  0  0  0  0  0  0  0  0  0  0  0
    7.4551  -14.8848   21.1367 C   0  0  2  0  0  0  0  0  0  0  0  0
    6.2358  -15.5241   20.6742 N   0  0  0  0  0  0  0  0  0  0  0  0
    7.3884  -14.4901   22.5504 C   0  0  0  0  0  0  0  0  0  0  0  0
    6.5437  -13.6233   22.8943 O   0  0  0  0  0  0  0  0  0  0  0  0
    7.8518  -11.8311   26.5731 C   0  0  0  0  0  0  0  0  0  0  0  0
    7.3479  -13.2316   26.7812 C   0  0  1  0  0  0  0  0  0  0  0  0
    5.9886  -13.0744   27.4762 C   0  0  0  0  0  0  0  0  0  0  0  0
    7.2140  -14.0112   25.5197 C   0  0  0  0  0  0  0  0  0  0  0  0
    8.5091  -14.2791   24.8256 C   0  0  2  0  0  0  0  0  0  0  0  0
    8.2209  -15.0250   23.5672 N   0  0  0  0  0  0  0  0  0  0  0  0
    9.4608  -15.1319   25.5571 C   0  0  0  0  0  0  0  0  0  0  0  0
   10.0716  -14.6791   26.5807 O   0  0  0  0  0  0  0  0  0  0  0  0
    9.7723  -16.4715   25.2172 N   0  0  0  0  0  0  0  0  0  0  0  0
   10.7300  -17.2466   26.0020 C   0  0  0  0  0  0  0  0  0  0  0  0
   10.1303  -17.7762   27.2332 C   0  0  0  0  0  0  0  0  0  0  0  0
    8.9284  -17.5007   27.4678 O   0  0  0  0  0  0  0  0  0  0  0  0
   10.9174  -18.5553   28.0798 O   0  0  0  0  0  0  0  0  0  0  0  0
  2  1  1  0
  3  4  1  6
  3  2  1  0
  5  7  1  0
  5  3  1  0
  5  6  1  6
  7  8  2  0
 10  9  1  6
 10 12  1  0
 11 10  1  0
 13 12  1  1
 14  7  1  0
 14 13  1  0
 15 17  1  0
 15 13  1  0
 16 15  2  0
 18 17  1  0
 19 18  1  0
 19 21  1  0
 20 19  2  0
M  END
$$$$
