ILG.pdb
     RDKit          3D

 21 20  0  0  1  0  0  0  0  0999 V2000
    7.7952  -21.8221   24.6372 C   0  0  0  0  0  0  0  0  0  0  0  0
    6.6119  -20.8698   24.5595 C   0  0  0  0  0  0  0  0  0  0  0  0
    7.1292  -19.4593   24.3733 C   0  0  2  0  0  0  0  0  0  0  0  0
    8.1399  -19.1474   25.4221 C   0  0  0  0  0  0  0  0  0  0  0  0
    6.0448  -18.4444   24.2254 C   0  0  2  0  0  0  0  0  0  0  0  0
    5.2098  -18.8530   23.1096 N   0  0  0  0  0  0  0  0  0  0  0  0
    6.5189  -17.0591   24.1028 C   0  0  0  0  0  0  0  0  0  0  0  0
    6.9673  -16.6722   22.9927 O   0  0  0  0  0  0  0  0  0  0  0  0
    6.8633  -11.7433   27.0935 C   0  0  0  0  0  0  0  0  0  0  0  0
    6.4739  -12.3862   25.7920 C   0  0  1  0  0  0  0  0  0  0  0  0
    7.6623  -12.1476   24.8505 C   0  0  0  0  0  0  0  0  0  0  0  0
    6.1721  -13.8394   25.9110 C   0  0  0  0  0  0  0  0  0  0  0  0
    6.9431  -14.7037   24.9680 C   0  0  2  0  0  0  0  0  0  0  0  0
    6.5060  -16.1158   25.1624 N   0  0  0  0  0  0  0  0  0  0  0  0
    8.4009  -14.7309   25.1739 C   0  0  0  0  0  0  0  0  0  0  0  0
    9.0836  -13.6595   25.0660 O   0  0  0  0  0  0  0  0  0  0  0  0
    9.1497  -15.8885   25.5002 N   0  0  0  0  0  0  0  0  0  0  0  0
   10.5698  -15.8009   25.8310 C   0  0  0  0  0  0  0  0  0  0  0  0
   11.4226  -16.1555   24.6895 C   0  0  0  0  0  0  0  0  0  0  0  0
   10.8630  -16.4292   23.5998 O   0  0  0  0  0  0  0  0  0  0  0  0
   12.8051  -16.1721   24.8665 O   0  0  0  0  0  0  0  0  0  0  0  0
  2  1  1  0
  3  4  1  1
  3  2  1  0
  5  7  1  0
  5  3  1  0
  5  6  1  6
  7  8  2  0
 10  9  1  1
 10 12  1  0
 11 10  1  0
 13 12  1  1
 14  7  1  0
 14 13  1  0
 15 17  1  0
 15 13  1  0
 16 15  2  0
 18 17  1  0
 19 18  1  0
 19 21  1  0
 20 19  2  0
M  END
$$$$
