ILG.pdb
     RDKit          3D

 21 20  0  0  1  0  0  0  0  0999 V2000
    8.0842  -12.1696   19.7980 C   0  0  0  0  0  0  0  0  0  0  0  0
    7.7101  -13.2178   20.8346 C   0  0  0  0  0  0  0  0  0  0  0  0
    8.3886  -14.5234   20.4786 C   0  0  2  0  0  0  0  0  0  0  0  0
    7.9657  -14.9600   19.1187 C   0  0  0  0  0  0  0  0  0  0  0  0
    8.2632  -15.5657   21.5395 C   0  0  2  0  0  0  0  0  0  0  0  0
    6.9070  -16.0828   21.4894 N   0  0  0  0  0  0  0  0  0  0  0  0
    8.6509  -15.1171   22.8838 C   0  0  0  0  0  0  0  0  0  0  0  0
    9.8285  -14.7141   23.0678 O   0  0  0  0  0  0  0  0  0  0  0  0
    5.2911  -12.2345   26.5314 C   0  0  0  0  0  0  0  0  0  0  0  0
    6.5028  -12.6594   25.7504 C   0  0  1  0  0  0  0  0  0  0  0  0
    7.6108  -11.6776   26.1551 C   0  0  0  0  0  0  0  0  0  0  0  0
    6.9168  -14.0660   26.0097 C   0  0  0  0  0  0  0  0  0  0  0  0
    8.1639  -14.4778   25.2986 C   0  0  2  0  0  0  0  0  0  0  0  0
    7.7786  -15.1067   24.0027 N   0  0  0  0  0  0  0  0  0  0  0  0
    8.9813  -15.4952   25.9805 C   0  0  0  0  0  0  0  0  0  0  0  0
    9.3565  -15.3138   27.1855 O   0  0  0  0  0  0  0  0  0  0  0  0
    9.4054  -16.7149   25.3978 N   0  0  0  0  0  0  0  0  0  0  0  0
   10.1611  -17.6981   26.1699 C   0  0  0  0  0  0  0  0  0  0  0  0
   10.4615  -18.9010   25.3833 C   0  0  0  0  0  0  0  0  0  0  0  0
   10.1259  -18.9119   24.1738 O   0  0  0  0  0  0  0  0  0  0  0  0
   11.1013  -19.9687   26.0108 O   0  0  0  0  0  0  0  0  0  0  0  0
  2  1  1  0
  3  4  1  6
  3  2  1  0
  5  7  1  0
  5  3  1  0
  5  6  1  1
  7  8  2  0
 10  9  1  1
 10 12  1  0
 11 10  1  0
 13 12  1  1
 14  7  1  0
 14 13  1  0
 15 17  1  0
 15 13  1  0
 16 15  2  0
 18 17  1  0
 19 18  1  0
 19 21  1  0
 20 19  2  0
M  END
$$$$
