ILG.pdb
     RDKit          3D

 21 20  0  0  1  0  0  0  0  0999 V2000
    7.3961  -22.2645   24.4235 C   0  0  0  0  0  0  0  0  0  0  0  0
    6.3532  -21.1861   24.1736 C   0  0  0  0  0  0  0  0  0  0  0  0
    7.0280  -19.8317   24.2181 C   0  0  2  0  0  0  0  0  0  0  0  0
    7.8976  -19.7380   25.4238 C   0  0  0  0  0  0  0  0  0  0  0  0
    6.0823  -18.6914   24.0364 C   0  0  2  0  0  0  0  0  0  0  0  0
    5.3357  -18.9301   22.8138 N   0  0  0  0  0  0  0  0  0  0  0  0
    6.7136  -17.3650   24.0668 C   0  0  0  0  0  0  0  0  0  0  0  0
    7.2886  -16.9479   23.0283 O   0  0  0  0  0  0  0  0  0  0  0  0
    6.0352  -11.9073   26.7889 C   0  0  0  0  0  0  0  0  0  0  0  0
    6.9712  -12.8386   26.0711 C   0  0  1  0  0  0  0  0  0  0  0  0
    8.3011  -12.7419   26.8310 C   0  0  0  0  0  0  0  0  0  0  0  0
    6.4888  -14.2464   26.0190 C   0  0  0  0  0  0  0  0  0  0  0  0
    7.3128  -15.1440   25.1553 C   0  0  2  0  0  0  0  0  0  0  0  0
    6.7198  -16.5113   25.2000 N   0  0  0  0  0  0  0  0  0  0  0  0
    8.7114  -15.3282   25.5774 C   0  0  0  0  0  0  0  0  0  0  0  0
    9.5160  -14.3390   25.5795 O   0  0  0  0  0  0  0  0  0  0  0  0
    9.2714  -16.5571   26.0056 N   0  0  0  0  0  0  0  0  0  0  0  0
   10.6862  -16.6618   26.3535 C   0  0  0  0  0  0  0  0  0  0  0  0
   10.8855  -16.8324   27.7982 C   0  0  0  0  0  0  0  0  0  0  0  0
   10.4081  -15.9607   28.5648 O   0  0  0  0  0  0  0  0  0  0  0  0
   11.5907  -17.9468   28.2497 O   0  0  0  0  0  0  0  0  0  0  0  0
  2  1  1  0
  3  4  1  1
  3  2  1  0
  5  7  1  0
  5  3  1  0
  5  6  1  6
  7  8  2  0
 10  9  1  1
 10 12  1  0
 11 10  1  0
 13 12  1  1
 14  7  1  0
 14 13  1  0
 15 17  1  0
 15 13  1  0
 16 15  2  0
 18 17  1  0
 19 18  1  0
 19 21  1  0
 20 19  2  0
M  END
$$$$
