ILG.pdb
     RDKit          3D

 21 20  0  0  1  0  0  0  0  0999 V2000
    7.8761  -11.8440   19.5183 C   0  0  0  0  0  0  0  0  0  0  0  0
    7.3275  -12.8491   20.5192 C   0  0  0  0  0  0  0  0  0  0  0  0
    8.1861  -14.0954   20.4833 C   0  0  2  0  0  0  0  0  0  0  0  0
    8.2028  -14.6598   19.1049 C   0  0  0  0  0  0  0  0  0  0  0  0
    7.8542  -15.0757   21.5587 C   0  0  2  0  0  0  0  0  0  0  0  0
    6.5324  -15.6071   21.2762 N   0  0  0  0  0  0  0  0  0  0  0  0
    7.9739  -14.5466   22.9242 C   0  0  0  0  0  0  0  0  0  0  0  0
    7.5447  -13.3877   23.1606 O   0  0  0  0  0  0  0  0  0  0  0  0
    5.5440  -12.5214   26.1575 C   0  0  0  0  0  0  0  0  0  0  0  0
    6.8513  -12.9226   25.5341 C   0  0  1  0  0  0  0  0  0  0  0  0
    7.8873  -11.9400   26.0970 C   0  0  0  0  0  0  0  0  0  0  0  0
    7.2420  -14.3306   25.8208 C   0  0  0  0  0  0  0  0  0  0  0  0
    8.6248  -14.6836   25.3806 C   0  0  2  0  0  0  0  0  0  0  0  0
    8.5468  -15.2606   24.0080 N   0  0  0  0  0  0  0  0  0  0  0  0
    9.3063  -15.7139   26.1821 C   0  0  0  0  0  0  0  0  0  0  0  0
    9.4961  -15.5338   27.4300 O   0  0  0  0  0  0  0  0  0  0  0  0
    9.7888  -16.9452   25.6740 N   0  0  0  0  0  0  0  0  0  0  0  0
   10.4600  -17.9093   26.5422 C   0  0  0  0  0  0  0  0  0  0  0  0
   11.5674  -18.5877   25.8570 C   0  0  0  0  0  0  0  0  0  0  0  0
   12.1754  -17.9590   24.9567 O   0  0  0  0  0  0  0  0  0  0  0  0
   11.8909  -19.8899   26.2346 O   0  0  0  0  0  0  0  0  0  0  0  0
  2  1  1  0
  3  4  1  6
  3  2  1  0
  5  7  1  0
  5  3  1  0
  5  6  1  6
  7  8  2  0
 10  9  1  1
 10 12  1  0
 11 10  1  0
 13 12  1  1
 14  7  1  0
 14 13  1  0
 15 17  1  0
 15 13  1  0
 16 15  2  0
 18 17  1  0
 19 18  1  0
 19 21  1  0
 20 19  2  0
M  END
$$$$
