ILG.pdb
     RDKit          3D

 21 20  0  0  1  0  0  0  0  0999 V2000
    9.6033  -20.1459   21.8687 C   0  0  0  0  0  0  0  0  0  0  0  0
    8.7746  -18.8847   21.6800 C   0  0  0  0  0  0  0  0  0  0  0  0
    9.0789  -17.9244   22.8100 C   0  0  2  0  0  0  0  0  0  0  0  0
    9.0346  -18.6447   24.1131 C   0  0  0  0  0  0  0  0  0  0  0  0
    8.2697  -16.6714   22.7579 C   0  0  2  0  0  0  0  0  0  0  0  0
    8.2894  -16.1922   21.3871 N   0  0  0  0  0  0  0  0  0  0  0  0
    8.6759  -15.6426   23.7252 C   0  0  0  0  0  0  0  0  0  0  0  0
    9.7273  -14.9884   23.5024 O   0  0  0  0  0  0  0  0  0  0  0  0
    5.2836  -12.0691   26.4015 C   0  0  0  0  0  0  0  0  0  0  0  0
    6.4778  -12.6584   25.7047 C   0  0  1  0  0  0  0  0  0  0  0  0
    7.3973  -11.4681   25.3995 C   0  0  0  0  0  0  0  0  0  0  0  0
    7.1901  -13.6888   26.5098 C   0  0  0  0  0  0  0  0  0  0  0  0
    8.3988  -14.2586   25.8428 C   0  0  2  0  0  0  0  0  0  0  0  0
    7.9559  -15.3320   24.9075 N   0  0  0  0  0  0  0  0  0  0  0  0
    9.3697  -14.9153   26.7341 C   0  0  0  0  0  0  0  0  0  0  0  0
   10.0213  -14.2294   27.5889 O   0  0  0  0  0  0  0  0  0  0  0  0
    9.6575  -16.3025   26.7338 N   0  0  0  0  0  0  0  0  0  0  0  0
   10.5615  -16.8864   27.7217 C   0  0  0  0  0  0  0  0  0  0  0  0
   10.6370  -18.3478   27.6010 C   0  0  0  0  0  0  0  0  0  0  0  0
   10.1408  -18.8800   26.5782 O   0  0  0  0  0  0  0  0  0  0  0  0
   11.2520  -19.0728   28.6204 O   0  0  0  0  0  0  0  0  0  0  0  0
  2  1  1  0
  3  4  1  1
  3  2  1  0
  5  7  1  0
  5  3  1  0
  5  6  1  6
  7  8  2  0
 10  9  1  1
 10 12  1  0
 11 10  1  0
 13 12  1  1
 14  7  1  0
 14 13  1  0
 15 17  1  0
 15 13  1  0
 16 15  2  0
 18 17  1  0
 19 18  1  0
 19 21  1  0
 20 19  2  0
M  END
$$$$
