RHW.pdb
     RDKit          3D

 36 38  0  0  1  0  0  0  0  0999 V2000
    9.3038  -11.3666   18.6126 N   0  0  0  0  0  0  0  0  0  0  0  0
    8.4294  -12.4756   18.5696 C   0  0  0  0  0  0  0  0  0  0  0  0
    8.3038  -13.1503   17.4863 N   0  0  0  0  0  0  0  0  0  0  0  0
    7.6963  -12.8323   19.7218 N   0  0  0  0  0  0  0  0  0  0  0  0
    6.7731  -13.9811   19.6409 C   0  0  0  0  0  0  0  0  0  0  0  0
    7.5574  -15.2393   19.5376 C   0  0  0  0  0  0  0  0  0  0  0  0
    8.0045  -15.7651   20.8436 C   0  0  0  0  0  0  0  0  0  0  0  0
    8.8777  -16.9590   20.8589 C   0  0  2  0  0  0  0  0  0  0  0  0
    8.4989  -18.0834   20.0699 N   0  0  0  0  0  0  0  0  0  0  0  0
    9.1112  -17.3813   22.2771 C   0  0  0  0  0  0  0  0  0  0  0  0
    8.1034  -17.4816   22.9880 O   0  0  0  0  0  0  0  0  0  0  0  0
    7.7304  -14.0334   17.4601 N   0  0  0  0  0  0  0  0  0  0  0  0
   10.3982  -17.6535   22.8281 C   0  0  1  0  0  0  0  0  0  0  0  0
   10.6944  -17.9653   24.1800 C   0  0  0  0  0  0  0  0  0  0  0  0
   11.7027  -19.1044   24.3761 C   0  0  0  0  0  0  0  0  0  0  0  0
   11.2021  -20.3242   23.6976 C   0  0  0  0  0  0  0  0  0  0  0  0
   10.0667  -20.5330   23.0238 N   0  0  0  0  0  0  0  0  0  0  0  0
   10.0743  -21.8349   22.5886 C   0  0  0  0  0  0  0  0  0  0  0  0
   11.2121  -22.4218   22.9935 N   0  0  0  0  0  0  0  0  0  0  0  0
   11.9114  -21.5121   23.6724 C   0  0  0  0  0  0  0  0  0  0  0  0
   10.7251  -16.9107   25.1703 O   0  0  0  0  0  0  0  0  0  0  0  0
   11.2977  -15.7941   24.8689 N   0  0  0  0  0  0  0  0  0  0  0  0
   10.1849  -16.9695   26.4583 C   0  0  1  0  0  0  0  0  0  0  0  0
   10.3921  -16.0506   27.5629 C   0  0  0  0  0  0  0  0  0  0  0  0
    9.1210  -15.8331   28.3388 C   0  0  0  0  0  0  0  0  0  0  0  0
    8.0324  -15.3763   27.4520 C   0  0  0  0  0  0  0  0  0  0  0  0
    7.0493  -16.0971   26.8146 N   0  0  0  0  0  0  0  0  0  0  0  0
    6.2665  -15.2576   26.1000 C   0  0  0  0  0  0  0  0  0  0  0  0
    6.6979  -13.9839   26.2392 C   0  0  0  0  0  0  0  0  0  0  0  0
    6.2512  -12.7688   25.7301 C   0  0  0  0  0  0  0  0  0  0  0  0
    6.8846  -11.5946   26.0467 C   0  0  0  0  0  0  0  0  0  0  0  0
    7.9856  -11.6566   26.8900 C   0  0  0  0  0  0  0  0  0  0  0  0
    8.4354  -12.8670   27.3987 C   0  0  0  0  0  0  0  0  0  0  0  0
    7.7961  -14.0389   27.0778 C   0  0  0  0  0  0  0  0  0  0  0  0
   11.3804  -16.6814   28.4724 O   0  0  0  0  0  0  0  0  0  0  0  0
   11.7628  -17.8455   28.3286 O   0  0  0  0  0  0  0  0  0  0  0  0
  2  1  1  0
  3  2  2  0
  4  2  1  0
  5  4  1  0
  6  7  1  0
  6  5  1  0
  8  7  1  0
  8 10  1  0
  8  9  1  6
 10 11  2  0
 12 13  1  0
 12 10  1  0
 13 20  1  0
 13 14  1  1
 15 14  1  0
 16 15  2  0
 17 18  1  0
 17 16  1  0
 18 19  2  0
 19 15  1  0
 20 22  1  0
 21 20  2  0
 22 23  1  0
 23 24  1  1
 24 25  1  0
 25 33  1  0
 26 25  2  0
 26 27  1  0
 27 28  1  0
 28 29  2  0
 29 30  1  0
 31 30  2  0
 32 31  1  0
 33 32  2  0
 33 28  1  0
 34 23  1  0
 35 34  2  0
 36 34  1  0
M  END
$$$$
