RHW.pdb
     RDKit          3D

 36 38  0  0  1  0  0  0  0  0999 V2000
    8.3513  -12.5070   13.5833 N   0  0  0  0  0  0  0  0  0  0  0  0
    8.0353  -13.3938   14.6369 C   0  0  0  0  0  0  0  0  0  0  0  0
    7.8604  -14.6407   14.3936 N   0  0  0  0  0  0  0  0  0  0  0  0
    7.9114  -12.8991   15.9530 N   0  0  0  0  0  0  0  0  0  0  0  0
    7.4585  -13.8220   17.0121 C   0  0  0  0  0  0  0  0  0  0  0  0
    8.5996  -14.6650   17.4545 C   0  0  0  0  0  0  0  0  0  0  0  0
    8.9920  -14.4367   18.8602 C   0  0  0  0  0  0  0  0  0  0  0  0
   10.0862  -15.2554   19.4263 C   0  0  2  0  0  0  0  0  0  0  0  0
   10.6348  -16.2976   18.6244 N   0  0  0  0  0  0  0  0  0  0  0  0
    9.6586  -15.8000   20.7547 C   0  0  0  0  0  0  0  0  0  0  0  0
    9.0917  -15.0030   21.5128 O   0  0  0  0  0  0  0  0  0  0  0  0
    7.7191  -15.3318   15.1757 N   0  0  0  0  0  0  0  0  0  0  0  0
    9.8768  -17.1455   21.1744 C   0  0  1  0  0  0  0  0  0  0  0  0
    9.4354  -17.7396   22.3846 C   0  0  0  0  0  0  0  0  0  0  0  0
    9.0712  -19.2261   22.2815 C   0  0  0  0  0  0  0  0  0  0  0  0
    7.9785  -19.3953   21.2934 C   0  0  0  0  0  0  0  0  0  0  0  0
    7.3026  -18.4824   20.5887 N   0  0  0  0  0  0  0  0  0  0  0  0
    6.3885  -19.1494   19.8116 C   0  0  0  0  0  0  0  0  0  0  0  0
    6.5050  -20.4678   20.0386 N   0  0  0  0  0  0  0  0  0  0  0  0
    7.4718  -20.6340   20.9415 C   0  0  0  0  0  0  0  0  0  0  0  0
   10.0023  -17.3094   23.6446 O   0  0  0  0  0  0  0  0  0  0  0  0
   11.2854  -17.2193   23.7483 N   0  0  0  0  0  0  0  0  0  0  0  0
    9.2904  -16.9688   24.7985 C   0  0  1  0  0  0  0  0  0  0  0  0
    9.8003  -16.4087   26.0370 C   0  0  0  0  0  0  0  0  0  0  0  0
    8.7999  -15.4789   26.6692 C   0  0  0  0  0  0  0  0  0  0  0  0
    8.1989  -14.5843   25.6600 C   0  0  0  0  0  0  0  0  0  0  0  0
    8.1973  -14.6737   24.2873 N   0  0  0  0  0  0  0  0  0  0  0  0
    7.5225  -13.6233   23.7680 C   0  0  0  0  0  0  0  0  0  0  0  0
    7.0671  -12.8242   24.7589 C   0  0  0  0  0  0  0  0  0  0  0  0
    6.3284  -11.6455   24.7646 C   0  0  0  0  0  0  0  0  0  0  0  0
    5.9866  -11.0318   25.9422 C   0  0  0  0  0  0  0  0  0  0  0  0
    6.4015  -11.6229   27.1278 C   0  0  0  0  0  0  0  0  0  0  0  0
    7.1401  -12.7979   27.1263 C   0  0  0  0  0  0  0  0  0  0  0  0
    7.4785  -13.4072   25.9434 C   0  0  0  0  0  0  0  0  0  0  0  0
   10.0213  -17.5433   26.9675 O   0  0  0  0  0  0  0  0  0  0  0  0
    9.6374  -18.6886   26.7169 O   0  0  0  0  0  0  0  0  0  0  0  0
  2  1  1  0
  3  2  2  0
  4  2  1  0
  5  4  1  0
  6  7  1  0
  6  5  1  0
  8  7  1  0
  8 10  1  0
  8  9  1  6
 10 11  2  0
 12 13  1  0
 12 10  1  0
 13 20  1  0
 13 14  1  1
 15 14  1  0
 16 15  2  0
 17 18  1  0
 17 16  1  0
 18 19  2  0
 19 15  1  0
 20 22  1  0
 21 20  2  0
 22 23  1  0
 23 24  1  1
 24 25  1  0
 25 33  1  0
 26 25  2  0
 26 27  1  0
 27 28  1  0
 28 29  2  0
 29 30  1  0
 31 30  2  0
 32 31  1  0
 33 32  2  0
 33 28  1  0
 34 23  1  0
 35 34  2  0
 36 34  1  0
M  END
$$$$
