RHW.pdb
     RDKit          3D

 36 38  0  0  1  0  0  0  0  0999 V2000
   15.8177  -15.4299   19.3756 N   0  0  0  0  0  0  0  0  0  0  0  0
   14.8180  -15.2431   18.3948 C   0  0  0  0  0  0  0  0  0  0  0  0
   14.6463  -14.0867   17.8678 N   0  0  0  0  0  0  0  0  0  0  0  0
   14.0115  -16.3331   18.0029 N   0  0  0  0  0  0  0  0  0  0  0  0
   12.5468  -16.2083   18.1355 C   0  0  0  0  0  0  0  0  0  0  0  0
   11.9418  -17.5624   18.2309 C   0  0  0  0  0  0  0  0  0  0  0  0
   11.9671  -18.1252   19.5964 C   0  0  0  0  0  0  0  0  0  0  0  0
   10.7174  -18.1065   20.3876 C   0  0  2  0  0  0  0  0  0  0  0  0
    9.4916  -18.3969   19.7217 N   0  0  0  0  0  0  0  0  0  0  0  0
   10.6116  -16.7996   21.1120 C   0  0  0  0  0  0  0  0  0  0  0  0
   11.6387  -16.4074   21.6799 O   0  0  0  0  0  0  0  0  0  0  0  0
   13.8149  -13.8887   17.2522 N   0  0  0  0  0  0  0  0  0  0  0  0
    9.4198  -16.0195   21.1830 C   0  0  1  0  0  0  0  0  0  0  0  0
    9.2311  -14.8223   21.9204 C   0  0  0  0  0  0  0  0  0  0  0  0
    8.1552  -13.8814   21.3639 C   0  0  0  0  0  0  0  0  0  0  0  0
    8.3297  -13.7506   19.8971 C   0  0  0  0  0  0  0  0  0  0  0  0
    8.9278  -12.7935   19.1808 N   0  0  0  0  0  0  0  0  0  0  0  0
    8.8199  -13.1363   17.8559 C   0  0  0  0  0  0  0  0  0  0  0  0
    8.1586  -14.3011   17.7609 N   0  0  0  0  0  0  0  0  0  0  0  0
    7.8523  -14.6889   18.9992 C   0  0  0  0  0  0  0  0  0  0  0  0
    9.3845  -14.8332   23.3593 O   0  0  0  0  0  0  0  0  0  0  0  0
    9.4721  -13.7061   23.9816 N   0  0  0  0  0  0  0  0  0  0  0  0
    9.4493  -15.9662   24.1756 C   0  0  1  0  0  0  0  0  0  0  0  0
    9.7328  -16.0346   25.5978 C   0  0  0  0  0  0  0  0  0  0  0  0
    8.5217  -16.4732   26.3762 C   0  0  0  0  0  0  0  0  0  0  0  0
    7.3607  -15.6115   26.0768 C   0  0  0  0  0  0  0  0  0  0  0  0
    6.1877  -15.9040   25.4205 N   0  0  0  0  0  0  0  0  0  0  0  0
    5.4084  -14.7999   25.3764 C   0  0  0  0  0  0  0  0  0  0  0  0
    6.0280  -13.7657   25.9884 C   0  0  0  0  0  0  0  0  0  0  0  0
    5.6651  -12.4426   26.2180 C   0  0  0  0  0  0  0  0  0  0  0  0
    6.5004  -11.5874   26.8896 C   0  0  0  0  0  0  0  0  0  0  0  0
    7.7193  -12.0830   27.3322 C   0  0  0  0  0  0  0  0  0  0  0  0
    8.0857  -13.4020   27.1037 C   0  0  0  0  0  0  0  0  0  0  0  0
    7.2442  -14.2528   26.4307 C   0  0  0  0  0  0  0  0  0  0  0  0
   10.7896  -17.0601   25.7805 O   0  0  0  0  0  0  0  0  0  0  0  0
   11.2140  -17.7461   24.8472 O   0  0  0  0  0  0  0  0  0  0  0  0
  2  1  1  0
  3  2  2  0
  4  2  1  0
  5  4  1  0
  6  7  1  0
  6  5  1  0
  8  7  1  0
  8 10  1  0
  8  9  1  6
 10 11  2  0
 12 13  1  0
 12 10  1  0
 13 20  1  0
 13 14  1  1
 15 14  1  0
 16 15  2  0
 17 18  1  0
 17 16  1  0
 18 19  2  0
 19 15  1  0
 20 22  1  0
 21 20  2  0
 22 23  1  0
 23 24  1  1
 24 25  1  0
 25 33  1  0
 26 25  2  0
 26 27  1  0
 27 28  1  0
 28 29  2  0
 29 30  1  0
 31 30  2  0
 32 31  1  0
 33 32  2  0
 33 28  1  0
 34 23  1  0
 35 34  2  0
 36 34  1  0
M  END
$$$$
