RHW.pdb
     RDKit          3D

 36 38  0  0  1  0  0  0  0  0999 V2000
    8.6357  -11.8779   17.1582 N   0  0  0  0  0  0  0  0  0  0  0  0
    8.6623  -13.2553   16.8443 C   0  0  0  0  0  0  0  0  0  0  0  0
    8.5057  -13.6385   15.6305 N   0  0  0  0  0  0  0  0  0  0  0  0
    8.8588  -14.2024   17.8722 N   0  0  0  0  0  0  0  0  0  0  0  0
    7.6761  -14.7201   18.5877 C   0  0  0  0  0  0  0  0  0  0  0  0
    7.8183  -14.4456   20.0413 C   0  0  0  0  0  0  0  0  0  0  0  0
    8.8732  -15.2483   20.6931 C   0  0  0  0  0  0  0  0  0  0  0  0
    8.6994  -16.7157   20.7602 C   0  0  2  0  0  0  0  0  0  0  0  0
    7.4804  -17.2745   20.2783 N   0  0  0  0  0  0  0  0  0  0  0  0
    8.9593  -17.1799   22.1606 C   0  0  0  0  0  0  0  0  0  0  0  0
    7.9711  -17.2550   22.9014 O   0  0  0  0  0  0  0  0  0  0  0  0
    8.4609  -14.6620   15.3859 N   0  0  0  0  0  0  0  0  0  0  0  0
   10.2505  -17.5175   22.6638 C   0  0  2  0  0  0  0  0  0  0  0  0
   10.5727  -17.8893   23.9943 C   0  0  0  0  0  0  0  0  0  0  0  0
   11.5416  -19.0718   24.1199 C   0  0  0  0  0  0  0  0  0  0  0  0
   11.0278  -20.2129   23.3243 C   0  0  0  0  0  0  0  0  0  0  0  0
    9.9279  -20.3148   22.5716 N   0  0  0  0  0  0  0  0  0  0  0  0
    9.9019  -21.5809   22.0418 C   0  0  0  0  0  0  0  0  0  0  0  0
   10.9839  -22.2525   22.4676 N   0  0  0  0  0  0  0  0  0  0  0  0
   11.6813  -21.4305   23.2521 C   0  0  0  0  0  0  0  0  0  0  0  0
   10.6722  -16.8734   25.0200 O   0  0  0  0  0  0  0  0  0  0  0  0
   11.3712  -15.8158   24.7789 N   0  0  0  0  0  0  0  0  0  0  0  0
   10.0748  -16.9122   26.2832 C   0  0  1  0  0  0  0  0  0  0  0  0
   10.2150  -15.9639   27.3735 C   0  0  0  0  0  0  0  0  0  0  0  0
    8.9165  -15.7854   28.1131 C   0  0  0  0  0  0  0  0  0  0  0  0
    7.8542  -15.3046   27.2072 C   0  0  0  0  0  0  0  0  0  0  0  0
    6.9062  -16.0097   26.5027 N   0  0  0  0  0  0  0  0  0  0  0  0
    6.1375  -15.1501   25.7968 C   0  0  0  0  0  0  0  0  0  0  0  0
    6.5442  -13.8780   26.0076 C   0  0  0  0  0  0  0  0  0  0  0  0
    6.0981  -12.6478   25.5357 C   0  0  0  0  0  0  0  0  0  0  0  0
    6.7016  -11.4803   25.9268 C   0  0  0  0  0  0  0  0  0  0  0  0
    7.7718  -11.5646   26.8071 C   0  0  0  0  0  0  0  0  0  0  0  0
    8.2209  -12.7902   27.2788 C   0  0  0  0  0  0  0  0  0  0  0  0
    7.6116  -13.9552   26.8832 C   0  0  0  0  0  0  0  0  0  0  0  0
   11.2053  -16.5345   28.3199 O   0  0  0  0  0  0  0  0  0  0  0  0
   11.5640  -15.9404   29.3398 O   0  0  0  0  0  0  0  0  0  0  0  0
  2  1  1  0
  3  2  2  0
  4  2  1  0
  5  4  1  0
  6  7  1  0
  6  5  1  0
  8  7  1  0
  8 10  1  0
  8  9  1  1
 10 11  2  0
 12 13  1  0
 12 10  1  0
 13 20  1  0
 13 14  1  1
 15 14  1  0
 16 15  2  0
 17 18  1  0
 17 16  1  0
 18 19  2  0
 19 15  1  0
 20 22  1  0
 21 20  2  0
 22 23  1  0
 23 24  1  1
 24 25  1  0
 25 33  1  0
 26 25  2  0
 26 27  1  0
 27 28  1  0
 28 29  2  0
 29 30  1  0
 31 30  2  0
 32 31  1  0
 33 32  2  0
 33 28  1  0
 34 23  1  0
 35 34  2  0
 36 34  1  0
M  END
$$$$
