RHW.pdb
     RDKit          3D

 36 38  0  0  1  0  0  0  0  0999 V2000
    7.3357  -14.8810   13.9543 N   0  0  0  0  0  0  0  0  0  0  0  0
    7.7214  -13.6334   14.4938 C   0  0  0  0  0  0  0  0  0  0  0  0
    7.0117  -12.5900   14.2650 N   0  0  0  0  0  0  0  0  0  0  0  0
    8.8897  -13.5437   15.2807 N   0  0  0  0  0  0  0  0  0  0  0  0
    8.9579  -14.3251   16.5309 C   0  0  0  0  0  0  0  0  0  0  0  0
    8.0830  -13.6970   17.5549 C   0  0  0  0  0  0  0  0  0  0  0  0
    8.0614  -14.4252   18.8399 C   0  0  0  0  0  0  0  0  0  0  0  0
    9.3300  -14.9911   19.3485 C   0  0  2  0  0  0  0  0  0  0  0  0
   10.0352  -15.9163   18.5256 N   0  0  0  0  0  0  0  0  0  0  0  0
    9.0976  -15.5829   20.7049 C   0  0  0  0  0  0  0  0  0  0  0  0
    8.4208  -14.9032   21.4866 O   0  0  0  0  0  0  0  0  0  0  0  0
    7.2723  -11.6556   14.6754 N   0  0  0  0  0  0  0  0  0  0  0  0
    9.6117  -16.8453   21.1246 C   0  0  1  0  0  0  0  0  0  0  0  0
    9.4578  -17.4426   22.4021 C   0  0  0  0  0  0  0  0  0  0  0  0
    9.3844  -18.9747   22.3963 C   0  0  0  0  0  0  0  0  0  0  0  0
    8.4064  -19.4145   21.3720 C   0  0  0  0  0  0  0  0  0  0  0  0
    7.3542  -18.7748   20.8521 N   0  0  0  0  0  0  0  0  0  0  0  0
    6.7671  -19.6137   19.9377 C   0  0  0  0  0  0  0  0  0  0  0  0
    7.4588  -20.7639   19.8965 N   0  0  0  0  0  0  0  0  0  0  0  0
    8.4630  -20.6577   20.7672 C   0  0  0  0  0  0  0  0  0  0  0  0
   10.0873  -16.8400   23.5573 O   0  0  0  0  0  0  0  0  0  0  0  0
   11.2997  -16.4113   23.4492 N   0  0  0  0  0  0  0  0  0  0  0  0
    9.5082  -16.6647   24.8175 C   0  0  1  0  0  0  0  0  0  0  0  0
   10.1491  -16.2465   26.0512 C   0  0  0  0  0  0  0  0  0  0  0  0
    9.7559  -14.8420   26.4226 C   0  0  0  0  0  0  0  0  0  0  0  0
    8.3351  -14.5907   26.1089 C   0  0  0  0  0  0  0  0  0  0  0  0
    7.3271  -15.4750   25.8017 N   0  0  0  0  0  0  0  0  0  0  0  0
    6.1801  -14.7930   25.5840 C   0  0  0  0  0  0  0  0  0  0  0  0
    6.3891  -13.4660   25.7368 C   0  0  0  0  0  0  0  0  0  0  0  0
    5.5579  -12.3554   25.6324 C   0  0  0  0  0  0  0  0  0  0  0  0
    6.0384  -11.0903   25.8529 C   0  0  0  0  0  0  0  0  0  0  0  0
    7.3800  -10.9525   26.1823 C   0  0  0  0  0  0  0  0  0  0  0  0
    8.2129  -12.0578   26.2858 C   0  0  0  0  0  0  0  0  0  0  0  0
    7.7248  -13.3218   26.0640 C   0  0  0  0  0  0  0  0  0  0  0  0
    9.6656  -17.1544   27.1206 O   0  0  0  0  0  0  0  0  0  0  0  0
    8.7032  -17.9098   26.9620 O   0  0  0  0  0  0  0  0  0  0  0  0
  2  1  1  0
  3  2  2  0
  4  2  1  0
  5  4  1  0
  6  7  1  0
  6  5  1  0
  8  7  1  0
  8 10  1  0
  8  9  1  6
 10 11  2  0
 12 13  1  0
 12 10  1  0
 13 20  1  0
 13 14  1  1
 15 14  1  0
 16 15  2  0
 17 18  1  0
 17 16  1  0
 18 19  2  0
 19 15  1  0
 20 22  1  0
 21 20  2  0
 22 23  1  0
 23 24  1  1
 24 25  1  0
 25 33  1  0
 26 25  2  0
 26 27  1  0
 27 28  1  0
 28 29  2  0
 29 30  1  0
 31 30  2  0
 32 31  1  0
 33 32  2  0
 33 28  1  0
 34 23  1  0
 35 34  2  0
 36 34  1  0
M  END
$$$$
