RHW.pdb
     RDKit          3D

 36 38  0  0  1  0  0  0  0  0999 V2000
    7.5394  -12.9853   14.0931 N   0  0  0  0  0  0  0  0  0  0  0  0
    8.2564  -14.1749   14.3526 C   0  0  0  0  0  0  0  0  0  0  0  0
    8.2133  -15.1442   13.5140 N   0  0  0  0  0  0  0  0  0  0  0  0
    9.0149  -14.2891   15.5374 N   0  0  0  0  0  0  0  0  0  0  0  0
    8.4012  -13.8616   16.8099 C   0  0  0  0  0  0  0  0  0  0  0  0
    7.5252  -14.9459   17.3251 C   0  0  0  0  0  0  0  0  0  0  0  0
    7.6080  -15.1262   18.7889 C   0  0  0  0  0  0  0  0  0  0  0  0
    8.9303  -15.4090   19.3886 C   0  0  2  0  0  0  0  0  0  0  0  0
    9.8757  -16.1496   18.6216 N   0  0  0  0  0  0  0  0  0  0  0  0
    8.7375  -16.0527   20.7274 C   0  0  0  0  0  0  0  0  0  0  0  0
    7.6218  -16.5439   20.9396 O   0  0  0  0  0  0  0  0  0  0  0  0
    8.7333  -16.0421   13.6950 N   0  0  0  0  0  0  0  0  0  0  0  0
    9.7431  -16.1137   21.7369 C   0  0  1  0  0  0  0  0  0  0  0  0
    9.6251  -16.7114   23.0180 C   0  0  0  0  0  0  0  0  0  0  0  0
    9.0489  -18.1329   23.0191 C   0  0  0  0  0  0  0  0  0  0  0  0
    9.8153  -18.9730   22.0673 C   0  0  0  0  0  0  0  0  0  0  0  0
    9.4605  -20.0873   21.4199 N   0  0  0  0  0  0  0  0  0  0  0  0
   10.5297  -20.4829   20.6552 C   0  0  0  0  0  0  0  0  0  0  0  0
   11.5366  -19.6123   20.8326 N   0  0  0  0  0  0  0  0  0  0  0  0
   11.1158  -18.6844   21.6926 C   0  0  0  0  0  0  0  0  0  0  0  0
   10.6096  -16.4231   24.0387 O   0  0  0  0  0  0  0  0  0  0  0  0
   11.7381  -17.0482   24.0053 N   0  0  0  0  0  0  0  0  0  0  0  0
   10.4689  -15.5124   25.0898 C   0  0  2  0  0  0  0  0  0  0  0  0
    9.8539  -15.7252   26.3876 C   0  0  0  0  0  0  0  0  0  0  0  0
    8.4948  -16.3571   26.2514 C   0  0  0  0  0  0  0  0  0  0  0  0
    7.4601  -15.3350   25.9968 C   0  0  0  0  0  0  0  0  0  0  0  0
    6.1149  -15.4807   25.7482 N   0  0  0  0  0  0  0  0  0  0  0  0
    5.5550  -14.2629   25.5705 C   0  0  0  0  0  0  0  0  0  0  0  0
    6.4915  -13.2954   25.6931 C   0  0  0  0  0  0  0  0  0  0  0  0
    6.4402  -11.9079   25.6080 C   0  0  0  0  0  0  0  0  0  0  0  0
    7.5669  -11.1472   25.7872 C   0  0  0  0  0  0  0  0  0  0  0  0
    8.7598  -11.8049   26.0550 C   0  0  0  0  0  0  0  0  0  0  0  0
    8.8153  -13.1891   26.1391 C   0  0  0  0  0  0  0  0  0  0  0  0
    7.6831  -13.9445   25.9589 C   0  0  0  0  0  0  0  0  0  0  0  0
   10.7246  -16.6694   27.1305 O   0  0  0  0  0  0  0  0  0  0  0  0
   11.2515  -16.3762   28.2068 O   0  0  0  0  0  0  0  0  0  0  0  0
  2  1  1  0
  3  2  2  0
  4  2  1  0
  5  4  1  0
  6  7  1  0
  6  5  1  0
  8  7  1  0
  8 10  1  0
  8  9  1  6
 10 11  2  0
 12 13  1  0
 12 10  1  0
 13 20  1  0
 13 14  1  1
 15 14  1  0
 16 15  2  0
 17 18  1  0
 17 16  1  0
 18 19  2  0
 19 15  1  0
 20 22  1  0
 21 20  2  0
 22 23  1  0
 23 24  1  6
 24 25  1  0
 25 33  1  0
 26 25  2  0
 26 27  1  0
 27 28  1  0
 28 29  2  0
 29 30  1  0
 31 30  2  0
 32 31  1  0
 33 32  2  0
 33 28  1  0
 34 23  1  0
 35 34  2  0
 36 34  1  0
M  END
$$$$
