RHW.pdb
     RDKit          3D

 36 38  0  0  1  0  0  0  0  0999 V2000
    6.8771  -14.8219   15.5038 N   0  0  0  0  0  0  0  0  0  0  0  0
    7.7793  -14.1013   14.6895 C   0  0  0  0  0  0  0  0  0  0  0  0
    7.3467  -13.1638   13.9289 N   0  0  0  0  0  0  0  0  0  0  0  0
    9.1538  -14.4212   14.7171 N   0  0  0  0  0  0  0  0  0  0  0  0
    9.5824  -15.6207   15.4628 C   0  0  0  0  0  0  0  0  0  0  0  0
   10.5796  -15.2319   16.4938 C   0  0  0  0  0  0  0  0  0  0  0  0
   10.1490  -15.5323   17.8745 C   0  0  0  0  0  0  0  0  0  0  0  0
   11.1458  -16.0859   18.8169 C   0  0  2  0  0  0  0  0  0  0  0  0
   11.8288  -17.2821   18.4524 N   0  0  0  0  0  0  0  0  0  0  0  0
   10.5142  -16.2452   20.1658 C   0  0  0  0  0  0  0  0  0  0  0  0
    9.8341  -15.2914   20.5646 O   0  0  0  0  0  0  0  0  0  0  0  0
    8.0103  -12.5792   13.3569 N   0  0  0  0  0  0  0  0  0  0  0  0
   10.6644  -17.4017   20.9869 C   0  0  1  0  0  0  0  0  0  0  0  0
   10.2400  -17.5487   22.3325 C   0  0  0  0  0  0  0  0  0  0  0  0
    9.2976  -18.7315   22.5890 C   0  0  0  0  0  0  0  0  0  0  0  0
    9.8402  -19.9426   21.9274 C   0  0  0  0  0  0  0  0  0  0  0  0
   10.9562  -20.1082   21.2106 N   0  0  0  0  0  0  0  0  0  0  0  0
   11.0062  -21.4220   20.8157 C   0  0  0  0  0  0  0  0  0  0  0  0
    9.9244  -22.0600   21.2906 N   0  0  0  0  0  0  0  0  0  0  0  0
    9.2023  -21.1698   21.9716 C   0  0  0  0  0  0  0  0  0  0  0  0
   11.1421  -17.2082   23.4115 O   0  0  0  0  0  0  0  0  0  0  0  0
   12.0932  -18.0291   23.7064 N   0  0  0  0  0  0  0  0  0  0  0  0
   11.0960  -16.0508   24.1940 C   0  0  2  0  0  0  0  0  0  0  0  0
   10.0627  -15.6358   25.1255 C   0  0  0  0  0  0  0  0  0  0  0  0
    8.7399  -15.4569   24.4304 C   0  0  0  0  0  0  0  0  0  0  0  0
    7.6993  -15.0154   25.3804 C   0  0  0  0  0  0  0  0  0  0  0  0
    6.7354  -15.7437   26.0381 N   0  0  0  0  0  0  0  0  0  0  0  0
    5.9950  -14.9173   26.8108 C   0  0  0  0  0  0  0  0  0  0  0  0
    6.4362  -13.6449   26.6906 C   0  0  0  0  0  0  0  0  0  0  0  0
    6.0340  -12.4423   27.2625 C   0  0  0  0  0  0  0  0  0  0  0  0
    6.6781  -11.2688   26.9658 C   0  0  0  0  0  0  0  0  0  0  0  0
    7.7431  -11.3184   26.0765 C   0  0  0  0  0  0  0  0  0  0  0  0
    8.1463  -12.5160   25.5026 C   0  0  0  0  0  0  0  0  0  0  0  0
    7.4969  -13.6873   25.8045 C   0  0  0  0  0  0  0  0  0  0  0  0
    9.9124  -16.7263   26.1205 O   0  0  0  0  0  0  0  0  0  0  0  0
    9.7361  -17.9022   25.7915 O   0  0  0  0  0  0  0  0  0  0  0  0
  2  1  1  0
  3  2  2  0
  4  2  1  0
  5  4  1  0
  6  7  1  0
  6  5  1  0
  8  7  1  0
  8 10  1  0
  8  9  1  6
 10 11  2  0
 12 13  1  0
 12 10  1  0
 13 20  1  0
 13 14  1  1
 15 14  1  0
 16 15  2  0
 17 18  1  0
 17 16  1  0
 18 19  2  0
 19 15  1  0
 20 22  1  0
 21 20  2  0
 22 23  1  0
 23 24  1  6
 24 25  1  0
 25 33  1  0
 26 25  2  0
 26 27  1  0
 27 28  1  0
 28 29  2  0
 29 30  1  0
 31 30  2  0
 32 31  1  0
 33 32  2  0
 33 28  1  0
 34 23  1  0
 35 34  2  0
 36 34  1  0
M  END
$$$$
