RHW.pdb
     RDKit          3D

 36 38  0  0  1  0  0  0  0  0999 V2000
   12.6693  -22.1088   17.7680 N   0  0  0  0  0  0  0  0  0  0  0  0
   13.0806  -21.3306   16.6627 C   0  0  0  0  0  0  0  0  0  0  0  0
   13.6516  -21.8924   15.6612 N   0  0  0  0  0  0  0  0  0  0  0  0
   12.8618  -19.9362   16.6700 N   0  0  0  0  0  0  0  0  0  0  0  0
   12.1177  -19.3465   17.8001 C   0  0  0  0  0  0  0  0  0  0  0  0
   11.9454  -17.8882   17.5715 C   0  0  0  0  0  0  0  0  0  0  0  0
   11.3027  -17.1855   18.7007 C   0  0  0  0  0  0  0  0  0  0  0  0
    9.8312  -17.2633   18.8309 C   0  0  2  0  0  0  0  0  0  0  0  0
    9.0364  -16.3641   18.0628 N   0  0  0  0  0  0  0  0  0  0  0  0
    9.4584  -17.1706   20.2788 C   0  0  0  0  0  0  0  0  0  0  0  0
    9.5951  -16.0595   20.8059 O   0  0  0  0  0  0  0  0  0  0  0  0
   13.9709  -21.3276   14.8314 N   0  0  0  0  0  0  0  0  0  0  0  0
    8.9796  -18.2689   21.0525 C   0  0  2  0  0  0  0  0  0  0  0  0
    8.5830  -18.2393   22.4142 C   0  0  0  0  0  0  0  0  0  0  0  0
    7.5436  -19.2958   22.8094 C   0  0  0  0  0  0  0  0  0  0  0  0
    7.3333  -19.2515   24.2766 C   0  0  0  0  0  0  0  0  0  0  0  0
    7.8302  -20.0287   25.2439 N   0  0  0  0  0  0  0  0  0  0  0  0
    7.3299  -19.5765   26.4396 C   0  0  0  0  0  0  0  0  0  0  0  0
    6.5295  -18.5240   26.2055 N   0  0  0  0  0  0  0  0  0  0  0  0
    6.5212  -18.3133   24.8890 C   0  0  0  0  0  0  0  0  0  0  0  0
    9.5438  -17.8791   23.4346 O   0  0  0  0  0  0  0  0  0  0  0  0
   10.6846  -18.4821   23.4521 N   0  0  0  0  0  0  0  0  0  0  0  0
    9.3672  -16.9186   24.4348 C   0  0  1  0  0  0  0  0  0  0  0  0
   10.3254  -16.4684   25.4282 C   0  0  0  0  0  0  0  0  0  0  0  0
   10.0002  -15.0808   25.9119 C   0  0  0  0  0  0  0  0  0  0  0  0
    8.5454  -14.9151   26.1024 C   0  0  0  0  0  0  0  0  0  0  0  0
    7.6158  -15.7874   26.6192 N   0  0  0  0  0  0  0  0  0  0  0  0
    6.3941  -15.2084   26.5986 C   0  0  0  0  0  0  0  0  0  0  0  0
    6.4758  -13.9629   26.0788 C   0  0  0  0  0  0  0  0  0  0  0  0
    5.5326  -12.9673   25.8458 C   0  0  0  0  0  0  0  0  0  0  0  0
    5.8970  -11.7625   25.3018 C   0  0  0  0  0  0  0  0  0  0  0  0
    7.2358  -11.5681   24.9900 C   0  0  0  0  0  0  0  0  0  0  0  0
    8.1795  -12.5596   25.2193 C   0  0  0  0  0  0  0  0  0  0  0  0
    7.8076  -13.7634   25.7647 C   0  0  0  0  0  0  0  0  0  0  0  0
   10.2180  -17.3923   26.5843 O   0  0  0  0  0  0  0  0  0  0  0  0
   10.9855  -17.3371   27.5486 O   0  0  0  0  0  0  0  0  0  0  0  0
  2  1  1  0
  3  2  2  0
  4  2  1  0
  5  4  1  0
  6  7  1  0
  6  5  1  0
  8  7  1  0
  8 10  1  0
  8  9  1  6
 10 11  2  0
 12 13  1  0
 12 10  1  0
 13 20  1  0
 13 14  1  6
 15 14  1  0
 16 15  2  0
 17 18  1  0
 17 16  1  0
 18 19  2  0
 19 15  1  0
 20 22  1  0
 21 20  2  0
 22 23  1  0
 23 24  1  1
 24 25  1  0
 25 33  1  0
 26 25  2  0
 26 27  1  0
 27 28  1  0
 28 29  2  0
 29 30  1  0
 31 30  2  0
 32 31  1  0
 33 32  2  0
 33 28  1  0
 34 23  1  0
 35 34  2  0
 36 34  1  0
M  END
$$$$
