RHW.pdb
     RDKit          3D

 36 38  0  0  1  0  0  0  0  0999 V2000
    8.6201  -12.0480   18.8117 N   0  0  0  0  0  0  0  0  0  0  0  0
    8.1373  -12.9792   17.8651 C   0  0  0  0  0  0  0  0  0  0  0  0
    8.4937  -12.8867   16.6367 N   0  0  0  0  0  0  0  0  0  0  0  0
    7.2615  -14.0059   18.2789 N   0  0  0  0  0  0  0  0  0  0  0  0
    7.3404  -14.4779   19.6752 C   0  0  0  0  0  0  0  0  0  0  0  0
    8.1238  -15.7397   19.7270 C   0  0  0  0  0  0  0  0  0  0  0  0
    8.2775  -16.2835   21.0918 C   0  0  0  0  0  0  0  0  0  0  0  0
    8.1904  -17.7483   21.2787 C   0  0  2  0  0  0  0  0  0  0  0  0
    6.9150  -18.3194   21.5569 N   0  0  0  0  0  0  0  0  0  0  0  0
    9.1816  -18.1728   22.3185 C   0  0  0  0  0  0  0  0  0  0  0  0
    8.7729  -18.9801   23.1626 O   0  0  0  0  0  0  0  0  0  0  0  0
    8.2660  -13.6491   15.9465 N   0  0  0  0  0  0  0  0  0  0  0  0
   10.5247  -17.6974   22.3835 C   0  0  2  0  0  0  0  0  0  0  0  0
   10.9629  -16.4621   22.9260 C   0  0  0  0  0  0  0  0  0  0  0  0
   10.6918  -15.2354   22.0459 C   0  0  0  0  0  0  0  0  0  0  0  0
   11.6530  -15.2204   20.9169 C   0  0  0  0  0  0  0  0  0  0  0  0
   12.6565  -16.0543   20.6262 N   0  0  0  0  0  0  0  0  0  0  0  0
   13.2494  -15.6058   19.4721 C   0  0  0  0  0  0  0  0  0  0  0  0
   12.6099  -14.5008   19.0561 N   0  0  0  0  0  0  0  0  0  0  0  0
   11.6324  -14.2525   19.9282 C   0  0  0  0  0  0  0  0  0  0  0  0
   10.9057  -16.2447   24.3555 O   0  0  0  0  0  0  0  0  0  0  0  0
   11.7045  -15.3793   24.8832 N   0  0  0  0  0  0  0  0  0  0  0  0
   10.0528  -16.8887   25.2566 C   0  0  1  0  0  0  0  0  0  0  0  0
    9.9408  -16.6866   26.6899 C   0  0  0  0  0  0  0  0  0  0  0  0
    8.5290  -16.9038   27.1639 C   0  0  0  0  0  0  0  0  0  0  0  0
    7.5895  -16.0164   26.4499 C   0  0  0  0  0  0  0  0  0  0  0  0
    6.5720  -16.3242   25.5767 N   0  0  0  0  0  0  0  0  0  0  0  0
    5.9729  -15.1849   25.1631 C   0  0  0  0  0  0  0  0  0  0  0  0
    6.5624  -14.1119   25.7368 C   0  0  0  0  0  0  0  0  0  0  0  0
    6.3299  -12.7429   25.6535 C   0  0  0  0  0  0  0  0  0  0  0  0
    7.0906  -11.8525   26.3668 C   0  0  0  0  0  0  0  0  0  0  0  0
    8.1001  -12.3599   27.1735 C   0  0  0  0  0  0  0  0  0  0  0  0
    8.3363  -13.7249   27.2580 C   0  0  0  0  0  0  0  0  0  0  0  0
    7.5705  -14.6107   26.5412 C   0  0  0  0  0  0  0  0  0  0  0  0
   10.8029  -17.7043   27.3401 O   0  0  0  0  0  0  0  0  0  0  0  0
   11.3272  -18.6267   26.7106 O   0  0  0  0  0  0  0  0  0  0  0  0
  2  1  1  0
  3  2  2  0
  4  2  1  0
  5  4  1  0
  6  7  1  0
  6  5  1  0
  8  7  1  0
  8 10  1  0
  8  9  1  1
 10 11  2  0
 12 13  1  0
 12 10  1  0
 13 20  1  0
 13 14  1  6
 15 14  1  0
 16 15  2  0
 17 18  1  0
 17 16  1  0
 18 19  2  0
 19 15  1  0
 20 22  1  0
 21 20  2  0
 22 23  1  0
 23 24  1  1
 24 25  1  0
 25 33  1  0
 26 25  2  0
 26 27  1  0
 27 28  1  0
 28 29  2  0
 29 30  1  0
 31 30  2  0
 32 31  1  0
 33 32  2  0
 33 28  1  0
 34 23  1  0
 35 34  2  0
 36 34  1  0
M  END
$$$$
