RHW.pdb
     RDKit          3D

 36 38  0  0  1  0  0  0  0  0999 V2000
    7.4648  -12.4763   17.4113 N   0  0  0  0  0  0  0  0  0  0  0  0
    7.7838  -13.6026   18.2026 C   0  0  0  0  0  0  0  0  0  0  0  0
    7.8014  -14.7714   17.6750 N   0  0  0  0  0  0  0  0  0  0  0  0
    8.0788  -13.4331   19.5724 N   0  0  0  0  0  0  0  0  0  0  0  0
    7.0619  -13.8302   20.5657 C   0  0  0  0  0  0  0  0  0  0  0  0
    7.0374  -15.3115   20.6832 C   0  0  0  0  0  0  0  0  0  0  0  0
    8.0348  -15.8448   21.6334 C   0  0  0  0  0  0  0  0  0  0  0  0
    8.2215  -17.3103   21.7075 C   0  0  2  0  0  0  0  0  0  0  0  0
    7.0849  -18.1230   21.9870 N   0  0  0  0  0  0  0  0  0  0  0  0
    9.3242  -17.6191   22.6733 C   0  0  0  0  0  0  0  0  0  0  0  0
    9.1530  -18.6083   23.3967 O   0  0  0  0  0  0  0  0  0  0  0  0
    8.1261  -15.6097   18.2238 N   0  0  0  0  0  0  0  0  0  0  0  0
   10.5158  -16.8456   22.7994 C   0  0  2  0  0  0  0  0  0  0  0  0
   11.5664  -17.0502   23.7304 C   0  0  0  0  0  0  0  0  0  0  0  0
   12.9314  -16.5002   23.2981 C   0  0  0  0  0  0  0  0  0  0  0  0
   13.3381  -17.1435   22.0254 C   0  0  0  0  0  0  0  0  0  0  0  0
   12.9994  -18.3298   21.5108 N   0  0  0  0  0  0  0  0  0  0  0  0
   13.6449  -18.4607   20.3064 C   0  0  0  0  0  0  0  0  0  0  0  0
   14.3760  -17.3568   20.0829 N   0  0  0  0  0  0  0  0  0  0  0  0
   14.1993  -16.5429   21.1240 C   0  0  0  0  0  0  0  0  0  0  0  0
   11.2859  -17.0132   25.1496 O   0  0  0  0  0  0  0  0  0  0  0  0
   12.1790  -17.4554   25.9695 N   0  0  0  0  0  0  0  0  0  0  0  0
   10.1173  -16.5351   25.7495 C   0  0  1  0  0  0  0  0  0  0  0  0
    9.7492  -16.5680   27.1535 C   0  0  0  0  0  0  0  0  0  0  0  0
    8.2666  -16.7611   27.3254 C   0  0  0  0  0  0  0  0  0  0  0  0
    7.5093  -15.7868   26.5147 C   0  0  0  0  0  0  0  0  0  0  0  0
    6.5260  -15.9924   25.5749 N   0  0  0  0  0  0  0  0  0  0  0  0
    6.1171  -14.8013   25.0824 C   0  0  0  0  0  0  0  0  0  0  0  0
    6.8021  -13.7934   25.6680 C   0  0  0  0  0  0  0  0  0  0  0  0
    6.7623  -12.4101   25.5264 C   0  0  0  0  0  0  0  0  0  0  0  0
    7.5817  -11.6001   26.2697 C   0  0  0  0  0  0  0  0  0  0  0  0
    8.4524  -12.2036   27.1669 C   0  0  0  0  0  0  0  0  0  0  0  0
    8.4963  -13.5833   27.3100 C   0  0  0  0  0  0  0  0  0  0  0  0
    7.6727  -14.3883   26.5626 C   0  0  0  0  0  0  0  0  0  0  0  0
   10.4353  -17.7383   27.7545 O   0  0  0  0  0  0  0  0  0  0  0  0
   11.0393  -18.5720   27.0747 O   0  0  0  0  0  0  0  0  0  0  0  0
  2  1  1  0
  3  2  2  0
  4  2  1  0
  5  4  1  0
  6  7  1  0
  6  5  1  0
  8  7  1  0
  8 10  1  0
  8  9  1  1
 10 11  2  0
 12 13  1  0
 12 10  1  0
 13 20  1  0
 13 14  1  6
 15 14  1  0
 16 15  2  0
 17 18  1  0
 17 16  1  0
 18 19  2  0
 19 15  1  0
 20 22  1  0
 21 20  2  0
 22 23  1  0
 23 24  1  1
 24 25  1  0
 25 33  1  0
 26 25  2  0
 26 27  1  0
 27 28  1  0
 28 29  2  0
 29 30  1  0
 31 30  2  0
 32 31  1  0
 33 32  2  0
 33 28  1  0
 34 23  1  0
 35 34  2  0
 36 34  1  0
M  END
$$$$
