RHW.pdb
     RDKit          3D

 36 38  0  0  1  0  0  0  0  0999 V2000
    8.2056  -14.6870   16.9196 N   0  0  0  0  0  0  0  0  0  0  0  0
    7.6567  -13.8125   17.8841 C   0  0  0  0  0  0  0  0  0  0  0  0
    7.3895  -12.5984   17.5692 N   0  0  0  0  0  0  0  0  0  0  0  0
    7.4081  -14.2821   19.1918 N   0  0  0  0  0  0  0  0  0  0  0  0
    8.1740  -15.4459   19.6791 C   0  0  0  0  0  0  0  0  0  0  0  0
    7.4635  -16.6967   19.3060 C   0  0  0  0  0  0  0  0  0  0  0  0
    8.2782  -17.9153   19.4888 C   0  0  0  0  0  0  0  0  0  0  0  0
    8.5206  -18.3987   20.8656 C   0  0  2  0  0  0  0  0  0  0  0  0
    7.5181  -18.1637   21.8506 N   0  0  0  0  0  0  0  0  0  0  0  0
    9.8427  -17.8820   21.3444 C   0  0  0  0  0  0  0  0  0  0  0  0
   10.7389  -17.8094   20.4943 O   0  0  0  0  0  0  0  0  0  0  0  0
    6.9912  -11.9288   18.2780 N   0  0  0  0  0  0  0  0  0  0  0  0
   10.1087  -17.4933   22.6906 C   0  0  2  0  0  0  0  0  0  0  0  0
   11.2356  -16.7700   23.1587 C   0  0  0  0  0  0  0  0  0  0  0  0
   11.9223  -15.8891   22.1074 C   0  0  0  0  0  0  0  0  0  0  0  0
   12.5825  -16.7535   21.0995 C   0  0  0  0  0  0  0  0  0  0  0  0
   12.0550  -17.5004   20.1244 N   0  0  0  0  0  0  0  0  0  0  0  0
   13.0902  -18.1142   19.4639 C   0  0  0  0  0  0  0  0  0  0  0  0
   14.2490  -17.7431   20.0320 N   0  0  0  0  0  0  0  0  0  0  0  0
   13.9555  -16.9123   21.0326 C   0  0  0  0  0  0  0  0  0  0  0  0
   11.2561  -16.2724   24.5174 O   0  0  0  0  0  0  0  0  0  0  0  0
   12.3968  -16.0625   25.0833 N   0  0  0  0  0  0  0  0  0  0  0  0
   10.1410  -15.9840   25.3095 C   0  0  1  0  0  0  0  0  0  0  0  0
    9.9311  -16.2916   26.7127 C   0  0  0  0  0  0  0  0  0  0  0  0
    8.5076  -16.7037   26.9750 C   0  0  0  0  0  0  0  0  0  0  0  0
    7.5643  -15.8556   26.2193 C   0  0  0  0  0  0  0  0  0  0  0  0
    6.4878  -16.2082   25.4388 N   0  0  0  0  0  0  0  0  0  0  0  0
    5.9109  -15.0932   24.9365 C   0  0  0  0  0  0  0  0  0  0  0  0
    6.5732  -13.9931   25.3595 C   0  0  0  0  0  0  0  0  0  0  0  0
    6.3897  -12.6315   25.1412 C   0  0  0  0  0  0  0  0  0  0  0  0
    7.2236  -11.7057   25.7136 C   0  0  0  0  0  0  0  0  0  0  0  0
    8.2567  -12.1696   26.5166 C   0  0  0  0  0  0  0  0  0  0  0  0
    8.4442  -13.5272   26.7355 C   0  0  0  0  0  0  0  0  0  0  0  0
    7.6051  -14.4487   26.1594 C   0  0  0  0  0  0  0  0  0  0  0  0
   10.8080  -17.4430   27.0402 O   0  0  0  0  0  0  0  0  0  0  0  0
   11.3018  -17.6010   28.1596 O   0  0  0  0  0  0  0  0  0  0  0  0
  2  1  1  0
  3  2  2  0
  4  2  1  0
  5  4  1  0
  6  7  1  0
  6  5  1  0
  8  7  1  0
  8 10  1  0
  8  9  1  1
 10 11  2  0
 12 13  1  0
 12 10  1  0
 13 20  1  0
 13 14  1  6
 15 14  1  0
 16 15  2  0
 17 18  1  0
 17 16  1  0
 18 19  2  0
 19 15  1  0
 20 22  1  0
 21 20  2  0
 22 23  1  0
 23 24  1  1
 24 25  1  0
 25 33  1  0
 26 25  2  0
 26 27  1  0
 27 28  1  0
 28 29  2  0
 29 30  1  0
 31 30  2  0
 32 31  1  0
 33 32  2  0
 33 28  1  0
 34 23  1  0
 35 34  2  0
 36 34  1  0
M  END
$$$$
