RHW.pdb
     RDKit          3D

 36 38  0  0  1  0  0  0  0  0999 V2000
    8.6872  -12.4637   17.1259 N   0  0  0  0  0  0  0  0  0  0  0  0
    7.9803  -13.4159   16.3578 C   0  0  0  0  0  0  0  0  0  0  0  0
    7.6109  -13.1286   15.1638 N   0  0  0  0  0  0  0  0  0  0  0  0
    7.6826  -14.6792   16.9126 N   0  0  0  0  0  0  0  0  0  0  0  0
    8.7218  -15.3607   17.7088 C   0  0  0  0  0  0  0  0  0  0  0  0
    8.2557  -15.5021   19.1128 C   0  0  0  0  0  0  0  0  0  0  0  0
    9.3468  -15.4378   20.1064 C   0  0  0  0  0  0  0  0  0  0  0  0
   10.1235  -16.6671   20.3779 C   0  0  2  0  0  0  0  0  0  0  0  0
    9.8874  -17.8099   19.5603 N   0  0  0  0  0  0  0  0  0  0  0  0
    9.9811  -17.0314   21.8240 C   0  0  0  0  0  0  0  0  0  0  0  0
    8.8386  -16.9592   22.2935 O   0  0  0  0  0  0  0  0  0  0  0  0
    7.1237  -13.8410   14.5600 N   0  0  0  0  0  0  0  0  0  0  0  0
   11.0665  -17.4336   22.6573 C   0  0  1  0  0  0  0  0  0  0  0  0
   10.9841  -17.8885   23.9984 C   0  0  0  0  0  0  0  0  0  0  0  0
   11.7622  -19.1767   24.2946 C   0  0  0  0  0  0  0  0  0  0  0  0
   11.2080  -20.2827   23.4770 C   0  0  0  0  0  0  0  0  0  0  0  0
    9.9393  -20.6384   23.2522 N   0  0  0  0  0  0  0  0  0  0  0  0
    9.9544  -21.7333   22.4242 C   0  0  0  0  0  0  0  0  0  0  0  0
   11.2290  -22.0468   22.1414 N   0  0  0  0  0  0  0  0  0  0  0  0
   12.0067  -21.1701   22.7773 C   0  0  0  0  0  0  0  0  0  0  0  0
   10.9070  -16.9289   25.0789 O   0  0  0  0  0  0  0  0  0  0  0  0
   11.6238  -15.8581   25.0090 N   0  0  0  0  0  0  0  0  0  0  0  0
   10.1157  -17.0371   26.2262 C   0  0  1  0  0  0  0  0  0  0  0  0
   10.1167  -16.1863   27.4025 C   0  0  0  0  0  0  0  0  0  0  0  0
    8.7287  -16.0244   27.9614 C   0  0  0  0  0  0  0  0  0  0  0  0
    7.8254  -15.4161   26.9643 C   0  0  0  0  0  0  0  0  0  0  0  0
    6.9638  -16.0108   26.0719 N   0  0  0  0  0  0  0  0  0  0  0  0
    6.3355  -15.0570   25.3482 C   0  0  0  0  0  0  0  0  0  0  0  0
    6.7528  -13.8292   25.7307 C   0  0  0  0  0  0  0  0  0  0  0  0
    6.4232  -12.5426   25.3171 C   0  0  0  0  0  0  0  0  0  0  0  0
    7.0055  -11.4439   25.8951 C   0  0  0  0  0  0  0  0  0  0  0  0
    7.9346  -11.6559   26.9047 C   0  0  0  0  0  0  0  0  0  0  0  0
    8.2673  -12.9380   27.3190 C   0  0  0  0  0  0  0  0  0  0  0  0
    7.6800  -14.0336   26.7360 C   0  0  0  0  0  0  0  0  0  0  0  0
   10.9461  -16.8656   28.4284 O   0  0  0  0  0  0  0  0  0  0  0  0
   11.3832  -18.0089   28.2747 O   0  0  0  0  0  0  0  0  0  0  0  0
  2  1  1  0
  3  2  2  0
  4  2  1  0
  5  4  1  0
  6  7  1  0
  6  5  1  0
  8  7  1  0
  8 10  1  0
  8  9  1  6
 10 11  2  0
 12 13  1  0
 12 10  1  0
 13 20  1  0
 13 14  1  1
 15 14  1  0
 16 15  2  0
 17 18  1  0
 17 16  1  0
 18 19  2  0
 19 15  1  0
 20 22  1  0
 21 20  2  0
 22 23  1  0
 23 24  1  1
 24 25  1  0
 25 33  1  0
 26 25  2  0
 26 27  1  0
 27 28  1  0
 28 29  2  0
 29 30  1  0
 31 30  2  0
 32 31  1  0
 33 32  2  0
 33 28  1  0
 34 23  1  0
 35 34  2  0
 36 34  1  0
M  END
$$$$
