RHW.pdb
     RDKit          3D

 36 38  0  0  1  0  0  0  0  0999 V2000
    9.2684  -13.6441   17.6714 N   0  0  0  0  0  0  0  0  0  0  0  0
    8.5062  -12.9008   18.6003 C   0  0  0  0  0  0  0  0  0  0  0  0
    8.9049  -11.7402   18.9727 N   0  0  0  0  0  0  0  0  0  0  0  0
    7.3093  -13.4437   19.1153 N   0  0  0  0  0  0  0  0  0  0  0  0
    7.3729  -14.7307   19.8352 C   0  0  0  0  0  0  0  0  0  0  0  0
    6.8237  -14.5584   21.2053 C   0  0  0  0  0  0  0  0  0  0  0  0
    7.5412  -15.3419   22.2316 C   0  0  0  0  0  0  0  0  0  0  0  0
    7.8238  -16.7677   21.9571 C   0  0  2  0  0  0  0  0  0  0  0  0
    6.7281  -17.6776   21.9139 N   0  0  0  0  0  0  0  0  0  0  0  0
    8.8622  -17.2589   22.9186 C   0  0  0  0  0  0  0  0  0  0  0  0
    8.4403  -17.8530   23.9187 O   0  0  0  0  0  0  0  0  0  0  0  0
    8.3021  -11.1293   19.5832 N   0  0  0  0  0  0  0  0  0  0  0  0
   10.2652  -17.0704   22.7445 C   0  0  2  0  0  0  0  0  0  0  0  0
   11.2738  -17.2461   23.7265 C   0  0  0  0  0  0  0  0  0  0  0  0
   12.7095  -17.2515   23.1867 C   0  0  0  0  0  0  0  0  0  0  0  0
   12.7887  -18.1560   22.0143 C   0  0  0  0  0  0  0  0  0  0  0  0
   12.4280  -17.9551   20.7430 N   0  0  0  0  0  0  0  0  0  0  0  0
   12.7051  -19.1043   20.0450 C   0  0  0  0  0  0  0  0  0  0  0  0
   13.2355  -20.0065   20.8864 N   0  0  0  0  0  0  0  0  0  0  0  0
   13.2929  -19.4423   22.0930 C   0  0  0  0  0  0  0  0  0  0  0  0
   11.0934  -16.6879   25.0493 O   0  0  0  0  0  0  0  0  0  0  0  0
   10.8162  -15.4324   25.1596 N   0  0  0  0  0  0  0  0  0  0  0  0
   11.1884  -17.3811   26.2596 C   0  0  1  0  0  0  0  0  0  0  0  0
   10.8950  -16.8991   27.5972 C   0  0  0  0  0  0  0  0  0  0  0  0
    9.4296  -16.5979   27.7605 C   0  0  0  0  0  0  0  0  0  0  0  0
    9.1724  -15.1482   27.6485 C   0  0  0  0  0  0  0  0  0  0  0  0
    9.9171  -14.0806   28.0934 N   0  0  0  0  0  0  0  0  0  0  0  0
    9.2903  -12.9274   27.7688 C   0  0  0  0  0  0  0  0  0  0  0  0
    8.1370  -13.1905   27.1140 C   0  0  0  0  0  0  0  0  0  0  0  0
    7.1468  -12.3784   26.5709 C   0  0  0  0  0  0  0  0  0  0  0  0
    6.0584  -12.9199   25.9365 C   0  0  0  0  0  0  0  0  0  0  0  0
    5.9754  -14.3032   25.8542 C   0  0  0  0  0  0  0  0  0  0  0  0
    6.9604  -15.1169   26.3962 C   0  0  0  0  0  0  0  0  0  0  0  0
    8.0477  -14.5678   27.0298 C   0  0  0  0  0  0  0  0  0  0  0  0
   11.2448  -17.9916   28.5383 O   0  0  0  0  0  0  0  0  0  0  0  0
   11.5389  -19.1265   28.1544 O   0  0  0  0  0  0  0  0  0  0  0  0
  2  1  1  0
  3  2  2  0
  4  2  1  0
  5  4  1  0
  6  7  1  0
  6  5  1  0
  8  7  1  0
  8 10  1  0
  8  9  1  1
 10 11  2  0
 12 13  1  0
 12 10  1  0
 13 20  1  0
 13 14  1  6
 15 14  1  0
 16 15  2  0
 17 18  1  0
 17 16  1  0
 18 19  2  0
 19 15  1  0
 20 22  1  0
 21 20  2  0
 22 23  1  0
 23 24  1  1
 24 25  1  0
 25 33  1  0
 26 25  2  0
 26 27  1  0
 27 28  1  0
 28 29  2  0
 29 30  1  0
 31 30  2  0
 32 31  1  0
 33 32  2  0
 33 28  1  0
 34 23  1  0
 35 34  2  0
 36 34  1  0
M  END
$$$$
