RHW.pdb
     RDKit          3D

 36 38  0  0  1  0  0  0  0  0999 V2000
    8.4773  -13.7972   13.9228 N   0  0  0  0  0  0  0  0  0  0  0  0
    7.4406  -14.4037   14.6670 C   0  0  0  0  0  0  0  0  0  0  0  0
    6.2408  -14.4005   14.2139 N   0  0  0  0  0  0  0  0  0  0  0  0
    7.7332  -15.0081   15.9085 N   0  0  0  0  0  0  0  0  0  0  0  0
    9.1476  -15.1529   16.3047 C   0  0  0  0  0  0  0  0  0  0  0  0
    9.3976  -14.3668   17.5409 C   0  0  0  0  0  0  0  0  0  0  0  0
    8.6995  -14.8978   18.7294 C   0  0  0  0  0  0  0  0  0  0  0  0
    8.9531  -14.2570   20.0383 C   0  0  2  0  0  0  0  0  0  0  0  0
    9.9374  -13.2290   20.1079 N   0  0  0  0  0  0  0  0  0  0  0  0
    9.2422  -15.3154   21.0582 C   0  0  0  0  0  0  0  0  0  0  0  0
    8.2974  -15.6406   21.7881 O   0  0  0  0  0  0  0  0  0  0  0  0
    5.4529  -14.8358   14.7608 N   0  0  0  0  0  0  0  0  0  0  0  0
   10.5152  -15.9361   21.2268 C   0  0  1  0  0  0  0  0  0  0  0  0
   10.8441  -16.9621   22.1496 C   0  0  0  0  0  0  0  0  0  0  0  0
   11.6977  -18.1001   21.5760 C   0  0  0  0  0  0  0  0  0  0  0  0
   10.9217  -18.8186   20.5366 C   0  0  0  0  0  0  0  0  0  0  0  0
    9.6144  -19.0885   20.4674 N   0  0  0  0  0  0  0  0  0  0  0  0
    9.3931  -19.7801   19.3024 C   0  0  0  0  0  0  0  0  0  0  0  0
   10.5617  -19.9324   18.6588 N   0  0  0  0  0  0  0  0  0  0  0  0
   11.5050  -19.3507   19.4001 C   0  0  0  0  0  0  0  0  0  0  0  0
   11.0755  -16.6312   23.5392 O   0  0  0  0  0  0  0  0  0  0  0  0
   12.2159  -16.1292   23.8751 N   0  0  0  0  0  0  0  0  0  0  0  0
   10.1706  -16.8000   24.5913 C   0  0  1  0  0  0  0  0  0  0  0  0
   10.3778  -16.5435   26.0051 C   0  0  0  0  0  0  0  0  0  0  0  0
    9.9737  -15.1407   26.3711 C   0  0  0  0  0  0  0  0  0  0  0  0
    8.5351  -14.9227   26.1202 C   0  0  0  0  0  0  0  0  0  0  0  0
    7.5712  -15.7994   25.6791 N   0  0  0  0  0  0  0  0  0  0  0  0
    6.3841  -15.1579   25.5925 C   0  0  0  0  0  0  0  0  0  0  0  0
    6.5228  -13.8657   25.9651 C   0  0  0  0  0  0  0  0  0  0  0  0
    5.6297  -12.8033   26.0592 C   0  0  0  0  0  0  0  0  0  0  0  0
    6.0443  -11.5676   26.4850 C   0  0  0  0  0  0  0  0  0  0  0  0
    7.3828  -11.4099   26.8182 C   0  0  0  0  0  0  0  0  0  0  0  0
    8.2773  -12.4669   26.7241 C   0  0  0  0  0  0  0  0  0  0  0  0
    7.8551  -13.7017   26.2972 C   0  0  0  0  0  0  0  0  0  0  0  0
    9.5002  -17.4806   26.7491 O   0  0  0  0  0  0  0  0  0  0  0  0
    8.6331  -18.1584   26.1918 O   0  0  0  0  0  0  0  0  0  0  0  0
  2  1  1  0
  3  2  2  0
  4  2  1  0
  5  4  1  0
  6  7  1  0
  6  5  1  0
  8  7  1  0
  8 10  1  0
  8  9  1  6
 10 11  2  0
 12 13  1  0
 12 10  1  0
 13 20  1  0
 13 14  1  1
 15 14  1  0
 16 15  2  0
 17 18  1  0
 17 16  1  0
 18 19  2  0
 19 15  1  0
 20 22  1  0
 21 20  2  0
 22 23  1  0
 23 24  1  1
 24 25  1  0
 25 33  1  0
 26 25  2  0
 26 27  1  0
 27 28  1  0
 28 29  2  0
 29 30  1  0
 31 30  2  0
 32 31  1  0
 33 32  2  0
 33 28  1  0
 34 23  1  0
 35 34  2  0
 36 34  1  0
M  END
$$$$
