RHW.pdb
     RDKit          3D

 36 38  0  0  1  0  0  0  0  0999 V2000
    8.8295  -12.9372   15.5824 N   0  0  0  0  0  0  0  0  0  0  0  0
    8.0761  -14.0935   15.8854 C   0  0  0  0  0  0  0  0  0  0  0  0
    7.9573  -15.0268   15.0140 N   0  0  0  0  0  0  0  0  0  0  0  0
    7.4558  -14.2122   17.1477 N   0  0  0  0  0  0  0  0  0  0  0  0
    7.5868  -13.0955   18.1040 C   0  0  0  0  0  0  0  0  0  0  0  0
    8.9677  -13.0741   18.6529 C   0  0  0  0  0  0  0  0  0  0  0  0
    9.3732  -14.3482   19.2808 C   0  0  0  0  0  0  0  0  0  0  0  0
   10.4112  -14.3135   20.3341 C   0  0  2  0  0  0  0  0  0  0  0  0
   11.7743  -14.4571   19.9445 N   0  0  0  0  0  0  0  0  0  0  0  0
   10.0715  -15.3153   21.3948 C   0  0  0  0  0  0  0  0  0  0  0  0
    8.9093  -15.2866   21.8184 O   0  0  0  0  0  0  0  0  0  0  0  0
    7.3787  -15.8843   15.2124 N   0  0  0  0  0  0  0  0  0  0  0  0
   10.9975  -16.2607   21.9269 C   0  0  1  0  0  0  0  0  0  0  0  0
   10.7629  -17.1758   22.9852 C   0  0  0  0  0  0  0  0  0  0  0  0
   11.2769  -18.5994   22.7365 C   0  0  0  0  0  0  0  0  0  0  0  0
   10.4589  -19.2375   21.6769 C   0  0  0  0  0  0  0  0  0  0  0  0
    9.4200  -18.7611   20.9838 N   0  0  0  0  0  0  0  0  0  0  0  0
    9.0110  -19.7447   20.1180 C   0  0  0  0  0  0  0  0  0  0  0  0
    9.7983  -20.8205   20.2792 N   0  0  0  0  0  0  0  0  0  0  0  0
   10.6875  -20.5263   21.2281 C   0  0  0  0  0  0  0  0  0  0  0  0
   10.8047  -16.7146   24.3562 O   0  0  0  0  0  0  0  0  0  0  0  0
   11.8652  -16.1097   24.7744 N   0  0  0  0  0  0  0  0  0  0  0  0
    9.7903  -16.8557   25.3076 C   0  0  1  0  0  0  0  0  0  0  0  0
    9.7888  -16.4181   26.6919 C   0  0  0  0  0  0  0  0  0  0  0  0
    8.3947  -16.4025   27.2587 C   0  0  0  0  0  0  0  0  0  0  0  0
    7.5019  -15.5559   26.4424 C   0  0  0  0  0  0  0  0  0  0  0  0
    6.6108  -15.9053   25.4544 N   0  0  0  0  0  0  0  0  0  0  0  0
    6.0077  -14.7931   24.9775 C   0  0  0  0  0  0  0  0  0  0  0  0
    6.4710  -13.6978   25.6207 C   0  0  0  0  0  0  0  0  0  0  0  0
    6.1811  -12.3413   25.5159 C   0  0  0  0  0  0  0  0  0  0  0  0
    6.8069  -11.4213   26.3172 C   0  0  0  0  0  0  0  0  0  0  0  0
    7.7391  -11.8858   27.2351 C   0  0  0  0  0  0  0  0  0  0  0  0
    8.0323  -13.2381   27.3417 C   0  0  0  0  0  0  0  0  0  0  0  0
    7.4015  -14.1539   26.5363 C   0  0  0  0  0  0  0  0  0  0  0  0
   10.5836  -17.4078   27.4605 O   0  0  0  0  0  0  0  0  0  0  0  0
   10.9802  -18.4657   26.9651 O   0  0  0  0  0  0  0  0  0  0  0  0
  2  1  1  0
  3  2  2  0
  4  2  1  0
  5  4  1  0
  6  7  1  0
  6  5  1  0
  8  7  1  0
  8 10  1  0
  8  9  1  6
 10 11  2  0
 12 13  1  0
 12 10  1  0
 13 20  1  0
 13 14  1  1
 15 14  1  0
 16 15  2  0
 17 18  1  0
 17 16  1  0
 18 19  2  0
 19 15  1  0
 20 22  1  0
 21 20  2  0
 22 23  1  0
 23 24  1  1
 24 25  1  0
 25 33  1  0
 26 25  2  0
 26 27  1  0
 27 28  1  0
 28 29  2  0
 29 30  1  0
 31 30  2  0
 32 31  1  0
 33 32  2  0
 33 28  1  0
 34 23  1  0
 35 34  2  0
 36 34  1  0
M  END
$$$$
