RHW.pdb
     RDKit          3D

 36 38  0  0  1  0  0  0  0  0999 V2000
    8.3902  -16.1906   15.2819 N   0  0  0  0  0  0  0  0  0  0  0  0
    8.1862  -15.0848   14.4264 C   0  0  0  0  0  0  0  0  0  0  0  0
    7.7586  -15.2700   13.2316 N   0  0  0  0  0  0  0  0  0  0  0  0
    8.4578  -13.7808   14.8933 N   0  0  0  0  0  0  0  0  0  0  0  0
    8.7138  -13.5883   16.3341 C   0  0  0  0  0  0  0  0  0  0  0  0
    7.4212  -13.5652   17.0672 C   0  0  0  0  0  0  0  0  0  0  0  0
    7.5738  -13.4082   18.5280 C   0  0  0  0  0  0  0  0  0  0  0  0
    8.7380  -14.0416   19.1851 C   0  0  2  0  0  0  0  0  0  0  0  0
    9.6269  -14.8160   18.3849 N   0  0  0  0  0  0  0  0  0  0  0  0
    8.2655  -14.8478   20.3559 C   0  0  0  0  0  0  0  0  0  0  0  0
    7.6041  -14.2379   21.2054 O   0  0  0  0  0  0  0  0  0  0  0  0
    7.5583  -14.4555   12.5944 N   0  0  0  0  0  0  0  0  0  0  0  0
    8.5424  -16.2355   20.5344 C   0  0  1  0  0  0  0  0  0  0  0  0
    8.3538  -16.9935   21.7185 C   0  0  0  0  0  0  0  0  0  0  0  0
    7.2515  -18.0571   21.6382 C   0  0  0  0  0  0  0  0  0  0  0  0
    7.3928  -18.8143   20.3710 C   0  0  0  0  0  0  0  0  0  0  0  0
    8.2793  -18.6805   19.3795 N   0  0  0  0  0  0  0  0  0  0  0  0
    7.9840  -19.6240   18.4270 C   0  0  0  0  0  0  0  0  0  0  0  0
    6.9202  -20.3349   18.8346 N   0  0  0  0  0  0  0  0  0  0  0  0
    6.5474  -19.8521   20.0202 C   0  0  0  0  0  0  0  0  0  0  0  0
    9.4909  -17.3174   22.5529 O   0  0  0  0  0  0  0  0  0  0  0  0
   10.6679  -17.3169   22.0238 N   0  0  0  0  0  0  0  0  0  0  0  0
    9.4539  -17.6399   23.9126 C   0  0  1  0  0  0  0  0  0  0  0  0
    9.5544  -16.7457   25.0518 C   0  0  0  0  0  0  0  0  0  0  0  0
    8.5340  -15.6423   24.9723 C   0  0  0  0  0  0  0  0  0  0  0  0
    8.5405  -14.8270   26.2034 C   0  0  0  0  0  0  0  0  0  0  0  0
    9.3199  -14.9347   27.3317 N   0  0  0  0  0  0  0  0  0  0  0  0
    8.9741  -13.9686   28.2122 C   0  0  0  0  0  0  0  0  0  0  0  0
    7.9773  -13.2089   27.7051 C   0  0  0  0  0  0  0  0  0  0  0  0
    7.2797  -12.1086   28.1927 C   0  0  0  0  0  0  0  0  0  0  0  0
    6.2967  -11.5090   27.4482 C   0  0  0  0  0  0  0  0  0  0  0  0
    6.0190  -12.0348   26.1937 C   0  0  0  0  0  0  0  0  0  0  0  0
    6.7116  -13.1334   25.7044 C   0  0  0  0  0  0  0  0  0  0  0  0
    7.6949  -13.7287   26.4552 C   0  0  0  0  0  0  0  0  0  0  0  0
    9.2625  -17.5517   26.2630 O   0  0  0  0  0  0  0  0  0  0  0  0
    8.3297  -18.3576   26.3123 O   0  0  0  0  0  0  0  0  0  0  0  0
  2  1  1  0
  3  2  2  0
  4  2  1  0
  5  4  1  0
  6  7  1  0
  6  5  1  0
  8  7  1  0
  8 10  1  0
  8  9  1  6
 10 11  2  0
 12 13  1  0
 12 10  1  0
 13 20  1  0
 13 14  1  1
 15 14  1  0
 16 15  2  0
 17 18  1  0
 17 16  1  0
 18 19  2  0
 19 15  1  0
 20 22  1  0
 21 20  2  0
 22 23  1  0
 23 24  1  1
 24 25  1  0
 25 33  1  0
 26 25  2  0
 26 27  1  0
 27 28  1  0
 28 29  2  0
 29 30  1  0
 31 30  2  0
 32 31  1  0
 33 32  2  0
 33 28  1  0
 34 23  1  0
 35 34  2  0
 36 34  1  0
M  END
$$$$
