RHW.pdb
     RDKit          3D

 36 38  0  0  1  0  0  0  0  0999 V2000
    7.5000  -12.3415   17.8714 N   0  0  0  0  0  0  0  0  0  0  0  0
    7.9106  -13.1163   16.7635 C   0  0  0  0  0  0  0  0  0  0  0  0
    7.3372  -12.9623   15.6268 N   0  0  0  0  0  0  0  0  0  0  0  0
    8.9500  -14.0588   16.9169 N   0  0  0  0  0  0  0  0  0  0  0  0
    9.5722  -14.2101   18.2468 C   0  0  0  0  0  0  0  0  0  0  0  0
   10.7172  -15.1528   18.1526 C   0  0  0  0  0  0  0  0  0  0  0  0
   11.4463  -15.3251   19.4257 C   0  0  0  0  0  0  0  0  0  0  0  0
   11.4187  -16.6528   20.0773 C   0  0  2  0  0  0  0  0  0  0  0  0
   11.4056  -17.8120   19.2488 N   0  0  0  0  0  0  0  0  0  0  0  0
   10.2793  -16.7022   21.0485 C   0  0  0  0  0  0  0  0  0  0  0  0
    9.1512  -16.5196   20.5739 O   0  0  0  0  0  0  0  0  0  0  0  0
    7.5969  -13.5636   14.8019 N   0  0  0  0  0  0  0  0  0  0  0  0
   10.4316  -16.9320   22.4479 C   0  0  1  0  0  0  0  0  0  0  0  0
    9.5252  -17.6138   23.3000 C   0  0  0  0  0  0  0  0  0  0  0  0
    8.8970  -18.8776   22.6991 C   0  0  0  0  0  0  0  0  0  0  0  0
    8.0079  -19.5082   23.7044 C   0  0  0  0  0  0  0  0  0  0  0  0
    8.2432  -20.5099   24.5577 N   0  0  0  0  0  0  0  0  0  0  0  0
    7.0940  -20.7218   25.2780 C   0  0  0  0  0  0  0  0  0  0  0  0
    6.1574  -19.8511   24.8682 N   0  0  0  0  0  0  0  0  0  0  0  0
    6.7003  -19.1032   23.9072 C   0  0  0  0  0  0  0  0  0  0  0  0
    9.7608  -17.6373   24.7275 O   0  0  0  0  0  0  0  0  0  0  0  0
    9.8263  -18.7788   25.3260 N   0  0  0  0  0  0  0  0  0  0  0  0
    9.9316  -16.5245   25.5561 C   0  0  2  0  0  0  0  0  0  0  0  0
    9.6715  -16.4155   26.9802 C   0  0  0  0  0  0  0  0  0  0  0  0
    8.2166  -16.6450   27.2894 C   0  0  0  0  0  0  0  0  0  0  0  0
    7.3659  -15.6653   26.5847 C   0  0  0  0  0  0  0  0  0  0  0  0
    6.1749  -15.8442   25.9200 N   0  0  0  0  0  0  0  0  0  0  0  0
    5.7537  -14.6595   25.4229 C   0  0  0  0  0  0  0  0  0  0  0  0
    6.6335  -13.6818   25.7362 C   0  0  0  0  0  0  0  0  0  0  0  0
    6.6678  -12.3158   25.4756 C   0  0  0  0  0  0  0  0  0  0  0  0
    7.7000  -11.5357   25.9298 C   0  0  0  0  0  0  0  0  0  0  0  0
    8.7096  -12.1519   26.6565 C   0  0  0  0  0  0  0  0  0  0  0  0
    8.6800  -13.5148   26.9172 C   0  0  0  0  0  0  0  0  0  0  0  0
    7.6431  -14.2897   26.4596 C   0  0  0  0  0  0  0  0  0  0  0  0
   10.4547  -17.4849   27.6472 O   0  0  0  0  0  0  0  0  0  0  0  0
   11.0422  -18.3666   27.0152 O   0  0  0  0  0  0  0  0  0  0  0  0
  2  1  1  0
  3  2  2  0
  4  2  1  0
  5  4  1  0
  6  7  1  0
  6  5  1  0
  8  7  1  0
  8 10  1  0
  8  9  1  6
 10 11  2  0
 12 13  1  0
 12 10  1  0
 13 20  1  0
 13 14  1  1
 15 14  1  0
 16 15  2  0
 17 18  1  0
 17 16  1  0
 18 19  2  0
 19 15  1  0
 20 22  1  0
 21 20  2  0
 22 23  1  0
 23 24  1  6
 24 25  1  0
 25 33  1  0
 26 25  2  0
 26 27  1  0
 27 28  1  0
 28 29  2  0
 29 30  1  0
 31 30  2  0
 32 31  1  0
 33 32  2  0
 33 28  1  0
 34 23  1  0
 35 34  2  0
 36 34  1  0
M  END
$$$$
