NMG.pdb
     RDKit          3D

 21 20  0  0  1  0  0  0  0  0999 V2000
    7.9792  -12.8399   17.7149 N   0  0  0  0  0  0  0  0  0  0  0  0
    8.3029  -13.9300   18.5652 C   0  0  0  0  0  0  0  0  0  0  0  0
    8.1201  -15.0863   18.1101 O   0  0  0  0  0  0  0  0  0  0  0  0
    8.8384  -13.7148   19.9430 C   0  0  0  0  0  0  0  0  0  0  0  0
    7.8183  -14.2124   20.9172 C   0  0  2  0  0  0  0  0  0  0  0  0
    6.5353  -13.6347   20.6730 N   0  0  0  0  0  0  0  0  0  0  0  0
    8.2552  -14.0781   22.3314 C   0  0  0  0  0  0  0  0  0  0  0  0
    8.3796  -12.9257   22.8505 O   0  0  0  0  0  0  0  0  0  0  0  0
    6.7163  -10.9592   26.8418 C   0  0  0  0  0  0  0  0  0  0  0  0
    7.1563  -12.7071   26.6522 S   0  0  0  0  0  0  0  0  0  0  0  0
    6.5676  -13.3501   25.0782 C   0  0  0  0  0  0  0  0  0  0  0  0
    6.9305  -14.7475   24.7974 C   0  0  0  0  0  0  0  0  0  0  0  0
    8.3362  -15.1510   24.6317 C   0  0  2  0  0  0  0  0  0  0  0  0
    8.5478  -15.1923   23.1507 N   0  0  0  0  0  0  0  0  0  0  0  0
    8.7731  -16.4322   25.2084 C   0  0  0  0  0  0  0  0  0  0  0  0
    8.7490  -16.6703   26.4317 O   0  0  0  0  0  0  0  0  0  0  0  0
    9.2593  -17.4983   24.3916 N   0  0  0  0  0  0  0  0  0  0  0  0
   10.2103  -18.4876   24.8554 C   0  0  0  0  0  0  0  0  0  0  0  0
   11.3448  -17.9127   25.5637 C   0  0  0  0  0  0  0  0  0  0  0  0
   12.3974  -17.6374   24.9527 O   0  0  0  0  0  0  0  0  0  0  0  0
   11.2772  -17.6629   26.9176 O   0  0  0  0  0  0  0  0  0  0  0  0
  2  1  1  0
  2  3  2  0
  4  2  1  0
  5  4  1  0
  5  6  1  1
  7 14  1  0
  7  5  1  0
  8  7  2  0
 10  9  1  0
 10 11  1  0
 11 12  1  0
 13 12  1  6
 13 14  1  0
 13 15  1  0
 15 17  1  0
 15 16  2  0
 17 18  1  0
 18 19  1  0
 19 21  1  0
 20 19  2  0
M  END
$$$$
