NMG.pdb
     RDKit          3D

 21 20  0  0  1  0  0  0  0  0999 V2000
    8.5852  -12.6842   17.7472 N   0  0  0  0  0  0  0  0  0  0  0  0
    7.9284  -13.6227   18.5863 C   0  0  0  0  0  0  0  0  0  0  0  0
    7.4877  -14.6665   18.0445 O   0  0  0  0  0  0  0  0  0  0  0  0
    7.7667  -13.3821   20.0517 C   0  0  0  0  0  0  0  0  0  0  0  0
    8.3583  -14.5479   20.7785 C   0  0  2  0  0  0  0  0  0  0  0  0
    7.5685  -15.7257   20.6099 N   0  0  0  0  0  0  0  0  0  0  0  0
    8.6581  -14.2496   22.2033 C   0  0  0  0  0  0  0  0  0  0  0  0
    9.5889  -13.4380   22.4996 O   0  0  0  0  0  0  0  0  0  0  0  0
    5.6636  -11.0525   26.4924 C   0  0  0  0  0  0  0  0  0  0  0  0
    7.0610  -11.9833   27.1747 S   0  0  0  0  0  0  0  0  0  0  0  0
    6.9551  -13.7222   26.7248 C   0  0  0  0  0  0  0  0  0  0  0  0
    7.0567  -14.0039   25.2848 C   0  0  0  0  0  0  0  0  0  0  0  0
    8.2946  -14.5435   24.6995 C   0  0  2  0  0  0  0  0  0  0  0  0
    7.9451  -14.8360   23.2739 N   0  0  0  0  0  0  0  0  0  0  0  0
    8.8889  -15.7489   25.2983 C   0  0  0  0  0  0  0  0  0  0  0  0
    9.1740  -15.8367   26.5086 O   0  0  0  0  0  0  0  0  0  0  0  0
    9.1810  -16.9103   24.5198 N   0  0  0  0  0  0  0  0  0  0  0  0
    9.7382  -18.1249   25.0786 C   0  0  0  0  0  0  0  0  0  0  0  0
   11.1938  -18.1407   25.0935 C   0  0  0  0  0  0  0  0  0  0  0  0
   11.8342  -18.3457   24.0422 O   0  0  0  0  0  0  0  0  0  0  0  0
   11.8890  -17.9301   26.2650 O   0  0  0  0  0  0  0  0  0  0  0  0
  2  1  1  0
  2  3  2  0
  4  2  1  0
  5  4  1  0
  5  6  1  1
  7 14  1  0
  7  5  1  0
  8  7  2  0
 10  9  1  0
 10 11  1  0
 11 12  1  0
 13 12  1  1
 13 14  1  0
 13 15  1  0
 15 17  1  0
 15 16  2  0
 17 18  1  0
 18 19  1  0
 19 21  1  0
 20 19  2  0
M  END
$$$$
