NMG.pdb
     RDKit          3D

 21 20  0  0  1  0  0  0  0  0999 V2000
    8.7212  -17.9263   19.0207 N   0  0  0  0  0  0  0  0  0  0  0  0
    8.4129  -16.5460   18.8946 C   0  0  0  0  0  0  0  0  0  0  0  0
    8.0648  -16.1376   17.7590 O   0  0  0  0  0  0  0  0  0  0  0  0
    8.4978  -15.6162   20.0606 C   0  0  0  0  0  0  0  0  0  0  0  0
    8.8911  -16.4168   21.2612 C   0  0  2  0  0  0  0  0  0  0  0  0
    7.9786  -17.4896   21.4972 N   0  0  0  0  0  0  0  0  0  0  0  0
    9.1233  -15.5773   22.4655 C   0  0  0  0  0  0  0  0  0  0  0  0
    9.9979  -14.6568   22.4385 O   0  0  0  0  0  0  0  0  0  0  0  0
    6.3659  -11.6954   25.4885 C   0  0  0  0  0  0  0  0  0  0  0  0
    7.3377  -12.3020   26.8929 S   0  0  0  0  0  0  0  0  0  0  0  0
    7.4078  -14.0999   26.8963 C   0  0  0  0  0  0  0  0  0  0  0  0
    7.4700  -14.7268   25.5672 C   0  0  0  0  0  0  0  0  0  0  0  0
    8.7598  -14.9931   24.9101 C   0  0  2  0  0  0  0  0  0  0  0  0
    8.4051  -15.7530   23.6704 N   0  0  0  0  0  0  0  0  0  0  0  0
    9.7844  -15.7462   25.6503 C   0  0  0  0  0  0  0  0  0  0  0  0
   10.4737  -15.2433   26.5590 O   0  0  0  0  0  0  0  0  0  0  0  0
   10.0578  -17.1199   25.3701 N   0  0  0  0  0  0  0  0  0  0  0  0
   10.9766  -17.9245   26.1488 C   0  0  0  0  0  0  0  0  0  0  0  0
   10.4166  -18.3843   27.4115 C   0  0  0  0  0  0  0  0  0  0  0  0
    9.2505  -18.0789   27.7338 O   0  0  0  0  0  0  0  0  0  0  0  0
   11.1618  -19.1626   28.2711 O   0  0  0  0  0  0  0  0  0  0  0  0
  2  1  1  0
  2  3  2  0
  4  2  1  0
  5  4  1  0
  5  6  1  1
  7 14  1  0
  7  5  1  0
  8  7  2  0
 10  9  1  0
 10 11  1  0
 11 12  1  0
 13 12  1  1
 13 14  1  0
 13 15  1  0
 15 17  1  0
 15 16  2  0
 17 18  1  0
 18 19  1  0
 19 21  1  0
 20 19  2  0
M  END
$$$$
