NMG.pdb
     RDKit          3D

 21 20  0  0  1  0  0  0  0  0999 V2000
    8.2906  -12.5326   17.5901 N   0  0  0  0  0  0  0  0  0  0  0  0
    7.7397  -13.6269   18.3079 C   0  0  0  0  0  0  0  0  0  0  0  0
    7.4881  -14.6713   17.6572 O   0  0  0  0  0  0  0  0  0  0  0  0
    7.4696  -13.5434   19.7746 C   0  0  0  0  0  0  0  0  0  0  0  0
    8.1355  -14.7095   20.4334 C   0  0  2  0  0  0  0  0  0  0  0  0
    7.3254  -15.8835   20.3632 N   0  0  0  0  0  0  0  0  0  0  0  0
    8.6002  -14.4071   21.8124 C   0  0  0  0  0  0  0  0  0  0  0  0
    9.4891  -13.5202   22.0023 O   0  0  0  0  0  0  0  0  0  0  0  0
    5.6990  -10.8504   26.4130 C   0  0  0  0  0  0  0  0  0  0  0  0
    6.3627  -12.5217   26.6386 S   0  0  0  0  0  0  0  0  0  0  0  0
    7.1498  -13.1088   25.1309 C   0  0  0  0  0  0  0  0  0  0  0  0
    7.6668  -14.4845   25.1890 C   0  0  0  0  0  0  0  0  0  0  0  0
    8.7455  -14.9314   24.2930 C   0  0  2  0  0  0  0  0  0  0  0  0
    8.0934  -15.0708   22.9530 N   0  0  0  0  0  0  0  0  0  0  0  0
    9.4497  -16.1839   24.6095 C   0  0  0  0  0  0  0  0  0  0  0  0
    8.8605  -17.2248   24.9607 O   0  0  0  0  0  0  0  0  0  0  0  0
   10.8723  -16.2875   24.5336 N   0  0  0  0  0  0  0  0  0  0  0  0
   11.5990  -17.5071   24.8205 C   0  0  0  0  0  0  0  0  0  0  0  0
   13.0151  -17.4282   24.4921 C   0  0  0  0  0  0  0  0  0  0  0  0
   13.4117  -17.6923   23.3388 O   0  0  0  0  0  0  0  0  0  0  0  0
   13.9403  -17.0616   25.4458 O   0  0  0  0  0  0  0  0  0  0  0  0
  2  1  1  0
  2  3  2  0
  4  2  1  0
  5  4  1  0
  5  6  1  1
  7 14  1  0
  7  5  1  0
  8  7  2  0
 10  9  1  0
 10 11  1  0
 11 12  1  0
 13 12  1  1
 13 14  1  0
 13 15  1  0
 15 17  1  0
 15 16  2  0
 17 18  1  0
 18 19  1  0
 19 21  1  0
 20 19  2  0
M  END
$$$$
