NMG.pdb
     RDKit          3D

 21 20  0  0  1  0  0  0  0  0999 V2000
    8.3060  -17.4756   18.0809 N   0  0  0  0  0  0  0  0  0  0  0  0
    8.3344  -18.3734   19.1806 C   0  0  0  0  0  0  0  0  0  0  0  0
    8.2009  -19.5961   18.9263 O   0  0  0  0  0  0  0  0  0  0  0  0
    8.5150  -17.8881   20.5817 C   0  0  0  0  0  0  0  0  0  0  0  0
    8.4791  -16.3930   20.5602 C   0  0  2  0  0  0  0  0  0  0  0  0
    9.2201  -15.8671   19.4583 N   0  0  0  0  0  0  0  0  0  0  0  0
    8.8650  -15.7863   21.8609 C   0  0  0  0  0  0  0  0  0  0  0  0
   10.0860  -15.5403   22.1092 O   0  0  0  0  0  0  0  0  0  0  0  0
    7.4309  -10.9630   27.1419 C   0  0  0  0  0  0  0  0  0  0  0  0
    6.3491  -12.1705   26.3316 S   0  0  0  0  0  0  0  0  0  0  0  0
    7.1871  -13.7499   26.1306 C   0  0  0  0  0  0  0  0  0  0  0  0
    7.1822  -14.2921   24.7634 C   0  0  0  0  0  0  0  0  0  0  0  0
    8.3514  -15.0032   24.2215 C   0  0  2  0  0  0  0  0  0  0  0  0
    7.9222  -15.4604   22.8626 N   0  0  0  0  0  0  0  0  0  0  0  0
    8.8794  -16.1580   24.9648 C   0  0  0  0  0  0  0  0  0  0  0  0
    8.3107  -17.2669   24.9913 O   0  0  0  0  0  0  0  0  0  0  0  0
   10.0934  -16.0800   25.7134 N   0  0  0  0  0  0  0  0  0  0  0  0
   10.7359  -17.2319   26.3120 C   0  0  0  0  0  0  0  0  0  0  0  0
   10.3311  -17.4696   27.6901 C   0  0  0  0  0  0  0  0  0  0  0  0
   10.9080  -18.3368   28.3773 O   0  0  0  0  0  0  0  0  0  0  0  0
    9.3066  -16.7437   28.2588 O   0  0  0  0  0  0  0  0  0  0  0  0
  2  1  1  0
  2  3  2  0
  4  2  1  0
  5  4  1  0
  5  6  1  6
  7 14  1  0
  7  5  1  0
  8  7  2  0
 10  9  1  0
 10 11  1  0
 11 12  1  0
 13 12  1  1
 13 14  1  0
 13 15  1  0
 15 17  1  0
 15 16  2  0
 17 18  1  0
 18 19  1  0
 19 21  1  0
 20 19  2  0
M  END
$$$$
