NMG.pdb
     RDKit          3D

 21 20  0  0  1  0  0  0  0  0999 V2000
   13.9220  -15.3677   13.6713 N   0  0  0  0  0  0  0  0  0  0  0  0
   12.8530  -16.1411   14.1961 C   0  0  0  0  0  0  0  0  0  0  0  0
   12.7007  -17.2982   13.7323 O   0  0  0  0  0  0  0  0  0  0  0  0
   11.9461  -15.6046   15.2549 C   0  0  0  0  0  0  0  0  0  0  0  0
   11.9863  -16.5456   16.4168 C   0  0  2  0  0  0  0  0  0  0  0  0
   11.1609  -17.6893   16.1933 N   0  0  0  0  0  0  0  0  0  0  0  0
   11.7094  -15.8751   17.7141 C   0  0  0  0  0  0  0  0  0  0  0  0
   12.5098  -14.9938   18.1564 O   0  0  0  0  0  0  0  0  0  0  0  0
    7.4518  -11.4531   19.4372 C   0  0  0  0  0  0  0  0  0  0  0  0
    8.2680  -12.7816   20.3611 S   0  0  0  0  0  0  0  0  0  0  0  0
    8.2649  -14.3145   19.4190 C   0  0  0  0  0  0  0  0  0  0  0  0
    8.9670  -15.4407   20.0529 C   0  0  0  0  0  0  0  0  0  0  0  0
   10.4177  -15.6252   19.8862 C   0  0  2  0  0  0  0  0  0  0  0  0
   10.5746  -16.1734   18.5024 N   0  0  0  0  0  0  0  0  0  0  0  0
   11.1279  -16.5051   20.8275 C   0  0  0  0  0  0  0  0  0  0  0  0
   10.7047  -17.6301   21.1575 O   0  0  0  0  0  0  0  0  0  0  0  0
   12.3639  -16.1201   21.4311 N   0  0  0  0  0  0  0  0  0  0  0  0
   13.0514  -16.9230   22.4213 C   0  0  0  0  0  0  0  0  0  0  0  0
   14.2933  -16.3256   22.8905 C   0  0  0  0  0  0  0  0  0  0  0  0
   14.7182  -15.2689   22.3804 O   0  0  0  0  0  0  0  0  0  0  0  0
   15.0200  -16.9141   23.9032 O   0  0  0  0  0  0  0  0  0  0  0  0
  2  1  1  0
  2  3  2  0
  4  2  1  0
  5  4  1  0
  5  6  1  6
  7 14  1  0
  7  5  1  0
  8  7  2  0
 10  9  1  0
 10 11  1  0
 11 12  1  0
 13 12  1  1
 13 14  1  0
 13 15  1  0
 15 17  1  0
 15 16  2  0
 17 18  1  0
 18 19  1  0
 19 21  1  0
 20 19  2  0
M  END
$$$$
