NMG.pdb
     RDKit          3D

 21 20  0  0  1  0  0  0  0  0999 V2000
    7.3767  -16.2534   17.9639 N   0  0  0  0  0  0  0  0  0  0  0  0
    8.5788  -16.0398   18.6888 C   0  0  0  0  0  0  0  0  0  0  0  0
    9.6254  -16.5612   18.2303 O   0  0  0  0  0  0  0  0  0  0  0  0
    8.6016  -15.2301   19.9438 C   0  0  0  0  0  0  0  0  0  0  0  0
    8.7044  -16.1738   21.0998 C   0  0  2  0  0  0  0  0  0  0  0  0
    7.5699  -17.0381   21.1727 N   0  0  0  0  0  0  0  0  0  0  0  0
    8.9923  -15.4850   22.3850 C   0  0  0  0  0  0  0  0  0  0  0  0
    9.9997  -14.7177   22.4820 O   0  0  0  0  0  0  0  0  0  0  0  0
    7.1834  -11.0616   26.7109 C   0  0  0  0  0  0  0  0  0  0  0  0
    5.9097  -12.1489   26.0180 S   0  0  0  0  0  0  0  0  0  0  0  0
    6.6148  -13.2670   24.7973 C   0  0  0  0  0  0  0  0  0  0  0  0
    7.2416  -14.4790   25.3462 C   0  0  0  0  0  0  0  0  0  0  0  0
    8.5279  -14.9727   24.8286 C   0  0  2  0  0  0  0  0  0  0  0  0
    8.1851  -15.6424   23.5347 N   0  0  0  0  0  0  0  0  0  0  0  0
    9.3063  -15.9088   25.6547 C   0  0  0  0  0  0  0  0  0  0  0  0
    9.7092  -15.6304   26.8010 O   0  0  0  0  0  0  0  0  0  0  0  0
    9.6542  -17.2135   25.1888 N   0  0  0  0  0  0  0  0  0  0  0  0
   10.3868  -18.1754   25.9864 C   0  0  0  0  0  0  0  0  0  0  0  0
   11.7964  -18.2660   25.6339 C   0  0  0  0  0  0  0  0  0  0  0  0
   12.2870  -17.4911   24.7877 O   0  0  0  0  0  0  0  0  0  0  0  0
   12.6120  -19.2061   26.2263 O   0  0  0  0  0  0  0  0  0  0  0  0
  2  1  1  0
  2  3  2  0
  4  2  1  0
  5  4  1  0
  5  6  1  1
  7 14  1  0
  7  5  1  0
  8  7  2  0
 10  9  1  0
 10 11  1  0
 11 12  1  0
 13 12  1  1
 13 14  1  0
 13 15  1  0
 15 17  1  0
 15 16  2  0
 17 18  1  0
 18 19  1  0
 19 21  1  0
 20 19  2  0
M  END
$$$$
