NMG.pdb
     RDKit          3D

 21 20  0  0  1  0  0  0  0  0999 V2000
    7.7230  -13.5041   16.9678 N   0  0  0  0  0  0  0  0  0  0  0  0
    8.2717  -14.3207   17.9918 C   0  0  0  0  0  0  0  0  0  0  0  0
    8.4982  -15.5228   17.7071 O   0  0  0  0  0  0  0  0  0  0  0  0
    8.5682  -13.7766   19.3510 C   0  0  0  0  0  0  0  0  0  0  0  0
    8.5078  -14.9102   20.3248 C   0  0  2  0  0  0  0  0  0  0  0  0
    7.2604  -15.6012   20.2476 N   0  0  0  0  0  0  0  0  0  0  0  0
    8.8602  -14.5024   21.7099 C   0  0  0  0  0  0  0  0  0  0  0  0
    9.9962  -13.9881   21.9504 O   0  0  0  0  0  0  0  0  0  0  0  0
    6.2537  -11.2953   28.1957 C   0  0  0  0  0  0  0  0  0  0  0  0
    6.1262  -12.5857   26.9295 S   0  0  0  0  0  0  0  0  0  0  0  0
    7.1657  -12.1997   25.5125 C   0  0  0  0  0  0  0  0  0  0  0  0
    7.1248  -13.1827   24.4193 C   0  0  0  0  0  0  0  0  0  0  0  0
    8.2728  -14.0606   24.1408 C   0  0  2  0  0  0  0  0  0  0  0  0
    7.9766  -14.6606   22.8020 N   0  0  0  0  0  0  0  0  0  0  0  0
    8.5763  -15.1443   25.0887 C   0  0  0  0  0  0  0  0  0  0  0  0
    8.7513  -14.9517   26.3077 O   0  0  0  0  0  0  0  0  0  0  0  0
    8.6912  -16.5038   24.6658 N   0  0  0  0  0  0  0  0  0  0  0  0
    8.9270  -17.6046   25.5772 C   0  0  0  0  0  0  0  0  0  0  0  0
   10.3388  -17.8563   25.8280 C   0  0  0  0  0  0  0  0  0  0  0  0
   11.2129  -17.1567   25.2770 O   0  0  0  0  0  0  0  0  0  0  0  0
   10.7344  -18.8687   26.6757 O   0  0  0  0  0  0  0  0  0  0  0  0
  2  1  1  0
  2  3  2  0
  4  2  1  0
  5  4  1  0
  5  6  1  1
  7 14  1  0
  7  5  1  0
  8  7  2  0
 10  9  1  0
 10 11  1  0
 11 12  1  0
 13 12  1  1
 13 14  1  0
 13 15  1  0
 15 17  1  0
 15 16  2  0
 17 18  1  0
 18 19  1  0
 19 21  1  0
 20 19  2  0
M  END
$$$$
