NMG.pdb
     RDKit          3D

 21 20  0  0  1  0  0  0  0  0999 V2000
    7.4880  -19.3756   19.1309 N   0  0  0  0  0  0  0  0  0  0  0  0
    8.7566  -18.7377   19.1303 C   0  0  0  0  0  0  0  0  0  0  0  0
    9.3828  -18.7073   18.0420 O   0  0  0  0  0  0  0  0  0  0  0  0
    9.3255  -18.1275   20.3694 C   0  0  0  0  0  0  0  0  0  0  0  0
    8.8249  -16.7211   20.4627 C   0  0  2  0  0  0  0  0  0  0  0  0
    9.3369  -15.9116   19.4034 N   0  0  0  0  0  0  0  0  0  0  0  0
    9.0353  -16.1201   21.8056 C   0  0  0  0  0  0  0  0  0  0  0  0
   10.1996  -15.7631   22.1658 O   0  0  0  0  0  0  0  0  0  0  0  0
    7.6634  -11.6024   27.3988 C   0  0  0  0  0  0  0  0  0  0  0  0
    7.2140  -12.1654   25.7357 S   0  0  0  0  0  0  0  0  0  0  0  0
    6.8793  -13.9333   25.7250 C   0  0  0  0  0  0  0  0  0  0  0  0
    7.0333  -14.5920   24.4190 C   0  0  0  0  0  0  0  0  0  0  0  0
    8.2364  -15.3771   24.0989 C   0  0  2  0  0  0  0  0  0  0  0  0
    7.9824  -15.9197   22.7274 N   0  0  0  0  0  0  0  0  0  0  0  0
    8.6076  -16.4897   24.9871 C   0  0  0  0  0  0  0  0  0  0  0  0
    7.7980  -17.3614   25.3594 O   0  0  0  0  0  0  0  0  0  0  0  0
    9.9372  -16.6431   25.4859 N   0  0  0  0  0  0  0  0  0  0  0  0
   10.3808  -17.8051   26.2281 C   0  0  0  0  0  0  0  0  0  0  0  0
   10.5051  -17.5657   27.6587 C   0  0  0  0  0  0  0  0  0  0  0  0
   10.6629  -16.4068   28.0939 O   0  0  0  0  0  0  0  0  0  0  0  0
   10.4510  -18.6110   28.5556 O   0  0  0  0  0  0  0  0  0  0  0  0
  2  1  1  0
  2  3  2  0
  4  2  1  0
  5  4  1  0
  5  6  1  6
  7 14  1  0
  7  5  1  0
  8  7  2  0
 10  9  1  0
 10 11  1  0
 11 12  1  0
 13 12  1  1
 13 14  1  0
 13 15  1  0
 15 17  1  0
 15 16  2  0
 17 18  1  0
 18 19  1  0
 19 21  1  0
 20 19  2  0
M  END
$$$$
