NMG.pdb
     RDKit          3D

 21 20  0  0  1  0  0  0  0  0999 V2000
    8.2987  -12.9290   17.3942 N   0  0  0  0  0  0  0  0  0  0  0  0
    7.7196  -13.8833   18.2718 C   0  0  0  0  0  0  0  0  0  0  0  0
    7.3579  -14.9771   17.7717 O   0  0  0  0  0  0  0  0  0  0  0  0
    7.5461  -13.6018   19.7285 C   0  0  0  0  0  0  0  0  0  0  0  0
    8.6051  -14.3516   20.4725 C   0  0  2  0  0  0  0  0  0  0  0  0
    8.4312  -15.7637   20.3498 N   0  0  0  0  0  0  0  0  0  0  0  0
    8.7474  -13.9051   21.8829 C   0  0  0  0  0  0  0  0  0  0  0  0
    8.7528  -12.6654   22.1587 O   0  0  0  0  0  0  0  0  0  0  0  0
    6.1033  -11.6221   27.8013 C   0  0  0  0  0  0  0  0  0  0  0  0
    7.0846  -11.9858   26.3217 S   0  0  0  0  0  0  0  0  0  0  0  0
    6.4347  -13.4241   25.4579 C   0  0  0  0  0  0  0  0  0  0  0  0
    7.1845  -13.8259   24.2580 C   0  0  0  0  0  0  0  0  0  0  0  0
    8.5301  -14.4131   24.3617 C   0  0  2  0  0  0  0  0  0  0  0  0
    8.8810  -14.8090   22.9616 N   0  0  0  0  0  0  0  0  0  0  0  0
    8.7254  -15.5735   25.2449 C   0  0  0  0  0  0  0  0  0  0  0  0
    8.5489  -15.5264   26.4780 O   0  0  0  0  0  0  0  0  0  0  0  0
    9.1355  -16.8444   24.7382 N   0  0  0  0  0  0  0  0  0  0  0  0
    9.3578  -18.0033   25.5783 C   0  0  0  0  0  0  0  0  0  0  0  0
   10.6567  -18.0012   26.2357 C   0  0  0  0  0  0  0  0  0  0  0  0
   11.4162  -17.0167   26.1309 O   0  0  0  0  0  0  0  0  0  0  0  0
   11.0699  -19.0830   26.9834 O   0  0  0  0  0  0  0  0  0  0  0  0
  2  1  1  0
  2  3  2  0
  4  2  1  0
  5  4  1  0
  5  6  1  1
  7 14  1  0
  7  5  1  0
  8  7  2  0
 10  9  1  0
 10 11  1  0
 11 12  1  0
 13 12  1  6
 13 14  1  0
 13 15  1  0
 15 17  1  0
 15 16  2  0
 17 18  1  0
 18 19  1  0
 19 21  1  0
 20 19  2  0
M  END
$$$$
