NMG.pdb
     RDKit          3D

 21 20  0  0  1  0  0  0  0  0999 V2000
    8.6772  -12.7200   17.8106 N   0  0  0  0  0  0  0  0  0  0  0  0
    8.0360  -13.7377   18.5652 C   0  0  0  0  0  0  0  0  0  0  0  0
    7.7872  -14.8183   17.9755 O   0  0  0  0  0  0  0  0  0  0  0  0
    7.6714  -13.5354   19.9995 C   0  0  0  0  0  0  0  0  0  0  0  0
    8.3167  -14.6236   20.7974 C   0  0  2  0  0  0  0  0  0  0  0  0
    7.5701  -15.8389   20.7254 N   0  0  0  0  0  0  0  0  0  0  0  0
    8.6241  -14.2135   22.1925 C   0  0  0  0  0  0  0  0  0  0  0  0
    9.3732  -13.2110   22.4088 O   0  0  0  0  0  0  0  0  0  0  0  0
    7.1331  -11.5376   27.7928 C   0  0  0  0  0  0  0  0  0  0  0  0
    5.9208  -12.2098   26.6252 S   0  0  0  0  0  0  0  0  0  0  0  0
    6.7396  -12.9453   25.2019 C   0  0  0  0  0  0  0  0  0  0  0  0
    7.4242  -14.2206   25.4629 C   0  0  0  0  0  0  0  0  0  0  0  0
    8.6203  -14.6132   24.7004 C   0  0  2  0  0  0  0  0  0  0  0  0
    8.1152  -14.8970   23.3204 N   0  0  0  0  0  0  0  0  0  0  0  0
    9.4032  -15.7690   25.1652 C   0  0  0  0  0  0  0  0  0  0  0  0
    9.8356  -15.8731   26.3296 O   0  0  0  0  0  0  0  0  0  0  0  0
    9.7216  -16.8595   24.2994 N   0  0  0  0  0  0  0  0  0  0  0  0
   10.4016  -18.0584   24.7447 C   0  0  0  0  0  0  0  0  0  0  0  0
   11.8229  -18.0687   24.4297 C   0  0  0  0  0  0  0  0  0  0  0  0
   12.3490  -17.0958   23.8520 O   0  0  0  0  0  0  0  0  0  0  0  0
   12.6106  -19.1497   24.7626 O   0  0  0  0  0  0  0  0  0  0  0  0
  2  1  1  0
  2  3  2  0
  4  2  1  0
  5  4  1  0
  5  6  1  1
  7 14  1  0
  7  5  1  0
  8  7  2  0
 10  9  1  0
 10 11  1  0
 11 12  1  0
 13 12  1  1
 13 14  1  0
 13 15  1  0
 15 17  1  0
 15 16  2  0
 17 18  1  0
 18 19  1  0
 19 21  1  0
 20 19  2  0
M  END
$$$$
