NMG.pdb
     RDKit          3D

 21 20  0  0  1  0  0  0  0  0999 V2000
   11.6465  -18.3593   20.0934 N   0  0  0  0  0  0  0  0  0  0  0  0
   11.7916  -16.9611   19.8924 C   0  0  0  0  0  0  0  0  0  0  0  0
   12.5410  -16.5912   18.9549 O   0  0  0  0  0  0  0  0  0  0  0  0
   11.0846  -15.9694   20.7572 C   0  0  0  0  0  0  0  0  0  0  0  0
   10.3287  -16.7257   21.8031 C   0  0  2  0  0  0  0  0  0  0  0  0
    9.1704  -17.3584   21.2576 N   0  0  0  0  0  0  0  0  0  0  0  0
   10.0295  -15.9064   23.0065 C   0  0  0  0  0  0  0  0  0  0  0  0
   10.9656  -15.2889   23.6027 O   0  0  0  0  0  0  0  0  0  0  0  0
    6.3405  -11.4165   27.4964 C   0  0  0  0  0  0  0  0  0  0  0  0
    7.3243  -12.3259   26.2758 S   0  0  0  0  0  0  0  0  0  0  0  0
    6.3515  -13.6330   25.5125 C   0  0  0  0  0  0  0  0  0  0  0  0
    7.0558  -14.4229   24.4911 C   0  0  0  0  0  0  0  0  0  0  0  0
    8.4416  -14.8735   24.6981 C   0  0  2  0  0  0  0  0  0  0  0  0
    8.7259  -15.7744   23.5372 N   0  0  0  0  0  0  0  0  0  0  0  0
    8.7715  -15.5862   25.9423 C   0  0  0  0  0  0  0  0  0  0  0  0
    8.8467  -15.0200   27.0503 O   0  0  0  0  0  0  0  0  0  0  0  0
    9.0300  -16.9909   25.9592 N   0  0  0  0  0  0  0  0  0  0  0  0
    9.1191  -17.7702   27.1769 C   0  0  0  0  0  0  0  0  0  0  0  0
   10.4709  -17.8591   27.7097 C   0  0  0  0  0  0  0  0  0  0  0  0
   11.4136  -17.2705   27.1422 O   0  0  0  0  0  0  0  0  0  0  0  0
   10.7334  -18.5925   28.8470 O   0  0  0  0  0  0  0  0  0  0  0  0
  2  1  1  0
  2  3  2  0
  4  2  1  0
  5  4  1  0
  5  6  1  6
  7 14  1  0
  7  5  1  0
  8  7  2  0
 10  9  1  0
 10 11  1  0
 11 12  1  0
 13 12  1  1
 13 14  1  0
 13 15  1  0
 15 17  1  0
 15 16  2  0
 17 18  1  0
 18 19  1  0
 19 21  1  0
 20 19  2  0
M  END
$$$$
