NMG.pdb
     RDKit          3D

 21 20  0  0  1  0  0  0  0  0999 V2000
    8.5902  -12.7625   17.0568 N   0  0  0  0  0  0  0  0  0  0  0  0
    7.7136  -13.5535   17.8456 C   0  0  0  0  0  0  0  0  0  0  0  0
    7.0840  -14.4691   17.2602 O   0  0  0  0  0  0  0  0  0  0  0  0
    7.5448  -13.3100   19.3096 C   0  0  0  0  0  0  0  0  0  0  0  0
    8.0616  -14.5091   20.0392 C   0  0  2  0  0  0  0  0  0  0  0  0
    7.2125  -15.6420   19.8524 N   0  0  0  0  0  0  0  0  0  0  0  0
    8.3549  -14.2337   21.4700 C   0  0  0  0  0  0  0  0  0  0  0  0
    9.3066  -13.4536   21.7840 O   0  0  0  0  0  0  0  0  0  0  0  0
    8.4214  -12.1525   27.8856 C   0  0  0  0  0  0  0  0  0  0  0  0
    7.1396  -12.2247   26.6064 S   0  0  0  0  0  0  0  0  0  0  0  0
    6.8338  -13.9237   26.0991 C   0  0  0  0  0  0  0  0  0  0  0  0
    6.8348  -14.1535   24.6464 C   0  0  0  0  0  0  0  0  0  0  0  0
    8.0349  -14.6508   23.9545 C   0  0  2  0  0  0  0  0  0  0  0  0
    7.6130  -14.8084   22.5272 N   0  0  0  0  0  0  0  0  0  0  0  0
    8.6388  -15.9122   24.4118 C   0  0  0  0  0  0  0  0  0  0  0  0
    7.9926  -16.9715   24.5302 O   0  0  0  0  0  0  0  0  0  0  0  0
   10.0227  -16.0035   24.7538 N   0  0  0  0  0  0  0  0  0  0  0  0
   10.6768  -17.2478   25.1032 C   0  0  0  0  0  0  0  0  0  0  0  0
   12.1187  -17.1203   25.2578 C   0  0  0  0  0  0  0  0  0  0  0  0
   12.7732  -16.3821   24.4937 O   0  0  0  0  0  0  0  0  0  0  0  0
   12.7851  -17.8104   26.2476 O   0  0  0  0  0  0  0  0  0  0  0  0
  2  1  1  0
  2  3  2  0
  4  2  1  0
  5  4  1  0
  5  6  1  1
  7 14  1  0
  7  5  1  0
  8  7  2  0
 10  9  1  0
 10 11  1  0
 11 12  1  0
 13 12  1  1
 13 14  1  0
 13 15  1  0
 15 17  1  0
 15 16  2  0
 17 18  1  0
 18 19  1  0
 19 21  1  0
 20 19  2  0
M  END
$$$$
