CMV.pdb
     RDKit          3D

 22 21  0  0  1  0  0  0  0  0999 V2000
   28.8179  -20.9708  -16.0362 N   0  0  0  0  0  0  0  0  0  0  0  0
   28.2179  -20.1511  -15.0034 C   0  0  1  0  0  0  0  0  0  0  0  0
   27.6172  -18.9463  -15.6519 C   0  0  0  0  0  0  0  0  0  0  0  0
   28.9785  -17.8331  -16.1367 S   0  0  0  0  0  0  0  0  0  0  0  0
   27.2263  -20.9114  -14.2033 C   0  0  0  0  0  0  0  0  0  0  0  0
   26.5677  -21.7994  -14.7542 O   0  0  0  0  0  0  0  0  0  0  0  0
   26.3596  -19.1916   -7.7381 C   0  0  0  0  0  0  0  0  0  0  0  0
   25.7000  -20.8663   -7.8943 S   0  0  0  0  0  0  0  0  0  0  0  0
   25.1311  -21.1499   -9.6223 C   0  0  0  0  0  0  0  0  0  0  0  0
   26.2096  -20.7571  -10.5682 C   0  0  0  0  0  0  0  0  0  0  0  0
   25.9653  -20.9734  -12.0047 C   0  0  2  0  0  0  0  0  0  0  0  0
   27.0523  -20.6121  -12.8392 N   0  0  0  0  0  0  0  0  0  0  0  0
   24.6267  -20.5223  -12.4252 C   0  0  0  0  0  0  0  0  0  0  0  0
   24.4583  -19.2783  -12.5511 O   0  0  0  0  0  0  0  0  0  0  0  0
   21.3983  -22.8223  -14.3366 C   0  0  0  0  0  0  0  0  0  0  0  0
   21.9545  -21.4393  -14.5794 C   0  0  2  0  0  0  0  0  0  0  0  0
   23.2629  -21.5930  -15.3267 C   0  0  0  0  0  0  0  0  0  0  0  0
   22.2615  -20.8043  -13.2415 C   0  0  2  0  0  0  0  0  0  0  0  0
   23.5163  -21.3493  -12.6946 N   0  0  0  0  0  0  0  0  0  0  0  0
   21.2016  -21.0868  -12.2520 C   0  0  0  0  0  0  0  0  0  0  0  0
   21.4367  -21.8371  -11.2749 O   0  0  0  0  0  0  0  0  0  0  0  0
   19.9366  -20.5072  -12.4187 O   0  0  0  0  0  0  0  0  0  0  0  0
  2  1  1  6
  2  3  1  0
  4  3  1  0
  5 12  1  0
  5  2  1  0
  6  5  2  0
  8  7  1  0
  9  8  1  0
  9 10  1  0
 11 10  1  1
 11 13  1  0
 11 12  1  0
 13 19  1  0
 14 13  2  0
 16 15  1  1
 16 17  1  0
 18 20  1  0
 18 16  1  0
 18 19  1  1
 20 22  1  0
 21 20  2  0
M  END
$$$$
