CMV.pdb
     RDKit          3D

 22 21  0  0  1  0  0  0  0  0999 V2000
   17.6723  -27.6430   -3.0727 N   0  0  0  0  0  0  0  0  0  0  0  0
   18.6692  -27.7965   -2.0330 C   0  0  1  0  0  0  0  0  0  0  0  0
   18.9710  -26.4453   -1.4706 C   0  0  0  0  0  0  0  0  0  0  0  0
   20.7232  -26.4276   -0.9639 S   0  0  0  0  0  0  0  0  0  0  0  0
   18.2323  -28.7549   -0.9880 C   0  0  0  0  0  0  0  0  0  0  0  0
   17.0783  -28.6811   -0.5536 O   0  0  0  0  0  0  0  0  0  0  0  0
   22.6995  -33.2659   -0.5149 C   0  0  0  0  0  0  0  0  0  0  0  0
   21.0753  -34.0251   -0.7382 S   0  0  0  0  0  0  0  0  0  0  0  0
   19.7890  -32.7133   -0.8585 C   0  0  0  0  0  0  0  0  0  0  0  0
   19.8166  -31.8801    0.3732 C   0  0  0  0  0  0  0  0  0  0  0  0
   18.8832  -30.7426    0.4449 C   0  0  2  0  0  0  0  0  0  0  0  0
   19.1320  -29.7265   -0.5111 N   0  0  0  0  0  0  0  0  0  0  0  0
   18.6303  -30.3045    1.8293 C   0  0  0  0  0  0  0  0  0  0  0  0
   19.4368  -29.4661    2.3177 O   0  0  0  0  0  0  0  0  0  0  0  0
   15.4505  -31.6689    4.3216 C   0  0  0  0  0  0  0  0  0  0  0  0
   15.9435  -30.2446    4.4182 C   0  0  2  0  0  0  0  0  0  0  0  0
   15.1783  -29.4217    3.4026 C   0  0  0  0  0  0  0  0  0  0  0  0
   17.4041  -30.2152    4.0266 C   0  0  2  0  0  0  0  0  0  0  0  0
   17.5760  -30.7380    2.6599 N   0  0  0  0  0  0  0  0  0  0  0  0
   18.2211  -31.0635    4.9184 C   0  0  0  0  0  0  0  0  0  0  0  0
   18.5457  -32.2213    4.5621 O   0  0  0  0  0  0  0  0  0  0  0  0
   18.6271  -30.5589    6.1612 O   0  0  0  0  0  0  0  0  0  0  0  0
  2  1  1  6
  2  3  1  0
  4  3  1  0
  5 12  1  0
  5  2  1  0
  6  5  2  0
  8  7  1  0
  9  8  1  0
  9 10  1  0
 11 10  1  1
 11 13  1  0
 11 12  1  0
 13 19  1  0
 14 13  2  0
 16 15  1  6
 16 17  1  0
 18 20  1  0
 18 16  1  0
 18 19  1  6
 20 22  1  0
 21 20  2  0
M  END
$$$$
