CMV.pdb
     RDKit          3D

 22 21  0  0  1  0  0  0  0  0999 V2000
   28.8465  -20.7607  -15.7855 N   0  0  0  0  0  0  0  0  0  0  0  0
   28.1563  -19.9858  -14.7747 C   0  0  1  0  0  0  0  0  0  0  0  0
   27.5000  -18.8221  -15.4440 C   0  0  0  0  0  0  0  0  0  0  0  0
   28.7570  -17.5183  -15.6612 S   0  0  0  0  0  0  0  0  0  0  0  0
   27.1896  -20.8130  -14.0112 C   0  0  0  0  0  0  0  0  0  0  0  0
   26.5345  -21.6725  -14.6095 O   0  0  0  0  0  0  0  0  0  0  0  0
   27.1982  -20.4965   -7.5520 C   0  0  0  0  0  0  0  0  0  0  0  0
   25.4051  -20.4361   -7.7649 S   0  0  0  0  0  0  0  0  0  0  0  0
   24.9665  -20.9504   -9.4775 C   0  0  0  0  0  0  0  0  0  0  0  0
   26.0561  -20.5506  -10.4077 C   0  0  0  0  0  0  0  0  0  0  0  0
   25.9097  -20.9230  -11.8255 C   0  0  2  0  0  0  0  0  0  0  0  0
   27.0348  -20.6079  -12.6275 N   0  0  0  0  0  0  0  0  0  0  0  0
   24.5863  -20.5696  -12.3696 C   0  0  0  0  0  0  0  0  0  0  0  0
   24.3966  -19.3575  -12.6640 O   0  0  0  0  0  0  0  0  0  0  0  0
   20.9648  -21.6273  -15.3478 C   0  0  0  0  0  0  0  0  0  0  0  0
   22.2727  -21.9148  -14.6496 C   0  0  2  0  0  0  0  0  0  0  0  0
   22.2595  -23.3688  -14.2256 C   0  0  0  0  0  0  0  0  0  0  0  0
   22.3425  -21.0714  -13.3961 C   0  0  2  0  0  0  0  0  0  0  0  0
   23.5117  -21.4571  -12.5867 N   0  0  0  0  0  0  0  0  0  0  0  0
   21.1488  -21.2631  -12.5472 C   0  0  0  0  0  0  0  0  0  0  0  0
   20.1810  -20.4702  -12.6341 O   0  0  0  0  0  0  0  0  0  0  0  0
   21.1125  -22.3380  -11.6488 O   0  0  0  0  0  0  0  0  0  0  0  0
  2  1  1  6
  2  3  1  0
  4  3  1  0
  5 12  1  0
  5  2  1  0
  6  5  2  0
  8  7  1  0
  9  8  1  0
  9 10  1  0
 11 10  1  1
 11 13  1  0
 11 12  1  0
 13 19  1  0
 14 13  2  0
 16 15  1  1
 16 17  1  0
 18 20  1  0
 18 16  1  0
 18 19  1  1
 20 22  1  0
 21 20  2  0
M  END
$$$$
