CMV.pdb
     RDKit          3D

 22 21  0  0  1  0  0  0  0  0999 V2000
   27.8662  -21.6104  -15.3105 N   0  0  0  0  0  0  0  0  0  0  0  0
   27.4037  -20.5723  -14.4122 C   0  0  1  0  0  0  0  0  0  0  0  0
   26.9140  -19.4251  -15.2350 C   0  0  0  0  0  0  0  0  0  0  0  0
   28.3671  -18.5968  -15.9629 S   0  0  0  0  0  0  0  0  0  0  0  0
   26.3676  -21.0749  -13.4765 C   0  0  0  0  0  0  0  0  0  0  0  0
   25.5517  -21.9100  -13.8800 O   0  0  0  0  0  0  0  0  0  0  0  0
   26.6398  -19.0612   -7.1839 C   0  0  0  0  0  0  0  0  0  0  0  0
   25.6830  -20.5891   -7.0644 S   0  0  0  0  0  0  0  0  0  0  0  0
   24.8708  -20.9399   -8.6791 C   0  0  0  0  0  0  0  0  0  0  0  0
   25.7969  -20.5807   -9.7861 C   0  0  0  0  0  0  0  0  0  0  0  0
   25.3544  -20.8668  -11.1618 C   0  0  2  0  0  0  0  0  0  0  0  0
   26.3301  -20.5966  -12.1534 N   0  0  0  0  0  0  0  0  0  0  0  0
   23.9866  -20.3865  -11.4277 C   0  0  0  0  0  0  0  0  0  0  0  0
   23.8568  -19.1634  -11.7084 O   0  0  0  0  0  0  0  0  0  0  0  0
   21.0707  -22.5434  -13.2016 C   0  0  0  0  0  0  0  0  0  0  0  0
   21.1258  -21.0346  -13.1663 C   0  0  2  0  0  0  0  0  0  0  0  0
   22.2350  -20.5916  -14.0977 C   0  0  0  0  0  0  0  0  0  0  0  0
   21.5008  -20.6011  -11.7667 C   0  0  2  0  0  0  0  0  0  0  0  0
   22.8100  -21.1637  -11.3924 N   0  0  0  0  0  0  0  0  0  0  0  0
   20.5233  -21.0843  -10.7699 C   0  0  0  0  0  0  0  0  0  0  0  0
   20.8605  -21.9478   -9.9252 O   0  0  0  0  0  0  0  0  0  0  0  0
   19.2211  -20.5665  -10.7806 O   0  0  0  0  0  0  0  0  0  0  0  0
  2  1  1  6
  2  3  1  0
  4  3  1  0
  5 12  1  0
  5  2  1  0
  6  5  2  0
  8  7  1  0
  9  8  1  0
  9 10  1  0
 11 10  1  1
 11 13  1  0
 11 12  1  0
 13 19  1  0
 14 13  2  0
 16 15  1  1
 16 17  1  0
 18 20  1  0
 18 16  1  0
 18 19  1  1
 20 22  1  0
 21 20  2  0
M  END
$$$$
