CMV.pdb
     RDKit          3D

 22 21  0  0  1  0  0  0  0  0999 V2000
   29.6676  -21.9586  -13.8525 N   0  0  0  0  0  0  0  0  0  0  0  0
   29.0987  -20.8075  -13.1818 C   0  0  1  0  0  0  0  0  0  0  0  0
   28.5936  -19.8615  -14.2225 C   0  0  0  0  0  0  0  0  0  0  0  0
   27.9132  -18.4002  -13.3688 S   0  0  0  0  0  0  0  0  0  0  0  0
   28.0409  -21.1988  -12.2177 C   0  0  0  0  0  0  0  0  0  0  0  0
   27.1805  -22.0115  -12.5711 O   0  0  0  0  0  0  0  0  0  0  0  0
   28.1858  -20.6599   -5.2903 C   0  0  0  0  0  0  0  0  0  0  0  0
   27.0132  -19.4989   -6.0261 S   0  0  0  0  0  0  0  0  0  0  0  0
   26.3237  -20.2132   -7.5766 C   0  0  0  0  0  0  0  0  0  0  0  0
   27.3444  -20.1301   -8.6553 C   0  0  0  0  0  0  0  0  0  0  0  0
   26.9779  -20.6612   -9.9797 C   0  0  2  0  0  0  0  0  0  0  0  0
   28.0336  -20.6426  -10.9249 N   0  0  0  0  0  0  0  0  0  0  0  0
   25.6651  -20.1752  -10.4407 C   0  0  0  0  0  0  0  0  0  0  0  0
   25.5501  -18.9322  -10.6238 O   0  0  0  0  0  0  0  0  0  0  0  0
   23.0762  -22.5386  -12.5766 C   0  0  0  0  0  0  0  0  0  0  0  0
   23.1836  -21.0410  -12.7389 C   0  0  2  0  0  0  0  0  0  0  0  0
   24.4488  -20.7511  -13.5195 C   0  0  0  0  0  0  0  0  0  0  0  0
   23.3371  -20.4200  -11.3683 C   0  0  2  0  0  0  0  0  0  0  0  0
   24.5253  -20.9676  -10.6908 N   0  0  0  0  0  0  0  0  0  0  0  0
   22.1747  -20.7164  -10.5062 C   0  0  0  0  0  0  0  0  0  0  0  0
   21.0494  -20.2349  -10.7797 O   0  0  0  0  0  0  0  0  0  0  0  0
   22.3456  -21.5394   -9.3849 O   0  0  0  0  0  0  0  0  0  0  0  0
  2  1  1  6
  2  3  1  0
  4  3  1  0
  5 12  1  0
  5  2  1  0
  6  5  2  0
  8  7  1  0
  9  8  1  0
  9 10  1  0
 11 10  1  1
 11 13  1  0
 11 12  1  0
 13 19  1  0
 14 13  2  0
 16 15  1  1
 16 17  1  0
 18 20  1  0
 18 16  1  0
 18 19  1  1
 20 22  1  0
 21 20  2  0
M  END
$$$$
