CMV.pdb
     RDKit          3D

 22 21  0  0  1  0  0  0  0  0999 V2000
   44.1171  -11.4260   -7.5408 N   0  0  0  0  0  0  0  0  0  0  0  0
   42.9852  -10.8175   -8.2094 C   0  0  1  0  0  0  0  0  0  0  0  0
   41.9362  -11.8643   -8.4008 C   0  0  0  0  0  0  0  0  0  0  0  0
   42.4076  -12.8727   -9.8460 S   0  0  0  0  0  0  0  0  0  0  0  0
   42.4741   -9.6397   -7.4658 C   0  0  0  0  0  0  0  0  0  0  0  0
   42.4250   -9.6862   -6.2324 O   0  0  0  0  0  0  0  0  0  0  0  0
   44.5511   -4.4709   -5.1779 C   0  0  0  0  0  0  0  0  0  0  0  0
   43.7399   -3.8824   -6.6811 S   0  0  0  0  0  0  0  0  0  0  0  0
   42.2397   -4.8966   -7.0138 C   0  0  0  0  0  0  0  0  0  0  0  0
   42.6501   -6.2383   -7.5074 C   0  0  0  0  0  0  0  0  0  0  0  0
   41.6015   -7.2652   -7.6348 C   0  0  2  0  0  0  0  0  0  0  0  0
   42.0562   -8.4957   -8.1711 N   0  0  0  0  0  0  0  0  0  0  0  0
   40.3447   -6.7255   -8.1837 C   0  0  0  0  0  0  0  0  0  0  0  0
   40.2518   -6.6646   -9.4405 O   0  0  0  0  0  0  0  0  0  0  0  0
   37.0312   -5.4529   -5.8676 C   0  0  0  0  0  0  0  0  0  0  0  0
   36.8068   -6.0765   -7.2247 C   0  0  2  0  0  0  0  0  0  0  0  0
   36.7294   -7.5773   -7.0357 C   0  0  0  0  0  0  0  0  0  0  0  0
   38.0111   -5.7842   -8.0917 C   0  0  2  0  0  0  0  0  0  0  0  0
   39.2397   -6.2664   -7.4369 N   0  0  0  0  0  0  0  0  0  0  0  0
   38.1809   -4.3333   -8.3114 C   0  0  0  0  0  0  0  0  0  0  0  0
   39.0632   -3.7008   -7.6833 O   0  0  0  0  0  0  0  0  0  0  0  0
   37.3476   -3.6769   -9.2273 O   0  0  0  0  0  0  0  0  0  0  0  0
  2  1  1  1
  2  3  1  0
  4  3  1  0
  5 12  1  0
  5  2  1  0
  6  5  2  0
  8  7  1  0
  9  8  1  0
  9 10  1  0
 11 10  1  6
 11 13  1  0
 11 12  1  0
 13 19  1  0
 14 13  2  0
 16 15  1  1
 16 17  1  0
 18 20  1  0
 18 16  1  0
 18 19  1  1
 20 22  1  0
 21 20  2  0
M  END
$$$$
