CMV.pdb
     RDKit          3D

 22 21  0  0  1  0  0  0  0  0999 V2000
   21.5804  -12.8041  -18.5958 N   0  0  0  0  0  0  0  0  0  0  0  0
   21.8870  -12.0852  -17.3762 C   0  0  1  0  0  0  0  0  0  0  0  0
   23.3720  -11.9605  -17.2669 C   0  0  0  0  0  0  0  0  0  0  0  0
   23.9230  -10.7285  -18.4941 S   0  0  0  0  0  0  0  0  0  0  0  0
   21.2077  -10.7669  -17.3282 C   0  0  0  0  0  0  0  0  0  0  0  0
   21.1581  -10.0819  -18.3550 O   0  0  0  0  0  0  0  0  0  0  0  0
   14.7045  -10.7495  -15.7496 C   0  0  0  0  0  0  0  0  0  0  0  0
   16.0802  -10.0182  -14.8350 S   0  0  0  0  0  0  0  0  0  0  0  0
   17.5646   -9.9219  -15.9200 C   0  0  0  0  0  0  0  0  0  0  0  0
   18.6691   -9.2472  -15.1872 C   0  0  0  0  0  0  0  0  0  0  0  0
   19.9569   -9.0978  -15.8869 C   0  0  2  0  0  0  0  0  0  0  0  0
   20.6343  -10.3199  -16.1232 N   0  0  0  0  0  0  0  0  0  0  0  0
   20.7628   -7.9834  -15.3571 C   0  0  0  0  0  0  0  0  0  0  0  0
   21.5162   -8.2403  -14.3782 O   0  0  0  0  0  0  0  0  0  0  0  0
   21.4880   -4.5081  -17.4584 C   0  0  0  0  0  0  0  0  0  0  0  0
   22.4632   -4.9849  -16.4084 C   0  0  2  0  0  0  0  0  0  0  0  0
   23.3398   -6.0458  -17.0408 C   0  0  0  0  0  0  0  0  0  0  0  0
   21.6824   -5.6403  -15.2912 C   0  0  2  0  0  0  0  0  0  0  0  0
   20.7669   -6.6572  -15.8375 N   0  0  0  0  0  0  0  0  0  0  0  0
   20.8516   -4.6593  -14.5632 C   0  0  0  0  0  0  0  0  0  0  0  0
   21.3931   -3.7923  -13.8366 O   0  0  0  0  0  0  0  0  0  0  0  0
   19.4574   -4.7101  -14.6956 O   0  0  0  0  0  0  0  0  0  0  0  0
  2  1  1  6
  2  3  1  0
  4  3  1  0
  5 12  1  0
  5  2  1  0
  6  5  2  0
  8  7  1  0
  9  8  1  0
  9 10  1  0
 11 10  1  1
 11 13  1  0
 11 12  1  0
 13 19  1  0
 14 13  2  0
 16 15  1  6
 16 17  1  0
 18 20  1  0
 18 16  1  0
 18 19  1  6
 20 22  1  0
 21 20  2  0
M  END
$$$$
