CMV.pdb
     RDKit          3D

 22 21  0  0  1  0  0  0  0  0999 V2000
   28.9813  -20.6197  -15.9683 N   0  0  0  0  0  0  0  0  0  0  0  0
   28.1792  -19.7944  -15.0886 C   0  0  1  0  0  0  0  0  0  0  0  0
   27.5625  -18.7037  -15.9029 C   0  0  0  0  0  0  0  0  0  0  0  0
   28.6821  -17.2645  -15.8519 S   0  0  0  0  0  0  0  0  0  0  0  0
   27.1638  -20.5927  -14.3584 C   0  0  0  0  0  0  0  0  0  0  0  0
   26.5646  -21.4910  -14.9583 O   0  0  0  0  0  0  0  0  0  0  0  0
   27.0904  -20.3251   -7.9798 C   0  0  0  0  0  0  0  0  0  0  0  0
   25.3108  -20.5974   -8.1313 S   0  0  0  0  0  0  0  0  0  0  0  0
   24.8954  -21.0274   -9.8727 C   0  0  0  0  0  0  0  0  0  0  0  0
   25.9555  -20.5062  -10.7765 C   0  0  0  0  0  0  0  0  0  0  0  0
   25.8254  -20.7971  -12.2148 C   0  0  2  0  0  0  0  0  0  0  0  0
   26.9004  -20.3169  -13.0036 N   0  0  0  0  0  0  0  0  0  0  0  0
   24.4649  -20.5450  -12.7222 C   0  0  0  0  0  0  0  0  0  0  0  0
   24.1620  -19.3452  -12.9685 O   0  0  0  0  0  0  0  0  0  0  0  0
   22.0091  -23.4471  -14.4061 C   0  0  0  0  0  0  0  0  0  0  0  0
   21.8932  -21.9856  -14.7686 C   0  0  2  0  0  0  0  0  0  0  0  0
   22.9821  -21.6717  -15.7735 C   0  0  0  0  0  0  0  0  0  0  0  0
   22.1607  -21.1614  -13.5290 C   0  0  2  0  0  0  0  0  0  0  0  0
   23.4693  -21.5172  -12.9530 N   0  0  0  0  0  0  0  0  0  0  0  0
   21.1474  -21.4113  -12.4834 C   0  0  0  0  0  0  0  0  0  0  0  0
   21.4438  -22.0853  -11.4682 O   0  0  0  0  0  0  0  0  0  0  0  0
   19.8574  -20.8867  -12.6403 O   0  0  0  0  0  0  0  0  0  0  0  0
  2  1  1  6
  2  3  1  0
  4  3  1  0
  5 12  1  0
  5  2  1  0
  6  5  2  0
  8  7  1  0
  9  8  1  0
  9 10  1  0
 11 10  1  1
 11 13  1  0
 11 12  1  0
 13 19  1  0
 14 13  2  0
 16 15  1  1
 16 17  1  0
 18 20  1  0
 18 16  1  0
 18 19  1  1
 20 22  1  0
 21 20  2  0
M  END
$$$$
