CMV.pdb
     RDKit          3D

 22 21  0  0  1  0  0  0  0  0999 V2000
   17.4335  -13.4709  -18.7778 N   0  0  0  0  0  0  0  0  0  0  0  0
   18.4747  -12.5579  -19.2028 C   0  0  1  0  0  0  0  0  0  0  0  0
   17.9852  -11.8156  -20.4037 C   0  0  0  0  0  0  0  0  0  0  0  0
   17.7747  -13.0183  -21.7589 S   0  0  0  0  0  0  0  0  0  0  0  0
   18.8875  -11.6452  -18.1082 C   0  0  0  0  0  0  0  0  0  0  0  0
   18.0220  -11.1765  -17.3618 O   0  0  0  0  0  0  0  0  0  0  0  0
   24.2549  -11.1751  -13.8638 C   0  0  0  0  0  0  0  0  0  0  0  0
   23.8328  -12.4805  -15.0393 S   0  0  0  0  0  0  0  0  0  0  0  0
   22.1413  -12.1908  -15.7065 C   0  0  0  0  0  0  0  0  0  0  0  0
   22.1175  -10.9028  -16.4499 C   0  0  0  0  0  0  0  0  0  0  0  0
   20.8212  -10.4510  -16.9845 C   0  0  2  0  0  0  0  0  0  0  0  0
   20.2484  -11.3295  -17.9376 N   0  0  0  0  0  0  0  0  0  0  0  0
   20.8159   -9.0152  -17.3173 C   0  0  0  0  0  0  0  0  0  0  0  0
   21.4076   -8.6741  -18.3780 O   0  0  0  0  0  0  0  0  0  0  0  0
   17.9947   -6.3152  -16.1999 C   0  0  0  0  0  0  0  0  0  0  0  0
   18.9455   -6.0454  -17.3418 C   0  0  2  0  0  0  0  0  0  0  0  0
   18.4626   -6.8352  -18.5406 C   0  0  0  0  0  0  0  0  0  0  0  0
   20.3112   -6.5738  -16.9635 C   0  0  2  0  0  0  0  0  0  0  0  0
   20.2168   -7.9875  -16.5593 N   0  0  0  0  0  0  0  0  0  0  0  0
   20.8794   -5.8350  -15.8174 C   0  0  0  0  0  0  0  0  0  0  0  0
   20.9208   -6.3684  -14.6831 O   0  0  0  0  0  0  0  0  0  0  0  0
   21.3698   -4.5371  -16.0142 O   0  0  0  0  0  0  0  0  0  0  0  0
  2  1  1  1
  2  3  1  0
  4  3  1  0
  5 12  1  0
  5  2  1  0
  6  5  2  0
  8  7  1  0
  9  8  1  0
  9 10  1  0
 11 10  1  6
 11 13  1  0
 11 12  1  0
 13 19  1  0
 14 13  2  0
 16 15  1  1
 16 17  1  0
 18 20  1  0
 18 16  1  0
 18 19  1  1
 20 22  1  0
 21 20  2  0
M  END
$$$$
