CMV.pdb
     RDKit          3D

 22 21  0  0  1  0  0  0  0  0999 V2000
   23.1683  -12.5807  -16.5088 N   0  0  0  0  0  0  0  0  0  0  0  0
   23.0869  -11.5905  -15.4546 C   0  0  1  0  0  0  0  0  0  0  0  0
   24.3072  -10.7309  -15.5244 C   0  0  0  0  0  0  0  0  0  0  0  0
   24.2179   -9.7546  -17.0627 S   0  0  0  0  0  0  0  0  0  0  0  0
   21.8357  -10.7975  -15.5390 C   0  0  0  0  0  0  0  0  0  0  0  0
   21.2210  -10.7624  -16.6099 O   0  0  0  0  0  0  0  0  0  0  0  0
   17.8018  -10.9087  -10.8879 C   0  0  0  0  0  0  0  0  0  0  0  0
   17.3308   -9.2314  -11.3665 S   0  0  0  0  0  0  0  0  0  0  0  0
   18.1257   -8.7978  -12.9696 C   0  0  0  0  0  0  0  0  0  0  0  0
   19.4363   -9.4930  -13.0751 C   0  0  0  0  0  0  0  0  0  0  0  0
   20.2195   -9.2832  -14.3051 C   0  0  2  0  0  0  0  0  0  0  0  0
   21.3713  -10.1027  -14.4067 N   0  0  0  0  0  0  0  0  0  0  0  0
   20.3890   -7.8560  -14.6314 C   0  0  0  0  0  0  0  0  0  0  0  0
   21.2660   -7.2233  -13.9814 O   0  0  0  0  0  0  0  0  0  0  0  0
   18.8537   -6.0652  -18.0404 C   0  0  0  0  0  0  0  0  0  0  0  0
   20.0673   -5.4789  -17.3593 C   0  0  2  0  0  0  0  0  0  0  0  0
   21.2820   -6.2445  -17.8414 C   0  0  0  0  0  0  0  0  0  0  0  0
   19.9400   -5.7102  -15.8700 C   0  0  2  0  0  0  0  0  0  0  0  0
   19.6602   -7.1307  -15.5970 N   0  0  0  0  0  0  0  0  0  0  0  0
   18.8233   -4.9328  -15.2947 C   0  0  0  0  0  0  0  0  0  0  0  0
   17.7787   -5.5160  -14.9185 O   0  0  0  0  0  0  0  0  0  0  0  0
   18.9470   -3.5420  -15.1749 O   0  0  0  0  0  0  0  0  0  0  0  0
  2  1  1  6
  2  3  1  0
  4  3  1  0
  5 12  1  0
  5  2  1  0
  6  5  2  0
  8  7  1  0
  9  8  1  0
  9 10  1  0
 11 10  1  1
 11 13  1  0
 11 12  1  0
 13 19  1  0
 14 13  2  0
 16 15  1  6
 16 17  1  0
 18 20  1  0
 18 16  1  0
 18 19  1  6
 20 22  1  0
 21 20  2  0
M  END
$$$$
