RGH.pdb
     RDKit          3D

 26 26  0  0  1  0  0  0  0  0999 V2000
    7.3392  -14.4077   14.8794 N   0  0  0  0  0  0  0  0  0  0  0  0
    8.4739  -13.8116   15.4722 C   0  0  0  0  0  0  0  0  0  0  0  0
    9.5415  -13.6597   14.7551 N   0  0  0  0  0  0  0  0  0  0  0  0
    8.5075  -13.3630   16.8330 N   0  0  0  0  0  0  0  0  0  0  0  0
    7.5414  -13.7875   17.8076 C   0  0  0  0  0  0  0  0  0  0  0  0
    7.6998  -15.1892   18.2682 C   0  0  0  0  0  0  0  0  0  0  0  0
    8.3794  -15.3285   19.5850 C   0  0  0  0  0  0  0  0  0  0  0  0
    8.5509  -16.7810   19.9831 C   0  0  2  0  0  0  0  0  0  0  0  0
    7.4072  -17.5936   19.7687 N   0  0  0  0  0  0  0  0  0  0  0  0
    8.9894  -16.8360   21.3818 C   0  0  0  0  0  0  0  0  0  0  0  0
    8.1836  -16.5180   22.2827 O   0  0  0  0  0  0  0  0  0  0  0  0
   10.3912  -13.2040   15.1085 N   0  0  0  0  0  0  0  0  0  0  0  0
   10.3097  -17.2450   21.6890 C   0  0  0  0  0  0  0  0  0  0  0  0
   11.0862  -16.7188   22.7682 C   0  0  0  0  0  0  0  0  0  0  0  0
   10.2424  -16.0241   23.7459 O   0  0  0  0  0  0  0  0  0  0  0  0
    8.9923  -15.9593   23.5102 N   0  0  0  0  0  0  0  0  0  0  0  0
   10.7584  -15.4476   24.9048 C   0  0  2  0  0  0  0  0  0  0  0  0
    9.8717  -14.7614   25.8470 C   0  0  0  0  0  0  0  0  0  0  0  0
    8.6039  -14.3642   25.1698 C   0  0  0  0  0  0  0  0  0  0  0  0
    7.7410  -13.6089   26.0948 C   0  0  0  0  0  0  0  0  0  0  0  0
    8.0501  -12.6368   27.0171 N   0  0  0  0  0  0  0  0  0  0  0  0
    6.9430  -12.2257   27.6748 C   0  0  0  0  0  0  0  0  0  0  0  0
    5.9281  -12.9368   27.1711 N   0  0  0  0  0  0  0  0  0  0  0  0
    6.3907  -13.7700   26.2235 C   0  0  0  0  0  0  0  0  0  0  0  0
    9.6624  -15.6482   27.0008 O   0  0  0  0  0  0  0  0  0  0  0  0
    9.7516  -15.1536   28.2820 O   0  0  0  0  0  0  0  0  0  0  0  0
  2  1  1  0
  3  2  2  0
  4  2  1  0
  5  4  1  0
  6  5  1  0
  6  7  1  0
  7  8  1  0
  8  9  1  1
 10  8  1  0
 11 10  2  0
 12 10  1  0
 13 12  1  0
 14 13  1  0
 14 16  1  0
 15 14  2  0
 17 16  1  0
 17 24  1  0
 17 18  1  6
 19 18  1  0
 19 20  2  0
 21 20  1  0
 22 21  1  0
 23 22  2  0
 23 19  1  0
 24 26  2  0
 24 25  1  0
M  END
$$$$
