RGH.pdb
     RDKit          3D

 26 26  0  0  1  0  0  0  0  0999 V2000
    8.0771  -12.9054   13.6982 N   0  0  0  0  0  0  0  0  0  0  0  0
    7.7229  -13.5592   14.8988 C   0  0  0  0  0  0  0  0  0  0  0  0
    7.2307  -14.7552   14.8326 N   0  0  0  0  0  0  0  0  0  0  0  0
    7.8800  -12.9666   16.1942 N   0  0  0  0  0  0  0  0  0  0  0  0
    7.4921  -13.6413   17.4016 C   0  0  0  0  0  0  0  0  0  0  0  0
    8.3098  -14.8335   17.7360 C   0  0  0  0  0  0  0  0  0  0  0  0
    9.4028  -14.5731   18.7119 C   0  0  0  0  0  0  0  0  0  0  0  0
   10.2487  -15.8066   18.9577 C   0  0  2  0  0  0  0  0  0  0  0  0
   10.5257  -16.5764   17.7979 N   0  0  0  0  0  0  0  0  0  0  0  0
    9.6045  -16.6189   19.9954 C   0  0  0  0  0  0  0  0  0  0  0  0
    8.7625  -17.4783   19.6570 O   0  0  0  0  0  0  0  0  0  0  0  0
    7.0361  -15.3255   15.6641 N   0  0  0  0  0  0  0  0  0  0  0  0
    9.9427  -16.4186   21.3558 C   0  0  0  0  0  0  0  0  0  0  0  0
    9.5237  -17.2710   22.4245 C   0  0  0  0  0  0  0  0  0  0  0  0
   10.1215  -16.8636   23.7001 O   0  0  0  0  0  0  0  0  0  0  0  0
   11.2430  -16.2607   23.6635 N   0  0  0  0  0  0  0  0  0  0  0  0
    9.5080  -17.1088   24.9269 C   0  0  1  0  0  0  0  0  0  0  0  0
    9.0717  -15.9944   25.7711 C   0  0  0  0  0  0  0  0  0  0  0  0
    8.1015  -15.1350   25.0336 C   0  0  0  0  0  0  0  0  0  0  0  0
    7.5940  -14.0639   25.9088 C   0  0  0  0  0  0  0  0  0  0  0  0
    6.6907  -14.1053   26.9448 N   0  0  0  0  0  0  0  0  0  0  0  0
    6.4954  -12.8729   27.4648 C   0  0  0  0  0  0  0  0  0  0  0  0
    7.2749  -12.0460   26.7591 N   0  0  0  0  0  0  0  0  0  0  0  0
    7.9392  -12.7450   25.8231 C   0  0  0  0  0  0  0  0  0  0  0  0
    8.5244  -16.5549   27.0151 O   0  0  0  0  0  0  0  0  0  0  0  0
    8.9081  -16.0448   28.2344 O   0  0  0  0  0  0  0  0  0  0  0  0
  2  1  1  0
  3  2  2  0
  4  2  1  0
  5  4  1  0
  6  5  1  0
  6  7  1  0
  7  8  1  0
  8  9  1  6
 10  8  1  0
 11 10  2  0
 12 10  1  0
 13 12  1  0
 14 13  1  0
 14 16  1  0
 15 14  2  0
 17 16  1  0
 17 24  1  0
 17 18  1  1
 19 18  1  0
 19 20  2  0
 21 20  1  0
 22 21  1  0
 23 22  2  0
 23 19  1  0
 24 26  2  0
 24 25  1  0
M  END
$$$$
