RGH.pdb
     RDKit          3D

 26 26  0  0  1  0  0  0  0  0999 V2000
    8.0116  -15.2958   17.9824 N   0  0  0  0  0  0  0  0  0  0  0  0
    7.6550  -13.9479   17.7584 C   0  0  0  0  0  0  0  0  0  0  0  0
    7.5835  -13.5190   16.5385 N   0  0  0  0  0  0  0  0  0  0  0  0
    7.3662  -13.0236   18.8149 N   0  0  0  0  0  0  0  0  0  0  0  0
    7.8670  -13.1992   20.1498 C   0  0  0  0  0  0  0  0  0  0  0  0
    6.8841  -13.7537   21.1132 C   0  0  0  0  0  0  0  0  0  0  0  0
    7.4939  -14.4310   22.2898 C   0  0  0  0  0  0  0  0  0  0  0  0
    7.8709  -15.8670   21.9843 C   0  0  2  0  0  0  0  0  0  0  0  0
    6.7877  -16.6921   21.5838 N   0  0  0  0  0  0  0  0  0  0  0  0
    8.5664  -16.4277   23.1478 C   0  0  0  0  0  0  0  0  0  0  0  0
    7.8979  -16.7704   24.1467 O   0  0  0  0  0  0  0  0  0  0  0  0
    7.3445  -12.5490   16.3010 N   0  0  0  0  0  0  0  0  0  0  0  0
    9.9749  -16.5709   23.1230 C   0  0  0  0  0  0  0  0  0  0  0  0
   10.7433  -17.1650   24.1723 C   0  0  0  0  0  0  0  0  0  0  0  0
   10.8432  -16.2745   25.3330 O   0  0  0  0  0  0  0  0  0  0  0  0
   11.7987  -15.4323   25.3536 N   0  0  0  0  0  0  0  0  0  0  0  0
    9.9383  -16.3195   26.3917 C   0  0  1  0  0  0  0  0  0  0  0  0
   10.2014  -15.5693   27.6216 C   0  0  0  0  0  0  0  0  0  0  0  0
    8.9480  -14.9318   28.1177 C   0  0  0  0  0  0  0  0  0  0  0  0
    8.5037  -13.8785   27.1883 C   0  0  0  0  0  0  0  0  0  0  0  0
    9.2140  -13.1186   26.2888 N   0  0  0  0  0  0  0  0  0  0  0  0
    8.4047  -12.2450   25.6493 C   0  0  0  0  0  0  0  0  0  0  0  0
    7.1778  -12.4486   26.1422 N   0  0  0  0  0  0  0  0  0  0  0  0
    7.2213  -13.4242   27.0654 C   0  0  0  0  0  0  0  0  0  0  0  0
   10.8103  -16.4898   28.5928 O   0  0  0  0  0  0  0  0  0  0  0  0
   11.0348  -17.8054   28.2564 O   0  0  0  0  0  0  0  0  0  0  0  0
  2  1  1  0
  3  2  2  0
  4  2  1  0
  5  4  1  0
  6  5  1  0
  6  7  1  0
  7  8  1  0
  8  9  1  1
 10  8  1  0
 11 10  2  0
 12 10  1  0
 13 12  1  0
 14 13  1  0
 14 16  1  0
 15 14  2  0
 17 16  1  0
 17 24  1  0
 17 18  1  1
 19 18  1  0
 19 20  2  0
 21 20  1  0
 22 21  1  0
 23 22  2  0
 23 19  1  0
 24 26  2  0
 24 25  1  0
M  END
$$$$
