RGH.pdb
     RDKit          3D

 26 26  0  0  1  0  0  0  0  0999 V2000
    9.4798  -14.3111   17.0205 N   0  0  0  0  0  0  0  0  0  0  0  0
    8.1722  -14.1411   16.5151 C   0  0  0  0  0  0  0  0  0  0  0  0
    7.9634  -14.3410   15.2528 N   0  0  0  0  0  0  0  0  0  0  0  0
    7.0570  -13.7569   17.3293 N   0  0  0  0  0  0  0  0  0  0  0  0
    6.7446  -14.4152   18.5672 C   0  0  0  0  0  0  0  0  0  0  0  0
    7.6743  -14.1115   19.6831 C   0  0  0  0  0  0  0  0  0  0  0  0
    7.3981  -14.8686   20.9343 C   0  0  0  0  0  0  0  0  0  0  0  0
    8.6398  -15.5563   21.4662 C   0  0  2  0  0  0  0  0  0  0  0  0
    9.0101  -16.7350   20.7676 N   0  0  0  0  0  0  0  0  0  0  0  0
    8.4539  -15.8207   22.8970 C   0  0  0  0  0  0  0  0  0  0  0  0
    8.0731  -14.8913   23.6408 O   0  0  0  0  0  0  0  0  0  0  0  0
    7.0320  -14.2809   14.8246 N   0  0  0  0  0  0  0  0  0  0  0  0
    8.7075  -17.1153   23.4114 C   0  0  0  0  0  0  0  0  0  0  0  0
    8.4866  -17.5003   24.7705 C   0  0  0  0  0  0  0  0  0  0  0  0
    9.3985  -16.7998   25.6805 O   0  0  0  0  0  0  0  0  0  0  0  0
   10.4746  -16.3248   25.1917 N   0  0  0  0  0  0  0  0  0  0  0  0
    9.1252  -16.6386   27.0373 C   0  0  1  0  0  0  0  0  0  0  0  0
   10.0858  -15.9591   27.9093 C   0  0  0  0  0  0  0  0  0  0  0  0
    9.4082  -14.8813   28.6857 C   0  0  0  0  0  0  0  0  0  0  0  0
    8.5375  -14.0827   27.8056 C   0  0  0  0  0  0  0  0  0  0  0  0
    8.3247  -14.1559   26.4489 N   0  0  0  0  0  0  0  0  0  0  0  0
    7.4516  -13.2064   26.0450 C   0  0  0  0  0  0  0  0  0  0  0  0
    7.1082  -12.5276   27.1454 N   0  0  0  0  0  0  0  0  0  0  0  0
    7.7509  -13.0410   28.2082 C   0  0  0  0  0  0  0  0  0  0  0  0
   10.7247  -16.9748   28.7586 O   0  0  0  0  0  0  0  0  0  0  0  0
   11.7663  -16.6299   29.5895 O   0  0  0  0  0  0  0  0  0  0  0  0
  2  1  1  0
  3  2  2  0
  4  2  1  0
  5  4  1  0
  6  5  1  0
  6  7  1  0
  7  8  1  0
  8  9  1  6
 10  8  1  0
 11 10  2  0
 12 10  1  0
 13 12  1  0
 14 13  1  0
 14 16  1  0
 15 14  2  0
 17 16  1  0
 17 24  1  0
 17 18  1  1
 19 18  1  0
 19 20  2  0
 21 20  1  0
 22 21  1  0
 23 22  2  0
 23 19  1  0
 24 26  2  0
 24 25  1  0
M  END
$$$$
