RGH.pdb
     RDKit          3D

 26 26  0  0  1  0  0  0  0  0999 V2000
    6.8241  -13.7603   17.9272 N   0  0  0  0  0  0  0  0  0  0  0  0
    8.0110  -13.7335   17.1625 C   0  0  0  0  0  0  0  0  0  0  0  0
    7.9177  -13.6425   15.8740 N   0  0  0  0  0  0  0  0  0  0  0  0
    9.3212  -13.8020   17.7393 N   0  0  0  0  0  0  0  0  0  0  0  0
    9.6298  -14.6601   18.8493 C   0  0  0  0  0  0  0  0  0  0  0  0
    9.5163  -16.1113   18.5617 C   0  0  0  0  0  0  0  0  0  0  0  0
    9.7467  -16.9898   19.7408 C   0  0  0  0  0  0  0  0  0  0  0  0
    8.4499  -17.5439   20.2965 C   0  0  2  0  0  0  0  0  0  0  0  0
    7.2866  -16.8253   19.9158 N   0  0  0  0  0  0  0  0  0  0  0  0
    8.5657  -17.6363   21.7559 C   0  0  0  0  0  0  0  0  0  0  0  0
    9.3836  -18.4424   22.2493 O   0  0  0  0  0  0  0  0  0  0  0  0
    8.7368  -13.5759   15.2583 N   0  0  0  0  0  0  0  0  0  0  0  0
    7.7546  -16.8177   22.5787 C   0  0  0  0  0  0  0  0  0  0  0  0
    7.7260  -16.8868   24.0065 C   0  0  0  0  0  0  0  0  0  0  0  0
    8.9798  -16.4010   24.5914 O   0  0  0  0  0  0  0  0  0  0  0  0
    9.9820  -17.1872   24.5824 N   0  0  0  0  0  0  0  0  0  0  0  0
    9.1052  -15.1273   25.1424 C   0  0  2  0  0  0  0  0  0  0  0  0
    9.4279  -14.9642   26.5616 C   0  0  0  0  0  0  0  0  0  0  0  0
    8.1908  -14.6818   27.3450 C   0  0  0  0  0  0  0  0  0  0  0  0
    7.5455  -13.4490   26.8609 C   0  0  0  0  0  0  0  0  0  0  0  0
    7.9005  -12.5896   25.8477 N   0  0  0  0  0  0  0  0  0  0  0  0
    7.0287  -11.5604   25.7596 C   0  0  0  0  0  0  0  0  0  0  0  0
    6.1177  -11.7644   26.7177 N   0  0  0  0  0  0  0  0  0  0  0  0
    6.4141  -12.8921   27.3860 C   0  0  0  0  0  0  0  0  0  0  0  0
   10.1360  -16.1730   27.0075 O   0  0  0  0  0  0  0  0  0  0  0  0
   10.6806  -16.2328   28.2700 O   0  0  0  0  0  0  0  0  0  0  0  0
  2  1  1  0
  3  2  2  0
  4  2  1  0
  5  4  1  0
  6  5  1  0
  6  7  1  0
  7  8  1  0
  8  9  1  1
 10  8  1  0
 11 10  2  0
 12 10  1  0
 13 12  1  0
 14 13  1  0
 14 16  1  0
 15 14  2  0
 17 16  1  0
 17 24  1  0
 17 18  1  6
 19 18  1  0
 19 20  2  0
 21 20  1  0
 22 21  1  0
 23 22  2  0
 23 19  1  0
 24 26  2  0
 24 25  1  0
M  END
$$$$
