RGH.pdb
     RDKit          3D

 26 26  0  0  1  0  0  0  0  0999 V2000
    8.4034  -15.2102   17.1353 N   0  0  0  0  0  0  0  0  0  0  0  0
    8.2657  -13.8102   17.0118 C   0  0  0  0  0  0  0  0  0  0  0  0
    8.9461  -13.1977   16.0958 N   0  0  0  0  0  0  0  0  0  0  0  0
    7.4083  -13.0261   17.8509 N   0  0  0  0  0  0  0  0  0  0  0  0
    7.0767  -13.4175   19.1927 C   0  0  0  0  0  0  0  0  0  0  0  0
    7.8939  -14.5317   19.7337 C   0  0  0  0  0  0  0  0  0  0  0  0
    7.5308  -14.9425   21.1173 C   0  0  0  0  0  0  0  0  0  0  0  0
    8.3848  -16.0943   21.6089 C   0  0  2  0  0  0  0  0  0  0  0  0
    7.7713  -16.9080   22.5967 N   0  0  0  0  0  0  0  0  0  0  0  0
    9.6676  -15.5605   22.0793 C   0  0  0  0  0  0  0  0  0  0  0  0
   10.3599  -14.8712   21.2998 O   0  0  0  0  0  0  0  0  0  0  0  0
    8.9440  -12.1765   15.9879 N   0  0  0  0  0  0  0  0  0  0  0  0
   10.1004  -15.8326   23.3998 C   0  0  0  0  0  0  0  0  0  0  0  0
   11.0599  -16.8355   23.7431 C   0  0  0  0  0  0  0  0  0  0  0  0
   11.4091  -16.7776   25.1661 O   0  0  0  0  0  0  0  0  0  0  0  0
   12.4890  -17.3436   25.5351 N   0  0  0  0  0  0  0  0  0  0  0  0
   10.6111  -16.1304   26.1074 C   0  0  2  0  0  0  0  0  0  0  0  0
    9.6119  -16.8812   26.8709 C   0  0  0  0  0  0  0  0  0  0  0  0
    8.3534  -17.0181   26.0828 C   0  0  0  0  0  0  0  0  0  0  0  0
    7.7842  -15.6916   25.7875 C   0  0  0  0  0  0  0  0  0  0  0  0
    8.2180  -14.4330   26.1324 N   0  0  0  0  0  0  0  0  0  0  0  0
    7.3723  -13.4865   25.6676 C   0  0  0  0  0  0  0  0  0  0  0  0
    6.3990  -14.1430   25.0263 N   0  0  0  0  0  0  0  0  0  0  0  0
    6.6320  -15.4650   25.0897 C   0  0  0  0  0  0  0  0  0  0  0  0
   10.2057  -18.1719   27.2487 O   0  0  0  0  0  0  0  0  0  0  0  0
   10.4748  -19.1202   26.2882 O   0  0  0  0  0  0  0  0  0  0  0  0
  2  1  1  0
  3  2  2  0
  4  2  1  0
  5  4  1  0
  6  5  1  0
  6  7  1  0
  7  8  1  0
  8  9  1  1
 10  8  1  0
 11 10  2  0
 12 10  1  0
 13 12  1  0
 14 13  1  0
 14 16  1  0
 15 14  2  0
 17 16  1  0
 17 24  1  0
 17 18  1  6
 19 18  1  0
 19 20  2  0
 21 20  1  0
 22 21  1  0
 23 22  2  0
 23 19  1  0
 24 26  2  0
 24 25  1  0
M  END
$$$$
