RGH.pdb
     RDKit          3D

 26 26  0  0  1  0  0  0  0  0999 V2000
    9.0955  -13.7645   16.7215 N   0  0  0  0  0  0  0  0  0  0  0  0
    9.7550  -13.3928   17.9136 C   0  0  0  0  0  0  0  0  0  0  0  0
   11.0101  -13.6836   18.0455 N   0  0  0  0  0  0  0  0  0  0  0  0
    9.1060  -12.7068   18.9917 N   0  0  0  0  0  0  0  0  0  0  0  0
    8.4812  -13.4029   20.0819 C   0  0  0  0  0  0  0  0  0  0  0  0
    7.1675  -14.0117   19.7575 C   0  0  0  0  0  0  0  0  0  0  0  0
    6.6634  -14.9648   20.7835 C   0  0  0  0  0  0  0  0  0  0  0  0
    7.7748  -15.4703   21.6817 C   0  0  2  0  0  0  0  0  0  0  0  0
    8.5454  -16.5285   21.1333 N   0  0  0  0  0  0  0  0  0  0  0  0
    7.1976  -15.8467   22.9767 C   0  0  0  0  0  0  0  0  0  0  0  0
    6.5671  -14.9891   23.6317 O   0  0  0  0  0  0  0  0  0  0  0  0
   11.5885  -13.3244   18.8142 N   0  0  0  0  0  0  0  0  0  0  0  0
    7.3625  -17.1664   23.4628 C   0  0  0  0  0  0  0  0  0  0  0  0
    6.7514  -17.6690   24.6538 C   0  0  0  0  0  0  0  0  0  0  0  0
    7.3814  -17.1118   25.8550 O   0  0  0  0  0  0  0  0  0  0  0  0
    6.8567  -17.3884   26.9823 N   0  0  0  0  0  0  0  0  0  0  0  0
    8.5179  -16.3073   25.8001 C   0  0  2  0  0  0  0  0  0  0  0  0
    9.0343  -15.6733   27.0151 C   0  0  0  0  0  0  0  0  0  0  0  0
    7.9109  -15.1441   27.8407 C   0  0  0  0  0  0  0  0  0  0  0  0
    7.3564  -13.9222   27.2324 C   0  0  0  0  0  0  0  0  0  0  0  0
    7.6756  -13.2807   26.0586 N   0  0  0  0  0  0  0  0  0  0  0  0
    6.9253  -12.1681   25.8967 C   0  0  0  0  0  0  0  0  0  0  0  0
    6.1276  -12.1008   26.9684 N   0  0  0  0  0  0  0  0  0  0  0  0
    6.3744  -13.1449   27.7778 C   0  0  0  0  0  0  0  0  0  0  0  0
    9.8635  -16.6591   27.7236 O   0  0  0  0  0  0  0  0  0  0  0  0
   10.1953  -17.8501   27.1191 O   0  0  0  0  0  0  0  0  0  0  0  0
  2  1  1  0
  3  2  2  0
  4  2  1  0
  5  4  1  0
  6  5  1  0
  6  7  1  0
  7  8  1  0
  8  9  1  6
 10  8  1  0
 11 10  2  0
 12 10  1  0
 13 12  1  0
 14 13  1  0
 14 16  1  0
 15 14  2  0
 17 16  1  0
 17 24  1  0
 17 18  1  6
 19 18  1  0
 19 20  2  0
 21 20  1  0
 22 21  1  0
 23 22  2  0
 23 19  1  0
 24 26  2  0
 24 25  1  0
M  END
$$$$
