RGH.pdb
     RDKit          3D

 26 26  0  0  1  0  0  0  0  0999 V2000
    7.5875  -13.6867   17.0496 N   0  0  0  0  0  0  0  0  0  0  0  0
    8.4250  -13.3211   18.1262 C   0  0  0  0  0  0  0  0  0  0  0  0
    8.5996  -12.0627   18.3775 N   0  0  0  0  0  0  0  0  0  0  0  0
    9.0963  -14.2736   18.9605 N   0  0  0  0  0  0  0  0  0  0  0  0
    8.7416  -14.4754   20.3378 C   0  0  0  0  0  0  0  0  0  0  0  0
    7.2827  -14.5502   20.5981 C   0  0  0  0  0  0  0  0  0  0  0  0
    6.9247  -14.7483   22.0290 C   0  0  0  0  0  0  0  0  0  0  0  0
    7.8799  -15.6966   22.7260 C   0  0  2  0  0  0  0  0  0  0  0  0
    8.3038  -16.7975   21.9368 N   0  0  0  0  0  0  0  0  0  0  0  0
    7.2651  -16.1450   23.9801 C   0  0  0  0  0  0  0  0  0  0  0  0
    6.7514  -15.2967   24.7407 O   0  0  0  0  0  0  0  0  0  0  0  0
    9.1371  -11.7239   19.1842 N   0  0  0  0  0  0  0  0  0  0  0  0
    7.2632  -17.5222   24.3090 C   0  0  0  0  0  0  0  0  0  0  0  0
    6.8103  -18.0524   25.5573 C   0  0  0  0  0  0  0  0  0  0  0  0
    7.9356  -18.4167   26.4241 O   0  0  0  0  0  0  0  0  0  0  0  0
    8.1823  -19.6559   26.5859 N   0  0  0  0  0  0  0  0  0  0  0  0
    8.7297  -17.4648   27.0604 C   0  0  2  0  0  0  0  0  0  0  0  0
   10.1635  -17.7007   27.2428 C   0  0  0  0  0  0  0  0  0  0  0  0
   10.9287  -16.4411   27.0153 C   0  0  0  0  0  0  0  0  0  0  0  0
   10.2915  -15.3170   27.7230 C   0  0  0  0  0  0  0  0  0  0  0  0
    9.5666  -14.2512   27.2437 N   0  0  0  0  0  0  0  0  0  0  0  0
    9.1839  -13.4353   28.2511 C   0  0  0  0  0  0  0  0  0  0  0  0
    9.6657  -13.9818   29.3730 N   0  0  0  0  0  0  0  0  0  0  0  0
   10.3318  -15.1097   29.0726 C   0  0  0  0  0  0  0  0  0  0  0  0
   10.3627  -18.2688   28.5840 O   0  0  0  0  0  0  0  0  0  0  0  0
   11.6234  -18.6216   29.0085 O   0  0  0  0  0  0  0  0  0  0  0  0
  2  1  1  0
  3  2  2  0
  4  2  1  0
  5  4  1  0
  6  5  1  0
  6  7  1  0
  7  8  1  0
  8  9  1  6
 10  8  1  0
 11 10  2  0
 12 10  1  0
 13 12  1  0
 14 13  1  0
 14 16  1  0
 15 14  2  0
 17 16  1  0
 17 24  1  0
 17 18  1  1
 19 18  1  0
 19 20  2  0
 21 20  1  0
 22 21  1  0
 23 22  2  0
 23 19  1  0
 24 26  2  0
 24 25  1  0
M  END
$$$$
