RGH.pdb
     RDKit          3D

 26 26  0  0  1  0  0  0  0  0999 V2000
    2.8444  -19.6410   19.0073 N   0  0  0  0  0  0  0  0  0  0  0  0
    2.1388  -19.8263   20.2165 C   0  0  0  0  0  0  0  0  0  0  0  0
    1.2570  -20.7725   20.2821 N   0  0  0  0  0  0  0  0  0  0  0  0
    2.3475  -19.0186   21.3818 N   0  0  0  0  0  0  0  0  0  0  0  0
    3.2612  -17.9102   21.3968 C   0  0  0  0  0  0  0  0  0  0  0  0
    4.4151  -18.0451   20.4736 C   0  0  0  0  0  0  0  0  0  0  0  0
    5.3335  -16.8740   20.4653 C   0  0  0  0  0  0  0  0  0  0  0  0
    6.7465  -17.2594   20.8558 C   0  0  2  0  0  0  0  0  0  0  0  0
    6.8340  -18.1783   21.9339 N   0  0  0  0  0  0  0  0  0  0  0  0
    7.5068  -16.0364   21.1347 C   0  0  0  0  0  0  0  0  0  0  0  0
    7.4458  -15.0865   20.3247 O   0  0  0  0  0  0  0  0  0  0  0  0
    0.6998  -20.9588   21.1243 N   0  0  0  0  0  0  0  0  0  0  0  0
    8.2939  -15.9503   22.3087 C   0  0  0  0  0  0  0  0  0  0  0  0
    8.9575  -14.7628   22.7491 C   0  0  0  0  0  0  0  0  0  0  0  0
    9.6563  -14.9799   24.0198 O   0  0  0  0  0  0  0  0  0  0  0  0
   10.3939  -14.0389   24.4591 N   0  0  0  0  0  0  0  0  0  0  0  0
    9.5359  -16.1616   24.7484 C   0  0  1  0  0  0  0  0  0  0  0  0
    9.2636  -16.1188   26.1867 C   0  0  0  0  0  0  0  0  0  0  0  0
    7.7969  -16.0100   26.4331 C   0  0  0  0  0  0  0  0  0  0  0  0
    7.3730  -14.5994   26.4012 C   0  0  0  0  0  0  0  0  0  0  0  0
    8.1138  -13.4410   26.3779 N   0  0  0  0  0  0  0  0  0  0  0  0
    7.3104  -12.3539   26.3757 C   0  0  0  0  0  0  0  0  0  0  0  0
    6.0568  -12.8204   26.3977 N   0  0  0  0  0  0  0  0  0  0  0  0
    6.0783  -14.1641   26.4133 C   0  0  0  0  0  0  0  0  0  0  0  0
    9.8700  -17.3100   26.7988 O   0  0  0  0  0  0  0  0  0  0  0  0
   10.5062  -18.2457   26.0153 O   0  0  0  0  0  0  0  0  0  0  0  0
  2  1  1  0
  3  2  2  0
  4  2  1  0
  5  4  1  0
  6  5  1  0
  6  7  1  0
  7  8  1  0
  8  9  1  1
 10  8  1  0
 11 10  2  0
 12 10  1  0
 13 12  1  0
 14 13  1  0
 14 16  1  0
 15 14  2  0
 17 16  1  0
 17 24  1  0
 17 18  1  1
 19 18  1  0
 19 20  2  0
 21 20  1  0
 22 21  1  0
 23 22  2  0
 23 19  1  0
 24 26  2  0
 24 25  1  0
M  END
$$$$
