RGH.pdb
     RDKit          3D

 26 26  0  0  1  0  0  0  0  0999 V2000
    7.2786  -14.8999   17.6259 N   0  0  0  0  0  0  0  0  0  0  0  0
    8.4313  -14.0886   17.5392 C   0  0  0  0  0  0  0  0  0  0  0  0
    8.4734  -13.1643   16.6332 N   0  0  0  0  0  0  0  0  0  0  0  0
    9.5638  -14.2343   18.4054 N   0  0  0  0  0  0  0  0  0  0  0  0
   10.7088  -15.0252   18.0491 C   0  0  0  0  0  0  0  0  0  0  0  0
   10.6264  -16.4516   18.4497 C   0  0  0  0  0  0  0  0  0  0  0  0
   11.8161  -17.2633   18.0746 C   0  0  0  0  0  0  0  0  0  0  0  0
   12.2461  -18.1894   19.1948 C   0  0  2  0  0  0  0  0  0  0  0  0
   11.2367  -19.0765   19.6514 N   0  0  0  0  0  0  0  0  0  0  0  0
   12.7813  -17.3794   20.2945 C   0  0  0  0  0  0  0  0  0  0  0  0
   13.5730  -16.4485   20.0322 O   0  0  0  0  0  0  0  0  0  0  0  0
    9.3046  -12.5854   16.4645 N   0  0  0  0  0  0  0  0  0  0  0  0
   12.3968  -17.6622   21.6276 C   0  0  0  0  0  0  0  0  0  0  0  0
   12.6130  -16.7815   22.7330 C   0  0  0  0  0  0  0  0  0  0  0  0
   11.3685  -16.5261   23.4654 O   0  0  0  0  0  0  0  0  0  0  0  0
   11.4388  -15.8271   24.5280 N   0  0  0  0  0  0  0  0  0  0  0  0
   10.1348  -17.0133   23.0386 C   0  0  1  0  0  0  0  0  0  0  0  0
    8.9472  -16.8589   23.8816 C   0  0  0  0  0  0  0  0  0  0  0  0
    7.7288  -16.7022   23.0362 C   0  0  0  0  0  0  0  0  0  0  0  0
    7.8564  -15.5223   22.1632 C   0  0  0  0  0  0  0  0  0  0  0  0
    8.7706  -14.4950   22.1724 N   0  0  0  0  0  0  0  0  0  0  0  0
    8.5005  -13.5995   21.1965 C   0  0  0  0  0  0  0  0  0  0  0  0
    7.4133  -14.0569   20.5654 N   0  0  0  0  0  0  0  0  0  0  0  0
    7.0157  -15.2081   21.1335 C   0  0  0  0  0  0  0  0  0  0  0  0
    8.8818  -18.0138   24.7889 O   0  0  0  0  0  0  0  0  0  0  0  0
    7.8966  -18.0893   25.7470 O   0  0  0  0  0  0  0  0  0  0  0  0
  2  1  1  0
  3  2  2  0
  4  2  1  0
  5  4  1  0
  6  5  1  0
  6  7  1  0
  7  8  1  0
  8  9  1  1
 10  8  1  0
 11 10  2  0
 12 10  1  0
 13 12  1  0
 14 13  1  0
 14 16  1  0
 15 14  2  0
 17 16  1  0
 17 24  1  0
 17 18  1  1
 19 18  1  0
 19 20  2  0
 21 20  1  0
 22 21  1  0
 23 22  2  0
 23 19  1  0
 24 26  2  0
 24 25  1  0
M  END
$$$$
