RGH.pdb
     RDKit          3D

 26 26  0  0  1  0  0  0  0  0999 V2000
   10.9129  -18.8979   13.1143 N   0  0  0  0  0  0  0  0  0  0  0  0
    9.6744  -19.5714   13.0312 C   0  0  0  0  0  0  0  0  0  0  0  0
    9.3908  -20.2179   11.9455 N   0  0  0  0  0  0  0  0  0  0  0  0
    8.7087  -19.5777   14.0902 N   0  0  0  0  0  0  0  0  0  0  0  0
    8.9675  -18.9822   15.3715 C   0  0  0  0  0  0  0  0  0  0  0  0
   10.0943  -19.5899   16.1218 C   0  0  0  0  0  0  0  0  0  0  0  0
   10.3418  -18.9798   17.4566 C   0  0  0  0  0  0  0  0  0  0  0  0
    9.6594  -19.7522   18.5679 C   0  0  2  0  0  0  0  0  0  0  0  0
    8.3987  -19.2337   18.9629 N   0  0  0  0  0  0  0  0  0  0  0  0
   10.5781  -19.8459   19.7076 C   0  0  0  0  0  0  0  0  0  0  0  0
   11.7248  -20.3087   19.5255 O   0  0  0  0  0  0  0  0  0  0  0  0
    8.5082  -20.7255   11.8125 N   0  0  0  0  0  0  0  0  0  0  0  0
   10.1556  -19.4147   20.9884 C   0  0  0  0  0  0  0  0  0  0  0  0
   10.9551  -19.4968   22.1710 C   0  0  0  0  0  0  0  0  0  0  0  0
   10.2278  -20.1488   23.2647 O   0  0  0  0  0  0  0  0  0  0  0  0
    9.0814  -20.6395   23.0047 N   0  0  0  0  0  0  0  0  0  0  0  0
   10.7464  -20.2487   24.5542 C   0  0  1  0  0  0  0  0  0  0  0  0
    9.9474  -20.8425   25.6284 C   0  0  0  0  0  0  0  0  0  0  0  0
    9.4365  -22.1809   25.2146 C   0  0  0  0  0  0  0  0  0  0  0  0
    8.1050  -22.0550   24.5966 C   0  0  0  0  0  0  0  0  0  0  0  0
    7.2446  -20.9842   24.5315 N   0  0  0  0  0  0  0  0  0  0  0  0
    6.1070  -21.3175   23.8820 C   0  0  0  0  0  0  0  0  0  0  0  0
    6.2430  -22.6018   23.5332 N   0  0  0  0  0  0  0  0  0  0  0  0
    7.4350  -23.0574   23.9547 C   0  0  0  0  0  0  0  0  0  0  0  0
   10.7780  -20.8857   26.8407 O   0  0  0  0  0  0  0  0  0  0  0  0
   11.4512  -19.7615   27.2615 O   0  0  0  0  0  0  0  0  0  0  0  0
  2  1  1  0
  3  2  2  0
  4  2  1  0
  5  4  1  0
  6  5  1  0
  6  7  1  0
  7  8  1  0
  8  9  1  1
 10  8  1  0
 11 10  2  0
 12 10  1  0
 13 12  1  0
 14 13  1  0
 14 16  1  0
 15 14  2  0
 17 16  1  0
 17 24  1  0
 17 18  1  1
 19 18  1  0
 19 20  2  0
 21 20  1  0
 22 21  1  0
 23 22  2  0
 23 19  1  0
 24 26  2  0
 24 25  1  0
M  END
$$$$
