RGH.pdb
     RDKit          3D

 26 26  0  0  1  0  0  0  0  0999 V2000
    5.8231  -19.7447   13.5223 N   0  0  0  0  0  0  0  0  0  0  0  0
    7.1272  -19.2340   13.3415 C   0  0  0  0  0  0  0  0  0  0  0  0
    7.6469  -19.2634   12.1557 N   0  0  0  0  0  0  0  0  0  0  0  0
    7.9113  -18.6815   14.4065 N   0  0  0  0  0  0  0  0  0  0  0  0
    7.4269  -18.5989   15.7563 C   0  0  0  0  0  0  0  0  0  0  0  0
    7.0533  -17.2327   16.1987 C   0  0  0  0  0  0  0  0  0  0  0  0
    8.1874  -16.4291   16.7308 C   0  0  0  0  0  0  0  0  0  0  0  0
    8.3780  -16.6351   18.2204 C   0  0  2  0  0  0  0  0  0  0  0  0
    7.3292  -17.3463   18.8596 N   0  0  0  0  0  0  0  0  0  0  0  0
    8.5981  -15.3291   18.8509 C   0  0  0  0  0  0  0  0  0  0  0  0
    9.5511  -14.6206   18.4612 O   0  0  0  0  0  0  0  0  0  0  0  0
    8.5937  -18.9219   11.9524 N   0  0  0  0  0  0  0  0  0  0  0  0
    7.7344  -14.8932   19.8849 C   0  0  0  0  0  0  0  0  0  0  0  0
    7.8186  -13.6152   20.5204 C   0  0  0  0  0  0  0  0  0  0  0  0
    8.4371  -13.7162   21.8462 O   0  0  0  0  0  0  0  0  0  0  0  0
    8.5593  -12.6462   22.5265 N   0  0  0  0  0  0  0  0  0  0  0  0
    8.8827  -14.9261   22.3745 C   0  0  1  0  0  0  0  0  0  0  0  0
    9.3924  -14.9909   23.7460 C   0  0  0  0  0  0  0  0  0  0  0  0
    8.3351  -15.4967   24.6681 C   0  0  0  0  0  0  0  0  0  0  0  0
    7.4340  -14.4018   25.0678 C   0  0  0  0  0  0  0  0  0  0  0  0
    7.4907  -13.0531   24.8054 N   0  0  0  0  0  0  0  0  0  0  0  0
    6.4605  -12.4033   25.3914 C   0  0  0  0  0  0  0  0  0  0  0  0
    5.7470  -13.3391   26.0277 N   0  0  0  0  0  0  0  0  0  0  0  0
    6.3181  -14.5416   25.8430 C   0  0  0  0  0  0  0  0  0  0  0  0
   10.6057  -15.8210   23.7402 O   0  0  0  0  0  0  0  0  0  0  0  0
   11.8041  -15.3021   24.1744 O   0  0  0  0  0  0  0  0  0  0  0  0
  2  1  1  0
  3  2  2  0
  4  2  1  0
  5  4  1  0
  6  5  1  0
  6  7  1  0
  7  8  1  0
  8  9  1  1
 10  8  1  0
 11 10  2  0
 12 10  1  0
 13 12  1  0
 14 13  1  0
 14 16  1  0
 15 14  2  0
 17 16  1  0
 17 24  1  0
 17 18  1  1
 19 18  1  0
 19 20  2  0
 21 20  1  0
 22 21  1  0
 23 22  2  0
 23 19  1  0
 24 26  2  0
 24 25  1  0
M  END
$$$$
