RTA.pdb
     RDKit          3D

 24 23  0  0  1  0  0  0  0  0999 V2000
   21.2649  -22.1407  -13.1221 N   0  0  0  0  0  0  0  0  0  0  0  0
   20.6439  -21.5605  -11.9883 C   0  0  0  0  0  0  0  0  0  0  0  0
   19.4683  -21.9065  -11.6508 N   0  0  0  0  0  0  0  0  0  0  0  0
   21.3480  -20.5895  -11.2328 N   0  0  0  0  0  0  0  0  0  0  0  0
   22.7259  -20.2554  -11.4767 C   0  0  0  0  0  0  0  0  0  0  0  0
   23.7120  -21.0801  -10.7001 C   0  0  0  0  0  0  0  0  0  0  0  0
   25.1391  -20.6254  -10.9094 C   0  0  0  0  0  0  0  0  0  0  0  0
   25.6117  -21.1224  -12.2558 C   0  0  2  0  0  0  0  0  0  0  0  0
   26.4491  -22.2777  -12.0362 N   0  0  0  0  0  0  0  0  0  0  0  0
   26.3665  -20.0838  -12.9986 C   0  0  0  0  0  0  0  0  0  0  0  0
   27.4665  -19.6926  -12.5347 O   0  0  0  0  0  0  0  0  0  0  0  0
   18.9536  -21.5332  -10.8336 C   0  0  0  0  0  0  0  0  0  0  0  0
   28.2752  -20.3644  -15.8323 C   0  0  2  0  0  0  0  0  0  0  0  0
   27.3453  -19.2219  -16.1740 O   0  0  0  0  0  0  0  0  0  0  0  0
   26.3168  -19.6989  -16.9706 C   0  0  2  0  0  0  0  0  0  0  0  0
   26.7710  -18.5658  -14.9529 N   0  0  0  0  0  0  0  0  0  0  0  0
   25.9290  -19.5024  -14.1988 C   0  0  0  0  0  0  0  0  0  0  0  0
   25.9678  -17.3492  -15.2468 O   0  0  0  0  0  0  0  0  0  0  0  0
   24.6908  -17.4245  -15.3489 C   0  0  0  0  0  0  0  0  0  0  0  0
   26.4992  -13.6578  -15.6630 C   0  0  2  0  0  0  0  0  0  0  0  0
   25.6550  -14.9096  -15.7651 N   0  0  0  0  0  0  0  0  0  0  0  0
   26.4991  -16.0612  -15.4318 C   0  0  0  0  0  0  0  0  0  0  0  0
   25.0448  -15.0372  -17.0850 O   0  0  0  0  0  0  0  0  0  0  0  0
   23.9108  -14.3335  -17.4430 O   0  0  0  0  0  0  0  0  0  0  0  0
  2  1  1  0
  2  3  2  0
  4  5  1  0
  4  2  1  0
  6  5  1  0
  7  8  1  0
  7  6  1  0
  8  9  1  1
  8 10  1  0
 10 11  2  0
 10 16  1  0
 13 12  1  6
 13 14  1  0
 15 17  1  0
 15 13  1  0
 15 16  1  6
 17 18  2  0
 20 19  1  1
 21 20  1  0
 21 17  1  0
 22 20  1  0
 23 22  1  0
 24 22  2  0
M  END
$$$$
