RTA.pdb
     RDKit          3D

 24 23  0  0  1  0  0  0  0  0999 V2000
   19.5000  -17.4314  -17.8437 N   0  0  0  0  0  0  0  0  0  0  0  0
   18.1614  -16.9671  -17.8262 C   0  0  0  0  0  0  0  0  0  0  0  0
   17.2479  -17.6140  -18.4286 N   0  0  0  0  0  0  0  0  0  0  0  0
   17.8506  -15.7728  -17.1287 N   0  0  0  0  0  0  0  0  0  0  0  0
   18.8540  -14.9220  -16.5465 C   0  0  0  0  0  0  0  0  0  0  0  0
   19.0644  -13.6236  -17.2714 C   0  0  0  0  0  0  0  0  0  0  0  0
   20.1534  -12.7809  -16.6460 C   0  0  0  0  0  0  0  0  0  0  0  0
   19.5960  -11.4057  -16.3609 C   0  0  2  0  0  0  0  0  0  0  0  0
   18.7837  -11.0112  -17.4873 N   0  0  0  0  0  0  0  0  0  0  0  0
   20.6687  -10.4064  -16.1355 C   0  0  0  0  0  0  0  0  0  0  0  0
   21.5752  -10.6736  -15.3078 O   0  0  0  0  0  0  0  0  0  0  0  0
   16.2477  -17.3471  -18.4461 C   0  0  0  0  0  0  0  0  0  0  0  0
   23.3105   -8.9448  -18.3850 C   0  0  2  0  0  0  0  0  0  0  0  0
   22.5180   -7.8083  -17.7791 O   0  0  0  0  0  0  0  0  0  0  0  0
   21.5879   -7.3623  -18.7043 C   0  0  2  0  0  0  0  0  0  0  0  0
   21.8158   -8.2093  -16.5153 N   0  0  0  0  0  0  0  0  0  0  0  0
   20.7395   -9.1682  -16.7926 C   0  0  0  0  0  0  0  0  0  0  0  0
   21.2384   -7.0653  -15.7605 O   0  0  0  0  0  0  0  0  0  0  0  0
   20.0563   -6.6433  -16.0273 C   0  0  0  0  0  0  0  0  0  0  0  0
   21.8411   -5.0783  -12.6915 C   0  0  2  0  0  0  0  0  0  0  0  0
   21.3198   -5.1722  -14.1091 N   0  0  0  0  0  0  0  0  0  0  0  0
   21.8952   -6.3683  -14.7319 C   0  0  0  0  0  0  0  0  0  0  0  0
   21.6130   -3.9603  -14.8682 O   0  0  0  0  0  0  0  0  0  0  0  0
   20.8943   -2.7926  -14.6975 O   0  0  0  0  0  0  0  0  0  0  0  0
  2  1  1  0
  2  3  2  0
  4  5  1  0
  4  2  1  0
  6  5  1  0
  7  8  1  0
  7  6  1  0
  8  9  1  6
  8 10  1  0
 10 11  2  0
 10 16  1  0
 13 12  1  6
 13 14  1  0
 15 17  1  0
 15 13  1  0
 15 16  1  1
 17 18  2  0
 20 19  1  1
 21 20  1  0
 21 17  1  0
 22 20  1  0
 23 22  1  0
 24 22  2  0
M  END
$$$$
