RTA.pdb
     RDKit          3D

 24 23  0  0  1  0  0  0  0  0999 V2000
   24.2531  -10.0985  -18.2938 N   0  0  0  0  0  0  0  0  0  0  0  0
   24.7587   -9.4357  -19.4395 C   0  0  0  0  0  0  0  0  0  0  0  0
   24.0036   -8.6860  -20.1350 N   0  0  0  0  0  0  0  0  0  0  0  0
   26.1171   -9.6164  -19.8024 N   0  0  0  0  0  0  0  0  0  0  0  0
   27.0164  -10.4688  -19.0714 C   0  0  0  0  0  0  0  0  0  0  0  0
   28.4025  -10.5464  -19.6444 C   0  0  0  0  0  0  0  0  0  0  0  0
   29.2939   -9.4259  -19.1578 C   0  0  0  0  0  0  0  0  0  0  0  0
   30.5594  -10.0268  -18.5917 C   0  0  2  0  0  0  0  0  0  0  0  0
   30.2444  -11.3460  -18.0969 N   0  0  0  0  0  0  0  0  0  0  0  0
   31.1285   -9.1992  -17.5002 C   0  0  0  0  0  0  0  0  0  0  0  0
   30.7360   -9.4025  -16.3242 O   0  0  0  0  0  0  0  0  0  0  0  0
   24.2876   -8.2071  -21.0079 C   0  0  0  0  0  0  0  0  0  0  0  0
   34.8503   -7.1482  -15.3080 C   0  0  2  0  0  0  0  0  0  0  0  0
   34.1350   -7.9369  -16.3818 O   0  0  0  0  0  0  0  0  0  0  0  0
   34.1631   -9.2817  -16.0492 C   0  0  1  0  0  0  0  0  0  0  0  0
   32.7130   -7.4953  -16.5658 N   0  0  0  0  0  0  0  0  0  0  0  0
   32.0871   -8.1928  -17.6956 C   0  0  0  0  0  0  0  0  0  0  0  0
   32.5621   -6.0313  -16.7799 O   0  0  0  0  0  0  0  0  0  0  0  0
   32.8248   -5.5130  -17.9241 C   0  0  0  0  0  0  0  0  0  0  0  0
   33.5088   -3.2274  -16.4209 C   0  0  1  0  0  0  0  0  0  0  0  0
   32.1114   -3.6703  -16.0448 N   0  0  0  0  0  0  0  0  0  0  0  0
   32.1376   -5.1159  -15.8015 C   0  0  0  0  0  0  0  0  0  0  0  0
   31.1394   -3.3014  -17.0694 O   0  0  0  0  0  0  0  0  0  0  0  0
   30.8550   -1.9840  -17.3743 O   0  0  0  0  0  0  0  0  0  0  0  0
  2  1  1  0
  2  3  2  0
  4  5  1  0
  4  2  1  0
  6  5  1  0
  7  8  1  0
  7  6  1  0
  8  9  1  1
  8 10  1  0
 10 11  2  0
 10 16  1  0
 13 12  1  6
 13 14  1  0
 15 17  1  0
 15 13  1  0
 15 16  1  6
 17 18  2  0
 20 19  1  1
 21 20  1  0
 21 17  1  0
 22 20  1  0
 23 22  1  0
 24 22  2  0
M  END
$$$$
