RTA.pdb
     RDKit          3D

 24 23  0  0  1  0  0  0  0  0999 V2000
   23.3807  -20.9308   -7.0231 N   0  0  0  0  0  0  0  0  0  0  0  0
   23.2585  -20.9076   -8.4346 C   0  0  0  0  0  0  0  0  0  0  0  0
   22.3064  -20.2726   -8.9878 N   0  0  0  0  0  0  0  0  0  0  0  0
   24.2104  -21.5997   -9.2246 N   0  0  0  0  0  0  0  0  0  0  0  0
   25.5764  -21.1694   -9.3613 C   0  0  0  0  0  0  0  0  0  0  0  0
   25.9029  -20.5508  -10.6903 C   0  0  0  0  0  0  0  0  0  0  0  0
   25.0258  -21.0759  -11.8048 C   0  0  0  0  0  0  0  0  0  0  0  0
   25.8750  -21.2621  -13.0406 C   0  0  2  0  0  0  0  0  0  0  0  0
   27.2599  -21.2737  -12.6328 N   0  0  0  0  0  0  0  0  0  0  0  0
   25.6498  -20.1871  -14.0376 C   0  0  0  0  0  0  0  0  0  0  0  0
   26.2847  -19.1101  -13.9144 O   0  0  0  0  0  0  0  0  0  0  0  0
   22.0939  -20.2903  -10.0010 C   0  0  0  0  0  0  0  0  0  0  0  0
   26.6422  -19.5458  -17.2621 C   0  0  2  0  0  0  0  0  0  0  0  0
   25.1426  -19.3762  -17.3579 O   0  0  0  0  0  0  0  0  0  0  0  0
   24.5977  -20.5013  -17.9555 C   0  0  2  0  0  0  0  0  0  0  0  0
   24.5036  -19.1610  -16.0175 N   0  0  0  0  0  0  0  0  0  0  0  0
   24.7649  -20.2941  -15.1217 C   0  0  0  0  0  0  0  0  0  0  0  0
   23.0334  -18.9459  -16.0811 O   0  0  0  0  0  0  0  0  0  0  0  0
   22.2355  -19.7330  -15.4561 C   0  0  0  0  0  0  0  0  0  0  0  0
   20.3756  -19.0184  -17.4982 C   0  0  1  0  0  0  0  0  0  0  0  0
   20.9439  -17.7767  -16.8460 N   0  0  0  0  0  0  0  0  0  0  0  0
   22.4029  -17.9119  -16.7943 C   0  0  0  0  0  0  0  0  0  0  0  0
   20.3640  -17.5531  -15.5252 O   0  0  0  0  0  0  0  0  0  0  0  0
   19.6255  -16.4241  -15.2268 O   0  0  0  0  0  0  0  0  0  0  0  0
  2  1  1  0
  2  3  2  0
  4  5  1  0
  4  2  1  0
  6  5  1  0
  7  8  1  0
  7  6  1  0
  8  9  1  1
  8 10  1  0
 10 11  2  0
 10 16  1  0
 13 12  1  6
 13 14  1  0
 15 17  1  0
 15 13  1  0
 15 16  1  6
 17 18  2  0
 20 19  1  6
 21 20  1  0
 21 17  1  0
 22 20  1  0
 23 22  1  0
 24 22  2  0
M  END
$$$$
