RTA.pdb
     RDKit          3D

 24 23  0  0  1  0  0  0  0  0999 V2000
   12.8319  -11.3307  -11.1255 N   0  0  0  0  0  0  0  0  0  0  0  0
   12.6677  -12.3554  -12.0902 C   0  0  0  0  0  0  0  0  0  0  0  0
   11.9266  -13.3584  -11.8441 N   0  0  0  0  0  0  0  0  0  0  0  0
   13.3383  -12.2503  -13.3347 N   0  0  0  0  0  0  0  0  0  0  0  0
   14.5028  -11.4285  -13.5299 C   0  0  0  0  0  0  0  0  0  0  0  0
   14.9616  -11.3298  -14.9566 C   0  0  0  0  0  0  0  0  0  0  0  0
   16.0825  -10.3307  -15.1368 C   0  0  0  0  0  0  0  0  0  0  0  0
   17.2619  -11.0362  -15.7647 C   0  0  2  0  0  0  0  0  0  0  0  0
   17.1695  -12.4389  -15.4361 N   0  0  0  0  0  0  0  0  0  0  0  0
   18.5557  -10.4887  -15.2887 C   0  0  0  0  0  0  0  0  0  0  0  0
   19.1042  -11.0222  -14.2923 O   0  0  0  0  0  0  0  0  0  0  0  0
   11.8339  -14.1893  -12.4549 C   0  0  0  0  0  0  0  0  0  0  0  0
   21.7177  -10.6698  -16.9302 C   0  0  2  0  0  0  0  0  0  0  0  0
   21.5552   -9.2095  -16.5725 O   0  0  0  0  0  0  0  0  0  0  0  0
   21.1502   -8.5107  -17.6983 C   0  0  2  0  0  0  0  0  0  0  0  0
   20.5635   -8.9974  -15.4668 N   0  0  0  0  0  0  0  0  0  0  0  0
   19.2155   -9.4023  -15.8837 C   0  0  0  0  0  0  0  0  0  0  0  0
   20.4991   -7.5938  -14.9792 O   0  0  0  0  0  0  0  0  0  0  0  0
   19.6014   -6.7930  -15.4259 C   0  0  0  0  0  0  0  0  0  0  0  0
   21.8647   -5.5135  -12.2187 C   0  0  2  0  0  0  0  0  0  0  0  0
   21.2613   -5.6346  -13.6013 N   0  0  0  0  0  0  0  0  0  0  0  0
   21.3695   -7.0329  -14.0288 C   0  0  0  0  0  0  0  0  0  0  0  0
   21.8967   -4.7193  -14.5443 O   0  0  0  0  0  0  0  0  0  0  0  0
   21.5806   -3.3751  -14.5922 O   0  0  0  0  0  0  0  0  0  0  0  0
  2  1  1  0
  2  3  2  0
  4  5  1  0
  4  2  1  0
  6  5  1  0
  7  8  1  0
  7  6  1  0
  8  9  1  1
  8 10  1  0
 10 11  2  0
 10 16  1  0
 13 12  1  6
 13 14  1  0
 15 17  1  0
 15 13  1  0
 15 16  1  1
 17 18  2  0
 20 19  1  1
 21 20  1  0
 21 17  1  0
 22 20  1  0
 23 22  1  0
 24 22  2  0
M  END
$$$$
