RTA.pdb
     RDKit          3D

 24 23  0  0  1  0  0  0  0  0999 V2000
   23.6267  -21.9851   -7.4871 N   0  0  0  0  0  0  0  0  0  0  0  0
   24.5414  -21.2503   -8.2815 C   0  0  0  0  0  0  0  0  0  0  0  0
   25.7597  -21.1493   -7.9332 N   0  0  0  0  0  0  0  0  0  0  0  0
   24.0839  -20.6287   -9.4705 N   0  0  0  0  0  0  0  0  0  0  0  0
   22.7144  -20.6861   -9.9074 C   0  0  0  0  0  0  0  0  0  0  0  0
   22.5396  -20.7414  -11.3981 C   0  0  0  0  0  0  0  0  0  0  0  0
   23.7818  -20.3069  -12.1434 C   0  0  0  0  0  0  0  0  0  0  0  0
   23.5057  -20.3820  -13.6270 C   0  0  2  0  0  0  0  0  0  0  0  0
   23.1051  -21.7336  -13.9385 N   0  0  0  0  0  0  0  0  0  0  0  0
   24.6927  -20.0071  -14.4335 C   0  0  0  0  0  0  0  0  0  0  0  0
   25.2361  -18.8942  -14.2225 O   0  0  0  0  0  0  0  0  0  0  0  0
   26.4716  -20.5842   -8.4291 C   0  0  0  0  0  0  0  0  0  0  0  0
   27.9597  -21.7673  -14.7076 C   0  0  2  0  0  0  0  0  0  0  0  0
   27.5105  -21.4715  -16.1210 O   0  0  0  0  0  0  0  0  0  0  0  0
   27.0294  -22.6370  -16.6955 C   0  0  2  0  0  0  0  0  0  0  0  0
   26.4507  -20.4109  -16.1752 N   0  0  0  0  0  0  0  0  0  0  0  0
   25.2559  -20.8218  -15.4280 C   0  0  0  0  0  0  0  0  0  0  0  0
   26.0353  -20.0476  -17.5563 O   0  0  0  0  0  0  0  0  0  0  0  0
   24.9133  -20.4580  -18.0247 C   0  0  0  0  0  0  0  0  0  0  0  0
   25.9357  -20.2208  -20.4838 C   0  0  1  0  0  0  0  0  0  0  0  0
   26.3197  -18.9316  -19.7904 N   0  0  0  0  0  0  0  0  0  0  0  0
   26.7903  -19.2584  -18.4409 C   0  0  0  0  0  0  0  0  0  0  0  0
   25.2105  -17.9828  -19.7726 O   0  0  0  0  0  0  0  0  0  0  0  0
   24.9220  -17.1671  -20.8499 O   0  0  0  0  0  0  0  0  0  0  0  0
  2  1  1  0
  2  3  2  0
  4  5  1  0
  4  2  1  0
  6  5  1  0
  7  8  1  0
  7  6  1  0
  8  9  1  6
  8 10  1  0
 10 11  2  0
 10 16  1  0
 13 12  1  6
 13 14  1  0
 15 17  1  0
 15 13  1  0
 15 16  1  6
 17 18  2  0
 20 19  1  6
 21 20  1  0
 21 17  1  0
 22 20  1  0
 23 22  1  0
 24 22  2  0
M  END
$$$$
