RTA.pdb
     RDKit          3D

 24 23  0  0  1  0  0  0  0  0999 V2000
   25.5845  -21.1150  -10.6683 N   0  0  0  0  0  0  0  0  0  0  0  0
   26.8961  -20.9980  -11.1914 C   0  0  0  0  0  0  0  0  0  0  0  0
   27.8850  -21.4950  -10.5662 N   0  0  0  0  0  0  0  0  0  0  0  0
   27.0947  -20.3211  -12.4209 N   0  0  0  0  0  0  0  0  0  0  0  0
   26.0149  -19.9649  -13.3023 C   0  0  0  0  0  0  0  0  0  0  0  0
   25.3721  -21.1295  -13.9996 C   0  0  0  0  0  0  0  0  0  0  0  0
   23.9119  -21.2865  -13.6388 C   0  0  0  0  0  0  0  0  0  0  0  0
   23.0747  -20.9066  -14.8379 C   0  0  2  0  0  0  0  0  0  0  0  0
   23.5865  -19.6632  -15.3636 N   0  0  0  0  0  0  0  0  0  0  0  0
   21.6405  -20.7572  -14.4904 C   0  0  0  0  0  0  0  0  0  0  0  0
   21.0268  -21.7515  -14.0289 O   0  0  0  0  0  0  0  0  0  0  0  0
   28.8790  -21.3218  -10.7985 C   0  0  0  0  0  0  0  0  0  0  0  0
   17.7552  -18.5838  -12.7834 C   0  0  1  0  0  0  0  0  0  0  0  0
   19.2255  -18.8341  -13.0332 O   0  0  0  0  0  0  0  0  0  0  0  0
   19.7283  -19.6276  -12.0147 C   0  0  1  0  0  0  0  0  0  0  0  0
   19.4773  -19.4963  -14.3558 N   0  0  0  0  0  0  0  0  0  0  0  0
   20.9149  -19.5657  -14.6445 C   0  0  0  0  0  0  0  0  0  0  0  0
   18.8034  -18.8270  -15.5002 O   0  0  0  0  0  0  0  0  0  0  0  0
   19.2195  -17.6886  -15.9218 C   0  0  0  0  0  0  0  0  0  0  0  0
   16.3538  -19.6071  -18.1862 C   0  0  2  0  0  0  0  0  0  0  0  0
   17.0444  -18.6089  -17.2823 N   0  0  0  0  0  0  0  0  0  0  0  0
   17.7008  -19.3476  -16.1992 C   0  0  0  0  0  0  0  0  0  0  0  0
   16.1097  -17.6072  -16.7788 O   0  0  0  0  0  0  0  0  0  0  0  0
   15.7637  -16.4884  -17.5122 O   0  0  0  0  0  0  0  0  0  0  0  0
  2  1  1  0
  2  3  2  0
  4  5  1  0
  4  2  1  0
  6  5  1  0
  7  8  1  0
  7  6  1  0
  8  9  1  1
  8 10  1  0
 10 11  2  0
 10 16  1  0
 13 12  1  1
 13 14  1  0
 15 17  1  0
 15 13  1  0
 15 16  1  1
 17 18  2  0
 20 19  1  6
 21 20  1  0
 21 17  1  0
 22 20  1  0
 23 22  1  0
 24 22  2  0
M  END
$$$$
