RTA.pdb
     RDKit          3D

 24 23  0  0  1  0  0  0  0  0999 V2000
   30.5527  -24.3391  -16.0532 N   0  0  0  0  0  0  0  0  0  0  0  0
   29.3148  -25.0006  -16.2478 C   0  0  0  0  0  0  0  0  0  0  0  0
   29.2844  -26.1925  -16.6887 N   0  0  0  0  0  0  0  0  0  0  0  0
   28.1092  -24.3194  -15.9449 N   0  0  0  0  0  0  0  0  0  0  0  0
   27.4625  -23.4240  -16.8667 C   0  0  0  0  0  0  0  0  0  0  0  0
   27.9842  -22.0161  -16.8348 C   0  0  0  0  0  0  0  0  0  0  0  0
   27.1047  -21.0906  -16.0242 C   0  0  0  0  0  0  0  0  0  0  0  0
   25.8349  -20.8287  -16.8002 C   0  0  2  0  0  0  0  0  0  0  0  0
   26.1904  -20.1403  -18.0184 N   0  0  0  0  0  0  0  0  0  0  0  0
   24.8660  -20.0169  -16.0241 C   0  0  0  0  0  0  0  0  0  0  0  0
   24.9822  -18.7661  -16.0380 O   0  0  0  0  0  0  0  0  0  0  0  0
   28.4233  -26.7516  -16.8227 C   0  0  0  0  0  0  0  0  0  0  0  0
   21.5946  -19.7331  -16.9651 C   0  0  2  0  0  0  0  0  0  0  0  0
   22.1149  -18.8906  -15.8222 O   0  0  0  0  0  0  0  0  0  0  0  0
   21.0707  -18.1460  -15.2977 C   0  0  1  0  0  0  0  0  0  0  0  0
   22.7354  -19.7190  -14.7360 N   0  0  0  0  0  0  0  0  0  0  0  0
   23.8160  -20.5589  -15.2667 C   0  0  0  0  0  0  0  0  0  0  0  0
   21.7688  -20.5970  -14.0242 O   0  0  0  0  0  0  0  0  0  0  0  0
   21.4176  -21.7213  -14.5335 C   0  0  0  0  0  0  0  0  0  0  0  0
   20.1103  -20.7799  -10.6725 C   0  0  2  0  0  0  0  0  0  0  0  0
   20.2784  -21.2388  -12.1047 N   0  0  0  0  0  0  0  0  0  0  0  0
   21.1744  -20.2992  -12.7859 C   0  0  0  0  0  0  0  0  0  0  0  0
   18.9910  -21.3620  -12.7816 O   0  0  0  0  0  0  0  0  0  0  0  0
   18.2041  -22.4920  -12.6673 O   0  0  0  0  0  0  0  0  0  0  0  0
  2  1  1  0
  2  3  2  0
  4  5  1  0
  4  2  1  0
  6  5  1  0
  7  8  1  0
  7  6  1  0
  8  9  1  6
  8 10  1  0
 10 11  2  0
 10 16  1  0
 13 12  1  6
 13 14  1  0
 15 17  1  0
 15 13  1  0
 15 16  1  6
 17 18  2  0
 20 19  1  1
 21 20  1  0
 21 17  1  0
 22 20  1  0
 23 22  1  0
 24 22  2  0
M  END
$$$$
