RTA.pdb
     RDKit          3D

 24 23  0  0  1  0  0  0  0  0999 V2000
   26.0094  -19.4248  -11.3051 N   0  0  0  0  0  0  0  0  0  0  0  0
   26.0534  -20.6798  -10.6489 C   0  0  0  0  0  0  0  0  0  0  0  0
   25.8726  -20.7561   -9.3930 N   0  0  0  0  0  0  0  0  0  0  0  0
   26.3006  -21.8512  -11.4081 N   0  0  0  0  0  0  0  0  0  0  0  0
   26.5762  -21.8260  -12.8198 C   0  0  0  0  0  0  0  0  0  0  0  0
   25.5707  -22.5573  -13.6623 C   0  0  0  0  0  0  0  0  0  0  0  0
   24.1585  -22.0659  -13.4359 C   0  0  0  0  0  0  0  0  0  0  0  0
   23.2231  -22.8628  -14.3151 C   0  0  2  0  0  0  0  0  0  0  0  0
   23.8373  -24.1434  -14.5746 N   0  0  0  0  0  0  0  0  0  0  0  0
   22.9370  -22.1699  -15.5950 C   0  0  0  0  0  0  0  0  0  0  0  0
   23.1643  -22.7768  -16.6713 O   0  0  0  0  0  0  0  0  0  0  0  0
   25.8677  -21.6369   -8.8487 C   0  0  0  0  0  0  0  0  0  0  0  0
   19.6171  -20.2707  -16.5051 C   0  0  2  0  0  0  0  0  0  0  0  0
   20.8270  -19.4395  -16.8683 O   0  0  0  0  0  0  0  0  0  0  0  0
   21.0035  -18.4550  -15.9093 C   0  0  2  0  0  0  0  0  0  0  0  0
   22.0763  -20.2632  -16.9773 N   0  0  0  0  0  0  0  0  0  0  0  0
   22.4234  -20.8669  -15.6850 C   0  0  0  0  0  0  0  0  0  0  0  0
   23.2560  -19.5024  -17.4687 O   0  0  0  0  0  0  0  0  0  0  0  0
   24.2938  -19.3652  -16.7265 C   0  0  0  0  0  0  0  0  0  0  0  0
   25.7431  -18.9734  -18.4351 C   0  0  2  0  0  0  0  0  0  0  0  0
   24.6191  -18.3905  -19.2640 N   0  0  0  0  0  0  0  0  0  0  0  0
   23.3481  -18.8899  -18.7303 C   0  0  0  0  0  0  0  0  0  0  0  0
   24.7823  -18.7017  -20.6807 O   0  0  0  0  0  0  0  0  0  0  0  0
   23.8348  -19.4124  -21.3924 O   0  0  0  0  0  0  0  0  0  0  0  0
  2  1  1  0
  2  3  2  0
  4  5  1  0
  4  2  1  0
  6  5  1  0
  7  8  1  0
  7  6  1  0
  8  9  1  6
  8 10  1  0
 10 11  2  0
 10 16  1  0
 13 12  1  6
 13 14  1  0
 15 17  1  0
 15 13  1  0
 15 16  1  6
 17 18  2  0
 20 19  1  1
 21 20  1  0
 21 17  1  0
 22 20  1  0
 23 22  1  0
 24 22  2  0
M  END
$$$$
