RTA.pdb
     RDKit          3D

 24 23  0  0  1  0  0  0  0  0999 V2000
   20.0610  -23.4681   -6.8893 N   0  0  0  0  0  0  0  0  0  0  0  0
   18.9748  -23.4750   -7.7991 C   0  0  0  0  0  0  0  0  0  0  0  0
   17.7951  -23.7158   -7.3914 N   0  0  0  0  0  0  0  0  0  0  0  0
   19.2169  -23.2096   -9.1704 N   0  0  0  0  0  0  0  0  0  0  0  0
   20.2939  -22.3726   -9.6279 C   0  0  0  0  0  0  0  0  0  0  0  0
   20.4661  -21.1003   -8.8486 C   0  0  0  0  0  0  0  0  0  0  0  0
   21.6034  -20.2510   -9.3704 C   0  0  0  0  0  0  0  0  0  0  0  0
   22.6637  -21.1627   -9.9428 C   0  0  2  0  0  0  0  0  0  0  0  0
   23.6672  -21.3733   -8.9266 N   0  0  0  0  0  0  0  0  0  0  0  0
   23.2888  -20.5928  -11.1613 C   0  0  0  0  0  0  0  0  0  0  0  0
   24.0725  -19.6190  -11.0359 O   0  0  0  0  0  0  0  0  0  0  0  0
   16.9600  -23.7775   -8.0003 C   0  0  0  0  0  0  0  0  0  0  0  0
   25.7970  -21.8813  -13.2088 C   0  0  2  0  0  0  0  0  0  0  0  0
   24.7296  -21.4803  -14.2020 O   0  0  0  0  0  0  0  0  0  0  0  0
   24.0585  -22.6155  -14.6272 C   0  0  2  0  0  0  0  0  0  0  0  0
   23.7477  -20.5037  -13.6248 N   0  0  0  0  0  0  0  0  0  0  0  0
   23.0606  -21.0743  -12.4598 C   0  0  0  0  0  0  0  0  0  0  0  0
   22.7181  -20.0436  -14.5944 O   0  0  0  0  0  0  0  0  0  0  0  0
   21.5055  -20.4515  -14.4946 C   0  0  0  0  0  0  0  0  0  0  0  0
   21.4564  -19.9046  -17.4005 C   0  0  1  0  0  0  0  0  0  0  0  0
   21.8891  -18.7200  -16.5638 N   0  0  0  0  0  0  0  0  0  0  0  0
   22.9574  -19.1608  -15.6615 C   0  0  0  0  0  0  0  0  0  0  0  0
   20.7634  -18.1358  -15.8413 O   0  0  0  0  0  0  0  0  0  0  0  0
   19.8149  -17.3497  -16.4671 O   0  0  0  0  0  0  0  0  0  0  0  0
  2  1  1  0
  2  3  2  0
  4  5  1  0
  4  2  1  0
  6  5  1  0
  7  8  1  0
  7  6  1  0
  8  9  1  1
  8 10  1  0
 10 11  2  0
 10 16  1  0
 13 12  1  6
 13 14  1  0
 15 17  1  0
 15 13  1  0
 15 16  1  6
 17 18  2  0
 20 19  1  6
 21 20  1  0
 21 17  1  0
 22 20  1  0
 23 22  1  0
 24 22  2  0
M  END
$$$$
