RTA.pdb
     RDKit          3D

 24 23  0  0  1  0  0  0  0  0999 V2000
   22.7798  -20.7062   -8.4975 N   0  0  0  0  0  0  0  0  0  0  0  0
   22.6311  -20.6857   -9.9065 C   0  0  0  0  0  0  0  0  0  0  0  0
   21.4813  -20.5465  -10.4303 N   0  0  0  0  0  0  0  0  0  0  0  0
   23.7790  -20.8215  -10.7271 N   0  0  0  0  0  0  0  0  0  0  0  0
   25.0552  -21.2542  -10.2235 C   0  0  0  0  0  0  0  0  0  0  0  0
   26.0999  -20.1766  -10.1700 C   0  0  0  0  0  0  0  0  0  0  0  0
   27.0987  -20.2816  -11.3007 C   0  0  0  0  0  0  0  0  0  0  0  0
   26.3440  -20.4785  -12.5948 C   0  0  2  0  0  0  0  0  0  0  0  0
   25.7622  -21.7997  -12.5755 N   0  0  0  0  0  0  0  0  0  0  0  0
   27.2235  -20.3299  -13.7800 C   0  0  0  0  0  0  0  0  0  0  0  0
   28.2091  -21.1000  -13.8978 O   0  0  0  0  0  0  0  0  0  0  0  0
   21.2913  -20.5471  -11.4481 C   0  0  0  0  0  0  0  0  0  0  0  0
   28.1913  -21.8563  -15.8650 C   0  0  2  0  0  0  0  0  0  0  0  0
   27.7117  -20.7079  -16.7241 O   0  0  0  0  0  0  0  0  0  0  0  0
   26.3935  -20.9341  -17.0860 C   0  0  2  0  0  0  0  0  0  0  0  0
   27.8200  -19.3850  -16.0246 N   0  0  0  0  0  0  0  0  0  0  0  0
   27.0259  -19.3757  -14.7900 C   0  0  0  0  0  0  0  0  0  0  0  0
   27.3984  -18.2285  -16.8592 O   0  0  0  0  0  0  0  0  0  0  0  0
   26.1966  -17.7838  -16.7909 C   0  0  0  0  0  0  0  0  0  0  0  0
   28.9599  -15.6564  -19.0803 C   0  0  2  0  0  0  0  0  0  0  0  0
   27.7547  -16.4003  -18.5470 N   0  0  0  0  0  0  0  0  0  0  0  0
   28.2310  -17.5415  -17.7593 C   0  0  0  0  0  0  0  0  0  0  0  0
   26.8590  -16.8097  -19.6244 O   0  0  0  0  0  0  0  0  0  0  0  0
   25.9451  -15.9425  -20.1917 O   0  0  0  0  0  0  0  0  0  0  0  0
  2  1  1  0
  2  3  2  0
  4  5  1  0
  4  2  1  0
  6  5  1  0
  7  8  1  0
  7  6  1  0
  8  9  1  1
  8 10  1  0
 10 11  2  0
 10 16  1  0
 13 12  1  6
 13 14  1  0
 15 17  1  0
 15 13  1  0
 15 16  1  6
 17 18  2  0
 20 19  1  1
 21 20  1  0
 21 17  1  0
 22 20  1  0
 23 22  1  0
 24 22  2  0
M  END
$$$$
