RTA.pdb
     RDKit          3D

 24 23  0  0  1  0  0  0  0  0999 V2000
   25.0749  -19.8310   -9.3539 N   0  0  0  0  0  0  0  0  0  0  0  0
   25.4963  -21.1756   -9.5026 C   0  0  0  0  0  0  0  0  0  0  0  0
   24.7486  -22.1304   -9.1214 N   0  0  0  0  0  0  0  0  0  0  0  0
   26.7613  -21.4459  -10.0823 N   0  0  0  0  0  0  0  0  0  0  0  0
   27.5554  -20.4389  -10.7343 C   0  0  0  0  0  0  0  0  0  0  0  0
   27.6545  -20.5944  -12.2248 C   0  0  0  0  0  0  0  0  0  0  0  0
   26.6812  -19.7053  -12.9659 C   0  0  0  0  0  0  0  0  0  0  0  0
   26.9041  -19.8774  -14.4504 C   0  0  2  0  0  0  0  0  0  0  0  0
   28.3278  -19.8895  -14.6894 N   0  0  0  0  0  0  0  0  0  0  0  0
   26.2677  -18.7934  -15.2379 C   0  0  0  0  0  0  0  0  0  0  0  0
   26.8766  -17.7013  -15.3594 O   0  0  0  0  0  0  0  0  0  0  0  0
   24.9803  -23.1354   -9.2124 C   0  0  0  0  0  0  0  0  0  0  0  0
   26.7480  -17.0278  -17.3299 C   0  0  2  0  0  0  0  0  0  0  0  0
   25.3875  -17.4772  -17.8134 O   0  0  0  0  0  0  0  0  0  0  0  0
   25.5425  -18.5793  -18.6388 C   0  0  2  0  0  0  0  0  0  0  0  0
   24.4632  -17.8229  -16.6833 N   0  0  0  0  0  0  0  0  0  0  0  0
   25.0166  -18.9077  -15.8636 C   0  0  0  0  0  0  0  0  0  0  0  0
   23.0992  -18.2199  -17.1234 O   0  0  0  0  0  0  0  0  0  0  0  0
   22.8431  -19.4426  -17.4171 C   0  0  0  0  0  0  0  0  0  0  0  0
   19.6950  -16.6731  -17.4100 C   0  0  2  0  0  0  0  0  0  0  0  0
   20.6711  -17.8091  -17.6265 N   0  0  0  0  0  0  0  0  0  0  0  0
   22.0099  -17.3415  -17.2543 C   0  0  0  0  0  0  0  0  0  0  0  0
   20.6215  -18.3025  -18.9994 O   0  0  0  0  0  0  0  0  0  0  0  0
   19.6341  -19.1645  -19.4369 O   0  0  0  0  0  0  0  0  0  0  0  0
  2  1  1  0
  2  3  2  0
  4  5  1  0
  4  2  1  0
  6  5  1  0
  7  8  1  0
  7  6  1  0
  8  9  1  1
  8 10  1  0
 10 11  2  0
 10 16  1  0
 13 12  1  6
 13 14  1  0
 15 17  1  0
 15 13  1  0
 15 16  1  6
 17 18  2  0
 20 19  1  1
 21 20  1  0
 21 17  1  0
 22 20  1  0
 23 22  1  0
 24 22  2  0
M  END
$$$$
