RTA.pdb
     RDKit          3D

 24 23  0  0  1  0  0  0  0  0999 V2000
   16.6839  -16.4774  -14.0238 N   0  0  0  0  0  0  0  0  0  0  0  0
   16.9321  -16.9090  -15.3504 C   0  0  0  0  0  0  0  0  0  0  0  0
   16.4335  -17.9977  -15.7769 N   0  0  0  0  0  0  0  0  0  0  0  0
   17.7423  -16.1130  -16.1986 N   0  0  0  0  0  0  0  0  0  0  0  0
   18.2426  -14.8196  -15.8159 C   0  0  0  0  0  0  0  0  0  0  0  0
   17.4278  -13.6637  -16.3213 C   0  0  0  0  0  0  0  0  0  0  0  0
   18.0739  -12.3279  -16.0291 C   0  0  0  0  0  0  0  0  0  0  0  0
   17.2519  -11.2409  -16.6817 C   0  0  2  0  0  0  0  0  0  0  0  0
   16.8664  -11.7005  -17.9949 N   0  0  0  0  0  0  0  0  0  0  0  0
   18.0020   -9.9660  -16.7915 C   0  0  0  0  0  0  0  0  0  0  0  0
   18.7093   -9.7703  -17.8111 O   0  0  0  0  0  0  0  0  0  0  0  0
   16.6347  -18.4179  -16.7016 C   0  0  0  0  0  0  0  0  0  0  0  0
   16.7441   -6.7312  -17.3326 C   0  0  2  0  0  0  0  0  0  0  0  0
   17.6773   -6.5470  -16.1571 O   0  0  0  0  0  0  0  0  0  0  0  0
   16.9276   -6.4494  -14.9959 C   0  0  2  0  0  0  0  0  0  0  0  0
   18.6618   -7.6715  -16.0254 N   0  0  0  0  0  0  0  0  0  0  0  0
   17.9741   -8.9522  -15.8213 C   0  0  0  0  0  0  0  0  0  0  0  0
   19.6404   -7.4862  -14.9210 O   0  0  0  0  0  0  0  0  0  0  0  0
   19.7270   -8.3537  -13.9793 C   0  0  0  0  0  0  0  0  0  0  0  0
   22.3466   -7.5211  -13.6872 C   0  0  2  0  0  0  0  0  0  0  0  0
   21.4759   -6.2834  -13.6955 N   0  0  0  0  0  0  0  0  0  0  0  0
   20.5236   -6.3992  -14.8042 C   0  0  0  0  0  0  0  0  0  0  0  0
   22.2772   -5.0663  -13.7819 O   0  0  0  0  0  0  0  0  0  0  0  0
   22.9820   -4.5705  -12.7018 O   0  0  0  0  0  0  0  0  0  0  0  0
  2  1  1  0
  2  3  2  0
  4  5  1  0
  4  2  1  0
  6  5  1  0
  7  8  1  0
  7  6  1  0
  8  9  1  6
  8 10  1  0
 10 11  2  0
 10 16  1  0
 13 12  1  6
 13 14  1  0
 15 17  1  0
 15 13  1  0
 15 16  1  6
 17 18  2  0
 20 19  1  1
 21 20  1  0
 21 17  1  0
 22 20  1  0
 23 22  1  0
 24 22  2  0
M  END
$$$$
