RTA.pdb
     RDKit          3D

 24 23  0  0  1  0  0  0  0  0999 V2000
   12.5696   -9.5252   -7.5299 N   0  0  0  0  0  0  0  0  0  0  0  0
   11.7505   -8.5941   -8.2154 C   0  0  0  0  0  0  0  0  0  0  0  0
   10.7770   -8.0332   -7.6207 N   0  0  0  0  0  0  0  0  0  0  0  0
   12.0284   -8.2932   -9.5724 N   0  0  0  0  0  0  0  0  0  0  0  0
   13.0168   -8.9979  -10.3445 C   0  0  0  0  0  0  0  0  0  0  0  0
   13.1513   -8.5236  -11.7631 C   0  0  0  0  0  0  0  0  0  0  0  0
   14.1626   -9.3276  -12.5492 C   0  0  0  0  0  0  0  0  0  0  0  0
   14.3094   -8.7104  -13.9205 C   0  0  2  0  0  0  0  0  0  0  0  0
   13.4707   -9.4491  -14.8344 N   0  0  0  0  0  0  0  0  0  0  0  0
   15.7152   -8.7324  -14.3930 C   0  0  0  0  0  0  0  0  0  0  0  0
   16.1752   -9.8031  -14.8624 O   0  0  0  0  0  0  0  0  0  0  0  0
   10.1633   -7.3128   -8.0408 C   0  0  0  0  0  0  0  0  0  0  0  0
   17.1306   -7.5443  -17.3151 C   0  0  2  0  0  0  0  0  0  0  0  0
   17.9649   -6.9015  -16.2300 O   0  0  0  0  0  0  0  0  0  0  0  0
   17.5114   -5.6098  -16.0166 C   0  0  2  0  0  0  0  0  0  0  0  0
   17.9186   -7.6687  -14.9415 N   0  0  0  0  0  0  0  0  0  0  0  0
   16.5757   -7.6244  -14.3503 C   0  0  0  0  0  0  0  0  0  0  0  0
   18.8924   -7.1917  -13.9236 O   0  0  0  0  0  0  0  0  0  0  0  0
   18.5707   -6.2548  -13.1078 C   0  0  0  0  0  0  0  0  0  0  0  0
   22.2697   -8.1245  -12.6031 C   0  0  2  0  0  0  0  0  0  0  0  0
   21.1201   -7.1529  -12.7602 N   0  0  0  0  0  0  0  0  0  0  0  0
   20.1949   -7.6940  -13.7606 C   0  0  0  0  0  0  0  0  0  0  0  0
   21.5928   -5.8174  -13.1119 O   0  0  0  0  0  0  0  0  0  0  0  0
   22.1241   -4.9535  -12.1735 O   0  0  0  0  0  0  0  0  0  0  0  0
  2  1  1  0
  2  3  2  0
  4  5  1  0
  4  2  1  0
  6  5  1  0
  7  8  1  0
  7  6  1  0
  8  9  1  6
  8 10  1  0
 10 11  2  0
 10 16  1  0
 13 12  1  6
 13 14  1  0
 15 17  1  0
 15 13  1  0
 15 16  1  1
 17 18  2  0
 20 19  1  1
 21 20  1  0
 21 17  1  0
 22 20  1  0
 23 22  1  0
 24 22  2  0
M  END
$$$$
