RTA.pdb
     RDKit          3D

 24 23  0  0  1  0  0  0  0  0999 V2000
   29.7643  -18.7843   -6.1725 N   0  0  0  0  0  0  0  0  0  0  0  0
   28.7926  -18.9067   -5.1484 C   0  0  0  0  0  0  0  0  0  0  0  0
   28.5324  -17.9225   -4.3871 N   0  0  0  0  0  0  0  0  0  0  0  0
   28.1122  -20.1390   -4.9816 N   0  0  0  0  0  0  0  0  0  0  0  0
   27.3937  -20.7873   -6.0461 C   0  0  0  0  0  0  0  0  0  0  0  0
   26.2907  -19.9619   -6.6441 C   0  0  0  0  0  0  0  0  0  0  0  0
   26.3126  -19.9744   -8.1563 C   0  0  0  0  0  0  0  0  0  0  0  0
   24.9112  -20.2355   -8.6573 C   0  0  2  0  0  0  0  0  0  0  0  0
   24.2336  -21.0549   -7.6807 N   0  0  0  0  0  0  0  0  0  0  0  0
   24.9093  -20.9139   -9.9763 C   0  0  0  0  0  0  0  0  0  0  0  0
   25.1832  -22.1391  -10.0229 O   0  0  0  0  0  0  0  0  0  0  0  0
   27.9053  -17.9612   -3.5642 C   0  0  0  0  0  0  0  0  0  0  0  0
   22.2446  -21.8038  -12.1941 C   0  0  2  0  0  0  0  0  0  0  0  0
   23.2205  -21.0276  -13.0496 O   0  0  0  0  0  0  0  0  0  0  0  0
   22.7566  -19.7308  -13.2011 C   0  0  2  0  0  0  0  0  0  0  0  0
   24.6012  -21.0011  -12.4632 N   0  0  0  0  0  0  0  0  0  0  0  0
   24.6185  -20.2712  -11.1897 C   0  0  0  0  0  0  0  0  0  0  0  0
   25.6229  -20.3983  -13.3603 O   0  0  0  0  0  0  0  0  0  0  0  0
   25.9278  -19.1564  -13.2532 C   0  0  0  0  0  0  0  0  0  0  0  0
   28.2498  -21.4717  -15.7658 C   0  0  2  0  0  0  0  0  0  0  0  0
   27.2857  -20.4279  -15.2449 N   0  0  0  0  0  0  0  0  0  0  0  0
   26.3215  -21.0926  -14.3629 C   0  0  0  0  0  0  0  0  0  0  0  0
   26.6320  -19.7116  -16.3360 O   0  0  0  0  0  0  0  0  0  0  0  0
   27.2958  -18.7733  -17.1029 O   0  0  0  0  0  0  0  0  0  0  0  0
  2  1  1  0
  2  3  2  0
  4  5  1  0
  4  2  1  0
  6  5  1  0
  7  8  1  0
  7  6  1  0
  8  9  1  1
  8 10  1  0
 10 11  2  0
 10 16  1  0
 13 12  1  6
 13 14  1  0
 15 17  1  0
 15 13  1  0
 15 16  1  6
 17 18  2  0
 20 19  1  1
 21 20  1  0
 21 17  1  0
 22 20  1  0
 23 22  1  0
 24 22  2  0
M  END
$$$$
