VYD.pdb
     RDKit          3D

 28 28  0  0  1  0  0  0  0  0999 V2000
    6.5224  -14.2885   18.2309 C   0  0  0  0  0  0  0  0  0  0  0  0
    7.2828  -14.5833   19.4723 C   0  0  2  0  0  0  0  0  0  0  0  0
    6.6586  -15.7394   20.2636 C   0  0  0  0  0  0  0  0  0  0  0  0
    7.3832  -13.4323   20.4523 C   0  0  2  0  0  0  0  0  0  0  0  0
    8.0717  -12.3127   19.7990 N   0  0  0  0  0  0  0  0  0  0  0  0
    8.1864  -13.7614   21.6563 C   0  0  0  0  0  0  0  0  0  0  0  0
    9.4660  -13.8354   21.5908 O   0  0  0  0  0  0  0  0  0  0  0  0
   10.3385  -15.0802   30.2266 O   0  0  0  0  0  0  0  0  0  0  0  0
    9.6820  -14.8186   29.0246 C   0  0  0  0  0  0  0  0  0  0  0  0
    9.5632  -13.5442   28.5290 C   0  0  0  0  0  0  0  0  0  0  0  0
    8.9099  -13.3062   27.3378 C   0  0  0  0  0  0  0  0  0  0  0  0
    8.3465  -14.3159   26.5859 C   0  0  0  0  0  0  0  0  0  0  0  0
    7.6541  -14.0616   25.3224 C   0  0  0  0  0  0  0  0  0  0  0  0
    8.4838  -14.3203   24.0957 C   0  0  2  0  0  0  0  0  0  0  0  0
    7.6480  -14.0152   22.9464 N   0  0  0  0  0  0  0  0  0  0  0  0
    9.0589  -15.6713   24.0177 C   0  0  0  0  0  0  0  0  0  0  0  0
    8.3487  -16.6123   23.5788 O   0  0  0  0  0  0  0  0  0  0  0  0
    8.4779  -15.6007   27.1058 C   0  0  0  0  0  0  0  0  0  0  0  0
    9.1288  -15.8509   28.2956 C   0  0  0  0  0  0  0  0  0  0  0  0
   10.3840  -16.0000   24.4081 N   0  0  0  0  0  0  0  0  0  0  0  0
   10.9901  -17.2833   24.1251 C   0  0  1  0  0  0  0  0  0  0  0  0
   11.7677  -17.2626   22.8161 C   0  0  0  0  0  0  0  0  0  0  0  0
   11.5603  -18.4695   21.9953 C   0  0  0  0  0  0  0  0  0  0  0  0
   10.8397  -19.4031   22.4116 O   0  0  0  0  0  0  0  0  0  0  0  0
   11.8632  -17.7528   25.2157 C   0  0  0  0  0  0  0  0  0  0  0  0
   12.1240  -16.9935   26.1691 O   0  0  0  0  0  0  0  0  0  0  0  0
   12.1458  -18.6075   20.7581 O   0  0  0  0  0  0  0  0  0  0  0  0
   12.4028  -19.0196   25.2084 O   0  0  0  0  0  0  0  0  0  0  0  0
  2  1  1  6
  2  3  1  0
  4  2  1  0
  4  5  1  6
  6  7  2  0
  6  4  1  0
  9  8  1  0
 10  9  2  0
 11 10  1  0
 12 11  2  0
 12 18  1  0
 13 12  1  0
 14 13  1  1
 14 15  1  0
 15  6  1  0
 16 20  1  0
 16 14  1  0
 17 16  2  0
 18 19  2  0
 19  9  1  0
 21 20  1  0
 21 25  1  0
 21 22  1  6
 23 22  1  0
 24 23  2  0
 25 28  1  0
 26 25  2  0
 27 23  1  0
M  END
$$$$
