VYD.pdb
     RDKit          3D

 28 28  0  0  1  0  0  0  0  0999 V2000
    7.5255  -18.4708   17.7518 C   0  0  0  0  0  0  0  0  0  0  0  0
    7.9052  -17.9028   19.0707 C   0  0  2  0  0  0  0  0  0  0  0  0
    6.8229  -18.1452   20.1301 C   0  0  0  0  0  0  0  0  0  0  0  0
    8.1497  -16.4077   19.0795 C   0  0  2  0  0  0  0  0  0  0  0  0
    9.2653  -16.1049   18.1750 N   0  0  0  0  0  0  0  0  0  0  0  0
    8.5504  -15.8912   20.4121 C   0  0  0  0  0  0  0  0  0  0  0  0
    9.7227  -16.1237   20.8800 O   0  0  0  0  0  0  0  0  0  0  0  0
    7.5695  -12.3934   28.5939 O   0  0  0  0  0  0  0  0  0  0  0  0
    7.4661  -12.7137   27.2407 C   0  0  0  0  0  0  0  0  0  0  0  0
    8.4317  -12.3486   26.3362 C   0  0  0  0  0  0  0  0  0  0  0  0
    8.3108  -12.6750   25.0016 C   0  0  0  0  0  0  0  0  0  0  0  0
    7.2319  -13.3753   24.5037 C   0  0  0  0  0  0  0  0  0  0  0  0
    7.1055  -13.7210   23.0878 C   0  0  0  0  0  0  0  0  0  0  0  0
    8.1418  -14.6894   22.5892 C   0  0  2  0  0  0  0  0  0  0  0  0
    7.7179  -15.1207   21.2675 N   0  0  0  0  0  0  0  0  0  0  0  0
    8.4005  -15.8263   23.4850 C   0  0  0  0  0  0  0  0  0  0  0  0
    7.4919  -16.6765   23.6698 O   0  0  0  0  0  0  0  0  0  0  0  0
    6.2640  -13.7361   25.4372 C   0  0  0  0  0  0  0  0  0  0  0  0
    6.3740  -13.4154   26.7739 C   0  0  0  0  0  0  0  0  0  0  0  0
    9.6252  -16.0412   24.1709 N   0  0  0  0  0  0  0  0  0  0  0  0
    9.8620  -17.1954   25.0111 C   0  0  1  0  0  0  0  0  0  0  0  0
   11.1908  -17.8646   24.6875 C   0  0  0  0  0  0  0  0  0  0  0  0
   11.0467  -19.0819   23.8684 C   0  0  0  0  0  0  0  0  0  0  0  0
    9.9124  -19.5000   23.5485 O   0  0  0  0  0  0  0  0  0  0  0  0
    9.8030  -16.8742   26.4483 C   0  0  0  0  0  0  0  0  0  0  0  0
   10.2771  -15.7980   26.8611 O   0  0  0  0  0  0  0  0  0  0  0  0
   12.1429  -19.7904   23.4335 O   0  0  0  0  0  0  0  0  0  0  0  0
    9.2327  -17.7401   27.3545 O   0  0  0  0  0  0  0  0  0  0  0  0
  2  1  1  6
  2  3  1  0
  4  2  1  0
  4  5  1  6
  6  7  2  0
  6  4  1  0
  9  8  1  0
 10  9  2  0
 11 10  1  0
 12 11  2  0
 12 18  1  0
 13 12  1  0
 14 13  1  1
 14 15  1  0
 15  6  1  0
 16 20  1  0
 16 14  1  0
 17 16  2  0
 18 19  2  0
 19  9  1  0
 21 20  1  0
 21 25  1  0
 21 22  1  6
 23 22  1  0
 24 23  2  0
 25 28  1  0
 26 25  2  0
 27 23  1  0
M  END
$$$$
