VYD.pdb
     RDKit          3D

 28 28  0  0  1  0  0  0  0  0999 V2000
    7.5024  -21.3893   16.5954 C   0  0  0  0  0  0  0  0  0  0  0  0
    7.9036  -21.1364   18.0029 C   0  0  2  0  0  0  0  0  0  0  0  0
    7.9755  -22.4334   18.8184 C   0  0  0  0  0  0  0  0  0  0  0  0
    6.9781  -20.2228   18.7801 C   0  0  2  0  0  0  0  0  0  0  0  0
    6.9052  -18.9273   18.0938 N   0  0  0  0  0  0  0  0  0  0  0  0
    7.4636  -19.9331   20.1525 C   0  0  0  0  0  0  0  0  0  0  0  0
    8.3246  -19.0045   20.3610 O   0  0  0  0  0  0  0  0  0  0  0  0
    7.7005  -19.2922   29.0140 O   0  0  0  0  0  0  0  0  0  0  0  0
    7.3773  -19.5036   27.6741 C   0  0  0  0  0  0  0  0  0  0  0  0
    7.2654  -20.7665   27.1486 C   0  0  0  0  0  0  0  0  0  0  0  0
    6.9448  -20.9544   25.8204 C   0  0  0  0  0  0  0  0  0  0  0  0
    6.7212  -19.9039   24.9551 C   0  0  0  0  0  0  0  0  0  0  0  0
    6.3809  -20.1052   23.5465 C   0  0  0  0  0  0  0  0  0  0  0  0
    7.5658  -20.3051   22.6430 C   0  0  2  0  0  0  0  0  0  0  0  0
    7.0443  -20.6200   21.3233 N   0  0  0  0  0  0  0  0  0  0  0  0
    8.5309  -21.3111   23.1104 C   0  0  0  0  0  0  0  0  0  0  0  0
    8.1636  -22.1583   23.9647 O   0  0  0  0  0  0  0  0  0  0  0  0
    6.8396  -18.6315   25.5076 C   0  0  0  0  0  0  0  0  0  0  0  0
    7.1596  -18.4312   26.8340 C   0  0  0  0  0  0  0  0  0  0  0  0
    9.8745  -21.4002   22.6595 N   0  0  0  0  0  0  0  0  0  0  0  0
   11.0103  -21.2686   23.5465 C   0  0  1  0  0  0  0  0  0  0  0  0
   11.8786  -20.0738   23.1763 C   0  0  0  0  0  0  0  0  0  0  0  0
   13.2473  -20.4487   22.7769 C   0  0  0  0  0  0  0  0  0  0  0  0
   13.4476  -21.4684   22.0811 O   0  0  0  0  0  0  0  0  0  0  0  0
   10.6174  -21.1786   24.9641 C   0  0  0  0  0  0  0  0  0  0  0  0
   10.7453  -22.1725   25.7053 O   0  0  0  0  0  0  0  0  0  0  0  0
   14.3374  -19.6979   23.1519 O   0  0  0  0  0  0  0  0  0  0  0  0
   10.1082  -20.0148   25.4954 O   0  0  0  0  0  0  0  0  0  0  0  0
  2  1  1  6
  2  3  1  0
  4  2  1  0
  4  5  1  6
  6  7  2  0
  6  4  1  0
  9  8  1  0
 10  9  2  0
 11 10  1  0
 12 11  2  0
 12 18  1  0
 13 12  1  0
 14 13  1  1
 14 15  1  0
 15  6  1  0
 16 20  1  0
 16 14  1  0
 17 16  2  0
 18 19  2  0
 19  9  1  0
 21 20  1  0
 21 25  1  0
 21 22  1  6
 23 22  1  0
 24 23  2  0
 25 28  1  0
 26 25  2  0
 27 23  1  0
M  END
$$$$
