VYD.pdb
     RDKit          3D

 28 28  0  0  1  0  0  0  0  0999 V2000
    6.8178  -14.8181   18.0533 C   0  0  0  0  0  0  0  0  0  0  0  0
    7.5910  -14.8247   19.3214 C   0  0  2  0  0  0  0  0  0  0  0  0
    7.2800  -16.0612   20.1738 C   0  0  0  0  0  0  0  0  0  0  0  0
    7.3450  -13.6372   20.2296 C   0  0  2  0  0  0  0  0  0  0  0  0
    7.7698  -12.4150   19.5366 N   0  0  0  0  0  0  0  0  0  0  0  0
    8.1340  -13.6917   21.4856 C   0  0  0  0  0  0  0  0  0  0  0  0
    9.3872  -13.4148   21.4853 O   0  0  0  0  0  0  0  0  0  0  0  0
   10.2025  -15.0425   30.0822 O   0  0  0  0  0  0  0  0  0  0  0  0
    9.5570  -14.8112   28.8681 C   0  0  0  0  0  0  0  0  0  0  0  0
    8.8881  -15.8088   28.2040 C   0  0  0  0  0  0  0  0  0  0  0  0
    8.2559  -15.5596   27.0039 C   0  0  0  0  0  0  0  0  0  0  0  0
    8.2572  -14.3154   26.4087 C   0  0  0  0  0  0  0  0  0  0  0  0
    7.5857  -14.0528   25.1357 C   0  0  0  0  0  0  0  0  0  0  0  0
    8.4541  -14.2445   23.9235 C   0  0  2  0  0  0  0  0  0  0  0  0
    7.6086  -14.0382   22.7594 N   0  0  0  0  0  0  0  0  0  0  0  0
    9.1602  -15.5332   23.8722 C   0  0  0  0  0  0  0  0  0  0  0  0
    8.5214  -16.5891   24.1164 O   0  0  0  0  0  0  0  0  0  0  0  0
    8.9410  -13.3175   27.0981 C   0  0  0  0  0  0  0  0  0  0  0  0
    9.5768  -13.5548   28.2986 C   0  0  0  0  0  0  0  0  0  0  0  0
   10.5379  -15.6781   23.5604 N   0  0  0  0  0  0  0  0  0  0  0  0
   11.2422  -16.9364   23.6828 C   0  0  1  0  0  0  0  0  0  0  0  0
   12.7078  -16.8020   23.2924 C   0  0  0  0  0  0  0  0  0  0  0  0
   13.3737  -18.0985   23.0710 C   0  0  0  0  0  0  0  0  0  0  0  0
   12.8965  -19.1474   23.5569 O   0  0  0  0  0  0  0  0  0  0  0  0
   11.1377  -17.5176   25.0332 C   0  0  0  0  0  0  0  0  0  0  0  0
   10.6158  -18.6392   25.1847 O   0  0  0  0  0  0  0  0  0  0  0  0
   14.5292  -18.1967   22.3308 O   0  0  0  0  0  0  0  0  0  0  0  0
   11.6058  -16.8474   26.1412 O   0  0  0  0  0  0  0  0  0  0  0  0
  2  1  1  6
  2  3  1  0
  4  2  1  0
  4  5  1  6
  6  7  2  0
  6  4  1  0
  9  8  1  0
 10  9  2  0
 11 10  1  0
 12 11  2  0
 12 18  1  0
 13 12  1  0
 14 13  1  1
 14 15  1  0
 15  6  1  0
 16 20  1  0
 16 14  1  0
 17 16  2  0
 18 19  2  0
 19  9  1  0
 21 20  1  0
 21 25  1  0
 21 22  1  1
 23 22  1  0
 24 23  2  0
 25 28  1  0
 26 25  2  0
 27 23  1  0
M  END
$$$$
