VYD.pdb
     RDKit          3D

 28 28  0  0  1  0  0  0  0  0999 V2000
    6.5082  -13.7293   18.7908 C   0  0  0  0  0  0  0  0  0  0  0  0
    7.3594  -13.5725   19.9979 C   0  0  2  0  0  0  0  0  0  0  0  0
    8.3309  -12.3934   19.8627 C   0  0  0  0  0  0  0  0  0  0  0  0
    8.2241  -14.7703   20.3339 C   0  0  2  0  0  0  0  0  0  0  0  0
    7.3599  -15.9433   20.5116 N   0  0  0  0  0  0  0  0  0  0  0  0
    8.9680  -14.6120   21.6085 C   0  0  0  0  0  0  0  0  0  0  0  0
   10.0403  -13.9085   21.6589 O   0  0  0  0  0  0  0  0  0  0  0  0
   10.9198  -15.0234   30.3234 O   0  0  0  0  0  0  0  0  0  0  0  0
   10.3081  -15.0455   29.0705 C   0  0  0  0  0  0  0  0  0  0  0  0
    9.9946  -13.8902   28.3993 C   0  0  0  0  0  0  0  0  0  0  0  0
    9.3895  -13.9333   27.1607 C   0  0  0  0  0  0  0  0  0  0  0  0
    9.0685  -15.1185   26.5325 C   0  0  0  0  0  0  0  0  0  0  0  0
    8.4270  -15.1624   25.2183 C   0  0  0  0  0  0  0  0  0  0  0  0
    9.3757  -15.0374   24.0588 C   0  0  2  0  0  0  0  0  0  0  0  0
    8.5877  -15.1940   22.8475 N   0  0  0  0  0  0  0  0  0  0  0  0
   10.5181  -15.9623   24.0983 C   0  0  0  0  0  0  0  0  0  0  0  0
   11.2630  -15.9688   25.1121 O   0  0  0  0  0  0  0  0  0  0  0  0
    9.3947  -16.2786   27.2298 C   0  0  0  0  0  0  0  0  0  0  0  0
    9.9997  -16.2479   28.4686 C   0  0  0  0  0  0  0  0  0  0  0  0
   10.8499  -16.8681   23.0563 N   0  0  0  0  0  0  0  0  0  0  0  0
   11.9702  -17.7806   23.1368 C   0  0  1  0  0  0  0  0  0  0  0  0
   12.3954  -18.2734   21.7603 C   0  0  0  0  0  0  0  0  0  0  0  0
   11.2923  -18.8765   20.9902 C   0  0  0  0  0  0  0  0  0  0  0  0
   10.2959  -19.3527   21.5770 O   0  0  0  0  0  0  0  0  0  0  0  0
   13.1289  -17.1981   23.8371 C   0  0  0  0  0  0  0  0  0  0  0  0
   13.5705  -17.7481   24.8647 O   0  0  0  0  0  0  0  0  0  0  0  0
   11.3219  -18.9348   19.6161 O   0  0  0  0  0  0  0  0  0  0  0  0
   13.7413  -16.0521   23.3814 O   0  0  0  0  0  0  0  0  0  0  0  0
  2  1  1  6
  2  3  1  0
  4  2  1  0
  4  5  1  1
  6  7  2  0
  6  4  1  0
  9  8  1  0
 10  9  2  0
 11 10  1  0
 12 11  2  0
 12 18  1  0
 13 12  1  0
 14 13  1  1
 14 15  1  0
 15  6  1  0
 16 20  1  0
 16 14  1  0
 17 16  2  0
 18 19  2  0
 19  9  1  0
 21 20  1  0
 21 25  1  0
 21 22  1  6
 23 22  1  0
 24 23  2  0
 25 28  1  0
 26 25  2  0
 27 23  1  0
M  END
$$$$
