VYD.pdb
     RDKit          3D

 28 28  0  0  1  0  0  0  0  0999 V2000
    6.9679  -16.5251   19.2866 C   0  0  0  0  0  0  0  0  0  0  0  0
    6.8897  -15.6585   20.4904 C   0  0  2  0  0  0  0  0  0  0  0  0
    5.6099  -14.8133   20.5038 C   0  0  0  0  0  0  0  0  0  0  0  0
    8.0270  -14.6696   20.6447 C   0  0  2  0  0  0  0  0  0  0  0  0
    8.9669  -14.8514   19.5319 N   0  0  0  0  0  0  0  0  0  0  0  0
    8.8150  -14.8776   21.8852 C   0  0  0  0  0  0  0  0  0  0  0  0
    9.9496  -15.4765   21.8486 O   0  0  0  0  0  0  0  0  0  0  0  0
   10.7883  -15.1044   30.6138 O   0  0  0  0  0  0  0  0  0  0  0  0
   10.2468  -14.8248   29.3596 C   0  0  0  0  0  0  0  0  0  0  0  0
   10.7934  -13.8760   28.5320 C   0  0  0  0  0  0  0  0  0  0  0  0
   10.2427  -13.6142   27.2949 C   0  0  0  0  0  0  0  0  0  0  0  0
    9.1297  -14.2778   26.8225 C   0  0  0  0  0  0  0  0  0  0  0  0
    8.5471  -13.9990   25.5098 C   0  0  0  0  0  0  0  0  0  0  0  0
    9.2047  -14.7268   24.3705 C   0  0  2  0  0  0  0  0  0  0  0  0
    8.4152  -14.4540   23.1810 N   0  0  0  0  0  0  0  0  0  0  0  0
    9.3926  -16.1685   24.5903 C   0  0  0  0  0  0  0  0  0  0  0  0
    8.3795  -16.9042   24.7127 O   0  0  0  0  0  0  0  0  0  0  0  0
    8.5907  -15.2359   27.6769 C   0  0  0  0  0  0  0  0  0  0  0  0
    9.1325  -15.5063   28.9159 C   0  0  0  0  0  0  0  0  0  0  0  0
   10.6586  -16.8059   24.6759 N   0  0  0  0  0  0  0  0  0  0  0  0
   10.8078  -18.2287   24.8945 C   0  0  1  0  0  0  0  0  0  0  0  0
   12.1390  -18.7435   24.3642 C   0  0  0  0  0  0  0  0  0  0  0  0
   12.3690  -20.1709   24.6526 C   0  0  0  0  0  0  0  0  0  0  0  0
   12.3583  -20.5893   25.8310 O   0  0  0  0  0  0  0  0  0  0  0  0
   10.6568  -18.6052   26.3114 C   0  0  0  0  0  0  0  0  0  0  0  0
   10.4083  -19.7886   26.6134 O   0  0  0  0  0  0  0  0  0  0  0  0
   12.6006  -21.0799   23.6462 O   0  0  0  0  0  0  0  0  0  0  0  0
   10.7844  -17.6751   27.3188 O   0  0  0  0  0  0  0  0  0  0  0  0
  2  1  1  6
  2  3  1  0
  4  2  1  0
  4  5  1  6
  6  7  2  0
  6  4  1  0
  9  8  1  0
 10  9  2  0
 11 10  1  0
 12 11  2  0
 12 18  1  0
 13 12  1  0
 14 13  1  1
 14 15  1  0
 15  6  1  0
 16 20  1  0
 16 14  1  0
 17 16  2  0
 18 19  2  0
 19  9  1  0
 21 20  1  0
 21 25  1  0
 21 22  1  1
 23 22  1  0
 24 23  2  0
 25 28  1  0
 26 25  2  0
 27 23  1  0
M  END
$$$$
