VYD.pdb
     RDKit          3D

 28 28  0  0  1  0  0  0  0  0999 V2000
    7.8585  -14.1398   17.4657 C   0  0  0  0  0  0  0  0  0  0  0  0
    7.8230  -14.0258   18.9462 C   0  0  2  0  0  0  0  0  0  0  0  0
    8.1050  -12.5933   19.4158 C   0  0  0  0  0  0  0  0  0  0  0  0
    8.8229  -14.8948   19.6812 C   0  0  2  0  0  0  0  0  0  0  0  0
    8.6678  -16.2823   19.2280 N   0  0  0  0  0  0  0  0  0  0  0  0
    8.6068  -14.9164   21.1495 C   0  0  0  0  0  0  0  0  0  0  0  0
    7.6715  -15.6288   21.6642 O   0  0  0  0  0  0  0  0  0  0  0  0
    5.9837  -12.3756   28.9003 O   0  0  0  0  0  0  0  0  0  0  0  0
    6.3914  -12.6886   27.6040 C   0  0  0  0  0  0  0  0  0  0  0  0
    7.0944  -11.7971   26.8328 C   0  0  0  0  0  0  0  0  0  0  0  0
    7.4886  -12.1259   25.5527 C   0  0  0  0  0  0  0  0  0  0  0  0
    7.2056  -13.3482   24.9800 C   0  0  0  0  0  0  0  0  0  0  0  0
    7.6248  -13.6954   23.6220 C   0  0  0  0  0  0  0  0  0  0  0  0
    9.0520  -14.1545   23.5101 C   0  0  2  0  0  0  0  0  0  0  0  0
    9.3773  -14.1864   22.0938 N   0  0  0  0  0  0  0  0  0  0  0  0
    9.3379  -15.4362   24.1718 C   0  0  0  0  0  0  0  0  0  0  0  0
    9.0565  -15.5697   25.3906 O   0  0  0  0  0  0  0  0  0  0  0  0
    6.4919  -14.2379   25.7785 C   0  0  0  0  0  0  0  0  0  0  0  0
    6.0925  -13.9204   27.0597 C   0  0  0  0  0  0  0  0  0  0  0  0
    9.9193  -16.5581   23.5241 N   0  0  0  0  0  0  0  0  0  0  0  0
   10.3474  -17.7418   24.2382 C   0  0  1  0  0  0  0  0  0  0  0  0
    9.9199  -19.0164   23.5234 C   0  0  0  0  0  0  0  0  0  0  0  0
    8.4735  -19.2837   23.6225 C   0  0  0  0  0  0  0  0  0  0  0  0
    7.8713  -19.1194   24.7061 O   0  0  0  0  0  0  0  0  0  0  0  0
   11.8018  -17.7677   24.4757 C   0  0  0  0  0  0  0  0  0  0  0  0
   12.3091  -18.7191   25.1010 O   0  0  0  0  0  0  0  0  0  0  0  0
    7.7462  -19.7178   22.5384 O   0  0  0  0  0  0  0  0  0  0  0  0
   12.6215  -16.7592   24.0207 O   0  0  0  0  0  0  0  0  0  0  0  0
  2  1  1  6
  2  3  1  0
  4  2  1  0
  4  5  1  6
  6  7  2  0
  6  4  1  0
  9  8  1  0
 10  9  2  0
 11 10  1  0
 12 11  2  0
 12 18  1  0
 13 12  1  0
 14 13  1  6
 14 15  1  0
 15  6  1  0
 16 20  1  0
 16 14  1  0
 17 16  2  0
 18 19  2  0
 19  9  1  0
 21 20  1  0
 21 25  1  0
 21 22  1  6
 23 22  1  0
 24 23  2  0
 25 28  1  0
 26 25  2  0
 27 23  1  0
M  END
$$$$
