VYD.pdb
     RDKit          3D

 28 28  0  0  1  0  0  0  0  0999 V2000
    7.3485  -12.8970   18.8845 C   0  0  0  0  0  0  0  0  0  0  0  0
    8.3768  -13.7611   18.2505 C   0  0  2  0  0  0  0  0  0  0  0  0
    7.9133  -14.2965   16.8900 C   0  0  0  0  0  0  0  0  0  0  0  0
    8.7701  -14.9850   19.0522 C   0  0  2  0  0  0  0  0  0  0  0  0
    7.6827  -15.9683   18.9795 N   0  0  0  0  0  0  0  0  0  0  0  0
    8.9671  -14.6972   20.4949 C   0  0  0  0  0  0  0  0  0  0  0  0
   10.0463  -14.1413   20.9112 O   0  0  0  0  0  0  0  0  0  0  0  0
    7.2709  -12.5081   28.9085 O   0  0  0  0  0  0  0  0  0  0  0  0
    7.1945  -12.9226   27.5793 C   0  0  0  0  0  0  0  0  0  0  0  0
    6.7819  -14.1867   27.2395 C   0  0  0  0  0  0  0  0  0  0  0  0
    6.7133  -14.5774   25.9185 C   0  0  0  0  0  0  0  0  0  0  0  0
    7.0489  -13.7371   24.8776 C   0  0  0  0  0  0  0  0  0  0  0  0
    6.9751  -14.1532   23.4770 C   0  0  0  0  0  0  0  0  0  0  0  0
    8.2668  -14.6792   22.9157 C   0  0  2  0  0  0  0  0  0  0  0  0
    8.0252  -14.9917   21.5170 N   0  0  0  0  0  0  0  0  0  0  0  0
    8.8335  -15.8218   23.6474 C   0  0  0  0  0  0  0  0  0  0  0  0
    8.2438  -16.9319   23.5965 O   0  0  0  0  0  0  0  0  0  0  0  0
    7.4647  -12.4597   25.2435 C   0  0  0  0  0  0  0  0  0  0  0  0
    7.5374  -12.0577   26.5607 C   0  0  0  0  0  0  0  0  0  0  0  0
   10.0217  -15.7650   24.4227 N   0  0  0  0  0  0  0  0  0  0  0  0
   10.5426  -16.9054   25.1455 C   0  0  1  0  0  0  0  0  0  0  0  0
   12.0566  -17.0082   25.0200 C   0  0  0  0  0  0  0  0  0  0  0  0
   12.5227  -17.0791   23.6231 C   0  0  0  0  0  0  0  0  0  0  0  0
   11.9411  -17.8167   22.7975 O   0  0  0  0  0  0  0  0  0  0  0  0
   10.1600  -16.8998   26.5688 C   0  0  0  0  0  0  0  0  0  0  0  0
   10.4492  -17.8740   27.2904 O   0  0  0  0  0  0  0  0  0  0  0  0
   13.6007  -16.3445   23.1862 O   0  0  0  0  0  0  0  0  0  0  0  0
    9.4853  -15.8369   27.1265 O   0  0  0  0  0  0  0  0  0  0  0  0
  2  1  1  1
  2  3  1  0
  4  2  1  0
  4  5  1  1
  6  7  2  0
  6  4  1  0
  9  8  1  0
 10  9  2  0
 11 10  1  0
 12 11  2  0
 12 18  1  0
 13 12  1  0
 14 13  1  1
 14 15  1  0
 15  6  1  0
 16 20  1  0
 16 14  1  0
 17 16  2  0
 18 19  2  0
 19  9  1  0
 21 20  1  0
 21 25  1  0
 21 22  1  1
 23 22  1  0
 24 23  2  0
 25 28  1  0
 26 25  2  0
 27 23  1  0
M  END
$$$$
