VYD.pdb
     RDKit          3D

 28 28  0  0  1  0  0  0  0  0999 V2000
    6.8343  -15.2306   18.4407 C   0  0  0  0  0  0  0  0  0  0  0  0
    7.6325  -15.2408   19.6933 C   0  0  2  0  0  0  0  0  0  0  0  0
    7.2612  -16.4224   20.5978 C   0  0  0  0  0  0  0  0  0  0  0  0
    7.4827  -14.0074   20.5602 C   0  0  2  0  0  0  0  0  0  0  0  0
    7.8986  -12.8314   19.7865 N   0  0  0  0  0  0  0  0  0  0  0  0
    8.3498  -14.0336   21.7645 C   0  0  0  0  0  0  0  0  0  0  0  0
    9.5803  -13.6755   21.6945 O   0  0  0  0  0  0  0  0  0  0  0  0
   10.8195  -15.0454   30.3091 O   0  0  0  0  0  0  0  0  0  0  0  0
   10.1165  -14.8991   29.1137 C   0  0  0  0  0  0  0  0  0  0  0  0
    9.4248  -15.9420   28.5502 C   0  0  0  0  0  0  0  0  0  0  0  0
    8.7356  -15.7769   27.3670 C   0  0  0  0  0  0  0  0  0  0  0  0
    8.7000  -14.5756   26.6904 C   0  0  0  0  0  0  0  0  0  0  0  0
    7.9681  -14.4022   25.4355 C   0  0  0  0  0  0  0  0  0  0  0  0
    8.8258  -14.4608   24.2022 C   0  0  2  0  0  0  0  0  0  0  0  0
    7.9276  -14.4372   23.0597 N   0  0  0  0  0  0  0  0  0  0  0  0
    9.7526  -15.6013   24.1531 C   0  0  0  0  0  0  0  0  0  0  0  0
   10.8733  -15.5013   24.7157 O   0  0  0  0  0  0  0  0  0  0  0  0
    9.4077  -13.5307   27.2784 C   0  0  0  0  0  0  0  0  0  0  0  0
   10.1004  -13.6838   28.4610 C   0  0  0  0  0  0  0  0  0  0  0  0
    9.4710  -16.8331   23.5052 N   0  0  0  0  0  0  0  0  0  0  0  0
   10.3583  -17.9744   23.5695 C   0  0  1  0  0  0  0  0  0  0  0  0
   11.6946  -17.6875   22.8982 C   0  0  0  0  0  0  0  0  0  0  0  0
   11.7204  -18.0528   21.4702 C   0  0  0  0  0  0  0  0  0  0  0  0
   10.6883  -18.4770   20.9056 O   0  0  0  0  0  0  0  0  0  0  0  0
   10.5840  -18.4424   24.9487 C   0  0  0  0  0  0  0  0  0  0  0  0
   10.5837  -17.6226   25.8874 O   0  0  0  0  0  0  0  0  0  0  0  0
   12.8678  -17.9404   20.7195 O   0  0  0  0  0  0  0  0  0  0  0  0
   10.7971  -19.7736   25.2291 O   0  0  0  0  0  0  0  0  0  0  0  0
  2  1  1  6
  2  3  1  0
  4  2  1  0
  4  5  1  6
  6  7  2  0
  6  4  1  0
  9  8  1  0
 10  9  2  0
 11 10  1  0
 12 11  2  0
 12 18  1  0
 13 12  1  0
 14 13  1  1
 14 15  1  0
 15  6  1  0
 16 20  1  0
 16 14  1  0
 17 16  2  0
 18 19  2  0
 19  9  1  0
 21 20  1  0
 21 25  1  0
 21 22  1  1
 23 22  1  0
 24 23  2  0
 25 28  1  0
 26 25  2  0
 27 23  1  0
M  END
$$$$
