VYD.pdb
     RDKit          3D

 28 28  0  0  1  0  0  0  0  0999 V2000
    6.6658  -13.4333   19.0747 C   0  0  0  0  0  0  0  0  0  0  0  0
    7.4680  -13.4274   20.3247 C   0  0  2  0  0  0  0  0  0  0  0  0
    8.5206  -12.3120   20.3228 C   0  0  0  0  0  0  0  0  0  0  0  0
    8.2348  -14.7044   20.6015 C   0  0  2  0  0  0  0  0  0  0  0  0
    7.2912  -15.8285   20.6215 N   0  0  0  0  0  0  0  0  0  0  0  0
    8.9032  -14.7063   21.9268 C   0  0  0  0  0  0  0  0  0  0  0  0
    9.9788  -14.0332   22.1197 O   0  0  0  0  0  0  0  0  0  0  0  0
    5.7189  -10.5960   26.8828 O   0  0  0  0  0  0  0  0  0  0  0  0
    6.3223  -11.8015   26.5265 C   0  0  0  0  0  0  0  0  0  0  0  0
    7.6819  -11.9765   26.5943 C   0  0  0  0  0  0  0  0  0  0  0  0
    8.2596  -13.1769   26.2373 C   0  0  0  0  0  0  0  0  0  0  0  0
    7.5198  -14.2551   25.7984 C   0  0  0  0  0  0  0  0  0  0  0  0
    8.1342  -15.5278   25.4205 C   0  0  0  0  0  0  0  0  0  0  0  0
    9.1629  -15.4219   24.3292 C   0  0  2  0  0  0  0  0  0  0  0  0
    8.4428  -15.4185   23.0667 N   0  0  0  0  0  0  0  0  0  0  0  0
   10.2066  -16.4570   24.3673 C   0  0  0  0  0  0  0  0  0  0  0  0
   10.1707  -17.3264   25.2758 O   0  0  0  0  0  0  0  0  0  0  0  0
    6.1430  -14.0571   25.7369 C   0  0  0  0  0  0  0  0  0  0  0  0
    5.5541  -12.8615   26.0911 C   0  0  0  0  0  0  0  0  0  0  0  0
   11.2738  -16.5509   23.4354 N   0  0  0  0  0  0  0  0  0  0  0  0
   12.2285  -17.6385   23.4426 C   0  0  1  0  0  0  0  0  0  0  0  0
   12.3633  -18.2788   22.0677 C   0  0  0  0  0  0  0  0  0  0  0  0
   13.3723  -19.3527   22.0207 C   0  0  0  0  0  0  0  0  0  0  0  0
   13.3246  -20.3032   22.8320 O   0  0  0  0  0  0  0  0  0  0  0  0
   13.5561  -17.2266   23.9325 C   0  0  0  0  0  0  0  0  0  0  0  0
   14.4188  -18.0911   24.1810 O   0  0  0  0  0  0  0  0  0  0  0  0
   14.3884  -19.3449   21.0933 O   0  0  0  0  0  0  0  0  0  0  0  0
   13.8705  -15.8998   24.1243 O   0  0  0  0  0  0  0  0  0  0  0  0
  2  1  1  6
  2  3  1  0
  4  2  1  0
  4  5  1  1
  6  7  2  0
  6  4  1  0
  9  8  1  0
 10  9  2  0
 11 10  1  0
 12 11  2  0
 12 18  1  0
 13 12  1  0
 14 13  1  1
 14 15  1  0
 15  6  1  0
 16 20  1  0
 16 14  1  0
 17 16  2  0
 18 19  2  0
 19  9  1  0
 21 20  1  0
 21 25  1  0
 21 22  1  6
 23 22  1  0
 24 23  2  0
 25 28  1  0
 26 25  2  0
 27 23  1  0
M  END
$$$$
