VYD.pdb
     RDKit          3D

 28 28  0  0  1  0  0  0  0  0999 V2000
    8.4189  -12.6907   19.5085 C   0  0  0  0  0  0  0  0  0  0  0  0
    7.5835  -13.8701   19.1662 C   0  0  2  0  0  0  0  0  0  0  0  0
    6.1354  -13.7022   19.6429 C   0  0  0  0  0  0  0  0  0  0  0  0
    8.0527  -15.1831   19.7587 C   0  0  2  0  0  0  0  0  0  0  0  0
    7.8516  -15.1456   21.2122 N   0  0  0  0  0  0  0  0  0  0  0  0
    9.5015  -15.4306   19.5514 C   0  0  0  0  0  0  0  0  0  0  0  0
    9.9309  -15.9246   18.4473 O   0  0  0  0  0  0  0  0  0  0  0  0
   18.0090  -14.1877   18.4947 O   0  0  0  0  0  0  0  0  0  0  0  0
   16.6871  -14.1646   18.9380 C   0  0  0  0  0  0  0  0  0  0  0  0
   15.6344  -14.0497   18.0649 C   0  0  0  0  0  0  0  0  0  0  0  0
   14.3338  -14.0287   18.5235 C   0  0  0  0  0  0  0  0  0  0  0  0
   14.0176  -14.1203   19.8629 C   0  0  0  0  0  0  0  0  0  0  0  0
   12.6374  -14.0982   20.3475 C   0  0  0  0  0  0  0  0  0  0  0  0
   11.9229  -15.4174   20.2498 C   0  0  2  0  0  0  0  0  0  0  0  0
   10.5162  -15.1578   20.5076 N   0  0  0  0  0  0  0  0  0  0  0  0
   12.4593  -16.4718   21.1229 C   0  0  0  0  0  0  0  0  0  0  0  0
   13.6496  -16.8474   20.9655 O   0  0  0  0  0  0  0  0  0  0  0  0
   15.0994  -14.2361   20.7317 C   0  0  0  0  0  0  0  0  0  0  0  0
   16.4039  -14.2582   20.2849 C   0  0  0  0  0  0  0  0  0  0  0  0
   11.7191  -17.1107   22.1526 N   0  0  0  0  0  0  0  0  0  0  0  0
   12.3168  -18.0379   23.0893 C   0  0  1  0  0  0  0  0  0  0  0  0
   11.7562  -17.8595   24.4938 C   0  0  0  0  0  0  0  0  0  0  0  0
   12.3569  -18.7739   25.4820 C   0  0  0  0  0  0  0  0  0  0  0  0
   13.2773  -19.5520   25.1483 O   0  0  0  0  0  0  0  0  0  0  0  0
   12.1714  -19.4432   22.6697 C   0  0  0  0  0  0  0  0  0  0  0  0
   11.4195  -19.7294   21.7178 O   0  0  0  0  0  0  0  0  0  0  0  0
   11.9298  -18.8013   26.7895 O   0  0  0  0  0  0  0  0  0  0  0  0
   12.8507  -20.4568   23.3078 O   0  0  0  0  0  0  0  0  0  0  0  0
  2  1  1  1
  2  3  1  0
  4  2  1  0
  4  5  1  1
  6  7  2  0
  6  4  1  0
  9  8  1  0
 10  9  2  0
 11 10  1  0
 12 11  2  0
 12 18  1  0
 13 12  1  0
 14 13  1  1
 14 15  1  0
 15  6  1  0
 16 20  1  0
 16 14  1  0
 17 16  2  0
 18 19  2  0
 19  9  1  0
 21 20  1  0
 21 25  1  0
 21 22  1  1
 23 22  1  0
 24 23  2  0
 25 28  1  0
 26 25  2  0
 27 23  1  0
M  END
$$$$
