VYD.pdb
     RDKit          3D

 28 28  0  0  1  0  0  0  0  0999 V2000
    7.7107  -17.3645   20.3772 C   0  0  0  0  0  0  0  0  0  0  0  0
    6.9198  -16.1192   20.5498 C   0  0  2  0  0  0  0  0  0  0  0  0
    6.0072  -15.8506   19.3467 C   0  0  0  0  0  0  0  0  0  0  0  0
    7.7394  -14.8569   20.7233 C   0  0  2  0  0  0  0  0  0  0  0  0
    8.6239  -14.7031   19.5621 N   0  0  0  0  0  0  0  0  0  0  0  0
    8.6269  -14.8980   21.9123 C   0  0  0  0  0  0  0  0  0  0  0  0
    9.8505  -15.2701   21.8046 O   0  0  0  0  0  0  0  0  0  0  0  0
   10.9889  -15.0237   30.5461 O   0  0  0  0  0  0  0  0  0  0  0  0
   10.3635  -14.7913   29.3217 C   0  0  0  0  0  0  0  0  0  0  0  0
   10.6711  -13.6992   28.5494 C   0  0  0  0  0  0  0  0  0  0  0  0
   10.0411  -13.4870   27.3409 C   0  0  0  0  0  0  0  0  0  0  0  0
    9.0811  -14.3437   26.8440 C   0  0  0  0  0  0  0  0  0  0  0  0
    8.4141  -14.1172   25.5617 C   0  0  0  0  0  0  0  0  0  0  0  0
    9.0806  -14.7802   24.3885 C   0  0  2  0  0  0  0  0  0  0  0  0
    8.2335  -14.5448   23.2310 N   0  0  0  0  0  0  0  0  0  0  0  0
    9.3749  -16.2085   24.5766 C   0  0  0  0  0  0  0  0  0  0  0  0
    8.4277  -17.0358   24.5457 O   0  0  0  0  0  0  0  0  0  0  0  0
    8.7837  -15.4449   27.6423 C   0  0  0  0  0  0  0  0  0  0  0  0
    9.4070  -15.6675   28.8522 C   0  0  0  0  0  0  0  0  0  0  0  0
   10.6756  -16.7349   24.7944 N   0  0  0  0  0  0  0  0  0  0  0  0
   10.9201  -18.1349   25.0671 C   0  0  1  0  0  0  0  0  0  0  0  0
   12.0999  -18.6673   24.2652 C   0  0  0  0  0  0  0  0  0  0  0  0
   11.8825  -18.6224   22.8077 C   0  0  0  0  0  0  0  0  0  0  0  0
   10.8107  -19.0361   22.3137 O   0  0  0  0  0  0  0  0  0  0  0  0
   11.1286  -18.4072   26.5004 C   0  0  0  0  0  0  0  0  0  0  0  0
   11.1956  -17.4589   27.3064 O   0  0  0  0  0  0  0  0  0  0  0  0
   12.8405  -18.1294   21.9522 O   0  0  0  0  0  0  0  0  0  0  0  0
   11.2523  -19.6935   26.9761 O   0  0  0  0  0  0  0  0  0  0  0  0
  2  1  1  6
  2  3  1  0
  4  2  1  0
  4  5  1  6
  6  7  2  0
  6  4  1  0
  9  8  1  0
 10  9  2  0
 11 10  1  0
 12 11  2  0
 12 18  1  0
 13 12  1  0
 14 13  1  1
 14 15  1  0
 15  6  1  0
 16 20  1  0
 16 14  1  0
 17 16  2  0
 18 19  2  0
 19  9  1  0
 21 20  1  0
 21 25  1  0
 21 22  1  6
 23 22  1  0
 24 23  2  0
 25 28  1  0
 26 25  2  0
 27 23  1  0
M  END
$$$$
