VYD.pdb
     RDKit          3D

 28 28  0  0  1  0  0  0  0  0999 V2000
    8.3929  -18.5842   17.6817 C   0  0  0  0  0  0  0  0  0  0  0  0
    8.5988  -17.9886   19.0266 C   0  0  2  0  0  0  0  0  0  0  0  0
    7.3676  -18.1650   19.9242 C   0  0  0  0  0  0  0  0  0  0  0  0
    8.8918  -16.5022   19.0326 C   0  0  2  0  0  0  0  0  0  0  0  0
   10.1658  -16.2679   18.3423 N   0  0  0  0  0  0  0  0  0  0  0  0
    9.0576  -15.9470   20.3991 C   0  0  0  0  0  0  0  0  0  0  0  0
   10.1721  -16.0659   21.0243 O   0  0  0  0  0  0  0  0  0  0  0  0
    6.9910  -11.9926   28.1604 O   0  0  0  0  0  0  0  0  0  0  0  0
    7.0354  -12.4285   26.8366 C   0  0  0  0  0  0  0  0  0  0  0  0
    7.6438  -11.6896   25.8529 C   0  0  0  0  0  0  0  0  0  0  0  0
    7.6769  -12.1382   24.5491 C   0  0  0  0  0  0  0  0  0  0  0  0
    7.1111  -13.3348   24.1614 C   0  0  0  0  0  0  0  0  0  0  0  0
    7.1476  -13.8093   22.7780 C   0  0  0  0  0  0  0  0  0  0  0  0
    8.2394  -14.8018   22.4896 C   0  0  2  0  0  0  0  0  0  0  0  0
    8.0480  -15.2573   21.1226 N   0  0  0  0  0  0  0  0  0  0  0  0
    8.3173  -15.9215   23.4394 C   0  0  0  0  0  0  0  0  0  0  0  0
    7.5094  -16.8785   23.3219 O   0  0  0  0  0  0  0  0  0  0  0  0
    6.4992  -14.0689   25.1739 C   0  0  0  0  0  0  0  0  0  0  0  0
    6.4598  -13.6306   26.4808 C   0  0  0  0  0  0  0  0  0  0  0  0
    9.2564  -16.0053   24.5012 N   0  0  0  0  0  0  0  0  0  0  0  0
    9.7144  -17.2653   25.0461 C   0  0  1  0  0  0  0  0  0  0  0  0
   10.2866  -18.1719   23.9648 C   0  0  0  0  0  0  0  0  0  0  0  0
   10.7072  -19.4909   24.4718 C   0  0  0  0  0  0  0  0  0  0  0  0
   10.0796  -20.0416   25.4028 O   0  0  0  0  0  0  0  0  0  0  0  0
   10.7029  -17.0924   26.1256 C   0  0  0  0  0  0  0  0  0  0  0  0
   11.6012  -16.2362   26.0098 O   0  0  0  0  0  0  0  0  0  0  0  0
   11.7917  -20.1522   23.9436 O   0  0  0  0  0  0  0  0  0  0  0  0
   10.6590  -17.8590   27.2686 O   0  0  0  0  0  0  0  0  0  0  0  0
  2  1  1  6
  2  3  1  0
  4  2  1  0
  4  5  1  6
  6  7  2  0
  6  4  1  0
  9  8  1  0
 10  9  2  0
 11 10  1  0
 12 11  2  0
 12 18  1  0
 13 12  1  0
 14 13  1  1
 14 15  1  0
 15  6  1  0
 16 20  1  0
 16 14  1  0
 17 16  2  0
 18 19  2  0
 19  9  1  0
 21 20  1  0
 21 25  1  0
 21 22  1  6
 23 22  1  0
 24 23  2  0
 25 28  1  0
 26 25  2  0
 27 23  1  0
M  END
$$$$
