VYD.pdb
     RDKit          3D

 28 28  0  0  1  0  0  0  0  0999 V2000
    8.0631  -15.8955   19.5890 C   0  0  0  0  0  0  0  0  0  0  0  0
    6.9835  -14.9570   19.9890 C   0  0  2  0  0  0  0  0  0  0  0  0
    6.1108  -14.5482   18.7958 C   0  0  0  0  0  0  0  0  0  0  0  0
    7.4584  -13.6568   20.6047 C   0  0  2  0  0  0  0  0  0  0  0  0
    8.2967  -12.9493   19.6295 N   0  0  0  0  0  0  0  0  0  0  0  0
    8.3070  -13.8574   21.8059 C   0  0  0  0  0  0  0  0  0  0  0  0
    9.5860  -13.8971   21.7059 O   0  0  0  0  0  0  0  0  0  0  0  0
   10.5533  -15.5066   30.3142 O   0  0  0  0  0  0  0  0  0  0  0  0
    9.9007  -15.1503   29.1345 C   0  0  0  0  0  0  0  0  0  0  0  0
   10.0146  -13.8923   28.5977 C   0  0  0  0  0  0  0  0  0  0  0  0
    9.3609  -13.5595   27.4297 C   0  0  0  0  0  0  0  0  0  0  0  0
    8.5675  -14.4543   26.7425 C   0  0  0  0  0  0  0  0  0  0  0  0
    7.8751  -14.0997   25.5035 C   0  0  0  0  0  0  0  0  0  0  0  0
    8.6851  -14.3142   24.2552 C   0  0  2  0  0  0  0  0  0  0  0  0
    7.8154  -14.0172   23.1292 N   0  0  0  0  0  0  0  0  0  0  0  0
    9.2987  -15.6458   24.1434 C   0  0  0  0  0  0  0  0  0  0  0  0
    8.5732  -16.6286   23.8431 O   0  0  0  0  0  0  0  0  0  0  0  0
    8.4651  -15.7245   27.3035 C   0  0  0  0  0  0  0  0  0  0  0  0
    9.1140  -16.0687   28.4707 C   0  0  0  0  0  0  0  0  0  0  0  0
   10.6780  -15.9106   24.3525 N   0  0  0  0  0  0  0  0  0  0  0  0
   11.2595  -17.2248   24.1819 C   0  0  1  0  0  0  0  0  0  0  0  0
   12.3444  -17.2263   23.1135 C   0  0  0  0  0  0  0  0  0  0  0  0
   12.9704  -18.5469   22.9197 C   0  0  0  0  0  0  0  0  0  0  0  0
   12.2770  -19.5873   22.9473 O   0  0  0  0  0  0  0  0  0  0  0  0
   11.7971  -17.7763   25.4385 C   0  0  0  0  0  0  0  0  0  0  0  0
   12.2522  -18.9364   25.4595 O   0  0  0  0  0  0  0  0  0  0  0  0
   14.3229  -18.6773   22.7045 O   0  0  0  0  0  0  0  0  0  0  0  0
   11.8094  -17.0365   26.5998 O   0  0  0  0  0  0  0  0  0  0  0  0
  2  1  1  6
  2  3  1  0
  4  2  1  0
  4  5  1  6
  6  7  2  0
  6  4  1  0
  9  8  1  0
 10  9  2  0
 11 10  1  0
 12 11  2  0
 12 18  1  0
 13 12  1  0
 14 13  1  1
 14 15  1  0
 15  6  1  0
 16 20  1  0
 16 14  1  0
 17 16  2  0
 18 19  2  0
 19  9  1  0
 21 20  1  0
 21 25  1  0
 21 22  1  6
 23 22  1  0
 24 23  2  0
 25 28  1  0
 26 25  2  0
 27 23  1  0
M  END
$$$$
