DTA.pdb
     RDKit          3D

 21 20  0  0  1  0  0  0  0  0999 V2000
   11.9582  -15.0277   17.0773 N   0  0  0  0  0  0  0  0  0  0  0  0
   12.3339  -15.3621   18.4739 C   0  0  1  0  0  0  0  0  0  0  0  0
   13.8082  -15.2241   18.6441 C   0  0  0  0  0  0  0  0  0  0  0  0
   14.5618  -16.0244   17.6904 C   0  0  0  0  0  0  0  0  0  0  0  0
   14.4198  -17.2464   17.5691 O   0  0  0  0  0  0  0  0  0  0  0  0
   11.5480  -14.4714   19.3702 C   0  0  0  0  0  0  0  0  0  0  0  0
   11.9167  -13.3359   19.7022 O   0  0  0  0  0  0  0  0  0  0  0  0
   15.5084  -15.4181   16.8448 O   0  0  0  0  0  0  0  0  0  0  0  0
    8.3163  -12.9417   18.8813 C   0  0  0  0  0  0  0  0  0  0  0  0
    8.1917  -13.8672   20.0415 C   0  0  1  0  0  0  0  0  0  0  0  0
    7.7732  -15.1152   19.5230 O   0  0  0  0  0  0  0  0  0  0  0  0
    9.4811  -14.1044   20.8002 C   0  0  2  0  0  0  0  0  0  0  0  0
   10.3001  -14.9162   19.8934 N   0  0  0  0  0  0  0  0  0  0  0  0
    9.2969  -14.8181   22.0650 C   0  0  0  0  0  0  0  0  0  0  0  0
    9.5733  -16.0663   22.1222 O   0  0  0  0  0  0  0  0  0  0  0  0
    8.1847  -14.1918   25.6375 C   0  0  0  0  0  0  0  0  0  0  0  0
    8.5739  -15.0431   24.4673 C   0  0  2  0  0  0  0  0  0  0  0  0
    8.8330  -14.2670   23.2731 N   0  0  0  0  0  0  0  0  0  0  0  0
    7.4640  -15.9781   24.1645 C   0  0  0  0  0  0  0  0  0  0  0  0
    7.1990  -17.1130   24.9425 O   0  0  0  0  0  0  0  0  0  0  0  0
    6.6974  -15.7976   23.1849 O   0  0  0  0  0  0  0  0  0  0  0  0
  2  1  1  6
  3  2  1  0
  4  3  1  0
  5  4  2  0
  6  2  1  0
  7  6  2  0
  8  4  1  0
 10  9  1  6
 10 12  1  0
 11 10  1  0
 12 14  1  0
 12 13  1  6
 13  6  1  0
 14 18  1  0
 15 14  2  0
 17 16  1  1
 17 19  1  0
 18 17  1  0
 19 21  2  0
 19 20  1  0
M  END
$$$$
