DTA.pdb
     RDKit          3D

 21 20  0  0  1  0  0  0  0  0999 V2000
   10.4785  -17.0577   19.2723 N   0  0  0  0  0  0  0  0  0  0  0  0
   10.9732  -16.6344   20.6062 C   0  0  1  0  0  0  0  0  0  0  0  0
   12.3400  -16.0546   20.4742 C   0  0  0  0  0  0  0  0  0  0  0  0
   13.3152  -17.0187   19.9869 C   0  0  0  0  0  0  0  0  0  0  0  0
   13.4924  -18.1259   20.5075 O   0  0  0  0  0  0  0  0  0  0  0  0
    9.9772  -15.6818   21.1672 C   0  0  0  0  0  0  0  0  0  0  0  0
    9.7322  -14.5742   20.6683 O   0  0  0  0  0  0  0  0  0  0  0  0
   14.1165  -16.7172   18.8708 O   0  0  0  0  0  0  0  0  0  0  0  0
    6.3863  -16.2277   21.5951 C   0  0  0  0  0  0  0  0  0  0  0  0
    6.9674  -15.9776   22.9435 C   0  0  1  0  0  0  0  0  0  0  0  0
    7.2907  -17.2428   23.4879 O   0  0  0  0  0  0  0  0  0  0  0  0
    8.2368  -15.1513   22.9396 C   0  0  2  0  0  0  0  0  0  0  0  0
    9.2480  -16.0291   22.3404 N   0  0  0  0  0  0  0  0  0  0  0  0
    8.6749  -14.7394   24.2743 C   0  0  0  0  0  0  0  0  0  0  0  0
    9.5961  -15.4061   24.8612 O   0  0  0  0  0  0  0  0  0  0  0  0
    7.9093  -12.1262   26.9172 C   0  0  0  0  0  0  0  0  0  0  0  0
    8.6290  -13.3112   26.3486 C   0  0  2  0  0  0  0  0  0  0  0  0
    8.1801  -13.6508   25.0149 N   0  0  0  0  0  0  0  0  0  0  0  0
    8.3819  -14.4853   27.2194 C   0  0  0  0  0  0  0  0  0  0  0  0
    9.0842  -14.7019   28.4124 O   0  0  0  0  0  0  0  0  0  0  0  0
    7.5213  -15.3538   26.9280 O   0  0  0  0  0  0  0  0  0  0  0  0
  2  1  1  6
  3  2  1  0
  4  3  1  0
  5  4  2  0
  6  2  1  0
  7  6  2  0
  8  4  1  0
 10  9  1  6
 10 12  1  0
 11 10  1  0
 12 14  1  0
 12 13  1  1
 13  6  1  0
 14 18  1  0
 15 14  2  0
 17 16  1  1
 17 19  1  0
 18 17  1  0
 19 21  2  0
 19 20  1  0
M  END
$$$$
