DTA.pdb
     RDKit          3D

 21 20  0  0  1  0  0  0  0  0999 V2000
   11.7999  -17.0942   20.1591 N   0  0  0  0  0  0  0  0  0  0  0  0
   11.0725  -17.5438   21.3723 C   0  0  1  0  0  0  0  0  0  0  0  0
   11.8568  -18.6064   22.0632 C   0  0  0  0  0  0  0  0  0  0  0  0
   12.2076  -19.7097   21.1815 C   0  0  0  0  0  0  0  0  0  0  0  0
   11.3807  -20.3122   20.4875 O   0  0  0  0  0  0  0  0  0  0  0  0
   10.8314  -16.3421   22.2160 C   0  0  0  0  0  0  0  0  0  0  0  0
   11.6045  -15.3750   22.2675 O   0  0  0  0  0  0  0  0  0  0  0  0
   13.5417  -20.1445   21.0829 O   0  0  0  0  0  0  0  0  0  0  0  0
    7.3521  -14.4550   22.4537 C   0  0  0  0  0  0  0  0  0  0  0  0
    7.8411  -14.9594   23.7671 C   0  0  1  0  0  0  0  0  0  0  0  0
    7.2792  -16.2457   23.9433 O   0  0  0  0  0  0  0  0  0  0  0  0
    9.3453  -15.1076   23.8651 C   0  0  2  0  0  0  0  0  0  0  0  0
    9.6588  -16.2657   23.0210 N   0  0  0  0  0  0  0  0  0  0  0  0
    9.8252  -15.3498   25.2268 C   0  0  0  0  0  0  0  0  0  0  0  0
   10.1881  -16.5312   25.5587 O   0  0  0  0  0  0  0  0  0  0  0  0
   10.4077  -13.5044   28.4898 C   0  0  0  0  0  0  0  0  0  0  0  0
   10.4999  -14.6739   27.5575 C   0  0  2  0  0  0  0  0  0  0  0  0
    9.9383  -14.3945   26.2529 N   0  0  0  0  0  0  0  0  0  0  0  0
    9.7457  -15.8105   28.1382 C   0  0  0  0  0  0  0  0  0  0  0  0
   10.2358  -16.5761   29.2045 O   0  0  0  0  0  0  0  0  0  0  0  0
    8.6173  -16.1474   27.6987 O   0  0  0  0  0  0  0  0  0  0  0  0
  2  1  1  6
  3  2  1  0
  4  3  1  0
  5  4  2  0
  6  2  1  0
  7  6  2  0
  8  4  1  0
 10  9  1  6
 10 12  1  0
 11 10  1  0
 12 14  1  0
 12 13  1  6
 13  6  1  0
 14 18  1  0
 15 14  2  0
 17 16  1  1
 17 19  1  0
 18 17  1  0
 19 21  2  0
 19 20  1  0
M  END
$$$$
