DTA.pdb
     RDKit          3D

 21 20  0  0  1  0  0  0  0  0999 V2000
   13.6011  -14.3447   17.7358 N   0  0  0  0  0  0  0  0  0  0  0  0
   12.6795  -15.3361   18.3448 C   0  0  1  0  0  0  0  0  0  0  0  0
   13.4557  -16.5142   18.8257 C   0  0  0  0  0  0  0  0  0  0  0  0
   13.9515  -17.3433   17.7373 C   0  0  0  0  0  0  0  0  0  0  0  0
   14.9342  -17.0432   17.0499 O   0  0  0  0  0  0  0  0  0  0  0  0
   11.9294  -14.6397   19.4249 C   0  0  0  0  0  0  0  0  0  0  0  0
   12.4697  -13.9357   20.2898 O   0  0  0  0  0  0  0  0  0  0  0  0
   13.3114  -18.5544   17.4177 O   0  0  0  0  0  0  0  0  0  0  0  0
    8.4536  -12.7147   18.8334 C   0  0  0  0  0  0  0  0  0  0  0  0
    8.3883  -13.8023   19.8489 C   0  0  1  0  0  0  0  0  0  0  0  0
    7.9874  -14.9738   19.1647 O   0  0  0  0  0  0  0  0  0  0  0  0
    9.7057  -14.1078   20.5312 C   0  0  2  0  0  0  0  0  0  0  0  0
   10.5128  -14.7676   19.4991 N   0  0  0  0  0  0  0  0  0  0  0  0
    9.5765  -14.9914   21.6912 C   0  0  0  0  0  0  0  0  0  0  0  0
    9.8203  -16.2401   21.5535 O   0  0  0  0  0  0  0  0  0  0  0  0
    8.7044  -14.8515   25.3816 C   0  0  0  0  0  0  0  0  0  0  0  0
    9.1009  -15.5293   24.1054 C   0  0  2  0  0  0  0  0  0  0  0  0
    9.2010  -14.6098   22.9919 N   0  0  0  0  0  0  0  0  0  0  0  0
    8.0746  -16.5424   23.7618 C   0  0  0  0  0  0  0  0  0  0  0  0
    8.0238  -17.8031   24.3715 O   0  0  0  0  0  0  0  0  0  0  0  0
    7.1896  -16.3189   22.8977 O   0  0  0  0  0  0  0  0  0  0  0  0
  2  1  1  1
  3  2  1  0
  4  3  1  0
  5  4  2  0
  6  2  1  0
  7  6  2  0
  8  4  1  0
 10  9  1  6
 10 12  1  0
 11 10  1  0
 12 14  1  0
 12 13  1  6
 13  6  1  0
 14 18  1  0
 15 14  2  0
 17 16  1  1
 17 19  1  0
 18 17  1  0
 19 21  2  0
 19 20  1  0
M  END
$$$$
