DTA.pdb
     RDKit          3D

 21 20  0  0  1  0  0  0  0  0999 V2000
   11.3577  -16.9411   19.3448 N   0  0  0  0  0  0  0  0  0  0  0  0
   11.0861  -17.1640   20.7869 C   0  0  1  0  0  0  0  0  0  0  0  0
   12.3608  -17.4685   21.4968 C   0  0  0  0  0  0  0  0  0  0  0  0
   13.0147  -18.6657   20.9899 C   0  0  0  0  0  0  0  0  0  0  0  0
   12.5867  -19.8082   21.1897 O   0  0  0  0  0  0  0  0  0  0  0  0
   10.3967  -15.9498   21.3015 C   0  0  0  0  0  0  0  0  0  0  0  0
   10.7813  -14.7946   21.0714 O   0  0  0  0  0  0  0  0  0  0  0  0
   14.1941  -18.5639   20.2300 O   0  0  0  0  0  0  0  0  0  0  0  0
    6.8345  -14.9731   20.6663 C   0  0  0  0  0  0  0  0  0  0  0  0
    7.0468  -15.1884   22.1247 C   0  0  1  0  0  0  0  0  0  0  0  0
    6.7524  -16.5480   22.3820 O   0  0  0  0  0  0  0  0  0  0  0  0
    8.4629  -14.9365   22.5997 C   0  0  2  0  0  0  0  0  0  0  0  0
    9.2289  -16.0859   22.1056 N   0  0  0  0  0  0  0  0  0  0  0  0
    8.5891  -14.8533   24.0558 C   0  0  0  0  0  0  0  0  0  0  0  0
    9.0782  -15.8471   24.6966 O   0  0  0  0  0  0  0  0  0  0  0  0
    7.9679  -12.4275   26.9056 C   0  0  0  0  0  0  0  0  0  0  0  0
    8.3374  -13.7502   26.3061 C   0  0  2  0  0  0  0  0  0  0  0  0
    8.2203  -13.7623   24.8633 N   0  0  0  0  0  0  0  0  0  0  0  0
    7.4259  -14.7901   26.8405 C   0  0  0  0  0  0  0  0  0  0  0  0
    7.5791  -15.3447   28.1181 O   0  0  0  0  0  0  0  0  0  0  0  0
    6.4601  -15.2305   26.1673 O   0  0  0  0  0  0  0  0  0  0  0  0
  2  1  1  6
  3  2  1  0
  4  3  1  0
  5  4  2  0
  6  2  1  0
  7  6  2  0
  8  4  1  0
 10  9  1  6
 10 12  1  0
 11 10  1  0
 12 14  1  0
 12 13  1  1
 13  6  1  0
 14 18  1  0
 15 14  2  0
 17 16  1  1
 17 19  1  0
 18 17  1  0
 19 21  2  0
 19 20  1  0
M  END
$$$$
