DTA.pdb
     RDKit          3D

 21 20  0  0  1  0  0  0  0  0999 V2000
   10.9327  -18.2957   21.2691 N   0  0  0  0  0  0  0  0  0  0  0  0
   11.8262  -17.1352   21.5099 C   0  0  1  0  0  0  0  0  0  0  0  0
   12.2356  -16.5378   20.2071 C   0  0  0  0  0  0  0  0  0  0  0  0
   13.3078  -17.2794   19.5605 C   0  0  0  0  0  0  0  0  0  0  0  0
   13.7837  -18.3233   20.0211 O   0  0  0  0  0  0  0  0  0  0  0  0
   11.0941  -16.1870   22.3926 C   0  0  0  0  0  0  0  0  0  0  0  0
   11.2547  -14.9587   22.3610 O   0  0  0  0  0  0  0  0  0  0  0  0
   13.8591  -16.8219   18.3499 O   0  0  0  0  0  0  0  0  0  0  0  0
    7.1982  -16.4073   23.0595 C   0  0  0  0  0  0  0  0  0  0  0  0
    8.0094  -16.4771   24.3067 C   0  0  1  0  0  0  0  0  0  0  0  0
    8.2334  -17.8490   24.5698 O   0  0  0  0  0  0  0  0  0  0  0  0
    9.3656  -15.8089   24.2150 C   0  0  2  0  0  0  0  0  0  0  0  0
   10.1505  -16.6835   23.3370 N   0  0  0  0  0  0  0  0  0  0  0  0
   10.0437  -15.6743   25.5053 C   0  0  0  0  0  0  0  0  0  0  0  0
   10.9773  -16.4957   25.8074 O   0  0  0  0  0  0  0  0  0  0  0  0
   10.0398  -13.4693   28.5919 C   0  0  0  0  0  0  0  0  0  0  0  0
   10.4245  -14.6715   27.7843 C   0  0  2  0  0  0  0  0  0  0  0  0
    9.7765  -14.7064   26.4903 N   0  0  0  0  0  0  0  0  0  0  0  0
   10.0229  -15.8931   28.5220 C   0  0  0  0  0  0  0  0  0  0  0  0
   10.7232  -16.3646   29.6404 O   0  0  0  0  0  0  0  0  0  0  0  0
    9.0238  -16.5737   28.1776 O   0  0  0  0  0  0  0  0  0  0  0  0
  2  1  1  6
  3  2  1  0
  4  3  1  0
  5  4  2  0
  6  2  1  0
  7  6  2  0
  8  4  1  0
 10  9  1  6
 10 12  1  0
 11 10  1  0
 12 14  1  0
 12 13  1  6
 13  6  1  0
 14 18  1  0
 15 14  2  0
 17 16  1  1
 17 19  1  0
 18 17  1  0
 19 21  2  0
 19 20  1  0
M  END
$$$$
