DTA.pdb
     RDKit          3D

 21 20  0  0  1  0  0  0  0  0999 V2000
   12.1911  -16.2006   17.4841 N   0  0  0  0  0  0  0  0  0  0  0  0
   13.0231  -15.2725   18.2901 C   0  0  1  0  0  0  0  0  0  0  0  0
   13.9272  -14.4996   17.3918 C   0  0  0  0  0  0  0  0  0  0  0  0
   14.9000  -15.3422   16.7127 C   0  0  0  0  0  0  0  0  0  0  0  0
   14.7267  -15.7975   15.5765 O   0  0  0  0  0  0  0  0  0  0  0  0
   12.0960  -14.4155   19.0776 C   0  0  0  0  0  0  0  0  0  0  0  0
   12.4745  -13.4942   19.8149 O   0  0  0  0  0  0  0  0  0  0  0  0
   16.1113  -15.6799   17.3433 O   0  0  0  0  0  0  0  0  0  0  0  0
    7.3310  -13.1382   19.6409 C   0  0  0  0  0  0  0  0  0  0  0  0
    8.4384  -13.9378   19.0469 C   0  0  1  0  0  0  0  0  0  0  0  0
    8.7206  -13.3660   17.7840 O   0  0  0  0  0  0  0  0  0  0  0  0
    9.7254  -13.9232   19.8455 C   0  0  2  0  0  0  0  0  0  0  0  0
   10.6911  -14.6384   19.0042 N   0  0  0  0  0  0  0  0  0  0  0  0
    9.6194  -14.5899   21.1445 C   0  0  0  0  0  0  0  0  0  0  0  0
   10.0696  -15.7810   21.2722 O   0  0  0  0  0  0  0  0  0  0  0  0
    8.3727  -13.9316   24.6675 C   0  0  0  0  0  0  0  0  0  0  0  0
    9.0663  -14.7197   23.5984 C   0  0  2  0  0  0  0  0  0  0  0  0
    9.0577  -14.0495   22.3153 N   0  0  0  0  0  0  0  0  0  0  0  0
    8.3707  -16.0184   23.4326 C   0  0  0  0  0  0  0  0  0  0  0  0
    8.6284  -17.1235   24.2545 O   0  0  0  0  0  0  0  0  0  0  0  0
    7.5061  -16.1946   22.5374 O   0  0  0  0  0  0  0  0  0  0  0  0
  2  1  1  6
  3  2  1  0
  4  3  1  0
  5  4  2  0
  6  2  1  0
  7  6  2  0
  8  4  1  0
 10  9  1  1
 10 12  1  0
 11 10  1  0
 12 14  1  0
 12 13  1  6
 13  6  1  0
 14 18  1  0
 15 14  2  0
 17 16  1  1
 17 19  1  0
 18 17  1  0
 19 21  2  0
 19 20  1  0
M  END
$$$$
