DTA.pdb
     RDKit          3D

 21 20  0  0  1  0  0  0  0  0999 V2000
   13.1862  -16.8547   20.7938 N   0  0  0  0  0  0  0  0  0  0  0  0
   12.9176  -17.5065   22.1000 C   0  0  1  0  0  0  0  0  0  0  0  0
   14.1961  -17.9959   22.6895 C   0  0  0  0  0  0  0  0  0  0  0  0
   14.7151  -19.1727   22.0086 C   0  0  0  0  0  0  0  0  0  0  0  0
   14.7353  -19.2903   20.7781 O   0  0  0  0  0  0  0  0  0  0  0  0
   12.2129  -16.5132   22.9550 C   0  0  0  0  0  0  0  0  0  0  0  0
   12.6285  -15.3627   23.1531 O   0  0  0  0  0  0  0  0  0  0  0  0
   15.2294  -20.2531   22.7483 O   0  0  0  0  0  0  0  0  0  0  0  0
    8.3045  -16.2557   22.5873 C   0  0  0  0  0  0  0  0  0  0  0  0
    8.7257  -16.3624   24.0119 C   0  0  1  0  0  0  0  0  0  0  0  0
    8.6602  -17.7337   24.3536 O   0  0  0  0  0  0  0  0  0  0  0  0
   10.1403  -15.8967   24.2878 C   0  0  2  0  0  0  0  0  0  0  0  0
   10.9921  -16.8703   23.5960 N   0  0  0  0  0  0  0  0  0  0  0  0
   10.4838  -15.8692   25.7106 C   0  0  0  0  0  0  0  0  0  0  0  0
   11.1804  -16.8236   26.2020 O   0  0  0  0  0  0  0  0  0  0  0  0
   10.0429  -13.6726   28.7733 C   0  0  0  0  0  0  0  0  0  0  0  0
   10.6161  -14.8182   27.9958 C   0  0  2  0  0  0  0  0  0  0  0  0
   10.1222  -14.8737   26.6362 N   0  0  0  0  0  0  0  0  0  0  0  0
   10.2396  -16.0870   28.6638 C   0  0  0  0  0  0  0  0  0  0  0  0
   10.8825  -16.5523   29.8186 O   0  0  0  0  0  0  0  0  0  0  0  0
    9.3154  -16.8160   28.2231 O   0  0  0  0  0  0  0  0  0  0  0  0
  2  1  1  6
  3  2  1  0
  4  3  1  0
  5  4  2  0
  6  2  1  0
  7  6  2  0
  8  4  1  0
 10  9  1  6
 10 12  1  0
 11 10  1  0
 12 14  1  0
 12 13  1  6
 13  6  1  0
 14 18  1  0
 15 14  2  0
 17 16  1  1
 17 19  1  0
 18 17  1  0
 19 21  2  0
 19 20  1  0
M  END
$$$$
