DTA.pdb
     RDKit          3D

 21 20  0  0  1  0  0  0  0  0999 V2000
   11.1473  -17.1797   20.2306 N   0  0  0  0  0  0  0  0  0  0  0  0
   11.8479  -16.6156   21.4114 C   0  0  1  0  0  0  0  0  0  0  0  0
   12.8309  -15.5867   20.9679 C   0  0  0  0  0  0  0  0  0  0  0  0
   14.2068  -16.0555   21.0399 C   0  0  0  0  0  0  0  0  0  0  0  0
   14.5164  -17.1957   21.4036 O   0  0  0  0  0  0  0  0  0  0  0  0
   10.8074  -16.0830   22.3322 C   0  0  0  0  0  0  0  0  0  0  0  0
   10.0571  -15.1395   22.0454 O   0  0  0  0  0  0  0  0  0  0  0  0
   15.2679  -15.2022   20.6869 O   0  0  0  0  0  0  0  0  0  0  0  0
    9.2076  -18.6506   25.1548 C   0  0  0  0  0  0  0  0  0  0  0  0
    8.6292  -17.3818   24.6314 C   0  0  1  0  0  0  0  0  0  0  0  0
    7.5945  -17.0092   25.5214 O   0  0  0  0  0  0  0  0  0  0  0  0
    9.6043  -16.2246   24.5648 C   0  0  2  0  0  0  0  0  0  0  0  0
   10.6374  -16.6651   23.6210 N   0  0  0  0  0  0  0  0  0  0  0  0
   10.2224  -15.9011   25.8517 C   0  0  0  0  0  0  0  0  0  0  0  0
   11.2706  -16.5377   26.2171 O   0  0  0  0  0  0  0  0  0  0  0  0
    9.8027  -13.5084   28.7667 C   0  0  0  0  0  0  0  0  0  0  0  0
   10.4633  -14.6171   28.0052 C   0  0  2  0  0  0  0  0  0  0  0  0
    9.7789  -14.9314   26.7690 N   0  0  0  0  0  0  0  0  0  0  0  0
   10.4637  -15.8402   28.8431 C   0  0  0  0  0  0  0  0  0  0  0  0
   11.3120  -15.9993   29.9469 O   0  0  0  0  0  0  0  0  0  0  0  0
    9.6951  -16.8053   28.6027 O   0  0  0  0  0  0  0  0  0  0  0  0
  2  1  1  6
  3  2  1  0
  4  3  1  0
  5  4  2  0
  6  2  1  0
  7  6  2  0
  8  4  1  0
 10  9  1  1
 10 12  1  0
 11 10  1  0
 12 14  1  0
 12 13  1  6
 13  6  1  0
 14 18  1  0
 15 14  2  0
 17 16  1  1
 17 19  1  0
 18 17  1  0
 19 21  2  0
 19 20  1  0
M  END
$$$$
