DTA.pdb
     RDKit          3D

 21 20  0  0  1  0  0  0  0  0999 V2000
   11.5573  -18.2778   21.7069 N   0  0  0  0  0  0  0  0  0  0  0  0
   11.9234  -16.8413   21.6309 C   0  0  1  0  0  0  0  0  0  0  0  0
   11.7592  -16.3546   20.2317 C   0  0  0  0  0  0  0  0  0  0  0  0
   12.7401  -16.9235   19.3196 C   0  0  0  0  0  0  0  0  0  0  0  0
   12.4624  -17.7826   18.4751 O   0  0  0  0  0  0  0  0  0  0  0  0
   11.0756  -16.1146   22.6144 C   0  0  0  0  0  0  0  0  0  0  0  0
   10.9353  -14.8834   22.6200 O   0  0  0  0  0  0  0  0  0  0  0  0
   14.0818  -16.5036   19.3663 O   0  0  0  0  0  0  0  0  0  0  0  0
    7.4998  -17.4820   23.4950 C   0  0  0  0  0  0  0  0  0  0  0  0
    8.3219  -17.2406   24.7132 C   0  0  1  0  0  0  0  0  0  0  0  0
    8.9434  -18.4701   25.0346 O   0  0  0  0  0  0  0  0  0  0  0  0
    9.4207  -16.2126   24.5388 C   0  0  2  0  0  0  0  0  0  0  0  0
   10.3734  -16.8419   23.6178 N   0  0  0  0  0  0  0  0  0  0  0  0
   10.1030  -15.8633   25.7860 C   0  0  0  0  0  0  0  0  0  0  0  0
   11.1883  -16.4679   26.0930 O   0  0  0  0  0  0  0  0  0  0  0  0
    9.9004  -13.3942   28.6466 C   0  0  0  0  0  0  0  0  0  0  0  0
   10.3542  -14.6592   27.9840 C   0  0  2  0  0  0  0  0  0  0  0  0
    9.6862  -14.9003   26.7226 N   0  0  0  0  0  0  0  0  0  0  0  0
   10.0540  -15.8030   28.8782 C   0  0  0  0  0  0  0  0  0  0  0  0
    9.1509  -16.8165   28.5309 O   0  0  0  0  0  0  0  0  0  0  0  0
   10.6002  -15.9219   30.0040 O   0  0  0  0  0  0  0  0  0  0  0  0
  2  1  1  6
  3  2  1  0
  4  3  1  0
  5  4  2  0
  6  2  1  0
  7  6  2  0
  8  4  1  0
 10  9  1  6
 10 12  1  0
 11 10  1  0
 12 14  1  0
 12 13  1  6
 13  6  1  0
 14 18  1  0
 15 14  2  0
 17 16  1  1
 17 19  1  0
 18 17  1  0
 19 21  2  0
 19 20  1  0
M  END
$$$$
