DTA.pdb
     RDKit          3D

 21 20  0  0  1  0  0  0  0  0999 V2000
   11.9266  -17.5135   20.2261 N   0  0  0  0  0  0  0  0  0  0  0  0
   12.4646  -17.1840   21.5696 C   0  0  1  0  0  0  0  0  0  0  0  0
   13.7087  -16.3754   21.4279 C   0  0  0  0  0  0  0  0  0  0  0  0
   14.7752  -17.0981   20.7511 C   0  0  0  0  0  0  0  0  0  0  0  0
   15.1094  -18.2501   21.0502 O   0  0  0  0  0  0  0  0  0  0  0  0
   11.3863  -16.4856   22.3204 C   0  0  0  0  0  0  0  0  0  0  0  0
   10.7386  -15.5337   21.8622 O   0  0  0  0  0  0  0  0  0  0  0  0
   15.4868  -16.4941   19.6988 O   0  0  0  0  0  0  0  0  0  0  0  0
    8.2068  -17.4907   23.0866 C   0  0  0  0  0  0  0  0  0  0  0  0
    8.8616  -17.3098   24.4121 C   0  0  1  0  0  0  0  0  0  0  0  0
    9.4248  -18.5597   24.7613 O   0  0  0  0  0  0  0  0  0  0  0  0
    9.9821  -16.2907   24.4280 C   0  0  2  0  0  0  0  0  0  0  0  0
   11.0545  -16.9075   23.6398 N   0  0  0  0  0  0  0  0  0  0  0  0
   10.4769  -15.9812   25.7705 C   0  0  0  0  0  0  0  0  0  0  0  0
   11.4757  -16.6344   26.2325 O   0  0  0  0  0  0  0  0  0  0  0  0
    9.8652  -13.5402   28.6078 C   0  0  0  0  0  0  0  0  0  0  0  0
   10.5230  -14.7126   27.9460 C   0  0  2  0  0  0  0  0  0  0  0  0
    9.9602  -15.0088   26.6456 N   0  0  0  0  0  0  0  0  0  0  0  0
   10.3388  -15.9105   28.7998 C   0  0  0  0  0  0  0  0  0  0  0  0
   11.0469  -16.1035   29.9934 O   0  0  0  0  0  0  0  0  0  0  0  0
    9.5298  -16.8221   28.4924 O   0  0  0  0  0  0  0  0  0  0  0  0
  2  1  1  6
  3  2  1  0
  4  3  1  0
  5  4  2  0
  6  2  1  0
  7  6  2  0
  8  4  1  0
 10  9  1  6
 10 12  1  0
 11 10  1  0
 12 14  1  0
 12 13  1  6
 13  6  1  0
 14 18  1  0
 15 14  2  0
 17 16  1  1
 17 19  1  0
 18 17  1  0
 19 21  2  0
 19 20  1  0
M  END
$$$$
