DTA.pdb
     RDKit          3D

 21 20  0  0  1  0  0  0  0  0999 V2000
    9.5092  -17.6936   20.3384 N   0  0  0  0  0  0  0  0  0  0  0  0
   10.7793  -17.4664   21.0723 C   0  0  1  0  0  0  0  0  0  0  0  0
   11.8949  -17.2835   20.1009 C   0  0  0  0  0  0  0  0  0  0  0  0
   13.2022  -17.5195   20.6950 C   0  0  0  0  0  0  0  0  0  0  0  0
   14.2537  -17.0788   20.2170 O   0  0  0  0  0  0  0  0  0  0  0  0
   10.5724  -16.2939   21.9648 C   0  0  0  0  0  0  0  0  0  0  0  0
   11.2700  -15.2705   21.9239 O   0  0  0  0  0  0  0  0  0  0  0  0
   13.3214  -18.2811   21.8717 O   0  0  0  0  0  0  0  0  0  0  0  0
    7.1457  -14.6162   22.3936 C   0  0  0  0  0  0  0  0  0  0  0  0
    7.6837  -15.0622   23.7089 C   0  0  1  0  0  0  0  0  0  0  0  0
    7.1681  -16.3591   23.9405 O   0  0  0  0  0  0  0  0  0  0  0  0
    9.1939  -15.1600   23.7720 C   0  0  2  0  0  0  0  0  0  0  0  0
    9.5254  -16.3148   22.9302 N   0  0  0  0  0  0  0  0  0  0  0  0
    9.7138  -15.3739   25.1237 C   0  0  0  0  0  0  0  0  0  0  0  0
   10.2269  -16.5077   25.4218 O   0  0  0  0  0  0  0  0  0  0  0  0
   10.0866  -13.5460   28.4282 C   0  0  0  0  0  0  0  0  0  0  0  0
   10.1997  -14.7231   27.5079 C   0  0  2  0  0  0  0  0  0  0  0  0
    9.7146  -14.4385   26.1740 N   0  0  0  0  0  0  0  0  0  0  0  0
    9.3886  -15.8377   28.0535 C   0  0  0  0  0  0  0  0  0  0  0  0
    9.7958  -16.5979   29.1579 O   0  0  0  0  0  0  0  0  0  0  0  0
    8.2840  -16.1597   27.5475 O   0  0  0  0  0  0  0  0  0  0  0  0
  2  1  1  6
  3  2  1  0
  4  3  1  0
  5  4  2  0
  6  2  1  0
  7  6  2  0
  8  4  1  0
 10  9  1  6
 10 12  1  0
 11 10  1  0
 12 14  1  0
 12 13  1  6
 13  6  1  0
 14 18  1  0
 15 14  2  0
 17 16  1  1
 17 19  1  0
 18 17  1  0
 19 21  2  0
 19 20  1  0
M  END
$$$$
