DTA.pdb
     RDKit          3D

 21 20  0  0  1  0  0  0  0  0999 V2000
   11.9027  -17.5316   20.3787 N   0  0  0  0  0  0  0  0  0  0  0  0
   12.6126  -17.1480   21.6246 C   0  0  1  0  0  0  0  0  0  0  0  0
   13.8942  -16.4679   21.2833 C   0  0  0  0  0  0  0  0  0  0  0  0
   14.7503  -17.2775   20.4291 C   0  0  0  0  0  0  0  0  0  0  0  0
   14.9737  -17.0089   19.2433 O   0  0  0  0  0  0  0  0  0  0  0  0
   11.6851  -16.2991   22.4204 C   0  0  0  0  0  0  0  0  0  0  0  0
   11.4263  -15.1198   22.1416 O   0  0  0  0  0  0  0  0  0  0  0  0
   15.3750  -18.4310   20.9372 O   0  0  0  0  0  0  0  0  0  0  0  0
    8.1473  -17.0265   22.9465 C   0  0  0  0  0  0  0  0  0  0  0  0
    8.7973  -16.9652   24.2853 C   0  0  1  0  0  0  0  0  0  0  0  0
    9.1896  -18.2857   24.6076 O   0  0  0  0  0  0  0  0  0  0  0  0
   10.0388  -16.0995   24.3444 C   0  0  2  0  0  0  0  0  0  0  0  0
   11.0427  -16.8389   23.5714 N   0  0  0  0  0  0  0  0  0  0  0  0
   10.5350  -15.8745   25.7031 C   0  0  0  0  0  0  0  0  0  0  0  0
   11.4597  -16.6309   26.1621 O   0  0  0  0  0  0  0  0  0  0  0  0
   10.0813  -13.4975   28.6220 C   0  0  0  0  0  0  0  0  0  0  0  0
   10.5965  -14.7322   27.9472 C   0  0  2  0  0  0  0  0  0  0  0  0
   10.0950  -14.8821   26.5975 N   0  0  0  0  0  0  0  0  0  0  0  0
   10.1629  -15.9188   28.7229 C   0  0  0  0  0  0  0  0  0  0  0  0
   10.7974  -16.3210   29.9057 O   0  0  0  0  0  0  0  0  0  0  0  0
    9.1945  -16.6305   28.3546 O   0  0  0  0  0  0  0  0  0  0  0  0
  2  1  1  6
  3  2  1  0
  4  3  1  0
  5  4  2  0
  6  2  1  0
  7  6  2  0
  8  4  1  0
 10  9  1  6
 10 12  1  0
 11 10  1  0
 12 14  1  0
 12 13  1  6
 13  6  1  0
 14 18  1  0
 15 14  2  0
 17 16  1  1
 17 19  1  0
 18 17  1  0
 19 21  2  0
 19 20  1  0
M  END
$$$$
