DTA.pdb
     RDKit          3D

 21 20  0  0  1  0  0  0  0  0999 V2000
   10.9471  -16.8956   18.7186 N   0  0  0  0  0  0  0  0  0  0  0  0
   11.0586  -17.1077   20.1834 C   0  0  1  0  0  0  0  0  0  0  0  0
   12.4900  -17.2892   20.5571 C   0  0  0  0  0  0  0  0  0  0  0  0
   13.1309  -18.3688   19.8212 C   0  0  0  0  0  0  0  0  0  0  0  0
   14.3193  -18.3456   19.4814 O   0  0  0  0  0  0  0  0  0  0  0  0
   10.4150  -15.9437   20.8506 C   0  0  0  0  0  0  0  0  0  0  0  0
   10.7845  -14.7719   20.6903 O   0  0  0  0  0  0  0  0  0  0  0  0
   12.3992  -19.5141   19.4584 O   0  0  0  0  0  0  0  0  0  0  0  0
    6.7929  -15.1958   20.4889 C   0  0  0  0  0  0  0  0  0  0  0  0
    7.1025  -15.3507   21.9376 C   0  0  1  0  0  0  0  0  0  0  0  0
    6.8589  -16.7058   22.2627 O   0  0  0  0  0  0  0  0  0  0  0  0
    8.5391  -15.0492   22.3111 C   0  0  2  0  0  0  0  0  0  0  0  0
    9.3122  -16.1512   21.7279 N   0  0  0  0  0  0  0  0  0  0  0  0
    8.7732  -14.9973   23.7552 C   0  0  0  0  0  0  0  0  0  0  0  0
    9.3553  -15.9825   24.3279 O   0  0  0  0  0  0  0  0  0  0  0  0
    8.1050  -12.7451   26.7353 C   0  0  0  0  0  0  0  0  0  0  0  0
    8.5354  -14.0122   26.0611 C   0  0  2  0  0  0  0  0  0  0  0  0
    8.4181  -13.9462   24.6198 N   0  0  0  0  0  0  0  0  0  0  0  0
    7.6737  -15.1227   26.5326 C   0  0  0  0  0  0  0  0  0  0  0  0
    7.9452  -15.8451   27.7021 O   0  0  0  0  0  0  0  0  0  0  0  0
    6.6461  -15.4750   25.9003 O   0  0  0  0  0  0  0  0  0  0  0  0
  2  1  1  6
  3  2  1  0
  4  3  1  0
  5  4  2  0
  6  2  1  0
  7  6  2  0
  8  4  1  0
 10  9  1  6
 10 12  1  0
 11 10  1  0
 12 14  1  0
 12 13  1  1
 13  6  1  0
 14 18  1  0
 15 14  2  0
 17 16  1  1
 17 19  1  0
 18 17  1  0
 19 21  2  0
 19 20  1  0
M  END
$$$$
