HYM.pdb
     RDKit          3D

 31 32  0  0  1  0  0  0  0  0999 V2000
   30.8102  -17.8010  -21.5047 N   0  0  0  0  0  0  0  0  0  0  0  0
   29.9817  -17.9795  -20.3012 C   0  0  1  0  0  0  0  0  0  0  0  0
   28.7321  -17.1623  -20.5563 C   0  0  0  0  0  0  0  0  0  0  0  0
   29.1187  -15.7283  -20.4668 C   0  0  0  0  0  0  0  0  0  0  0  0
   29.2504  -14.9790  -19.2948 C   0  0  0  0  0  0  0  0  0  0  0  0
   29.6100  -13.7373  -19.6078 N   0  0  0  0  0  0  0  0  0  0  0  0
   29.7168  -13.6564  -20.9598 C   0  0  0  0  0  0  0  0  0  0  0  0
   29.4155  -14.8696  -21.4523 N   0  0  0  0  0  0  0  0  0  0  0  0
   29.6838  -19.4210  -20.1865 C   0  0  0  0  0  0  0  0  0  0  0  0
   29.1940  -20.0927  -21.1457 O   0  0  0  0  0  0  0  0  0  0  0  0
   29.1946  -27.5376  -16.8495 O   0  0  0  0  0  0  0  0  0  0  0  0
   29.5535  -26.2311  -17.1448 C   0  0  0  0  0  0  0  0  0  0  0  0
   29.0989  -25.1999  -16.3498 C   0  0  0  0  0  0  0  0  0  0  0  0
   29.4526  -23.8982  -16.6388 C   0  0  0  0  0  0  0  0  0  0  0  0
   30.2756  -23.6596  -17.7480 C   0  0  0  0  0  0  0  0  0  0  0  0
   30.6566  -22.2762  -18.0935 C   0  0  0  0  0  0  0  0  0  0  0  0
   29.5832  -21.5204  -18.8003 C   0  0  2  0  0  0  0  0  0  0  0  0
   29.9332  -20.1224  -18.9933 N   0  0  0  0  0  0  0  0  0  0  0  0
   28.2682  -21.6634  -18.1600 C   0  0  0  0  0  0  0  0  0  0  0  0
   27.8374  -20.8735  -17.2907 O   0  0  0  0  0  0  0  0  0  0  0  0
   30.7229  -24.6994  -18.5343 C   0  0  0  0  0  0  0  0  0  0  0  0
   30.3686  -26.0055  -18.2451 C   0  0  0  0  0  0  0  0  0  0  0  0
   21.3235  -19.9273  -18.5083 C   0  0  0  0  0  0  0  0  0  0  0  0
   23.0859  -19.9869  -18.8300 S   0  0  0  0  0  0  0  0  0  0  0  0
   23.8771  -21.4558  -18.1412 C   0  0  0  0  0  0  0  0  0  0  0  0
   25.3410  -21.5105  -18.4187 C   0  0  0  0  0  0  0  0  0  0  0  0
   26.0172  -22.7829  -17.9588 C   0  0  2  0  0  0  0  0  0  0  0  0
   27.3752  -22.7445  -18.5016 N   0  0  0  0  0  0  0  0  0  0  0  0
   25.3525  -24.0069  -18.3854 C   0  0  0  0  0  0  0  0  0  0  0  0
   25.4265  -24.3975  -19.5734 O   0  0  0  0  0  0  0  0  0  0  0  0
   24.6248  -24.7686  -17.4929 O   0  0  0  0  0  0  0  0  0  0  0  0
  2  1  1  6
  3  2  1  0
  3  4  1  0
  4  8  1  0
  4  5  2  0
  5  6  1  0
  7  6  1  0
  8  7  2  0
  9 18  1  0
  9  2  1  0
 10  9  2  0
 11 12  1  0
 12 13  2  0
 13 14  1  0
 15 16  1  0
 15 14  2  0
 17 16  1  1
 17 18  1  0
 19 17  1  0
 20 19  2  0
 21 15  1  0
 22 21  2  0
 22 12  1  0
 23 24  1  0
 24 25  1  0
 27 26  1  6
 26 25  1  0
 27 28  1  0
 28 19  1  0
 29 31  1  0
 29 27  1  0
 30 29  2  0
M  END
$$$$
