HYM.pdb
     RDKit          3D

 31 32  0  0  1  0  0  0  0  0999 V2000
   22.4050  -20.8709  -15.9342 N   0  0  0  0  0  0  0  0  0  0  0  0
   23.0126  -20.1339  -14.8142 C   0  0  1  0  0  0  0  0  0  0  0  0
   23.2674  -18.7401  -15.3498 C   0  0  0  0  0  0  0  0  0  0  0  0
   24.3199  -18.8563  -16.3951 C   0  0  0  0  0  0  0  0  0  0  0  0
   24.1462  -18.6653  -17.7682 C   0  0  0  0  0  0  0  0  0  0  0  0
   25.3089  -18.8527  -18.3863 N   0  0  0  0  0  0  0  0  0  0  0  0
   26.2412  -19.1626  -17.4478 C   0  0  0  0  0  0  0  0  0  0  0  0
   25.6186  -19.1578  -16.2572 N   0  0  0  0  0  0  0  0  0  0  0  0
   22.0313  -20.1298  -13.7112 C   0  0  0  0  0  0  0  0  0  0  0  0
   22.2179  -19.4794  -12.6373 O   0  0  0  0  0  0  0  0  0  0  0  0
   19.1804  -14.6357  -13.9758 O   0  0  0  0  0  0  0  0  0  0  0  0
   19.0235  -15.9997  -13.7816 C   0  0  0  0  0  0  0  0  0  0  0  0
   19.1098  -16.5246  -12.5092 C   0  0  0  0  0  0  0  0  0  0  0  0
   18.9545  -17.8808  -12.3101 C   0  0  0  0  0  0  0  0  0  0  0  0
   18.7101  -18.6964  -13.4236 C   0  0  0  0  0  0  0  0  0  0  0  0
   18.5575  -20.1534  -13.2451 C   0  0  0  0  0  0  0  0  0  0  0  0
   19.8006  -20.8308  -12.7774 C   0  0  2  0  0  0  0  0  0  0  0  0
   20.8305  -20.8561  -13.8036 N   0  0  0  0  0  0  0  0  0  0  0  0
   19.5492  -22.1725  -12.2329 C   0  0  0  0  0  0  0  0  0  0  0  0
   19.5518  -23.2097  -12.9324 O   0  0  0  0  0  0  0  0  0  0  0  0
   18.6263  -18.1589  -14.6899 C   0  0  0  0  0  0  0  0  0  0  0  0
   18.7818  -16.7985  -14.8905 C   0  0  0  0  0  0  0  0  0  0  0  0
   18.0409  -26.2202   -5.4967 C   0  0  0  0  0  0  0  0  0  0  0  0
   18.6205  -24.7457   -6.3351 S   0  0  0  0  0  0  0  0  0  0  0  0
   18.4481  -24.8434   -8.1292 C   0  0  0  0  0  0  0  0  0  0  0  0
   18.9273  -23.6154   -8.8260 C   0  0  0  0  0  0  0  0  0  0  0  0
   18.9120  -23.7071  -10.3356 C   0  0  2  0  0  0  0  0  0  0  0  0
   19.2791  -22.3802  -10.8305 N   0  0  0  0  0  0  0  0  0  0  0  0
   17.6305  -24.1052  -10.9024 C   0  0  0  0  0  0  0  0  0  0  0  0
   16.6939  -23.2810  -11.0144 O   0  0  0  0  0  0  0  0  0  0  0  0
   17.4146  -25.3997  -11.3314 O   0  0  0  0  0  0  0  0  0  0  0  0
  2  1  1  6
  3  2  1  0
  3  4  1  0
  4  8  1  0
  4  5  2  0
  5  6  1  0
  7  6  1  0
  8  7  2  0
  9 18  1  0
  9  2  1  0
 10  9  2  0
 11 12  1  0
 12 13  2  0
 13 14  1  0
 15 16  1  0
 15 14  2  0
 17 16  1  6
 17 18  1  0
 19 17  1  0
 20 19  2  0
 21 15  1  0
 22 21  2  0
 22 12  1  0
 23 24  1  0
 24 25  1  0
 27 26  1  1
 26 25  1  0
 27 28  1  0
 28 19  1  0
 29 31  1  0
 29 27  1  0
 30 29  2  0
M  END
$$$$
