HYM.pdb
     RDKit          3D

 31 32  0  0  1  0  0  0  0  0999 V2000
   18.1411  -29.3717   -8.7163 N   0  0  0  0  0  0  0  0  0  0  0  0
   18.6818  -28.5423   -9.8055 C   0  0  1  0  0  0  0  0  0  0  0  0
   18.3481  -29.2937  -11.0777 C   0  0  0  0  0  0  0  0  0  0  0  0
   19.6358  -29.6072  -11.7539 C   0  0  0  0  0  0  0  0  0  0  0  0
   20.4184  -30.7473  -11.5544 C   0  0  0  0  0  0  0  0  0  0  0  0
   21.4952  -30.6802  -12.3322 N   0  0  0  0  0  0  0  0  0  0  0  0
   21.4354  -29.5204  -13.0374 C   0  0  0  0  0  0  0  0  0  0  0  0
   20.3054  -28.8934  -12.6698 N   0  0  0  0  0  0  0  0  0  0  0  0
   17.9965  -27.2362   -9.7408 C   0  0  0  0  0  0  0  0  0  0  0  0
   16.7361  -27.1342   -9.6302 O   0  0  0  0  0  0  0  0  0  0  0  0
   16.3350  -25.3930   -3.6272 O   0  0  0  0  0  0  0  0  0  0  0  0
   16.9089  -25.0448   -4.8406 C   0  0  0  0  0  0  0  0  0  0  0  0
   18.1724  -25.4989   -5.1558 C   0  0  0  0  0  0  0  0  0  0  0  0
   18.7483  -25.1557   -6.3615 C   0  0  0  0  0  0  0  0  0  0  0  0
   18.0211  -24.3438   -7.2427 C   0  0  0  0  0  0  0  0  0  0  0  0
   18.6174  -23.9446   -8.5323 C   0  0  0  0  0  0  0  0  0  0  0  0
   18.0994  -24.7209   -9.6951 C   0  0  2  0  0  0  0  0  0  0  0  0
   18.7201  -26.0317   -9.7995 N   0  0  0  0  0  0  0  0  0  0  0  0
   18.1883  -23.9801  -10.9612 C   0  0  0  0  0  0  0  0  0  0  0  0
   19.2615  -23.8000  -11.5783 O   0  0  0  0  0  0  0  0  0  0  0  0
   16.7591  -23.8967   -6.9152 C   0  0  0  0  0  0  0  0  0  0  0  0
   16.1807  -24.2406   -5.7061 C   0  0  0  0  0  0  0  0  0  0  0  0
   15.2339  -25.1649  -15.9300 C   0  0  0  0  0  0  0  0  0  0  0  0
   15.5188  -23.4679  -16.4325 S   0  0  0  0  0  0  0  0  0  0  0  0
   16.0631  -22.4137  -15.0722 C   0  0  0  0  0  0  0  0  0  0  0  0
   16.1101  -23.1304  -13.7655 C   0  0  0  0  0  0  0  0  0  0  0  0
   17.1483  -22.6029  -12.8004 C   0  0  2  0  0  0  0  0  0  0  0  0
   17.0203  -23.4038  -11.5828 N   0  0  0  0  0  0  0  0  0  0  0  0
   17.0069  -21.1899  -12.4757 C   0  0  0  0  0  0  0  0  0  0  0  0
   16.3566  -20.8241  -11.4695 O   0  0  0  0  0  0  0  0  0  0  0  0
   17.5856  -20.2176  -13.2669 O   0  0  0  0  0  0  0  0  0  0  0  0
  2  1  1  1
  3  2  1  0
  3  4  1  0
  4  8  1  0
  4  5  2  0
  5  6  1  0
  7  6  1  0
  8  7  2  0
  9 18  1  0
  9  2  1  0
 10  9  2  0
 11 12  1  0
 12 13  2  0
 13 14  1  0
 15 16  1  0
 15 14  2  0
 17 16  1  1
 17 18  1  0
 19 17  1  0
 20 19  2  0
 21 15  1  0
 22 21  2  0
 22 12  1  0
 23 24  1  0
 24 25  1  0
 27 26  1  6
 26 25  1  0
 27 28  1  0
 28 19  1  0
 29 31  1  0
 29 27  1  0
 30 29  2  0
M  END
$$$$
