HYM.pdb
     RDKit          3D

 31 32  0  0  1  0  0  0  0  0999 V2000
   26.2938  -17.8464  -17.0195 N   0  0  0  0  0  0  0  0  0  0  0  0
   27.0082  -18.4810  -15.8999 C   0  0  1  0  0  0  0  0  0  0  0  0
   28.1634  -17.5515  -15.5901 C   0  0  0  0  0  0  0  0  0  0  0  0
   29.0909  -17.6001  -16.7525 C   0  0  0  0  0  0  0  0  0  0  0  0
   29.8457  -18.7021  -17.1626 C   0  0  0  0  0  0  0  0  0  0  0  0
   30.5547  -18.3708  -18.2379 N   0  0  0  0  0  0  0  0  0  0  0  0
   30.2811  -17.0751  -18.5417 C   0  0  0  0  0  0  0  0  0  0  0  0
   29.3966  -16.6352  -17.6311 N   0  0  0  0  0  0  0  0  0  0  0  0
   26.0586  -18.5747  -14.7733 C   0  0  0  0  0  0  0  0  0  0  0  0
   25.4290  -17.5661  -14.3289 O   0  0  0  0  0  0  0  0  0  0  0  0
   19.6794  -20.9325   -9.4901 O   0  0  0  0  0  0  0  0  0  0  0  0
   20.6531  -20.8509  -10.4741 C   0  0  0  0  0  0  0  0  0  0  0  0
   20.7154  -19.7370  -11.2849 C   0  0  0  0  0  0  0  0  0  0  0  0
   21.6819  -19.6503  -12.2655 C   0  0  0  0  0  0  0  0  0  0  0  0
   22.5847  -20.7127  -12.4101 C   0  0  0  0  0  0  0  0  0  0  0  0
   23.6186  -20.6575  -13.4619 C   0  0  0  0  0  0  0  0  0  0  0  0
   24.8631  -19.9538  -13.0389 C   0  0  2  0  0  0  0  0  0  0  0  0
   25.8066  -19.8022  -14.1349 N   0  0  0  0  0  0  0  0  0  0  0  0
   25.4959  -20.5697  -11.8642 C   0  0  0  0  0  0  0  0  0  0  0  0
   26.0007  -21.7143  -11.8764 O   0  0  0  0  0  0  0  0  0  0  0  0
   22.5113  -21.8203  -11.5931 C   0  0  0  0  0  0  0  0  0  0  0  0
   21.5421  -21.9080  -10.6092 C   0  0  0  0  0  0  0  0  0  0  0  0
   29.0700  -19.3587   -4.9201 C   0  0  0  0  0  0  0  0  0  0  0  0
   28.3652  -18.7551   -6.4537 S   0  0  0  0  0  0  0  0  0  0  0  0
   27.4094  -20.0105   -7.3304 C   0  0  0  0  0  0  0  0  0  0  0  0
   26.8535  -19.5187   -8.6235 C   0  0  0  0  0  0  0  0  0  0  0  0
   26.0943  -20.5609   -9.4141 C   0  0  2  0  0  0  0  0  0  0  0  0
   25.5759  -19.8784  -10.5998 N   0  0  0  0  0  0  0  0  0  0  0  0
   24.9970  -21.1867   -8.6889 C   0  0  0  0  0  0  0  0  0  0  0  0
   25.1154  -22.3402   -8.2149 O   0  0  0  0  0  0  0  0  0  0  0  0
   23.7988  -20.5259   -8.5042 O   0  0  0  0  0  0  0  0  0  0  0  0
  2  1  1  6
  3  2  1  0
  3  4  1  0
  4  8  1  0
  4  5  2  0
  5  6  1  0
  7  6  1  0
  8  7  2  0
  9 18  1  0
  9  2  1  0
 10  9  2  0
 11 12  1  0
 12 13  2  0
 13 14  1  0
 15 16  1  0
 15 14  2  0
 17 16  1  6
 17 18  1  0
 19 17  1  0
 20 19  2  0
 21 15  1  0
 22 21  2  0
 22 12  1  0
 23 24  1  0
 24 25  1  0
 27 26  1  1
 26 25  1  0
 27 28  1  0
 28 19  1  0
 29 31  1  0
 29 27  1  0
 30 29  2  0
M  END
$$$$
