HYM.pdb
     RDKit          3D

 31 32  0  0  1  0  0  0  0  0999 V2000
   24.5495  -31.7264  -19.0262 N   0  0  0  0  0  0  0  0  0  0  0  0
   24.0227  -31.1064  -17.7995 C   0  0  1  0  0  0  0  0  0  0  0  0
   22.7313  -30.4349  -18.2188 C   0  0  0  0  0  0  0  0  0  0  0  0
   23.0993  -29.2066  -18.9735 C   0  0  0  0  0  0  0  0  0  0  0  0
   23.8441  -28.1291  -18.4870 C   0  0  0  0  0  0  0  0  0  0  0  0
   23.9714  -27.2168  -19.4464 N   0  0  0  0  0  0  0  0  0  0  0  0
   23.3259  -27.6729  -20.5515 C   0  0  0  0  0  0  0  0  0  0  0  0
   22.8097  -28.8734  -20.2390 N   0  0  0  0  0  0  0  0  0  0  0  0
   23.7889  -32.1927  -16.8274 C   0  0  0  0  0  0  0  0  0  0  0  0
   22.9774  -33.1427  -17.0513 O   0  0  0  0  0  0  0  0  0  0  0  0
   26.3375  -37.3282  -19.1242 O   0  0  0  0  0  0  0  0  0  0  0  0
   26.1493  -36.5508  -17.9914 C   0  0  0  0  0  0  0  0  0  0  0  0
   25.5186  -37.0885  -16.8891 C   0  0  0  0  0  0  0  0  0  0  0  0
   25.3286  -36.3199  -15.7594 C   0  0  0  0  0  0  0  0  0  0  0  0
   25.7892  -34.9961  -15.7662 C   0  0  0  0  0  0  0  0  0  0  0  0
   25.5846  -34.1431  -14.5793 C   0  0  0  0  0  0  0  0  0  0  0  0
   24.3449  -33.3173  -14.6444 C   0  0  2  0  0  0  0  0  0  0  0  0
   24.4644  -32.2228  -15.5943 N   0  0  0  0  0  0  0  0  0  0  0  0
   23.9067  -32.8406  -13.3251 C   0  0  0  0  0  0  0  0  0  0  0  0
   23.8446  -31.6295  -13.0177 O   0  0  0  0  0  0  0  0  0  0  0  0
   26.4178  -34.4710  -16.8747 C   0  0  0  0  0  0  0  0  0  0  0  0
   26.6089  -35.2414  -18.0083 C   0  0  0  0  0  0  0  0  0  0  0  0
   18.1644  -31.8517  -11.6170 C   0  0  0  0  0  0  0  0  0  0  0  0
   19.1592  -32.6597  -10.3638 S   0  0  0  0  0  0  0  0  0  0  0  0
   20.8491  -32.0294  -10.2931 C   0  0  0  0  0  0  0  0  0  0  0  0
   21.6869  -32.4851  -11.4392 C   0  0  0  0  0  0  0  0  0  0  0  0
   22.9239  -33.2587  -11.0403 C   0  0  2  0  0  0  0  0  0  0  0  0
   23.5132  -33.7580  -12.2828 N   0  0  0  0  0  0  0  0  0  0  0  0
   22.6732  -34.3712  -10.1342 C   0  0  0  0  0  0  0  0  0  0  0  0
   22.7104  -35.5544  -10.5440 O   0  0  0  0  0  0  0  0  0  0  0  0
   22.3888  -34.1517   -8.8010 O   0  0  0  0  0  0  0  0  0  0  0  0
  2  1  1  6
  3  2  1  0
  3  4  1  0
  4  8  1  0
  4  5  2  0
  5  6  1  0
  7  6  1  0
  8  7  2  0
  9 18  1  0
  9  2  1  0
 10  9  2  0
 11 12  1  0
 12 13  2  0
 13 14  1  0
 15 16  1  0
 15 14  2  0
 17 16  1  1
 17 18  1  0
 19 17  1  0
 20 19  2  0
 21 15  1  0
 22 21  2  0
 22 12  1  0
 23 24  1  0
 24 25  1  0
 27 26  1  6
 26 25  1  0
 27 28  1  0
 28 19  1  0
 29 31  1  0
 29 27  1  0
 30 29  2  0
M  END
$$$$
