HYM.pdb
     RDKit          3D

 31 32  0  0  1  0  0  0  0  0999 V2000
   26.9928  -18.9637  -16.7324 N   0  0  0  0  0  0  0  0  0  0  0  0
   27.6418  -18.5849  -15.4667 C   0  0  1  0  0  0  0  0  0  0  0  0
   28.0891  -17.1514  -15.6651 C   0  0  0  0  0  0  0  0  0  0  0  0
   29.2253  -17.1741  -16.6254 C   0  0  0  0  0  0  0  0  0  0  0  0
   29.7581  -18.3050  -17.2494 C   0  0  0  0  0  0  0  0  0  0  0  0
   30.7629  -17.9363  -18.0390 N   0  0  0  0  0  0  0  0  0  0  0  0
   30.9005  -16.5878  -17.9459 C   0  0  0  0  0  0  0  0  0  0  0  0
   29.9618  -16.1542  -17.0879 N   0  0  0  0  0  0  0  0  0  0  0  0
   26.6252  -18.7029  -14.4027 C   0  0  0  0  0  0  0  0  0  0  0  0
   25.7054  -17.8431  -14.2424 O   0  0  0  0  0  0  0  0  0  0  0  0
   19.6153  -21.0028  -10.4509 O   0  0  0  0  0  0  0  0  0  0  0  0
   20.8055  -20.9442  -11.1600 C   0  0  0  0  0  0  0  0  0  0  0  0
   21.1275  -19.8029  -11.8641 C   0  0  0  0  0  0  0  0  0  0  0  0
   22.3102  -19.7389  -12.5714 C   0  0  0  0  0  0  0  0  0  0  0  0
   23.1615  -20.8524  -12.5526 C   0  0  0  0  0  0  0  0  0  0  0  0
   24.4253  -20.8212  -13.3141 C   0  0  0  0  0  0  0  0  0  0  0  0
   25.5247  -20.0949  -12.6164 C   0  0  2  0  0  0  0  0  0  0  0  0
   26.6315  -19.7882  -13.5082 N   0  0  0  0  0  0  0  0  0  0  0  0
   25.9852  -20.7853  -11.4035 C   0  0  0  0  0  0  0  0  0  0  0  0
   26.0572  -22.0306  -11.3068 O   0  0  0  0  0  0  0  0  0  0  0  0
   22.8275  -21.9869  -11.8449 C   0  0  0  0  0  0  0  0  0  0  0  0
   21.6414  -22.0518  -11.1351 C   0  0  0  0  0  0  0  0  0  0  0  0
   29.1415  -19.8563   -4.6230 C   0  0  0  0  0  0  0  0  0  0  0  0
   27.7554  -19.0253   -5.3984 S   0  0  0  0  0  0  0  0  0  0  0  0
   26.8171  -20.1028   -6.5014 C   0  0  0  0  0  0  0  0  0  0  0  0
   26.9461  -19.7186   -7.9362 C   0  0  0  0  0  0  0  0  0  0  0  0
   26.2437  -20.6506   -8.8983 C   0  0  2  0  0  0  0  0  0  0  0  0
   26.3908  -20.0552  -10.2266 N   0  0  0  0  0  0  0  0  0  0  0  0
   24.8319  -20.8634   -8.6094 C   0  0  0  0  0  0  0  0  0  0  0  0
   23.9574  -20.1018   -9.0833 O   0  0  0  0  0  0  0  0  0  0  0  0
   24.4204  -21.9090   -7.8071 O   0  0  0  0  0  0  0  0  0  0  0  0
  2  1  1  6
  3  2  1  0
  3  4  1  0
  4  8  1  0
  4  5  2  0
  5  6  1  0
  7  6  1  0
  8  7  2  0
  9 18  1  0
  9  2  1  0
 10  9  2  0
 11 12  1  0
 12 13  2  0
 13 14  1  0
 15 16  1  0
 15 14  2  0
 17 16  1  6
 17 18  1  0
 19 17  1  0
 20 19  2  0
 21 15  1  0
 22 21  2  0
 22 12  1  0
 23 24  1  0
 24 25  1  0
 27 26  1  1
 26 25  1  0
 27 28  1  0
 28 19  1  0
 29 31  1  0
 29 27  1  0
 30 29  2  0
M  END
$$$$
