HYM.pdb
     RDKit          3D

 31 32  0  0  1  0  0  0  0  0999 V2000
   23.7839  -12.8808  -17.9916 N   0  0  0  0  0  0  0  0  0  0  0  0
   22.7844  -11.9471  -18.5356 C   0  0  1  0  0  0  0  0  0  0  0  0
   21.5824  -12.8057  -18.8711 C   0  0  0  0  0  0  0  0  0  0  0  0
   21.9717  -13.6818  -20.0089 C   0  0  0  0  0  0  0  0  0  0  0  0
   22.5369  -13.2659  -21.2171 C   0  0  0  0  0  0  0  0  0  0  0  0
   22.7489  -14.3279  -21.9892 N   0  0  0  0  0  0  0  0  0  0  0  0
   22.3348  -15.4313  -21.3132 C   0  0  0  0  0  0  0  0  0  0  0  0
   21.8711  -15.0135  -20.1234 N   0  0  0  0  0  0  0  0  0  0  0  0
   22.4818  -10.9654  -17.4752 C   0  0  0  0  0  0  0  0  0  0  0  0
   21.9938  -11.3044  -16.3536 O   0  0  0  0  0  0  0  0  0  0  0  0
   21.1246   -3.0369  -13.8159 O   0  0  0  0  0  0  0  0  0  0  0  0
   21.5966   -4.0943  -14.5789 C   0  0  0  0  0  0  0  0  0  0  0  0
   22.3398   -5.0911  -13.9823 C   0  0  0  0  0  0  0  0  0  0  0  0
   22.8119   -6.1454  -14.7363 C   0  0  0  0  0  0  0  0  0  0  0  0
   22.5176   -6.1719  -16.1065 C   0  0  0  0  0  0  0  0  0  0  0  0
   23.0238   -7.2772  -16.9433 C   0  0  0  0  0  0  0  0  0  0  0  0
   22.3217   -8.5718  -16.7107 C   0  0  2  0  0  0  0  0  0  0  0  0
   22.7247   -9.5931  -17.6641 N   0  0  0  0  0  0  0  0  0  0  0  0
   20.8600   -8.4275  -16.6611 C   0  0  0  0  0  0  0  0  0  0  0  0
   20.1406   -8.3631  -17.6826 O   0  0  0  0  0  0  0  0  0  0  0  0
   21.7737   -5.1692  -16.6903 C   0  0  0  0  0  0  0  0  0  0  0  0
   21.2997   -4.1113  -15.9346 C   0  0  0  0  0  0  0  0  0  0  0  0
   14.3226  -11.5424  -14.6560 C   0  0  0  0  0  0  0  0  0  0  0  0
   16.1064  -11.4310  -14.7931 S   0  0  0  0  0  0  0  0  0  0  0  0
   16.6919   -9.7351  -14.9908 C   0  0  0  0  0  0  0  0  0  0  0  0
   18.1691   -9.6487  -15.1734 C   0  0  0  0  0  0  0  0  0  0  0  0
   18.6916   -8.2453  -15.3861 C   0  0  2  0  0  0  0  0  0  0  0  0
   20.1507   -8.3500  -15.4067 N   0  0  0  0  0  0  0  0  0  0  0  0
   18.2824   -7.2887  -14.3667 C   0  0  0  0  0  0  0  0  0  0  0  0
   17.0920   -6.9070  -14.2848 O   0  0  0  0  0  0  0  0  0  0  0  0
   19.1942   -6.7783  -13.4642 O   0  0  0  0  0  0  0  0  0  0  0  0
  2  1  1  1
  3  2  1  0
  3  4  1  0
  4  8  1  0
  4  5  2  0
  5  6  1  0
  7  6  1  0
  8  7  2  0
  9 18  1  0
  9  2  1  0
 10  9  2  0
 11 12  1  0
 12 13  2  0
 13 14  1  0
 15 16  1  0
 15 14  2  0
 17 16  1  6
 17 18  1  0
 19 17  1  0
 20 19  2  0
 21 15  1  0
 22 21  2  0
 22 12  1  0
 23 24  1  0
 24 25  1  0
 27 26  1  1
 26 25  1  0
 27 28  1  0
 28 19  1  0
 29 31  1  0
 29 27  1  0
 30 29  2  0
M  END
$$$$
