HYM.pdb
     RDKit          3D

 31 32  0  0  1  0  0  0  0  0999 V2000
   23.9679  -18.5502  -18.5574 N   0  0  0  0  0  0  0  0  0  0  0  0
   24.1225  -18.1163  -17.1594 C   0  0  1  0  0  0  0  0  0  0  0  0
   22.7233  -18.1432  -16.5798 C   0  0  0  0  0  0  0  0  0  0  0  0
   22.0239  -16.9219  -17.0624 C   0  0  0  0  0  0  0  0  0  0  0  0
   21.0903  -16.8591  -18.1001 C   0  0  0  0  0  0  0  0  0  0  0  0
   20.6815  -15.6018  -18.2451 N   0  0  0  0  0  0  0  0  0  0  0  0
   21.3270  -14.8388  -17.3247 C   0  0  0  0  0  0  0  0  0  0  0  0
   22.1294  -15.6590  -16.6257 N   0  0  0  0  0  0  0  0  0  0  0  0
   25.0126  -19.0899  -16.4963 C   0  0  0  0  0  0  0  0  0  0  0  0
   24.9724  -20.3324  -16.7523 O   0  0  0  0  0  0  0  0  0  0  0  0
   30.8187  -22.3110  -10.6773 O   0  0  0  0  0  0  0  0  0  0  0  0
   30.0485  -21.4741  -11.4706 C   0  0  0  0  0  0  0  0  0  0  0  0
   30.2367  -21.4615  -12.8367 C   0  0  0  0  0  0  0  0  0  0  0  0
   29.4735  -20.6310  -13.6310 C   0  0  0  0  0  0  0  0  0  0  0  0
   28.5156  -19.8129  -13.0162 C   0  0  0  0  0  0  0  0  0  0  0  0
   27.6961  -18.9003  -13.8370 C   0  0  0  0  0  0  0  0  0  0  0  0
   26.7361  -19.6045  -14.7345 C   0  0  2  0  0  0  0  0  0  0  0  0
   25.9569  -18.6774  -15.5392 N   0  0  0  0  0  0  0  0  0  0  0  0
   25.8725  -20.5518  -14.0157 C   0  0  0  0  0  0  0  0  0  0  0  0
   26.0083  -21.7936  -14.0837 O   0  0  0  0  0  0  0  0  0  0  0  0
   28.3378  -19.8352  -11.6496 C   0  0  0  0  0  0  0  0  0  0  0  0
   29.1030  -20.6681  -10.8523 C   0  0  0  0  0  0  0  0  0  0  0  0
   27.5060  -20.6663   -8.8049 C   0  0  0  0  0  0  0  0  0  0  0  0
   26.2999  -21.9843   -8.6582 S   0  0  0  0  0  0  0  0  0  0  0  0
   24.9612  -21.8494   -9.8615 C   0  0  0  0  0  0  0  0  0  0  0  0
   25.3677  -21.1324  -11.1039 C   0  0  0  0  0  0  0  0  0  0  0  0
   24.2605  -20.9679  -12.1212 C   0  0  2  0  0  0  0  0  0  0  0  0
   24.7940  -20.0990  -13.1704 N   0  0  0  0  0  0  0  0  0  0  0  0
   23.0318  -20.3958  -11.5876 C   0  0  0  0  0  0  0  0  0  0  0  0
   22.7363  -19.1971  -11.8000 O   0  0  0  0  0  0  0  0  0  0  0  0
   22.1609  -21.1585  -10.8352 O   0  0  0  0  0  0  0  0  0  0  0  0
  2  1  1  6
  3  2  1  0
  3  4  1  0
  4  8  1  0
  4  5  2  0
  5  6  1  0
  7  6  1  0
  8  7  2  0
  9 18  1  0
  9  2  1  0
 10  9  2  0
 11 12  1  0
 12 13  2  0
 13 14  1  0
 15 16  1  0
 15 14  2  0
 17 16  1  1
 17 18  1  0
 19 17  1  0
 20 19  2  0
 21 15  1  0
 22 21  2  0
 22 12  1  0
 23 24  1  0
 24 25  1  0
 27 26  1  1
 26 25  1  0
 27 28  1  0
 28 19  1  0
 29 31  1  0
 29 27  1  0
 30 29  2  0
M  END
$$$$
