HYM.pdb
     RDKit          3D

 31 32  0  0  1  0  0  0  0  0999 V2000
   27.4194  -24.2320  -16.2746 N   0  0  0  0  0  0  0  0  0  0  0  0
   26.8195  -22.9044  -16.4854 C   0  0  1  0  0  0  0  0  0  0  0  0
   25.9336  -23.0597  -17.7042 C   0  0  0  0  0  0  0  0  0  0  0  0
   26.8193  -23.0219  -18.8992 C   0  0  0  0  0  0  0  0  0  0  0  0
   27.0388  -24.0680  -19.7992 C   0  0  0  0  0  0  0  0  0  0  0  0
   27.8897  -23.6653  -20.7387 N   0  0  0  0  0  0  0  0  0  0  0  0
   28.2329  -22.3776  -20.4740 C   0  0  0  0  0  0  0  0  0  0  0  0
   27.5740  -22.0149  -19.3607 N   0  0  0  0  0  0  0  0  0  0  0  0
   26.0393  -22.5810  -15.2745 C   0  0  0  0  0  0  0  0  0  0  0  0
   25.5627  -23.4775  -14.5129 O   0  0  0  0  0  0  0  0  0  0  0  0
   29.5942  -21.3598   -9.2636 O   0  0  0  0  0  0  0  0  0  0  0  0
   28.6455  -20.9626  -10.1937 C   0  0  0  0  0  0  0  0  0  0  0  0
   29.0439  -20.5791  -11.4571 C   0  0  0  0  0  0  0  0  0  0  0  0
   28.1046  -20.1829  -12.3865 C   0  0  0  0  0  0  0  0  0  0  0  0
   26.7536  -20.1821  -12.0130 C   0  0  0  0  0  0  0  0  0  0  0  0
   25.7266  -19.7463  -12.9792 C   0  0  0  0  0  0  0  0  0  0  0  0
   25.0681  -20.8735  -13.6993 C   0  0  2  0  0  0  0  0  0  0  0  0
   25.7869  -21.2471  -14.9069 N   0  0  0  0  0  0  0  0  0  0  0  0
   23.6465  -20.6224  -13.9742 C   0  0  0  0  0  0  0  0  0  0  0  0
   23.2455  -19.8896  -14.9055 O   0  0  0  0  0  0  0  0  0  0  0  0
   26.3689  -20.5676  -10.7469 C   0  0  0  0  0  0  0  0  0  0  0  0
   27.3105  -20.9653   -9.8140 C   0  0  0  0  0  0  0  0  0  0  0  0
   16.3119  -23.3874  -12.7903 C   0  0  0  0  0  0  0  0  0  0  0  0
   18.0357  -23.3605  -12.2995 S   0  0  0  0  0  0  0  0  0  0  0  0
   18.9306  -21.9354  -12.9526 C   0  0  0  0  0  0  0  0  0  0  0  0
   20.4100  -22.0716  -12.8266 C   0  0  0  0  0  0  0  0  0  0  0  0
   21.1976  -20.9510  -13.4681 C   0  0  2  0  0  0  0  0  0  0  0  0
   22.6052  -21.2175  -13.1714 N   0  0  0  0  0  0  0  0  0  0  0  0
   20.8410  -19.6186  -13.0000 C   0  0  0  0  0  0  0  0  0  0  0  0
   21.2856  -19.1788  -11.9145 O   0  0  0  0  0  0  0  0  0  0  0  0
   20.0051  -18.8056  -13.7394 O   0  0  0  0  0  0  0  0  0  0  0  0
  2  1  1  1
  3  2  1  0
  3  4  1  0
  4  8  1  0
  4  5  2  0
  5  6  1  0
  7  6  1  0
  8  7  2  0
  9 18  1  0
  9  2  1  0
 10  9  2  0
 11 12  1  0
 12 13  2  0
 13 14  1  0
 15 16  1  0
 15 14  2  0
 17 16  1  6
 17 18  1  0
 19 17  1  0
 20 19  2  0
 21 15  1  0
 22 21  2  0
 22 12  1  0
 23 24  1  0
 24 25  1  0
 27 26  1  1
 26 25  1  0
 27 28  1  0
 28 19  1  0
 29 31  1  0
 29 27  1  0
 30 29  2  0
M  END
$$$$
