HYM.pdb
     RDKit          3D

 31 32  0  0  1  0  0  0  0  0999 V2000
   22.1243  -11.2957  -20.0830 N   0  0  0  0  0  0  0  0  0  0  0  0
   22.9031  -10.2598  -19.3851 C   0  0  1  0  0  0  0  0  0  0  0  0
   23.3479   -9.3011  -20.4703 C   0  0  0  0  0  0  0  0  0  0  0  0
   24.3584  -10.0128  -21.2986 C   0  0  0  0  0  0  0  0  0  0  0  0
   25.6093  -10.4643  -20.8701 C   0  0  0  0  0  0  0  0  0  0  0  0
   26.2333  -11.0534  -21.8862 N   0  0  0  0  0  0  0  0  0  0  0  0
   25.4183  -10.9978  -22.9719 C   0  0  0  0  0  0  0  0  0  0  0  0
   24.2958  -10.3659  -22.5902 N   0  0  0  0  0  0  0  0  0  0  0  0
   21.9977   -9.6126  -18.4151 C   0  0  0  0  0  0  0  0  0  0  0  0
   20.7905   -9.3348  -18.6920 O   0  0  0  0  0  0  0  0  0  0  0  0
   17.6144  -13.5754  -16.5205 O   0  0  0  0  0  0  0  0  0  0  0  0
   18.5029  -12.5798  -16.1434 C   0  0  0  0  0  0  0  0  0  0  0  0
   18.0475  -11.2922  -15.9522 C   0  0  0  0  0  0  0  0  0  0  0  0
   18.9268  -10.2976  -15.5770 C   0  0  0  0  0  0  0  0  0  0  0  0
   20.2766  -10.6309  -15.3989 C   0  0  0  0  0  0  0  0  0  0  0  0
   21.2449   -9.5853  -15.0153 C   0  0  0  0  0  0  0  0  0  0  0  0
   21.5841   -8.6498  -16.1256 C   0  0  2  0  0  0  0  0  0  0  0  0
   22.4392   -9.2712  -17.1242 N   0  0  0  0  0  0  0  0  0  0  0  0
   22.1475   -7.3788  -15.6492 C   0  0  0  0  0  0  0  0  0  0  0  0
   23.3413   -7.2441  -15.3001 O   0  0  0  0  0  0  0  0  0  0  0  0
   20.7186  -11.9218  -15.5934 C   0  0  0  0  0  0  0  0  0  0  0  0
   19.8372  -12.9200  -15.9696 C   0  0  0  0  0  0  0  0  0  0  0  0
   20.9496    0.4888  -15.4085 C   0  0  0  0  0  0  0  0  0  0  0  0
   20.4187   -1.1593  -15.8723 S   0  0  0  0  0  0  0  0  0  0  0  0
   21.4578   -2.4568  -15.1687 C   0  0  0  0  0  0  0  0  0  0  0  0
   21.0892   -3.8195  -15.6485 C   0  0  0  0  0  0  0  0  0  0  0  0
   21.9268   -4.9354  -15.0646 C   0  0  2  0  0  0  0  0  0  0  0  0
   21.3428   -6.1847  -15.5531 N   0  0  0  0  0  0  0  0  0  0  0  0
   21.9770   -4.9532  -13.6089 C   0  0  0  0  0  0  0  0  0  0  0  0
   21.2057   -5.6869  -12.9486 O   0  0  0  0  0  0  0  0  0  0  0  0
   22.8752   -4.1635  -12.9191 O   0  0  0  0  0  0  0  0  0  0  0  0
  2  1  1  6
  3  2  1  0
  3  4  1  0
  4  8  1  0
  4  5  2  0
  5  6  1  0
  7  6  1  0
  8  7  2  0
  9 18  1  0
  9  2  1  0
 10  9  2  0
 11 12  1  0
 12 13  2  0
 13 14  1  0
 15 16  1  0
 15 14  2  0
 17 16  1  1
 17 18  1  0
 19 17  1  0
 20 19  2  0
 21 15  1  0
 22 21  2  0
 22 12  1  0
 23 24  1  0
 24 25  1  0
 27 26  1  1
 26 25  1  0
 27 28  1  0
 28 19  1  0
 29 31  1  0
 29 27  1  0
 30 29  2  0
M  END
$$$$
