HYM.pdb
     RDKit          3D

 31 32  0  0  1  0  0  0  0  0999 V2000
   26.2303  -19.9798  -19.3665 N   0  0  0  0  0  0  0  0  0  0  0  0
   26.0179  -19.0093  -18.2805 C   0  0  1  0  0  0  0  0  0  0  0  0
   24.8795  -18.1291  -18.7537 C   0  0  0  0  0  0  0  0  0  0  0  0
   25.4236  -17.2389  -19.8145 C   0  0  0  0  0  0  0  0  0  0  0  0
   24.9350  -17.1106  -21.1172 C   0  0  0  0  0  0  0  0  0  0  0  0
   25.6741  -16.2224  -21.7759 N   0  0  0  0  0  0  0  0  0  0  0  0
   26.6369  -15.7657  -20.9330 C   0  0  0  0  0  0  0  0  0  0  0  0
   26.4630  -16.3944  -19.7585 N   0  0  0  0  0  0  0  0  0  0  0  0
   25.6553  -19.7779  -17.0732 C   0  0  0  0  0  0  0  0  0  0  0  0
   24.7503  -20.6678  -17.0799 O   0  0  0  0  0  0  0  0  0  0  0  0
   24.9335  -21.3769   -8.4200 O   0  0  0  0  0  0  0  0  0  0  0  0
   25.3961  -21.0145   -9.6760 C   0  0  0  0  0  0  0  0  0  0  0  0
   25.8427  -21.9856  -10.5475 C   0  0  0  0  0  0  0  0  0  0  0  0
   26.3041  -21.6310  -11.7983 C   0  0  0  0  0  0  0  0  0  0  0  0
   26.3050  -20.2744  -12.1507 C   0  0  0  0  0  0  0  0  0  0  0  0
   26.8094  -19.8618  -13.4750 C   0  0  0  0  0  0  0  0  0  0  0  0
   25.8471  -20.1145  -14.5853 C   0  0  2  0  0  0  0  0  0  0  0  0
   26.3058  -19.5545  -15.8465 N   0  0  0  0  0  0  0  0  0  0  0  0
   24.4806  -19.6775  -14.2669 C   0  0  0  0  0  0  0  0  0  0  0  0
   24.1212  -18.4792  -14.2816 O   0  0  0  0  0  0  0  0  0  0  0  0
   25.8560  -19.3139  -11.2701 C   0  0  0  0  0  0  0  0  0  0  0  0
   25.3930  -19.6688  -10.0152 C   0  0  0  0  0  0  0  0  0  0  0  0
   20.3066  -17.3162  -16.7901 C   0  0  0  0  0  0  0  0  0  0  0  0
   19.2586  -18.5208  -15.9754 S   0  0  0  0  0  0  0  0  0  0  0  0
   20.0174  -19.2282  -14.4982 C   0  0  0  0  0  0  0  0  0  0  0  0
   21.4258  -19.6636  -14.7211 C   0  0  0  0  0  0  0  0  0  0  0  0
   22.1331  -20.1528  -13.4768 C   0  0  2  0  0  0  0  0  0  0  0  0
   23.4490  -20.6220  -13.9112 N   0  0  0  0  0  0  0  0  0  0  0  0
   21.4398  -21.2212  -12.7699 C   0  0  0  0  0  0  0  0  0  0  0  0
   21.6994  -22.4233  -13.0085 O   0  0  0  0  0  0  0  0  0  0  0  0
   20.4797  -20.9379  -11.8190 O   0  0  0  0  0  0  0  0  0  0  0  0
  2  1  1  6
  3  2  1  0
  3  4  1  0
  4  8  1  0
  4  5  2  0
  5  6  1  0
  7  6  1  0
  8  7  2  0
  9 18  1  0
  9  2  1  0
 10  9  2  0
 11 12  1  0
 12 13  2  0
 13 14  1  0
 15 16  1  0
 15 14  2  0
 17 16  1  1
 17 18  1  0
 19 17  1  0
 20 19  2  0
 21 15  1  0
 22 21  2  0
 22 12  1  0
 23 24  1  0
 24 25  1  0
 27 26  1  6
 26 25  1  0
 27 28  1  0
 28 19  1  0
 29 31  1  0
 29 27  1  0
 30 29  2  0
M  END
$$$$
