HYM.pdb
     RDKit          3D

 31 32  0  0  1  0  0  0  0  0999 V2000
   26.0262  -23.6758  -16.3249 N   0  0  0  0  0  0  0  0  0  0  0  0
   26.2104  -22.2612  -15.9618 C   0  0  1  0  0  0  0  0  0  0  0  0
   25.2261  -21.4998  -16.8254 C   0  0  0  0  0  0  0  0  0  0  0  0
   25.8723  -21.2912  -18.1493 C   0  0  0  0  0  0  0  0  0  0  0  0
   27.2136  -21.5274  -18.4611 C   0  0  0  0  0  0  0  0  0  0  0  0
   27.4247  -21.2274  -19.7395 N   0  0  0  0  0  0  0  0  0  0  0  0
   26.2506  -20.7996  -20.2727 C   0  0  0  0  0  0  0  0  0  0  0  0
   25.3322  -20.8479  -19.2931 N   0  0  0  0  0  0  0  0  0  0  0  0
   25.8955  -22.1352  -14.5249 C   0  0  0  0  0  0  0  0  0  0  0  0
   24.9635  -22.7962  -13.9723 O   0  0  0  0  0  0  0  0  0  0  0  0
   26.3966  -19.5120   -6.1260 O   0  0  0  0  0  0  0  0  0  0  0  0
   26.6630  -19.7617   -7.4637 C   0  0  0  0  0  0  0  0  0  0  0  0
   27.4257  -20.8550   -7.8174 C   0  0  0  0  0  0  0  0  0  0  0  0
   27.6941  -21.1084   -9.1466 C   0  0  0  0  0  0  0  0  0  0  0  0
   27.1758  -20.2340  -10.1118 C   0  0  0  0  0  0  0  0  0  0  0  0
   27.4607  -20.4681  -11.5408 C   0  0  0  0  0  0  0  0  0  0  0  0
   26.3114  -21.0513  -12.2906 C   0  0  2  0  0  0  0  0  0  0  0  0
   26.6247  -21.2654  -13.6944 N   0  0  0  0  0  0  0  0  0  0  0  0
   25.0720  -20.2789  -12.1267 C   0  0  0  0  0  0  0  0  0  0  0  0
   24.7828  -19.2859  -12.8305 O   0  0  0  0  0  0  0  0  0  0  0  0
   26.4151  -19.1449   -9.7446 C   0  0  0  0  0  0  0  0  0  0  0  0
   26.1454  -18.8900   -8.4115 C   0  0  0  0  0  0  0  0  0  0  0  0
   19.9849  -18.4977  -15.1137 C   0  0  0  0  0  0  0  0  0  0  0  0
   21.4101  -19.0995  -14.2083 S   0  0  0  0  0  0  0  0  0  0  0  0
   21.0629  -20.5999  -13.2669 C   0  0  0  0  0  0  0  0  0  0  0  0
   22.2629  -21.1324  -12.5601 C   0  0  0  0  0  0  0  0  0  0  0  0
   22.6756  -20.3357  -11.3424 C   0  0  2  0  0  0  0  0  0  0  0  0
   24.0930  -20.6253  -11.1245 N   0  0  0  0  0  0  0  0  0  0  0  0
   21.9204  -20.6443  -10.1357 C   0  0  0  0  0  0  0  0  0  0  0  0
   22.2938  -21.5536   -9.3592 O   0  0  0  0  0  0  0  0  0  0  0  0
   20.7747  -19.9433   -9.8157 O   0  0  0  0  0  0  0  0  0  0  0  0
  2  1  1  6
  3  2  1  0
  3  4  1  0
  4  8  1  0
  4  5  2  0
  5  6  1  0
  7  6  1  0
  8  7  2  0
  9 18  1  0
  9  2  1  0
 10  9  2  0
 11 12  1  0
 12 13  2  0
 13 14  1  0
 15 16  1  0
 15 14  2  0
 17 16  1  6
 17 18  1  0
 19 17  1  0
 20 19  2  0
 21 15  1  0
 22 21  2  0
 22 12  1  0
 23 24  1  0
 24 25  1  0
 27 26  1  6
 26 25  1  0
 27 28  1  0
 28 19  1  0
 29 31  1  0
 29 27  1  0
 30 29  2  0
M  END
$$$$
