TYA.pdb
     RDKit          3D

 25 25  0  0  1  0  0  0  0  0999 V2000
    7.2278  -21.0846   24.8005 C   0  0  0  0  0  0  0  0  0  0  0  0
    6.4129  -21.7393   23.7205 C   0  0  1  0  0  0  0  0  0  0  0  0
    5.5202  -22.6489   24.3466 O   0  0  0  0  0  0  0  0  0  0  0  0
    5.5530  -20.7470   22.9839 C   0  0  2  0  0  0  0  0  0  0  0  0
    4.7914  -21.5111   21.9641 N   0  0  0  0  0  0  0  0  0  0  0  0
    6.2564  -19.6316   22.3583 C   0  0  0  0  0  0  0  0  0  0  0  0
    6.9060  -19.8842   21.2794 O   0  0  0  0  0  0  0  0  0  0  0  0
    8.7807  -11.7228   19.3043 O   0  0  0  0  0  0  0  0  0  0  0  0
    8.2114  -12.7513   20.0442 C   0  0  0  0  0  0  0  0  0  0  0  0
    8.3924  -12.8745   21.4114 C   0  0  0  0  0  0  0  0  0  0  0  0
    7.8253  -13.8899   22.1159 C   0  0  0  0  0  0  0  0  0  0  0  0
    7.0408  -14.8312   21.4411 C   0  0  0  0  0  0  0  0  0  0  0  0
    6.4618  -15.9512   22.2044 C   0  0  0  0  0  0  0  0  0  0  0  0
    7.1483  -17.2602   22.1236 C   0  0  2  0  0  0  0  0  0  0  0  0
    6.3099  -18.2953   22.7970 N   0  0  0  0  0  0  0  0  0  0  0  0
    8.5223  -17.3565   22.6156 C   0  0  0  0  0  0  0  0  0  0  0  0
    8.7384  -17.4201   23.8881 O   0  0  0  0  0  0  0  0  0  0  0  0
    6.8565  -14.7155   20.0836 C   0  0  0  0  0  0  0  0  0  0  0  0
    7.4332  -13.6876   19.3845 C   0  0  0  0  0  0  0  0  0  0  0  0
   12.0595  -17.7647   21.3534 C   0  0  0  0  0  0  0  0  0  0  0  0
   11.0036  -17.5436   22.4409 C   0  0  2  0  0  0  0  0  0  0  0  0
    9.7072  -17.3976   21.8400 N   0  0  0  0  0  0  0  0  0  0  0  0
   11.4221  -16.3462   23.1854 C   0  0  0  0  0  0  0  0  0  0  0  0
   10.7747  -15.2486   23.0769 O   0  0  0  0  0  0  0  0  0  0  0  0
   12.5124  -16.3799   24.0101 O   0  0  0  0  0  0  0  0  0  0  0  0
  2  4  1  0
  2  1  1  1
  3  2  1  0
  4  6  1  0
  4  5  1  6
  6  7  2  0
  8  9  1  0
  9 19  2  0
 10 11  2  0
 10  9  1  0
 11 12  1  0
 12 13  1  0
 12 18  2  0
 14 13  1  1
 14 16  1  0
 15  6  1  0
 15 14  1  0
 16 17  2  0
 19 18  1  0
 21 20  1  6
 21 23  1  0
 22 21  1  0
 22 16  1  0
 23 25  1  0
 24 23  2  0
M  END
$$$$
