TYA.pdb
     RDKit          3D

 25 25  0  0  1  0  0  0  0  0999 V2000
    7.3238  -16.3098   19.5352 C   0  0  0  0  0  0  0  0  0  0  0  0
    7.7670  -14.9823   18.9872 C   0  0  1  0  0  0  0  0  0  0  0  0
    7.0090  -14.7262   17.8142 O   0  0  0  0  0  0  0  0  0  0  0  0
    7.4666  -13.8525   19.9360 C   0  0  2  0  0  0  0  0  0  0  0  0
    7.7494  -12.5910   19.2064 N   0  0  0  0  0  0  0  0  0  0  0  0
    8.1874  -13.8746   21.2050 C   0  0  0  0  0  0  0  0  0  0  0  0
    9.4490  -13.6370   21.1625 O   0  0  0  0  0  0  0  0  0  0  0  0
   10.2675  -15.0181   29.8302 O   0  0  0  0  0  0  0  0  0  0  0  0
    9.6273  -14.7921   28.6184 C   0  0  0  0  0  0  0  0  0  0  0  0
    8.9461  -15.7876   27.9384 C   0  0  0  0  0  0  0  0  0  0  0  0
    8.3263  -15.5438   26.7530 C   0  0  0  0  0  0  0  0  0  0  0  0
    8.3795  -14.2559   26.2094 C   0  0  0  0  0  0  0  0  0  0  0  0
    7.7391  -14.0086   24.9052 C   0  0  0  0  0  0  0  0  0  0  0  0
    8.5282  -14.3078   23.6890 C   0  0  2  0  0  0  0  0  0  0  0  0
    7.6627  -14.1259   22.4866 N   0  0  0  0  0  0  0  0  0  0  0  0
    9.2101  -15.5989   23.6025 C   0  0  0  0  0  0  0  0  0  0  0  0
    8.5195  -16.6684   23.3801 O   0  0  0  0  0  0  0  0  0  0  0  0
    9.0539  -13.2623   26.8788 C   0  0  0  0  0  0  0  0  0  0  0  0
    9.6746  -13.5203   28.0729 C   0  0  0  0  0  0  0  0  0  0  0  0
   12.4270  -17.1021   22.7419 C   0  0  0  0  0  0  0  0  0  0  0  0
   11.1563  -17.1592   23.5953 C   0  0  2  0  0  0  0  0  0  0  0  0
   10.5999  -15.8420   23.7311 N   0  0  0  0  0  0  0  0  0  0  0  0
   11.5515  -17.7440   24.8857 C   0  0  0  0  0  0  0  0  0  0  0  0
   12.1182  -18.8892   24.9392 O   0  0  0  0  0  0  0  0  0  0  0  0
   11.3218  -17.0762   26.0568 O   0  0  0  0  0  0  0  0  0  0  0  0
  2  4  1  0
  2  1  1  1
  3  2  1  0
  4  6  1  0
  4  5  1  6
  6  7  2  0
  8  9  1  0
  9 19  2  0
 10 11  2  0
 10  9  1  0
 11 12  1  0
 12 13  1  0
 12 18  2  0
 14 13  1  1
 14 16  1  0
 15  6  1  0
 15 14  1  0
 16 17  2  0
 19 18  1  0
 21 20  1  6
 21 23  1  0
 22 21  1  0
 22 16  1  0
 23 25  1  0
 24 23  2  0
M  END
$$$$
