TYA.pdb
     RDKit          3D

 25 25  0  0  1  0  0  0  0  0999 V2000
    6.6113  -14.6592   17.6304 C   0  0  0  0  0  0  0  0  0  0  0  0
    7.2793  -14.8733   18.9596 C   0  0  1  0  0  0  0  0  0  0  0  0
    8.5671  -15.4174   18.7115 O   0  0  0  0  0  0  0  0  0  0  0  0
    7.5052  -13.5772   19.6917 C   0  0  2  0  0  0  0  0  0  0  0  0
    8.3316  -12.7203   18.8049 N   0  0  0  0  0  0  0  0  0  0  0  0
    8.1244  -13.6864   21.0090 C   0  0  0  0  0  0  0  0  0  0  0  0
    9.4082  -13.7012   21.0497 O   0  0  0  0  0  0  0  0  0  0  0  0
    9.3513  -14.1522   29.8714 O   0  0  0  0  0  0  0  0  0  0  0  0
    8.8479  -13.9570   28.5916 C   0  0  0  0  0  0  0  0  0  0  0  0
    7.5155  -14.1621   28.2756 C   0  0  0  0  0  0  0  0  0  0  0  0
    7.0442  -13.9648   27.0154 C   0  0  0  0  0  0  0  0  0  0  0  0
    7.9286  -13.5446   26.0162 C   0  0  0  0  0  0  0  0  0  0  0  0
    7.4191  -13.3709   24.6441 C   0  0  0  0  0  0  0  0  0  0  0  0
    8.2260  -13.9356   23.5391 C   0  0  2  0  0  0  0  0  0  0  0  0
    7.4792  -13.7769   22.2565 N   0  0  0  0  0  0  0  0  0  0  0  0
    8.6969  -15.3155   23.6564 C   0  0  0  0  0  0  0  0  0  0  0  0
    7.8632  -16.2879   23.4844 O   0  0  0  0  0  0  0  0  0  0  0  0
    9.2530  -13.3390   26.3224 C   0  0  0  0  0  0  0  0  0  0  0  0
    9.7160  -13.5412   27.5962 C   0  0  0  0  0  0  0  0  0  0  0  0
   11.5886  -17.3915   23.0893 C   0  0  0  0  0  0  0  0  0  0  0  0
   10.3674  -17.1396   23.9790 C   0  0  2  0  0  0  0  0  0  0  0  0
   10.0155  -15.7475   23.9422 N   0  0  0  0  0  0  0  0  0  0  0  0
   10.7378  -17.5957   25.3274 C   0  0  0  0  0  0  0  0  0  0  0  0
   11.0791  -18.8103   25.5367 O   0  0  0  0  0  0  0  0  0  0  0  0
   10.7255  -16.7313   26.3870 O   0  0  0  0  0  0  0  0  0  0  0  0
  2  4  1  0
  2  1  1  6
  3  2  1  0
  4  6  1  0
  4  5  1  6
  6  7  2  0
  8  9  1  0
  9 19  2  0
 10 11  2  0
 10  9  1  0
 11 12  1  0
 12 13  1  0
 12 18  2  0
 14 13  1  1
 14 16  1  0
 15  6  1  0
 15 14  1  0
 16 17  2  0
 19 18  1  0
 21 20  1  6
 21 23  1  0
 22 21  1  0
 22 16  1  0
 23 25  1  0
 24 23  2  0
M  END
$$$$
