TYA.pdb
     RDKit          3D

 25 25  0  0  1  0  0  0  0  0999 V2000
    6.4373  -14.5443   18.1840 C   0  0  0  0  0  0  0  0  0  0  0  0
    7.2802  -14.7557   19.4102 C   0  0  1  0  0  0  0  0  0  0  0  0
    8.6113  -14.9999   18.9806 O   0  0  0  0  0  0  0  0  0  0  0  0
    7.3372  -13.5237   20.2738 C   0  0  2  0  0  0  0  0  0  0  0  0
    7.8903  -12.4332   19.4319 N   0  0  0  0  0  0  0  0  0  0  0  0
    8.1026  -13.6447   21.5107 C   0  0  0  0  0  0  0  0  0  0  0  0
    9.3421  -13.3108   21.4637 O   0  0  0  0  0  0  0  0  0  0  0  0
   10.6398  -15.2306   29.9251 O   0  0  0  0  0  0  0  0  0  0  0  0
    9.9333  -14.9691   28.7581 C   0  0  0  0  0  0  0  0  0  0  0  0
    9.2023  -15.9408   28.0959 C   0  0  0  0  0  0  0  0  0  0  0  0
    8.5179  -15.6624   26.9543 C   0  0  0  0  0  0  0  0  0  0  0  0
    8.5550  -14.3625   26.4386 C   0  0  0  0  0  0  0  0  0  0  0  0
    7.8433  -14.0775   25.1798 C   0  0  0  0  0  0  0  0  0  0  0  0
    8.5614  -14.3454   23.9134 C   0  0  2  0  0  0  0  0  0  0  0  0
    7.6430  -14.0866   22.7655 N   0  0  0  0  0  0  0  0  0  0  0  0
    9.1984  -15.6502   23.7376 C   0  0  0  0  0  0  0  0  0  0  0  0
    8.4661  -16.6874   23.4965 O   0  0  0  0  0  0  0  0  0  0  0  0
    9.2787  -13.3923   27.0905 C   0  0  0  0  0  0  0  0  0  0  0  0
    9.9643  -13.6852   28.2404 C   0  0  0  0  0  0  0  0  0  0  0  0
   12.3678  -17.2573   22.8003 C   0  0  0  0  0  0  0  0  0  0  0  0
   11.0877  -17.2761   23.6415 C   0  0  2  0  0  0  0  0  0  0  0  0
   10.5842  -15.9396   23.7939 N   0  0  0  0  0  0  0  0  0  0  0  0
   11.4466  -17.8970   24.9257 C   0  0  0  0  0  0  0  0  0  0  0  0
   11.9678  -19.0643   24.9653 O   0  0  0  0  0  0  0  0  0  0  0  0
   11.2313  -17.2400   26.1055 O   0  0  0  0  0  0  0  0  0  0  0  0
  2  4  1  0
  2  1  1  6
  3  2  1  0
  4  6  1  0
  4  5  1  6
  6  7  2  0
  8  9  1  0
  9 19  2  0
 10 11  2  0
 10  9  1  0
 11 12  1  0
 12 13  1  0
 12 18  2  0
 14 13  1  1
 14 16  1  0
 15  6  1  0
 15 14  1  0
 16 17  2  0
 19 18  1  0
 21 20  1  6
 21 23  1  0
 22 21  1  0
 22 16  1  0
 23 25  1  0
 24 23  2  0
M  END
$$$$
