TYA.pdb
     RDKit          3D

 25 25  0  0  1  0  0  0  0  0999 V2000
    6.9862  -16.2855   19.2661 C   0  0  0  0  0  0  0  0  0  0  0  0
    7.5808  -15.0170   18.7216 C   0  0  1  0  0  0  0  0  0  0  0  0
    6.8890  -14.6970   17.5237 O   0  0  0  0  0  0  0  0  0  0  0  0
    7.3706  -13.8518   19.6517 C   0  0  2  0  0  0  0  0  0  0  0  0
    7.7985  -12.6337   18.9190 N   0  0  0  0  0  0  0  0  0  0  0  0
    8.0514  -13.9315   20.9404 C   0  0  0  0  0  0  0  0  0  0  0  0
    9.3223  -13.7450   20.9403 O   0  0  0  0  0  0  0  0  0  0  0  0
    9.6154  -14.4798   29.7766 O   0  0  0  0  0  0  0  0  0  0  0  0
    9.0945  -14.3223   28.4986 C   0  0  0  0  0  0  0  0  0  0  0  0
    9.0102  -13.0889   27.8750 C   0  0  0  0  0  0  0  0  0  0  0  0
    8.4964  -12.9579   26.6228 C   0  0  0  0  0  0  0  0  0  0  0  0
    8.0429  -14.0979   25.9507 C   0  0  0  0  0  0  0  0  0  0  0  0
    7.4510  -13.9433   24.6098 C   0  0  0  0  0  0  0  0  0  0  0  0
    8.2923  -14.3023   23.4461 C   0  0  2  0  0  0  0  0  0  0  0  0
    7.4786  -14.1894   22.1999 N   0  0  0  0  0  0  0  0  0  0  0  0
    8.9815  -15.5924   23.4577 C   0  0  0  0  0  0  0  0  0  0  0  0
    8.3159  -16.6705   23.2028 O   0  0  0  0  0  0  0  0  0  0  0  0
    8.1233  -15.3260   26.5634 C   0  0  0  0  0  0  0  0  0  0  0  0
    8.6432  -15.4452   27.8257 C   0  0  0  0  0  0  0  0  0  0  0  0
   12.0794  -17.2136   22.7176 C   0  0  0  0  0  0  0  0  0  0  0  0
   10.9146  -17.1486   23.7102 C   0  0  2  0  0  0  0  0  0  0  0  0
   10.3541  -15.8261   23.7191 N   0  0  0  0  0  0  0  0  0  0  0  0
   11.4634  -17.5410   25.0172 C   0  0  0  0  0  0  0  0  0  0  0  0
   12.0559  -18.6643   25.1677 O   0  0  0  0  0  0  0  0  0  0  0  0
   11.3525  -16.7135   26.1002 O   0  0  0  0  0  0  0  0  0  0  0  0
  2  4  1  0
  2  1  1  1
  3  2  1  0
  4  6  1  0
  4  5  1  6
  6  7  2  0
  8  9  1  0
  9 19  2  0
 10 11  2  0
 10  9  1  0
 11 12  1  0
 12 13  1  0
 12 18  2  0
 14 13  1  1
 14 16  1  0
 15  6  1  0
 15 14  1  0
 16 17  2  0
 19 18  1  0
 21 20  1  6
 21 23  1  0
 22 21  1  0
 22 16  1  0
 23 25  1  0
 24 23  2  0
M  END
$$$$
