TYA.pdb
     RDKit          3D

 25 25  0  0  1  0  0  0  0  0999 V2000
    6.0994  -15.1765   18.7262 C   0  0  0  0  0  0  0  0  0  0  0  0
    7.0514  -15.3468   19.8768 C   0  0  1  0  0  0  0  0  0  0  0  0
    8.3334  -15.6306   19.3363 O   0  0  0  0  0  0  0  0  0  0  0  0
    7.2035  -14.0790   20.6745 C   0  0  2  0  0  0  0  0  0  0  0  0
    7.7532  -13.0537   19.7524 N   0  0  0  0  0  0  0  0  0  0  0  0
    8.0289  -14.1737   21.8745 C   0  0  0  0  0  0  0  0  0  0  0  0
    9.2775  -13.9012   21.7457 O   0  0  0  0  0  0  0  0  0  0  0  0
   10.6965  -15.2580   30.3460 O   0  0  0  0  0  0  0  0  0  0  0  0
    9.9780  -15.0543   29.1748 C   0  0  0  0  0  0  0  0  0  0  0  0
    9.2147  -16.0484   28.5863 C   0  0  0  0  0  0  0  0  0  0  0  0
    8.5191  -15.8267   27.4391 C   0  0  0  0  0  0  0  0  0  0  0  0
    8.5777  -14.5633   26.8411 C   0  0  0  0  0  0  0  0  0  0  0  0
    7.8532  -14.3418   25.5769 C   0  0  0  0  0  0  0  0  0  0  0  0
    8.5720  -14.6364   24.3169 C   0  0  2  0  0  0  0  0  0  0  0  0
    7.6190  -14.5301   23.1730 N   0  0  0  0  0  0  0  0  0  0  0  0
    9.3102  -15.8951   24.2152 C   0  0  0  0  0  0  0  0  0  0  0  0
    8.6595  -17.0056   24.0991 O   0  0  0  0  0  0  0  0  0  0  0  0
    9.3335  -13.5713   27.4196 C   0  0  0  0  0  0  0  0  0  0  0  0
   10.0301  -13.8069   28.5759 C   0  0  0  0  0  0  0  0  0  0  0  0
   12.5575  -17.2054   23.1197 C   0  0  0  0  0  0  0  0  0  0  0  0
   11.3283  -17.3485   24.0224 C   0  0  2  0  0  0  0  0  0  0  0  0
   10.7168  -16.0641   24.2215 N   0  0  0  0  0  0  0  0  0  0  0  0
   11.8050  -17.9504   25.2769 C   0  0  0  0  0  0  0  0  0  0  0  0
   12.3841  -19.0907   25.2770 O   0  0  0  0  0  0  0  0  0  0  0  0
   11.6398  -17.3042   26.4707 O   0  0  0  0  0  0  0  0  0  0  0  0
  2  4  1  0
  2  1  1  6
  3  2  1  0
  4  6  1  0
  4  5  1  6
  6  7  2  0
  8  9  1  0
  9 19  2  0
 10 11  2  0
 10  9  1  0
 11 12  1  0
 12 13  1  0
 12 18  2  0
 14 13  1  1
 14 16  1  0
 15  6  1  0
 15 14  1  0
 16 17  2  0
 19 18  1  0
 21 20  1  6
 21 23  1  0
 22 21  1  0
 22 16  1  0
 23 25  1  0
 24 23  2  0
M  END
$$$$
