TYA.pdb
     RDKit          3D

 25 25  0  0  1  0  0  0  0  0999 V2000
    7.8912  -16.5918   18.1900 C   0  0  0  0  0  0  0  0  0  0  0  0
    8.3635  -15.2609   17.6756 C   0  0  1  0  0  0  0  0  0  0  0  0
    7.8955  -15.1242   16.3420 O   0  0  0  0  0  0  0  0  0  0  0  0
    7.7680  -14.1145   18.4489 C   0  0  2  0  0  0  0  0  0  0  0  0
    8.1481  -12.8699   17.7346 N   0  0  0  0  0  0  0  0  0  0  0  0
    8.1484  -14.0260   19.8553 C   0  0  0  0  0  0  0  0  0  0  0  0
    9.3686  -13.7164   20.1103 O   0  0  0  0  0  0  0  0  0  0  0  0
    7.6777  -13.3561   28.8009 O   0  0  0  0  0  0  0  0  0  0  0  0
    7.4609  -13.4047   27.4298 C   0  0  0  0  0  0  0  0  0  0  0  0
    7.4785  -12.2732   26.6319 C   0  0  0  0  0  0  0  0  0  0  0  0
    7.2636  -12.3443   25.2911 C   0  0  0  0  0  0  0  0  0  0  0  0
    7.0190  -13.5913   24.7062 C   0  0  0  0  0  0  0  0  0  0  0  0
    6.7478  -13.6559   23.2590 C   0  0  0  0  0  0  0  0  0  0  0  0
    7.8416  -14.1257   22.3792 C   0  0  2  0  0  0  0  0  0  0  0  0
    7.3312  -14.2394   20.9812 N   0  0  0  0  0  0  0  0  0  0  0  0
    8.5431  -15.3577   22.7390 C   0  0  0  0  0  0  0  0  0  0  0  0
    7.9821  -16.4988   22.5079 O   0  0  0  0  0  0  0  0  0  0  0  0
    6.9999  -14.7192   25.4920 C   0  0  0  0  0  0  0  0  0  0  0  0
    7.2180  -14.6348   26.8422 C   0  0  0  0  0  0  0  0  0  0  0  0
   11.8179  -16.8418   23.1095 C   0  0  0  0  0  0  0  0  0  0  0  0
   10.3962  -16.7432   23.6711 C   0  0  2  0  0  0  0  0  0  0  0  0
    9.8247  -15.4697   23.3322 N   0  0  0  0  0  0  0  0  0  0  0  0
   10.5109  -16.9452   25.1235 C   0  0  0  0  0  0  0  0  0  0  0  0
   10.9947  -18.0302   25.5972 O   0  0  0  0  0  0  0  0  0  0  0  0
   10.1032  -15.9774   25.9993 O   0  0  0  0  0  0  0  0  0  0  0  0
  2  4  1  0
  2  1  1  1
  3  2  1  0
  4  6  1  0
  4  5  1  6
  6  7  2  0
  8  9  1  0
  9 19  2  0
 10 11  2  0
 10  9  1  0
 11 12  1  0
 12 13  1  0
 12 18  2  0
 14 13  1  1
 14 16  1  0
 15  6  1  0
 15 14  1  0
 16 17  2  0
 19 18  1  0
 21 20  1  6
 21 23  1  0
 22 21  1  0
 22 16  1  0
 23 25  1  0
 24 23  2  0
M  END
$$$$
