TYA.pdb
     RDKit          3D

 25 25  0  0  1  0  0  0  0  0999 V2000
    6.4551  -14.6555   17.8972 C   0  0  0  0  0  0  0  0  0  0  0  0
    7.1911  -14.9044   19.1839 C   0  0  1  0  0  0  0  0  0  0  0  0
    8.5177  -15.2877   18.8536 O   0  0  0  0  0  0  0  0  0  0  0  0
    7.3098  -13.6550   20.0156 C   0  0  2  0  0  0  0  0  0  0  0  0
    7.9690  -12.6327   19.1647 N   0  0  0  0  0  0  0  0  0  0  0  0
    8.0229  -13.7949   21.2814 C   0  0  0  0  0  0  0  0  0  0  0  0
    9.2936  -13.6085   21.2578 O   0  0  0  0  0  0  0  0  0  0  0  0
   10.0557  -14.7205   29.9294 O   0  0  0  0  0  0  0  0  0  0  0  0
    9.4135  -14.5578   28.7086 C   0  0  0  0  0  0  0  0  0  0  0  0
    8.6760  -15.5677   28.1141 C   0  0  0  0  0  0  0  0  0  0  0  0
    8.0553  -15.3863   26.9179 C   0  0  0  0  0  0  0  0  0  0  0  0
    8.1661  -14.1491   26.2745 C   0  0  0  0  0  0  0  0  0  0  0  0
    7.5237  -13.9724   24.9598 C   0  0  0  0  0  0  0  0  0  0  0  0
    8.3277  -14.2906   23.7584 C   0  0  2  0  0  0  0  0  0  0  0  0
    7.4820  -14.1116   22.5416 N   0  0  0  0  0  0  0  0  0  0  0  0
    8.9980  -15.5891   23.6940 C   0  0  0  0  0  0  0  0  0  0  0  0
    8.3043  -16.6504   23.4438 O   0  0  0  0  0  0  0  0  0  0  0  0
    8.8967  -13.1416   26.8586 C   0  0  0  0  0  0  0  0  0  0  0  0
    9.5176  -13.3365   28.0645 C   0  0  0  0  0  0  0  0  0  0  0  0
   12.1803  -17.2002   22.9604 C   0  0  0  0  0  0  0  0  0  0  0  0
   10.9152  -17.1797   23.8238 C   0  0  2  0  0  0  0  0  0  0  0  0
   10.3794  -15.8478   23.8729 N   0  0  0  0  0  0  0  0  0  0  0  0
   11.3112  -17.6811   25.1486 C   0  0  0  0  0  0  0  0  0  0  0  0
   11.8536  -18.8321   25.2775 O   0  0  0  0  0  0  0  0  0  0  0  0
   11.1084  -16.9278   26.2717 O   0  0  0  0  0  0  0  0  0  0  0  0
  2  4  1  0
  2  1  1  6
  3  2  1  0
  4  6  1  0
  4  5  1  6
  6  7  2  0
  8  9  1  0
  9 19  2  0
 10 11  2  0
 10  9  1  0
 11 12  1  0
 12 13  1  0
 12 18  2  0
 14 13  1  1
 14 16  1  0
 15  6  1  0
 15 14  1  0
 16 17  2  0
 19 18  1  0
 21 20  1  6
 21 23  1  0
 22 21  1  0
 22 16  1  0
 23 25  1  0
 24 23  2  0
M  END
$$$$
