TYA.pdb
     RDKit          3D

 25 25  0  0  1  0  0  0  0  0999 V2000
    8.6801  -19.3135   20.0419 C   0  0  0  0  0  0  0  0  0  0  0  0
    9.3811  -18.3966   19.0792 C   0  0  1  0  0  0  0  0  0  0  0  0
    9.1306  -18.8775   17.7669 O   0  0  0  0  0  0  0  0  0  0  0  0
    8.8254  -16.9982   19.1270 C   0  0  2  0  0  0  0  0  0  0  0  0
    9.4787  -16.2378   18.0322 N   0  0  0  0  0  0  0  0  0  0  0  0
    8.9800  -16.2917   20.3949 C   0  0  0  0  0  0  0  0  0  0  0  0
   10.1727  -15.9552   20.7325 O   0  0  0  0  0  0  0  0  0  0  0  0
    6.9911  -12.1205   28.1223 O   0  0  0  0  0  0  0  0  0  0  0  0
    7.0214  -12.6805   26.8515 C   0  0  0  0  0  0  0  0  0  0  0  0
    7.3167  -11.9417   25.7183 C   0  0  0  0  0  0  0  0  0  0  0  0
    7.3407  -12.5109   24.4836 C   0  0  0  0  0  0  0  0  0  0  0  0
    7.0599  -13.8756   24.3579 C   0  0  0  0  0  0  0  0  0  0  0  0
    7.0490  -14.4772   23.0124 C   0  0  0  0  0  0  0  0  0  0  0  0
    8.2568  -15.2189   22.5859 C   0  0  2  0  0  0  0  0  0  0  0  0
    7.9692  -15.9278   21.3042 N   0  0  0  0  0  0  0  0  0  0  0  0
    8.8674  -16.1553   23.5292 C   0  0  0  0  0  0  0  0  0  0  0  0
    8.3029  -17.2975   23.7458 O   0  0  0  0  0  0  0  0  0  0  0  0
    6.7658  -14.6157   25.4784 C   0  0  0  0  0  0  0  0  0  0  0  0
    6.7448  -14.0307   26.7175 C   0  0  0  0  0  0  0  0  0  0  0  0
   12.1140  -17.1740   24.7501 C   0  0  0  0  0  0  0  0  0  0  0  0
   10.6263  -17.0115   25.0770 C   0  0  2  0  0  0  0  0  0  0  0  0
   10.0604  -15.9669   24.2696 N   0  0  0  0  0  0  0  0  0  0  0  0
   10.5491  -16.7207   26.5167 C   0  0  0  0  0  0  0  0  0  0  0  0
   10.9876  -17.5583   27.3780 O   0  0  0  0  0  0  0  0  0  0  0  0
   10.0071  -15.5485   26.9662 O   0  0  0  0  0  0  0  0  0  0  0  0
  2  4  1  0
  2  1  1  1
  3  2  1  0
  4  6  1  0
  4  5  1  6
  6  7  2  0
  8  9  1  0
  9 19  2  0
 10 11  2  0
 10  9  1  0
 11 12  1  0
 12 13  1  0
 12 18  2  0
 14 13  1  1
 14 16  1  0
 15  6  1  0
 15 14  1  0
 16 17  2  0
 19 18  1  0
 21 20  1  6
 21 23  1  0
 22 21  1  0
 22 16  1  0
 23 25  1  0
 24 23  2  0
M  END
$$$$
