TYA.pdb
     RDKit          3D

 25 25  0  0  1  0  0  0  0  0999 V2000
    6.4101  -14.6439   18.0318 C   0  0  0  0  0  0  0  0  0  0  0  0
    7.2443  -14.9006   19.2555 C   0  0  1  0  0  0  0  0  0  0  0  0
    8.5619  -15.2045   18.8221 O   0  0  0  0  0  0  0  0  0  0  0  0
    7.3602  -13.6770   20.1250 C   0  0  2  0  0  0  0  0  0  0  0  0
    7.9726  -12.6126   19.2908 N   0  0  0  0  0  0  0  0  0  0  0  0
    8.1123  -13.8425   21.3649 C   0  0  0  0  0  0  0  0  0  0  0  0
    9.3664  -13.5678   21.3266 O   0  0  0  0  0  0  0  0  0  0  0  0
   10.1860  -15.0209   30.0270 O   0  0  0  0  0  0  0  0  0  0  0  0
    9.5871  -14.8013   28.7931 C   0  0  0  0  0  0  0  0  0  0  0  0
    9.4267  -13.5346   28.2574 C   0  0  0  0  0  0  0  0  0  0  0  0
    8.8373  -13.3430   27.0471 C   0  0  0  0  0  0  0  0  0  0  0  0
    8.3829  -14.4536   26.3280 C   0  0  0  0  0  0  0  0  0  0  0  0
    7.7096  -14.2355   25.0351 C   0  0  0  0  0  0  0  0  0  0  0  0
    8.5077  -14.4425   23.8058 C   0  0  2  0  0  0  0  0  0  0  0  0
    7.6253  -14.2704   22.6142 N   0  0  0  0  0  0  0  0  0  0  0  0
    9.2658  -15.6860   23.6698 C   0  0  0  0  0  0  0  0  0  0  0  0
    8.6433  -16.7812   23.3811 O   0  0  0  0  0  0  0  0  0  0  0  0
    8.5387  -15.7144   26.8534 C   0  0  0  0  0  0  0  0  0  0  0  0
    9.1344  -15.8948   28.0743 C   0  0  0  0  0  0  0  0  0  0  0  0
   12.5518  -16.9888   22.7860 C   0  0  0  0  0  0  0  0  0  0  0  0
   11.2968  -17.1342   23.6520 C   0  0  2  0  0  0  0  0  0  0  0  0
   10.6650  -15.8545   23.8146 N   0  0  0  0  0  0  0  0  0  0  0  0
   11.7409  -17.7139   24.9287 C   0  0  0  0  0  0  0  0  0  0  0  0
   12.4001  -18.8095   24.9560 O   0  0  0  0  0  0  0  0  0  0  0  0
   11.4591  -17.0943   26.1148 O   0  0  0  0  0  0  0  0  0  0  0  0
  2  4  1  0
  2  1  1  6
  3  2  1  0
  4  6  1  0
  4  5  1  6
  6  7  2  0
  8  9  1  0
  9 19  2  0
 10 11  2  0
 10  9  1  0
 11 12  1  0
 12 13  1  0
 12 18  2  0
 14 13  1  1
 14 16  1  0
 15  6  1  0
 15 14  1  0
 16 17  2  0
 19 18  1  0
 21 20  1  6
 21 23  1  0
 22 21  1  0
 22 16  1  0
 23 25  1  0
 24 23  2  0
M  END
$$$$
