TYA.pdb
     RDKit          3D

 25 25  0  0  1  0  0  0  0  0999 V2000
    7.8264  -19.2255   17.9395 C   0  0  0  0  0  0  0  0  0  0  0  0
    8.2161  -18.6237   19.2605 C   0  0  1  0  0  0  0  0  0  0  0  0
    9.4561  -19.1980   19.6460 O   0  0  0  0  0  0  0  0  0  0  0  0
    8.4550  -17.1409   19.1553 C   0  0  2  0  0  0  0  0  0  0  0  0
    9.6109  -16.9549   18.2426 N   0  0  0  0  0  0  0  0  0  0  0  0
    8.6874  -16.4398   20.4142 C   0  0  0  0  0  0  0  0  0  0  0  0
    9.9042  -16.3524   20.8162 O   0  0  0  0  0  0  0  0  0  0  0  0
    7.4221  -11.9501   28.0551 O   0  0  0  0  0  0  0  0  0  0  0  0
    7.2843  -12.5492   26.8095 C   0  0  0  0  0  0  0  0  0  0  0  0
    6.5917  -13.7338   26.6248 C   0  0  0  0  0  0  0  0  0  0  0  0
    6.4694  -14.3028   25.3958 C   0  0  0  0  0  0  0  0  0  0  0  0
    7.0582  -13.6744   24.2934 C   0  0  0  0  0  0  0  0  0  0  0  0
    6.9553  -14.3171   22.9710 C   0  0  0  0  0  0  0  0  0  0  0  0
    8.0926  -15.1545   22.5281 C   0  0  2  0  0  0  0  0  0  0  0  0
    7.7296  -15.8384   21.2520 N   0  0  0  0  0  0  0  0  0  0  0  0
    8.6391  -16.1368   23.4640 C   0  0  0  0  0  0  0  0  0  0  0  0
    7.9744  -17.2174   23.7107 O   0  0  0  0  0  0  0  0  0  0  0  0
    7.7475  -12.4979   24.4689 C   0  0  0  0  0  0  0  0  0  0  0  0
    7.8639  -11.9342   25.7125 C   0  0  0  0  0  0  0  0  0  0  0  0
   11.8173  -17.3657   24.7905 C   0  0  0  0  0  0  0  0  0  0  0  0
   10.3231  -17.1187   25.0204 C   0  0  2  0  0  0  0  0  0  0  0  0
    9.8668  -16.0576   24.1665 N   0  0  0  0  0  0  0  0  0  0  0  0
   10.1719  -16.8023   26.4488 C   0  0  0  0  0  0  0  0  0  0  0  0
   10.5183  -17.6452   27.3461 O   0  0  0  0  0  0  0  0  0  0  0  0
    9.6578  -15.6000   26.8491 O   0  0  0  0  0  0  0  0  0  0  0  0
  2  4  1  0
  2  1  1  6
  3  2  1  0
  4  6  1  0
  4  5  1  6
  6  7  2  0
  8  9  1  0
  9 19  2  0
 10 11  2  0
 10  9  1  0
 11 12  1  0
 12 13  1  0
 12 18  2  0
 14 13  1  1
 14 16  1  0
 15  6  1  0
 15 14  1  0
 16 17  2  0
 19 18  1  0
 21 20  1  1
 21 23  1  0
 22 21  1  0
 22 16  1  0
 23 25  1  0
 24 23  2  0
M  END
$$$$
