TYA.pdb
     RDKit          3D

 25 25  0  0  1  0  0  0  0  0999 V2000
    7.2076  -16.1847   19.6651 C   0  0  0  0  0  0  0  0  0  0  0  0
    7.6820  -14.8726   19.1060 C   0  0  1  0  0  0  0  0  0  0  0  0
    6.9064  -14.5918   17.9503 O   0  0  0  0  0  0  0  0  0  0  0  0
    7.4408  -13.7335   20.0604 C   0  0  2  0  0  0  0  0  0  0  0  0
    7.7602  -12.4828   19.3272 N   0  0  0  0  0  0  0  0  0  0  0  0
    8.1805  -13.7851   21.3176 C   0  0  0  0  0  0  0  0  0  0  0  0
    9.4282  -13.4834   21.2721 O   0  0  0  0  0  0  0  0  0  0  0  0
   10.2157  -15.0822   29.9848 O   0  0  0  0  0  0  0  0  0  0  0  0
    9.6437  -14.7882   28.7536 C   0  0  0  0  0  0  0  0  0  0  0  0
    9.6521  -13.5134   28.2133 C   0  0  0  0  0  0  0  0  0  0  0  0
    9.0859  -13.2482   27.0058 C   0  0  0  0  0  0  0  0  0  0  0  0
    8.4811  -14.2899   26.2944 C   0  0  0  0  0  0  0  0  0  0  0  0
    7.8348  -13.9875   25.0048 C   0  0  0  0  0  0  0  0  0  0  0  0
    8.5788  -14.3282   23.7713 C   0  0  2  0  0  0  0  0  0  0  0  0
    7.6877  -14.1277   22.5907 N   0  0  0  0  0  0  0  0  0  0  0  0
    9.2109  -15.6442   23.6813 C   0  0  0  0  0  0  0  0  0  0  0  0
    8.4811  -16.6849   23.4478 O   0  0  0  0  0  0  0  0  0  0  0  0
    8.4688  -15.5584   26.8244 C   0  0  0  0  0  0  0  0  0  0  0  0
    9.0428  -15.8131   28.0424 C   0  0  0  0  0  0  0  0  0  0  0  0
   12.3642  -17.2333   22.7753 C   0  0  0  0  0  0  0  0  0  0  0  0
   11.1004  -17.2722   23.6401 C   0  0  2  0  0  0  0  0  0  0  0  0
   10.5893  -15.9416   23.8176 N   0  0  0  0  0  0  0  0  0  0  0  0
   11.4882  -17.9051   24.9099 C   0  0  0  0  0  0  0  0  0  0  0  0
   11.3908  -17.2688   26.0149 O   0  0  0  0  0  0  0  0  0  0  0  0
   11.9613  -19.1879   24.9370 O   0  0  0  0  0  0  0  0  0  0  0  0
  2  4  1  0
  2  1  1  1
  3  2  1  0
  4  6  1  0
  4  5  1  6
  6  7  2  0
  8  9  1  0
  9 19  2  0
 10 11  2  0
 10  9  1  0
 11 12  1  0
 12 13  1  0
 12 18  2  0
 14 13  1  1
 14 16  1  0
 15  6  1  0
 15 14  1  0
 16 17  2  0
 19 18  1  0
 21 20  1  6
 21 23  1  0
 22 21  1  0
 22 16  1  0
 23 25  1  0
 24 23  2  0
M  END
$$$$
