WWQ.pdb
     RDKit          3D

 38 41  0  0  1  0  0  0  0  0999 V2000
   25.2536  -20.6318  -14.0031 N   0  0  0  0  0  0  0  0  0  0  0  0
   24.2918  -20.2405  -13.0247 C   0  0  1  0  0  0  0  0  0  0  0  0
   22.8713  -20.3548  -13.4712 C   0  0  0  0  0  0  0  0  0  0  0  0
   22.4969  -19.1628  -14.2588 C   0  0  0  0  0  0  0  0  0  0  0  0
   23.1206  -18.7105  -15.4249 C   0  0  0  0  0  0  0  0  0  0  0  0
   22.4869  -17.6268  -15.8798 N   0  0  0  0  0  0  0  0  0  0  0  0
   21.4622  -17.3309  -15.0671 C   0  0  0  0  0  0  0  0  0  0  0  0
   20.5010  -16.3267  -15.0676 C   0  0  0  0  0  0  0  0  0  0  0  0
   19.5614  -16.2978  -14.0533 C   0  0  0  0  0  0  0  0  0  0  0  0
   19.5516  -17.2339  -13.0436 C   0  0  0  0  0  0  0  0  0  0  0  0
   20.5064  -18.2245  -13.0500 C   0  0  0  0  0  0  0  0  0  0  0  0
   21.4572  -18.2836  -14.0475 C   0  0  0  0  0  0  0  0  0  0  0  0
   24.5563  -20.9102  -11.7154 C   0  0  0  0  0  0  0  0  0  0  0  0
   24.5039  -22.1794  -11.6051 O   0  0  0  0  0  0  0  0  0  0  0  0
   24.8667  -20.0975  -10.6052 N   0  0  0  0  0  0  0  0  0  0  0  0
   25.1259  -20.6937   -9.2729 C   0  0  1  0  0  0  0  0  0  0  0  0
   26.2805  -19.9844   -8.6906 C   0  0  0  0  0  0  0  0  0  0  0  0
   26.6556  -20.4922   -7.3627 C   0  0  0  0  0  0  0  0  0  0  0  0
   26.2892  -21.7213   -6.8570 C   0  0  0  0  0  0  0  0  0  0  0  0
   26.7935  -21.8220   -5.6145 N   0  0  0  0  0  0  0  0  0  0  0  0
   27.4709  -20.6942   -5.3112 C   0  0  0  0  0  0  0  0  0  0  0  0
   28.1699  -20.3104   -4.1624 C   0  0  0  0  0  0  0  0  0  0  0  0
   28.7883  -19.0665   -4.1233 C   0  0  0  0  0  0  0  0  0  0  0  0
   28.7022  -18.2354   -5.2140 C   0  0  0  0  0  0  0  0  0  0  0  0
   28.0188  -18.5990   -6.3504 C   0  0  0  0  0  0  0  0  0  0  0  0
   27.4004  -19.8488   -6.3832 C   0  0  0  0  0  0  0  0  0  0  0  0
   23.8713  -20.7164   -8.5431 C   0  0  0  0  0  0  0  0  0  0  0  0
   23.1192  -19.6766   -8.6286 O   0  0  0  0  0  0  0  0  0  0  0  0
   19.6331  -24.6420   -8.9956 N   0  0  0  0  0  0  0  0  0  0  0  0
   19.0482  -23.8684   -7.9609 C   0  0  0  0  0  0  0  0  0  0  0  0
   17.8554  -24.0548   -7.5393 O   0  0  0  0  0  0  0  0  0  0  0  0
   19.7922  -22.7813   -7.2853 C   0  0  0  0  0  0  0  0  0  0  0  0
   21.1710  -22.6671   -7.7987 C   0  0  0  0  0  0  0  0  0  0  0  0
   22.0336  -21.6654   -7.1082 C   0  0  2  0  0  0  0  0  0  0  0  0
   23.3854  -21.7585   -7.7516 N   0  0  0  0  0  0  0  0  0  0  0  0
   22.2237  -21.7926   -5.6729 C   0  0  0  0  0  0  0  0  0  0  0  0
   23.1628  -22.4780   -5.1718 O   0  0  0  0  0  0  0  0  0  0  0  0
   21.4053  -21.1694   -4.7116 O   0  0  0  0  0  0  0  0  0  0  0  0
  2  1  1  6
  2 13  1  0
  2  3  1  0
  4  5  2  0
  4  3  1  0
  6  5  1  0
  7 12  2  0
  7  6  1  0
  8  7  1  0
  9 10  1  0
  9  8  2  0
 10 11  2  0
 11 12  1  0
 12  4  1  0
 13 15  1  0
 14 13  2  0
 15 16  1  0
 16 17  1  1
 16 27  1  0
 18 17  1  0
 19 18  2  0
 20 21  1  0
 20 19  1  0
 21 26  2  0
 22 23  2  0
 22 21  1  0
 23 24  1  0
 24 25  2  0
 26 25  1  0
 26 18  1  0
 27 28  2  0
 27 35  1  0
 29 30  1  0
 30 32  1  0
 31 30  2  0
 32 33  1  0
 34 33  1  6
 34 36  1  0
 35 34  1  0
 36 37  2  0
 36 38  1  0
M  END
$$$$
