WWQ.pdb
     RDKit          3D

 38 41  0  0  1  0  0  0  0  0999 V2000
   27.8051  -19.6548  -15.4803 N   0  0  0  0  0  0  0  0  0  0  0  0
   27.3212  -19.1651  -14.2308 C   0  0  1  0  0  0  0  0  0  0  0  0
   26.0991  -18.3124  -14.3302 C   0  0  0  0  0  0  0  0  0  0  0  0
   26.2772  -17.3050  -15.3953 C   0  0  0  0  0  0  0  0  0  0  0  0
   25.5454  -17.2160  -16.5827 C   0  0  0  0  0  0  0  0  0  0  0  0
   25.9585  -16.1579  -17.2847 N   0  0  0  0  0  0  0  0  0  0  0  0
   26.9390  -15.5312  -16.6184 C   0  0  0  0  0  0  0  0  0  0  0  0
   27.7103  -14.4066  -16.8875 C   0  0  0  0  0  0  0  0  0  0  0  0
   28.6702  -14.0172  -15.9713 C   0  0  0  0  0  0  0  0  0  0  0  0
   28.8840  -14.7118  -14.8019 C   0  0  0  0  0  0  0  0  0  0  0  0
   28.1167  -15.8240  -14.5428 C   0  0  0  0  0  0  0  0  0  0  0  0
   27.1495  -16.2390  -15.4344 C   0  0  0  0  0  0  0  0  0  0  0  0
   27.1910  -20.2719  -13.2354 C   0  0  0  0  0  0  0  0  0  0  0  0
   26.9471  -21.4660  -13.6101 O   0  0  0  0  0  0  0  0  0  0  0  0
   27.3472  -19.9576  -11.8694 N   0  0  0  0  0  0  0  0  0  0  0  0
   26.8700  -20.8837  -10.8147 C   0  0  1  0  0  0  0  0  0  0  0  0
   27.8363  -20.8193   -9.7024 C   0  0  0  0  0  0  0  0  0  0  0  0
   27.1904  -20.7969   -8.3818 C   0  0  0  0  0  0  0  0  0  0  0  0
   25.9629  -21.3557   -8.0956 C   0  0  0  0  0  0  0  0  0  0  0  0
   25.6934  -21.1155   -6.8003 N   0  0  0  0  0  0  0  0  0  0  0  0
   26.7116  -20.4200   -6.2504 C   0  0  0  0  0  0  0  0  0  0  0  0
   26.9131  -19.9359   -4.9541 C   0  0  0  0  0  0  0  0  0  0  0  0
   28.0795  -19.2404   -4.6587 C   0  0  0  0  0  0  0  0  0  0  0  0
   29.0143  -19.0406   -5.6455 C   0  0  0  0  0  0  0  0  0  0  0  0
   28.8303  -19.5106   -6.9245 C   0  0  0  0  0  0  0  0  0  0  0  0
   27.6576  -20.2080   -7.2143 C   0  0  0  0  0  0  0  0  0  0  0  0
   25.4743  -20.5813  -10.5543 C   0  0  0  0  0  0  0  0  0  0  0  0
   25.1553  -19.3442  -10.4072 O   0  0  0  0  0  0  0  0  0  0  0  0
   24.1762  -24.2254  -14.8059 N   0  0  0  0  0  0  0  0  0  0  0  0
   23.0833  -23.4316  -14.3741 C   0  0  0  0  0  0  0  0  0  0  0  0
   22.4878  -22.5918  -15.1327 O   0  0  0  0  0  0  0  0  0  0  0  0
   22.5464  -23.5276  -12.9977 C   0  0  0  0  0  0  0  0  0  0  0  0
   23.5404  -23.0952  -11.9964 C   0  0  0  0  0  0  0  0  0  0  0  0
   23.4432  -21.6703  -11.5671 C   0  0  2  0  0  0  0  0  0  0  0  0
   24.4277  -21.4990  -10.4484 N   0  0  0  0  0  0  0  0  0  0  0  0
   22.1588  -21.1782  -11.0974 C   0  0  0  0  0  0  0  0  0  0  0  0
   21.9098  -20.9994   -9.8691 O   0  0  0  0  0  0  0  0  0  0  0  0
   21.0847  -20.8460  -11.9448 O   0  0  0  0  0  0  0  0  0  0  0  0
  2  1  1  6
  2 13  1  0
  2  3  1  0
  4  5  2  0
  4  3  1  0
  6  5  1  0
  7 12  2  0
  7  6  1  0
  8  7  1  0
  9 10  1  0
  9  8  2  0
 10 11  2  0
 11 12  1  0
 12  4  1  0
 13 15  1  0
 14 13  2  0
 15 16  1  0
 16 17  1  1
 16 27  1  0
 18 17  1  0
 19 18  2  0
 20 21  1  0
 20 19  1  0
 21 26  2  0
 22 23  2  0
 22 21  1  0
 23 24  1  0
 24 25  2  0
 26 25  1  0
 26 18  1  0
 27 28  2  0
 27 35  1  0
 29 30  1  0
 30 32  1  0
 31 30  2  0
 32 33  1  0
 34 33  1  1
 34 36  1  0
 35 34  1  0
 36 37  2  0
 36 38  1  0
M  END
$$$$
