WWQ.pdb
     RDKit          3D

 38 41  0  0  1  0  0  0  0  0999 V2000
   24.3426  -19.4008   -8.6248 N   0  0  0  0  0  0  0  0  0  0  0  0
   25.5644  -19.9073   -9.1594 C   0  0  1  0  0  0  0  0  0  0  0  0
   26.0559  -21.1575   -8.5069 C   0  0  0  0  0  0  0  0  0  0  0  0
   26.3572  -20.8946   -7.0852 C   0  0  0  0  0  0  0  0  0  0  0  0
   25.4867  -21.0740   -6.0065 C   0  0  0  0  0  0  0  0  0  0  0  0
   26.1161  -20.7713   -4.8684 N   0  0  0  0  0  0  0  0  0  0  0  0
   27.3748  -20.3950   -5.1371 C   0  0  0  0  0  0  0  0  0  0  0  0
   28.4382  -19.9796   -4.3441 C   0  0  0  0  0  0  0  0  0  0  0  0
   29.6359  -19.6464   -4.9498 C   0  0  0  0  0  0  0  0  0  0  0  0
   29.8044  -19.7135   -6.3147 C   0  0  0  0  0  0  0  0  0  0  0  0
   28.7471  -20.1252   -7.0928 C   0  0  0  0  0  0  0  0  0  0  0  0
   27.5392  -20.4664   -6.5209 C   0  0  0  0  0  0  0  0  0  0  0  0
   25.4983  -20.0040  -10.6491 C   0  0  0  0  0  0  0  0  0  0  0  0
   24.3780  -20.0901  -11.2519 O   0  0  0  0  0  0  0  0  0  0  0  0
   26.7111  -19.9961  -11.3690 N   0  0  0  0  0  0  0  0  0  0  0  0
   26.7355  -19.6824  -12.8177 C   0  0  1  0  0  0  0  0  0  0  0  0
   28.1499  -19.5668  -13.2192 C   0  0  0  0  0  0  0  0  0  0  0  0
   28.3211  -19.3619  -14.6650 C   0  0  0  0  0  0  0  0  0  0  0  0
   28.1050  -18.1696  -15.3227 C   0  0  0  0  0  0  0  0  0  0  0  0
   28.3373  -18.3734  -16.6314 N   0  0  0  0  0  0  0  0  0  0  0  0
   28.6952  -19.6601  -16.8296 C   0  0  0  0  0  0  0  0  0  0  0  0
   29.0380  -20.3613  -17.9899 C   0  0  0  0  0  0  0  0  0  0  0  0
   29.3738  -21.7068  -17.9004 C   0  0  0  0  0  0  0  0  0  0  0  0
   29.3633  -22.3248  -16.6733 C   0  0  0  0  0  0  0  0  0  0  0  0
   29.0287  -21.6486  -15.5238 C   0  0  0  0  0  0  0  0  0  0  0  0
   28.6928  -20.2983  -15.6206 C   0  0  0  0  0  0  0  0  0  0  0  0
   25.8865  -20.6447  -13.4963 C   0  0  0  0  0  0  0  0  0  0  0  0
   25.9898  -21.8767  -13.1424 O   0  0  0  0  0  0  0  0  0  0  0  0
   20.8772  -22.4310  -13.5630 N   0  0  0  0  0  0  0  0  0  0  0  0
   20.8962  -22.7035  -14.9546 C   0  0  0  0  0  0  0  0  0  0  0  0
   20.0688  -23.4966  -15.5218 O   0  0  0  0  0  0  0  0  0  0  0  0
   21.8856  -22.0742  -15.8584 C   0  0  0  0  0  0  0  0  0  0  0  0
   22.7831  -21.1591  -15.1271 C   0  0  0  0  0  0  0  0  0  0  0  0
   24.2358  -21.4891  -15.1990 C   0  0  2  0  0  0  0  0  0  0  0  0
   24.9564  -20.3736  -14.5014 N   0  0  0  0  0  0  0  0  0  0  0  0
   24.8423  -21.6478  -16.5103 C   0  0  0  0  0  0  0  0  0  0  0  0
   25.1344  -22.7828  -16.9889 O   0  0  0  0  0  0  0  0  0  0  0  0
   25.1507  -20.5767  -17.3704 O   0  0  0  0  0  0  0  0  0  0  0  0
  2  1  1  1
  2 13  1  0
  2  3  1  0
  4  5  2  0
  4  3  1  0
  6  5  1  0
  7 12  2  0
  7  6  1  0
  8  7  1  0
  9 10  1  0
  9  8  2  0
 10 11  2  0
 11 12  1  0
 12  4  1  0
 13 15  1  0
 14 13  2  0
 15 16  1  0
 16 17  1  6
 16 27  1  0
 18 17  1  0
 19 18  2  0
 20 21  1  0
 20 19  1  0
 21 26  2  0
 22 23  2  0
 22 21  1  0
 23 24  1  0
 24 25  2  0
 26 25  1  0
 26 18  1  0
 27 28  2  0
 27 35  1  0
 29 30  1  0
 30 32  1  0
 31 30  2  0
 32 33  1  0
 34 33  1  6
 34 36  1  0
 35 34  1  0
 36 37  2  0
 36 38  1  0
M  END
$$$$
