WWQ.pdb
     RDKit          3D

 38 41  0  0  1  0  0  0  0  0999 V2000
   26.9023  -21.0033  -13.8578 N   0  0  0  0  0  0  0  0  0  0  0  0
   25.6280  -20.7397  -13.2731 C   0  0  1  0  0  0  0  0  0  0  0  0
   24.4650  -21.2173  -14.0791 C   0  0  0  0  0  0  0  0  0  0  0  0
   24.4479  -20.5321  -15.3873 C   0  0  0  0  0  0  0  0  0  0  0  0
   25.0236  -20.9959  -16.5735 C   0  0  0  0  0  0  0  0  0  0  0  0
   24.7750  -20.1308  -17.5597 N   0  0  0  0  0  0  0  0  0  0  0  0
   24.0557  -19.1032  -17.0857 C   0  0  0  0  0  0  0  0  0  0  0  0
   23.5406  -17.9493  -17.6648 C   0  0  0  0  0  0  0  0  0  0  0  0
   22.8298  -17.0632  -16.8760 C   0  0  0  0  0  0  0  0  0  0  0  0
   22.6189  -17.2910  -15.5346 C   0  0  0  0  0  0  0  0  0  0  0  0
   23.1321  -18.4352  -14.9687 C   0  0  0  0  0  0  0  0  0  0  0  0
   23.8445  -19.3408  -15.7270 C   0  0  0  0  0  0  0  0  0  0  0  0
   25.5874  -21.1928  -11.8497 C   0  0  0  0  0  0  0  0  0  0  0  0
   25.6820  -22.4289  -11.5516 O   0  0  0  0  0  0  0  0  0  0  0  0
   25.4426  -20.2131  -10.8454 N   0  0  0  0  0  0  0  0  0  0  0  0
   25.0987  -20.5927   -9.4543 C   0  0  1  0  0  0  0  0  0  0  0  0
   25.8761  -19.7197   -8.5550 C   0  0  0  0  0  0  0  0  0  0  0  0
   27.2190  -20.2440   -8.2659 C   0  0  0  0  0  0  0  0  0  0  0  0
   27.9402  -21.0677   -9.1039 C   0  0  0  0  0  0  0  0  0  0  0  0
   29.1034  -21.3578   -8.4947 N   0  0  0  0  0  0  0  0  0  0  0  0
   29.1470  -20.7442   -7.2928 C   0  0  0  0  0  0  0  0  0  0  0  0
   30.1248  -20.7264   -6.2933 C   0  0  0  0  0  0  0  0  0  0  0  0
   29.9028  -19.9927   -5.1341 C   0  0  0  0  0  0  0  0  0  0  0  0
   28.7264  -19.2976   -4.9902 C   0  0  0  0  0  0  0  0  0  0  0  0
   27.7559  -19.3055   -5.9642 C   0  0  0  0  0  0  0  0  0  0  0  0
   27.9850  -20.0437   -7.1252 C   0  0  0  0  0  0  0  0  0  0  0  0
   23.6515  -20.6105   -9.3420 C   0  0  0  0  0  0  0  0  0  0  0  0
   23.0165  -19.5589   -9.7226 O   0  0  0  0  0  0  0  0  0  0  0  0
   18.6045  -22.9574  -11.0090 N   0  0  0  0  0  0  0  0  0  0  0  0
   19.8716  -23.4883  -11.3605 C   0  0  0  0  0  0  0  0  0  0  0  0
   20.0144  -24.5318  -12.0857 O   0  0  0  0  0  0  0  0  0  0  0  0
   21.1329  -22.8572  -10.9101 C   0  0  0  0  0  0  0  0  0  0  0  0
   20.8813  -21.5875  -10.2014 C   0  0  0  0  0  0  0  0  0  0  0  0
   21.3722  -21.5279   -8.7944 C   0  0  2  0  0  0  0  0  0  0  0  0
   22.8649  -21.6595   -8.8629 N   0  0  0  0  0  0  0  0  0  0  0  0
   20.8889  -22.5244   -7.8532 C   0  0  0  0  0  0  0  0  0  0  0  0
   21.6605  -23.3563   -7.2914 O   0  0  0  0  0  0  0  0  0  0  0  0
   19.5410  -22.6567   -7.4689 O   0  0  0  0  0  0  0  0  0  0  0  0
  2  1  1  6
  2 13  1  0
  2  3  1  0
  4  5  2  0
  4  3  1  0
  6  5  1  0
  7 12  2  0
  7  6  1  0
  8  7  1  0
  9 10  1  0
  9  8  2  0
 10 11  2  0
 11 12  1  0
 12  4  1  0
 13 15  1  0
 14 13  2  0
 15 16  1  0
 16 17  1  1
 16 27  1  0
 18 17  1  0
 19 18  2  0
 20 21  1  0
 20 19  1  0
 21 26  2  0
 22 23  2  0
 22 21  1  0
 23 24  1  0
 24 25  2  0
 26 25  1  0
 26 18  1  0
 27 28  2  0
 27 35  1  0
 29 30  1  0
 30 32  1  0
 31 30  2  0
 32 33  1  0
 34 33  1  6
 34 36  1  0
 35 34  1  0
 36 37  2  0
 36 38  1  0
M  END
$$$$
