WWQ.pdb
     RDKit          3D

 38 41  0  0  1  0  0  0  0  0999 V2000
   27.0775  -19.3685  -18.5267 N   0  0  0  0  0  0  0  0  0  0  0  0
   26.2783  -18.7475  -17.5211 C   0  0  1  0  0  0  0  0  0  0  0  0
   24.9982  -18.1623  -18.0200 C   0  0  0  0  0  0  0  0  0  0  0  0
   25.2589  -17.3332  -19.2141 C   0  0  0  0  0  0  0  0  0  0  0  0
   24.6579  -17.4739  -20.4681 C   0  0  0  0  0  0  0  0  0  0  0  0
   25.1111  -16.5246  -21.2905 N   0  0  0  0  0  0  0  0  0  0  0  0
   25.9930  -15.7508  -20.6413 C   0  0  0  0  0  0  0  0  0  0  0  0
   26.7530  -14.6481  -21.0138 C   0  0  0  0  0  0  0  0  0  0  0  0
   27.5949  -14.0687  -20.0821 C   0  0  0  0  0  0  0  0  0  0  0  0
   27.7023  -14.5532  -18.7978 C   0  0  0  0  0  0  0  0  0  0  0  0
   26.9470  -15.6451  -18.4369 C   0  0  0  0  0  0  0  0  0  0  0  0
   26.0961  -16.2461  -19.3409 C   0  0  0  0  0  0  0  0  0  0  0  0
   26.0969  -19.6526  -16.3460 C   0  0  0  0  0  0  0  0  0  0  0  0
   25.6656  -20.8432  -16.4953 O   0  0  0  0  0  0  0  0  0  0  0  0
   26.4177  -19.1519  -15.0671 N   0  0  0  0  0  0  0  0  0  0  0  0
   26.2517  -19.9911  -13.8563 C   0  0  1  0  0  0  0  0  0  0  0  0
   27.1655  -19.4630  -12.8262 C   0  0  0  0  0  0  0  0  0  0  0  0
   27.2872  -20.3485  -11.6588 C   0  0  0  0  0  0  0  0  0  0  0  0
   27.8424  -21.6102  -11.6815 C   0  0  0  0  0  0  0  0  0  0  0  0
   27.7555  -22.1206  -10.4405 N   0  0  0  0  0  0  0  0  0  0  0  0
   27.1613  -21.2229   -9.6256 C   0  0  0  0  0  0  0  0  0  0  0  0
   26.8456  -21.2699   -8.2641 C   0  0  0  0  0  0  0  0  0  0  0  0
   26.2243  -20.1784   -7.6693 C   0  0  0  0  0  0  0  0  0  0  0  0
   25.9311  -19.0719   -8.4292 C   0  0  0  0  0  0  0  0  0  0  0  0
   26.2355  -19.0110   -9.7687 C   0  0  0  0  0  0  0  0  0  0  0  0
   26.8591  -20.1098  -10.3596 C   0  0  0  0  0  0  0  0  0  0  0  0
   24.8323  -20.0749  -13.5635 C   0  0  0  0  0  0  0  0  0  0  0  0
   24.1610  -18.9780  -13.5749 O   0  0  0  0  0  0  0  0  0  0  0  0
   21.0448  -25.1201  -13.2414 N   0  0  0  0  0  0  0  0  0  0  0  0
   20.1748  -24.0234  -13.0144 C   0  0  0  0  0  0  0  0  0  0  0  0
   18.9017  -24.1145  -13.0930 O   0  0  0  0  0  0  0  0  0  0  0  0
   20.6892  -22.6811  -12.6601 C   0  0  0  0  0  0  0  0  0  0  0  0
   22.0826  -22.4980  -13.1102 C   0  0  0  0  0  0  0  0  0  0  0  0
   22.6680  -21.1497  -12.8582 C   0  0  2  0  0  0  0  0  0  0  0  0
   24.1079  -21.2316  -13.2706 N   0  0  0  0  0  0  0  0  0  0  0  0
   22.6312  -20.6247  -11.5034 C   0  0  0  0  0  0  0  0  0  0  0  0
   21.7862  -19.7566  -11.1358 O   0  0  0  0  0  0  0  0  0  0  0  0
   23.5075  -21.0285  -10.4781 O   0  0  0  0  0  0  0  0  0  0  0  0
  2  1  1  6
  2 13  1  0
  2  3  1  0
  4  5  2  0
  4  3  1  0
  6  5  1  0
  7 12  2  0
  7  6  1  0
  8  7  1  0
  9 10  1  0
  9  8  2  0
 10 11  2  0
 11 12  1  0
 12  4  1  0
 13 15  1  0
 14 13  2  0
 15 16  1  0
 16 17  1  1
 16 27  1  0
 18 17  1  0
 19 18  2  0
 20 21  1  0
 20 19  1  0
 21 26  2  0
 22 23  2  0
 22 21  1  0
 23 24  1  0
 24 25  2  0
 26 25  1  0
 26 18  1  0
 27 28  2  0
 27 35  1  0
 29 30  1  0
 30 32  1  0
 31 30  2  0
 32 33  1  0
 34 33  1  1
 34 36  1  0
 35 34  1  0
 36 37  2  0
 36 38  1  0
M  END
$$$$
