WWQ.pdb
     RDKit          3D

 38 41  0  0  1  0  0  0  0  0999 V2000
   27.5760  -19.2318   -9.8099 N   0  0  0  0  0  0  0  0  0  0  0  0
   26.7010  -20.3500   -9.6717 C   0  0  1  0  0  0  0  0  0  0  0  0
   25.9468  -20.3919   -8.3833 C   0  0  0  0  0  0  0  0  0  0  0  0
   26.7847  -19.8483   -7.2953 C   0  0  0  0  0  0  0  0  0  0  0  0
   26.8417  -18.5149   -6.8802 C   0  0  0  0  0  0  0  0  0  0  0  0
   27.6793  -18.4035   -5.8464 N   0  0  0  0  0  0  0  0  0  0  0  0
   28.1890  -19.6075   -5.5489 C   0  0  0  0  0  0  0  0  0  0  0  0
   29.0919  -20.0531   -4.5905 C   0  0  0  0  0  0  0  0  0  0  0  0
   29.4225  -21.3954   -4.5537 C   0  0  0  0  0  0  0  0  0  0  0  0
   28.8840  -22.3019   -5.4392 C   0  0  0  0  0  0  0  0  0  0  0  0
   27.9913  -21.8531   -6.3850 C   0  0  0  0  0  0  0  0  0  0  0  0
   27.6385  -20.5212   -6.4485 C   0  0  0  0  0  0  0  0  0  0  0  0
   25.8264  -20.4982  -10.8742 C   0  0  0  0  0  0  0  0  0  0  0  0
   24.8860  -19.6694  -11.1077 O   0  0  0  0  0  0  0  0  0  0  0  0
   26.0724  -21.5807  -11.7442 N   0  0  0  0  0  0  0  0  0  0  0  0
   25.1997  -21.8301  -12.9164 C   0  0  1  0  0  0  0  0  0  0  0  0
   25.9536  -22.6851  -13.8522 C   0  0  0  0  0  0  0  0  0  0  0  0
   25.1747  -23.0597  -15.0416 C   0  0  0  0  0  0  0  0  0  0  0  0
   25.1897  -22.3780  -16.2400 C   0  0  0  0  0  0  0  0  0  0  0  0
   24.3390  -22.9978  -17.0768 N   0  0  0  0  0  0  0  0  0  0  0  0
   23.7808  -24.0549  -16.4491 C   0  0  0  0  0  0  0  0  0  0  0  0
   22.8502  -25.0059  -16.8792 C   0  0  0  0  0  0  0  0  0  0  0  0
   22.4449  -26.0081  -16.0058 C   0  0  0  0  0  0  0  0  0  0  0  0
   22.9656  -26.0471  -14.7350 C   0  0  0  0  0  0  0  0  0  0  0  0
   23.8814  -25.1192  -14.2979 C   0  0  0  0  0  0  0  0  0  0  0  0
   24.2841  -24.1160  -15.1795 C   0  0  0  0  0  0  0  0  0  0  0  0
   23.9127  -22.2872  -12.4246 C   0  0  0  0  0  0  0  0  0  0  0  0
   23.8153  -22.5356  -11.1665 O   0  0  0  0  0  0  0  0  0  0  0  0
   19.4143  -18.6455  -14.2561 N   0  0  0  0  0  0  0  0  0  0  0  0
   20.4289  -18.4462  -13.2856 C   0  0  0  0  0  0  0  0  0  0  0  0
   21.1508  -17.3918  -13.2368 O   0  0  0  0  0  0  0  0  0  0  0  0
   20.7207  -19.4576  -12.2445 C   0  0  0  0  0  0  0  0  0  0  0  0
   21.8330  -20.3416  -12.6435 C   0  0  0  0  0  0  0  0  0  0  0  0
   21.4796  -21.7793  -12.8229 C   0  0  2  0  0  0  0  0  0  0  0  0
   22.7544  -22.4856  -13.1780 N   0  0  0  0  0  0  0  0  0  0  0  0
   20.4930  -22.1256  -13.8325 C   0  0  0  0  0  0  0  0  0  0  0  0
   19.3870  -22.6682  -13.5411 O   0  0  0  0  0  0  0  0  0  0  0  0
   20.6586  -21.8872  -15.2102 O   0  0  0  0  0  0  0  0  0  0  0  0
  2  1  1  6
  2 13  1  0
  2  3  1  0
  4  5  2  0
  4  3  1  0
  6  5  1  0
  7 12  2  0
  7  6  1  0
  8  7  1  0
  9 10  1  0
  9  8  2  0
 10 11  2  0
 11 12  1  0
 12  4  1  0
 13 15  1  0
 14 13  2  0
 15 16  1  0
 16 17  1  6
 16 27  1  0
 18 17  1  0
 19 18  2  0
 20 21  1  0
 20 19  1  0
 21 26  2  0
 22 23  2  0
 22 21  1  0
 23 24  1  0
 24 25  2  0
 26 25  1  0
 26 18  1  0
 27 28  2  0
 27 35  1  0
 29 30  1  0
 30 32  1  0
 31 30  2  0
 32 33  1  0
 34 33  1  6
 34 36  1  0
 35 34  1  0
 36 37  2  0
 36 38  1  0
M  END
$$$$
