WWQ.pdb
     RDKit          3D

 38 41  0  0  1  0  0  0  0  0999 V2000
   25.1441  -19.9679  -14.3451 N   0  0  0  0  0  0  0  0  0  0  0  0
   24.3097  -19.9483  -13.1881 C   0  0  1  0  0  0  0  0  0  0  0  0
   22.9015  -20.3819  -13.4316 C   0  0  0  0  0  0  0  0  0  0  0  0
   22.1903  -19.3538  -14.2180 C   0  0  0  0  0  0  0  0  0  0  0  0
   22.2939  -19.1455  -15.5961 C   0  0  0  0  0  0  0  0  0  0  0  0
   21.4769  -18.1546  -15.9616 N   0  0  0  0  0  0  0  0  0  0  0  0
   20.8279  -17.6869  -14.8855 C   0  0  0  0  0  0  0  0  0  0  0  0
   19.8876  -16.6803  -14.6990 C   0  0  0  0  0  0  0  0  0  0  0  0
   19.4087  -16.4382  -13.4245 C   0  0  0  0  0  0  0  0  0  0  0  0
   19.8371  -17.1644  -12.3360 C   0  0  0  0  0  0  0  0  0  0  0  0
   20.7682  -18.1589  -12.5287 C   0  0  0  0  0  0  0  0  0  0  0  0
   21.2655  -18.4277  -13.7869 C   0  0  0  0  0  0  0  0  0  0  0  0
   24.9593  -20.6610  -12.0467 C   0  0  0  0  0  0  0  0  0  0  0  0
   25.3517  -21.8684  -12.1650 O   0  0  0  0  0  0  0  0  0  0  0  0
   25.1270  -19.9588  -10.8350 N   0  0  0  0  0  0  0  0  0  0  0  0
   25.8097  -20.5865   -9.6785 C   0  0  1  0  0  0  0  0  0  0  0  0
   26.7307  -19.5828   -9.1134 C   0  0  0  0  0  0  0  0  0  0  0  0
   27.7525  -20.1716   -8.2353 C   0  0  0  0  0  0  0  0  0  0  0  0
   28.5208  -21.2727   -8.5487 C   0  0  0  0  0  0  0  0  0  0  0  0
   29.3197  -21.5296   -7.4980 N   0  0  0  0  0  0  0  0  0  0  0  0
   29.0848  -20.6259   -6.5228 C   0  0  0  0  0  0  0  0  0  0  0  0
   29.6478  -20.4609   -5.2534 C   0  0  0  0  0  0  0  0  0  0  0  0
   29.2095  -19.4211   -4.4421 C   0  0  0  0  0  0  0  0  0  0  0  0
   28.2308  -18.5733   -4.9014 C   0  0  0  0  0  0  0  0  0  0  0  0
   27.6680  -18.7228   -6.1471 C   0  0  0  0  0  0  0  0  0  0  0  0
   28.1124  -19.7683   -6.9563 C   0  0  0  0  0  0  0  0  0  0  0  0
   24.7921  -21.1700   -8.8233 C   0  0  0  0  0  0  0  0  0  0  0  0
   23.7228  -20.4836   -8.6245 O   0  0  0  0  0  0  0  0  0  0  0  0
   24.8424  -26.7263   -5.8747 N   0  0  0  0  0  0  0  0  0  0  0  0
   23.5626  -26.2279   -5.5215 C   0  0  0  0  0  0  0  0  0  0  0  0
   22.7539  -26.8595   -4.7584 O   0  0  0  0  0  0  0  0  0  0  0  0
   23.0721  -24.9210   -6.0147 C   0  0  0  0  0  0  0  0  0  0  0  0
   24.0731  -24.2532   -6.8689 C   0  0  0  0  0  0  0  0  0  0  0  0
   23.7362  -22.8619   -7.2873 C   0  0  2  0  0  0  0  0  0  0  0  0
   24.8478  -22.4119   -8.1884 N   0  0  0  0  0  0  0  0  0  0  0  0
   23.5753  -21.8517   -6.2547 C   0  0  0  0  0  0  0  0  0  0  0  0
   22.4415  -21.5297   -5.7926 O   0  0  0  0  0  0  0  0  0  0  0  0
   24.6444  -21.1495   -5.6663 O   0  0  0  0  0  0  0  0  0  0  0  0
  2  1  1  6
  2 13  1  0
  2  3  1  0
  4  5  2  0
  4  3  1  0
  6  5  1  0
  7 12  2  0
  7  6  1  0
  8  7  1  0
  9 10  1  0
  9  8  2  0
 10 11  2  0
 11 12  1  0
 12  4  1  0
 13 15  1  0
 14 13  2  0
 15 16  1  0
 16 17  1  1
 16 27  1  0
 18 17  1  0
 19 18  2  0
 20 21  1  0
 20 19  1  0
 21 26  2  0
 22 23  2  0
 22 21  1  0
 23 24  1  0
 24 25  2  0
 26 25  1  0
 26 18  1  0
 27 28  2  0
 27 35  1  0
 29 30  1  0
 30 32  1  0
 31 30  2  0
 32 33  1  0
 34 33  1  1
 34 36  1  0
 35 34  1  0
 36 37  2  0
 36 38  1  0
M  END
$$$$
