WWQ.pdb
     RDKit          3D

 38 41  0  0  1  0  0  0  0  0999 V2000
   27.8681  -19.6333  -15.2251 N   0  0  0  0  0  0  0  0  0  0  0  0
   26.7826  -19.1123  -14.4599 C   0  0  1  0  0  0  0  0  0  0  0  0
   25.7897  -18.3239  -15.2491 C   0  0  0  0  0  0  0  0  0  0  0  0
   26.3663  -17.0136  -15.6124 C   0  0  0  0  0  0  0  0  0  0  0  0
   26.9621  -16.0994  -14.7391 C   0  0  0  0  0  0  0  0  0  0  0  0
   27.4025  -15.0439  -15.4282 N   0  0  0  0  0  0  0  0  0  0  0  0
   27.1270  -15.2102  -16.7299 C   0  0  0  0  0  0  0  0  0  0  0  0
   27.3529  -14.4349  -17.8614 C   0  0  0  0  0  0  0  0  0  0  0  0
   26.9262  -14.9029  -19.0908 C   0  0  0  0  0  0  0  0  0  0  0  0
   26.2836  -16.1132  -19.2255 C   0  0  0  0  0  0  0  0  0  0  0  0
   26.0634  -16.8746  -18.1009 C   0  0  0  0  0  0  0  0  0  0  0  0
   26.4775  -16.4384  -16.8596 C   0  0  0  0  0  0  0  0  0  0  0  0
   26.1582  -20.1789  -13.6202 C   0  0  0  0  0  0  0  0  0  0  0  0
   25.9151  -21.3345  -14.1012 O   0  0  0  0  0  0  0  0  0  0  0  0
   25.8466  -19.8707  -12.2796 N   0  0  0  0  0  0  0  0  0  0  0  0
   25.1630  -20.8573  -11.4097 C   0  0  1  0  0  0  0  0  0  0  0  0
   25.4828  -20.5085  -10.0128 C   0  0  0  0  0  0  0  0  0  0  0  0
   26.9014  -20.7085   -9.6819 C   0  0  0  0  0  0  0  0  0  0  0  0
   27.8060  -21.3877  -10.4701 C   0  0  0  0  0  0  0  0  0  0  0  0
   28.9901  -21.3853   -9.8330 N   0  0  0  0  0  0  0  0  0  0  0  0
   28.8693  -20.7251   -8.6615 C   0  0  0  0  0  0  0  0  0  0  0  0
   29.7957  -20.4467   -7.6517 C   0  0  0  0  0  0  0  0  0  0  0  0
   29.3904  -19.7304   -6.5319 C   0  0  0  0  0  0  0  0  0  0  0  0
   28.0865  -19.3080   -6.4365 C   0  0  0  0  0  0  0  0  0  0  0  0
   27.1644  -19.5739   -7.4213 C   0  0  0  0  0  0  0  0  0  0  0  0
   27.5777  -20.2932   -8.5425 C   0  0  0  0  0  0  0  0  0  0  0  0
   23.7717  -20.9235  -11.8188 C   0  0  0  0  0  0  0  0  0  0  0  0
   23.1267  -19.8140  -11.9013 O   0  0  0  0  0  0  0  0  0  0  0  0
   21.2257  -24.2778  -15.9605 N   0  0  0  0  0  0  0  0  0  0  0  0
   20.0161  -23.9359  -15.3040 C   0  0  0  0  0  0  0  0  0  0  0  0
   18.8641  -24.0964  -15.8354 O   0  0  0  0  0  0  0  0  0  0  0  0
   20.0052  -23.3677  -13.9369 C   0  0  0  0  0  0  0  0  0  0  0  0
   21.3713  -23.2292  -13.3962 C   0  0  0  0  0  0  0  0  0  0  0  0
   21.6337  -21.9811  -12.6232 C   0  0  2  0  0  0  0  0  0  0  0  0
   23.0505  -22.0749  -12.1395 N   0  0  0  0  0  0  0  0  0  0  0  0
   20.7966  -21.6962  -11.4696 C   0  0  0  0  0  0  0  0  0  0  0  0
   19.6376  -21.1988  -11.5796 O   0  0  0  0  0  0  0  0  0  0  0  0
   21.1775  -21.9498  -10.1381 O   0  0  0  0  0  0  0  0  0  0  0  0
  2  1  1  6
  2 13  1  0
  2  3  1  0
  4  5  2  0
  4  3  1  0
  6  5  1  0
  7 12  2  0
  7  6  1  0
  8  7  1  0
  9 10  1  0
  9  8  2  0
 10 11  2  0
 11 12  1  0
 12  4  1  0
 13 15  1  0
 14 13  2  0
 15 16  1  0
 16 17  1  1
 16 27  1  0
 18 17  1  0
 19 18  2  0
 20 21  1  0
 20 19  1  0
 21 26  2  0
 22 23  2  0
 22 21  1  0
 23 24  1  0
 24 25  2  0
 26 25  1  0
 26 18  1  0
 27 28  2  0
 27 35  1  0
 29 30  1  0
 30 32  1  0
 31 30  2  0
 32 33  1  0
 34 33  1  1
 34 36  1  0
 35 34  1  0
 36 37  2  0
 36 38  1  0
M  END
$$$$
