WWQ.pdb
     RDKit          3D

 38 41  0  0  1  0  0  0  0  0999 V2000
   25.4569  -18.1067  -18.3922 N   0  0  0  0  0  0  0  0  0  0  0  0
   24.9917  -17.9270  -17.0556 C   0  0  1  0  0  0  0  0  0  0  0  0
   23.5161  -17.7321  -16.9334 C   0  0  0  0  0  0  0  0  0  0  0  0
   23.1135  -16.5011  -17.6432 C   0  0  0  0  0  0  0  0  0  0  0  0
   23.5193  -15.1987  -17.3391 C   0  0  0  0  0  0  0  0  0  0  0  0
   22.9852  -14.3469  -18.2178 N   0  0  0  0  0  0  0  0  0  0  0  0
   22.2359  -15.0229  -19.1008 C   0  0  0  0  0  0  0  0  0  0  0  0
   21.4697  -14.6398  -20.1955 C   0  0  0  0  0  0  0  0  0  0  0  0
   20.7944  -15.6099  -20.9134 C   0  0  0  0  0  0  0  0  0  0  0  0
   20.8586  -16.9427  -20.5744 C   0  0  0  0  0  0  0  0  0  0  0  0
   21.6188  -17.3140  -19.4894 C   0  0  0  0  0  0  0  0  0  0  0  0
   22.3064  -16.3723  -18.7525 C   0  0  0  0  0  0  0  0  0  0  0  0
   25.5243  -18.9936  -16.1548 C   0  0  0  0  0  0  0  0  0  0  0  0
   25.3662  -20.2276  -16.4341 O   0  0  0  0  0  0  0  0  0  0  0  0
   26.2080  -18.5957  -14.9871 N   0  0  0  0  0  0  0  0  0  0  0  0
   26.6397  -19.5933  -13.9792 C   0  0  1  0  0  0  0  0  0  0  0  0
   27.5839  -18.9189  -13.0688 C   0  0  0  0  0  0  0  0  0  0  0  0
   28.2137  -19.8392  -12.1106 C   0  0  0  0  0  0  0  0  0  0  0  0
   29.1135  -20.8292  -12.4441 C   0  0  0  0  0  0  0  0  0  0  0  0
   29.4493  -21.4775  -11.3149 N   0  0  0  0  0  0  0  0  0  0  0  0
   28.7911  -20.9316  -10.2701 C   0  0  0  0  0  0  0  0  0  0  0  0
   28.7969  -21.2376   -8.9056 C   0  0  0  0  0  0  0  0  0  0  0  0
   28.0078  -20.4944   -8.0359 C   0  0  0  0  0  0  0  0  0  0  0  0
   27.2357  -19.4718   -8.5319 C   0  0  0  0  0  0  0  0  0  0  0  0
   27.2197  -19.1592   -9.8708 C   0  0  0  0  0  0  0  0  0  0  0  0
   28.0141  -19.9089  -10.7382 C   0  0  0  0  0  0  0  0  0  0  0  0
   25.4488  -20.2129  -13.4270 C   0  0  0  0  0  0  0  0  0  0  0  0
   24.4220  -19.4604  -13.2440 O   0  0  0  0  0  0  0  0  0  0  0  0
   21.9598  -24.9145  -13.9947 N   0  0  0  0  0  0  0  0  0  0  0  0
   23.1639  -24.6590  -14.6988 C   0  0  0  0  0  0  0  0  0  0  0  0
   23.3501  -25.0110  -15.9140 O   0  0  0  0  0  0  0  0  0  0  0  0
   24.3008  -23.9518  -14.0670 C   0  0  0  0  0  0  0  0  0  0  0  0
   23.9736  -23.5151  -12.6959 C   0  0  0  0  0  0  0  0  0  0  0  0
   24.0135  -22.0425  -12.4630 C   0  0  2  0  0  0  0  0  0  0  0  0
   25.2944  -21.5541  -13.0719 N   0  0  0  0  0  0  0  0  0  0  0  0
   23.9698  -21.5602  -11.0926 C   0  0  0  0  0  0  0  0  0  0  0  0
   24.9870  -21.5674  -10.3390 O   0  0  0  0  0  0  0  0  0  0  0  0
   22.8166  -21.0353  -10.4787 O   0  0  0  0  0  0  0  0  0  0  0  0
  2  1  1  6
  2 13  1  0
  2  3  1  0
  4  5  2  0
  4  3  1  0
  6  5  1  0
  7 12  2  0
  7  6  1  0
  8  7  1  0
  9 10  1  0
  9  8  2  0
 10 11  2  0
 11 12  1  0
 12  4  1  0
 13 15  1  0
 14 13  2  0
 15 16  1  0
 16 17  1  1
 16 27  1  0
 18 17  1  0
 19 18  2  0
 20 21  1  0
 20 19  1  0
 21 26  2  0
 22 23  2  0
 22 21  1  0
 23 24  1  0
 24 25  2  0
 26 25  1  0
 26 18  1  0
 27 28  2  0
 27 35  1  0
 29 30  1  0
 30 32  1  0
 31 30  2  0
 32 33  1  0
 34 33  1  1
 34 36  1  0
 35 34  1  0
 36 37  2  0
 36 38  1  0
M  END
$$$$
