WWQ.pdb
     RDKit          3D

 38 41  0  0  1  0  0  0  0  0999 V2000
   27.6616  -21.2539  -14.1675 N   0  0  0  0  0  0  0  0  0  0  0  0
   26.6325  -20.4858  -13.5459 C   0  0  1  0  0  0  0  0  0  0  0  0
   25.4629  -20.1889  -14.4257 C   0  0  0  0  0  0  0  0  0  0  0  0
   25.8975  -19.3724  -15.5771 C   0  0  0  0  0  0  0  0  0  0  0  0
   25.7719  -19.7105  -16.9274 C   0  0  0  0  0  0  0  0  0  0  0  0
   26.2394  -18.7142  -17.6836 N   0  0  0  0  0  0  0  0  0  0  0  0
   26.6752  -17.7193  -16.8972 C   0  0  0  0  0  0  0  0  0  0  0  0
   27.2491  -16.4796  -17.1538 C   0  0  0  0  0  0  0  0  0  0  0  0
   27.6016  -15.6708  -16.0888 C   0  0  0  0  0  0  0  0  0  0  0  0
   27.4013  -16.0588  -14.7830 C   0  0  0  0  0  0  0  0  0  0  0  0
   26.8330  -17.2874  -14.5372 C   0  0  0  0  0  0  0  0  0  0  0  0
   26.4682  -18.1182  -15.5761 C   0  0  0  0  0  0  0  0  0  0  0  0
   26.2469  -21.0740  -12.2274 C   0  0  0  0  0  0  0  0  0  0  0  0
   26.1101  -22.3338  -12.0858 O   0  0  0  0  0  0  0  0  0  0  0  0
   26.0398  -20.1951  -11.1439 N   0  0  0  0  0  0  0  0  0  0  0  0
   25.5001  -20.6888   -9.8545 C   0  0  1  0  0  0  0  0  0  0  0  0
   25.9967  -19.7894   -8.7964 C   0  0  0  0  0  0  0  0  0  0  0  0
   27.3636  -20.1136   -8.3625 C   0  0  0  0  0  0  0  0  0  0  0  0
   28.3003  -20.7685   -9.1336 C   0  0  0  0  0  0  0  0  0  0  0  0
   29.4162  -20.9069   -8.3961 N   0  0  0  0  0  0  0  0  0  0  0  0
   29.2205  -20.3604   -7.1772 C   0  0  0  0  0  0  0  0  0  0  0  0
   30.0599  -20.2453   -6.0647 C   0  0  0  0  0  0  0  0  0  0  0  0
   29.5896  -19.6192   -4.9165 C   0  0  0  0  0  0  0  0  0  0  0  0
   28.3081  -19.1241   -4.8945 C   0  0  0  0  0  0  0  0  0  0  0  0
   27.4714  -19.2297   -5.9805 C   0  0  0  0  0  0  0  0  0  0  0  0
   27.9496  -19.8591   -7.1297 C   0  0  0  0  0  0  0  0  0  0  0  0
   24.0684  -20.8702  -10.0109 C   0  0  0  0  0  0  0  0  0  0  0  0
   23.5127  -20.3280  -11.0361 O   0  0  0  0  0  0  0  0  0  0  0  0
   20.1999  -24.5056   -6.6433 N   0  0  0  0  0  0  0  0  0  0  0  0
   19.2908  -23.8634   -7.5222 C   0  0  0  0  0  0  0  0  0  0  0  0
   18.0261  -24.0460   -7.4737 O   0  0  0  0  0  0  0  0  0  0  0  0
   19.7512  -22.9199   -8.5660 C   0  0  0  0  0  0  0  0  0  0  0  0
   21.1977  -22.6502   -8.4537 C   0  0  0  0  0  0  0  0  0  0  0  0
   21.7616  -21.7272   -9.4805 C   0  0  2  0  0  0  0  0  0  0  0  0
   23.2198  -21.5808   -9.1603 N   0  0  0  0  0  0  0  0  0  0  0  0
   21.2018  -20.3902   -9.5870 C   0  0  0  0  0  0  0  0  0  0  0  0
   21.5701  -19.4396   -8.8364 O   0  0  0  0  0  0  0  0  0  0  0  0
   20.2195  -20.0199  -10.5253 O   0  0  0  0  0  0  0  0  0  0  0  0
  2  1  1  6
  2 13  1  0
  2  3  1  0
  4  5  2  0
  4  3  1  0
  6  5  1  0
  7 12  2  0
  7  6  1  0
  8  7  1  0
  9 10  1  0
  9  8  2  0
 10 11  2  0
 11 12  1  0
 12  4  1  0
 13 15  1  0
 14 13  2  0
 15 16  1  0
 16 17  1  1
 16 27  1  0
 18 17  1  0
 19 18  2  0
 20 21  1  0
 20 19  1  0
 21 26  2  0
 22 23  2  0
 22 21  1  0
 23 24  1  0
 24 25  2  0
 26 25  1  0
 26 18  1  0
 27 28  2  0
 27 35  1  0
 29 30  1  0
 30 32  1  0
 31 30  2  0
 32 33  1  0
 34 33  1  1
 34 36  1  0
 35 34  1  0
 36 37  2  0
 36 38  1  0
M  END
$$$$
