WWQ.pdb
     RDKit          3D

 38 41  0  0  1  0  0  0  0  0999 V2000
   23.2485  -15.3270  -17.9776 N   0  0  0  0  0  0  0  0  0  0  0  0
   23.2697  -16.7385  -17.7712 C   0  0  1  0  0  0  0  0  0  0  0  0
   24.3490  -17.4574  -18.5118 C   0  0  0  0  0  0  0  0  0  0  0  0
   24.2240  -17.1929  -19.9595 C   0  0  0  0  0  0  0  0  0  0  0  0
   24.9431  -16.2460  -20.6941 C   0  0  0  0  0  0  0  0  0  0  0  0
   24.5923  -16.3171  -21.9805 N   0  0  0  0  0  0  0  0  0  0  0  0
   23.6660  -17.2731  -22.1417 C   0  0  0  0  0  0  0  0  0  0  0  0
   22.9685  -17.7520  -23.2446 C   0  0  0  0  0  0  0  0  0  0  0  0
   22.0503  -18.7707  -23.0664 C   0  0  0  0  0  0  0  0  0  0  0  0
   21.8069  -19.3226  -21.8288 C   0  0  0  0  0  0  0  0  0  0  0  0
   22.5010  -18.8430  -20.7420 C   0  0  0  0  0  0  0  0  0  0  0  0
   23.4251  -17.8289  -20.8846 C   0  0  0  0  0  0  0  0  0  0  0  0
   23.2315  -17.0677  -16.3141 C   0  0  0  0  0  0  0  0  0  0  0  0
   24.1602  -16.6826  -15.5299 O   0  0  0  0  0  0  0  0  0  0  0  0
   22.1377  -17.8159  -15.8314 N   0  0  0  0  0  0  0  0  0  0  0  0
   22.0465  -18.1968  -14.4016 C   0  0  1  0  0  0  0  0  0  0  0  0
   20.6243  -18.4486  -14.1032 C   0  0  0  0  0  0  0  0  0  0  0  0
   20.3869  -18.8004  -12.6955 C   0  0  0  0  0  0  0  0  0  0  0  0
   21.2902  -18.6068  -11.6720 C   0  0  0  0  0  0  0  0  0  0  0  0
   20.7339  -19.0706  -10.5390 N   0  0  0  0  0  0  0  0  0  0  0  0
   19.5026  -19.5547  -10.8078 C   0  0  0  0  0  0  0  0  0  0  0  0
   18.5322  -20.1351   -9.9851 C   0  0  0  0  0  0  0  0  0  0  0  0
   17.3269  -20.5497  -10.5389 C   0  0  0  0  0  0  0  0  0  0  0  0
   17.1096  -20.3820  -11.8852 C   0  0  0  0  0  0  0  0  0  0  0  0
   18.0541  -19.8129  -12.7066 C   0  0  0  0  0  0  0  0  0  0  0  0
   19.2616  -19.3988  -12.1445 C   0  0  0  0  0  0  0  0  0  0  0  0
   23.0150  -19.2505  -14.1586 C   0  0  0  0  0  0  0  0  0  0  0  0
   23.1031  -20.1860  -15.0365 O   0  0  0  0  0  0  0  0  0  0  0  0
   28.4557  -19.6639  -12.8968 N   0  0  0  0  0  0  0  0  0  0  0  0
   28.1985  -20.8389  -12.1457 C   0  0  0  0  0  0  0  0  0  0  0  0
   29.0993  -21.7052  -11.8746 O   0  0  0  0  0  0  0  0  0  0  0  0
   26.8516  -21.1431  -11.6117 C   0  0  0  0  0  0  0  0  0  0  0  0
   25.8745  -20.0996  -11.9779 C   0  0  0  0  0  0  0  0  0  0  0  0
   24.8133  -20.5202  -12.9376 C   0  0  2  0  0  0  0  0  0  0  0  0
   23.8738  -19.3575  -13.0633 N   0  0  0  0  0  0  0  0  0  0  0  0
   24.0167  -21.6920  -12.6139 C   0  0  0  0  0  0  0  0  0  0  0  0
   24.3203  -22.8515  -13.0217 O   0  0  0  0  0  0  0  0  0  0  0  0
   22.8545  -21.6597  -11.8198 O   0  0  0  0  0  0  0  0  0  0  0  0
  2  1  1  1
  2 13  1  0
  2  3  1  0
  4  5  2  0
  4  3  1  0
  6  5  1  0
  7 12  2  0
  7  6  1  0
  8  7  1  0
  9 10  1  0
  9  8  2  0
 10 11  2  0
 11 12  1  0
 12  4  1  0
 13 15  1  0
 14 13  2  0
 15 16  1  0
 16 17  1  6
 16 27  1  0
 18 17  1  0
 19 18  2  0
 20 21  1  0
 20 19  1  0
 21 26  2  0
 22 23  2  0
 22 21  1  0
 23 24  1  0
 24 25  2  0
 26 25  1  0
 26 18  1  0
 27 28  2  0
 27 35  1  0
 29 30  1  0
 30 32  1  0
 31 30  2  0
 32 33  1  0
 34 33  1  1
 34 36  1  0
 35 34  1  0
 36 37  2  0
 36 38  1  0
M  END
$$$$
