WWQ.pdb
     RDKit          3D

 38 41  0  0  1  0  0  0  0  0999 V2000
   26.4121  -22.6933  -12.7327 N   0  0  0  0  0  0  0  0  0  0  0  0
   25.7692  -21.4291  -12.5779 C   0  0  1  0  0  0  0  0  0  0  0  0
   26.7018  -20.2663  -12.4856 C   0  0  0  0  0  0  0  0  0  0  0  0
   27.6199  -20.4506  -11.3436 C   0  0  0  0  0  0  0  0  0  0  0  0
   29.0054  -20.6207  -11.4131 C   0  0  0  0  0  0  0  0  0  0  0  0
   29.5067  -20.7188  -10.1794 N   0  0  0  0  0  0  0  0  0  0  0  0
   28.5149  -20.6221   -9.2822 C   0  0  0  0  0  0  0  0  0  0  0  0
   28.4751  -20.6630   -7.8933 C   0  0  0  0  0  0  0  0  0  0  0  0
   27.2554  -20.5369   -7.2537 C   0  0  0  0  0  0  0  0  0  0  0  0
   26.0807  -20.3731   -7.9529 C   0  0  0  0  0  0  0  0  0  0  0  0
   26.1283  -20.3339   -9.3274 C   0  0  0  0  0  0  0  0  0  0  0  0
   27.3282  -20.4550   -9.9969 C   0  0  0  0  0  0  0  0  0  0  0  0
   24.6941  -21.2458  -13.5994 C   0  0  0  0  0  0  0  0  0  0  0  0
   24.6419  -21.9853  -14.6368 O   0  0  0  0  0  0  0  0  0  0  0  0
   23.7382  -20.2319  -13.3820 N   0  0  0  0  0  0  0  0  0  0  0  0
   22.6465  -19.9921  -14.3558 C   0  0  1  0  0  0  0  0  0  0  0  0
   21.6373  -19.1499  -13.6870 C   0  0  0  0  0  0  0  0  0  0  0  0
   20.4417  -18.9225  -14.5120 C   0  0  0  0  0  0  0  0  0  0  0  0
   19.3833  -19.7990  -14.6237 C   0  0  0  0  0  0  0  0  0  0  0  0
   18.4948  -19.2643  -15.4797 N   0  0  0  0  0  0  0  0  0  0  0  0
   18.9536  -18.0727  -15.9183 C   0  0  0  0  0  0  0  0  0  0  0  0
   18.4104  -17.1364  -16.8036 C   0  0  0  0  0  0  0  0  0  0  0  0
   19.1127  -15.9690  -17.0781 C   0  0  0  0  0  0  0  0  0  0  0  0
   20.3285  -15.7551  -16.4749 C   0  0  0  0  0  0  0  0  0  0  0  0
   20.8752  -16.6663  -15.6023 C   0  0  0  0  0  0  0  0  0  0  0  0
   20.1652  -17.8358  -15.3310 C   0  0  0  0  0  0  0  0  0  0  0  0
   23.2468  -19.5253  -15.5923 C   0  0  0  0  0  0  0  0  0  0  0  0
   24.2308  -18.7026  -15.4975 O   0  0  0  0  0  0  0  0  0  0  0  0
   27.2984  -21.0391  -18.3069 N   0  0  0  0  0  0  0  0  0  0  0  0
   26.8103  -20.4696  -19.5104 C   0  0  0  0  0  0  0  0  0  0  0  0
   27.5542  -20.2355  -20.5238 O   0  0  0  0  0  0  0  0  0  0  0  0
   25.3845  -20.1082  -19.6791 C   0  0  0  0  0  0  0  0  0  0  0  0
   24.6061  -20.3859  -18.4566 C   0  0  0  0  0  0  0  0  0  0  0  0
   23.6113  -19.3419  -18.0763 C   0  0  2  0  0  0  0  0  0  0  0  0
   22.8693  -19.8795  -16.8886 N   0  0  0  0  0  0  0  0  0  0  0  0
   22.6229  -18.9399  -19.0632 C   0  0  0  0  0  0  0  0  0  0  0  0
   21.3916  -19.2050  -18.9358 O   0  0  0  0  0  0  0  0  0  0  0  0
   22.9265  -18.2188  -20.2337 O   0  0  0  0  0  0  0  0  0  0  0  0
  2  1  1  6
  2 13  1  0
  2  3  1  0
  4  5  2  0
  4  3  1  0
  6  5  1  0
  7 12  2  0
  7  6  1  0
  8  7  1  0
  9 10  1  0
  9  8  2  0
 10 11  2  0
 11 12  1  0
 12  4  1  0
 13 15  1  0
 14 13  2  0
 15 16  1  0
 16 17  1  1
 16 27  1  0
 18 17  1  0
 19 18  2  0
 20 21  1  0
 20 19  1  0
 21 26  2  0
 22 23  2  0
 22 21  1  0
 23 24  1  0
 24 25  2  0
 26 25  1  0
 26 18  1  0
 27 28  2  0
 27 35  1  0
 29 30  1  0
 30 32  1  0
 31 30  2  0
 32 33  1  0
 34 33  1  6
 34 36  1  0
 35 34  1  0
 36 37  2  0
 36 38  1  0
M  END
$$$$
