ERI.pdb
     RDKit          3D

 29 28  0  0  1  0  0  0  0  0999 V2000
   25.8093  -22.7102  -20.2062 N   0  0  0  0  0  0  0  0  0  0  0  0
   26.3517  -21.6133  -19.4692 C   0  0  1  0  0  0  0  0  0  0  0  0
   26.9301  -20.5968  -20.4190 C   0  0  0  0  0  0  0  0  0  0  0  0
   28.2750  -20.9006  -20.9573 C   0  0  0  0  0  0  0  0  0  0  0  0
   29.3891  -20.9540  -20.0142 C   0  0  0  0  0  0  0  0  0  0  0  0
   29.7628  -22.0694  -19.5487 O   0  0  0  0  0  0  0  0  0  0  0  0
   25.3394  -20.8860  -18.6355 C   0  0  0  0  0  0  0  0  0  0  0  0
   24.2686  -20.5796  -19.2136 O   0  0  0  0  0  0  0  0  0  0  0  0
   30.0656  -19.8352  -19.5942 O   0  0  0  0  0  0  0  0  0  0  0  0
   20.3243  -21.7837  -13.0242 N   0  0  0  0  0  0  0  0  0  0  0  0
   20.6283  -20.5443  -12.3653 C   0  0  0  0  0  0  0  0  0  0  0  0
   19.7947  -20.0934  -11.5074 N   0  0  0  0  0  0  0  0  0  0  0  0
   21.8284  -19.8520  -12.6737 N   0  0  0  0  0  0  0  0  0  0  0  0
   22.7516  -20.4872  -13.5939 C   0  0  0  0  0  0  0  0  0  0  0  0
   23.7922  -19.5113  -14.0948 C   0  0  0  0  0  0  0  0  0  0  0  0
   24.7695  -20.1431  -15.0384 C   0  0  0  0  0  0  0  0  0  0  0  0
   24.5280  -19.8278  -16.4785 C   0  0  2  0  0  0  0  0  0  0  0  0
   25.5069  -20.5336  -17.2882 N   0  0  0  0  0  0  0  0  0  0  0  0
   24.6335  -18.3538  -16.6696 C   0  0  0  0  0  0  0  0  0  0  0  0
   25.7354  -17.7974  -16.4581 O   0  0  0  0  0  0  0  0  0  0  0  0
   19.9619  -19.2228  -11.0009 C   0  0  0  0  0  0  0  0  0  0  0  0
   23.6744  -15.8859  -20.1871 C   0  0  0  0  0  0  0  0  0  0  0  0
   22.3879  -16.1336  -19.4303 C   0  0  1  0  0  0  0  0  0  0  0  0
   22.4825  -15.5709  -18.0256 C   0  0  0  0  0  0  0  0  0  0  0  0
   22.4986  -14.0707  -18.0928 C   0  0  2  0  0  0  0  0  0  0  0  0
   23.6140  -16.1593  -17.2510 N   0  0  0  0  0  0  0  0  0  0  0  0
   23.5178  -17.5833  -17.0819 C   0  0  0  0  0  0  0  0  0  0  0  0
   23.6445  -15.4757  -15.9217 O   0  0  0  0  0  0  0  0  0  0  0  0
   22.8304  -15.8066  -15.0224 O   0  0  0  0  0  0  0  0  0  0  0  0
  2  1  1  6
  3  4  1  0
  3  2  1  0
  4  5  1  0
  5  9  1  0
  5  6  2  0
  7  2  1  0
  7  8  2  0
 11 10  1  0
 11 13  1  0
 12 11  2  0
 14 13  1  0
 15 16  1  0
 15 14  1  0
 17 16  1  1
 17 18  1  0
 18  7  1  0
 19 17  1  0
 20 19  2  0
 21 22  1  0
 22 23  1  0
 23 25  1  0
 23 24  1  6
 25 26  1  6
 25 27  1  0
 26 19  1  0
 27 29  1  0
 28 27  2  0
M  END
$$$$
