ERI.pdb
     RDKit          3D

 29 28  0  0  1  0  0  0  0  0999 V2000
   21.5094  -29.1875  -11.5540 N   0  0  0  0  0  0  0  0  0  0  0  0
   20.1806  -29.1180  -11.0346 C   0  0  1  0  0  0  0  0  0  0  0  0
   19.9064  -30.3225  -10.1720 C   0  0  0  0  0  0  0  0  0  0  0  0
   19.3401  -31.5025  -10.8633 C   0  0  0  0  0  0  0  0  0  0  0  0
   17.8969  -31.5325  -11.0863 C   0  0  0  0  0  0  0  0  0  0  0  0
   17.1098  -31.5284  -10.0959 O   0  0  0  0  0  0  0  0  0  0  0  0
   19.9300  -27.9154  -10.1746 C   0  0  0  0  0  0  0  0  0  0  0  0
   20.9211  -27.4739   -9.5440 O   0  0  0  0  0  0  0  0  0  0  0  0
   17.3359  -31.5683  -12.3393 O   0  0  0  0  0  0  0  0  0  0  0  0
   15.3585  -20.4192  -10.8328 N   0  0  0  0  0  0  0  0  0  0  0  0
   16.7763  -20.2898  -10.6428 C   0  0  0  0  0  0  0  0  0  0  0  0
   17.2723  -19.1143  -10.5624 N   0  0  0  0  0  0  0  0  0  0  0  0
   17.5889  -21.4497  -10.5506 N   0  0  0  0  0  0  0  0  0  0  0  0
   16.9292  -22.7387  -10.6265 C   0  0  0  0  0  0  0  0  0  0  0  0
   17.5141  -23.7185   -9.6346 C   0  0  0  0  0  0  0  0  0  0  0  0
   17.9382  -25.0049  -10.2750 C   0  0  0  0  0  0  0  0  0  0  0  0
   18.4775  -26.0200   -9.3210 C   0  0  2  0  0  0  0  0  0  0  0  0
   18.6933  -27.2694  -10.0312 N   0  0  0  0  0  0  0  0  0  0  0  0
   17.5029  -26.1952   -8.2075 C   0  0  0  0  0  0  0  0  0  0  0  0
   16.4245  -26.7880   -8.4400 O   0  0  0  0  0  0  0  0  0  0  0  0
   18.2736  -18.9606  -10.4348 C   0  0  0  0  0  0  0  0  0  0  0  0
   19.2169  -26.6895   -2.9791 C   0  0  0  0  0  0  0  0  0  0  0  0
   18.4397  -26.9211   -4.2565 C   0  0  2  0  0  0  0  0  0  0  0  0
   17.4405  -25.8027   -4.4791 C   0  0  0  0  0  0  0  0  0  0  0  0
   16.4452  -25.7963   -3.3544 C   0  0  2  0  0  0  0  0  0  0  0  0
   16.8257  -25.8497   -5.8378 N   0  0  0  0  0  0  0  0  0  0  0  0
   17.7765  -25.7059   -6.9059 C   0  0  0  0  0  0  0  0  0  0  0  0
   15.8017  -24.7621   -5.8994 O   0  0  0  0  0  0  0  0  0  0  0  0
   14.6048  -25.0036   -5.5991 O   0  0  0  0  0  0  0  0  0  0  0  0
  2  1  1  1
  3  4  1  0
  3  2  1  0
  4  5  1  0
  5  9  1  0
  5  6  2  0
  7  2  1  0
  7  8  2  0
 11 10  1  0
 11 13  1  0
 12 11  2  0
 14 13  1  0
 15 16  1  0
 15 14  1  0
 17 16  1  6
 17 18  1  0
 18  7  1  0
 19 17  1  0
 20 19  2  0
 21 22  1  0
 22 23  1  0
 23 25  1  0
 23 24  1  6
 25 26  1  6
 25 27  1  0
 26 19  1  0
 27 29  1  0
 28 27  2  0
M  END
$$$$
