ERI.pdb
     RDKit          3D

 29 28  0  0  1  0  0  0  0  0999 V2000
   27.0988  -17.5920  -17.5589 N   0  0  0  0  0  0  0  0  0  0  0  0
   26.8511  -18.6672  -16.6516 C   0  0  1  0  0  0  0  0  0  0  0  0
   28.0548  -18.8789  -15.7705 C   0  0  0  0  0  0  0  0  0  0  0  0
   28.8141  -20.1293  -15.9957 C   0  0  0  0  0  0  0  0  0  0  0  0
   28.1349  -21.3948  -15.7297 C   0  0  0  0  0  0  0  0  0  0  0  0
   27.1359  -21.7288  -16.4304 O   0  0  0  0  0  0  0  0  0  0  0  0
   25.6905  -18.4273  -15.7327 C   0  0  0  0  0  0  0  0  0  0  0  0
   24.9905  -17.4162  -15.9831 O   0  0  0  0  0  0  0  0  0  0  0  0
   28.5283  -22.2589  -14.7376 O   0  0  0  0  0  0  0  0  0  0  0  0
   19.2805  -21.5934  -13.6527 N   0  0  0  0  0  0  0  0  0  0  0  0
   19.8712  -22.0643  -14.8743 C   0  0  0  0  0  0  0  0  0  0  0  0
   19.7765  -23.3083  -15.1533 N   0  0  0  0  0  0  0  0  0  0  0  0
   20.5401  -21.1560  -15.7356 N   0  0  0  0  0  0  0  0  0  0  0  0
   20.5254  -19.7524  -15.3722 C   0  0  0  0  0  0  0  0  0  0  0  0
   21.5960  -19.4337  -14.3533 C   0  0  0  0  0  0  0  0  0  0  0  0
   22.9765  -19.4750  -14.9340 C   0  0  0  0  0  0  0  0  0  0  0  0
   24.0678  -19.2112  -13.9486 C   0  0  2  0  0  0  0  0  0  0  0  0
   25.3460  -19.2361  -14.6399 N   0  0  0  0  0  0  0  0  0  0  0  0
   24.0119  -20.2513  -12.8830 C   0  0  0  0  0  0  0  0  0  0  0  0
   24.1597  -21.4521  -13.2065 O   0  0  0  0  0  0  0  0  0  0  0  0
   20.1894  -23.7027  -15.9997 C   0  0  0  0  0  0  0  0  0  0  0  0
   26.8748  -19.5453   -8.5936 C   0  0  0  0  0  0  0  0  0  0  0  0
   26.1216  -20.1837   -9.7401 C   0  0  2  0  0  0  0  0  0  0  0  0
   24.6985  -20.5035   -9.3265 C   0  0  0  0  0  0  0  0  0  0  0  0
   24.7206  -21.5104   -8.2125 C   0  0  2  0  0  0  0  0  0  0  0  0
   23.8423  -20.8935  -10.4846 N   0  0  0  0  0  0  0  0  0  0  0  0
   23.7960  -19.9041  -11.5261 C   0  0  0  0  0  0  0  0  0  0  0  0
   22.4701  -21.1575   -9.9529 O   0  0  0  0  0  0  0  0  0  0  0  0
   21.6371  -20.2201   -9.8607 O   0  0  0  0  0  0  0  0  0  0  0  0
  2  1  1  6
  3  4  1  0
  3  2  1  0
  4  5  1  0
  5  9  1  0
  5  6  2  0
  7  2  1  0
  7  8  2  0
 11 10  1  0
 11 13  1  0
 12 11  2  0
 14 13  1  0
 15 16  1  0
 15 14  1  0
 17 16  1  6
 17 18  1  0
 18  7  1  0
 19 17  1  0
 20 19  2  0
 21 22  1  0
 22 23  1  0
 23 25  1  0
 23 24  1  1
 25 26  1  6
 25 27  1  0
 26 19  1  0
 27 29  1  0
 28 27  2  0
M  END
$$$$
