ERI.pdb
     RDKit          3D

 29 28  0  0  1  0  0  0  0  0999 V2000
   17.6529  -13.4388  -17.9691 N   0  0  0  0  0  0  0  0  0  0  0  0
   18.5360  -12.9237  -16.9715 C   0  0  1  0  0  0  0  0  0  0  0  0
   19.9293  -12.8095  -17.5333 C   0  0  0  0  0  0  0  0  0  0  0  0
   20.5309  -14.0630  -18.0410 C   0  0  0  0  0  0  0  0  0  0  0  0
   21.9237  -14.0203  -18.4790 C   0  0  0  0  0  0  0  0  0  0  0  0
   22.2589  -13.2530  -19.4273 O   0  0  0  0  0  0  0  0  0  0  0  0
   18.1632  -11.5559  -16.4824 C   0  0  0  0  0  0  0  0  0  0  0  0
   18.0385  -10.6716  -17.3641 O   0  0  0  0  0  0  0  0  0  0  0  0
   22.9097  -14.7861  -17.9070 O   0  0  0  0  0  0  0  0  0  0  0  0
   11.3623  -10.8082  -12.4509 N   0  0  0  0  0  0  0  0  0  0  0  0
   11.3847  -10.7849  -13.8868 C   0  0  0  0  0  0  0  0  0  0  0  0
   10.2746  -10.8888  -14.5121 N   0  0  0  0  0  0  0  0  0  0  0  0
   12.6185  -10.6506  -14.5754 N   0  0  0  0  0  0  0  0  0  0  0  0
   13.8206  -10.5102  -13.7769 C   0  0  0  0  0  0  0  0  0  0  0  0
   15.0433  -10.3227  -14.6462 C   0  0  0  0  0  0  0  0  0  0  0  0
   16.2848  -10.0637  -13.8486 C   0  0  0  0  0  0  0  0  0  0  0  0
   17.5224   -9.9025  -14.6696 C   0  0  2  0  0  0  0  0  0  0  0  0
   17.9518  -11.2088  -15.1400 N   0  0  0  0  0  0  0  0  0  0  0  0
   18.5730   -9.2606  -13.8302 C   0  0  0  0  0  0  0  0  0  0  0  0
   19.0320   -9.8945  -12.8525 O   0  0  0  0  0  0  0  0  0  0  0  0
   10.2266  -10.8581  -15.5315 C   0  0  0  0  0  0  0  0  0  0  0  0
   22.2121   -8.0950  -14.9938 C   0  0  0  0  0  0  0  0  0  0  0  0
   21.4806   -6.7992  -15.2677 C   0  0  1  0  0  0  0  0  0  0  0  0
   20.8336   -6.2776  -13.9995 C   0  0  0  0  0  0  0  0  0  0  0  0
   21.8775   -5.6153  -13.1469 C   0  0  2  0  0  0  0  0  0  0  0  0
   20.0418   -7.3253  -13.2912 N   0  0  0  0  0  0  0  0  0  0  0  0
   19.0531   -7.9590  -14.1197 C   0  0  0  0  0  0  0  0  0  0  0  0
   19.3950   -6.6714  -12.1125 O   0  0  0  0  0  0  0  0  0  0  0  0
   18.3107   -6.0499  -12.2510 O   0  0  0  0  0  0  0  0  0  0  0  0
  2  1  1  6
  3  4  1  0
  3  2  1  0
  4  5  1  0
  5  9  1  0
  5  6  2  0
  7  2  1  0
  7  8  2  0
 11 10  1  0
 11 13  1  0
 12 11  2  0
 14 13  1  0
 15 16  1  0
 15 14  1  0
 17 16  1  1
 17 18  1  0
 18  7  1  0
 19 17  1  0
 20 19  2  0
 21 22  1  0
 22 23  1  0
 23 25  1  0
 23 24  1  6
 25 26  1  1
 25 27  1  0
 26 19  1  0
 27 29  1  0
 28 27  2  0
M  END
$$$$
