ERI.pdb
     RDKit          3D

 29 28  0  0  1  0  0  0  0  0999 V2000
   25.9527  -20.6407  -18.4234 N   0  0  0  0  0  0  0  0  0  0  0  0
   26.5245  -19.8090  -17.4127 C   0  0  1  0  0  0  0  0  0  0  0  0
   25.7210  -18.5413  -17.2803 C   0  0  0  0  0  0  0  0  0  0  0  0
   24.3909  -18.5433  -17.9296 C   0  0  0  0  0  0  0  0  0  0  0  0
   23.2599  -18.0243  -17.1647 C   0  0  0  0  0  0  0  0  0  0  0  0
   22.7953  -18.6969  -16.1992 O   0  0  0  0  0  0  0  0  0  0  0  0
   26.5475  -20.4398  -16.0524 C   0  0  0  0  0  0  0  0  0  0  0  0
   25.5322  -21.1072  -15.7384 O   0  0  0  0  0  0  0  0  0  0  0  0
   22.6589  -16.8216  -17.4442 O   0  0  0  0  0  0  0  0  0  0  0  0
   32.6113  -21.7384   -9.5288 N   0  0  0  0  0  0  0  0  0  0  0  0
   32.5798  -22.2848  -10.8567 C   0  0  0  0  0  0  0  0  0  0  0  0
   33.5221  -23.0728  -11.2105 N   0  0  0  0  0  0  0  0  0  0  0  0
   31.5215  -21.9449  -11.7393 N   0  0  0  0  0  0  0  0  0  0  0  0
   30.4984  -21.0444  -11.2444 C   0  0  0  0  0  0  0  0  0  0  0  0
   29.1492  -21.3523  -11.8532 C   0  0  0  0  0  0  0  0  0  0  0  0
   28.9939  -20.7840  -13.2308 C   0  0  0  0  0  0  0  0  0  0  0  0
   27.6322  -20.9587  -13.8197 C   0  0  2  0  0  0  0  0  0  0  0  0
   27.6004  -20.3346  -15.1318 N   0  0  0  0  0  0  0  0  0  0  0  0
   26.6323  -20.3396  -12.9048 C   0  0  0  0  0  0  0  0  0  0  0  0
   26.6004  -19.0916  -12.8050 O   0  0  0  0  0  0  0  0  0  0  0  0
   33.5670  -23.4700  -12.1500 C   0  0  0  0  0  0  0  0  0  0  0  0
   21.5621  -20.8519  -13.1999 C   0  0  0  0  0  0  0  0  0  0  0  0
   22.9572  -20.3626  -12.8781 C   0  0  2  0  0  0  0  0  0  0  0  0
   23.3832  -20.8421  -11.5043 C   0  0  0  0  0  0  0  0  0  0  0  0
   22.4259  -20.3122  -10.4756 C   0  0  2  0  0  0  0  0  0  0  0  0
   24.8163  -20.5435  -11.2155 N   0  0  0  0  0  0  0  0  0  0  0  0
   25.7289  -21.1340  -12.1557 C   0  0  0  0  0  0  0  0  0  0  0  0
   25.1014  -21.0331   -9.8320 O   0  0  0  0  0  0  0  0  0  0  0  0
   25.6741  -22.1391   -9.6587 O   0  0  0  0  0  0  0  0  0  0  0  0
  2  1  1  6
  3  4  1  0
  3  2  1  0
  4  5  1  0
  5  9  1  0
  5  6  2  0
  7  2  1  0
  7  8  2  0
 11 10  1  0
 11 13  1  0
 12 11  2  0
 14 13  1  0
 15 16  1  0
 15 14  1  0
 17 16  1  1
 17 18  1  0
 18  7  1  0
 19 17  1  0
 20 19  2  0
 21 22  1  0
 22 23  1  0
 23 25  1  0
 23 24  1  1
 25 26  1  1
 25 27  1  0
 26 19  1  0
 27 29  1  0
 28 27  2  0
M  END
$$$$
