ERI.pdb
     RDKit          3D

 29 28  0  0  1  0  0  0  0  0999 V2000
   20.7594  -15.5528  -19.4780 N   0  0  0  0  0  0  0  0  0  0  0  0
   21.8118  -15.8670  -18.5647 C   0  0  1  0  0  0  0  0  0  0  0  0
   21.8436  -14.8499  -17.4536 C   0  0  0  0  0  0  0  0  0  0  0  0
   20.5552  -14.1950  -17.1338 C   0  0  0  0  0  0  0  0  0  0  0  0
   20.5610  -13.1390  -16.1248 C   0  0  0  0  0  0  0  0  0  0  0  0
   20.7093  -11.9339  -16.4802 O   0  0  0  0  0  0  0  0  0  0  0  0
   21.6623  -17.2069  -17.9081 C   0  0  0  0  0  0  0  0  0  0  0  0
   20.4853  -17.5883  -17.6982 O   0  0  0  0  0  0  0  0  0  0  0  0
   20.4138  -13.3885  -14.7825 O   0  0  0  0  0  0  0  0  0  0  0  0
   24.8394  -22.9159  -13.9986 N   0  0  0  0  0  0  0  0  0  0  0  0
   24.9050  -23.9354  -15.0082 C   0  0  0  0  0  0  0  0  0  0  0  0
   24.7461  -25.1527  -14.6517 N   0  0  0  0  0  0  0  0  0  0  0  0
   25.1426  -23.5800  -16.3616 N   0  0  0  0  0  0  0  0  0  0  0  0
   25.2248  -22.1678  -16.6797 C   0  0  0  0  0  0  0  0  0  0  0  0
   23.8697  -21.5024  -16.5965 C   0  0  0  0  0  0  0  0  0  0  0  0
   23.9066  -20.0631  -17.0110 C   0  0  0  0  0  0  0  0  0  0  0  0
   22.5816  -19.3747  -16.9665 C   0  0  2  0  0  0  0  0  0  0  0  0
   22.7232  -18.0392  -17.5220 N   0  0  0  0  0  0  0  0  0  0  0  0
   22.1168  -19.3227  -15.5518 C   0  0  0  0  0  0  0  0  0  0  0  0
   22.5863  -18.4408  -14.7966 O   0  0  0  0  0  0  0  0  0  0  0  0
   24.7979  -25.9208  -15.3223 C   0  0  0  0  0  0  0  0  0  0  0  0
   19.6248  -16.2860  -13.5665 C   0  0  0  0  0  0  0  0  0  0  0  0
   20.5011  -17.5166  -13.6500 C   0  0  2  0  0  0  0  0  0  0  0  0
   19.6521  -18.7610  -13.8219 C   0  0  0  0  0  0  0  0  0  0  0  0
   18.5442  -18.7488  -12.8081 C   0  0  2  0  0  0  0  0  0  0  0  0
   20.4665  -20.0112  -13.8209 N   0  0  0  0  0  0  0  0  0  0  0  0
   21.1631  -20.2462  -15.0559 C   0  0  0  0  0  0  0  0  0  0  0  0
   19.5392  -21.1446  -13.5198 O   0  0  0  0  0  0  0  0  0  0  0  0
   19.1258  -21.8861  -14.4473 O   0  0  0  0  0  0  0  0  0  0  0  0
  2  1  1  6
  3  4  1  0
  3  2  1  0
  4  5  1  0
  5  9  1  0
  5  6  2  0
  7  2  1  0
  7  8  2  0
 11 10  1  0
 11 13  1  0
 12 11  2  0
 14 13  1  0
 15 16  1  0
 15 14  1  0
 17 16  1  1
 17 18  1  0
 18  7  1  0
 19 17  1  0
 20 19  2  0
 21 22  1  0
 22 23  1  0
 23 25  1  0
 23 24  1  6
 25 26  1  1
 25 27  1  0
 26 19  1  0
 27 29  1  0
 28 27  2  0
M  END
$$$$
