ERI.pdb
     RDKit          3D

 29 28  0  0  1  0  0  0  0  0999 V2000
   18.7997  -18.8778  -13.7823 N   0  0  0  0  0  0  0  0  0  0  0  0
   19.7062  -18.8906  -14.8862 C   0  0  1  0  0  0  0  0  0  0  0  0
   19.1991  -17.9790  -15.9733 C   0  0  0  0  0  0  0  0  0  0  0  0
   18.3141  -18.6008  -16.9838 C   0  0  0  0  0  0  0  0  0  0  0  0
   18.7644  -19.8403  -17.6117 C   0  0  0  0  0  0  0  0  0  0  0  0
   18.3574  -20.9521  -17.1659 O   0  0  0  0  0  0  0  0  0  0  0  0
   21.0851  -18.4124  -14.5415 C   0  0  0  0  0  0  0  0  0  0  0  0
   21.1531  -17.3009  -13.9628 O   0  0  0  0  0  0  0  0  0  0  0  0
   19.6260  -19.8652  -18.6807 O   0  0  0  0  0  0  0  0  0  0  0  0
   25.8491  -22.7396  -11.9703 N   0  0  0  0  0  0  0  0  0  0  0  0
   25.8746  -22.9136  -13.3958 C   0  0  0  0  0  0  0  0  0  0  0  0
   25.5396  -24.0510  -13.8737 N   0  0  0  0  0  0  0  0  0  0  0  0
   26.2659  -21.8383  -14.2353 N   0  0  0  0  0  0  0  0  0  0  0  0
   26.7676  -20.6370  -13.5967 C   0  0  0  0  0  0  0  0  0  0  0  0
   25.9202  -19.4330  -13.9404 C   0  0  0  0  0  0  0  0  0  0  0  0
   24.4913  -19.7914  -14.2137 C   0  0  0  0  0  0  0  0  0  0  0  0
   23.6120  -18.6247  -14.5253 C   0  0  2  0  0  0  0  0  0  0  0  0
   22.2723  -19.1064  -14.8173 N   0  0  0  0  0  0  0  0  0  0  0  0
   24.1854  -17.8907  -15.6884 C   0  0  0  0  0  0  0  0  0  0  0  0
   23.9601  -18.3225  -16.8422 O   0  0  0  0  0  0  0  0  0  0  0  0
   25.5965  -24.2524  -14.8730 C   0  0  0  0  0  0  0  0  0  0  0  0
   26.2812  -12.2561  -17.1271 C   0  0  0  0  0  0  0  0  0  0  0  0
   26.1654  -13.7200  -17.4914 C   0  0  2  0  0  0  0  0  0  0  0  0
   25.7676  -14.5381  -16.2784 C   0  0  0  0  0  0  0  0  0  0  0  0
   26.8304  -14.4111  -15.2249 C   0  0  2  0  0  0  0  0  0  0  0  0
   25.4214  -15.9464  -16.6293 N   0  0  0  0  0  0  0  0  0  0  0  0
   24.9724  -16.7259  -15.5085 C   0  0  0  0  0  0  0  0  0  0  0  0
   26.6381  -16.5632  -17.2412 O   0  0  0  0  0  0  0  0  0  0  0  0
   26.9847  -16.2520  -18.4092 O   0  0  0  0  0  0  0  0  0  0  0  0
  2  1  1  1
  3  4  1  0
  3  2  1  0
  4  5  1  0
  5  9  1  0
  5  6  2  0
  7  2  1  0
  7  8  2  0
 11 10  1  0
 11 13  1  0
 12 11  2  0
 14 13  1  0
 15 16  1  0
 15 14  1  0
 17 16  1  6
 17 18  1  0
 18  7  1  0
 19 17  1  0
 20 19  2  0
 21 22  1  0
 22 23  1  0
 23 25  1  0
 23 24  1  1
 25 26  1  6
 25 27  1  0
 26 19  1  0
 27 29  1  0
 28 27  2  0
M  END
$$$$
