ERI.pdb
     RDKit          3D

 29 28  0  0  1  0  0  0  0  0999 V2000
   27.6190  -25.7255  -16.5799 N   0  0  0  0  0  0  0  0  0  0  0  0
   27.3566  -24.3531  -16.8769 C   0  0  1  0  0  0  0  0  0  0  0  0
   26.9148  -24.2168  -18.3109 C   0  0  0  0  0  0  0  0  0  0  0  0
   27.9924  -24.2076  -19.3256 C   0  0  0  0  0  0  0  0  0  0  0  0
   28.9583  -23.1128  -19.2821 C   0  0  0  0  0  0  0  0  0  0  0  0
   28.5693  -21.9260  -19.4840 O   0  0  0  0  0  0  0  0  0  0  0  0
   26.2681  -23.7509  -16.0394 C   0  0  0  0  0  0  0  0  0  0  0  0
   25.3238  -24.5176  -15.7306 O   0  0  0  0  0  0  0  0  0  0  0  0
   30.2945  -23.3060  -19.0314 O   0  0  0  0  0  0  0  0  0  0  0  0
   25.0907  -21.1824   -8.8856 N   0  0  0  0  0  0  0  0  0  0  0  0
   23.8304  -20.9401   -9.5304 C   0  0  0  0  0  0  0  0  0  0  0  0
   22.7650  -21.0206   -8.8286 N   0  0  0  0  0  0  0  0  0  0  0  0
   23.7900  -20.6221  -10.9130 N   0  0  0  0  0  0  0  0  0  0  0  0
   25.0536  -20.3888  -11.5849 C   0  0  0  0  0  0  0  0  0  0  0  0
   24.8484  -20.0264  -13.0384 C   0  0  0  0  0  0  0  0  0  0  0  0
   25.8111  -20.7252  -13.9492 C   0  0  0  0  0  0  0  0  0  0  0  0
   25.2160  -21.8534  -14.7266 C   0  0  2  0  0  0  0  0  0  0  0  0
   26.2360  -22.4221  -15.5916 N   0  0  0  0  0  0  0  0  0  0  0  0
   24.0663  -21.3340  -15.5195 C   0  0  0  0  0  0  0  0  0  0  0  0
   24.2975  -20.5689  -16.4836 O   0  0  0  0  0  0  0  0  0  0  0  0
   21.8390  -20.8965   -9.2403 C   0  0  0  0  0  0  0  0  0  0  0  0
   20.3303  -24.1458  -17.9013 C   0  0  0  0  0  0  0  0  0  0  0  0
   21.3063  -23.0744  -17.4669 C   0  0  2  0  0  0  0  0  0  0  0  0
   20.6682  -22.1621  -16.4376 C   0  0  0  0  0  0  0  0  0  0  0  0
   19.3959  -21.5951  -16.9990 C   0  0  2  0  0  0  0  0  0  0  0  0
   21.6182  -21.1345  -15.9199 N   0  0  0  0  0  0  0  0  0  0  0  0
   22.7319  -21.6895  -15.2008 C   0  0  0  0  0  0  0  0  0  0  0  0
   20.8370  -20.2104  -15.0419 O   0  0  0  0  0  0  0  0  0  0  0  0
   20.7090  -20.4610  -13.8163 O   0  0  0  0  0  0  0  0  0  0  0  0
  2  1  1  1
  3  4  1  0
  3  2  1  0
  4  5  1  0
  5  9  1  0
  5  6  2  0
  7  2  1  0
  7  8  2  0
 11 10  1  0
 11 13  1  0
 12 11  2  0
 14 13  1  0
 15 16  1  0
 15 14  1  0
 17 16  1  6
 17 18  1  0
 18  7  1  0
 19 17  1  0
 20 19  2  0
 21 22  1  0
 22 23  1  0
 23 25  1  0
 23 24  1  1
 25 26  1  6
 25 27  1  0
 26 19  1  0
 27 29  1  0
 28 27  2  0
M  END
$$$$
