ERI.pdb
     RDKit          3D

 29 28  0  0  1  0  0  0  0  0999 V2000
   18.5598  -27.2194  -13.6384 N   0  0  0  0  0  0  0  0  0  0  0  0
   19.2988  -26.6088  -14.6975 C   0  0  1  0  0  0  0  0  0  0  0  0
   18.3545  -25.9140  -15.6439 C   0  0  0  0  0  0  0  0  0  0  0  0
   17.8741  -24.5794  -15.2207 C   0  0  0  0  0  0  0  0  0  0  0  0
   17.9457  -23.4912  -16.1925 C   0  0  0  0  0  0  0  0  0  0  0  0
   17.8050  -22.2952  -15.8049 O   0  0  0  0  0  0  0  0  0  0  0  0
   20.2739  -25.5686  -14.2325 C   0  0  0  0  0  0  0  0  0  0  0  0
   19.9540  -24.9397  -13.1948 O   0  0  0  0  0  0  0  0  0  0  0  0
   18.1591  -23.7004  -17.5328 O   0  0  0  0  0  0  0  0  0  0  0  0
   27.8364  -25.5079  -16.2251 N   0  0  0  0  0  0  0  0  0  0  0  0
   26.7301  -25.3486  -17.1272 C   0  0  0  0  0  0  0  0  0  0  0  0
   26.6526  -26.1307  -18.1353 N   0  0  0  0  0  0  0  0  0  0  0  0
   25.7589  -24.3415  -16.8886 N   0  0  0  0  0  0  0  0  0  0  0  0
   25.9642  -23.4680  -15.7496 C   0  0  0  0  0  0  0  0  0  0  0  0
   24.6898  -23.2839  -14.9571 C   0  0  0  0  0  0  0  0  0  0  0  0
   23.6788  -24.3548  -15.2322 C   0  0  0  0  0  0  0  0  0  0  0  0
   22.4275  -24.2434  -14.4240 C   0  0  2  0  0  0  0  0  0  0  0  0
   21.4869  -25.2596  -14.8653 N   0  0  0  0  0  0  0  0  0  0  0  0
   21.8640  -22.8753  -14.6008 C   0  0  0  0  0  0  0  0  0  0  0  0
   21.2676  -22.6040  -15.6681 O   0  0  0  0  0  0  0  0  0  0  0  0
   25.9279  -26.0217  -18.8463 C   0  0  0  0  0  0  0  0  0  0  0  0
   20.8824  -19.6188  -10.1287 C   0  0  0  0  0  0  0  0  0  0  0  0
   20.6483  -20.3384  -11.4390 C   0  0  2  0  0  0  0  0  0  0  0  0
   21.5005  -19.7315  -12.5364 C   0  0  0  0  0  0  0  0  0  0  0  0
   21.0948  -18.3007  -12.7449 C   0  0  2  0  0  0  0  0  0  0  0  0
   21.4974  -20.5543  -13.7812 N   0  0  0  0  0  0  0  0  0  0  0  0
   21.9928  -21.8899  -13.5905 C   0  0  0  0  0  0  0  0  0  0  0  0
   22.3244  -19.8296  -14.7941 O   0  0  0  0  0  0  0  0  0  0  0  0
   23.5108  -20.1848  -15.0121 O   0  0  0  0  0  0  0  0  0  0  0  0
  2  1  1  1
  3  4  1  0
  3  2  1  0
  4  5  1  0
  5  9  1  0
  5  6  2  0
  7  2  1  0
  7  8  2  0
 11 10  1  0
 11 13  1  0
 12 11  2  0
 14 13  1  0
 15 16  1  0
 15 14  1  0
 17 16  1  6
 17 18  1  0
 18  7  1  0
 19 17  1  0
 20 19  2  0
 21 22  1  0
 22 23  1  0
 23 25  1  0
 23 24  1  6
 25 26  1  6
 25 27  1  0
 26 19  1  0
 27 29  1  0
 28 27  2  0
M  END
$$$$
