KDM.pdb
     RDKit          3D

 26 25  0  0  1  0  0  0  0  0999 V2000
    9.6107  -14.2344   18.6264 N   0  0  0  0  0  0  0  0  0  0  0  0
    8.6415  -13.7230   19.5795 C   0  0  1  0  0  0  0  0  0  0  0  0
    7.2580  -13.6879   18.9860 C   0  0  0  0  0  0  0  0  0  0  0  0
    7.2522  -13.3881   17.5172 C   0  0  0  0  0  0  0  0  0  0  0  0
    7.7060  -14.5045   16.6538 C   0  0  0  0  0  0  0  0  0  0  0  0
    7.6662  -14.1630   15.1744 C   0  0  0  0  0  0  0  0  0  0  0  0
    8.3057  -15.2516   14.4373 N   0  0  0  0  0  0  0  0  0  0  0  0
    8.5987  -14.6826   20.7146 C   0  0  0  0  0  0  0  0  0  0  0  0
    7.6272  -14.6225   21.4968 O   0  0  0  0  0  0  0  0  0  0  0  0
    9.6363  -15.6615   20.9254 N   0  0  0  0  0  0  0  0  0  0  0  0
    9.5584  -16.5709   22.0190 C   0  0  1  0  0  0  0  0  0  0  0  0
   10.3683  -17.8031   21.7519 C   0  0  0  0  0  0  0  0  0  0  0  0
   11.8129  -17.5357   21.7111 C   0  0  0  0  0  0  0  0  0  0  0  0
   12.3302  -17.1919   20.6142 O   0  0  0  0  0  0  0  0  0  0  0  0
    9.9345  -15.9359   23.3109 C   0  0  0  0  0  0  0  0  0  0  0  0
   10.7055  -14.9452   23.3078 O   0  0  0  0  0  0  0  0  0  0  0  0
   12.5822  -17.6570   22.8381 O   0  0  0  0  0  0  0  0  0  0  0  0
    6.5390  -11.6166   27.5398 C   0  0  0  0  0  0  0  0  0  0  0  0
    7.7245  -12.6534   26.6213 S   0  0  0  0  0  0  0  0  0  0  0  0
    6.8998  -13.7875   25.5188 C   0  0  0  0  0  0  0  0  0  0  0  0
    7.7303  -14.7224   24.7437 C   0  0  0  0  0  0  0  0  0  0  0  0
    8.7132  -15.5275   25.4996 C   0  0  2  0  0  0  0  0  0  0  0  0
    9.4562  -16.4057   24.5535 N   0  0  0  0  0  0  0  0  0  0  0  0
    8.2562  -16.3144   26.6369 C   0  0  0  0  0  0  0  0  0  0  0  0
    8.6331  -15.9665   27.9675 O   0  0  0  0  0  0  0  0  0  0  0  0
    7.5252  -17.3240   26.5812 O   0  0  0  0  0  0  0  0  0  0  0  0
  2  1  1  6
  3  2  1  0
  4  3  1  0
  5  4  1  0
  6  5  1  0
  7  6  1  0
  8  9  2  0
  8  2  1  0
 10  8  1  0
 11 10  1  0
 11 12  1  6
 13 12  1  0
 14 13  2  0
 15 11  1  0
 16 15  2  0
 17 13  1  0
 19 18  1  0
 20 19  1  0
 21 20  1  0
 22 21  1  6
 22 23  1  0
 23 15  1  0
 24 25  1  0
 24 22  1  0
 26 24  2  0
M  END
$$$$
