KDM.pdb
     RDKit          3D

 26 25  0  0  1  0  0  0  0  0999 V2000
    7.0019  -17.1750   20.8189 N   0  0  0  0  0  0  0  0  0  0  0  0
    8.3919  -16.7595   20.8860 C   0  0  1  0  0  0  0  0  0  0  0  0
    8.5198  -15.2625   20.7847 C   0  0  0  0  0  0  0  0  0  0  0  0
    8.0125  -14.7124   19.4858 C   0  0  0  0  0  0  0  0  0  0  0  0
    8.1329  -13.2415   19.3450 C   0  0  0  0  0  0  0  0  0  0  0  0
    7.5682  -12.7238   18.0336 C   0  0  0  0  0  0  0  0  0  0  0  0
    7.7780  -11.2778   17.9854 N   0  0  0  0  0  0  0  0  0  0  0  0
    8.8972  -17.1446   22.2305 C   0  0  0  0  0  0  0  0  0  0  0  0
    8.0671  -17.2714   23.1546 O   0  0  0  0  0  0  0  0  0  0  0  0
   10.2989  -17.3701   22.4826 N   0  0  0  0  0  0  0  0  0  0  0  0
   10.7492  -17.7241   23.7868 C   0  0  1  0  0  0  0  0  0  0  0  0
   12.0758  -18.4185   23.7272 C   0  0  0  0  0  0  0  0  0  0  0  0
   12.5310  -18.8878   25.0434 C   0  0  0  0  0  0  0  0  0  0  0  0
   13.3882  -18.2020   25.6631 O   0  0  0  0  0  0  0  0  0  0  0  0
   10.7808  -16.5581   24.7105 C   0  0  0  0  0  0  0  0  0  0  0  0
   11.5530  -15.5994   24.4644 O   0  0  0  0  0  0  0  0  0  0  0  0
   12.0369  -20.0442   25.5867 O   0  0  0  0  0  0  0  0  0  0  0  0
    7.2541  -11.6109   26.5222 C   0  0  0  0  0  0  0  0  0  0  0  0
    6.5018  -13.2698   26.5987 S   0  0  0  0  0  0  0  0  0  0  0  0
    7.7103  -14.5310   26.9602 C   0  0  0  0  0  0  0  0  0  0  0  0
    9.0883  -14.3205   26.4898 C   0  0  0  0  0  0  0  0  0  0  0  0
   10.0793  -15.3611   26.8374 C   0  0  2  0  0  0  0  0  0  0  0  0
    9.9708  -16.4835   25.8645 N   0  0  0  0  0  0  0  0  0  0  0  0
   10.0991  -15.8927   28.1933 C   0  0  0  0  0  0  0  0  0  0  0  0
   10.0633  -17.2986   28.4298 O   0  0  0  0  0  0  0  0  0  0  0  0
   10.1468  -15.2190   29.2423 O   0  0  0  0  0  0  0  0  0  0  0  0
  2  1  1  1
  3  2  1  0
  4  3  1  0
  5  4  1  0
  6  5  1  0
  7  6  1  0
  8  9  2  0
  8  2  1  0
 10  8  1  0
 11 10  1  0
 11 12  1  6
 13 12  1  0
 14 13  2  0
 15 11  1  0
 16 15  2  0
 17 13  1  0
 19 18  1  0
 20 19  1  0
 21 20  1  0
 22 21  1  1
 22 23  1  0
 23 15  1  0
 24 25  1  0
 24 22  1  0
 26 24  2  0
M  END
$$$$
