KDM.pdb
     RDKit          3D

 26 25  0  0  1  0  0  0  0  0999 V2000
    7.4174  -20.3269   22.1700 N   0  0  0  0  0  0  0  0  0  0  0  0
    8.6230  -20.8577   22.7815 C   0  0  1  0  0  0  0  0  0  0  0  0
    9.3509  -21.7819   21.8414 C   0  0  0  0  0  0  0  0  0  0  0  0
    8.5729  -23.0192   21.5084 C   0  0  0  0  0  0  0  0  0  0  0  0
    9.3163  -24.2886   21.6924 C   0  0  0  0  0  0  0  0  0  0  0  0
    8.4846  -25.5154   21.3610 C   0  0  0  0  0  0  0  0  0  0  0  0
    9.3219  -26.6990   21.5492 N   0  0  0  0  0  0  0  0  0  0  0  0
    9.5263  -19.7043   23.0364 C   0  0  0  0  0  0  0  0  0  0  0  0
   10.5961  -19.9204   23.6432 O   0  0  0  0  0  0  0  0  0  0  0  0
    9.1976  -18.3683   22.6052 N   0  0  0  0  0  0  0  0  0  0  0  0
   10.0517  -17.2753   22.9289 C   0  0  1  0  0  0  0  0  0  0  0  0
    9.9731  -16.2040   21.8839 C   0  0  0  0  0  0  0  0  0  0  0  0
   11.2917  -15.8293   21.3541 C   0  0  0  0  0  0  0  0  0  0  0  0
   12.2682  -15.7812   22.1499 O   0  0  0  0  0  0  0  0  0  0  0  0
    9.7886  -16.7351   24.2900 C   0  0  0  0  0  0  0  0  0  0  0  0
    9.3344  -17.4983   25.1772 O   0  0  0  0  0  0  0  0  0  0  0  0
   11.4586  -15.5381   20.0260 O   0  0  0  0  0  0  0  0  0  0  0  0
    6.4803  -11.6000   25.3398 C   0  0  0  0  0  0  0  0  0  0  0  0
    6.9873  -11.9384   27.0581 S   0  0  0  0  0  0  0  0  0  0  0  0
    8.1935  -13.2494   27.1486 C   0  0  0  0  0  0  0  0  0  0  0  0
    8.7355  -13.7760   25.8862 C   0  0  0  0  0  0  0  0  0  0  0  0
    9.7476  -14.8487   25.9895 C   0  0  2  0  0  0  0  0  0  0  0  0
   10.0303  -15.3861   24.6295 N   0  0  0  0  0  0  0  0  0  0  0  0
    9.5150  -15.9529   26.9103 C   0  0  0  0  0  0  0  0  0  0  0  0
   10.1615  -15.9964   28.1806 O   0  0  0  0  0  0  0  0  0  0  0  0
    8.7671  -16.9304   26.7058 O   0  0  0  0  0  0  0  0  0  0  0  0
  2  1  1  6
  3  2  1  0
  4  3  1  0
  5  4  1  0
  6  5  1  0
  7  6  1  0
  8  9  2  0
  8  2  1  0
 10  8  1  0
 11 10  1  0
 11 12  1  6
 13 12  1  0
 14 13  2  0
 15 11  1  0
 16 15  2  0
 17 13  1  0
 19 18  1  0
 20 19  1  0
 21 20  1  0
 22 21  1  6
 22 23  1  0
 23 15  1  0
 24 25  1  0
 24 22  1  0
 26 24  2  0
M  END
$$$$
