KDM.pdb
     RDKit          3D

 26 25  0  0  1  0  0  0  0  0999 V2000
    9.9896  -14.0621   18.7383 N   0  0  0  0  0  0  0  0  0  0  0  0
    8.8683  -13.7964   19.6223 C   0  0  1  0  0  0  0  0  0  0  0  0
    7.5559  -13.9404   18.8980 C   0  0  0  0  0  0  0  0  0  0  0  0
    7.5565  -13.3037   17.5409 C   0  0  0  0  0  0  0  0  0  0  0  0
    7.6871  -14.2529   16.4097 C   0  0  0  0  0  0  0  0  0  0  0  0
    7.5626  -13.5795   15.0541 C   0  0  0  0  0  0  0  0  0  0  0  0
    7.7908  -14.5881   14.0207 N   0  0  0  0  0  0  0  0  0  0  0  0
    8.8920  -14.8396   20.6817 C   0  0  0  0  0  0  0  0  0  0  0  0
    7.8638  -14.9971   21.3724 O   0  0  0  0  0  0  0  0  0  0  0  0
   10.0558  -15.6563   20.9219 N   0  0  0  0  0  0  0  0  0  0  0  0
   10.0497  -16.6334   21.9583 C   0  0  1  0  0  0  0  0  0  0  0  0
   11.2475  -17.5285   21.8601 C   0  0  0  0  0  0  0  0  0  0  0  0
   11.4533  -18.0555   20.5037 C   0  0  0  0  0  0  0  0  0  0  0  0
   10.6464  -18.9189   20.0650 O   0  0  0  0  0  0  0  0  0  0  0  0
    9.9290  -16.0239   23.3102 C   0  0  0  0  0  0  0  0  0  0  0  0
   10.6599  -15.0491   23.6126 O   0  0  0  0  0  0  0  0  0  0  0  0
   12.4978  -17.6202   19.7316 O   0  0  0  0  0  0  0  0  0  0  0  0
    6.6953  -11.5172   27.8890 C   0  0  0  0  0  0  0  0  0  0  0  0
    7.4571  -12.3478   26.4560 S   0  0  0  0  0  0  0  0  0  0  0  0
    7.0103  -14.0728   26.3735 C   0  0  0  0  0  0  0  0  0  0  0  0
    7.5220  -14.8643   25.2438 C   0  0  0  0  0  0  0  0  0  0  0  0
    8.6927  -15.7274   25.5084 C   0  0  2  0  0  0  0  0  0  0  0  0
    9.0178  -16.5005   24.2777 N   0  0  0  0  0  0  0  0  0  0  0  0
    8.6627  -16.6265   26.6540 C   0  0  0  0  0  0  0  0  0  0  0  0
    8.9829  -16.1576   27.9621 O   0  0  0  0  0  0  0  0  0  0  0  0
    8.3704  -17.8391   26.6244 O   0  0  0  0  0  0  0  0  0  0  0  0
  2  1  1  6
  3  2  1  0
  4  3  1  0
  5  4  1  0
  6  5  1  0
  7  6  1  0
  8  9  2  0
  8  2  1  0
 10  8  1  0
 11 10  1  0
 11 12  1  1
 13 12  1  0
 14 13  2  0
 15 11  1  0
 16 15  2  0
 17 13  1  0
 19 18  1  0
 20 19  1  0
 21 20  1  0
 22 21  1  6
 22 23  1  0
 23 15  1  0
 24 25  1  0
 24 22  1  0
 26 24  2  0
M  END
$$$$
