KDM.pdb
     RDKit          3D

 26 25  0  0  1  0  0  0  0  0999 V2000
    8.8492  -16.1368   18.2755 N   0  0  0  0  0  0  0  0  0  0  0  0
    9.2287  -15.2469   19.3587 C   0  0  1  0  0  0  0  0  0  0  0  0
    8.1340  -14.2583   19.6623 C   0  0  0  0  0  0  0  0  0  0  0  0
    8.0356  -13.1562   18.6510 C   0  0  0  0  0  0  0  0  0  0  0  0
    7.5887  -13.5870   17.3046 C   0  0  0  0  0  0  0  0  0  0  0  0
    7.5559  -12.4490   16.2993 C   0  0  0  0  0  0  0  0  0  0  0  0
    6.9456  -12.9459   15.0672 N   0  0  0  0  0  0  0  0  0  0  0  0
    9.3987  -16.0874   20.5737 C   0  0  0  0  0  0  0  0  0  0  0  0
    8.3888  -16.6545   21.0402 O   0  0  0  0  0  0  0  0  0  0  0  0
   10.6813  -16.2568   21.2104 N   0  0  0  0  0  0  0  0  0  0  0  0
   10.8072  -17.0694   22.3736 C   0  0  1  0  0  0  0  0  0  0  0  0
   12.1782  -17.6674   22.4655 C   0  0  0  0  0  0  0  0  0  0  0  0
   12.5863  -18.3455   21.2272 C   0  0  0  0  0  0  0  0  0  0  0  0
   11.9448  -19.3670   20.8611 O   0  0  0  0  0  0  0  0  0  0  0  0
   10.4426  -16.3381   23.6170 C   0  0  0  0  0  0  0  0  0  0  0  0
   11.1543  -15.3758   23.9955 O   0  0  0  0  0  0  0  0  0  0  0  0
   13.6402  -17.8803   20.4857 O   0  0  0  0  0  0  0  0  0  0  0  0
    6.5866  -11.2790   25.3690 C   0  0  0  0  0  0  0  0  0  0  0  0
    6.3483  -13.0495   25.7331 S   0  0  0  0  0  0  0  0  0  0  0  0
    7.8690  -13.9693   25.5809 C   0  0  0  0  0  0  0  0  0  0  0  0
    7.8236  -15.4207   25.8178 C   0  0  0  0  0  0  0  0  0  0  0  0
    9.1110  -16.1460   25.7707 C   0  0  2  0  0  0  0  0  0  0  0  0
    9.3183  -16.6846   24.3977 N   0  0  0  0  0  0  0  0  0  0  0  0
    9.3668  -17.1949   26.7484 C   0  0  0  0  0  0  0  0  0  0  0  0
    9.7322  -16.8738   28.0890 O   0  0  0  0  0  0  0  0  0  0  0  0
    9.2996  -18.4229   26.5381 O   0  0  0  0  0  0  0  0  0  0  0  0
  2  1  1  6
  3  2  1  0
  4  3  1  0
  5  4  1  0
  6  5  1  0
  7  6  1  0
  8  9  2  0
  8  2  1  0
 10  8  1  0
 11 10  1  0
 11 12  1  1
 13 12  1  0
 14 13  2  0
 15 11  1  0
 16 15  2  0
 17 13  1  0
 19 18  1  0
 20 19  1  0
 21 20  1  0
 22 21  1  6
 22 23  1  0
 23 15  1  0
 24 25  1  0
 24 22  1  0
 26 24  2  0
M  END
$$$$
