KDM.pdb
     RDKit          3D

 26 25  0  0  1  0  0  0  0  0999 V2000
    6.2736  -16.4049   21.5332 N   0  0  0  0  0  0  0  0  0  0  0  0
    7.2007  -17.2615   20.8148 C   0  0  1  0  0  0  0  0  0  0  0  0
    7.5450  -16.6845   19.4672 C   0  0  0  0  0  0  0  0  0  0  0  0
    7.5965  -15.1864   19.4611 C   0  0  0  0  0  0  0  0  0  0  0  0
    7.8001  -14.5775   18.1248 C   0  0  0  0  0  0  0  0  0  0  0  0
    7.8892  -13.0620   18.1719 C   0  0  0  0  0  0  0  0  0  0  0  0
    8.1136  -12.5755   16.8117 N   0  0  0  0  0  0  0  0  0  0  0  0
    8.4612  -17.2966   21.6029 C   0  0  0  0  0  0  0  0  0  0  0  0
    8.8487  -18.4003   22.0401 O   0  0  0  0  0  0  0  0  0  0  0  0
    9.2293  -16.1052   21.8665 N   0  0  0  0  0  0  0  0  0  0  0  0
   10.4118  -16.1699   22.6580 C   0  0  1  0  0  0  0  0  0  0  0  0
   11.4465  -15.2081   22.1579 C   0  0  0  0  0  0  0  0  0  0  0  0
   12.2842  -15.7778   21.0932 C   0  0  0  0  0  0  0  0  0  0  0  0
   11.9829  -15.5317   19.8941 O   0  0  0  0  0  0  0  0  0  0  0  0
   10.1348  -15.9742   24.1067 C   0  0  0  0  0  0  0  0  0  0  0  0
   11.0940  -15.9264   24.9151 O   0  0  0  0  0  0  0  0  0  0  0  0
   13.3684  -16.5592   21.3942 O   0  0  0  0  0  0  0  0  0  0  0  0
    8.1400  -11.6395   26.6506 C   0  0  0  0  0  0  0  0  0  0  0  0
    6.6281  -12.6544   26.7414 S   0  0  0  0  0  0  0  0  0  0  0  0
    6.7252  -14.0866   25.6826 C   0  0  0  0  0  0  0  0  0  0  0  0
    7.1412  -15.3627   26.2853 C   0  0  0  0  0  0  0  0  0  0  0  0
    8.5462  -15.7732   26.0776 C   0  0  2  0  0  0  0  0  0  0  0  0
    8.8249  -15.8387   24.6160 N   0  0  0  0  0  0  0  0  0  0  0  0
    9.0294  -16.9878   26.7199 C   0  0  0  0  0  0  0  0  0  0  0  0
    8.9191  -18.2533   26.0717 O   0  0  0  0  0  0  0  0  0  0  0  0
    9.5641  -17.0570   27.8451 O   0  0  0  0  0  0  0  0  0  0  0  0
  2  1  1  1
  3  2  1  0
  4  3  1  0
  5  4  1  0
  6  5  1  0
  7  6  1  0
  8  9  2  0
  8  2  1  0
 10  8  1  0
 11 10  1  0
 11 12  1  6
 13 12  1  0
 14 13  2  0
 15 11  1  0
 16 15  2  0
 17 13  1  0
 19 18  1  0
 20 19  1  0
 21 20  1  0
 22 21  1  6
 22 23  1  0
 23 15  1  0
 24 25  1  0
 24 22  1  0
 26 24  2  0
M  END
$$$$
