KDM.pdb
     RDKit          3D

 26 25  0  0  1  0  0  0  0  0999 V2000
    6.4121  -17.4477   20.3650 N   0  0  0  0  0  0  0  0  0  0  0  0
    7.8246  -17.2996   20.0614 C   0  0  1  0  0  0  0  0  0  0  0  0
    8.0934  -16.0126   19.3272 C   0  0  0  0  0  0  0  0  0  0  0  0
    7.4614  -14.8184   19.9767 C   0  0  0  0  0  0  0  0  0  0  0  0
    7.6264  -13.5469   19.2325 C   0  0  0  0  0  0  0  0  0  0  0  0
    8.0288  -13.7567   17.7831 C   0  0  0  0  0  0  0  0  0  0  0  0
    8.1500  -12.4453   17.1485 N   0  0  0  0  0  0  0  0  0  0  0  0
    8.5426  -17.2120   21.3607 C   0  0  0  0  0  0  0  0  0  0  0  0
    7.8887  -17.4086   22.4062 O   0  0  0  0  0  0  0  0  0  0  0  0
    9.9507  -16.9107   21.4352 N   0  0  0  0  0  0  0  0  0  0  0  0
   10.6303  -16.9451   22.6865 C   0  0  1  0  0  0  0  0  0  0  0  0
   12.1134  -16.8463   22.4955 C   0  0  0  0  0  0  0  0  0  0  0  0
   12.6737  -18.0068   21.7890 C   0  0  0  0  0  0  0  0  0  0  0  0
   13.5752  -17.8104   20.9301 O   0  0  0  0  0  0  0  0  0  0  0  0
   10.1283  -15.9116   23.6319 C   0  0  0  0  0  0  0  0  0  0  0  0
    9.8927  -14.7536   23.2084 O   0  0  0  0  0  0  0  0  0  0  0  0
   12.2279  -19.2744   22.0556 O   0  0  0  0  0  0  0  0  0  0  0  0
    5.9833  -11.8135   27.4650 C   0  0  0  0  0  0  0  0  0  0  0  0
    7.3716  -12.7785   26.7829 S   0  0  0  0  0  0  0  0  0  0  0  0
    6.8044  -14.1766   25.8314 C   0  0  0  0  0  0  0  0  0  0  0  0
    7.8099  -14.9764   25.1146 C   0  0  0  0  0  0  0  0  0  0  0  0
    9.0498  -15.3055   25.8495 C   0  0  2  0  0  0  0  0  0  0  0  0
    9.9038  -16.1810   24.9995 N   0  0  0  0  0  0  0  0  0  0  0  0
    8.9484  -15.8747   27.1863 C   0  0  0  0  0  0  0  0  0  0  0  0
    9.1703  -15.0715   28.3436 O   0  0  0  0  0  0  0  0  0  0  0  0
    8.6719  -17.0608   27.4571 O   0  0  0  0  0  0  0  0  0  0  0  0
  2  1  1  1
  3  2  1  0
  4  3  1  0
  5  4  1  0
  6  5  1  0
  7  6  1  0
  8  9  2  0
  8  2  1  0
 10  8  1  0
 11 10  1  0
 11 12  1  6
 13 12  1  0
 14 13  2  0
 15 11  1  0
 16 15  2  0
 17 13  1  0
 19 18  1  0
 20 19  1  0
 21 20  1  0
 22 21  1  6
 22 23  1  0
 23 15  1  0
 24 25  1  0
 24 22  1  0
 26 24  2  0
M  END
$$$$
