KDM.pdb
     RDKit          3D

 26 25  0  0  1  0  0  0  0  0999 V2000
    6.9124  -16.3845   20.8010 N   0  0  0  0  0  0  0  0  0  0  0  0
    8.1042  -15.6002   21.0728 C   0  0  1  0  0  0  0  0  0  0  0  0
    7.7508  -14.2003   21.5008 C   0  0  0  0  0  0  0  0  0  0  0  0
    7.1877  -13.3667   20.3894 C   0  0  0  0  0  0  0  0  0  0  0  0
    7.9969  -13.3595   19.1472 C   0  0  0  0  0  0  0  0  0  0  0  0
    7.3861  -12.5088   18.0473 C   0  0  0  0  0  0  0  0  0  0  0  0
    8.1963  -12.6712   16.8413 N   0  0  0  0  0  0  0  0  0  0  0  0
    8.7942  -16.2409   22.2237 C   0  0  0  0  0  0  0  0  0  0  0  0
    8.0912  -16.7981   23.0924 O   0  0  0  0  0  0  0  0  0  0  0  0
   10.2302  -16.2316   22.3534 N   0  0  0  0  0  0  0  0  0  0  0  0
   10.8580  -16.8624   23.4656 C   0  0  1  0  0  0  0  0  0  0  0  0
   12.2602  -17.2714   23.1304 C   0  0  0  0  0  0  0  0  0  0  0  0
   12.3366  -18.0955   21.9159 C   0  0  0  0  0  0  0  0  0  0  0  0
   11.7609  -19.2169   21.9126 O   0  0  0  0  0  0  0  0  0  0  0  0
   10.8094  -16.0237   24.6936 C   0  0  0  0  0  0  0  0  0  0  0  0
   11.4882  -14.9690   24.7451 O   0  0  0  0  0  0  0  0  0  0  0  0
   13.0178  -17.6574   20.8110 O   0  0  0  0  0  0  0  0  0  0  0  0
    7.0931  -11.1882   25.6717 C   0  0  0  0  0  0  0  0  0  0  0  0
    7.0708  -12.7634   26.5893 S   0  0  0  0  0  0  0  0  0  0  0  0
    8.6302  -13.6217   26.4733 C   0  0  0  0  0  0  0  0  0  0  0  0
    8.7958  -14.8591   27.2518 C   0  0  0  0  0  0  0  0  0  0  0  0
   10.0706  -15.5886   27.0839 C   0  0  2  0  0  0  0  0  0  0  0  0
   10.0242  -16.3678   25.8154 N   0  0  0  0  0  0  0  0  0  0  0  0
   10.5418  -16.4449   28.1638 C   0  0  0  0  0  0  0  0  0  0  0  0
   10.9636  -15.8902   29.4080 O   0  0  0  0  0  0  0  0  0  0  0  0
   10.6257  -17.6892   28.1269 O   0  0  0  0  0  0  0  0  0  0  0  0
  2  1  1  1
  3  2  1  0
  4  3  1  0
  5  4  1  0
  6  5  1  0
  7  6  1  0
  8  9  2  0
  8  2  1  0
 10  8  1  0
 11 10  1  0
 11 12  1  6
 13 12  1  0
 14 13  2  0
 15 11  1  0
 16 15  2  0
 17 13  1  0
 19 18  1  0
 20 19  1  0
 21 20  1  0
 22 21  1  1
 22 23  1  0
 23 15  1  0
 24 25  1  0
 24 22  1  0
 26 24  2  0
M  END
$$$$
