KDM.pdb
     RDKit          3D

 26 25  0  0  1  0  0  0  0  0999 V2000
    6.4390  -19.4398   21.6082 N   0  0  0  0  0  0  0  0  0  0  0  0
    7.8131  -19.8054   21.9040 C   0  0  1  0  0  0  0  0  0  0  0  0
    8.3145  -20.8598   20.9530 C   0  0  0  0  0  0  0  0  0  0  0  0
    7.2132  -21.5826   20.2376 C   0  0  0  0  0  0  0  0  0  0  0  0
    6.4728  -22.5634   21.0669 C   0  0  0  0  0  0  0  0  0  0  0  0
    5.4920  -23.3985   20.2625 C   0  0  0  0  0  0  0  0  0  0  0  0
    4.6803  -24.1759   21.1974 N   0  0  0  0  0  0  0  0  0  0  0  0
    8.6445  -18.5931   21.6797 C   0  0  0  0  0  0  0  0  0  0  0  0
    9.8860  -18.7260   21.6763 O   0  0  0  0  0  0  0  0  0  0  0  0
    8.0566  -17.2932   21.4701 N   0  0  0  0  0  0  0  0  0  0  0  0
    8.8799  -16.1335   21.3919 C   0  0  1  0  0  0  0  0  0  0  0  0
    8.3169  -15.1392   20.4223 C   0  0  0  0  0  0  0  0  0  0  0  0
    8.2017  -15.6773   19.0595 C   0  0  0  0  0  0  0  0  0  0  0  0
    9.0858  -16.4782   18.6523 O   0  0  0  0  0  0  0  0  0  0  0  0
    9.1241  -15.5217   22.7260 C   0  0  0  0  0  0  0  0  0  0  0  0
    9.4387  -14.3086   22.7979 O   0  0  0  0  0  0  0  0  0  0  0  0
    7.1582  -15.3178   18.2479 O   0  0  0  0  0  0  0  0  0  0  0  0
    7.2646  -10.9847   26.9347 C   0  0  0  0  0  0  0  0  0  0  0  0
    6.4071  -12.5126   26.4305 S   0  0  0  0  0  0  0  0  0  0  0  0
    7.4880  -13.9304   26.4870 C   0  0  0  0  0  0  0  0  0  0  0  0
    7.8393  -14.5807   25.2149 C   0  0  0  0  0  0  0  0  0  0  0  0
    8.9186  -15.5903   25.2562 C   0  0  2  0  0  0  0  0  0  0  0  0
    9.0162  -16.2557   23.9273 N   0  0  0  0  0  0  0  0  0  0  0  0
    8.9013  -16.6000   26.3058 C   0  0  0  0  0  0  0  0  0  0  0  0
    9.1469  -16.2477   27.6656 O   0  0  0  0  0  0  0  0  0  0  0  0
    8.6823  -17.8178   26.1455 O   0  0  0  0  0  0  0  0  0  0  0  0
  2  1  1  6
  3  2  1  0
  4  3  1  0
  5  4  1  0
  6  5  1  0
  7  6  1  0
  8  9  2  0
  8  2  1  0
 10  8  1  0
 11 10  1  0
 11 12  1  6
 13 12  1  0
 14 13  2  0
 15 11  1  0
 16 15  2  0
 17 13  1  0
 19 18  1  0
 20 19  1  0
 21 20  1  0
 22 21  1  6
 22 23  1  0
 23 15  1  0
 24 25  1  0
 24 22  1  0
 26 24  2  0
M  END
$$$$
