KDM.pdb
     RDKit          3D

 26 25  0  0  1  0  0  0  0  0999 V2000
    9.5995  -14.9219   18.4611 N   0  0  0  0  0  0  0  0  0  0  0  0
    8.8735  -14.1591   19.4612 C   0  0  1  0  0  0  0  0  0  0  0  0
    7.4342  -13.9662   19.0625 C   0  0  0  0  0  0  0  0  0  0  0  0
    7.2743  -13.3483   17.7061 C   0  0  0  0  0  0  0  0  0  0  0  0
    7.8290  -14.1498   16.5892 C   0  0  0  0  0  0  0  0  0  0  0  0
    7.5850  -13.5191   15.2292 C   0  0  0  0  0  0  0  0  0  0  0  0
    8.2090  -14.3665   14.2145 N   0  0  0  0  0  0  0  0  0  0  0  0
    8.8697  -14.9687   20.7086 C   0  0  0  0  0  0  0  0  0  0  0  0
    8.1126  -14.6135   21.6358 O   0  0  0  0  0  0  0  0  0  0  0  0
    9.7064  -16.1326   20.8649 N   0  0  0  0  0  0  0  0  0  0  0  0
    9.6184  -16.9314   22.0409 C   0  0  1  0  0  0  0  0  0  0  0  0
   10.6057  -18.0581   22.0005 C   0  0  0  0  0  0  0  0  0  0  0  0
   10.1982  -19.1380   21.0908 C   0  0  0  0  0  0  0  0  0  0  0  0
    9.0446  -19.0949   20.5845 O   0  0  0  0  0  0  0  0  0  0  0  0
    9.7556  -16.1255   23.2841 C   0  0  0  0  0  0  0  0  0  0  0  0
   10.8061  -15.4657   23.4763 O   0  0  0  0  0  0  0  0  0  0  0  0
   11.0507  -20.1697   20.7983 O   0  0  0  0  0  0  0  0  0  0  0  0
    6.4721  -10.9132   27.9717 C   0  0  0  0  0  0  0  0  0  0  0  0
    6.3858  -12.0198   26.5254 S   0  0  0  0  0  0  0  0  0  0  0  0
    7.6747  -13.2526   26.5546 C   0  0  0  0  0  0  0  0  0  0  0  0
    7.7632  -14.1846   25.4197 C   0  0  0  0  0  0  0  0  0  0  0  0
    8.8474  -15.1889   25.4627 C   0  0  2  0  0  0  0  0  0  0  0  0
    8.7437  -16.0711   24.2673 N   0  0  0  0  0  0  0  0  0  0  0  0
    9.0061  -16.0059   26.6580 C   0  0  0  0  0  0  0  0  0  0  0  0
    8.9197  -17.4277   26.5906 O   0  0  0  0  0  0  0  0  0  0  0  0
    9.2233  -15.5809   27.8108 O   0  0  0  0  0  0  0  0  0  0  0  0
  2  1  1  6
  3  2  1  0
  4  3  1  0
  5  4  1  0
  6  5  1  0
  7  6  1  0
  8  9  2  0
  8  2  1  0
 10  8  1  0
 11 10  1  0
 11 12  1  6
 13 12  1  0
 14 13  2  0
 15 11  1  0
 16 15  2  0
 17 13  1  0
 19 18  1  0
 20 19  1  0
 21 20  1  0
 22 21  1  1
 22 23  1  0
 23 15  1  0
 24 25  1  0
 24 22  1  0
 26 24  2  0
M  END
$$$$
