KDM.pdb
     RDKit          3D

 26 25  0  0  1  0  0  0  0  0999 V2000
    6.6587  -17.0556   20.8656 N   0  0  0  0  0  0  0  0  0  0  0  0
    7.8395  -16.2133   20.7919 C   0  0  1  0  0  0  0  0  0  0  0  0
    7.5306  -14.8015   21.2151 C   0  0  0  0  0  0  0  0  0  0  0  0
    7.1228  -13.9183   20.0746 C   0  0  0  0  0  0  0  0  0  0  0  0
    8.1868  -13.6655   19.0737 C   0  0  0  0  0  0  0  0  0  0  0  0
    7.7423  -12.7345   17.9591 C   0  0  0  0  0  0  0  0  0  0  0  0
    8.8652  -12.5534   17.0405 N   0  0  0  0  0  0  0  0  0  0  0  0
    8.8203  -16.7515   21.7715 C   0  0  0  0  0  0  0  0  0  0  0  0
    8.4111  -17.5692   22.6218 O   0  0  0  0  0  0  0  0  0  0  0  0
   10.2067  -16.3554   21.7588 N   0  0  0  0  0  0  0  0  0  0  0  0
   11.0947  -16.8056   22.7775 C   0  0  1  0  0  0  0  0  0  0  0  0
   12.5223  -16.5634   22.3915 C   0  0  0  0  0  0  0  0  0  0  0  0
   13.4725  -17.0114   23.4193 C   0  0  0  0  0  0  0  0  0  0  0  0
   13.3080  -18.1497   23.9353 O   0  0  0  0  0  0  0  0  0  0  0  0
   10.7775  -16.2158   24.1061 C   0  0  0  0  0  0  0  0  0  0  0  0
   11.4376  -16.5749   25.1117 O   0  0  0  0  0  0  0  0  0  0  0  0
   14.5140  -16.2119   23.8100 O   0  0  0  0  0  0  0  0  0  0  0  0
    5.3076  -11.4870   26.9975 C   0  0  0  0  0  0  0  0  0  0  0  0
    7.0993  -11.5398   26.6643 S   0  0  0  0  0  0  0  0  0  0  0  0
    7.7404  -13.2026   26.7408 C   0  0  0  0  0  0  0  0  0  0  0  0
    8.2546  -13.8011   25.4990 C   0  0  0  0  0  0  0  0  0  0  0  0
    9.4364  -14.6810   25.6208 C   0  0  2  0  0  0  0  0  0  0  0  0
    9.7545  -15.2594   24.2858 N   0  0  0  0  0  0  0  0  0  0  0  0
    9.4282  -15.7402   26.6206 C   0  0  0  0  0  0  0  0  0  0  0  0
    9.3664  -17.1117   26.2346 O   0  0  0  0  0  0  0  0  0  0  0  0
    9.4718  -15.5792   27.8570 O   0  0  0  0  0  0  0  0  0  0  0  0
  2  1  1  1
  3  2  1  0
  4  3  1  0
  5  4  1  0
  6  5  1  0
  7  6  1  0
  8  9  2  0
  8  2  1  0
 10  8  1  0
 11 10  1  0
 11 12  1  6
 13 12  1  0
 14 13  2  0
 15 11  1  0
 16 15  2  0
 17 13  1  0
 19 18  1  0
 20 19  1  0
 21 20  1  0
 22 21  1  6
 22 23  1  0
 23 15  1  0
 24 25  1  0
 24 22  1  0
 26 24  2  0
M  END
$$$$
