KDM.pdb
     RDKit          3D

 26 25  0  0  1  0  0  0  0  0999 V2000
    6.1231  -17.7927   21.2991 N   0  0  0  0  0  0  0  0  0  0  0  0
    7.3505  -17.1094   20.9304 C   0  0  1  0  0  0  0  0  0  0  0  0
    7.1572  -15.6162   20.9028 C   0  0  0  0  0  0  0  0  0  0  0  0
    7.7529  -14.9653   19.6910 C   0  0  0  0  0  0  0  0  0  0  0  0
    7.5461  -13.4996   19.6085 C   0  0  0  0  0  0  0  0  0  0  0  0
    8.1631  -12.8834   18.3650 C   0  0  0  0  0  0  0  0  0  0  0  0
    7.9301  -11.4407   18.4067 N   0  0  0  0  0  0  0  0  0  0  0  0
    8.3456  -17.3950   21.9979 C   0  0  0  0  0  0  0  0  0  0  0  0
    7.9326  -17.8909   23.0668 O   0  0  0  0  0  0  0  0  0  0  0  0
    9.7498  -17.1162   21.8260 N   0  0  0  0  0  0  0  0  0  0  0  0
   10.6698  -17.3674   22.8840 C   0  0  1  0  0  0  0  0  0  0  0  0
   12.0833  -17.3282   22.3878 C   0  0  0  0  0  0  0  0  0  0  0  0
   13.0600  -17.6845   23.4265 C   0  0  0  0  0  0  0  0  0  0  0  0
   14.0776  -16.9546   23.5711 O   0  0  0  0  0  0  0  0  0  0  0  0
   10.4678  -16.4516   24.0391 C   0  0  0  0  0  0  0  0  0  0  0  0
   11.4677  -16.0160   24.6606 O   0  0  0  0  0  0  0  0  0  0  0  0
   12.8716  -18.7847   24.2206 O   0  0  0  0  0  0  0  0  0  0  0  0
    7.2276  -11.0874   26.3628 C   0  0  0  0  0  0  0  0  0  0  0  0
    6.2341  -12.5400   26.8390 S   0  0  0  0  0  0  0  0  0  0  0  0
    7.2354  -14.0083   26.9916 C   0  0  0  0  0  0  0  0  0  0  0  0
    7.6514  -14.6905   25.7562 C   0  0  0  0  0  0  0  0  0  0  0  0
    8.9679  -15.3631   25.7752 C   0  0  2  0  0  0  0  0  0  0  0  0
    9.1855  -16.0478   24.4706 N   0  0  0  0  0  0  0  0  0  0  0  0
    9.2766  -16.2805   26.8636 C   0  0  0  0  0  0  0  0  0  0  0  0
    8.7953  -17.6228   26.8493 O   0  0  0  0  0  0  0  0  0  0  0  0
    9.9577  -16.0134   27.8742 O   0  0  0  0  0  0  0  0  0  0  0  0
  2  1  1  1
  3  2  1  0
  4  3  1  0
  5  4  1  0
  6  5  1  0
  7  6  1  0
  8  9  2  0
  8  2  1  0
 10  8  1  0
 11 10  1  0
 11 12  1  6
 13 12  1  0
 14 13  2  0
 15 11  1  0
 16 15  2  0
 17 13  1  0
 19 18  1  0
 20 19  1  0
 21 20  1  0
 22 21  1  1
 22 23  1  0
 23 15  1  0
 24 25  1  0
 24 22  1  0
 26 24  2  0
M  END
$$$$
