FVS.pdb
     RDKit          3D

 25 25  0  0  1  0  0  0  0  0999 V2000
   13.5140   -9.3610  -10.9451 N   0  0  0  0  0  0  0  0  0  0  0  0
   14.4839   -8.3229  -10.6901 C   0  0  1  0  0  0  0  0  0  0  0  0
   15.0141   -8.5512   -9.2864 C   0  0  0  0  0  0  0  0  0  0  0  0
   14.3456   -7.7220   -8.2856 C   0  0  0  0  0  0  0  0  0  0  0  0
   13.0679   -8.0104   -7.8632 C   0  0  0  0  0  0  0  0  0  0  0  0
   12.4733   -7.2016   -6.9190 C   0  0  0  0  0  0  0  0  0  0  0  0
   13.1392   -6.1080   -6.3914 C   0  0  0  0  0  0  0  0  0  0  0  0
   14.4155   -5.8101   -6.8056 C   0  0  0  0  0  0  0  0  0  0  0  0
   15.0090   -6.6351   -7.7621 C   0  0  0  0  0  0  0  0  0  0  0  0
   15.6056   -8.4594  -11.6527 C   0  0  0  0  0  0  0  0  0  0  0  0
   15.9389   -9.5897  -12.1214 O   0  0  0  0  0  0  0  0  0  0  0  0
   15.6777   -7.6710  -14.9155 C   0  0  0  0  0  0  0  0  0  0  0  0
   16.8810   -6.8754  -14.4609 C   0  0  1  0  0  0  0  0  0  0  0  0
   16.4236   -5.4727  -14.1755 C   0  0  0  0  0  0  0  0  0  0  0  0
   17.3740   -7.4949  -13.1634 C   0  0  2  0  0  0  0  0  0  0  0  0
   16.3756   -7.3493  -12.1116 N   0  0  0  0  0  0  0  0  0  0  0  0
   18.6828   -6.9704  -12.7627 C   0  0  0  0  0  0  0  0  0  0  0  0
   18.7364   -5.9731  -12.0057 O   0  0  0  0  0  0  0  0  0  0  0  0
   22.2225   -8.4538  -14.3547 O   0  0  0  0  0  0  0  0  0  0  0  0
   22.3192   -8.0018  -13.0512 C   0  0  0  0  0  0  0  0  0  0  0  0
   21.2132   -6.9704  -12.8373 C   0  0  2  0  0  0  0  0  0  0  0  0
   19.9318   -7.5289  -13.1834 N   0  0  0  0  0  0  0  0  0  0  0  0
   21.5244   -5.7154  -13.5135 C   0  0  0  0  0  0  0  0  0  0  0  0
   22.5468   -4.9114  -13.0470 O   0  0  0  0  0  0  0  0  0  0  0  0
   20.8803   -5.3436  -14.5194 O   0  0  0  0  0  0  0  0  0  0  0  0
  2 10  1  0
  2  1  1  6
  3  2  1  0
  4  3  1  0
  5  4  2  0
  6  5  1  0
  7  8  1  0
  7  6  2  0
  8  9  2  0
  9  4  1  0
 10 11  2  0
 13 12  1  1
 14 13  1  0
 15 13  1  0
 15 16  1  1
 16 10  1  0
 17 22  1  0
 17 15  1  0
 18 17  2  0
 20 19  1  0
 21 20  1  6
 21 22  1  0
 23 24  1  0
 23 21  1  0
 25 23  2  0
M  END
$$$$
