FVS.pdb
     RDKit          3D

 25 25  0  0  1  0  0  0  0  0999 V2000
   27.6844  -21.7068   -8.5119 N   0  0  0  0  0  0  0  0  0  0  0  0
   26.7434  -20.6218   -8.6560 C   0  0  1  0  0  0  0  0  0  0  0  0
   27.4457  -19.3639   -8.1784 C   0  0  0  0  0  0  0  0  0  0  0  0
   27.8235  -19.4258   -6.7679 C   0  0  0  0  0  0  0  0  0  0  0  0
   28.9427  -18.7734   -6.3034 C   0  0  0  0  0  0  0  0  0  0  0  0
   29.2644  -18.8592   -4.9661 C   0  0  0  0  0  0  0  0  0  0  0  0
   28.4818  -19.5887   -4.0868 C   0  0  0  0  0  0  0  0  0  0  0  0
   27.3617  -20.2445   -4.5392 C   0  0  0  0  0  0  0  0  0  0  0  0
   27.0444  -20.1516   -5.8951 C   0  0  0  0  0  0  0  0  0  0  0  0
   26.4022  -20.4627  -10.0919 C   0  0  0  0  0  0  0  0  0  0  0  0
   27.2842  -20.5756  -10.9961 O   0  0  0  0  0  0  0  0  0  0  0  0
   24.2622  -22.1062  -13.6580 C   0  0  0  0  0  0  0  0  0  0  0  0
   24.8095  -21.9068  -12.2622 C   0  0  1  0  0  0  0  0  0  0  0  0
   26.2692  -22.2631  -12.2855 C   0  0  0  0  0  0  0  0  0  0  0  0
   24.6793  -20.4298  -11.9278 C   0  0  2  0  0  0  0  0  0  0  0  0
   25.0815  -20.1766  -10.5499 N   0  0  0  0  0  0  0  0  0  0  0  0
   23.3387  -19.9133  -12.2184 C   0  0  0  0  0  0  0  0  0  0  0  0
   22.3863  -20.2269  -11.4668 O   0  0  0  0  0  0  0  0  0  0  0  0
   20.4748  -17.1037  -14.9738 O   0  0  0  0  0  0  0  0  0  0  0  0
   21.7348  -17.6577  -14.8396 C   0  0  0  0  0  0  0  0  0  0  0  0
   21.7095  -18.5706  -13.6152 C   0  0  2  0  0  0  0  0  0  0  0  0
   23.0333  -19.0568  -13.3239 N   0  0  0  0  0  0  0  0  0  0  0  0
   20.7026  -19.6169  -13.7583 C   0  0  0  0  0  0  0  0  0  0  0  0
   19.4904  -19.5068  -13.1042 O   0  0  0  0  0  0  0  0  0  0  0  0
   20.9117  -20.6254  -14.4683 O   0  0  0  0  0  0  0  0  0  0  0  0
  2 10  1  0
  2  1  1  6
  3  2  1  0
  4  3  1  0
  5  4  2  0
  6  5  1  0
  7  8  1  0
  7  6  2  0
  8  9  2  0
  9  4  1  0
 10 11  2  0
 13 12  1  6
 14 13  1  0
 15 13  1  0
 15 16  1  1
 16 10  1  0
 17 22  1  0
 17 15  1  0
 18 17  2  0
 20 19  1  0
 21 20  1  6
 21 22  1  0
 23 24  1  0
 23 21  1  0
 25 23  2  0
M  END
$$$$
