FVS.pdb
     RDKit          3D

 25 25  0  0  1  0  0  0  0  0999 V2000
   20.7913  -20.6108  -12.7080 N   0  0  0  0  0  0  0  0  0  0  0  0
   21.8038  -21.3306  -13.4429 C   0  0  1  0  0  0  0  0  0  0  0  0
   21.4689  -21.1806  -14.9156 C   0  0  0  0  0  0  0  0  0  0  0  0
   20.2237  -21.8506  -15.2854 C   0  0  0  0  0  0  0  0  0  0  0  0
   19.0917  -21.1286  -15.5878 C   0  0  0  0  0  0  0  0  0  0  0  0
   17.9376  -21.7998  -15.9297 C   0  0  0  0  0  0  0  0  0  0  0  0
   17.9002  -23.1834  -15.9734 C   0  0  0  0  0  0  0  0  0  0  0  0
   19.0246  -23.9151  -15.6734 C   0  0  0  0  0  0  0  0  0  0  0  0
   20.1882  -23.2262  -15.3282 C   0  0  0  0  0  0  0  0  0  0  0  0
   23.1257  -20.7055  -13.1873 C   0  0  0  0  0  0  0  0  0  0  0  0
   23.2396  -19.6823  -12.4469 O   0  0  0  0  0  0  0  0  0  0  0  0
   24.5848  -20.1936  -11.1821 C   0  0  0  0  0  0  0  0  0  0  0  0
   25.8104  -20.8014  -11.8274 C   0  0  1  0  0  0  0  0  0  0  0  0
   25.8456  -22.2593  -11.4650 C   0  0  0  0  0  0  0  0  0  0  0  0
   25.6393  -20.6831  -13.3331 C   0  0  2  0  0  0  0  0  0  0  0  0
   24.3412  -21.2018  -13.7460 N   0  0  0  0  0  0  0  0  0  0  0  0
   26.7448  -21.3073  -14.0657 C   0  0  0  0  0  0  0  0  0  0  0  0
   26.8851  -22.5516  -14.0176 O   0  0  0  0  0  0  0  0  0  0  0  0
   26.8267  -21.1491  -18.3174 O   0  0  0  0  0  0  0  0  0  0  0  0
   26.5645  -20.8608  -16.9905 C   0  0  0  0  0  0  0  0  0  0  0  0
   27.9036  -20.7991  -16.2583 C   0  0  2  0  0  0  0  0  0  0  0  0
   27.6964  -20.5806  -14.8501 N   0  0  0  0  0  0  0  0  0  0  0  0
   28.8058  -19.8414  -16.8891 C   0  0  0  0  0  0  0  0  0  0  0  0
   29.1192  -18.6580  -16.2481 O   0  0  0  0  0  0  0  0  0  0  0  0
   29.3104  -20.0677  -18.0111 O   0  0  0  0  0  0  0  0  0  0  0  0
  2 10  1  0
  2  1  1  1
  3  2  1  0
  4  3  1  0
  5  4  2  0
  6  5  1  0
  7  8  1  0
  7  6  2  0
  8  9  2  0
  9  4  1  0
 10 11  2  0
 13 12  1  1
 14 13  1  0
 15 13  1  0
 15 16  1  6
 16 10  1  0
 17 22  1  0
 17 15  1  0
 18 17  2  0
 20 19  1  0
 21 20  1  6
 21 22  1  0
 23 24  1  0
 23 21  1  0
 25 23  2  0
M  END
$$$$
