FVS.pdb
     RDKit          3D

 25 25  0  0  1  0  0  0  0  0999 V2000
   21.4492   -9.9923  -17.2941 N   0  0  0  0  0  0  0  0  0  0  0  0
   21.2263   -8.6340  -17.7285 C   0  0  1  0  0  0  0  0  0  0  0  0
   19.9492   -8.6383  -18.5484 C   0  0  0  0  0  0  0  0  0  0  0  0
   20.1356   -9.1966  -19.8862 C   0  0  0  0  0  0  0  0  0  0  0  0
   21.3933   -9.3421  -20.4259 C   0  0  0  0  0  0  0  0  0  0  0  0
   21.5247   -9.8713  -21.6916 C   0  0  0  0  0  0  0  0  0  0  0  0
   20.4152  -10.2570  -22.4251 C   0  0  0  0  0  0  0  0  0  0  0  0
   19.1541  -10.1164  -21.8965 C   0  0  0  0  0  0  0  0  0  0  0  0
   19.0315   -9.5795  -20.6141 C   0  0  0  0  0  0  0  0  0  0  0  0
   21.0270   -7.7700  -16.5380 C   0  0  0  0  0  0  0  0  0  0  0  0
   21.2380   -8.2040  -15.3652 O   0  0  0  0  0  0  0  0  0  0  0  0
   22.0423   -4.3695  -13.8376 C   0  0  0  0  0  0  0  0  0  0  0  0
   22.0602   -5.3893  -14.9544 C   0  0  1  0  0  0  0  0  0  0  0  0
   22.4763   -6.7080  -14.3663 C   0  0  0  0  0  0  0  0  0  0  0  0
   20.6380   -5.5211  -15.4747 C   0  0  2  0  0  0  0  0  0  0  0  0
   20.5917   -6.4141  -16.6256 N   0  0  0  0  0  0  0  0  0  0  0  0
   20.0304   -4.2178  -15.7586 C   0  0  0  0  0  0  0  0  0  0  0  0
   20.5921   -3.4446  -16.5692 O   0  0  0  0  0  0  0  0  0  0  0  0
   16.5145   -2.9600  -13.9142 O   0  0  0  0  0  0  0  0  0  0  0  0
   16.6449   -2.6467  -15.2549 C   0  0  0  0  0  0  0  0  0  0  0  0
   18.1377   -2.5481  -15.5627 C   0  0  2  0  0  0  0  0  0  0  0  0
   18.8136   -3.7553  -15.1632 N   0  0  0  0  0  0  0  0  0  0  0  0
   18.7109   -1.3263  -15.0081 C   0  0  0  0  0  0  0  0  0  0  0  0
   18.2611   -0.0923  -15.4373 O   0  0  0  0  0  0  0  0  0  0  0  0
   19.6119   -1.3681  -14.1413 O   0  0  0  0  0  0  0  0  0  0  0  0
  2 10  1  0
  2  1  1  1
  3  2  1  0
  4  3  1  0
  5  4  2  0
  6  5  1  0
  7  8  1  0
  7  6  2  0
  8  9  2  0
  9  4  1  0
 10 11  2  0
 13 12  1  1
 14 13  1  0
 15 13  1  0
 15 16  1  6
 16 10  1  0
 17 22  1  0
 17 15  1  0
 18 17  2  0
 20 19  1  0
 21 20  1  1
 21 22  1  0
 23 24  1  0
 23 21  1  0
 25 23  2  0
M  END
$$$$
