FVS.pdb
     RDKit          3D

 25 25  0  0  1  0  0  0  0  0999 V2000
   26.8342  -18.0869   -7.8717 N   0  0  0  0  0  0  0  0  0  0  0  0
   27.1785  -19.4413   -8.2332 C   0  0  1  0  0  0  0  0  0  0  0  0
   26.7754  -20.3242   -7.0665 C   0  0  0  0  0  0  0  0  0  0  0  0
   27.6316  -20.1433   -5.8958 C   0  0  0  0  0  0  0  0  0  0  0  0
   28.8216  -19.4577   -5.9857 C   0  0  0  0  0  0  0  0  0  0  0  0
   29.6001  -19.3116   -4.8578 C   0  0  0  0  0  0  0  0  0  0  0  0
   29.2046  -19.8418   -3.6412 C   0  0  0  0  0  0  0  0  0  0  0  0
   28.0182  -20.5285   -3.5394 C   0  0  0  0  0  0  0  0  0  0  0  0
   27.2370  -20.6712   -4.6871 C   0  0  0  0  0  0  0  0  0  0  0  0
   26.3924  -19.8396   -9.4278 C   0  0  0  0  0  0  0  0  0  0  0  0
   25.2818  -19.2910   -9.6997 O   0  0  0  0  0  0  0  0  0  0  0  0
   27.1650  -21.2759  -14.0502 C   0  0  0  0  0  0  0  0  0  0  0  0
   27.6015  -21.3605  -12.6045 C   0  0  1  0  0  0  0  0  0  0  0  0
   28.8075  -20.4802  -12.4361 C   0  0  0  0  0  0  0  0  0  0  0  0
   26.4733  -20.8002  -11.7538 C   0  0  2  0  0  0  0  0  0  0  0  0
   26.8217  -20.8497  -10.3395 N   0  0  0  0  0  0  0  0  0  0  0  0
   25.1924  -21.4557  -12.0331 C   0  0  0  0  0  0  0  0  0  0  0  0
   24.9978  -22.6211  -11.6154 O   0  0  0  0  0  0  0  0  0  0  0  0
   20.5249  -21.0062  -12.4133 O   0  0  0  0  0  0  0  0  0  0  0  0
   21.7619  -20.3890  -12.3736 C   0  0  0  0  0  0  0  0  0  0  0  0
   22.7987  -21.4019  -12.8552 C   0  0  2  0  0  0  0  0  0  0  0  0
   24.1239  -20.8458  -12.7648 N   0  0  0  0  0  0  0  0  0  0  0  0
   22.4540  -21.9230  -14.1739 C   0  0  0  0  0  0  0  0  0  0  0  0
   21.6352  -23.0300  -14.2897 O   0  0  0  0  0  0  0  0  0  0  0  0
   22.8868  -21.3852  -15.2171 O   0  0  0  0  0  0  0  0  0  0  0  0
  2 10  1  0
  2  1  1  1
  3  2  1  0
  4  3  1  0
  5  4  2  0
  6  5  1  0
  7  8  1  0
  7  6  2  0
  8  9  2  0
  9  4  1  0
 10 11  2  0
 13 12  1  6
 14 13  1  0
 15 13  1  0
 15 16  1  1
 16 10  1  0
 17 22  1  0
 17 15  1  0
 18 17  2  0
 20 19  1  0
 21 20  1  6
 21 22  1  0
 23 24  1  0
 23 21  1  0
 25 23  2  0
M  END
$$$$
