FVS.pdb
     RDKit          3D

 25 25  0  0  1  0  0  0  0  0999 V2000
   17.4178  -12.0938  -16.0982 N   0  0  0  0  0  0  0  0  0  0  0  0
   18.1521  -11.0697  -16.8021 C   0  0  1  0  0  0  0  0  0  0  0  0
   17.1414  -10.0253  -17.2393 C   0  0  0  0  0  0  0  0  0  0  0  0
   16.3019  -10.4770  -18.3472 C   0  0  0  0  0  0  0  0  0  0  0  0
   16.7763  -10.4870  -19.6391 C   0  0  0  0  0  0  0  0  0  0  0  0
   15.9510  -10.9187  -20.6550 C   0  0  0  0  0  0  0  0  0  0  0  0
   14.6577  -11.3407  -20.3962 C   0  0  0  0  0  0  0  0  0  0  0  0
   14.1730  -11.3351  -19.1099 C   0  0  0  0  0  0  0  0  0  0  0  0
   15.0164  -10.8961  -18.0883 C   0  0  0  0  0  0  0  0  0  0  0  0
   19.1191  -10.4380  -15.8697 C   0  0  0  0  0  0  0  0  0  0  0  0
   18.8048  -10.1791  -14.6687 O   0  0  0  0  0  0  0  0  0  0  0  0
   23.6110   -9.4964  -14.3232 C   0  0  0  0  0  0  0  0  0  0  0  0
   22.7315  -10.1468  -15.3678 C   0  0  1  0  0  0  0  0  0  0  0  0
   22.5585  -11.5906  -14.9888 C   0  0  0  0  0  0  0  0  0  0  0  0
   21.3733   -9.4670  -15.3083 C   0  0  2  0  0  0  0  0  0  0  0  0
   20.4476  -10.0831  -16.2504 N   0  0  0  0  0  0  0  0  0  0  0  0
   21.4726   -8.0166  -15.4958 C   0  0  0  0  0  0  0  0  0  0  0  0
   21.1216   -7.5158  -16.5896 O   0  0  0  0  0  0  0  0  0  0  0  0
   20.2757   -3.9160  -14.7927 O   0  0  0  0  0  0  0  0  0  0  0  0
   20.3407   -5.2948  -14.7080 C   0  0  0  0  0  0  0  0  0  0  0  0
   21.8132   -5.6806  -14.5818 C   0  0  2  0  0  0  0  0  0  0  0  0
   21.9519   -7.1113  -14.4959 N   0  0  0  0  0  0  0  0  0  0  0  0
   22.4593   -4.9478  -13.4979 C   0  0  0  0  0  0  0  0  0  0  0  0
   22.9050   -3.6561  -13.7035 O   0  0  0  0  0  0  0  0  0  0  0  0
   22.6220   -5.4663  -12.3712 O   0  0  0  0  0  0  0  0  0  0  0  0
  2 10  1  0
  2  1  1  1
  3  2  1  0
  4  3  1  0
  5  4  2  0
  6  5  1  0
  7  8  1  0
  7  6  2  0
  8  9  2  0
  9  4  1  0
 10 11  2  0
 13 12  1  1
 14 13  1  0
 15 13  1  0
 15 16  1  6
 16 10  1  0
 17 22  1  0
 17 15  1  0
 18 17  2  0
 20 19  1  0
 21 20  1  1
 21 22  1  0
 23 24  1  0
 23 21  1  0
 25 23  2  0
M  END
$$$$
