FVS.pdb
     RDKit          3D

 25 25  0  0  1  0  0  0  0  0999 V2000
   21.1954  -14.9180  -17.9890 N   0  0  0  0  0  0  0  0  0  0  0  0
   20.5624  -14.2469  -16.8789 C   0  0  1  0  0  0  0  0  0  0  0  0
   21.4602  -14.4495  -15.6722 C   0  0  0  0  0  0  0  0  0  0  0  0
   21.5028  -15.8399  -15.2238 C   0  0  0  0  0  0  0  0  0  0  0  0
   22.6003  -16.6325  -15.4718 C   0  0  0  0  0  0  0  0  0  0  0  0
   22.5989  -17.9390  -15.0333 C   0  0  0  0  0  0  0  0  0  0  0  0
   21.5146  -18.4638  -14.3501 C   0  0  0  0  0  0  0  0  0  0  0  0
   20.4130  -17.6818  -14.0967 C   0  0  0  0  0  0  0  0  0  0  0  0
   20.4240  -16.3601  -14.5448 C   0  0  0  0  0  0  0  0  0  0  0  0
   20.4785  -12.7944  -17.1737 C   0  0  0  0  0  0  0  0  0  0  0  0
   21.3925  -12.1986  -17.8202 O   0  0  0  0  0  0  0  0  0  0  0  0
   17.9934   -8.8018  -18.1787 C   0  0  0  0  0  0  0  0  0  0  0  0
   18.0974  -10.2993  -17.9930 C   0  0  1  0  0  0  0  0  0  0  0  0
   18.3459  -10.9136  -19.3416 C   0  0  0  0  0  0  0  0  0  0  0  0
   19.3064  -10.5669  -17.1114 C   0  0  2  0  0  0  0  0  0  0  0  0
   19.3838  -11.9789  -16.7587 N   0  0  0  0  0  0  0  0  0  0  0  0
   19.3333   -9.6978  -15.9314 C   0  0  0  0  0  0  0  0  0  0  0  0
   18.5191   -9.9038  -15.0014 O   0  0  0  0  0  0  0  0  0  0  0  0
   21.9291   -6.3260  -15.4278 O   0  0  0  0  0  0  0  0  0  0  0  0
   21.7021   -7.2140  -14.3921 C   0  0  0  0  0  0  0  0  0  0  0  0
   20.2995   -7.7897  -14.5770 C   0  0  2  0  0  0  0  0  0  0  0  0
   20.2440   -8.6065  -15.7617 N   0  0  0  0  0  0  0  0  0  0  0  0
   19.2872   -6.7402  -14.5225 C   0  0  0  0  0  0  0  0  0  0  0  0
   18.9364   -6.1775  -13.3101 O   0  0  0  0  0  0  0  0  0  0  0  0
   18.7210   -6.3307  -15.5601 O   0  0  0  0  0  0  0  0  0  0  0  0
  2 10  1  0
  2  1  1  6
  3  2  1  0
  4  3  1  0
  5  4  2  0
  6  5  1  0
  7  8  1  0
  7  6  2  0
  8  9  2  0
  9  4  1  0
 10 11  2  0
 13 12  1  6
 14 13  1  0
 15 13  1  0
 15 16  1  1
 16 10  1  0
 17 22  1  0
 17 15  1  0
 18 17  2  0
 20 19  1  0
 21 20  1  6
 21 22  1  0
 23 24  1  0
 23 21  1  0
 25 23  2  0
M  END
$$$$
