FVS.pdb
     RDKit          3D

 25 25  0  0  1  0  0  0  0  0999 V2000
   25.1335  -20.4928  -18.1533 N   0  0  0  0  0  0  0  0  0  0  0  0
   24.7897  -19.7035  -16.9948 C   0  0  1  0  0  0  0  0  0  0  0  0
   23.2746  -19.6294  -16.9466 C   0  0  0  0  0  0  0  0  0  0  0  0
   22.7150  -18.7730  -17.9904 C   0  0  0  0  0  0  0  0  0  0  0  0
   22.0006  -19.3061  -19.0390 C   0  0  0  0  0  0  0  0  0  0  0  0
   21.4916  -18.4632  -20.0032 C   0  0  0  0  0  0  0  0  0  0  0  0
   21.6874  -17.0940  -19.9330 C   0  0  0  0  0  0  0  0  0  0  0  0
   22.3992  -16.5502  -18.8904 C   0  0  0  0  0  0  0  0  0  0  0  0
   22.9106  -17.4120  -17.9191 C   0  0  0  0  0  0  0  0  0  0  0  0
   25.2734  -20.3964  -15.7743 C   0  0  0  0  0  0  0  0  0  0  0  0
   25.1755  -21.6544  -15.6474 O   0  0  0  0  0  0  0  0  0  0  0  0
   28.1009  -20.7161  -11.8321 C   0  0  0  0  0  0  0  0  0  0  0  0
   27.6939  -19.9208  -13.0526 C   0  0  1  0  0  0  0  0  0  0  0  0
   28.6796  -20.2207  -14.1465 C   0  0  0  0  0  0  0  0  0  0  0  0
   26.3255  -20.4199  -13.4870 C   0  0  2  0  0  0  0  0  0  0  0  0
   25.8722  -19.7098  -14.6763 N   0  0  0  0  0  0  0  0  0  0  0  0
   25.3451  -20.3622  -12.3988 C   0  0  0  0  0  0  0  0  0  0  0  0
   24.9601  -19.2452  -11.9811 O   0  0  0  0  0  0  0  0  0  0  0  0
   24.1556  -23.7401  -10.1732 O   0  0  0  0  0  0  0  0  0  0  0  0
   23.1831  -22.7948  -10.4441 C   0  0  0  0  0  0  0  0  0  0  0  0
   23.8860  -21.4531  -10.6411 C   0  0  2  0  0  0  0  0  0  0  0  0
   24.7833  -21.5165  -11.7656 N   0  0  0  0  0  0  0  0  0  0  0  0
   24.5063  -20.9957   -9.4021 C   0  0  0  0  0  0  0  0  0  0  0  0
   23.7197  -20.6399   -8.3231 O   0  0  0  0  0  0  0  0  0  0  0  0
   25.7497  -20.9168   -9.2900 O   0  0  0  0  0  0  0  0  0  0  0  0
  2 10  1  0
  2  1  1  6
  3  2  1  0
  4  3  1  0
  5  4  2  0
  6  5  1  0
  7  8  1  0
  7  6  2  0
  8  9  2  0
  9  4  1  0
 10 11  2  0
 13 12  1  1
 14 13  1  0
 15 13  1  0
 15 16  1  6
 16 10  1  0
 17 22  1  0
 17 15  1  0
 18 17  2  0
 20 19  1  0
 21 20  1  1
 21 22  1  0
 23 24  1  0
 23 21  1  0
 25 23  2  0
M  END
$$$$
