FVS.pdb
     RDKit          3D

 25 25  0  0  1  0  0  0  0  0999 V2000
   28.6445  -21.5209  -15.9409 N   0  0  0  0  0  0  0  0  0  0  0  0
   27.8293  -20.4813  -15.3593 C   0  0  1  0  0  0  0  0  0  0  0  0
   27.1043  -19.7982  -16.5044 C   0  0  0  0  0  0  0  0  0  0  0  0
   27.9511  -18.8522  -17.2283 C   0  0  0  0  0  0  0  0  0  0  0  0
   28.2106  -17.5994  -16.7210 C   0  0  0  0  0  0  0  0  0  0  0  0
   29.0128  -16.7371  -17.4368 C   0  0  0  0  0  0  0  0  0  0  0  0
   29.5592  -17.1109  -18.6531 C   0  0  0  0  0  0  0  0  0  0  0  0
   29.3070  -18.3594  -19.1697 C   0  0  0  0  0  0  0  0  0  0  0  0
   28.4934  -19.2252  -18.4375 C   0  0  0  0  0  0  0  0  0  0  0  0
   26.8245  -21.0992  -14.4582 C   0  0  0  0  0  0  0  0  0  0  0  0
   26.4380  -22.2957  -14.6229 O   0  0  0  0  0  0  0  0  0  0  0  0
   24.5728  -21.3835  -10.1438 C   0  0  0  0  0  0  0  0  0  0  0  0
   25.6014  -20.6948  -11.0130 C   0  0  1  0  0  0  0  0  0  0  0  0
   26.9513  -21.2493  -10.6550 C   0  0  0  0  0  0  0  0  0  0  0  0
   25.2975  -21.0610  -12.4566 C   0  0  2  0  0  0  0  0  0  0  0  0
   26.2320  -20.4042  -13.3619 N   0  0  0  0  0  0  0  0  0  0  0  0
   23.9006  -20.7949  -12.8120 C   0  0  0  0  0  0  0  0  0  0  0  0
   23.4862  -19.6122  -12.8206 O   0  0  0  0  0  0  0  0  0  0  0  0
   19.5998  -22.4784  -14.3442 O   0  0  0  0  0  0  0  0  0  0  0  0
   20.9059  -22.8050  -14.0282 C   0  0  0  0  0  0  0  0  0  0  0  0
   21.5793  -21.5444  -13.4892 C   0  0  2  0  0  0  0  0  0  0  0  0
   22.9550  -21.8123  -13.1584 N   0  0  0  0  0  0  0  0  0  0  0  0
   20.8034  -20.9554  -12.4029 C   0  0  0  0  0  0  0  0  0  0  0  0
   19.9469  -19.9008  -12.6551 O   0  0  0  0  0  0  0  0  0  0  0  0
   20.8949  -21.3871  -11.2324 O   0  0  0  0  0  0  0  0  0  0  0  0
  2 10  1  0
  2  1  1  6
  3  2  1  0
  4  3  1  0
  5  4  2  0
  6  5  1  0
  7  8  1  0
  7  6  2  0
  8  9  2  0
  9  4  1  0
 10 11  2  0
 13 12  1  1
 14 13  1  0
 15 13  1  0
 15 16  1  6
 16 10  1  0
 17 22  1  0
 17 15  1  0
 18 17  2  0
 20 19  1  0
 21 20  1  1
 21 22  1  0
 23 24  1  0
 23 21  1  0
 25 23  2  0
M  END
$$$$
