FVS.pdb
     RDKit          3D

 25 25  0  0  1  0  0  0  0  0999 V2000
   26.7543  -22.6822  -12.3400 N   0  0  0  0  0  0  0  0  0  0  0  0
   26.2471  -21.6577  -11.4586 C   0  0  1  0  0  0  0  0  0  0  0  0
   27.1952  -20.4773  -11.5643 C   0  0  0  0  0  0  0  0  0  0  0  0
   28.4937  -20.7354  -10.9450 C   0  0  0  0  0  0  0  0  0  0  0  0
   29.6376  -20.8242  -11.7050 C   0  0  0  0  0  0  0  0  0  0  0  0
   30.8416  -21.0708  -11.0813 C   0  0  0  0  0  0  0  0  0  0  0  0
   30.9171  -21.2296   -9.7077 C   0  0  0  0  0  0  0  0  0  0  0  0
   29.7813  -21.1429   -8.9384 C   0  0  0  0  0  0  0  0  0  0  0  0
   28.5670  -20.8931   -9.5793 C   0  0  0  0  0  0  0  0  0  0  0  0
   24.9037  -21.2352  -11.9280 C   0  0  0  0  0  0  0  0  0  0  0  0
   24.4303  -21.6467  -13.0301 O   0  0  0  0  0  0  0  0  0  0  0  0
   20.4534  -20.0209  -10.2280 C   0  0  0  0  0  0  0  0  0  0  0  0
   21.9476  -19.8637  -10.0534 C   0  0  1  0  0  0  0  0  0  0  0  0
   22.3686  -20.7260   -8.8971 C   0  0  0  0  0  0  0  0  0  0  0  0
   22.6123  -20.3908  -11.3147 C   0  0  2  0  0  0  0  0  0  0  0  0
   24.0636  -20.3519  -11.1865 N   0  0  0  0  0  0  0  0  0  0  0  0
   22.1427  -19.6978  -12.5179 C   0  0  0  0  0  0  0  0  0  0  0  0
   22.3705  -18.4722  -12.6461 O   0  0  0  0  0  0  0  0  0  0  0  0
   20.2414  -21.6838  -15.6875 O   0  0  0  0  0  0  0  0  0  0  0  0
   21.0455  -20.5958  -15.9742 C   0  0  0  0  0  0  0  0  0  0  0  0
   20.9930  -19.6539  -14.7729 C   0  0  2  0  0  0  0  0  0  0  0  0
   21.4269  -20.3356  -13.5809 N   0  0  0  0  0  0  0  0  0  0  0  0
   19.6851  -19.0170  -14.6589 C   0  0  0  0  0  0  0  0  0  0  0  0
   19.2370  -18.1704  -15.6548 O   0  0  0  0  0  0  0  0  0  0  0  0
   18.9486  -19.2211  -13.6686 O   0  0  0  0  0  0  0  0  0  0  0  0
  2 10  1  0
  2  1  1  6
  3  2  1  0
  4  3  1  0
  5  4  2  0
  6  5  1  0
  7  8  1  0
  7  6  2  0
  8  9  2  0
  9  4  1  0
 10 11  2  0
 13 12  1  6
 14 13  1  0
 15 13  1  0
 15 16  1  1
 16 10  1  0
 17 22  1  0
 17 15  1  0
 18 17  2  0
 20 19  1  0
 21 20  1  6
 21 22  1  0
 23 24  1  0
 23 21  1  0
 25 23  2  0
M  END
$$$$
