FVS.pdb
     RDKit          3D

 25 25  0  0  1  0  0  0  0  0999 V2000
   28.4827  -21.0894   -9.3971 N   0  0  0  0  0  0  0  0  0  0  0  0
   27.0872  -20.7988   -9.1702 C   0  0  1  0  0  0  0  0  0  0  0  0
   27.0326  -19.5753   -8.2738 C   0  0  0  0  0  0  0  0  0  0  0  0
   27.6669  -19.7944   -6.9754 C   0  0  0  0  0  0  0  0  0  0  0  0
   28.8920  -19.2405   -6.6813 C   0  0  0  0  0  0  0  0  0  0  0  0
   29.4560  -19.4737   -5.4456 C   0  0  0  0  0  0  0  0  0  0  0  0
   28.8114  -20.2534   -4.5000 C   0  0  0  0  0  0  0  0  0  0  0  0
   27.5876  -20.8119   -4.7825 C   0  0  0  0  0  0  0  0  0  0  0  0
   27.0248  -20.5700   -6.0365 C   0  0  0  0  0  0  0  0  0  0  0  0
   26.4426  -20.4706  -10.4665 C   0  0  0  0  0  0  0  0  0  0  0  0
   27.0149  -19.7247  -11.3177 O   0  0  0  0  0  0  0  0  0  0  0  0
   26.4266  -21.9719  -13.2085 C   0  0  0  0  0  0  0  0  0  0  0  0
   24.9210  -21.8750  -13.1019 C   0  0  1  0  0  0  0  0  0  0  0  0
   24.4218  -23.1457  -12.4741 C   0  0  0  0  0  0  0  0  0  0  0  0
   24.6032  -20.7188  -12.1678 C   0  0  2  0  0  0  0  0  0  0  0  0
   25.1565  -20.9616  -10.8415 N   0  0  0  0  0  0  0  0  0  0  0  0
   23.1686  -20.4213  -12.1246 C   0  0  0  0  0  0  0  0  0  0  0  0
   22.4921  -20.8121  -11.1448 O   0  0  0  0  0  0  0  0  0  0  0  0
   21.3649  -18.4705  -15.2278 O   0  0  0  0  0  0  0  0  0  0  0  0
   20.7118  -18.2605  -14.0270 C   0  0  0  0  0  0  0  0  0  0  0  0
   21.0562  -19.4278  -13.1041 C   0  0  2  0  0  0  0  0  0  0  0  0
   22.4698  -19.6996  -13.1444 N   0  0  0  0  0  0  0  0  0  0  0  0
   20.2131  -20.5860  -13.3815 C   0  0  0  0  0  0  0  0  0  0  0  0
   18.9085  -20.6187  -12.9273 O   0  0  0  0  0  0  0  0  0  0  0  0
   20.6474  -21.5639  -14.0296 O   0  0  0  0  0  0  0  0  0  0  0  0
  2 10  1  0
  2  1  1  6
  3  2  1  0
  4  3  1  0
  5  4  2  0
  6  5  1  0
  7  8  1  0
  7  6  2  0
  8  9  2  0
  9  4  1  0
 10 11  2  0
 13 12  1  1
 14 13  1  0
 15 13  1  0
 15 16  1  1
 16 10  1  0
 17 22  1  0
 17 15  1  0
 18 17  2  0
 20 19  1  0
 21 20  1  6
 21 22  1  0
 23 24  1  0
 23 21  1  0
 25 23  2  0
M  END
$$$$
