FVS.pdb
     RDKit          3D

 25 25  0  0  1  0  0  0  0  0999 V2000
   28.1029  -19.3033  -16.6576 N   0  0  0  0  0  0  0  0  0  0  0  0
   27.5509  -18.7404  -15.4485 C   0  0  1  0  0  0  0  0  0  0  0  0
   26.6006  -17.6353  -15.8715 C   0  0  0  0  0  0  0  0  0  0  0  0
   27.2184  -16.3112  -15.8357 C   0  0  0  0  0  0  0  0  0  0  0  0
   26.7209  -15.3173  -15.0240 C   0  0  0  0  0  0  0  0  0  0  0  0
   27.3321  -14.0821  -15.0219 C   0  0  0  0  0  0  0  0  0  0  0  0
   28.4344  -13.8273  -15.8205 C   0  0  0  0  0  0  0  0  0  0  0  0
   28.9401  -14.8122  -16.6352 C   0  0  0  0  0  0  0  0  0  0  0  0
   28.3141  -16.0595  -16.6304 C   0  0  0  0  0  0  0  0  0  0  0  0
   26.7784  -19.7876  -14.7342 C   0  0  0  0  0  0  0  0  0  0  0  0
   26.2806  -20.7770  -15.3519 O   0  0  0  0  0  0  0  0  0  0  0  0
   25.5675  -19.5860  -10.5519 C   0  0  0  0  0  0  0  0  0  0  0  0
   26.1349  -20.8442  -11.1706 C   0  0  1  0  0  0  0  0  0  0  0  0
   25.4342  -22.0188  -10.5483 C   0  0  0  0  0  0  0  0  0  0  0  0
   25.8010  -20.8141  -12.6533 C   0  0  2  0  0  0  0  0  0  0  0  0
   26.5446  -19.7571  -13.3270 N   0  0  0  0  0  0  0  0  0  0  0  0
   24.3582  -20.7172  -12.8930 C   0  0  0  0  0  0  0  0  0  0  0  0
   23.8235  -19.5857  -12.9572 O   0  0  0  0  0  0  0  0  0  0  0  0
   20.1815  -22.9023  -14.0605 O   0  0  0  0  0  0  0  0  0  0  0  0
   21.5520  -23.0334  -13.9304 C   0  0  0  0  0  0  0  0  0  0  0  0
   22.0815  -21.7448  -13.3042 C   0  0  2  0  0  0  0  0  0  0  0  0
   23.4975  -21.8482  -13.0635 N   0  0  0  0  0  0  0  0  0  0  0  0
   21.2984  -21.3675  -12.1322 C   0  0  0  0  0  0  0  0  0  0  0  0
   20.1526  -20.6090  -12.2786 O   0  0  0  0  0  0  0  0  0  0  0  0
   21.6426  -21.7184  -10.9819 O   0  0  0  0  0  0  0  0  0  0  0  0
  2 10  1  0
  2  1  1  6
  3  2  1  0
  4  3  1  0
  5  4  2  0
  6  5  1  0
  7  8  1  0
  7  6  2  0
  8  9  2  0
  9  4  1  0
 10 11  2  0
 13 12  1  1
 14 13  1  0
 15 13  1  0
 15 16  1  1
 16 10  1  0
 17 22  1  0
 17 15  1  0
 18 17  2  0
 20 19  1  0
 21 20  1  1
 21 22  1  0
 23 24  1  0
 23 21  1  0
 25 23  2  0
M  END
$$$$
