FVS.pdb
     RDKit          3D

 25 25  0  0  1  0  0  0  0  0999 V2000
   28.2819  -21.2562   -8.9614 N   0  0  0  0  0  0  0  0  0  0  0  0
   26.9364  -20.7449   -8.8536 C   0  0  1  0  0  0  0  0  0  0  0  0
   27.0230  -19.4352   -8.0916 C   0  0  0  0  0  0  0  0  0  0  0  0
   27.5366  -19.6019   -6.7335 C   0  0  0  0  0  0  0  0  0  0  0  0
   26.7493  -20.1322   -5.7369 C   0  0  0  0  0  0  0  0  0  0  0  0
   27.2720  -20.2704   -4.4691 C   0  0  0  0  0  0  0  0  0  0  0  0
   28.5715  -19.8856   -4.1845 C   0  0  0  0  0  0  0  0  0  0  0  0
   29.3670  -19.3547   -5.1718 C   0  0  0  0  0  0  0  0  0  0  0  0
   28.8286  -19.2187   -6.4522 C   0  0  0  0  0  0  0  0  0  0  0  0
   26.4103  -20.4721  -10.2146 C   0  0  0  0  0  0  0  0  0  0  0  0
   27.1889  -20.3024  -11.2011 O   0  0  0  0  0  0  0  0  0  0  0  0
   24.2949  -22.0462  -13.7880 C   0  0  0  0  0  0  0  0  0  0  0  0
   24.9372  -21.9007  -12.4264 C   0  0  1  0  0  0  0  0  0  0  0  0
   26.4271  -21.8796  -12.6207 C   0  0  0  0  0  0  0  0  0  0  0  0
   24.5060  -20.5578  -11.8596 C   0  0  2  0  0  0  0  0  0  0  0  0
   25.0163  -20.3828  -10.5057 N   0  0  0  0  0  0  0  0  0  0  0  0
   23.0548  -20.3664  -11.9349 C   0  0  0  0  0  0  0  0  0  0  0  0
   22.3139  -20.9863  -11.1366 O   0  0  0  0  0  0  0  0  0  0  0  0
   21.5803  -17.2607  -13.9149 O   0  0  0  0  0  0  0  0  0  0  0  0
   20.6304  -18.2630  -13.9900 C   0  0  0  0  0  0  0  0  0  0  0  0
   20.9830  -19.3127  -12.9379 C   0  0  2  0  0  0  0  0  0  0  0  0
   22.4092  -19.5020  -12.8757 N   0  0  0  0  0  0  0  0  0  0  0  0
   20.2219  -20.5407  -13.1423 C   0  0  0  0  0  0  0  0  0  0  0  0
   19.0131  -20.7226  -12.4980 O   0  0  0  0  0  0  0  0  0  0  0  0
   20.6415  -21.4458  -13.8970 O   0  0  0  0  0  0  0  0  0  0  0  0
  2 10  1  0
  2  1  1  6
  3  2  1  0
  4  3  1  0
  5  4  2  0
  6  5  1  0
  7  8  1  0
  7  6  2  0
  8  9  2  0
  9  4  1  0
 10 11  2  0
 13 12  1  6
 14 13  1  0
 15 13  1  0
 15 16  1  1
 16 10  1  0
 17 22  1  0
 17 15  1  0
 18 17  2  0
 20 19  1  0
 21 20  1  6
 21 22  1  0
 23 24  1  0
 23 21  1  0
 25 23  2  0
M  END
$$$$
