TTY.pdb
     RDKit          3D

 27 27  0  0  1  0  0  0  0  0999 V2000
   22.6741   -9.8295  -20.6931 C   0  0  0  0  0  0  0  0  0  0  0  0
   21.3950  -10.6156  -20.7197 C   0  0  1  0  0  0  0  0  0  0  0  0
   21.2458  -11.2866  -21.9210 O   0  0  0  0  0  0  0  0  0  0  0  0
   21.2190  -11.5183  -19.5359 C   0  0  2  0  0  0  0  0  0  0  0  0
   20.0697  -12.3556  -19.7102 N   0  0  0  0  0  0  0  0  0  0  0  0
   21.2367  -10.8178  -18.2402 C   0  0  0  0  0  0  0  0  0  0  0  0
   20.2437  -10.1200  -17.9105 O   0  0  0  0  0  0  0  0  0  0  0  0
   23.1260  -10.0980  -13.7204 C   0  0  0  0  0  0  0  0  0  0  0  0
   23.1249  -10.9037  -15.0021 C   0  0  1  0  0  0  0  0  0  0  0  0
   22.5369  -12.1410  -14.7003 O   0  0  0  0  0  0  0  0  0  0  0  0
   22.3222  -10.1824  -16.0539 C   0  0  2  0  0  0  0  0  0  0  0  0
   22.3269  -10.8804  -17.3183 N   0  0  0  0  0  0  0  0  0  0  0  0
   22.7682   -8.7930  -16.2632 C   0  0  0  0  0  0  0  0  0  0  0  0
   23.5369   -8.5855  -17.2286 O   0  0  0  0  0  0  0  0  0  0  0  0
   23.8163   -0.4599  -17.6467 O   0  0  0  0  0  0  0  0  0  0  0  0
   23.4514   -1.7992  -17.5218 C   0  0  0  0  0  0  0  0  0  0  0  0
   22.2892   -2.2796  -18.0873 C   0  0  0  0  0  0  0  0  0  0  0  0
   21.9037   -3.5910  -17.9816 C   0  0  0  0  0  0  0  0  0  0  0  0
   22.6772   -4.4971  -17.2932 C   0  0  0  0  0  0  0  0  0  0  0  0
   22.3160   -5.9276  -17.1443 C   0  0  0  0  0  0  0  0  0  0  0  0
   22.6291   -6.3322  -15.7292 C   0  0  2  0  0  0  0  0  0  0  0  0
   22.3773   -7.7018  -15.4415 N   0  0  0  0  0  0  0  0  0  0  0  0
   21.9888   -5.4608  -14.7169 C   0  0  0  0  0  0  0  0  0  0  0  0
   22.6314   -4.4215  -14.0692 O   0  0  0  0  0  0  0  0  0  0  0  0
   23.8363   -4.0395  -16.7240 C   0  0  0  0  0  0  0  0  0  0  0  0
   24.2265   -2.6998  -16.8340 C   0  0  0  0  0  0  0  0  0  0  0  0
   20.7791   -5.6568  -14.4053 O   0  0  0  0  0  0  0  0  0  0  0  0
  2  1  1  6
  2  4  1  0
  3  2  1  0
  4  5  1  6
  4  6  1  0
  6 12  1  0
  7  6  2  0
  9  8  1  1
  9 10  1  0
 11  9  1  0
 11 12  1  6
 13 11  1  0
 13 14  2  0
 16 15  1  0
 16 17  2  0
 18 17  1  0
 19 18  2  0
 20 19  1  0
 21 20  1  6
 21 22  1  0
 22 13  1  0
 23 24  1  0
 23 21  1  0
 25 26  2  0
 25 19  1  0
 26 16  1  0
 27 23  2  0
M  END
$$$$
