TTY.pdb
     RDKit          3D

 27 27  0  0  1  0  0  0  0  0999 V2000
   20.8700  -11.1350  -22.9698 C   0  0  0  0  0  0  0  0  0  0  0  0
   21.3922  -10.0973  -22.0184 C   0  0  1  0  0  0  0  0  0  0  0  0
   21.4970  -10.6038  -20.7347 O   0  0  0  0  0  0  0  0  0  0  0  0
   22.6596   -9.4425  -22.4789 C   0  0  2  0  0  0  0  0  0  0  0  0
   23.6360  -10.4306  -22.8289 N   0  0  0  0  0  0  0  0  0  0  0  0
   23.1750   -8.4178  -21.5546 C   0  0  0  0  0  0  0  0  0  0  0  0
   24.2841   -8.6060  -20.9924 O   0  0  0  0  0  0  0  0  0  0  0  0
   23.6105   -4.7571  -22.3471 C   0  0  0  0  0  0  0  0  0  0  0  0
   22.9049   -4.8022  -21.0085 C   0  0  1  0  0  0  0  0  0  0  0  0
   21.5544   -4.5135  -21.2543 O   0  0  0  0  0  0  0  0  0  0  0  0
   23.0479   -6.1760  -20.4058 C   0  0  2  0  0  0  0  0  0  0  0  0
   22.4853   -7.2038  -21.2501 N   0  0  0  0  0  0  0  0  0  0  0  0
   22.4577   -6.2755  -19.0586 C   0  0  0  0  0  0  0  0  0  0  0  0
   21.4211   -6.9674  -18.9454 O   0  0  0  0  0  0  0  0  0  0  0  0
   19.6140   -7.9165  -11.3915 O   0  0  0  0  0  0  0  0  0  0  0  0
   20.4770   -7.6170  -12.4441 C   0  0  0  0  0  0  0  0  0  0  0  0
   21.1120   -6.3956  -12.5230 C   0  0  0  0  0  0  0  0  0  0  0  0
   21.9660   -6.0719  -13.5455 C   0  0  0  0  0  0  0  0  0  0  0  0
   22.2278   -6.9715  -14.5532 C   0  0  0  0  0  0  0  0  0  0  0  0
   23.1415   -6.6823  -15.6847 C   0  0  0  0  0  0  0  0  0  0  0  0
   22.4419   -5.7142  -16.6000 C   0  0  2  0  0  0  0  0  0  0  0  0
   22.9953   -5.6391  -17.9077 N   0  0  0  0  0  0  0  0  0  0  0  0
   22.2962   -4.3602  -16.0173 C   0  0  0  0  0  0  0  0  0  0  0  0
   21.2748   -3.9891  -15.1619 O   0  0  0  0  0  0  0  0  0  0  0  0
   21.6066   -8.1911  -14.4930 C   0  0  0  0  0  0  0  0  0  0  0  0
   20.7354   -8.5178  -13.4474 C   0  0  0  0  0  0  0  0  0  0  0  0
   23.1444   -3.4671  -16.3029 O   0  0  0  0  0  0  0  0  0  0  0  0
  2  1  1  6
  2  4  1  0
  3  2  1  0
  4  5  1  1
  4  6  1  0
  6 12  1  0
  7  6  2  0
  9  8  1  6
  9 10  1  0
 11  9  1  0
 11 12  1  6
 13 11  1  0
 13 14  2  0
 16 15  1  0
 16 17  2  0
 18 17  1  0
 19 18  2  0
 20 19  1  0
 21 20  1  1
 21 22  1  0
 22 13  1  0
 23 24  1  0
 23 21  1  0
 25 26  2  0
 25 19  1  0
 26 16  1  0
 27 23  2  0
M  END
$$$$
