TTY.pdb
     RDKit          3D

 27 27  0  0  1  0  0  0  0  0999 V2000
   16.7726  -13.8647  -16.3786 C   0  0  0  0  0  0  0  0  0  0  0  0
   17.9011  -13.0371  -15.8344 C   0  0  1  0  0  0  0  0  0  0  0  0
   19.1280  -13.5786  -16.1764 O   0  0  0  0  0  0  0  0  0  0  0  0
   17.8023  -11.5823  -16.1822 C   0  0  2  0  0  0  0  0  0  0  0  0
   17.7605  -11.4082  -17.6035 N   0  0  0  0  0  0  0  0  0  0  0  0
   18.8135  -10.7384  -15.5226 C   0  0  0  0  0  0  0  0  0  0  0  0
   18.9033  -10.7617  -14.2684 O   0  0  0  0  0  0  0  0  0  0  0  0
   22.2245   -9.4511  -17.5363 C   0  0  0  0  0  0  0  0  0  0  0  0
   22.1356   -9.5671  -16.0295 C   0  0  1  0  0  0  0  0  0  0  0  0
   23.1167   -8.7153  -15.5008 O   0  0  0  0  0  0  0  0  0  0  0  0
   20.7656   -9.1418  -15.5680 C   0  0  2  0  0  0  0  0  0  0  0  0
   19.7139   -9.8806  -16.2267 N   0  0  0  0  0  0  0  0  0  0  0  0
   20.5259   -7.6972  -15.7380 C   0  0  0  0  0  0  0  0  0  0  0  0
   20.2784   -7.2981  -16.8979 O   0  0  0  0  0  0  0  0  0  0  0  0
   17.3387   -6.0236   -9.2360 O   0  0  0  0  0  0  0  0  0  0  0  0
   17.6983   -5.7783  -10.5600 C   0  0  0  0  0  0  0  0  0  0  0  0
   17.7594   -6.7987  -11.4854 C   0  0  0  0  0  0  0  0  0  0  0  0
   18.1097   -6.5888  -12.7941 C   0  0  0  0  0  0  0  0  0  0  0  0
   18.4202   -5.3262  -13.2441 C   0  0  0  0  0  0  0  0  0  0  0  0
   18.8050   -5.0340  -14.6461 C   0  0  0  0  0  0  0  0  0  0  0  0
   20.2634   -5.3715  -14.7987 C   0  0  2  0  0  0  0  0  0  0  0  0
   20.5611   -6.7563  -14.6739 N   0  0  0  0  0  0  0  0  0  0  0  0
   21.1443   -4.5679  -13.9199 C   0  0  0  0  0  0  0  0  0  0  0  0
   21.1778   -3.1854  -13.9094 O   0  0  0  0  0  0  0  0  0  0  0  0
   18.3654   -4.2984  -12.3400 C   0  0  0  0  0  0  0  0  0  0  0  0
   18.0073   -4.5167  -11.0046 C   0  0  0  0  0  0  0  0  0  0  0  0
   21.9257   -5.1565  -13.1190 O   0  0  0  0  0  0  0  0  0  0  0  0
  2  1  1  6
  2  4  1  0
  3  2  1  0
  4  5  1  6
  4  6  1  0
  6 12  1  0
  7  6  2  0
  9  8  1  6
  9 10  1  0
 11  9  1  0
 11 12  1  6
 13 11  1  0
 13 14  2  0
 16 15  1  0
 16 17  2  0
 18 17  1  0
 19 18  2  0
 20 19  1  0
 21 20  1  1
 21 22  1  0
 22 13  1  0
 23 24  1  0
 23 21  1  0
 25 26  2  0
 25 19  1  0
 26 16  1  0
 27 23  2  0
M  END
$$$$
