TTY.pdb
     RDKit          3D

 27 27  0  0  1  0  0  0  0  0999 V2000
   22.9065  -11.4517  -15.1905 C   0  0  0  0  0  0  0  0  0  0  0  0
   22.6507  -11.9690  -16.5767 C   0  0  1  0  0  0  0  0  0  0  0  0
   23.0412  -13.2913  -16.6967 O   0  0  0  0  0  0  0  0  0  0  0  0
   21.2478  -11.7425  -17.0539 C   0  0  2  0  0  0  0  0  0  0  0  0
   21.0632  -12.3103  -18.3561 N   0  0  0  0  0  0  0  0  0  0  0  0
   20.8023  -10.3415  -16.9621 C   0  0  0  0  0  0  0  0  0  0  0  0
   21.2061   -9.5156  -17.8204 O   0  0  0  0  0  0  0  0  0  0  0  0
   17.6155   -6.9000  -15.5911 C   0  0  0  0  0  0  0  0  0  0  0  0
   17.9961   -8.3502  -15.8003 C   0  0  1  0  0  0  0  0  0  0  0  0
   17.4060   -8.7520  -17.0078 O   0  0  0  0  0  0  0  0  0  0  0  0
   19.4957   -8.4745  -15.8808 C   0  0  2  0  0  0  0  0  0  0  0  0
   19.9268   -9.8514  -15.9444 N   0  0  0  0  0  0  0  0  0  0  0  0
   20.1878   -7.7985  -14.7685 C   0  0  0  0  0  0  0  0  0  0  0  0
   20.1043   -8.3355  -13.6412 O   0  0  0  0  0  0  0  0  0  0  0  0
   25.7598   -5.2506  -18.6426 O   0  0  0  0  0  0  0  0  0  0  0  0
   25.1079   -5.5486  -17.4474 C   0  0  0  0  0  0  0  0  0  0  0  0
   24.9048   -4.5837  -16.4836 C   0  0  0  0  0  0  0  0  0  0  0  0
   24.2673   -4.8463  -15.2986 C   0  0  0  0  0  0  0  0  0  0  0  0
   23.7959   -6.1084  -15.0194 C   0  0  0  0  0  0  0  0  0  0  0  0
   23.0979   -6.4554  -13.7579 C   0  0  0  0  0  0  0  0  0  0  0  0
   21.6779   -5.9711  -13.8741 C   0  0  2  0  0  0  0  0  0  0  0  0
   20.9286   -6.5943  -14.9094 N   0  0  0  0  0  0  0  0  0  0  0  0
   21.5691   -4.4967  -13.9671 C   0  0  0  0  0  0  0  0  0  0  0  0
   22.0501   -3.6210  -13.0109 O   0  0  0  0  0  0  0  0  0  0  0  0
   23.9878   -7.0815  -15.9645 C   0  0  0  0  0  0  0  0  0  0  0  0
   24.6391   -6.8095  -17.1731 C   0  0  0  0  0  0  0  0  0  0  0  0
   21.0052   -3.9784  -14.9731 O   0  0  0  0  0  0  0  0  0  0  0  0
  2  1  1  1
  2  4  1  0
  3  2  1  0
  4  5  1  6
  4  6  1  0
  6 12  1  0
  7  6  2  0
  9  8  1  6
  9 10  1  0
 11  9  1  0
 11 12  1  1
 13 11  1  0
 13 14  2  0
 16 15  1  0
 16 17  2  0
 18 17  1  0
 19 18  2  0
 20 19  1  0
 21 20  1  6
 21 22  1  0
 22 13  1  0
 23 24  1  0
 23 21  1  0
 25 26  2  0
 25 19  1  0
 26 16  1  0
 27 23  2  0
M  END
$$$$
