TTY.pdb
     RDKit          3D

 27 27  0  0  1  0  0  0  0  0999 V2000
   15.6612  -10.6999  -15.3476 C   0  0  0  0  0  0  0  0  0  0  0  0
   15.6227  -12.1549  -14.9788 C   0  0  1  0  0  0  0  0  0  0  0  0
   14.3391  -12.6624  -15.0801 O   0  0  0  0  0  0  0  0  0  0  0  0
   16.6263  -12.9892  -15.7165 C   0  0  2  0  0  0  0  0  0  0  0  0
   16.4670  -14.3740  -15.3861 N   0  0  0  0  0  0  0  0  0  0  0  0
   18.0145  -12.5153  -15.5818 C   0  0  0  0  0  0  0  0  0  0  0  0
   18.6728  -12.8383  -14.5600 O   0  0  0  0  0  0  0  0  0  0  0  0
   20.9431  -13.0871  -17.8181 C   0  0  0  0  0  0  0  0  0  0  0  0
   20.8702  -11.5867  -17.6300 C   0  0  1  0  0  0  0  0  0  0  0  0
   20.2642  -11.0647  -18.7824 O   0  0  0  0  0  0  0  0  0  0  0  0
   20.0439  -11.2679  -16.4108 C   0  0  2  0  0  0  0  0  0  0  0  0
   18.6728  -11.6989  -16.5526 N   0  0  0  0  0  0  0  0  0  0  0  0
   20.0705   -9.8368  -16.0581 C   0  0  0  0  0  0  0  0  0  0  0  0
   19.0701   -9.1569  -16.3792 O   0  0  0  0  0  0  0  0  0  0  0  0
   22.4716   -1.7281  -13.9277 O   0  0  0  0  0  0  0  0  0  0  0  0
   22.4454   -3.1198  -13.9980 C   0  0  0  0  0  0  0  0  0  0  0  0
   21.5166   -3.8543  -13.2913 C   0  0  0  0  0  0  0  0  0  0  0  0
   21.4659   -5.2234  -13.3401 C   0  0  0  0  0  0  0  0  0  0  0  0
   22.3578   -5.9322  -14.1117 C   0  0  0  0  0  0  0  0  0  0  0  0
   22.3539   -7.4120  -14.2073 C   0  0  0  0  0  0  0  0  0  0  0  0
   21.2811   -7.8030  -15.1874 C   0  0  2  0  0  0  0  0  0  0  0  0
   21.1514   -9.2050  -15.3865 N   0  0  0  0  0  0  0  0  0  0  0  0
   21.3921   -7.1003  -16.4866 C   0  0  0  0  0  0  0  0  0  0  0  0
   22.3253   -7.4096  -17.4593 O   0  0  0  0  0  0  0  0  0  0  0  0
   23.2886   -5.2207  -14.8217 C   0  0  0  0  0  0  0  0  0  0  0  0
   23.3373   -3.8229  -14.7693 C   0  0  0  0  0  0  0  0  0  0  0  0
   20.5966   -6.1534  -16.7499 O   0  0  0  0  0  0  0  0  0  0  0  0
  2  1  1  6
  2  4  1  0
  3  2  1  0
  4  5  1  1
  4  6  1  0
  6 12  1  0
  7  6  2  0
  9  8  1  6
  9 10  1  0
 11  9  1  0
 11 12  1  6
 13 11  1  0
 13 14  2  0
 16 15  1  0
 16 17  2  0
 18 17  1  0
 19 18  2  0
 20 19  1  0
 21 20  1  1
 21 22  1  0
 22 13  1  0
 23 24  1  0
 23 21  1  0
 25 26  2  0
 25 19  1  0
 26 16  1  0
 27 23  2  0
M  END
$$$$
