TTY.pdb
     RDKit          3D

 27 27  0  0  1  0  0  0  0  0999 V2000
   22.7681   -4.0471  -16.8590 C   0  0  0  0  0  0  0  0  0  0  0  0
   22.4706   -5.3788  -16.2323 C   0  0  1  0  0  0  0  0  0  0  0  0
   23.6121   -5.9412  -15.6881 O   0  0  0  0  0  0  0  0  0  0  0  0
   21.3313   -5.3444  -15.2587 C   0  0  2  0  0  0  0  0  0  0  0  0
   21.5938   -4.4013  -14.2128 N   0  0  0  0  0  0  0  0  0  0  0  0
   20.9301   -6.6705  -14.7584 C   0  0  0  0  0  0  0  0  0  0  0  0
   20.5856   -6.7897  -13.5547 O   0  0  0  0  0  0  0  0  0  0  0  0
   18.0168   -8.2638  -15.0045 C   0  0  0  0  0  0  0  0  0  0  0  0
   18.9341   -9.3022  -15.6145 C   0  0  1  0  0  0  0  0  0  0  0  0
   18.8822   -9.1199  -17.0043 O   0  0  0  0  0  0  0  0  0  0  0  0
   20.3390   -9.0973  -15.1092 C   0  0  2  0  0  0  0  0  0  0  0  0
   20.9066   -7.8500  -15.5650 N   0  0  0  0  0  0  0  0  0  0  0  0
   21.2445  -10.2040  -15.4675 C   0  0  0  0  0  0  0  0  0  0  0  0
   21.9997  -10.0214  -16.4485 O   0  0  0  0  0  0  0  0  0  0  0  0
   25.8286  -17.5740  -16.0393 O   0  0  0  0  0  0  0  0  0  0  0  0
   25.0035  -16.5684  -15.5388 C   0  0  0  0  0  0  0  0  0  0  0  0
   23.6310  -16.7014  -15.5425 C   0  0  0  0  0  0  0  0  0  0  0  0
   22.7937  -15.7302  -15.0575 C   0  0  0  0  0  0  0  0  0  0  0  0
   23.3006  -14.5614  -14.5377 C   0  0  0  0  0  0  0  0  0  0  0  0
   22.4486  -13.4747  -13.9973 C   0  0  0  0  0  0  0  0  0  0  0  0
   22.1168  -12.5467  -15.1345 C   0  0  2  0  0  0  0  0  0  0  0  0
   21.3013  -11.4405  -14.7698 N   0  0  0  0  0  0  0  0  0  0  0  0
   21.5519  -13.2447  -16.3125 C   0  0  0  0  0  0  0  0  0  0  0  0
   22.3018  -13.6816  -17.3893 O   0  0  0  0  0  0  0  0  0  0  0  0
   24.6621  -14.4100  -14.5249 C   0  0  0  0  0  0  0  0  0  0  0  0
   25.5137  -15.4038  -15.0210 C   0  0  0  0  0  0  0  0  0  0  0  0
   20.3085  -13.4683  -16.3641 O   0  0  0  0  0  0  0  0  0  0  0  0
  2  1  1  1
  2  4  1  0
  3  2  1  0
  4  5  1  1
  4  6  1  0
  6 12  1  0
  7  6  2  0
  9  8  1  1
  9 10  1  0
 11  9  1  0
 11 12  1  6
 13 11  1  0
 13 14  2  0
 16 15  1  0
 16 17  2  0
 18 17  1  0
 19 18  2  0
 20 19  1  0
 21 20  1  1
 21 22  1  0
 22 13  1  0
 23 24  1  0
 23 21  1  0
 25 26  2  0
 25 19  1  0
 26 16  1  0
 27 23  2  0
M  END
$$$$
