TTY.pdb
     RDKit          3D

 27 27  0  0  1  0  0  0  0  0999 V2000
   21.2797  -12.1136  -20.5320 C   0  0  0  0  0  0  0  0  0  0  0  0
   21.4332  -10.8306  -19.7672 C   0  0  1  0  0  0  0  0  0  0  0  0
   21.0288  -10.9812  -18.4522 O   0  0  0  0  0  0  0  0  0  0  0  0
   22.7995  -10.2238  -19.8783 C   0  0  2  0  0  0  0  0  0  0  0  0
   23.8030  -11.1767  -19.5079 N   0  0  0  0  0  0  0  0  0  0  0  0
   22.9399   -8.9321  -19.1843 C   0  0  0  0  0  0  0  0  0  0  0  0
   23.8666   -8.7876  -18.3465 O   0  0  0  0  0  0  0  0  0  0  0  0
   22.0570   -4.0866  -18.8573 C   0  0  0  0  0  0  0  0  0  0  0  0
   21.9033   -5.3807  -19.6278 C   0  0  1  0  0  0  0  0  0  0  0  0
   22.7852   -5.3093  -20.7162 O   0  0  0  0  0  0  0  0  0  0  0  0
   22.2574   -6.5451  -18.7392 C   0  0  2  0  0  0  0  0  0  0  0  0
   22.0774   -7.8141  -19.4047 N   0  0  0  0  0  0  0  0  0  0  0  0
   21.5049   -6.5490  -17.4716 C   0  0  0  0  0  0  0  0  0  0  0  0
   20.3620   -7.0583  -17.4944 O   0  0  0  0  0  0  0  0  0  0  0  0
   18.6717   -5.8101   -9.2871 O   0  0  0  0  0  0  0  0  0  0  0  0
   19.5179   -5.7964  -10.3945 C   0  0  0  0  0  0  0  0  0  0  0  0
   20.2031   -6.9275  -10.7850 C   0  0  0  0  0  0  0  0  0  0  0  0
   21.0421   -6.9451  -11.8691 C   0  0  0  0  0  0  0  0  0  0  0  0
   21.2370   -5.8120  -12.6248 C   0  0  0  0  0  0  0  0  0  0  0  0
   22.1294   -5.7670  -13.8082 C   0  0  0  0  0  0  0  0  0  0  0  0
   21.2740   -5.9527  -15.0321 C   0  0  2  0  0  0  0  0  0  0  0  0
   22.0015   -6.0151  -16.2522 N   0  0  0  0  0  0  0  0  0  0  0  0
   20.1737   -4.9660  -15.1314 C   0  0  0  0  0  0  0  0  0  0  0  0
   18.8617   -5.2284  -14.7812 O   0  0  0  0  0  0  0  0  0  0  0  0
   20.5650   -4.6774  -12.2532 C   0  0  0  0  0  0  0  0  0  0  0  0
   19.7093   -4.6633  -11.1457 C   0  0  0  0  0  0  0  0  0  0  0  0
   20.4204   -3.8025  -15.5603 O   0  0  0  0  0  0  0  0  0  0  0  0
  2  1  1  1
  2  4  1  0
  3  2  1  0
  4  5  1  1
  4  6  1  0
  6 12  1  0
  7  6  2  0
  9  8  1  1
  9 10  1  0
 11  9  1  0
 11 12  1  6
 13 11  1  0
 13 14  2  0
 16 15  1  0
 16 17  2  0
 18 17  1  0
 19 18  2  0
 20 19  1  0
 21 20  1  1
 21 22  1  0
 22 13  1  0
 23 24  1  0
 23 21  1  0
 25 26  2  0
 25 19  1  0
 26 16  1  0
 27 23  2  0
M  END
$$$$
