TTY.pdb
     RDKit          3D

 27 27  0  0  1  0  0  0  0  0999 V2000
   20.6426  -14.2843  -15.6672 C   0  0  0  0  0  0  0  0  0  0  0  0
   19.5975  -15.0095  -16.4651 C   0  0  1  0  0  0  0  0  0  0  0  0
   19.5362  -16.3459  -16.1105 O   0  0  0  0  0  0  0  0  0  0  0  0
   18.2522  -14.3488  -16.4356 C   0  0  2  0  0  0  0  0  0  0  0  0
   17.2918  -15.1345  -17.1515 N   0  0  0  0  0  0  0  0  0  0  0  0
   18.2698  -12.9347  -16.8479 C   0  0  0  0  0  0  0  0  0  0  0  0
   18.3053  -12.6574  -18.0741 O   0  0  0  0  0  0  0  0  0  0  0  0
   16.1297  -10.4711  -17.4637 C   0  0  0  0  0  0  0  0  0  0  0  0
   16.9855   -9.7967  -16.4127 C   0  0  1  0  0  0  0  0  0  0  0  0
   16.3142   -9.9448  -15.1900 O   0  0  0  0  0  0  0  0  0  0  0  0
   18.3364  -10.4620  -16.3552 C   0  0  2  0  0  0  0  0  0  0  0  0
   18.2489  -11.8394  -15.9302 N   0  0  0  0  0  0  0  0  0  0  0  0
   19.2922   -9.7456  -15.4912 C   0  0  0  0  0  0  0  0  0  0  0  0
   19.4117  -10.1592  -14.3162 O   0  0  0  0  0  0  0  0  0  0  0  0
   24.2579  -13.2803  -15.6645 O   0  0  0  0  0  0  0  0  0  0  0  0
   23.8008  -11.9637  -15.6514 C   0  0  0  0  0  0  0  0  0  0  0  0
   23.7774  -11.2263  -14.4865 C   0  0  0  0  0  0  0  0  0  0  0  0
   23.3337   -9.9299  -14.4420 C   0  0  0  0  0  0  0  0  0  0  0  0
   22.8853   -9.3016  -15.5811 C   0  0  0  0  0  0  0  0  0  0  0  0
   22.3945   -7.9024  -15.5987 C   0  0  0  0  0  0  0  0  0  0  0  0
   20.9760   -7.9102  -15.0964 C   0  0  2  0  0  0  0  0  0  0  0  0
   20.0674   -8.6336  -15.9168 N   0  0  0  0  0  0  0  0  0  0  0  0
   20.4513   -6.5557  -14.8064 C   0  0  0  0  0  0  0  0  0  0  0  0
   19.3377   -6.0076  -15.4163 O   0  0  0  0  0  0  0  0  0  0  0  0
   22.9007  -10.0174  -16.7491 C   0  0  0  0  0  0  0  0  0  0  0  0
   23.3544  -11.3408  -16.7905 C   0  0  0  0  0  0  0  0  0  0  0  0
   21.0389   -5.8324  -13.9518 O   0  0  0  0  0  0  0  0  0  0  0  0
  2  1  1  1
  2  4  1  0
  3  2  1  0
  4  5  1  6
  4  6  1  0
  6 12  1  0
  7  6  2  0
  9  8  1  6
  9 10  1  0
 11  9  1  0
 11 12  1  1
 13 11  1  0
 13 14  2  0
 16 15  1  0
 16 17  2  0
 18 17  1  0
 19 18  2  0
 20 19  1  0
 21 20  1  6
 21 22  1  0
 22 13  1  0
 23 24  1  0
 23 21  1  0
 25 26  2  0
 25 19  1  0
 26 16  1  0
 27 23  2  0
M  END
$$$$
