TTY.pdb
     RDKit          3D

 27 27  0  0  1  0  0  0  0  0999 V2000
   27.9788  -11.6249  -17.0847 C   0  0  0  0  0  0  0  0  0  0  0  0
   26.6289  -11.0572  -17.4167 C   0  0  1  0  0  0  0  0  0  0  0  0
   26.1886  -11.5040  -18.6504 O   0  0  0  0  0  0  0  0  0  0  0  0
   25.6084  -11.2619  -16.3379 C   0  0  2  0  0  0  0  0  0  0  0  0
   25.4066  -12.6596  -16.0971 N   0  0  0  0  0  0  0  0  0  0  0  0
   24.3530  -10.5218  -16.5523 C   0  0  0  0  0  0  0  0  0  0  0  0
   24.3879   -9.2660  -16.6123 O   0  0  0  0  0  0  0  0  0  0  0  0
   19.4579  -10.4435  -17.4738 C   0  0  0  0  0  0  0  0  0  0  0  0
   20.7228  -11.2684  -17.3668 C   0  0  1  0  0  0  0  0  0  0  0  0
   20.9948  -11.7585  -18.6527 O   0  0  0  0  0  0  0  0  0  0  0  0
   21.8557  -10.3996  -16.8844 C   0  0  2  0  0  0  0  0  0  0  0  0
   23.0768  -11.1480  -16.6988 N   0  0  0  0  0  0  0  0  0  0  0  0
   21.5342   -9.6761  -15.6409 C   0  0  0  0  0  0  0  0  0  0  0  0
   21.6778  -10.3045  -14.5682 O   0  0  0  0  0  0  0  0  0  0  0  0
   25.4181   -3.7568  -16.7584 O   0  0  0  0  0  0  0  0  0  0  0  0
   24.6383   -4.6314  -16.0038 C   0  0  0  0  0  0  0  0  0  0  0  0
   23.5871   -4.1732  -15.2381 C   0  0  0  0  0  0  0  0  0  0  0  0
   22.8024   -5.0085  -14.4856 C   0  0  0  0  0  0  0  0  0  0  0  0
   23.0382   -6.3639  -14.4648 C   0  0  0  0  0  0  0  0  0  0  0  0
   22.2256   -7.3189  -13.6733 C   0  0  0  0  0  0  0  0  0  0  0  0
   20.9396   -7.5515  -14.4193 C   0  0  2  0  0  0  0  0  0  0  0  0
   21.0796   -8.3306  -15.6005 N   0  0  0  0  0  0  0  0  0  0  0  0
   20.1949   -6.3030  -14.7037 C   0  0  0  0  0  0  0  0  0  0  0  0
   19.7604   -5.4199  -13.7322 O   0  0  0  0  0  0  0  0  0  0  0  0
   24.0783   -6.8392  -15.2192 C   0  0  0  0  0  0  0  0  0  0  0  0
   24.8772   -5.9832  -15.9861 C   0  0  0  0  0  0  0  0  0  0  0  0
   19.9252   -6.0005  -15.9013 O   0  0  0  0  0  0  0  0  0  0  0  0
  2  1  1  1
  2  4  1  0
  3  2  1  0
  4  5  1  6
  4  6  1  0
  6 12  1  0
  7  6  2  0
  9  8  1  6
  9 10  1  0
 11  9  1  0
 11 12  1  1
 13 11  1  0
 13 14  2  0
 16 15  1  0
 16 17  2  0
 18 17  1  0
 19 18  2  0
 20 19  1  0
 21 20  1  6
 21 22  1  0
 22 13  1  0
 23 24  1  0
 23 21  1  0
 25 26  2  0
 25 19  1  0
 26 16  1  0
 27 23  2  0
M  END
$$$$
