TTY.pdb
     RDKit          3D

 27 27  0  0  1  0  0  0  0  0999 V2000
   19.8274  -13.8509  -19.6189 C   0  0  0  0  0  0  0  0  0  0  0  0
   19.9292  -15.2252  -19.0225 C   0  0  1  0  0  0  0  0  0  0  0  0
   19.7890  -16.2024  -19.9925 O   0  0  0  0  0  0  0  0  0  0  0  0
   21.1538  -15.4269  -18.1818 C   0  0  2  0  0  0  0  0  0  0  0  0
   21.2389  -16.7862  -17.7377 N   0  0  0  0  0  0  0  0  0  0  0  0
   21.2992  -14.4485  -17.0902 C   0  0  0  0  0  0  0  0  0  0  0  0
   20.6314  -14.6068  -16.0364 O   0  0  0  0  0  0  0  0  0  0  0  0
   24.3019  -13.3757  -15.1659 C   0  0  0  0  0  0  0  0  0  0  0  0
   23.6823  -12.0891  -15.6685 C   0  0  1  0  0  0  0  0  0  0  0  0
   24.4485  -11.6750  -16.7681 O   0  0  0  0  0  0  0  0  0  0  0  0
   22.2566  -12.3421  -16.0861 C   0  0  2  0  0  0  0  0  0  0  0  0
   22.1639  -13.3123  -17.1519 N   0  0  0  0  0  0  0  0  0  0  0  0
   21.5489  -11.1119  -16.4848 C   0  0  0  0  0  0  0  0  0  0  0  0
   21.5473  -10.8307  -17.7041 O   0  0  0  0  0  0  0  0  0  0  0  0
   17.1296   -3.6598  -17.0730 O   0  0  0  0  0  0  0  0  0  0  0  0
   17.5447   -4.9431  -16.7217 C   0  0  0  0  0  0  0  0  0  0  0  0
   17.6557   -5.9424  -17.6653 C   0  0  0  0  0  0  0  0  0  0  0  0
   18.0610   -7.2136  -17.3504 C   0  0  0  0  0  0  0  0  0  0  0  0
   18.3794   -7.5485  -16.0543 C   0  0  0  0  0  0  0  0  0  0  0  0
   18.8247   -8.9039  -15.6504 C   0  0  0  0  0  0  0  0  0  0  0  0
   20.3039   -8.9949  -15.9117 C   0  0  2  0  0  0  0  0  0  0  0  0
   20.8830  -10.2487  -15.5735 N   0  0  0  0  0  0  0  0  0  0  0  0
   21.0740   -7.8845  -15.3051 C   0  0  0  0  0  0  0  0  0  0  0  0
   21.4006   -7.8085  -13.9634 O   0  0  0  0  0  0  0  0  0  0  0  0
   18.2757   -6.5694  -15.1017 C   0  0  0  0  0  0  0  0  0  0  0  0
   17.8614   -5.2726  -15.4271 C   0  0  0  0  0  0  0  0  0  0  0  0
   21.4703   -6.9322  -16.0363 O   0  0  0  0  0  0  0  0  0  0  0  0
  2  1  1  6
  2  4  1  0
  3  2  1  0
  4  5  1  1
  4  6  1  0
  6 12  1  0
  7  6  2  0
  9  8  1  6
  9 10  1  0
 11  9  1  0
 11 12  1  6
 13 11  1  0
 13 14  2  0
 16 15  1  0
 16 17  2  0
 18 17  1  0
 19 18  2  0
 20 19  1  0
 21 20  1  1
 21 22  1  0
 22 13  1  0
 23 24  1  0
 23 21  1  0
 25 26  2  0
 25 19  1  0
 26 16  1  0
 27 23  2  0
M  END
$$$$
