TTY.pdb
     RDKit          3D

 27 27  0  0  1  0  0  0  0  0999 V2000
   16.0396  -11.9535  -18.9830 C   0  0  0  0  0  0  0  0  0  0  0  0
   17.0088  -10.8088  -19.0541 C   0  0  1  0  0  0  0  0  0  0  0  0
   17.0040  -10.2273  -20.3100 O   0  0  0  0  0  0  0  0  0  0  0  0
   16.8317   -9.8016  -17.9580 C   0  0  2  0  0  0  0  0  0  0  0  0
   15.5286   -9.2105  -18.0259 N   0  0  0  0  0  0  0  0  0  0  0  0
   17.9168   -8.8089  -17.8752 C   0  0  0  0  0  0  0  0  0  0  0  0
   19.0827   -9.2003  -17.6120 O   0  0  0  0  0  0  0  0  0  0  0  0
   19.5347   -4.1244  -18.3802 C   0  0  0  0  0  0  0  0  0  0  0  0
   18.4982   -5.1729  -18.7241 C   0  0  1  0  0  0  0  0  0  0  0  0
   18.5720   -5.3736  -20.1104 O   0  0  0  0  0  0  0  0  0  0  0  0
   18.8079   -6.4521  -17.9902 C   0  0  2  0  0  0  0  0  0  0  0  0
   17.7279   -7.4069  -18.0778 N   0  0  0  0  0  0  0  0  0  0  0  0
   19.1496   -6.2320  -16.5732 C   0  0  0  0  0  0  0  0  0  0  0  0
   18.2256   -5.8466  -15.8223 O   0  0  0  0  0  0  0  0  0  0  0  0
   23.7691  -11.6457  -16.0252 O   0  0  0  0  0  0  0  0  0  0  0  0
   22.9969  -10.6209  -15.4813 C   0  0  0  0  0  0  0  0  0  0  0  0
   23.5693   -9.6137  -14.7334 C   0  0  0  0  0  0  0  0  0  0  0  0
   22.8363   -8.5928  -14.1857 C   0  0  0  0  0  0  0  0  0  0  0  0
   21.4734   -8.5323  -14.3646 C   0  0  0  0  0  0  0  0  0  0  0  0
   20.6259   -7.4546  -13.7997 C   0  0  0  0  0  0  0  0  0  0  0  0
   20.7994   -6.2363  -14.6658 C   0  0  2  0  0  0  0  0  0  0  0  0
   20.4470   -6.4314  -16.0295 N   0  0  0  0  0  0  0  0  0  0  0  0
   22.1460   -5.6290  -14.5572 C   0  0  0  0  0  0  0  0  0  0  0  0
   22.9698   -5.3693  -15.6373 O   0  0  0  0  0  0  0  0  0  0  0  0
   20.8854   -9.5238  -15.1048 C   0  0  0  0  0  0  0  0  0  0  0  0
   21.6372  -10.5645  -15.6624 C   0  0  0  0  0  0  0  0  0  0  0  0
   22.5967   -5.3185  -13.4174 O   0  0  0  0  0  0  0  0  0  0  0  0
  2  1  1  6
  2  4  1  0
  3  2  1  0
  4  5  1  6
  4  6  1  0
  6 12  1  0
  7  6  2  0
  9  8  1  1
  9 10  1  0
 11  9  1  0
 11 12  1  1
 13 11  1  0
 13 14  2  0
 16 15  1  0
 16 17  2  0
 18 17  1  0
 19 18  2  0
 20 19  1  0
 21 20  1  1
 21 22  1  0
 22 13  1  0
 23 24  1  0
 23 21  1  0
 25 26  2  0
 25 19  1  0
 26 16  1  0
 27 23  2  0
M  END
$$$$
