TTY.pdb
     RDKit          3D

 27 27  0  0  1  0  0  0  0  0999 V2000
   22.6655  -10.1235  -19.4360 C   0  0  0  0  0  0  0  0  0  0  0  0
   21.9237  -11.3624  -19.0239 C   0  0  1  0  0  0  0  0  0  0  0  0
   22.5381  -12.5001  -19.5175 O   0  0  0  0  0  0  0  0  0  0  0  0
   21.6659  -11.4468  -17.5496 C   0  0  2  0  0  0  0  0  0  0  0  0
   21.2205  -12.7607  -17.1928 N   0  0  0  0  0  0  0  0  0  0  0  0
   20.7958  -10.3772  -17.0311 C   0  0  0  0  0  0  0  0  0  0  0  0
   19.5870  -10.3529  -17.3773 O   0  0  0  0  0  0  0  0  0  0  0  0
   20.0810   -9.3447  -13.4380 C   0  0  0  0  0  0  0  0  0  0  0  0
   20.5128   -8.0934  -14.1727 C   0  0  1  0  0  0  0  0  0  0  0  0
   21.8554   -7.8697  -13.8339 O   0  0  0  0  0  0  0  0  0  0  0  0
   20.3731   -8.3039  -15.6583 C   0  0  2  0  0  0  0  0  0  0  0  0
   21.2432   -9.3484  -16.1459 N   0  0  0  0  0  0  0  0  0  0  0  0
   20.6059   -7.0736  -16.4363 C   0  0  0  0  0  0  0  0  0  0  0  0
   21.4482   -7.1395  -17.3594 O   0  0  0  0  0  0  0  0  0  0  0  0
   20.7248    0.1655  -20.9846 O   0  0  0  0  0  0  0  0  0  0  0  0
   20.5253   -1.0668  -20.3647 C   0  0  0  0  0  0  0  0  0  0  0  0
   21.5507   -1.9806  -20.2432 C   0  0  0  0  0  0  0  0  0  0  0  0
   21.3853   -3.2001  -19.6390 C   0  0  0  0  0  0  0  0  0  0  0  0
   20.1650   -3.5669  -19.1199 C   0  0  0  0  0  0  0  0  0  0  0  0
   19.9226   -4.8696  -18.4543 C   0  0  0  0  0  0  0  0  0  0  0  0
   20.0921   -4.6637  -16.9733 C   0  0  2  0  0  0  0  0  0  0  0  0
   19.9363   -5.8438  -16.1955 N   0  0  0  0  0  0  0  0  0  0  0  0
   19.2504   -3.5700  -16.4352 C   0  0  0  0  0  0  0  0  0  0  0  0
   17.9207   -3.7149  -16.0838 O   0  0  0  0  0  0  0  0  0  0  0  0
   19.1331   -2.6727  -19.2306 C   0  0  0  0  0  0  0  0  0  0  0  0
   19.3058   -1.4286  -19.8482 C   0  0  0  0  0  0  0  0  0  0  0  0
   19.7530   -2.4207  -16.2769 O   0  0  0  0  0  0  0  0  0  0  0  0
  2  1  1  1
  2  4  1  0
  3  2  1  0
  4  5  1  6
  4  6  1  0
  6 12  1  0
  7  6  2  0
  9  8  1  1
  9 10  1  0
 11  9  1  0
 11 12  1  6
 13 11  1  0
 13 14  2  0
 16 15  1  0
 16 17  2  0
 18 17  1  0
 19 18  2  0
 20 19  1  0
 21 20  1  6
 21 22  1  0
 22 13  1  0
 23 24  1  0
 23 21  1  0
 25 26  2  0
 25 19  1  0
 26 16  1  0
 27 23  2  0
M  END
$$$$
