FEK.pdb
     RDKit          3D

 30 30  0  0  1  0  0  0  0  0999 V2000
    5.7096  -17.7167   24.9478 N   0  0  0  0  0  0  0  0  0  0  0  0
    6.5938  -16.5915   24.8362 C   0  0  1  0  0  0  0  0  0  0  0  0
    6.8521  -15.9335   26.1789 C   0  0  0  0  0  0  0  0  0  0  0  0
    6.7497  -14.4615   25.9536 C   0  0  0  0  0  0  0  0  0  0  0  0
    5.5327  -13.8466   25.8300 C   0  0  0  0  0  0  0  0  0  0  0  0
    5.4601  -12.4819   25.6226 C   0  0  0  0  0  0  0  0  0  0  0  0
    6.6165  -11.7604   25.5432 C   0  0  0  0  0  0  0  0  0  0  0  0
    7.8410  -12.3507   25.6632 C   0  0  0  0  0  0  0  0  0  0  0  0
    7.9094  -13.7168   25.8708 C   0  0  0  0  0  0  0  0  0  0  0  0
    7.8492  -17.0191   24.1891 C   0  0  0  0  0  0  0  0  0  0  0  0
    8.3369  -18.1583   24.4764 O   0  0  0  0  0  0  0  0  0  0  0  0
    8.4830  -16.1558   23.2649 N   0  0  0  0  0  0  0  0  0  0  0  0
    9.6715  -16.6973   22.5459 C   0  0  1  0  0  0  0  0  0  0  0  0
    9.8813  -15.8006   21.3478 C   0  0  0  0  0  0  0  0  0  0  0  0
   11.0512  -16.0876   20.4963 C   0  0  0  0  0  0  0  0  0  0  0  0
   10.8894  -17.2923   19.6915 C   0  0  0  0  0  0  0  0  0  0  0  0
   11.7812  -18.1622   19.6256 O   0  0  0  0  0  0  0  0  0  0  0  0
   10.8357  -16.6066   23.4624 C   0  0  0  0  0  0  0  0  0  0  0  0
   11.1208  -15.4557   23.9573 O   0  0  0  0  0  0  0  0  0  0  0  0
    9.7190  -17.4834   18.9789 O   0  0  0  0  0  0  0  0  0  0  0  0
   11.6694  -17.6636   23.8571 N   0  0  0  0  0  0  0  0  0  0  0  0
   12.7529  -17.4557   24.8438 C   0  0  1  0  0  0  0  0  0  0  0  0
   12.8421  -18.6274   25.7632 C   0  0  0  0  0  0  0  0  0  0  0  0
   12.3031  -18.4109   27.1458 C   0  0  0  0  0  0  0  0  0  0  0  0
   12.4428  -19.7434   27.9044 C   0  0  0  0  0  0  0  0  0  0  0  0
   11.8720  -19.6024   29.3051 C   0  0  0  0  0  0  0  0  0  0  0  0
   11.8994  -20.9556   29.8758 N   0  0  0  0  0  0  0  0  0  0  0  0
   14.0116  -17.2328   24.1146 C   0  0  0  0  0  0  0  0  0  0  0  0
   14.1246  -17.5520   22.8836 O   0  0  0  0  0  0  0  0  0  0  0  0
   15.1506  -16.6750   24.6733 O   0  0  0  0  0  0  0  0  0  0  0  0
  2 10  1  0
  2  1  1  1
  3  2  1  0
  4  3  1  0
  4  9  2  0
  5  4  1  0
  6  5  2  0
  6  7  1  0
  7  8  2  0
  8  9  1  0
 10 11  2  0
 12 13  1  0
 12 10  1  0
 13 14  1  6
 14 15  1  0
 15 16  1  0
 16 20  1  0
 17 16  2  0
 18 13  1  0
 19 18  2  0
 21 18  1  0
 22 23  1  1
 22 21  1  0
 24 25  1  0
 24 23  1  0
 25 26  1  0
 26 27  1  0
 28 22  1  0
 28 30  1  0
 29 28  2  0
M  END
$$$$
