FEK.pdb
     RDKit          3D

 30 30  0  0  1  0  0  0  0  0999 V2000
    5.5650  -17.7197   24.5974 N   0  0  0  0  0  0  0  0  0  0  0  0
    6.4165  -16.5877   24.8296 C   0  0  1  0  0  0  0  0  0  0  0  0
    6.3692  -16.1250   26.2739 C   0  0  0  0  0  0  0  0  0  0  0  0
    7.0129  -14.7786   26.3064 C   0  0  0  0  0  0  0  0  0  0  0  0
    8.3217  -14.6279   26.6792 C   0  0  0  0  0  0  0  0  0  0  0  0
    8.8989  -13.3720   26.7017 C   0  0  0  0  0  0  0  0  0  0  0  0
    8.1460  -12.2894   26.3478 C   0  0  0  0  0  0  0  0  0  0  0  0
    6.8399  -12.4144   25.9729 C   0  0  0  0  0  0  0  0  0  0  0  0
    6.2660  -13.6731   25.9516 C   0  0  0  0  0  0  0  0  0  0  0  0
    7.7919  -16.9166   24.4080 C   0  0  0  0  0  0  0  0  0  0  0  0
    8.3630  -17.9400   24.9025 O   0  0  0  0  0  0  0  0  0  0  0  0
    8.4456  -16.0892   23.4650 N   0  0  0  0  0  0  0  0  0  0  0  0
    9.7271  -16.5989   22.8984 C   0  0  1  0  0  0  0  0  0  0  0  0
    9.8882  -15.9266   21.5547 C   0  0  0  0  0  0  0  0  0  0  0  0
   11.1420  -16.1894   20.8232 C   0  0  0  0  0  0  0  0  0  0  0  0
   11.1707  -15.5755   19.5012 C   0  0  0  0  0  0  0  0  0  0  0  0
   11.0187  -16.2485   18.4617 O   0  0  0  0  0  0  0  0  0  0  0  0
   10.8222  -16.1856   23.8113 C   0  0  0  0  0  0  0  0  0  0  0  0
   10.9757  -14.9294   24.0333 O   0  0  0  0  0  0  0  0  0  0  0  0
   11.3714  -14.2114   19.3879 O   0  0  0  0  0  0  0  0  0  0  0  0
   11.7200  -17.0360   24.4737 N   0  0  0  0  0  0  0  0  0  0  0  0
   12.8487  -16.4923   25.2619 C   0  0  1  0  0  0  0  0  0  0  0  0
   13.0817  -17.3328   26.4725 C   0  0  0  0  0  0  0  0  0  0  0  0
   11.9557  -17.3730   27.4621 C   0  0  0  0  0  0  0  0  0  0  0  0
   12.3910  -18.2999   28.6119 C   0  0  0  0  0  0  0  0  0  0  0  0
   11.3263  -18.3135   29.6954 C   0  0  0  0  0  0  0  0  0  0  0  0
   11.8407  -19.2126   30.7368 N   0  0  0  0  0  0  0  0  0  0  0  0
   14.0374  -16.4347   24.3963 C   0  0  0  0  0  0  0  0  0  0  0  0
   14.0713  -17.0575   23.2823 O   0  0  0  0  0  0  0  0  0  0  0  0
   15.1891  -15.7245   24.6959 O   0  0  0  0  0  0  0  0  0  0  0  0
  2 10  1  0
  2  1  1  1
  3  2  1  0
  4  3  1  0
  4  9  2  0
  5  4  1  0
  6  5  2  0
  6  7  1  0
  7  8  2  0
  8  9  1  0
 10 11  2  0
 12 13  1  0
 12 10  1  0
 13 14  1  6
 14 15  1  0
 15 16  1  0
 16 20  1  0
 17 16  2  0
 18 13  1  0
 19 18  2  0
 21 18  1  0
 22 23  1  1
 22 21  1  0
 24 25  1  0
 24 23  1  0
 25 26  1  0
 26 27  1  0
 28 22  1  0
 28 30  1  0
 29 28  2  0
M  END
$$$$
