FEK.pdb
     RDKit          3D

 30 30  0  0  1  0  0  0  0  0999 V2000
    9.2934  -14.2519   24.0489 N   0  0  0  0  0  0  0  0  0  0  0  0
    8.4966  -15.3316   24.5586 C   0  0  1  0  0  0  0  0  0  0  0  0
    7.0104  -15.0622   24.4130 C   0  0  0  0  0  0  0  0  0  0  0  0
    6.7574  -13.7380   25.0538 C   0  0  0  0  0  0  0  0  0  0  0  0
    6.7905  -12.5800   24.3241 C   0  0  0  0  0  0  0  0  0  0  0  0
    6.5524  -11.3640   24.9369 C   0  0  0  0  0  0  0  0  0  0  0  0
    6.2849  -11.3368   26.2755 C   0  0  0  0  0  0  0  0  0  0  0  0
    6.2466  -12.4774   27.0237 C   0  0  0  0  0  0  0  0  0  0  0  0
    6.4854  -13.6924   26.4066 C   0  0  0  0  0  0  0  0  0  0  0  0
    8.8903  -16.5869   23.8901 C   0  0  0  0  0  0  0  0  0  0  0  0
    8.2498  -17.6545   24.1509 O   0  0  0  0  0  0  0  0  0  0  0  0
    9.9692  -16.5775   22.9752 N   0  0  0  0  0  0  0  0  0  0  0  0
   10.4829  -17.9040   22.5287 C   0  0  1  0  0  0  0  0  0  0  0  0
   10.8351  -17.7470   21.0676 C   0  0  0  0  0  0  0  0  0  0  0  0
   11.3434  -18.9441   20.3714 C   0  0  0  0  0  0  0  0  0  0  0  0
   11.7131  -18.6843   18.9853 C   0  0  0  0  0  0  0  0  0  0  0  0
   12.8991  -18.7365   18.6016 O   0  0  0  0  0  0  0  0  0  0  0  0
   11.7026  -18.2069   23.3188 C   0  0  0  0  0  0  0  0  0  0  0  0
   12.6250  -17.3135   23.3637 O   0  0  0  0  0  0  0  0  0  0  0  0
   10.7288  -18.3708   18.0651 O   0  0  0  0  0  0  0  0  0  0  0  0
   11.9575  -19.3834   24.0390 N   0  0  0  0  0  0  0  0  0  0  0  0
   13.1913  -19.5364   24.8422 C   0  0  1  0  0  0  0  0  0  0  0  0
   12.9022  -20.3084   26.0858 C   0  0  0  0  0  0  0  0  0  0  0  0
   12.1455  -19.5688   27.1485 C   0  0  0  0  0  0  0  0  0  0  0  0
   11.7657  -20.5919   28.2346 C   0  0  0  0  0  0  0  0  0  0  0  0
   10.8610  -19.9388   29.2654 C   0  0  0  0  0  0  0  0  0  0  0  0
   10.3830  -21.0363   30.1166 N   0  0  0  0  0  0  0  0  0  0  0  0
   14.2105  -20.1962   24.0107 C   0  0  0  0  0  0  0  0  0  0  0  0
   14.3647  -21.4633   24.0402 O   0  0  0  0  0  0  0  0  0  0  0  0
   15.0668  -19.5305   23.1481 O   0  0  0  0  0  0  0  0  0  0  0  0
  2 10  1  0
  2  1  1  6
  3  2  1  0
  4  3  1  0
  4  9  2  0
  5  4  1  0
  6  5  2  0
  6  7  1  0
  7  8  2  0
  8  9  1  0
 10 11  2  0
 12 13  1  0
 12 10  1  0
 13 14  1  6
 14 15  1  0
 15 16  1  0
 16 20  1  0
 17 16  2  0
 18 13  1  0
 19 18  2  0
 21 18  1  0
 22 23  1  1
 22 21  1  0
 24 25  1  0
 24 23  1  0
 25 26  1  0
 26 27  1  0
 28 22  1  0
 28 30  1  0
 29 28  2  0
M  END
$$$$
