FEK.pdb
     RDKit          3D

 30 30  0  0  1  0  0  0  0  0999 V2000
    5.9093  -16.5682   25.4291 N   0  0  0  0  0  0  0  0  0  0  0  0
    7.1311  -15.9218   25.0426 C   0  0  1  0  0  0  0  0  0  0  0  0
    7.7317  -15.1120   26.1766 C   0  0  0  0  0  0  0  0  0  0  0  0
    7.1419  -13.7445   26.0764 C   0  0  0  0  0  0  0  0  0  0  0  0
    7.6011  -12.8406   25.1562 C   0  0  0  0  0  0  0  0  0  0  0  0
    7.0403  -11.5794   25.0794 C   0  0  0  0  0  0  0  0  0  0  0  0
    6.0259  -11.2514   25.9324 C   0  0  0  0  0  0  0  0  0  0  0  0
    5.5514  -12.1350   26.8578 C   0  0  0  0  0  0  0  0  0  0  0  0
    6.1153  -13.3962   26.9313 C   0  0  0  0  0  0  0  0  0  0  0  0
    8.0786  -16.9325   24.5342 C   0  0  0  0  0  0  0  0  0  0  0  0
    8.0966  -18.0875   25.0668 O   0  0  0  0  0  0  0  0  0  0  0  0
    8.9453  -16.5973   23.4676 N   0  0  0  0  0  0  0  0  0  0  0  0
    9.9278  -17.6372   23.0481 C   0  0  1  0  0  0  0  0  0  0  0  0
   10.5126  -17.1581   21.7396 C   0  0  0  0  0  0  0  0  0  0  0  0
   11.5702  -17.9911   21.1366 C   0  0  0  0  0  0  0  0  0  0  0  0
   12.0366  -17.4805   19.8532 C   0  0  0  0  0  0  0  0  0  0  0  0
   11.3658  -16.6654   19.1883 O   0  0  0  0  0  0  0  0  0  0  0  0
   10.9864  -17.7056   24.0865 C   0  0  0  0  0  0  0  0  0  0  0  0
   11.3269  -16.6118   24.6684 O   0  0  0  0  0  0  0  0  0  0  0  0
   13.2540  -17.9062   19.3525 O   0  0  0  0  0  0  0  0  0  0  0  0
   11.6628  -18.8587   24.5116 N   0  0  0  0  0  0  0  0  0  0  0  0
   12.5220  -18.8409   25.7167 C   0  0  1  0  0  0  0  0  0  0  0  0
   11.9152  -19.6778   26.7926 C   0  0  0  0  0  0  0  0  0  0  0  0
   12.7297  -19.8180   28.0439 C   0  0  0  0  0  0  0  0  0  0  0  0
   11.9415  -20.7296   29.0022 C   0  0  0  0  0  0  0  0  0  0  0  0
   12.7156  -20.9102   30.2967 C   0  0  0  0  0  0  0  0  0  0  0  0
   11.8420  -21.7097   31.1658 N   0  0  0  0  0  0  0  0  0  0  0  0
   13.8627  -19.3172   25.3409 C   0  0  0  0  0  0  0  0  0  0  0  0
   14.0272  -20.1083   24.3523 O   0  0  0  0  0  0  0  0  0  0  0  0
   15.0305  -18.9645   25.9985 O   0  0  0  0  0  0  0  0  0  0  0  0
  2 10  1  0
  2  1  1  1
  3  2  1  0
  4  3  1  0
  4  9  2  0
  5  4  1  0
  6  5  2  0
  6  7  1  0
  7  8  2  0
  8  9  1  0
 10 11  2  0
 12 13  1  0
 12 10  1  0
 13 14  1  6
 14 15  1  0
 15 16  1  0
 16 20  1  0
 17 16  2  0
 18 13  1  0
 19 18  2  0
 21 18  1  0
 22 23  1  1
 22 21  1  0
 24 25  1  0
 24 23  1  0
 25 26  1  0
 26 27  1  0
 28 22  1  0
 28 30  1  0
 29 28  2  0
M  END
$$$$
