FEK.pdb
     RDKit          3D

 30 30  0  0  1  0  0  0  0  0999 V2000
    6.2614  -16.8561   25.4555 N   0  0  0  0  0  0  0  0  0  0  0  0
    7.3280  -16.0696   24.9040 C   0  0  1  0  0  0  0  0  0  0  0  0
    7.9822  -15.1835   25.9477 C   0  0  0  0  0  0  0  0  0  0  0  0
    7.2561  -13.8800   25.9089 C   0  0  0  0  0  0  0  0  0  0  0  0
    7.7146  -12.8359   25.1511 C   0  0  0  0  0  0  0  0  0  0  0  0
    7.0265  -11.6372   25.1286 C   0  0  0  0  0  0  0  0  0  0  0  0
    5.8875  -11.5120   25.8710 C   0  0  0  0  0  0  0  0  0  0  0  0
    5.4110  -12.5381   26.6340 C   0  0  0  0  0  0  0  0  0  0  0  0
    6.1026  -13.7362   26.6537 C   0  0  0  0  0  0  0  0  0  0  0  0
    8.3083  -16.9623   24.2560 C   0  0  0  0  0  0  0  0  0  0  0  0
    8.6753  -18.0204   24.8590 O   0  0  0  0  0  0  0  0  0  0  0  0
    8.8185  -16.6239   22.9807 N   0  0  0  0  0  0  0  0  0  0  0  0
    9.9798  -17.4193   22.4891 C   0  0  1  0  0  0  0  0  0  0  0  0
   10.1344  -17.0751   21.0259 C   0  0  0  0  0  0  0  0  0  0  0  0
   11.2696  -17.6900   20.3121 C   0  0  0  0  0  0  0  0  0  0  0  0
   11.2853  -17.3773   18.8883 C   0  0  0  0  0  0  0  0  0  0  0  0
   10.7234  -18.1099   18.0492 O   0  0  0  0  0  0  0  0  0  0  0  0
   11.1801  -16.9841   23.2462 C   0  0  0  0  0  0  0  0  0  0  0  0
   11.0633  -15.9664   24.0218 O   0  0  0  0  0  0  0  0  0  0  0  0
   11.9385  -16.2400   18.4478 O   0  0  0  0  0  0  0  0  0  0  0  0
   12.4497  -17.5796   23.2086 N   0  0  0  0  0  0  0  0  0  0  0  0
   13.1884  -17.8851   24.4543 C   0  0  1  0  0  0  0  0  0  0  0  0
   12.3506  -18.7304   25.3542 C   0  0  0  0  0  0  0  0  0  0  0  0
   12.9136  -18.9796   26.7216 C   0  0  0  0  0  0  0  0  0  0  0  0
   11.8357  -19.7239   27.5306 C   0  0  0  0  0  0  0  0  0  0  0  0
   12.3608  -20.0421   28.9201 C   0  0  0  0  0  0  0  0  0  0  0  0
   11.2568  -20.7246   29.6079 N   0  0  0  0  0  0  0  0  0  0  0  0
   14.4520  -18.5492   24.0966 C   0  0  0  0  0  0  0  0  0  0  0  0
   15.5778  -18.0314   24.4039 O   0  0  0  0  0  0  0  0  0  0  0  0
   14.5370  -19.7551   23.4189 O   0  0  0  0  0  0  0  0  0  0  0  0
  2 10  1  0
  2  1  1  1
  3  2  1  0
  4  3  1  0
  4  9  2  0
  5  4  1  0
  6  5  2  0
  6  7  1  0
  7  8  2  0
  8  9  1  0
 10 11  2  0
 12 13  1  0
 12 10  1  0
 13 14  1  6
 14 15  1  0
 15 16  1  0
 16 20  1  0
 17 16  2  0
 18 13  1  0
 19 18  2  0
 21 18  1  0
 22 23  1  1
 22 21  1  0
 24 25  1  0
 24 23  1  0
 25 26  1  0
 26 27  1  0
 28 22  1  0
 28 30  1  0
 29 28  2  0
M  END
$$$$
