FEK.pdb
     RDKit          3D

 30 30  0  0  1  0  0  0  0  0999 V2000
    8.5671  -14.7127   23.4372 N   0  0  0  0  0  0  0  0  0  0  0  0
    9.0053  -15.2378   24.6991 C   0  0  1  0  0  0  0  0  0  0  0  0
    7.8549  -15.4204   25.6716 C   0  0  0  0  0  0  0  0  0  0  0  0
    7.3463  -14.0524   25.9846 C   0  0  0  0  0  0  0  0  0  0  0  0
    8.1585  -13.1073   26.5518 C   0  0  0  0  0  0  0  0  0  0  0  0
    7.6677  -11.8459   26.8328 C   0  0  0  0  0  0  0  0  0  0  0  0
    6.3660  -11.5594   26.5371 C   0  0  0  0  0  0  0  0  0  0  0  0
    5.5373  -12.4846   25.9719 C   0  0  0  0  0  0  0  0  0  0  0  0
    6.0324  -13.7458   25.6921 C   0  0  0  0  0  0  0  0  0  0  0  0
    9.7349  -16.5009   24.4757 C   0  0  0  0  0  0  0  0  0  0  0  0
    9.6216  -17.4401   25.3261 O   0  0  0  0  0  0  0  0  0  0  0  0
   10.5433  -16.6413   23.3233 N   0  0  0  0  0  0  0  0  0  0  0  0
   11.2948  -17.9211   23.1817 C   0  0  1  0  0  0  0  0  0  0  0  0
   11.9094  -17.8960   21.8014 C   0  0  0  0  0  0  0  0  0  0  0  0
   12.7330  -19.0578   21.4165 C   0  0  0  0  0  0  0  0  0  0  0  0
   13.3161  -18.9283   20.0867 C   0  0  0  0  0  0  0  0  0  0  0  0
   14.5327  -19.1149   19.8826 O   0  0  0  0  0  0  0  0  0  0  0  0
   12.3601  -17.9376   24.2154 C   0  0  0  0  0  0  0  0  0  0  0  0
   13.1032  -16.8954   24.3271 O   0  0  0  0  0  0  0  0  0  0  0  0
   12.5059  -18.5899   19.0176 O   0  0  0  0  0  0  0  0  0  0  0  0
   12.6435  -18.9866   25.1026 N   0  0  0  0  0  0  0  0  0  0  0  0
   13.7307  -18.8717   26.1005 C   0  0  1  0  0  0  0  0  0  0  0  0
   13.4693  -19.7837   27.2521 C   0  0  0  0  0  0  0  0  0  0  0  0
   12.1190  -19.6527   27.8912 C   0  0  0  0  0  0  0  0  0  0  0  0
   11.9965  -20.7781   28.9347 C   0  0  0  0  0  0  0  0  0  0  0  0
   10.6639  -20.6706   29.6560 C   0  0  0  0  0  0  0  0  0  0  0  0
   10.5602  -21.8900   30.4684 N   0  0  0  0  0  0  0  0  0  0  0  0
   15.0078  -19.1778   25.4365 C   0  0  0  0  0  0  0  0  0  0  0  0
   16.0756  -18.5474   25.7408 O   0  0  0  0  0  0  0  0  0  0  0  0
   15.1673  -20.1439   24.4558 O   0  0  0  0  0  0  0  0  0  0  0  0
  2 10  1  0
  2  1  1  6
  3  2  1  0
  4  3  1  0
  4  9  2  0
  5  4  1  0
  6  5  2  0
  6  7  1  0
  7  8  2  0
  8  9  1  0
 10 11  2  0
 12 13  1  0
 12 10  1  0
 13 14  1  6
 14 15  1  0
 15 16  1  0
 16 20  1  0
 17 16  2  0
 18 13  1  0
 19 18  2  0
 21 18  1  0
 22 23  1  1
 22 21  1  0
 24 25  1  0
 24 23  1  0
 25 26  1  0
 26 27  1  0
 28 22  1  0
 28 30  1  0
 29 28  2  0
M  END
$$$$
