FEK.pdb
     RDKit          3D

 30 30  0  0  1  0  0  0  0  0999 V2000
    6.8519  -15.4475   21.1990 N   0  0  0  0  0  0  0  0  0  0  0  0
    7.4782  -14.9747   22.4009 C   0  0  1  0  0  0  0  0  0  0  0  0
    6.4622  -14.5416   23.4414 C   0  0  0  0  0  0  0  0  0  0  0  0
    7.2390  -13.9326   24.5611 C   0  0  0  0  0  0  0  0  0  0  0  0
    7.7063  -14.6965   25.5968 C   0  0  0  0  0  0  0  0  0  0  0  0
    8.4244  -14.1127   26.6236 C   0  0  0  0  0  0  0  0  0  0  0  0
    8.6591  -12.7682   26.5882 C   0  0  0  0  0  0  0  0  0  0  0  0
    8.2036  -11.9862   25.5669 C   0  0  0  0  0  0  0  0  0  0  0  0
    7.4853  -12.5743   24.5411 C   0  0  0  0  0  0  0  0  0  0  0  0
    8.3818  -16.0178   22.9235 C   0  0  0  0  0  0  0  0  0  0  0  0
    7.9123  -17.1719   23.1798 O   0  0  0  0  0  0  0  0  0  0  0  0
    9.7481  -15.7138   23.1283 N   0  0  0  0  0  0  0  0  0  0  0  0
   10.6734  -16.8687   23.3096 C   0  0  1  0  0  0  0  0  0  0  0  0
   11.9326  -16.5203   22.5503 C   0  0  0  0  0  0  0  0  0  0  0  0
   13.0554  -17.4721   22.6478 C   0  0  0  0  0  0  0  0  0  0  0  0
   14.2171  -17.0662   21.8661 C   0  0  0  0  0  0  0  0  0  0  0  0
   14.9971  -16.1771   22.2631 O   0  0  0  0  0  0  0  0  0  0  0  0
   10.9678  -16.9901   24.7595 C   0  0  0  0  0  0  0  0  0  0  0  0
   11.5380  -15.9962   25.3407 O   0  0  0  0  0  0  0  0  0  0  0  0
   14.4681  -17.6780   20.6510 O   0  0  0  0  0  0  0  0  0  0  0  0
   10.6797  -18.0921   25.5784 N   0  0  0  0  0  0  0  0  0  0  0  0
   11.1906  -18.1686   26.9655 C   0  0  1  0  0  0  0  0  0  0  0  0
   10.4750  -19.2398   27.7181 C   0  0  0  0  0  0  0  0  0  0  0  0
   10.9627  -19.4898   29.1141 C   0  0  0  0  0  0  0  0  0  0  0  0
   10.1458  -20.6660   29.6795 C   0  0  0  0  0  0  0  0  0  0  0  0
   10.5979  -20.9746   31.0965 C   0  0  0  0  0  0  0  0  0  0  0  0
    9.7746  -22.1112   31.5302 N   0  0  0  0  0  0  0  0  0  0  0  0
   12.6417  -18.4080   26.9158 C   0  0  0  0  0  0  0  0  0  0  0  0
   13.1466  -19.2177   26.0675 O   0  0  0  0  0  0  0  0  0  0  0  0
   13.5637  -17.7994   27.7524 O   0  0  0  0  0  0  0  0  0  0  0  0
  2 10  1  0
  2  1  1  6
  3  2  1  0
  4  3  1  0
  4  9  2  0
  5  4  1  0
  6  5  2  0
  6  7  1  0
  7  8  2  0
  8  9  1  0
 10 11  2  0
 12 13  1  0
 12 10  1  0
 13 14  1  6
 14 15  1  0
 15 16  1  0
 16 20  1  0
 17 16  2  0
 18 13  1  0
 19 18  2  0
 21 18  1  0
 22 23  1  1
 22 21  1  0
 24 25  1  0
 24 23  1  0
 25 26  1  0
 26 27  1  0
 28 22  1  0
 28 30  1  0
 29 28  2  0
M  END
$$$$
