FEK.pdb
     RDKit          3D

 30 30  0  0  1  0  0  0  0  0999 V2000
    5.7871  -17.1948   25.2969 N   0  0  0  0  0  0  0  0  0  0  0  0
    6.5358  -15.9900   25.0776 C   0  0  1  0  0  0  0  0  0  0  0  0
    7.0918  -15.4206   26.3695 C   0  0  0  0  0  0  0  0  0  0  0  0
    6.8753  -13.9450   26.3074 C   0  0  0  0  0  0  0  0  0  0  0  0
    7.8792  -13.0973   25.9224 C   0  0  0  0  0  0  0  0  0  0  0  0
    7.6574  -11.7338   25.8708 C   0  0  0  0  0  0  0  0  0  0  0  0
    6.4267  -11.2486   26.2086 C   0  0  0  0  0  0  0  0  0  0  0  0
    5.4108  -12.0735   26.5955 C   0  0  0  0  0  0  0  0  0  0  0  0
    5.6368  -13.4375   26.6457 C   0  0  0  0  0  0  0  0  0  0  0  0
    7.6042  -16.2513   24.0937 C   0  0  0  0  0  0  0  0  0  0  0  0
    8.3007  -17.3100   24.2026 O   0  0  0  0  0  0  0  0  0  0  0  0
    7.8312  -15.3215   23.0520 N   0  0  0  0  0  0  0  0  0  0  0  0
    8.8899  -15.6681   22.0611 C   0  0  1  0  0  0  0  0  0  0  0  0
    8.5932  -14.8486   20.8266 C   0  0  0  0  0  0  0  0  0  0  0  0
    7.3560  -15.1732   20.0917 C   0  0  0  0  0  0  0  0  0  0  0  0
    7.5829  -16.0569   18.9546 C   0  0  0  0  0  0  0  0  0  0  0  0
    7.5395  -17.2984   19.0695 O   0  0  0  0  0  0  0  0  0  0  0  0
   10.1983  -15.2687   22.6375 C   0  0  0  0  0  0  0  0  0  0  0  0
   10.2098  -14.3055   23.4878 O   0  0  0  0  0  0  0  0  0  0  0  0
    7.8542  -15.5123   17.7121 O   0  0  0  0  0  0  0  0  0  0  0  0
   11.4450  -15.8449   22.3517 N   0  0  0  0  0  0  0  0  0  0  0  0
   12.3758  -16.2309   23.4358 C   0  0  1  0  0  0  0  0  0  0  0  0
   11.7343  -17.2397   24.3286 C   0  0  0  0  0  0  0  0  0  0  0  0
   12.6178  -17.8218   25.3915 C   0  0  0  0  0  0  0  0  0  0  0  0
   11.7812  -18.8585   26.1635 C   0  0  0  0  0  0  0  0  0  0  0  0
   12.6577  -19.5819   27.1715 C   0  0  0  0  0  0  0  0  0  0  0  0
   11.7732  -20.5491   27.8348 N   0  0  0  0  0  0  0  0  0  0  0  0
   13.6135  -16.7442   22.8275 C   0  0  0  0  0  0  0  0  0  0  0  0
   13.5873  -17.7217   22.0066 O   0  0  0  0  0  0  0  0  0  0  0  0
   14.8775  -16.2338   23.0771 O   0  0  0  0  0  0  0  0  0  0  0  0
  2 10  1  0
  2  1  1  1
  3  2  1  0
  4  3  1  0
  4  9  2  0
  5  4  1  0
  6  5  2  0
  6  7  1  0
  7  8  2  0
  8  9  1  0
 10 11  2  0
 12 13  1  0
 12 10  1  0
 13 14  1  6
 14 15  1  0
 15 16  1  0
 16 20  1  0
 17 16  2  0
 18 13  1  0
 19 18  2  0
 21 18  1  0
 22 23  1  1
 22 21  1  0
 24 25  1  0
 24 23  1  0
 25 26  1  0
 26 27  1  0
 28 22  1  0
 28 30  1  0
 29 28  2  0
M  END
$$$$
