FEK.pdb
     RDKit          3D

 30 30  0  0  1  0  0  0  0  0999 V2000
    5.9773  -16.7157   25.6502 N   0  0  0  0  0  0  0  0  0  0  0  0
    6.3868  -16.3370   24.3277 C   0  0  1  0  0  0  0  0  0  0  0  0
    5.9711  -14.9183   23.9860 C   0  0  0  0  0  0  0  0  0  0  0  0
    6.6098  -14.0347   25.0055 C   0  0  0  0  0  0  0  0  0  0  0  0
    6.4237  -12.6784   24.9839 C   0  0  0  0  0  0  0  0  0  0  0  0
    7.0238  -11.8782   25.9381 C   0  0  0  0  0  0  0  0  0  0  0  0
    7.8016  -12.4597   26.8978 C   0  0  0  0  0  0  0  0  0  0  0  0
    8.0021  -13.8089   26.9397 C   0  0  0  0  0  0  0  0  0  0  0  0
    7.3996  -14.6063   25.9830 C   0  0  0  0  0  0  0  0  0  0  0  0
    7.8447  -16.5238   24.1957 C   0  0  0  0  0  0  0  0  0  0  0  0
    8.4912  -17.0481   25.1575 O   0  0  0  0  0  0  0  0  0  0  0  0
    8.4918  -16.1171   23.0053 N   0  0  0  0  0  0  0  0  0  0  0  0
    9.7274  -16.8596   22.6249 C   0  0  1  0  0  0  0  0  0  0  0  0
   10.0816  -16.3979   21.2304 C   0  0  0  0  0  0  0  0  0  0  0  0
   11.3335  -16.9216   20.6518 C   0  0  0  0  0  0  0  0  0  0  0  0
   11.5434  -16.5024   19.2715 C   0  0  0  0  0  0  0  0  0  0  0  0
   10.8998  -17.0045   18.3280 O   0  0  0  0  0  0  0  0  0  0  0  0
   10.7985  -16.4752   23.5781 C   0  0  0  0  0  0  0  0  0  0  0  0
   10.8875  -15.2379   23.9127 O   0  0  0  0  0  0  0  0  0  0  0  0
   12.4792  -15.5225   18.9920 O   0  0  0  0  0  0  0  0  0  0  0  0
   11.7372  -17.3353   24.1672 N   0  0  0  0  0  0  0  0  0  0  0  0
   12.5722  -16.8916   25.3060 C   0  0  1  0  0  0  0  0  0  0  0  0
   12.1552  -17.5956   26.5536 C   0  0  0  0  0  0  0  0  0  0  0  0
   13.0018  -17.3310   27.7629 C   0  0  0  0  0  0  0  0  0  0  0  0
   12.4362  -18.1852   28.9122 C   0  0  0  0  0  0  0  0  0  0  0  0
   13.2543  -17.9618   30.1725 C   0  0  0  0  0  0  0  0  0  0  0  0
   12.5648  -18.7197   31.2250 N   0  0  0  0  0  0  0  0  0  0  0  0
   13.9837  -17.1467   24.9771 C   0  0  0  0  0  0  0  0  0  0  0  0
   14.3108  -18.0525   24.1388 O   0  0  0  0  0  0  0  0  0  0  0  0
   15.0517  -16.4535   25.5241 O   0  0  0  0  0  0  0  0  0  0  0  0
  2 10  1  0
  2  1  1  1
  3  2  1  0
  4  3  1  0
  4  9  2  0
  5  4  1  0
  6  5  2  0
  6  7  1  0
  7  8  2  0
  8  9  1  0
 10 11  2  0
 12 13  1  0
 12 10  1  0
 13 14  1  6
 14 15  1  0
 15 16  1  0
 16 20  1  0
 17 16  2  0
 18 13  1  0
 19 18  2  0
 21 18  1  0
 22 23  1  1
 22 21  1  0
 24 25  1  0
 24 23  1  0
 25 26  1  0
 26 27  1  0
 28 22  1  0
 28 30  1  0
 29 28  2  0
M  END
$$$$
