FEK.pdb
     RDKit          3D

 30 30  0  0  1  0  0  0  0  0999 V2000
    7.1103  -16.0962   22.7064 N   0  0  0  0  0  0  0  0  0  0  0  0
    8.2279  -16.6789   22.0198 C   0  0  1  0  0  0  0  0  0  0  0  0
    8.1769  -16.4212   20.5253 C   0  0  0  0  0  0  0  0  0  0  0  0
    8.2009  -14.9388   20.3521 C   0  0  0  0  0  0  0  0  0  0  0  0
    7.2448  -14.1431   20.9242 C   0  0  0  0  0  0  0  0  0  0  0  0
    7.2860  -12.7721   20.7520 C   0  0  0  0  0  0  0  0  0  0  0  0
    8.2909  -12.2270   20.0056 C   0  0  0  0  0  0  0  0  0  0  0  0
    9.2548  -12.9994   19.4255 C   0  0  0  0  0  0  0  0  0  0  0  0
    9.2101  -14.3711   19.6003 C   0  0  0  0  0  0  0  0  0  0  0  0
    9.4819  -16.1789   22.6158 C   0  0  0  0  0  0  0  0  0  0  0  0
    9.4549  -15.1157   23.3136 O   0  0  0  0  0  0  0  0  0  0  0  0
   10.6854  -16.8904   22.3996 N   0  0  0  0  0  0  0  0  0  0  0  0
   11.8866  -16.4216   23.1479 C   0  0  1  0  0  0  0  0  0  0  0  0
   12.0470  -17.3655   24.3170 C   0  0  0  0  0  0  0  0  0  0  0  0
   11.8056  -16.8092   25.6618 C   0  0  0  0  0  0  0  0  0  0  0  0
   12.0485  -17.7716   26.7295 C   0  0  0  0  0  0  0  0  0  0  0  0
   11.1123  -18.2966   27.3653 O   0  0  0  0  0  0  0  0  0  0  0  0
   13.0563  -16.5287   22.2402 C   0  0  0  0  0  0  0  0  0  0  0  0
   13.1232  -17.5526   21.4669 O   0  0  0  0  0  0  0  0  0  0  0  0
   13.3487  -18.1171   27.0524 O   0  0  0  0  0  0  0  0  0  0  0  0
   14.1125  -15.6119   22.1310 N   0  0  0  0  0  0  0  0  0  0  0  0
   15.1694  -15.7810   21.1087 C   0  0  1  0  0  0  0  0  0  0  0  0
   15.2681  -14.5549   20.2643 C   0  0  0  0  0  0  0  0  0  0  0  0
   16.3803  -14.5465   19.2583 C   0  0  0  0  0  0  0  0  0  0  0  0
   16.3766  -13.1620   18.5849 C   0  0  0  0  0  0  0  0  0  0  0  0
   17.4400  -13.1121   17.5012 C   0  0  0  0  0  0  0  0  0  0  0  0
   17.1723  -11.8798   16.7479 N   0  0  0  0  0  0  0  0  0  0  0  0
   16.4373  -16.0797   21.7933 C   0  0  0  0  0  0  0  0  0  0  0  0
   16.5785  -15.8594   23.0430 O   0  0  0  0  0  0  0  0  0  0  0  0
   17.5561  -16.6099   21.1706 O   0  0  0  0  0  0  0  0  0  0  0  0
  2 10  1  0
  2  1  1  1
  3  2  1  0
  4  3  1  0
  4  9  2  0
  5  4  1  0
  6  5  2  0
  6  7  1  0
  7  8  2  0
  8  9  1  0
 10 11  2  0
 12 13  1  0
 12 10  1  0
 13 14  1  1
 14 15  1  0
 15 16  1  0
 16 20  1  0
 17 16  2  0
 18 13  1  0
 19 18  2  0
 21 18  1  0
 22 23  1  1
 22 21  1  0
 24 25  1  0
 24 23  1  0
 25 26  1  0
 26 27  1  0
 28 22  1  0
 28 30  1  0
 29 28  2  0
M  END
$$$$
