FEK.pdb
     RDKit          3D

 30 30  0  0  1  0  0  0  0  0999 V2000
    5.9376  -17.2635   25.3344 N   0  0  0  0  0  0  0  0  0  0  0  0
    6.9512  -16.3913   24.8127 C   0  0  1  0  0  0  0  0  0  0  0  0
    7.5973  -15.5529   25.8999 C   0  0  0  0  0  0  0  0  0  0  0  0
    7.0741  -14.1654   25.7291 C   0  0  0  0  0  0  0  0  0  0  0  0
    6.0129  -13.7126   26.4664 C   0  0  0  0  0  0  0  0  0  0  0  0
    5.5445  -12.4236   26.2932 C   0  0  0  0  0  0  0  0  0  0  0  0
    6.1544  -11.6132   25.3792 C   0  0  0  0  0  0  0  0  0  0  0  0
    7.2133  -12.0419   24.6328 C   0  0  0  0  0  0  0  0  0  0  0  0
    7.6792  -13.3326   24.8091 C   0  0  0  0  0  0  0  0  0  0  0  0
    7.9496  -17.1892   24.0750 C   0  0  0  0  0  0  0  0  0  0  0  0
    8.3497  -18.2908   24.5694 O   0  0  0  0  0  0  0  0  0  0  0  0
    8.4403  -16.7139   22.8362 N   0  0  0  0  0  0  0  0  0  0  0  0
    9.5812  -17.4614   22.2342 C   0  0  1  0  0  0  0  0  0  0  0  0
    9.7310  -16.9348   20.8257 C   0  0  0  0  0  0  0  0  0  0  0  0
   10.8816  -17.4304   20.0469 C   0  0  0  0  0  0  0  0  0  0  0  0
   10.8425  -17.0214   18.6481 C   0  0  0  0  0  0  0  0  0  0  0  0
   10.6822  -17.8475   17.7271 O   0  0  0  0  0  0  0  0  0  0  0  0
   10.7962  -17.1500   23.0282 C   0  0  0  0  0  0  0  0  0  0  0  0
   10.7606  -16.1243   23.8012 O   0  0  0  0  0  0  0  0  0  0  0  0
   10.9863  -15.6839   18.3252 O   0  0  0  0  0  0  0  0  0  0  0  0
   11.9987  -17.8725   23.0286 N   0  0  0  0  0  0  0  0  0  0  0  0
   12.8388  -17.9586   24.2441 C   0  0  1  0  0  0  0  0  0  0  0  0
   12.0927  -18.6487   25.3365 C   0  0  0  0  0  0  0  0  0  0  0  0
   12.8938  -18.9844   26.5590 C   0  0  0  0  0  0  0  0  0  0  0  0
   11.9555  -19.7224   27.5314 C   0  0  0  0  0  0  0  0  0  0  0  0
   12.6976  -20.0511   28.8155 C   0  0  0  0  0  0  0  0  0  0  0  0
   11.7049  -20.6947   29.6862 N   0  0  0  0  0  0  0  0  0  0  0  0
   14.0851  -18.6620   23.9011 C   0  0  0  0  0  0  0  0  0  0  0  0
   15.1853  -18.3725   24.4807 O   0  0  0  0  0  0  0  0  0  0  0  0
   14.1794  -19.6684   22.9530 O   0  0  0  0  0  0  0  0  0  0  0  0
  2 10  1  0
  2  1  1  1
  3  2  1  0
  4  3  1  0
  4  9  2  0
  5  4  1  0
  6  5  2  0
  6  7  1  0
  7  8  2  0
  8  9  1  0
 10 11  2  0
 12 13  1  0
 12 10  1  0
 13 14  1  6
 14 15  1  0
 15 16  1  0
 16 20  1  0
 17 16  2  0
 18 13  1  0
 19 18  2  0
 21 18  1  0
 22 23  1  1
 22 21  1  0
 24 25  1  0
 24 23  1  0
 25 26  1  0
 26 27  1  0
 28 22  1  0
 28 30  1  0
 29 28  2  0
M  END
$$$$
