TER.pdb
     RDKit          3D

 28 27  0  0  1  0  0  0  0  0999 V2000
    6.3374  -14.0483   17.5106 C   0  0  0  0  0  0  0  0  0  0  0  0
    6.9733  -14.3007   18.8340 C   0  0  1  0  0  0  0  0  0  0  0  0
    8.2840  -14.7626   18.5603 O   0  0  0  0  0  0  0  0  0  0  0  0
    7.1541  -13.0720   19.6974 C   0  0  2  0  0  0  0  0  0  0  0  0
    8.0083  -12.1784   18.8923 N   0  0  0  0  0  0  0  0  0  0  0  0
    7.8938  -13.3367   20.9538 C   0  0  0  0  0  0  0  0  0  0  0  0
    9.1349  -13.4225   20.9211 O   0  0  0  0  0  0  0  0  0  0  0  0
    7.2647  -13.5000   22.2116 N   0  0  0  0  0  0  0  0  0  0  0  0
    7.8942  -13.7657   23.4726 C   0  0  1  0  0  0  0  0  0  0  0  0
    7.0760  -13.5085   24.6656 C   0  0  0  0  0  0  0  0  0  0  0  0
    7.7584  -13.7480   25.9812 C   0  0  0  0  0  0  0  0  0  0  0  0
    6.8541  -13.4106   27.0861 C   0  0  0  0  0  0  0  0  0  0  0  0
    5.9859  -14.2175   27.4674 O   0  0  0  0  0  0  0  0  0  0  0  0
    8.4126  -15.1966   23.5383 C   0  0  0  0  0  0  0  0  0  0  0  0
    7.6616  -16.1315   23.2082 O   0  0  0  0  0  0  0  0  0  0  0  0
    6.9069  -12.1915   27.7659 O   0  0  0  0  0  0  0  0  0  0  0  0
   14.3987  -19.6839   19.9897 N   0  0  0  0  0  0  0  0  0  0  0  0
   14.6939  -20.0007   21.3418 C   0  0  0  0  0  0  0  0  0  0  0  0
   15.2950  -21.0885   21.6236 N   0  0  0  0  0  0  0  0  0  0  0  0
   14.3156  -19.1001   22.3740 N   0  0  0  0  0  0  0  0  0  0  0  0
   13.4343  -17.9792   22.0698 C   0  0  0  0  0  0  0  0  0  0  0  0
   12.1902  -18.0456   22.9203 C   0  0  0  0  0  0  0  0  0  0  0  0
   11.5079  -16.7162   22.9635 C   0  0  0  0  0  0  0  0  0  0  0  0
   10.2879  -16.7703   23.8367 C   0  0  2  0  0  0  0  0  0  0  0  0
    9.7339  -15.4052   23.9734 N   0  0  0  0  0  0  0  0  0  0  0  0
   10.5331  -17.2259   25.2181 C   0  0  0  0  0  0  0  0  0  0  0  0
   10.8004  -18.5501   25.5482 O   0  0  0  0  0  0  0  0  0  0  0  0
   10.5114  -16.4233   26.1774 O   0  0  0  0  0  0  0  0  0  0  0  0
  2  1  1  6
  2  4  1  0
  3  2  1  0
  4  6  1  0
  4  5  1  6
  6  7  2  0
  8  9  1  0
  8  6  1  0
  9 10  1  1
 10 11  1  0
 11 12  1  0
 12 13  2  0
 12 16  1  0
 14 15  2  0
 14  9  1  0
 17 18  1  0
 18 19  2  0
 20 18  1  0
 20 21  1  0
 22 23  1  0
 22 21  1  0
 24 23  1  6
 24 26  1  0
 24 25  1  0
 25 14  1  0
 26 27  1  0
 28 26  2  0
M  END
$$$$
