TER.pdb
     RDKit          3D

 28 27  0  0  1  0  0  0  0  0999 V2000
    7.9117  -14.8107   16.9949 C   0  0  0  0  0  0  0  0  0  0  0  0
    8.9517  -15.0153   18.0418 C   0  0  1  0  0  0  0  0  0  0  0  0
   10.1906  -14.6928   17.4356 O   0  0  0  0  0  0  0  0  0  0  0  0
    8.8398  -14.0958   19.2375 C   0  0  2  0  0  0  0  0  0  0  0  0
    8.9727  -12.7393   18.6728 N   0  0  0  0  0  0  0  0  0  0  0  0
    9.9470  -14.2538   20.2097 C   0  0  0  0  0  0  0  0  0  0  0  0
   11.0475  -13.7257   19.9675 O   0  0  0  0  0  0  0  0  0  0  0  0
    9.8276  -14.9805   21.4189 N   0  0  0  0  0  0  0  0  0  0  0  0
   10.8519  -15.2267   22.3921 C   0  0  1  0  0  0  0  0  0  0  0  0
   10.4148  -15.8815   23.6327 C   0  0  0  0  0  0  0  0  0  0  0  0
   11.4987  -16.1578   24.6341 C   0  0  0  0  0  0  0  0  0  0  0  0
   10.9301  -16.7894   25.8300 C   0  0  0  0  0  0  0  0  0  0  0  0
    9.7093  -17.0214   25.9082 O   0  0  0  0  0  0  0  0  0  0  0  0
   11.9968  -16.0341   21.7940 C   0  0  0  0  0  0  0  0  0  0  0  0
   11.7432  -17.0814   21.1728 O   0  0  0  0  0  0  0  0  0  0  0  0
   11.7026  -17.1624   26.9323 O   0  0  0  0  0  0  0  0  0  0  0  0
   16.1488  -13.7496   15.8486 N   0  0  0  0  0  0  0  0  0  0  0  0
   15.9166  -13.1485   17.1137 C   0  0  0  0  0  0  0  0  0  0  0  0
   16.2840  -11.9464   17.3239 N   0  0  0  0  0  0  0  0  0  0  0  0
   15.2750  -13.8939   18.1394 N   0  0  0  0  0  0  0  0  0  0  0  0
   14.7155  -15.2063   17.8389 C   0  0  0  0  0  0  0  0  0  0  0  0
   14.0763  -15.7975   19.0707 C   0  0  0  0  0  0  0  0  0  0  0  0
   15.0034  -15.7118   20.2403 C   0  0  0  0  0  0  0  0  0  0  0  0
   14.4116  -16.3903   21.4416 C   0  0  2  0  0  0  0  0  0  0  0  0
   13.3085  -15.5572   21.9692 N   0  0  0  0  0  0  0  0  0  0  0  0
   15.3387  -16.5638   22.5758 C   0  0  0  0  0  0  0  0  0  0  0  0
   16.4709  -17.3693   22.5188 O   0  0  0  0  0  0  0  0  0  0  0  0
   15.1441  -15.9809   23.6654 O   0  0  0  0  0  0  0  0  0  0  0  0
  2  1  1  6
  2  4  1  0
  3  2  1  0
  4  6  1  0
  4  5  1  6
  6  7  2  0
  8  9  1  0
  8  6  1  0
  9 10  1  1
 10 11  1  0
 11 12  1  0
 12 13  2  0
 12 16  1  0
 14 15  2  0
 14  9  1  0
 17 18  1  0
 18 19  2  0
 20 18  1  0
 20 21  1  0
 22 23  1  0
 22 21  1  0
 24 23  1  6
 24 26  1  0
 24 25  1  0
 25 14  1  0
 26 27  1  0
 28 26  2  0
M  END
$$$$
