TER.pdb
     RDKit          3D

 28 27  0  0  1  0  0  0  0  0999 V2000
    6.8112  -12.0792   19.4473 C   0  0  0  0  0  0  0  0  0  0  0  0
    7.9092  -13.0652   19.6515 C   0  0  1  0  0  0  0  0  0  0  0  0
    7.2814  -14.2953   19.9662 O   0  0  0  0  0  0  0  0  0  0  0  0
    8.7477  -13.3463   18.4244 C   0  0  2  0  0  0  0  0  0  0  0  0
    7.8033  -13.9450   17.4620 N   0  0  0  0  0  0  0  0  0  0  0  0
    9.8080  -14.3561   18.6523 C   0  0  0  0  0  0  0  0  0  0  0  0
    9.5915  -15.5431   18.3476 O   0  0  0  0  0  0  0  0  0  0  0  0
   11.0750  -14.0482   19.2041 N   0  0  0  0  0  0  0  0  0  0  0  0
   12.1995  -14.9267   19.3478 C   0  0  1  0  0  0  0  0  0  0  0  0
   13.5222  -14.3090   19.1816 C   0  0  0  0  0  0  0  0  0  0  0  0
   14.6881  -15.2532   19.2382 C   0  0  0  0  0  0  0  0  0  0  0  0
   15.9431  -14.5146   19.0596 C   0  0  0  0  0  0  0  0  0  0  0  0
   16.2561  -14.0506   17.9474 O   0  0  0  0  0  0  0  0  0  0  0  0
   12.1657  -15.6493   20.6884 C   0  0  0  0  0  0  0  0  0  0  0  0
   11.8444  -15.0189   21.7113 O   0  0  0  0  0  0  0  0  0  0  0  0
   16.8469  -14.2894   20.1006 O   0  0  0  0  0  0  0  0  0  0  0  0
   13.5283  -23.5737   23.4182 N   0  0  0  0  0  0  0  0  0  0  0  0
   12.4203  -23.2594   24.2484 C   0  0  0  0  0  0  0  0  0  0  0  0
   12.2077  -23.9346   25.3081 N   0  0  0  0  0  0  0  0  0  0  0  0
   11.5537  -22.1915   23.8903 N   0  0  0  0  0  0  0  0  0  0  0  0
   11.7929  -21.4464   22.6602 C   0  0  0  0  0  0  0  0  0  0  0  0
   12.0128  -19.9859   22.9672 C   0  0  0  0  0  0  0  0  0  0  0  0
   12.2664  -19.2143   21.7122 C   0  0  0  0  0  0  0  0  0  0  0  0
   12.3025  -17.7394   21.9902 C   0  0  2  0  0  0  0  0  0  0  0  0
   12.5017  -17.0150   20.7156 N   0  0  0  0  0  0  0  0  0  0  0  0
   13.4095  -17.2988   22.8600 C   0  0  0  0  0  0  0  0  0  0  0  0
   14.5787  -16.7239   22.3738 O   0  0  0  0  0  0  0  0  0  0  0  0
   13.3453  -17.4252   24.1029 O   0  0  0  0  0  0  0  0  0  0  0  0
  2  1  1  6
  2  4  1  0
  3  2  1  0
  4  6  1  0
  4  5  1  6
  6  7  2  0
  8  9  1  0
  8  6  1  0
  9 10  1  1
 10 11  1  0
 11 12  1  0
 12 13  2  0
 12 16  1  0
 14 15  2  0
 14  9  1  0
 17 18  1  0
 18 19  2  0
 20 18  1  0
 20 21  1  0
 22 23  1  0
 22 21  1  0
 24 23  1  6
 24 26  1  0
 24 25  1  0
 25 14  1  0
 26 27  1  0
 28 26  2  0
M  END
$$$$
