TER.pdb
     RDKit          3D

 28 27  0  0  1  0  0  0  0  0999 V2000
    9.0540  -12.3969   19.4513 C   0  0  0  0  0  0  0  0  0  0  0  0
    8.4373  -13.3592   18.4957 C   0  0  1  0  0  0  0  0  0  0  0  0
    7.6287  -12.5876   17.6255 O   0  0  0  0  0  0  0  0  0  0  0  0
    9.4178  -14.0797   17.5971 C   0  0  2  0  0  0  0  0  0  0  0  0
    8.5693  -14.8677   16.6830 N   0  0  0  0  0  0  0  0  0  0  0  0
   10.2728  -15.0530   18.3164 C   0  0  0  0  0  0  0  0  0  0  0  0
    9.7972  -16.1569   18.6388 O   0  0  0  0  0  0  0  0  0  0  0  0
   11.6216  -14.8005   18.6649 N   0  0  0  0  0  0  0  0  0  0  0  0
   12.5168  -15.6708   19.3707 C   0  0  1  0  0  0  0  0  0  0  0  0
   13.9290  -15.5999   18.9718 C   0  0  0  0  0  0  0  0  0  0  0  0
   14.3462  -14.3264   18.2949 C   0  0  0  0  0  0  0  0  0  0  0  0
   15.8097  -14.2477   18.2287 C   0  0  0  0  0  0  0  0  0  0  0  0
   16.4276  -14.6944   17.2444 O   0  0  0  0  0  0  0  0  0  0  0  0
   12.4254  -15.4515   20.8754 C   0  0  0  0  0  0  0  0  0  0  0  0
   13.0429  -14.5027   21.3905 O   0  0  0  0  0  0  0  0  0  0  0  0
   16.5866  -13.6800   19.2413 O   0  0  0  0  0  0  0  0  0  0  0  0
    7.1361  -14.4264   20.8279 N   0  0  0  0  0  0  0  0  0  0  0  0
    6.7493  -15.7462   21.1803 C   0  0  0  0  0  0  0  0  0  0  0  0
    6.0610  -16.4457   20.3672 N   0  0  0  0  0  0  0  0  0  0  0  0
    7.1329  -16.2787   22.4407 N   0  0  0  0  0  0  0  0  0  0  0  0
    7.8662  -15.4454   23.3859 C   0  0  0  0  0  0  0  0  0  0  0  0
    9.2938  -15.2700   22.9312 C   0  0  0  0  0  0  0  0  0  0  0  0
   10.1810  -16.2900   23.5693 C   0  0  0  0  0  0  0  0  0  0  0  0
   11.5971  -16.1377   23.0947 C   0  0  2  0  0  0  0  0  0  0  0  0
   11.6372  -16.3396   21.6295 N   0  0  0  0  0  0  0  0  0  0  0  0
   12.5455  -17.1246   23.6449 C   0  0  0  0  0  0  0  0  0  0  0  0
   13.6454  -16.7748   24.4206 O   0  0  0  0  0  0  0  0  0  0  0  0
   12.4000  -18.3490   23.4339 O   0  0  0  0  0  0  0  0  0  0  0  0
  2  1  1  1
  2  4  1  0
  3  2  1  0
  4  6  1  0
  4  5  1  6
  6  7  2  0
  8  9  1  0
  8  6  1  0
  9 10  1  6
 10 11  1  0
 11 12  1  0
 12 13  2  0
 12 16  1  0
 14 15  2  0
 14  9  1  0
 17 18  1  0
 18 19  2  0
 20 18  1  0
 20 21  1  0
 22 23  1  0
 22 21  1  0
 24 23  1  1
 24 26  1  0
 24 25  1  0
 25 14  1  0
 26 27  1  0
 28 26  2  0
M  END
$$$$
