TER.pdb
     RDKit          3D

 28 27  0  0  1  0  0  0  0  0999 V2000
    4.2676  -19.5517   22.1942 C   0  0  0  0  0  0  0  0  0  0  0  0
    4.4376  -20.1970   20.8621 C   0  0  1  0  0  0  0  0  0  0  0  0
    3.1882  -20.7850   20.5464 O   0  0  0  0  0  0  0  0  0  0  0  0
    4.7291  -19.2423   19.7257 C   0  0  2  0  0  0  0  0  0  0  0  0
    4.8436  -20.1086   18.5370 N   0  0  0  0  0  0  0  0  0  0  0  0
    6.0290  -18.5436   19.8600 C   0  0  0  0  0  0  0  0  0  0  0  0
    7.0716  -19.2153   19.9621 O   0  0  0  0  0  0  0  0  0  0  0  0
    6.1604  -17.1341   19.8789 N   0  0  0  0  0  0  0  0  0  0  0  0
    7.3565  -16.3734   20.0969 C   0  0  1  0  0  0  0  0  0  0  0  0
    7.2473  -14.9259   19.8697 C   0  0  0  0  0  0  0  0  0  0  0  0
    8.5260  -14.1516   20.0086 C   0  0  0  0  0  0  0  0  0  0  0  0
    8.2944  -12.7370   19.6961 C   0  0  0  0  0  0  0  0  0  0  0  0
    8.4671  -11.8574   20.5602 O   0  0  0  0  0  0  0  0  0  0  0  0
    7.9085  -16.6051   21.4976 C   0  0  0  0  0  0  0  0  0  0  0  0
    7.1584  -16.4587   22.4790 O   0  0  0  0  0  0  0  0  0  0  0  0
    7.8751  -12.2955   18.4390 O   0  0  0  0  0  0  0  0  0  0  0  0
   11.9424  -21.9856   22.4624 N   0  0  0  0  0  0  0  0  0  0  0  0
   12.7831  -21.8266   23.5953 C   0  0  0  0  0  0  0  0  0  0  0  0
   13.8239  -22.5511   23.7218 N   0  0  0  0  0  0  0  0  0  0  0  0
   12.4567  -20.8585   24.5831 N   0  0  0  0  0  0  0  0  0  0  0  0
   11.1620  -20.1894   24.5411 C   0  0  0  0  0  0  0  0  0  0  0  0
   11.3395  -18.7250   24.2257 C   0  0  0  0  0  0  0  0  0  0  0  0
   10.7716  -18.4012   22.8813 C   0  0  0  0  0  0  0  0  0  0  0  0
    9.7466  -17.3091   22.9835 C   0  0  2  0  0  0  0  0  0  0  0  0
    9.2581  -16.9801   21.6262 N   0  0  0  0  0  0  0  0  0  0  0  0
   10.2498  -16.0349   23.5304 C   0  0  0  0  0  0  0  0  0  0  0  0
   10.3014  -15.7569   24.8920 O   0  0  0  0  0  0  0  0  0  0  0  0
   10.6626  -15.1256   22.7769 O   0  0  0  0  0  0  0  0  0  0  0  0
  2  1  1  1
  2  4  1  0
  3  2  1  0
  4  6  1  0
  4  5  1  6
  6  7  2  0
  8  9  1  0
  8  6  1  0
  9 10  1  1
 10 11  1  0
 11 12  1  0
 12 13  2  0
 12 16  1  0
 14 15  2  0
 14  9  1  0
 17 18  1  0
 18 19  2  0
 20 18  1  0
 20 21  1  0
 22 23  1  0
 22 21  1  0
 24 23  1  6
 24 26  1  0
 24 25  1  0
 25 14  1  0
 26 27  1  0
 28 26  2  0
M  END
$$$$
