TER.pdb
     RDKit          3D

 28 27  0  0  1  0  0  0  0  0999 V2000
    7.3037  -12.6764   19.0965 C   0  0  0  0  0  0  0  0  0  0  0  0
    8.2013  -13.6944   19.7109 C   0  0  1  0  0  0  0  0  0  0  0  0
    8.5220  -13.2093   21.0025 O   0  0  0  0  0  0  0  0  0  0  0  0
    7.5659  -15.0481   19.9382 C   0  0  2  0  0  0  0  0  0  0  0  0
    6.3364  -14.7549   20.6991 N   0  0  0  0  0  0  0  0  0  0  0  0
    8.3797  -15.9470   20.7899 C   0  0  0  0  0  0  0  0  0  0  0  0
    8.1362  -16.0137   22.0084 O   0  0  0  0  0  0  0  0  0  0  0  0
    9.4355  -16.7495   20.2939 N   0  0  0  0  0  0  0  0  0  0  0  0
   10.3711  -17.5259   21.0547 C   0  0  1  0  0  0  0  0  0  0  0  0
   11.2467  -18.4158   20.2800 C   0  0  0  0  0  0  0  0  0  0  0  0
   10.6621  -18.9464   19.0031 C   0  0  0  0  0  0  0  0  0  0  0  0
   11.6841  -19.6798   18.2481 C   0  0  0  0  0  0  0  0  0  0  0  0
   12.0033  -20.8396   18.5692 O   0  0  0  0  0  0  0  0  0  0  0  0
   11.2392  -16.6349   21.9338 C   0  0  0  0  0  0  0  0  0  0  0  0
   11.5496  -15.4997   21.5311 O   0  0  0  0  0  0  0  0  0  0  0  0
   12.3497  -19.1375   17.1462 O   0  0  0  0  0  0  0  0  0  0  0  0
    9.9018  -15.5893   29.8392 N   0  0  0  0  0  0  0  0  0  0  0  0
   10.8072  -16.3712   29.0747 C   0  0  0  0  0  0  0  0  0  0  0  0
   11.7681  -16.9777   29.6519 N   0  0  0  0  0  0  0  0  0  0  0  0
   10.6353  -16.4718   27.6677 N   0  0  0  0  0  0  0  0  0  0  0  0
   10.1094  -15.3364   26.9195 C   0  0  0  0  0  0  0  0  0  0  0  0
   10.7108  -15.2968   25.5366 C   0  0  0  0  0  0  0  0  0  0  0  0
   11.8548  -16.2531   25.4301 C   0  0  0  0  0  0  0  0  0  0  0  0
   12.4421  -16.2314   24.0487 C   0  0  2  0  0  0  0  0  0  0  0  0
   11.6586  -17.1366   23.1793 N   0  0  0  0  0  0  0  0  0  0  0  0
   13.8317  -16.7180   23.9574 C   0  0  0  0  0  0  0  0  0  0  0  0
   14.9341  -15.9476   24.3110 O   0  0  0  0  0  0  0  0  0  0  0  0
   14.0873  -17.8722   23.5483 O   0  0  0  0  0  0  0  0  0  0  0  0
  2  1  1  1
  2  4  1  0
  3  2  1  0
  4  6  1  0
  4  5  1  1
  6  7  2  0
  8  9  1  0
  8  6  1  0
  9 10  1  6
 10 11  1  0
 11 12  1  0
 12 13  2  0
 12 16  1  0
 14 15  2  0
 14  9  1  0
 17 18  1  0
 18 19  2  0
 20 18  1  0
 20 21  1  0
 22 23  1  0
 22 21  1  0
 24 23  1  1
 24 26  1  0
 24 25  1  0
 25 14  1  0
 26 27  1  0
 28 26  2  0
M  END
$$$$
