TER.pdb
     RDKit          3D

 28 27  0  0  1  0  0  0  0  0999 V2000
    8.4707  -13.9663   15.8695 C   0  0  0  0  0  0  0  0  0  0  0  0
    8.6335  -14.5175   17.2440 C   0  0  1  0  0  0  0  0  0  0  0  0
   10.0121  -14.4102   17.5513 O   0  0  0  0  0  0  0  0  0  0  0  0
    7.9201  -13.7417   18.3289 C   0  0  2  0  0  0  0  0  0  0  0  0
    8.5172  -12.3938   18.2713 N   0  0  0  0  0  0  0  0  0  0  0  0
    8.1826  -14.2567   19.6933 C   0  0  0  0  0  0  0  0  0  0  0  0
    9.2229  -13.9118   20.2827 O   0  0  0  0  0  0  0  0  0  0  0  0
    7.3069  -15.1319   20.3802 N   0  0  0  0  0  0  0  0  0  0  0  0
    7.5023  -15.7225   21.6725 C   0  0  1  0  0  0  0  0  0  0  0  0
    6.4895  -16.7012   22.0909 C   0  0  0  0  0  0  0  0  0  0  0  0
    6.7635  -17.3988   23.3917 C   0  0  0  0  0  0  0  0  0  0  0  0
    6.6386  -18.8505   23.2205 C   0  0  0  0  0  0  0  0  0  0  0  0
    5.7993  -19.3293   22.4353 O   0  0  0  0  0  0  0  0  0  0  0  0
    8.8770  -16.3699   21.7796 C   0  0  0  0  0  0  0  0  0  0  0  0
    9.2990  -17.0615   20.8358 O   0  0  0  0  0  0  0  0  0  0  0  0
    7.4341  -19.7682   23.9107 O   0  0  0  0  0  0  0  0  0  0  0  0
   15.1722  -16.2415   19.3633 N   0  0  0  0  0  0  0  0  0  0  0  0
   14.6424  -15.0128   18.8887 C   0  0  0  0  0  0  0  0  0  0  0  0
   15.3903  -14.2020   18.2504 N   0  0  0  0  0  0  0  0  0  0  0  0
   13.2785  -14.6950   19.1299 N   0  0  0  0  0  0  0  0  0  0  0  0
   12.8195  -14.4625   20.4940 C   0  0  0  0  0  0  0  0  0  0  0  0
   12.4175  -15.7649   21.1402 C   0  0  0  0  0  0  0  0  0  0  0  0
   11.9293  -15.5347   22.5343 C   0  0  0  0  0  0  0  0  0  0  0  0
   11.0185  -16.6453   22.9713 C   0  0  2  0  0  0  0  0  0  0  0  0
    9.6221  -16.1565   22.9535 N   0  0  0  0  0  0  0  0  0  0  0  0
   11.2406  -17.1243   24.3487 C   0  0  0  0  0  0  0  0  0  0  0  0
   12.3268  -17.9108   24.7166 O   0  0  0  0  0  0  0  0  0  0  0  0
   10.4436  -16.8382   25.2695 O   0  0  0  0  0  0  0  0  0  0  0  0
  2  1  1  6
  2  4  1  0
  3  2  1  0
  4  6  1  0
  4  5  1  1
  6  7  2  0
  8  9  1  0
  8  6  1  0
  9 10  1  6
 10 11  1  0
 11 12  1  0
 12 13  2  0
 12 16  1  0
 14 15  2  0
 14  9  1  0
 17 18  1  0
 18 19  2  0
 20 18  1  0
 20 21  1  0
 22 23  1  0
 22 21  1  0
 24 23  1  1
 24 26  1  0
 24 25  1  0
 25 14  1  0
 26 27  1  0
 28 26  2  0
M  END
$$$$
