TER.pdb
     RDKit          3D

 28 27  0  0  1  0  0  0  0  0999 V2000
    7.9403  -21.1766   21.3008 C   0  0  0  0  0  0  0  0  0  0  0  0
    6.6412  -21.0182   22.0126 C   0  0  1  0  0  0  0  0  0  0  0  0
    5.9006  -22.1965   21.7489 O   0  0  0  0  0  0  0  0  0  0  0  0
    6.7471  -20.9409   23.5195 C   0  0  2  0  0  0  0  0  0  0  0  0
    5.3501  -20.8358   23.9821 N   0  0  0  0  0  0  0  0  0  0  0  0
    7.4393  -19.7225   24.0012 C   0  0  0  0  0  0  0  0  0  0  0  0
    6.9284  -18.6085   23.7852 O   0  0  0  0  0  0  0  0  0  0  0  0
    8.6674  -19.7480   24.7053 N   0  0  0  0  0  0  0  0  0  0  0  0
    9.5227  -18.6367   25.0056 C   0  0  1  0  0  0  0  0  0  0  0  0
   10.4413  -18.8209   26.1375 C   0  0  0  0  0  0  0  0  0  0  0  0
   10.6158  -20.2371   26.6042 C   0  0  0  0  0  0  0  0  0  0  0  0
   11.6192  -20.2949   27.6729 C   0  0  0  0  0  0  0  0  0  0  0  0
   11.2952  -20.6038   28.8347 O   0  0  0  0  0  0  0  0  0  0  0  0
   10.3332  -18.2204   23.7849 C   0  0  0  0  0  0  0  0  0  0  0  0
   10.6525  -19.0800   22.9445 O   0  0  0  0  0  0  0  0  0  0  0  0
   12.9711  -20.0138   27.4617 O   0  0  0  0  0  0  0  0  0  0  0  0
    7.9319  -13.9480   16.5489 N   0  0  0  0  0  0  0  0  0  0  0  0
    8.4573  -13.2711   17.6810 C   0  0  0  0  0  0  0  0  0  0  0  0
    8.0179  -12.1160   17.9919 N   0  0  0  0  0  0  0  0  0  0  0  0
    9.4724  -13.8881   18.4609 N   0  0  0  0  0  0  0  0  0  0  0  0
    9.2186  -14.2026   19.8617 C   0  0  0  0  0  0  0  0  0  0  0  0
   10.4148  -14.8928   20.4684 C   0  0  0  0  0  0  0  0  0  0  0  0
   10.1204  -15.3284   21.8678 C   0  0  0  0  0  0  0  0  0  0  0  0
   11.0835  -16.3917   22.3099 C   0  0  2  0  0  0  0  0  0  0  0  0
   10.6911  -16.8661   23.6553 N   0  0  0  0  0  0  0  0  0  0  0  0
   12.4812  -15.9423   22.4533 C   0  0  0  0  0  0  0  0  0  0  0  0
   13.1222  -15.8251   23.6818 O   0  0  0  0  0  0  0  0  0  0  0  0
   13.1691  -15.6393   21.4534 O   0  0  0  0  0  0  0  0  0  0  0  0
  2  1  1  6
  2  4  1  0
  3  2  1  0
  4  6  1  0
  4  5  1  1
  6  7  2  0
  8  9  1  0
  8  6  1  0
  9 10  1  1
 10 11  1  0
 11 12  1  0
 12 13  2  0
 12 16  1  0
 14 15  2  0
 14  9  1  0
 17 18  1  0
 18 19  2  0
 20 18  1  0
 20 21  1  0
 22 23  1  0
 22 21  1  0
 24 23  1  1
 24 26  1  0
 24 25  1  0
 25 14  1  0
 26 27  1  0
 28 26  2  0
M  END
$$$$
