TER.pdb
     RDKit          3D

 28 27  0  0  1  0  0  0  0  0999 V2000
    7.8713  -12.1639   20.6075 C   0  0  0  0  0  0  0  0  0  0  0  0
    8.5070  -13.4451   21.0245 C   0  0  1  0  0  0  0  0  0  0  0  0
    7.8171  -13.8676   22.1872 O   0  0  0  0  0  0  0  0  0  0  0  0
    8.3579  -14.5802   20.0360 C   0  0  2  0  0  0  0  0  0  0  0  0
    6.9011  -14.7120   19.8433 N   0  0  0  0  0  0  0  0  0  0  0  0
    8.8296  -15.8841   20.5586 C   0  0  0  0  0  0  0  0  0  0  0  0
    7.9940  -16.7226   20.9424 O   0  0  0  0  0  0  0  0  0  0  0  0
   10.1966  -16.2416   20.6490 N   0  0  0  0  0  0  0  0  0  0  0  0
   10.7436  -17.4827   21.1153 C   0  0  1  0  0  0  0  0  0  0  0  0
   11.6038  -18.2022   20.1661 C   0  0  0  0  0  0  0  0  0  0  0  0
   13.0763  -17.9438   20.3043 C   0  0  0  0  0  0  0  0  0  0  0  0
   13.8182  -18.7059   19.2937 C   0  0  0  0  0  0  0  0  0  0  0  0
   13.8767  -18.3109   18.1144 O   0  0  0  0  0  0  0  0  0  0  0  0
   11.5107  -17.2913   22.4174 C   0  0  0  0  0  0  0  0  0  0  0  0
   12.2281  -16.2851   22.5586 O   0  0  0  0  0  0  0  0  0  0  0  0
   14.4909  -19.8957   19.5819 O   0  0  0  0  0  0  0  0  0  0  0  0
   10.9939  -21.3767   30.3182 N   0  0  0  0  0  0  0  0  0  0  0  0
   12.0255  -20.4102   30.4501 C   0  0  0  0  0  0  0  0  0  0  0  0
   12.6045  -20.2471   31.5736 N   0  0  0  0  0  0  0  0  0  0  0  0
   12.4057  -19.6294   29.3253 N   0  0  0  0  0  0  0  0  0  0  0  0
   11.6565  -19.7413   28.0795 C   0  0  0  0  0  0  0  0  0  0  0  0
   12.2558  -18.8436   27.0257 C   0  0  0  0  0  0  0  0  0  0  0  0
   11.4961  -18.9540   25.7430 C   0  0  0  0  0  0  0  0  0  0  0  0
   12.0599  -18.0253   24.7069 C   0  0  2  0  0  0  0  0  0  0  0  0
   11.3746  -18.2700   23.4186 N   0  0  0  0  0  0  0  0  0  0  0  0
   13.4948  -18.2125   24.4207 C   0  0  0  0  0  0  0  0  0  0  0  0
   14.4938  -17.4271   24.9857 O   0  0  0  0  0  0  0  0  0  0  0  0
   13.8873  -19.1067   23.6389 O   0  0  0  0  0  0  0  0  0  0  0  0
  2  1  1  6
  2  4  1  0
  3  2  1  0
  4  6  1  0
  4  5  1  1
  6  7  2  0
  8  9  1  0
  8  6  1  0
  9 10  1  6
 10 11  1  0
 11 12  1  0
 12 13  2  0
 12 16  1  0
 14 15  2  0
 14  9  1  0
 17 18  1  0
 18 19  2  0
 20 18  1  0
 20 21  1  0
 22 23  1  0
 22 21  1  0
 24 23  1  1
 24 26  1  0
 24 25  1  0
 25 14  1  0
 26 27  1  0
 28 26  2  0
M  END
$$$$
