TER.pdb
     RDKit          3D

 28 27  0  0  1  0  0  0  0  0999 V2000
    8.9771  -15.7720   15.9084 C   0  0  0  0  0  0  0  0  0  0  0  0
    8.6291  -14.3553   16.2107 C   0  0  1  0  0  0  0  0  0  0  0  0
    7.8618  -13.8946   15.1128 O   0  0  0  0  0  0  0  0  0  0  0  0
    7.7473  -14.1621   17.4244 C   0  0  2  0  0  0  0  0  0  0  0  0
    7.5298  -12.7046   17.4936 N   0  0  0  0  0  0  0  0  0  0  0  0
    8.4013  -14.5476   18.6969 C   0  0  0  0  0  0  0  0  0  0  0  0
    9.4121  -13.9264   19.0726 O   0  0  0  0  0  0  0  0  0  0  0  0
    7.9385  -15.5971   19.5270 N   0  0  0  0  0  0  0  0  0  0  0  0
    8.6264  -16.2038   20.6296 C   0  0  1  0  0  0  0  0  0  0  0  0
    7.9901  -17.3962   21.2057 C   0  0  0  0  0  0  0  0  0  0  0  0
    6.5152  -17.2818   21.4616 C   0  0  0  0  0  0  0  0  0  0  0  0
    6.0020  -18.5382   22.0188 C   0  0  0  0  0  0  0  0  0  0  0  0
    6.2530  -18.8631   23.1942 O   0  0  0  0  0  0  0  0  0  0  0  0
   10.0625  -16.5506   20.2587 C   0  0  0  0  0  0  0  0  0  0  0  0
   10.2784  -17.2633   19.2625 O   0  0  0  0  0  0  0  0  0  0  0  0
    5.2173  -19.4305   21.2844 O   0  0  0  0  0  0  0  0  0  0  0  0
   16.4914  -12.3351   17.2522 N   0  0  0  0  0  0  0  0  0  0  0  0
   17.1295  -13.5453   17.6315 C   0  0  0  0  0  0  0  0  0  0  0  0
   18.3166  -13.7891   17.2372 N   0  0  0  0  0  0  0  0  0  0  0  0
   16.4377  -14.4788   18.4497 N   0  0  0  0  0  0  0  0  0  0  0  0
   15.0562  -14.2186   18.8360 C   0  0  0  0  0  0  0  0  0  0  0  0
   14.5008  -15.3865   19.6126 C   0  0  0  0  0  0  0  0  0  0  0  0
   13.0611  -15.1625   19.9467 C   0  0  0  0  0  0  0  0  0  0  0  0
   12.4875  -16.3517   20.6614 C   0  0  2  0  0  0  0  0  0  0  0  0
   11.0977  -16.0449   21.0658 N   0  0  0  0  0  0  0  0  0  0  0  0
   13.1797  -16.7177   21.9115 C   0  0  0  0  0  0  0  0  0  0  0  0
   14.4845  -17.1976   21.9483 O   0  0  0  0  0  0  0  0  0  0  0  0
   12.6115  -16.6107   23.0208 O   0  0  0  0  0  0  0  0  0  0  0  0
  2  1  1  6
  2  4  1  0
  3  2  1  0
  4  6  1  0
  4  5  1  1
  6  7  2  0
  8  9  1  0
  8  6  1  0
  9 10  1  6
 10 11  1  0
 11 12  1  0
 12 13  2  0
 12 16  1  0
 14 15  2  0
 14  9  1  0
 17 18  1  0
 18 19  2  0
 20 18  1  0
 20 21  1  0
 22 23  1  0
 22 21  1  0
 24 23  1  1
 24 26  1  0
 24 25  1  0
 25 14  1  0
 26 27  1  0
 28 26  2  0
M  END
$$$$
