TER.pdb
     RDKit          3D

 28 27  0  0  1  0  0  0  0  0999 V2000
    9.0072  -12.7762   17.0546 C   0  0  0  0  0  0  0  0  0  0  0  0
    9.0743  -13.8537   18.0813 C   0  0  1  0  0  0  0  0  0  0  0  0
    9.9068  -13.3613   19.1161 O   0  0  0  0  0  0  0  0  0  0  0  0
    7.7565  -14.1791   18.7486 C   0  0  2  0  0  0  0  0  0  0  0  0
    7.2906  -12.8894   19.2927 N   0  0  0  0  0  0  0  0  0  0  0  0
    7.8906  -15.0962   19.9048 C   0  0  0  0  0  0  0  0  0  0  0  0
    7.8665  -14.6275   21.0574 O   0  0  0  0  0  0  0  0  0  0  0  0
    8.0463  -16.4976   19.7769 N   0  0  0  0  0  0  0  0  0  0  0  0
    8.1968  -17.4574   20.8320 C   0  0  1  0  0  0  0  0  0  0  0  0
    8.3538  -18.8560   20.4102 C   0  0  0  0  0  0  0  0  0  0  0  0
    8.3938  -19.8653   21.5208 C   0  0  0  0  0  0  0  0  0  0  0  0
    8.6043  -21.2095   20.9720 C   0  0  0  0  0  0  0  0  0  0  0  0
    7.6420  -21.8948   20.5790 O   0  0  0  0  0  0  0  0  0  0  0  0
    9.3591  -17.0923   21.7464 C   0  0  0  0  0  0  0  0  0  0  0  0
   10.4432  -16.7468   21.2440 O   0  0  0  0  0  0  0  0  0  0  0  0
    9.8678  -21.7941   20.8575 O   0  0  0  0  0  0  0  0  0  0  0  0
    6.5778  -11.3586   26.5650 N   0  0  0  0  0  0  0  0  0  0  0  0
    6.3617  -12.7602   26.4986 C   0  0  0  0  0  0  0  0  0  0  0  0
    5.2384  -13.2480   26.8512 N   0  0  0  0  0  0  0  0  0  0  0  0
    7.4026  -13.6114   26.0388 N   0  0  0  0  0  0  0  0  0  0  0  0
    8.7270  -13.0600   25.7786 C   0  0  0  0  0  0  0  0  0  0  0  0
    9.6688  -14.1496   25.3300 C   0  0  0  0  0  0  0  0  0  0  0  0
    8.9658  -15.1221   24.4385 C   0  0  0  0  0  0  0  0  0  0  0  0
    9.9036  -16.2012   23.9807 C   0  0  2  0  0  0  0  0  0  0  0  0
    9.1572  -17.1604   23.1369 N   0  0  0  0  0  0  0  0  0  0  0  0
   10.4885  -17.0154   25.0629 C   0  0  0  0  0  0  0  0  0  0  0  0
   11.5739  -16.6013   25.8272 O   0  0  0  0  0  0  0  0  0  0  0  0
   10.0238  -18.1411   25.3489 O   0  0  0  0  0  0  0  0  0  0  0  0
  2  1  1  6
  2  4  1  0
  3  2  1  0
  4  6  1  0
  4  5  1  1
  6  7  2  0
  8  9  1  0
  8  6  1  0
  9 10  1  6
 10 11  1  0
 11 12  1  0
 12 13  2  0
 12 16  1  0
 14 15  2  0
 14  9  1  0
 17 18  1  0
 18 19  2  0
 20 18  1  0
 20 21  1  0
 22 23  1  0
 22 21  1  0
 24 23  1  1
 24 26  1  0
 24 25  1  0
 25 14  1  0
 26 27  1  0
 28 26  2  0
M  END
$$$$
