TER.pdb
     RDKit          3D

 28 27  0  0  1  0  0  0  0  0999 V2000
    8.5187  -12.6051   20.7453 C   0  0  0  0  0  0  0  0  0  0  0  0
    7.7218  -13.3248   19.7126 C   0  0  1  0  0  0  0  0  0  0  0  0
    7.7822  -12.5291   18.5422 O   0  0  0  0  0  0  0  0  0  0  0  0
    8.2747  -14.6735   19.3085 C   0  0  2  0  0  0  0  0  0  0  0  0
    7.2960  -15.1968   18.3365 N   0  0  0  0  0  0  0  0  0  0  0  0
    8.3210  -15.6504   20.4217 C   0  0  0  0  0  0  0  0  0  0  0  0
    7.2662  -16.1939   20.7967 O   0  0  0  0  0  0  0  0  0  0  0  0
    9.5124  -16.0108   21.0963 N   0  0  0  0  0  0  0  0  0  0  0  0
    9.6707  -17.0131   22.1100 C   0  0  1  0  0  0  0  0  0  0  0  0
   10.7332  -18.0005   21.8763 C   0  0  0  0  0  0  0  0  0  0  0  0
   12.1149  -17.4365   21.7122 C   0  0  0  0  0  0  0  0  0  0  0  0
   13.0722  -18.5174   21.4523 C   0  0  0  0  0  0  0  0  0  0  0  0
   13.8771  -18.8800   22.3304 O   0  0  0  0  0  0  0  0  0  0  0  0
    9.8869  -16.3816   23.4792 C   0  0  0  0  0  0  0  0  0  0  0  0
   10.7107  -15.4576   23.5999 O   0  0  0  0  0  0  0  0  0  0  0  0
   13.1416  -19.1938   20.2321 O   0  0  0  0  0  0  0  0  0  0  0  0
    7.4948  -11.1743   27.6671 N   0  0  0  0  0  0  0  0  0  0  0  0
    6.5129  -11.2923   26.6485 C   0  0  0  0  0  0  0  0  0  0  0  0
    5.6823  -10.3457   26.4529 N   0  0  0  0  0  0  0  0  0  0  0  0
    6.4630  -12.4685   25.8526 N   0  0  0  0  0  0  0  0  0  0  0  0
    6.7113  -13.7681   26.4649 C   0  0  0  0  0  0  0  0  0  0  0  0
    7.8807  -14.4471   25.7962 C   0  0  0  0  0  0  0  0  0  0  0  0
    8.2188  -15.7256   26.4932 C   0  0  0  0  0  0  0  0  0  0  0  0
    9.4558  -16.3423   25.9072 C   0  0  2  0  0  0  0  0  0  0  0  0
    9.1375  -16.8734   24.5634 N   0  0  0  0  0  0  0  0  0  0  0  0
    9.9912  -17.4933   26.6586 C   0  0  0  0  0  0  0  0  0  0  0  0
   10.2391  -18.7331   26.0797 O   0  0  0  0  0  0  0  0  0  0  0  0
   10.2524  -17.4043   27.8787 O   0  0  0  0  0  0  0  0  0  0  0  0
  2  1  1  1
  2  4  1  0
  3  2  1  0
  4  6  1  0
  4  5  1  6
  6  7  2  0
  8  9  1  0
  8  6  1  0
  9 10  1  6
 10 11  1  0
 11 12  1  0
 12 13  2  0
 12 16  1  0
 14 15  2  0
 14  9  1  0
 17 18  1  0
 18 19  2  0
 20 18  1  0
 20 21  1  0
 22 23  1  0
 22 21  1  0
 24 23  1  1
 24 26  1  0
 24 25  1  0
 25 14  1  0
 26 27  1  0
 28 26  2  0
M  END
$$$$
