TER.pdb
     RDKit          3D

 28 27  0  0  1  0  0  0  0  0999 V2000
    8.1099  -13.1912   21.4126 C   0  0  0  0  0  0  0  0  0  0  0  0
    7.6483  -14.1797   20.3980 C   0  0  1  0  0  0  0  0  0  0  0  0
    7.0412  -13.4278   19.3624 O   0  0  0  0  0  0  0  0  0  0  0  0
    8.7531  -14.9654   19.7271 C   0  0  2  0  0  0  0  0  0  0  0  0
    8.0485  -15.8873   18.8159 N   0  0  0  0  0  0  0  0  0  0  0  0
    9.5268  -15.8140   20.6636 C   0  0  0  0  0  0  0  0  0  0  0  0
    8.9720  -16.7928   21.1956 O   0  0  0  0  0  0  0  0  0  0  0  0
   10.8824  -15.5764   20.9956 N   0  0  0  0  0  0  0  0  0  0  0  0
   11.6902  -16.3026   21.9322 C   0  0  1  0  0  0  0  0  0  0  0  0
   13.0891  -15.8679   22.0459 C   0  0  0  0  0  0  0  0  0  0  0  0
   13.9317  -16.6484   23.0127 C   0  0  0  0  0  0  0  0  0  0  0  0
   15.3102  -16.1466   22.9980 C   0  0  0  0  0  0  0  0  0  0  0  0
   15.5684  -14.9833   23.3591 O   0  0  0  0  0  0  0  0  0  0  0  0
   11.0644  -16.2943   23.3210 C   0  0  0  0  0  0  0  0  0  0  0  0
   10.5230  -15.2551   23.7382 O   0  0  0  0  0  0  0  0  0  0  0  0
   16.3969  -16.9226   22.5877 O   0  0  0  0  0  0  0  0  0  0  0  0
    6.3242  -21.2731   26.4176 N   0  0  0  0  0  0  0  0  0  0  0  0
    6.6452  -20.6449   27.6496 C   0  0  0  0  0  0  0  0  0  0  0  0
    6.8575  -21.3525   28.6881 N   0  0  0  0  0  0  0  0  0  0  0  0
    6.7271  -19.2278   27.7162 N   0  0  0  0  0  0  0  0  0  0  0  0
    7.2223  -18.4764   26.5691 C   0  0  0  0  0  0  0  0  0  0  0  0
    8.4612  -19.1306   26.0099 C   0  0  0  0  0  0  0  0  0  0  0  0
    8.9957  -18.3488   24.8533 C   0  0  0  0  0  0  0  0  0  0  0  0
   10.2206  -17.5772   25.2509 C   0  0  2  0  0  0  0  0  0  0  0  0
   11.1239  -17.4749   24.0835 N   0  0  0  0  0  0  0  0  0  0  0  0
   11.0322  -18.2044   26.3111 C   0  0  0  0  0  0  0  0  0  0  0  0
   10.8724  -17.9195   27.6628 O   0  0  0  0  0  0  0  0  0  0  0  0
   11.9213  -19.0403   26.0361 O   0  0  0  0  0  0  0  0  0  0  0  0
  2  1  1  1
  2  4  1  0
  3  2  1  0
  4  6  1  0
  4  5  1  6
  6  7  2  0
  8  9  1  0
  8  6  1  0
  9 10  1  1
 10 11  1  0
 11 12  1  0
 12 13  2  0
 12 16  1  0
 14 15  2  0
 14  9  1  0
 17 18  1  0
 18 19  2  0
 20 18  1  0
 20 21  1  0
 22 23  1  0
 22 21  1  0
 24 23  1  6
 24 26  1  0
 24 25  1  0
 25 14  1  0
 26 27  1  0
 28 26  2  0
M  END
$$$$
