TER.pdb
     RDKit          3D

 28 27  0  0  1  0  0  0  0  0999 V2000
    7.4429  -13.0194   21.6215 C   0  0  0  0  0  0  0  0  0  0  0  0
    8.3156  -14.1520   22.0401 C   0  0  1  0  0  0  0  0  0  0  0  0
    7.6000  -14.8519   23.0423 O   0  0  0  0  0  0  0  0  0  0  0  0
    8.5937  -15.1734   20.9598 C   0  0  2  0  0  0  0  0  0  0  0  0
    7.2746  -15.7629   20.6616 N   0  0  0  0  0  0  0  0  0  0  0  0
    9.4577  -16.2897   21.4107 C   0  0  0  0  0  0  0  0  0  0  0  0
    8.9296  -17.3204   21.8662 O   0  0  0  0  0  0  0  0  0  0  0  0
   10.8719  -16.2557   21.3536 N   0  0  0  0  0  0  0  0  0  0  0  0
   11.7846  -17.2935   21.7372 C   0  0  1  0  0  0  0  0  0  0  0  0
   13.0593  -17.3296   21.0076 C   0  0  0  0  0  0  0  0  0  0  0  0
   13.9473  -18.5002   21.3156 C   0  0  0  0  0  0  0  0  0  0  0  0
   15.2150  -18.3758   20.5876 C   0  0  0  0  0  0  0  0  0  0  0  0
   15.2484  -17.8758   19.4478 O   0  0  0  0  0  0  0  0  0  0  0  0
   12.0808  -17.2415   23.2305 C   0  0  0  0  0  0  0  0  0  0  0  0
   12.3668  -16.1513   23.7565 O   0  0  0  0  0  0  0  0  0  0  0  0
   16.4377  -18.8000   21.1132 O   0  0  0  0  0  0  0  0  0  0  0  0
   12.4986  -19.3323   30.8340 N   0  0  0  0  0  0  0  0  0  0  0  0
   11.6729  -20.4649   30.6081 C   0  0  0  0  0  0  0  0  0  0  0  0
   11.6003  -21.3846   31.4873 N   0  0  0  0  0  0  0  0  0  0  0  0
   10.9318  -20.5653   29.3998 N   0  0  0  0  0  0  0  0  0  0  0  0
   11.6157  -20.9004   28.1566 C   0  0  0  0  0  0  0  0  0  0  0  0
   12.1651  -19.6537   27.5088 C   0  0  0  0  0  0  0  0  0  0  0  0
   11.6682  -19.5246   26.1048 C   0  0  0  0  0  0  0  0  0  0  0  0
   12.3343  -18.3748   25.4063 C   0  0  2  0  0  0  0  0  0  0  0  0
   12.0176  -18.4411   23.9625 N   0  0  0  0  0  0  0  0  0  0  0  0
   13.8077  -18.3751   25.4770 C   0  0  0  0  0  0  0  0  0  0  0  0
   14.5206  -17.8146   26.5314 O   0  0  0  0  0  0  0  0  0  0  0  0
   14.4988  -18.8913   24.5711 O   0  0  0  0  0  0  0  0  0  0  0  0
  2  1  1  6
  2  4  1  0
  3  2  1  0
  4  6  1  0
  4  5  1  1
  6  7  2  0
  8  9  1  0
  8  6  1  0
  9 10  1  6
 10 11  1  0
 11 12  1  0
 12 13  2  0
 12 16  1  0
 14 15  2  0
 14  9  1  0
 17 18  1  0
 18 19  2  0
 20 18  1  0
 20 21  1  0
 22 23  1  0
 22 21  1  0
 24 23  1  1
 24 26  1  0
 24 25  1  0
 25 14  1  0
 26 27  1  0
 28 26  2  0
M  END
$$$$
