TER.pdb
     RDKit          3D

 28 27  0  0  1  0  0  0  0  0999 V2000
    7.6000  -18.8129   19.6533 C   0  0  0  0  0  0  0  0  0  0  0  0
    8.0706  -18.0957   20.8714 C   0  0  1  0  0  0  0  0  0  0  0  0
    9.3798  -18.5716   21.1283 O   0  0  0  0  0  0  0  0  0  0  0  0
    8.2132  -16.5983   20.7125 C   0  0  2  0  0  0  0  0  0  0  0  0
    9.2563  -16.4348   19.6821 N   0  0  0  0  0  0  0  0  0  0  0  0
    8.7185  -15.9207   21.9295 C   0  0  0  0  0  0  0  0  0  0  0  0
    9.9379  -15.9458   22.1764 O   0  0  0  0  0  0  0  0  0  0  0  0
    7.8849  -15.2334   22.8446 N   0  0  0  0  0  0  0  0  0  0  0  0
    8.2607  -14.6600   24.1043 C   0  0  1  0  0  0  0  0  0  0  0  0
    7.2835  -13.7456   24.7107 C   0  0  0  0  0  0  0  0  0  0  0  0
    7.6900  -13.1443   26.0249 C   0  0  0  0  0  0  0  0  0  0  0  0
    6.6340  -12.2538   26.5191 C   0  0  0  0  0  0  0  0  0  0  0  0
    5.5814  -12.7174   26.9959 O   0  0  0  0  0  0  0  0  0  0  0  0
    8.6092  -15.7412   25.1191 C   0  0  0  0  0  0  0  0  0  0  0  0
    7.8137  -16.6789   25.3064 O   0  0  0  0  0  0  0  0  0  0  0  0
    6.7381  -10.8611   26.4876 O   0  0  0  0  0  0  0  0  0  0  0  0
    9.6466  -20.3609   30.0956 N   0  0  0  0  0  0  0  0  0  0  0  0
   10.9692  -20.5308   29.6082 C   0  0  0  0  0  0  0  0  0  0  0  0
   11.9528  -20.5136   30.4183 N   0  0  0  0  0  0  0  0  0  0  0  0
   11.1872  -20.7187   28.2166 N   0  0  0  0  0  0  0  0  0  0  0  0
   10.6723  -19.7420   27.2646 C   0  0  0  0  0  0  0  0  0  0  0  0
   11.6964  -18.6626   27.0164 C   0  0  0  0  0  0  0  0  0  0  0  0
   11.1685  -17.6431   26.0588 C   0  0  0  0  0  0  0  0  0  0  0  0
   10.1851  -16.7331   26.7362 C   0  0  2  0  0  0  0  0  0  0  0  0
    9.8298  -15.6352   25.8102 N   0  0  0  0  0  0  0  0  0  0  0  0
   10.6923  -16.0641   27.9491 C   0  0  0  0  0  0  0  0  0  0  0  0
   10.7503  -16.6826   29.1933 O   0  0  0  0  0  0  0  0  0  0  0  0
   11.1026  -14.8830   27.9128 O   0  0  0  0  0  0  0  0  0  0  0  0
  2  1  1  6
  2  4  1  0
  3  2  1  0
  4  6  1  0
  4  5  1  6
  6  7  2  0
  8  9  1  0
  8  6  1  0
  9 10  1  1
 10 11  1  0
 11 12  1  0
 12 13  2  0
 12 16  1  0
 14 15  2  0
 14  9  1  0
 17 18  1  0
 18 19  2  0
 20 18  1  0
 20 21  1  0
 22 23  1  0
 22 21  1  0
 24 23  1  6
 24 26  1  0
 24 25  1  0
 25 14  1  0
 26 27  1  0
 28 26  2  0
M  END
$$$$
