HWL.pdb
     RDKit          3D

 33 35  0  0  1  0  0  0  0  0999 V2000
   11.6186  -16.2248   19.1948 N   0  0  0  0  0  0  0  0  0  0  0  0
   11.4140  -17.1573   20.2713 C   0  0  1  0  0  0  0  0  0  0  0  0
   12.7191  -17.7912   20.7209 C   0  0  0  0  0  0  0  0  0  0  0  0
   13.0546  -18.9808   19.9190 C   0  0  0  0  0  0  0  0  0  0  0  0
   12.3471  -19.6321   18.9484 C   0  0  0  0  0  0  0  0  0  0  0  0
   13.0707  -20.6616   18.5156 N   0  0  0  0  0  0  0  0  0  0  0  0
   14.2284  -20.6760   19.1958 C   0  0  0  0  0  0  0  0  0  0  0  0
   14.2236  -19.6425   20.0613 N   0  0  0  0  0  0  0  0  0  0  0  0
   10.8597  -16.4382   21.4401 C   0  0  0  0  0  0  0  0  0  0  0  0
   11.2748  -15.2647   21.6757 O   0  0  0  0  0  0  0  0  0  0  0  0
    9.9033  -17.0314   22.2673 N   0  0  0  0  0  0  0  0  0  0  0  0
    9.3447  -16.2971   23.3778 C   0  0  1  0  0  0  0  0  0  0  0  0
    7.8706  -16.2987   23.3221 C   0  0  0  0  0  0  0  0  0  0  0  0
    7.1200  -15.7080   24.3955 C   0  0  0  0  0  0  0  0  0  0  0  0
    6.2848  -16.2939   25.3051 C   0  0  0  0  0  0  0  0  0  0  0  0
    5.8077  -15.3204   26.1436 N   0  0  0  0  0  0  0  0  0  0  0  0
    6.3298  -14.1402   25.7741 C   0  0  0  0  0  0  0  0  0  0  0  0
    6.1753  -12.8664   26.2830 C   0  0  0  0  0  0  0  0  0  0  0  0
    6.8401  -11.7784   25.7144 C   0  0  0  0  0  0  0  0  0  0  0  0
    7.6586  -11.9951   24.6303 C   0  0  0  0  0  0  0  0  0  0  0  0
    7.7933  -13.2655   24.1472 C   0  0  0  0  0  0  0  0  0  0  0  0
    7.1376  -14.3558   24.7040 C   0  0  0  0  0  0  0  0  0  0  0  0
    9.9380  -16.7779   24.6211 C   0  0  0  0  0  0  0  0  0  0  0  0
   10.7018  -17.7616   24.6173 O   0  0  0  0  0  0  0  0  0  0  0  0
   11.1408  -13.5497   27.2421 C   0  0  0  0  0  0  0  0  0  0  0  0
    9.8287  -14.0814   27.7814 C   0  0  2  0  0  0  0  0  0  0  0  0
    9.1722  -13.1212   28.6915 C   0  0  0  0  0  0  0  0  0  0  0  0
    9.8368  -15.5084   28.1660 C   0  0  0  0  0  0  0  0  0  0  0  0
   10.1769  -16.4970   27.1292 C   0  0  2  0  0  0  0  0  0  0  0  0
    9.6362  -16.1174   25.8239 N   0  0  0  0  0  0  0  0  0  0  0  0
    9.8783  -17.8997   27.3449 C   0  0  0  0  0  0  0  0  0  0  0  0
   10.4499  -18.4925   28.3299 O   0  0  0  0  0  0  0  0  0  0  0  0
    9.0315  -18.7117   26.6146 O   0  0  0  0  0  0  0  0  0  0  0  0
  2  1  1  6
  2  3  1  0
  3  4  1  0
  4  5  2  0
  4  8  1  0
  5  6  1  0
  6  7  1  0
  8  7  2  0
  9 10  2  0
  9  2  1  0
 11  9  1  0
 12 13  1  1
 12 11  1  0
 13 14  1  0
 14 15  2  0
 14 22  1  0
 15 16  1  0
 16 17  1  0
 17 18  2  0
 19 18  1  0
 20 19  2  0
 21 22  2  0
 21 20  1  0
 22 17  1  0
 23 12  1  0
 24 23  2  0
 26 25  1  1
 26 28  1  0
 27 26  1  0
 29 28  1  1
 29 30  1  0
 30 23  1  0
 31 33  1  0
 31 29  1  0
 32 31  2  0
M  END
$$$$
