HWL.pdb
     RDKit          3D

 33 35  0  0  1  0  0  0  0  0999 V2000
   10.7700  -19.0489   19.3521 N   0  0  0  0  0  0  0  0  0  0  0  0
   10.0014  -19.3068   20.5407 C   0  0  1  0  0  0  0  0  0  0  0  0
   10.5870  -20.4503   21.3513 C   0  0  0  0  0  0  0  0  0  0  0  0
   10.0313  -21.7520   20.9421 C   0  0  0  0  0  0  0  0  0  0  0  0
    9.1117  -22.0685   19.9824 C   0  0  0  0  0  0  0  0  0  0  0  0
    8.9298  -23.3868   19.9886 N   0  0  0  0  0  0  0  0  0  0  0  0
    9.7195  -23.9147   20.9377 C   0  0  0  0  0  0  0  0  0  0  0  0
   10.4003  -22.9120   21.5278 N   0  0  0  0  0  0  0  0  0  0  0  0
   10.0273  -18.1075   21.4075 C   0  0  0  0  0  0  0  0  0  0  0  0
   11.0867  -17.4138   21.4417 O   0  0  0  0  0  0  0  0  0  0  0  0
    8.9162  -17.7433   22.1717 N   0  0  0  0  0  0  0  0  0  0  0  0
    8.9722  -16.5856   23.0325 C   0  0  1  0  0  0  0  0  0  0  0  0
    7.7569  -15.7620   22.8873 C   0  0  0  0  0  0  0  0  0  0  0  0
    7.7747  -14.3906   23.3155 C   0  0  0  0  0  0  0  0  0  0  0  0
    8.3424  -13.2967   22.7244 C   0  0  0  0  0  0  0  0  0  0  0  0
    8.0826  -12.2002   23.5046 N   0  0  0  0  0  0  0  0  0  0  0  0
    7.3641  -12.5900   24.5694 C   0  0  0  0  0  0  0  0  0  0  0  0
    6.8506  -11.8861   25.6400 C   0  0  0  0  0  0  0  0  0  0  0  0
    6.1197  -12.5293   26.6405 C   0  0  0  0  0  0  0  0  0  0  0  0
    5.9163  -13.8863   26.5439 C   0  0  0  0  0  0  0  0  0  0  0  0
    6.4356  -14.5581   25.4741 C   0  0  0  0  0  0  0  0  0  0  0  0
    7.1641  -13.9297   24.4725 C   0  0  0  0  0  0  0  0  0  0  0  0
    9.2989  -17.0093   24.3900 C   0  0  0  0  0  0  0  0  0  0  0  0
    9.0650  -18.1749   24.7612 O   0  0  0  0  0  0  0  0  0  0  0  0
    8.7195  -14.4230   27.6481 C   0  0  0  0  0  0  0  0  0  0  0  0
   10.1432  -14.5649   28.1463 C   0  0  2  0  0  0  0  0  0  0  0  0
   10.6244  -13.3366   28.8102 C   0  0  0  0  0  0  0  0  0  0  0  0
   11.0659  -15.2652   27.2285 C   0  0  0  0  0  0  0  0  0  0  0  0
   10.5588  -16.4509   26.5178 C   0  0  2  0  0  0  0  0  0  0  0  0
    9.8802  -16.0851   25.2743 N   0  0  0  0  0  0  0  0  0  0  0  0
    9.7231  -17.4079   27.2170 C   0  0  0  0  0  0  0  0  0  0  0  0
    8.4928  -17.5049   26.8628 O   0  0  0  0  0  0  0  0  0  0  0  0
   10.0819  -18.2613   28.2430 O   0  0  0  0  0  0  0  0  0  0  0  0
  2  1  1  6
  2  3  1  0
  3  4  1  0
  4  5  2  0
  4  8  1  0
  5  6  1  0
  6  7  1  0
  8  7  2  0
  9 10  2  0
  9  2  1  0
 11  9  1  0
 12 13  1  1
 12 11  1  0
 13 14  1  0
 14 15  2  0
 14 22  1  0
 15 16  1  0
 16 17  1  0
 17 18  2  0
 19 18  1  0
 20 19  2  0
 21 22  2  0
 21 20  1  0
 22 17  1  0
 23 12  1  0
 24 23  2  0
 26 25  1  6
 26 28  1  0
 27 26  1  0
 29 28  1  1
 29 30  1  0
 30 23  1  0
 31 33  1  0
 31 29  1  0
 32 31  2  0
M  END
$$$$
