HWL.pdb
     RDKit          3D

 33 35  0  0  1  0  0  0  0  0999 V2000
   10.3048  -18.5890   20.8328 N   0  0  0  0  0  0  0  0  0  0  0  0
   10.8605  -17.2757   20.6409 C   0  0  1  0  0  0  0  0  0  0  0  0
   10.2246  -16.5638   19.4593 C   0  0  0  0  0  0  0  0  0  0  0  0
   10.7291  -17.0782   18.1742 C   0  0  0  0  0  0  0  0  0  0  0  0
   11.8352  -17.8261   17.8840 C   0  0  0  0  0  0  0  0  0  0  0  0
   11.8679  -18.0419   16.5713 N   0  0  0  0  0  0  0  0  0  0  0  0
   10.7995  -17.4429   16.0210 C   0  0  0  0  0  0  0  0  0  0  0  0
   10.0946  -16.8481   17.0041 N   0  0  0  0  0  0  0  0  0  0  0  0
   10.5863  -16.4509   21.8388 C   0  0  0  0  0  0  0  0  0  0  0  0
   10.9842  -15.2482   21.8439 O   0  0  0  0  0  0  0  0  0  0  0  0
    9.9069  -16.9777   22.9397 N   0  0  0  0  0  0  0  0  0  0  0  0
    9.6678  -16.1619   24.1066 C   0  0  1  0  0  0  0  0  0  0  0  0
    8.2917  -16.3461   24.6051 C   0  0  0  0  0  0  0  0  0  0  0  0
    7.3154  -15.3144   24.3889 C   0  0  0  0  0  0  0  0  0  0  0  0
    6.3189  -15.2342   23.4567 C   0  0  0  0  0  0  0  0  0  0  0  0
    5.6360  -14.0623   23.6538 N   0  0  0  0  0  0  0  0  0  0  0  0
    6.1875  -13.4117   24.6904 C   0  0  0  0  0  0  0  0  0  0  0  0
    5.8795  -12.2067   25.2890 C   0  0  0  0  0  0  0  0  0  0  0  0
    6.6148  -11.7350   26.3780 C   0  0  0  0  0  0  0  0  0  0  0  0
    7.6599  -12.4944   26.8505 C   0  0  0  0  0  0  0  0  0  0  0  0
    7.9429  -13.6826   26.2394 C   0  0  0  0  0  0  0  0  0  0  0  0
    7.2189  -14.1627   25.1558 C   0  0  0  0  0  0  0  0  0  0  0  0
   10.7344  -16.3841   25.0771 C   0  0  0  0  0  0  0  0  0  0  0  0
   11.8428  -15.8344   24.9341 O   0  0  0  0  0  0  0  0  0  0  0  0
   10.6928  -13.7778   28.0113 C   0  0  0  0  0  0  0  0  0  0  0  0
   10.6105  -15.2414   28.3939 C   0  0  2  0  0  0  0  0  0  0  0  0
   10.1398  -15.4274   29.7814 C   0  0  0  0  0  0  0  0  0  0  0  0
   11.7322  -16.0806   27.9229 C   0  0  0  0  0  0  0  0  0  0  0  0
   11.4077  -17.3792   27.3094 C   0  0  2  0  0  0  0  0  0  0  0  0
   10.4959  -17.2272   26.1754 N   0  0  0  0  0  0  0  0  0  0  0  0
   10.9145  -18.4639   28.1360 C   0  0  0  0  0  0  0  0  0  0  0  0
    9.7528  -18.9424   27.8713 O   0  0  0  0  0  0  0  0  0  0  0  0
   11.5456  -19.0766   29.2018 O   0  0  0  0  0  0  0  0  0  0  0  0
  2  1  1  1
  2  3  1  0
  3  4  1  0
  4  5  2  0
  4  8  1  0
  5  6  1  0
  6  7  1  0
  8  7  2  0
  9 10  2  0
  9  2  1  0
 11  9  1  0
 12 13  1  1
 12 11  1  0
 13 14  1  0
 14 15  2  0
 14 22  1  0
 15 16  1  0
 16 17  1  0
 17 18  2  0
 19 18  1  0
 20 19  2  0
 21 22  2  0
 21 20  1  0
 22 17  1  0
 23 12  1  0
 24 23  2  0
 26 25  1  1
 26 28  1  0
 27 26  1  0
 29 28  1  1
 29 30  1  0
 30 23  1  0
 31 33  1  0
 31 29  1  0
 32 31  2  0
M  END
$$$$
