HWL.pdb
     RDKit          3D

 33 35  0  0  1  0  0  0  0  0999 V2000
   12.2022  -18.0614   19.8150 N   0  0  0  0  0  0  0  0  0  0  0  0
   11.3637  -18.6672   20.8150 C   0  0  1  0  0  0  0  0  0  0  0  0
   12.0197  -19.8904   21.4323 C   0  0  0  0  0  0  0  0  0  0  0  0
   12.0587  -21.0238   20.4918 C   0  0  0  0  0  0  0  0  0  0  0  0
   11.2191  -22.0917   20.3449 C   0  0  0  0  0  0  0  0  0  0  0  0
   11.6736  -22.8545   19.3537 N   0  0  0  0  0  0  0  0  0  0  0  0
   12.7900  -22.2888   18.8672 C   0  0  0  0  0  0  0  0  0  0  0  0
   13.0314  -21.1607   19.5645 N   0  0  0  0  0  0  0  0  0  0  0  0
   11.1376  -17.7002   21.9123 C   0  0  0  0  0  0  0  0  0  0  0  0
   12.1195  -17.0090   22.3157 O   0  0  0  0  0  0  0  0  0  0  0  0
    9.8767  -17.5479   22.4938 N   0  0  0  0  0  0  0  0  0  0  0  0
    9.6496  -16.5199   23.4817 C   0  0  1  0  0  0  0  0  0  0  0  0
    8.3326  -15.8844   23.2874 C   0  0  0  0  0  0  0  0  0  0  0  0
    8.1297  -14.5282   23.7164 C   0  0  0  0  0  0  0  0  0  0  0  0
    8.5905  -13.3610   23.1747 C   0  0  0  0  0  0  0  0  0  0  0  0
    8.1220  -12.3187   23.9314 N   0  0  0  0  0  0  0  0  0  0  0  0
    7.3784  -12.8142   24.9332 C   0  0  0  0  0  0  0  0  0  0  0  0
    6.6888  -12.1985   25.9582 C   0  0  0  0  0  0  0  0  0  0  0  0
    5.9724  -12.9460   26.8948 C   0  0  0  0  0  0  0  0  0  0  0  0
    5.9631  -14.3168   26.7810 C   0  0  0  0  0  0  0  0  0  0  0  0
    6.6540  -14.8999   25.7572 C   0  0  0  0  0  0  0  0  0  0  0  0
    7.3700  -14.1674   24.8194 C   0  0  0  0  0  0  0  0  0  0  0  0
    9.9075  -17.0631   24.8111 C   0  0  0  0  0  0  0  0  0  0  0  0
   10.0552  -18.2889   24.9746 O   0  0  0  0  0  0  0  0  0  0  0  0
   11.8525  -13.9748   27.1630 C   0  0  0  0  0  0  0  0  0  0  0  0
   10.4550  -14.1322   27.7264 C   0  0  2  0  0  0  0  0  0  0  0  0
   10.0525  -12.9717   28.5464 C   0  0  0  0  0  0  0  0  0  0  0  0
   10.1248  -15.4834   28.2261 C   0  0  0  0  0  0  0  0  0  0  0  0
   10.2341  -16.6096   27.2838 C   0  0  2  0  0  0  0  0  0  0  0  0
    9.9864  -16.1857   25.9056 N   0  0  0  0  0  0  0  0  0  0  0  0
    9.4765  -17.8234   27.5201 C   0  0  0  0  0  0  0  0  0  0  0  0
    9.7571  -18.5144   28.5652 O   0  0  0  0  0  0  0  0  0  0  0  0
    8.4574  -18.3537   26.7522 O   0  0  0  0  0  0  0  0  0  0  0  0
  2  1  1  6
  2  3  1  0
  3  4  1  0
  4  5  2  0
  4  8  1  0
  5  6  1  0
  6  7  1  0
  8  7  2  0
  9 10  2  0
  9  2  1  0
 11  9  1  0
 12 13  1  1
 12 11  1  0
 13 14  1  0
 14 15  2  0
 14 22  1  0
 15 16  1  0
 16 17  1  0
 17 18  2  0
 19 18  1  0
 20 19  2  0
 21 22  2  0
 21 20  1  0
 22 17  1  0
 23 12  1  0
 24 23  2  0
 26 25  1  1
 26 28  1  0
 27 26  1  0
 29 28  1  1
 29 30  1  0
 30 23  1  0
 31 33  1  0
 31 29  1  0
 32 31  2  0
M  END
$$$$
