HWL.pdb
     RDKit          3D

 33 35  0  0  1  0  0  0  0  0999 V2000
    9.4575  -17.1561   18.9854 N   0  0  0  0  0  0  0  0  0  0  0  0
   10.3106  -17.5135   20.0876 C   0  0  1  0  0  0  0  0  0  0  0  0
   11.7648  -17.1786   19.8039 C   0  0  0  0  0  0  0  0  0  0  0  0
   12.3357  -18.0547   18.7659 C   0  0  0  0  0  0  0  0  0  0  0  0
   12.7249  -19.3635   18.8170 C   0  0  0  0  0  0  0  0  0  0  0  0
   13.1829  -19.7161   17.6183 N   0  0  0  0  0  0  0  0  0  0  0  0
   13.0914  -18.6518   16.8046 C   0  0  0  0  0  0  0  0  0  0  0  0
   12.5699  -17.6260   17.5066 N   0  0  0  0  0  0  0  0  0  0  0  0
    9.9149  -16.7349   21.2824 C   0  0  0  0  0  0  0  0  0  0  0  0
    9.9615  -15.4706   21.2180 O   0  0  0  0  0  0  0  0  0  0  0  0
    9.4999  -17.3703   22.4550 N   0  0  0  0  0  0  0  0  0  0  0  0
    9.0941  -16.5916   23.6010 C   0  0  1  0  0  0  0  0  0  0  0  0
    7.7173  -16.9311   24.0077 C   0  0  0  0  0  0  0  0  0  0  0  0
    6.9304  -15.9643   24.7221 C   0  0  0  0  0  0  0  0  0  0  0  0
    5.7835  -16.1328   25.4464 C   0  0  0  0  0  0  0  0  0  0  0  0
    5.4093  -14.9153   25.9528 N   0  0  0  0  0  0  0  0  0  0  0  0
    6.3008  -13.9926   25.5582 C   0  0  0  0  0  0  0  0  0  0  0  0
    6.3847  -12.6350   25.7935 C   0  0  0  0  0  0  0  0  0  0  0  0
    7.4301  -11.8759   25.2645 C   0  0  0  0  0  0  0  0  0  0  0  0
    8.3842  -12.5049   24.4989 C   0  0  0  0  0  0  0  0  0  0  0  0
    8.2769  -13.8492   24.2820 C   0  0  0  0  0  0  0  0  0  0  0  0
    7.2420  -14.6152   24.8026 C   0  0  0  0  0  0  0  0  0  0  0  0
   10.1122  -16.6970   24.6408 C   0  0  0  0  0  0  0  0  0  0  0  0
   11.2147  -17.2211   24.3942 O   0  0  0  0  0  0  0  0  0  0  0  0
   11.0069  -13.4133   27.3845 C   0  0  0  0  0  0  0  0  0  0  0  0
    9.9153  -14.2148   28.0637 C   0  0  2  0  0  0  0  0  0  0  0  0
    9.2985  -13.4758   29.1838 C   0  0  0  0  0  0  0  0  0  0  0  0
   10.2144  -15.6490   28.2590 C   0  0  0  0  0  0  0  0  0  0  0  0
   10.6852  -16.4170   27.0943 C   0  0  2  0  0  0  0  0  0  0  0  0
    9.8330  -16.2003   25.9251 N   0  0  0  0  0  0  0  0  0  0  0  0
   10.9192  -17.8429   27.2177 C   0  0  0  0  0  0  0  0  0  0  0  0
   10.0169  -18.6416   26.7746 O   0  0  0  0  0  0  0  0  0  0  0  0
   12.0181  -18.4813   27.7604 O   0  0  0  0  0  0  0  0  0  0  0  0
  2  1  1  6
  2  3  1  0
  3  4  1  0
  4  5  2  0
  4  8  1  0
  5  6  1  0
  6  7  1  0
  8  7  2  0
  9 10  2  0
  9  2  1  0
 11  9  1  0
 12 13  1  1
 12 11  1  0
 13 14  1  0
 14 15  2  0
 14 22  1  0
 15 16  1  0
 16 17  1  0
 17 18  2  0
 19 18  1  0
 20 19  2  0
 21 22  2  0
 21 20  1  0
 22 17  1  0
 23 12  1  0
 24 23  2  0
 26 25  1  1
 26 28  1  0
 27 26  1  0
 29 28  1  1
 29 30  1  0
 30 23  1  0
 31 33  1  0
 31 29  1  0
 32 31  2  0
M  END
$$$$
