HWL.pdb
     RDKit          3D

 33 35  0  0  1  0  0  0  0  0999 V2000
   11.1340  -18.2571   19.5950 N   0  0  0  0  0  0  0  0  0  0  0  0
   10.5481  -18.6799   20.8393 C   0  0  1  0  0  0  0  0  0  0  0  0
   11.3631  -19.7791   21.4990 C   0  0  0  0  0  0  0  0  0  0  0  0
   11.3429  -21.0236   20.7106 C   0  0  0  0  0  0  0  0  0  0  0  0
   10.7454  -21.3149   19.5169 C   0  0  0  0  0  0  0  0  0  0  0  0
   11.0122  -22.5815   19.2078 N   0  0  0  0  0  0  0  0  0  0  0  0
   11.7705  -23.1013   20.1865 C   0  0  0  0  0  0  0  0  0  0  0  0
   11.9773  -22.1457   21.1145 N   0  0  0  0  0  0  0  0  0  0  0  0
   10.5251  -17.5377   21.7801 C   0  0  0  0  0  0  0  0  0  0  0  0
   11.3814  -16.6166   21.6279 O   0  0  0  0  0  0  0  0  0  0  0  0
    9.5865  -17.4696   22.8123 N   0  0  0  0  0  0  0  0  0  0  0  0
    9.5434  -16.3187   23.6828 C   0  0  1  0  0  0  0  0  0  0  0  0
    8.1520  -15.8904   23.9213 C   0  0  0  0  0  0  0  0  0  0  0  0
    7.7957  -14.5094   23.7476 C   0  0  0  0  0  0  0  0  0  0  0  0
    7.8158  -13.7356   22.6210 C   0  0  0  0  0  0  0  0  0  0  0  0
    7.3752  -12.4804   22.9508 N   0  0  0  0  0  0  0  0  0  0  0  0
    7.0809  -12.4577   24.2604 C   0  0  0  0  0  0  0  0  0  0  0  0
    6.6043  -11.4535   25.0787 C   0  0  0  0  0  0  0  0  0  0  0  0
    6.3708  -11.6808   26.4362 C   0  0  0  0  0  0  0  0  0  0  0  0
    6.6243  -12.9307   26.9517 C   0  0  0  0  0  0  0  0  0  0  0  0
    7.0954  -13.9059   26.1195 C   0  0  0  0  0  0  0  0  0  0  0  0
    7.3315  -13.6923   24.7677 C   0  0  0  0  0  0  0  0  0  0  0  0
   10.3435  -16.5845   24.8736 C   0  0  0  0  0  0  0  0  0  0  0  0
   11.5742  -16.7524   24.7829 O   0  0  0  0  0  0  0  0  0  0  0  0
   11.1568  -13.8403   27.4868 C   0  0  0  0  0  0  0  0  0  0  0  0
    9.8797  -14.4727   28.0008 C   0  0  2  0  0  0  0  0  0  0  0  0
    9.1189  -13.5570   28.8748 C   0  0  0  0  0  0  0  0  0  0  0  0
    9.9976  -15.8873   28.4123 C   0  0  0  0  0  0  0  0  0  0  0  0
   10.4059  -16.8674   27.3921 C   0  0  2  0  0  0  0  0  0  0  0  0
    9.7079  -16.6496   26.1249 N   0  0  0  0  0  0  0  0  0  0  0  0
   10.3531  -18.2852   27.6924 C   0  0  0  0  0  0  0  0  0  0  0  0
   11.0507  -18.7180   28.6795 O   0  0  0  0  0  0  0  0  0  0  0  0
    9.6274  -19.2662   27.0437 O   0  0  0  0  0  0  0  0  0  0  0  0
  2  1  1  6
  2  3  1  0
  3  4  1  0
  4  5  2  0
  4  8  1  0
  5  6  1  0
  6  7  1  0
  8  7  2  0
  9 10  2  0
  9  2  1  0
 11  9  1  0
 12 13  1  1
 12 11  1  0
 13 14  1  0
 14 15  2  0
 14 22  1  0
 15 16  1  0
 16 17  1  0
 17 18  2  0
 19 18  1  0
 20 19  2  0
 21 22  2  0
 21 20  1  0
 22 17  1  0
 23 12  1  0
 24 23  2  0
 26 25  1  1
 26 28  1  0
 27 26  1  0
 29 28  1  1
 29 30  1  0
 30 23  1  0
 31 33  1  0
 31 29  1  0
 32 31  2  0
M  END
$$$$
