HWL.pdb
     RDKit          3D

 33 35  0  0  1  0  0  0  0  0999 V2000
    9.9084  -16.6937   19.7734 N   0  0  0  0  0  0  0  0  0  0  0  0
   10.4268  -17.5370   20.8176 C   0  0  1  0  0  0  0  0  0  0  0  0
   11.9169  -17.7827   20.6535 C   0  0  0  0  0  0  0  0  0  0  0  0
   12.2042  -18.6526   19.4995 C   0  0  0  0  0  0  0  0  0  0  0  0
   12.2759  -18.3705   18.1645 C   0  0  0  0  0  0  0  0  0  0  0  0
   12.5642  -19.4925   17.5096 N   0  0  0  0  0  0  0  0  0  0  0  0
   12.6771  -20.4849   18.4071 C   0  0  0  0  0  0  0  0  0  0  0  0
   12.4566  -19.9727   19.6344 N   0  0  0  0  0  0  0  0  0  0  0  0
   10.2428  -16.8648   22.1233 C   0  0  0  0  0  0  0  0  0  0  0  0
   10.6969  -15.6905   22.2637 O   0  0  0  0  0  0  0  0  0  0  0  0
    9.5867  -17.5022   23.1788 N   0  0  0  0  0  0  0  0  0  0  0  0
    9.3280  -16.7936   24.4098 C   0  0  1  0  0  0  0  0  0  0  0  0
    8.0167  -17.1717   24.9698 C   0  0  0  0  0  0  0  0  0  0  0  0
    6.9412  -16.2191   24.9619 C   0  0  0  0  0  0  0  0  0  0  0  0
    5.6041  -16.4108   24.7524 C   0  0  0  0  0  0  0  0  0  0  0  0
    4.9725  -15.1988   24.8547 N   0  0  0  0  0  0  0  0  0  0  0  0
    5.8899  -14.2566   25.1240 C   0  0  0  0  0  0  0  0  0  0  0  0
    5.7792  -12.8950   25.3218 C   0  0  0  0  0  0  0  0  0  0  0  0
    6.9030  -12.1136   25.5961 C   0  0  0  0  0  0  0  0  0  0  0  0
    8.1334  -12.7246   25.6674 C   0  0  0  0  0  0  0  0  0  0  0  0
    8.2142  -14.0734   25.4675 C   0  0  0  0  0  0  0  0  0  0  0  0
    7.1038  -14.8614   25.1942 C   0  0  0  0  0  0  0  0  0  0  0  0
   10.4721  -16.9445   25.3027 C   0  0  0  0  0  0  0  0  0  0  0  0
   11.5595  -17.3699   24.8694 O   0  0  0  0  0  0  0  0  0  0  0  0
   11.4078  -13.7524   27.9436 C   0  0  0  0  0  0  0  0  0  0  0  0
   10.5481  -14.7073   28.7463 C   0  0  2  0  0  0  0  0  0  0  0  0
    9.9567  -14.0582   29.9338 C   0  0  0  0  0  0  0  0  0  0  0  0
   11.0959  -16.0712   28.9011 C   0  0  0  0  0  0  0  0  0  0  0  0
   11.3510  -16.8515   27.6787 C   0  0  2  0  0  0  0  0  0  0  0  0
   10.3316  -16.6048   26.6587 N   0  0  0  0  0  0  0  0  0  0  0  0
   11.5554  -18.2845   27.7676 C   0  0  0  0  0  0  0  0  0  0  0  0
   12.6120  -18.7062   28.3627 O   0  0  0  0  0  0  0  0  0  0  0  0
   10.7400  -19.2919   27.2880 O   0  0  0  0  0  0  0  0  0  0  0  0
  2  1  1  6
  2  3  1  0
  3  4  1  0
  4  5  2  0
  4  8  1  0
  5  6  1  0
  6  7  1  0
  8  7  2  0
  9 10  2  0
  9  2  1  0
 11  9  1  0
 12 13  1  1
 12 11  1  0
 13 14  1  0
 14 15  2  0
 14 22  1  0
 15 16  1  0
 16 17  1  0
 17 18  2  0
 19 18  1  0
 20 19  2  0
 21 22  2  0
 21 20  1  0
 22 17  1  0
 23 12  1  0
 24 23  2  0
 26 25  1  1
 26 28  1  0
 27 26  1  0
 29 28  1  1
 29 30  1  0
 30 23  1  0
 31 33  1  0
 31 29  1  0
 32 31  2  0
M  END
$$$$
