HWL.pdb
     RDKit          3D

 33 35  0  0  1  0  0  0  0  0999 V2000
    9.5887  -16.9608   19.2817 N   0  0  0  0  0  0  0  0  0  0  0  0
   10.3605  -17.4123   20.4090 C   0  0  1  0  0  0  0  0  0  0  0  0
   11.8524  -17.2661   20.1630 C   0  0  0  0  0  0  0  0  0  0  0  0
   12.3372  -18.2240   19.1539 C   0  0  0  0  0  0  0  0  0  0  0  0
   12.1365  -19.5699   19.0313 C   0  0  0  0  0  0  0  0  0  0  0  0
   12.7844  -19.9978   17.9505 N   0  0  0  0  0  0  0  0  0  0  0  0
   13.3948  -18.9450   17.3831 C   0  0  0  0  0  0  0  0  0  0  0  0
   13.1222  -17.8499   18.1203 N   0  0  0  0  0  0  0  0  0  0  0  0
   10.0350  -16.5787   21.5877 C   0  0  0  0  0  0  0  0  0  0  0  0
   10.1128  -15.3195   21.4730 O   0  0  0  0  0  0  0  0  0  0  0  0
    9.6512  -17.1579   22.7995 N   0  0  0  0  0  0  0  0  0  0  0  0
    9.2474  -16.3266   23.9085 C   0  0  1  0  0  0  0  0  0  0  0  0
    8.0006  -16.8285   24.5164 C   0  0  0  0  0  0  0  0  0  0  0  0
    6.9719  -15.8991   24.8942 C   0  0  0  0  0  0  0  0  0  0  0  0
    5.6703  -16.1287   25.2426 C   0  0  0  0  0  0  0  0  0  0  0  0
    5.0819  -14.9254   25.5330 N   0  0  0  0  0  0  0  0  0  0  0  0
    5.9917  -13.9514   25.3724 C   0  0  0  0  0  0  0  0  0  0  0  0
    5.9129  -12.5831   25.5364 C   0  0  0  0  0  0  0  0  0  0  0  0
    7.0205  -11.7654   25.3055 C   0  0  0  0  0  0  0  0  0  0  0  0
    8.2023  -12.3471   24.9089 C   0  0  0  0  0  0  0  0  0  0  0  0
    8.2523  -13.7033   24.7545 C   0  0  0  0  0  0  0  0  0  0  0  0
    7.1577  -14.5273   24.9812 C   0  0  0  0  0  0  0  0  0  0  0  0
   10.3762  -16.1521   24.8165 C   0  0  0  0  0  0  0  0  0  0  0  0
   11.2502  -15.2968   24.5803 O   0  0  0  0  0  0  0  0  0  0  0  0
   10.2504  -13.4295   27.9982 C   0  0  0  0  0  0  0  0  0  0  0  0
   10.4316  -14.9243   28.1654 C   0  0  2  0  0  0  0  0  0  0  0  0
   10.1165  -15.3722   29.5371 C   0  0  0  0  0  0  0  0  0  0  0  0
   11.6266  -15.4924   27.5068 C   0  0  0  0  0  0  0  0  0  0  0  0
   11.5270  -16.8569   26.9625 C   0  0  2  0  0  0  0  0  0  0  0  0
   10.4657  -16.9620   25.9610 N   0  0  0  0  0  0  0  0  0  0  0  0
   11.4023  -17.9856   27.8646 C   0  0  0  0  0  0  0  0  0  0  0  0
   12.3054  -18.1402   28.7640 O   0  0  0  0  0  0  0  0  0  0  0  0
   10.4098  -18.9467   27.8932 O   0  0  0  0  0  0  0  0  0  0  0  0
  2  1  1  6
  2  3  1  0
  3  4  1  0
  4  5  2  0
  4  8  1  0
  5  6  1  0
  6  7  1  0
  8  7  2  0
  9 10  2  0
  9  2  1  0
 11  9  1  0
 12 13  1  1
 12 11  1  0
 13 14  1  0
 14 15  2  0
 14 22  1  0
 15 16  1  0
 16 17  1  0
 17 18  2  0
 19 18  1  0
 20 19  2  0
 21 22  2  0
 21 20  1  0
 22 17  1  0
 23 12  1  0
 24 23  2  0
 26 25  1  1
 26 28  1  0
 27 26  1  0
 29 28  1  1
 29 30  1  0
 30 23  1  0
 31 33  1  0
 31 29  1  0
 32 31  2  0
M  END
$$$$
