HWL.pdb
     RDKit          3D

 33 35  0  0  1  0  0  0  0  0999 V2000
    9.0522  -17.8942   19.6633 N   0  0  0  0  0  0  0  0  0  0  0  0
    9.3136  -16.4795   19.6399 C   0  0  1  0  0  0  0  0  0  0  0  0
    8.3177  -15.7387   18.7642 C   0  0  0  0  0  0  0  0  0  0  0  0
    8.5167  -16.0379   17.3354 C   0  0  0  0  0  0  0  0  0  0  0  0
    9.3764  -16.8996   16.7148 C   0  0  0  0  0  0  0  0  0  0  0  0
    9.1838  -16.8166   15.4006 N   0  0  0  0  0  0  0  0  0  0  0  0
    8.2145  -15.9152   15.1748 C   0  0  0  0  0  0  0  0  0  0  0  0
    7.8000  -15.4328   16.3633 N   0  0  0  0  0  0  0  0  0  0  0  0
    9.1713  -15.9351   21.0088 C   0  0  0  0  0  0  0  0  0  0  0  0
    9.3835  -14.6992   21.1888 O   0  0  0  0  0  0  0  0  0  0  0  0
    8.8128  -16.7564   22.0802 N   0  0  0  0  0  0  0  0  0  0  0  0
    8.7773  -16.2277   23.4231 C   0  0  1  0  0  0  0  0  0  0  0  0
    7.5789  -16.6985   24.1431 C   0  0  0  0  0  0  0  0  0  0  0  0
    6.8331  -15.7780   24.9560 C   0  0  0  0  0  0  0  0  0  0  0  0
    5.7510  -16.0000   25.7611 C   0  0  0  0  0  0  0  0  0  0  0  0
    5.3952  -14.8119   26.3443 N   0  0  0  0  0  0  0  0  0  0  0  0
    6.2346  -13.8548   25.9185 C   0  0  0  0  0  0  0  0  0  0  0  0
    6.3110  -12.5060   26.2014 C   0  0  0  0  0  0  0  0  0  0  0  0
    7.2963  -11.7037   25.6229 C   0  0  0  0  0  0  0  0  0  0  0  0
    8.1981  -12.2810   24.7595 C   0  0  0  0  0  0  0  0  0  0  0  0
    8.0996  -13.6178   24.4973 C   0  0  0  0  0  0  0  0  0  0  0  0
    7.1243  -14.4264   25.0664 C   0  0  0  0  0  0  0  0  0  0  0  0
   10.0569  -16.4833   24.0760 C   0  0  0  0  0  0  0  0  0  0  0  0
   10.8213  -17.3662   23.6434 O   0  0  0  0  0  0  0  0  0  0  0  0
   10.7832  -12.8056   27.8711 C   0  0  0  0  0  0  0  0  0  0  0  0
   10.8899  -14.3149   27.7943 C   0  0  2  0  0  0  0  0  0  0  0  0
   10.7619  -14.9491   29.1219 C   0  0  0  0  0  0  0  0  0  0  0  0
   11.9288  -14.8280   26.8769 C   0  0  0  0  0  0  0  0  0  0  0  0
   11.5889  -15.9863   26.0337 C   0  0  2  0  0  0  0  0  0  0  0  0
   10.4160  -15.7212   25.2004 N   0  0  0  0  0  0  0  0  0  0  0  0
   11.4201  -17.2935   26.6386 C   0  0  0  0  0  0  0  0  0  0  0  0
   12.4745  -17.9823   26.8879 O   0  0  0  0  0  0  0  0  0  0  0  0
   10.2416  -17.9184   26.9997 O   0  0  0  0  0  0  0  0  0  0  0  0
  2  1  1  1
  2  3  1  0
  3  4  1  0
  4  5  2  0
  4  8  1  0
  5  6  1  0
  6  7  1  0
  8  7  2  0
  9 10  2  0
  9  2  1  0
 11  9  1  0
 12 13  1  1
 12 11  1  0
 13 14  1  0
 14 15  2  0
 14 22  1  0
 15 16  1  0
 16 17  1  0
 17 18  2  0
 19 18  1  0
 20 19  2  0
 21 22  2  0
 21 20  1  0
 22 17  1  0
 23 12  1  0
 24 23  2  0
 26 25  1  1
 26 28  1  0
 27 26  1  0
 29 28  1  1
 29 30  1  0
 30 23  1  0
 31 33  1  0
 31 29  1  0
 32 31  2  0
M  END
$$$$
