HWL.pdb
     RDKit          3D

 33 35  0  0  1  0  0  0  0  0999 V2000
    9.1206  -17.3161   19.8205 N   0  0  0  0  0  0  0  0  0  0  0  0
    9.5270  -15.9429   19.9591 C   0  0  1  0  0  0  0  0  0  0  0  0
    8.6624  -15.0142   19.1238 C   0  0  0  0  0  0  0  0  0  0  0  0
    8.8577  -15.2354   17.6803 C   0  0  0  0  0  0  0  0  0  0  0  0
    9.7157  -16.0621   17.0116 C   0  0  0  0  0  0  0  0  0  0  0  0
    9.5197  -15.9079   15.7044 N   0  0  0  0  0  0  0  0  0  0  0  0
    8.5499  -14.9956   15.5305 C   0  0  0  0  0  0  0  0  0  0  0  0
    8.1385  -14.5784   16.7445 N   0  0  0  0  0  0  0  0  0  0  0  0
    9.3662  -15.5272   21.3704 C   0  0  0  0  0  0  0  0  0  0  0  0
    9.8205  -14.3973   21.7193 O   0  0  0  0  0  0  0  0  0  0  0  0
    8.7312  -16.3540   22.3000 N   0  0  0  0  0  0  0  0  0  0  0  0
    8.6907  -15.9847   23.6951 C   0  0  1  0  0  0  0  0  0  0  0  0
    7.4540  -16.4734   24.3337 C   0  0  0  0  0  0  0  0  0  0  0  0
    6.6342  -15.5611   25.0820 C   0  0  0  0  0  0  0  0  0  0  0  0
    5.4834  -15.7918   25.7826 C   0  0  0  0  0  0  0  0  0  0  0  0
    5.0725  -14.6091   26.3402 N   0  0  0  0  0  0  0  0  0  0  0  0
    5.9448  -13.6470   26.0008 C   0  0  0  0  0  0  0  0  0  0  0  0
    5.9913  -12.3003   26.3002 C   0  0  0  0  0  0  0  0  0  0  0  0
    7.0233  -11.4914   25.8210 C   0  0  0  0  0  0  0  0  0  0  0  0
    8.0021  -12.0599   25.0394 C   0  0  0  0  0  0  0  0  0  0  0  0
    7.9316  -13.3948   24.7586 C   0  0  0  0  0  0  0  0  0  0  0  0
    6.9105  -14.2098   25.2294 C   0  0  0  0  0  0  0  0  0  0  0  0
    9.9405  -16.3809   24.3354 C   0  0  0  0  0  0  0  0  0  0  0  0
   10.9028  -16.7767   23.6511 O   0  0  0  0  0  0  0  0  0  0  0  0
   11.2537  -13.8281   27.5896 C   0  0  0  0  0  0  0  0  0  0  0  0
   10.5242  -15.0272   28.1597 C   0  0  2  0  0  0  0  0  0  0  0  0
   10.0096  -14.7694   29.5199 C   0  0  0  0  0  0  0  0  0  0  0  0
   11.1571  -16.3360   27.8933 C   0  0  0  0  0  0  0  0  0  0  0  0
   11.1851  -16.8143   26.5010 C   0  0  2  0  0  0  0  0  0  0  0  0
   10.0447  -16.3114   25.7348 N   0  0  0  0  0  0  0  0  0  0  0  0
   11.3147  -18.2328   26.2285 C   0  0  0  0  0  0  0  0  0  0  0  0
   12.3999  -18.8181   26.5868 O   0  0  0  0  0  0  0  0  0  0  0  0
   10.3987  -19.0699   25.6204 O   0  0  0  0  0  0  0  0  0  0  0  0
  2  1  1  1
  2  3  1  0
  3  4  1  0
  4  5  2  0
  4  8  1  0
  5  6  1  0
  6  7  1  0
  8  7  2  0
  9 10  2  0
  9  2  1  0
 11  9  1  0
 12 13  1  1
 12 11  1  0
 13 14  1  0
 14 15  2  0
 14 22  1  0
 15 16  1  0
 16 17  1  0
 17 18  2  0
 19 18  1  0
 20 19  2  0
 21 22  2  0
 21 20  1  0
 22 17  1  0
 23 12  1  0
 24 23  2  0
 26 25  1  1
 26 28  1  0
 27 26  1  0
 29 28  1  1
 29 30  1  0
 30 23  1  0
 31 33  1  0
 31 29  1  0
 32 31  2  0
M  END
$$$$
