HWL.pdb
     RDKit          3D

 33 35  0  0  1  0  0  0  0  0999 V2000
   10.3810  -16.7347   19.5697 N   0  0  0  0  0  0  0  0  0  0  0  0
   11.0269  -17.4524   20.6365 C   0  0  1  0  0  0  0  0  0  0  0  0
   12.5386  -17.4396   20.4874 C   0  0  0  0  0  0  0  0  0  0  0  0
   12.9739  -18.1364   19.2644 C   0  0  0  0  0  0  0  0  0  0  0  0
   12.4774  -19.2489   18.6457 C   0  0  0  0  0  0  0  0  0  0  0  0
   13.2131  -19.4960   17.5647 N   0  0  0  0  0  0  0  0  0  0  0  0
   14.1707  -18.5580   17.4856 C   0  0  0  0  0  0  0  0  0  0  0  0
   14.0275  -17.7179   18.5300 N   0  0  0  0  0  0  0  0  0  0  0  0
   10.7160  -16.7940   21.9250 C   0  0  0  0  0  0  0  0  0  0  0  0
   11.2366  -15.6639   22.1632 O   0  0  0  0  0  0  0  0  0  0  0  0
    9.8712  -17.3967   22.8599 N   0  0  0  0  0  0  0  0  0  0  0  0
    9.5158  -16.7022   24.0746 C   0  0  1  0  0  0  0  0  0  0  0  0
    8.0515  -16.5742   24.1990 C   0  0  0  0  0  0  0  0  0  0  0  0
    7.4022  -15.3796   23.7344 C   0  0  0  0  0  0  0  0  0  0  0  0
    6.9208  -15.0719   22.4927 C   0  0  0  0  0  0  0  0  0  0  0  0
    6.3747  -13.8157   22.5400 N   0  0  0  0  0  0  0  0  0  0  0  0
    6.5065  -13.3356   23.7866 C   0  0  0  0  0  0  0  0  0  0  0  0
    6.1277  -12.1362   24.3551 C   0  0  0  0  0  0  0  0  0  0  0  0
    6.3787  -11.8666   25.7017 C   0  0  0  0  0  0  0  0  0  0  0  0
    7.0142  -12.8214   26.4612 C   0  0  0  0  0  0  0  0  0  0  0  0
    7.3780  -13.9993   25.8732 C   0  0  0  0  0  0  0  0  0  0  0  0
    7.1339  -14.2793   24.5351 C   0  0  0  0  0  0  0  0  0  0  0  0
   10.2014  -17.3228   25.2032 C   0  0  0  0  0  0  0  0  0  0  0  0
   10.6514  -18.4803   25.1097 O   0  0  0  0  0  0  0  0  0  0  0  0
   10.8145  -13.5025   28.3885 C   0  0  0  0  0  0  0  0  0  0  0  0
   10.4714  -14.9331   28.7502 C   0  0  2  0  0  0  0  0  0  0  0  0
    9.8048  -15.0293   30.0646 C   0  0  0  0  0  0  0  0  0  0  0  0
   11.5098  -15.9328   28.4235 C   0  0  0  0  0  0  0  0  0  0  0  0
   11.1324  -17.0531   27.5457 C   0  0  2  0  0  0  0  0  0  0  0  0
   10.3471  -16.5983   26.3981 N   0  0  0  0  0  0  0  0  0  0  0  0
   10.4717  -18.2165   28.1053 C   0  0  0  0  0  0  0  0  0  0  0  0
    9.2618  -18.4526   27.7465 O   0  0  0  0  0  0  0  0  0  0  0  0
   10.9838  -19.1391   28.9977 O   0  0  0  0  0  0  0  0  0  0  0  0
  2  1  1  6
  2  3  1  0
  3  4  1  0
  4  5  2  0
  4  8  1  0
  5  6  1  0
  6  7  1  0
  8  7  2  0
  9 10  2  0
  9  2  1  0
 11  9  1  0
 12 13  1  1
 12 11  1  0
 13 14  1  0
 14 15  2  0
 14 22  1  0
 15 16  1  0
 16 17  1  0
 17 18  2  0
 19 18  1  0
 20 19  2  0
 21 22  2  0
 21 20  1  0
 22 17  1  0
 23 12  1  0
 24 23  2  0
 26 25  1  1
 26 28  1  0
 27 26  1  0
 29 28  1  1
 29 30  1  0
 30 23  1  0
 31 33  1  0
 31 29  1  0
 32 31  2  0
M  END
$$$$
