HWL.pdb
     RDKit          3D

 33 35  0  0  1  0  0  0  0  0999 V2000
    9.2448  -17.3956   19.6966 N   0  0  0  0  0  0  0  0  0  0  0  0
    9.1250  -15.9619   19.7178 C   0  0  1  0  0  0  0  0  0  0  0  0
    7.9226  -15.4868   18.9203 C   0  0  0  0  0  0  0  0  0  0  0  0
    8.1586  -15.5762   17.4687 C   0  0  0  0  0  0  0  0  0  0  0  0
    9.2483  -16.0071   16.7661 C   0  0  0  0  0  0  0  0  0  0  0  0
    8.9849  -15.8964   15.4663 N   0  0  0  0  0  0  0  0  0  0  0  0
    7.7440  -15.4016   15.3305 C   0  0  0  0  0  0  0  0  0  0  0  0
    7.2305  -15.2029   16.5610 N   0  0  0  0  0  0  0  0  0  0  0  0
    8.9218  -15.5105   21.1126 C   0  0  0  0  0  0  0  0  0  0  0  0
    8.8839  -14.2652   21.3416 O   0  0  0  0  0  0  0  0  0  0  0  0
    8.7751  -16.4280   22.1556 N   0  0  0  0  0  0  0  0  0  0  0  0
    8.6923  -15.9700   23.5222 C   0  0  1  0  0  0  0  0  0  0  0  0
    7.4758  -16.4861   24.1779 C   0  0  0  0  0  0  0  0  0  0  0  0
    6.7044  -15.6186   25.0246 C   0  0  0  0  0  0  0  0  0  0  0  0
    5.6216  -15.8990   25.8102 C   0  0  0  0  0  0  0  0  0  0  0  0
    5.2361  -14.7457   26.4424 N   0  0  0  0  0  0  0  0  0  0  0  0
    6.0577  -13.7531   26.0661 C   0  0  0  0  0  0  0  0  0  0  0  0
    6.1030  -12.4167   26.4088 C   0  0  0  0  0  0  0  0  0  0  0  0
    7.0749  -11.5689   25.8744 C   0  0  0  0  0  0  0  0  0  0  0  0
    7.9952  -12.0882   24.9938 C   0  0  0  0  0  0  0  0  0  0  0  0
    7.9274  -13.4139   24.6720 C   0  0  0  0  0  0  0  0  0  0  0  0
    6.9657  -14.2673   25.1969 C   0  0  0  0  0  0  0  0  0  0  0  0
    9.9527  -16.2500   24.2019 C   0  0  0  0  0  0  0  0  0  0  0  0
   10.9701  -16.5477   23.5482 O   0  0  0  0  0  0  0  0  0  0  0  0
   11.6206  -13.6365   27.2847 C   0  0  0  0  0  0  0  0  0  0  0  0
   10.7214  -14.6240   28.0000 C   0  0  2  0  0  0  0  0  0  0  0  0
   10.3924  -14.1837   29.3709 C   0  0  0  0  0  0  0  0  0  0  0  0
   11.0552  -16.0483   27.7895 C   0  0  0  0  0  0  0  0  0  0  0  0
   11.1807  -16.5262   26.4024 C   0  0  2  0  0  0  0  0  0  0  0  0
   10.0043  -16.1806   25.6042 N   0  0  0  0  0  0  0  0  0  0  0  0
   11.5012  -17.9170   26.1454 C   0  0  0  0  0  0  0  0  0  0  0  0
   10.5476  -18.6982   25.7865 O   0  0  0  0  0  0  0  0  0  0  0  0
   12.7333  -18.5366   26.2319 O   0  0  0  0  0  0  0  0  0  0  0  0
  2  1  1  1
  2  3  1  0
  3  4  1  0
  4  5  2  0
  4  8  1  0
  5  6  1  0
  6  7  1  0
  8  7  2  0
  9 10  2  0
  9  2  1  0
 11  9  1  0
 12 13  1  1
 12 11  1  0
 13 14  1  0
 14 15  2  0
 14 22  1  0
 15 16  1  0
 16 17  1  0
 17 18  2  0
 19 18  1  0
 20 19  2  0
 21 22  2  0
 21 20  1  0
 22 17  1  0
 23 12  1  0
 24 23  2  0
 26 25  1  1
 26 28  1  0
 27 26  1  0
 29 28  1  1
 29 30  1  0
 30 23  1  0
 31 33  1  0
 31 29  1  0
 32 31  2  0
M  END
$$$$
