GQL.pdb
     RDKit          3D

 22 21  0  0  1  0  0  0  0  0999 V2000
   19.4192  -15.2723  -18.1818 N   0  0  0  0  0  0  0  0  0  0  0  0
   19.4269  -14.4760  -19.3667 C   0  0  0  0  0  0  0  0  0  0  0  0
   19.5196  -13.0156  -19.0721 C   0  0  0  0  0  0  0  0  0  0  0  0
   19.5058  -12.2189  -20.0450 O   0  0  0  0  0  0  0  0  0  0  0  0
   16.2218   -9.7468  -15.5187 N   0  0  0  0  0  0  0  0  0  0  0  0
   16.5927  -11.0838  -15.2614 C   0  0  0  0  0  0  0  0  0  0  0  0
   15.9023  -11.7367  -14.4472 O   0  0  0  0  0  0  0  0  0  0  0  0
   17.7786  -11.7327  -15.9316 C   0  0  0  0  0  0  0  0  0  0  0  0
   18.3992  -10.7208  -16.8127 C   0  0  0  0  0  0  0  0  0  0  0  0
   19.7002  -11.0645  -17.4545 C   0  0  2  0  0  0  0  0  0  0  0  0
   19.6205  -12.5012  -17.7668 N   0  0  0  0  0  0  0  0  0  0  0  0
   20.8744  -10.8477  -16.5971 C   0  0  0  0  0  0  0  0  0  0  0  0
   21.0011  -11.5634  -15.5600 O   0  0  0  0  0  0  0  0  0  0  0  0
   26.7543   -9.5556  -16.1128 C   0  0  0  0  0  0  0  0  0  0  0  0
   25.4340   -9.6201  -15.3976 C   0  0  2  0  0  0  0  0  0  0  0  0
   25.5380  -10.6747  -14.2872 C   0  0  0  0  0  0  0  0  0  0  0  0
   24.3308   -9.9540  -16.3273 C   0  0  0  0  0  0  0  0  0  0  0  0
   22.9405   -9.6728  -15.8903 C   0  0  2  0  0  0  0  0  0  0  0  0
   21.9021   -9.8948  -16.8282 N   0  0  0  0  0  0  0  0  0  0  0  0
   22.7854   -8.3466  -15.2436 C   0  0  0  0  0  0  0  0  0  0  0  0
   22.5998   -8.3073  -14.0089 O   0  0  0  0  0  0  0  0  0  0  0  0
   22.8362   -7.1532  -15.9399 O   0  0  0  0  0  0  0  0  0  0  0  0
  1  2  1  0
  2  3  1  0
  3  4  2  0
  5  6  1  0
  6  8  1  0
  7  6  2  0
  8  9  1  0
 10  9  1  1
 11  3  1  0
 11 10  1  0
 12 19  1  0
 12 10  1  0
 13 12  2  0
 15 14  1  6
 15 17  1  0
 15 16  1  0
 18 17  1  6
 18 20  1  0
 18 19  1  0
 20 22  1  0
 21 20  2  0
M  END
$$$$
