GQL.pdb
     RDKit          3D

 22 21  0  0  1  0  0  0  0  0999 V2000
   12.0849  -13.2121  -11.3772 N   0  0  0  0  0  0  0  0  0  0  0  0
   12.2796  -11.9928  -12.0938 C   0  0  0  0  0  0  0  0  0  0  0  0
   13.6031  -11.3661  -11.8045 C   0  0  0  0  0  0  0  0  0  0  0  0
   14.0111  -11.3798  -10.6150 O   0  0  0  0  0  0  0  0  0  0  0  0
   18.1412  -11.4307  -15.5237 N   0  0  0  0  0  0  0  0  0  0  0  0
   18.6444  -10.3328  -14.7939 C   0  0  0  0  0  0  0  0  0  0  0  0
   19.8473  -10.0264  -14.9519 O   0  0  0  0  0  0  0  0  0  0  0  0
   17.7837   -9.5347  -13.8459 C   0  0  0  0  0  0  0  0  0  0  0  0
   16.4545  -10.1804  -13.8026 C   0  0  0  0  0  0  0  0  0  0  0  0
   15.6899  -10.1082  -12.5248 C   0  0  2  0  0  0  0  0  0  0  0  0
   14.4020  -10.7684  -12.7959 N   0  0  0  0  0  0  0  0  0  0  0  0
   15.4138   -8.7411  -12.0606 C   0  0  0  0  0  0  0  0  0  0  0  0
   14.4669   -8.1012  -12.6066 O   0  0  0  0  0  0  0  0  0  0  0  0
   13.3131   -6.6893   -8.7967 C   0  0  0  0  0  0  0  0  0  0  0  0
   14.7016   -7.1136   -8.4084 C   0  0  2  0  0  0  0  0  0  0  0  0
   14.8988   -6.8116   -6.9164 C   0  0  0  0  0  0  0  0  0  0  0  0
   15.7268   -6.4160   -9.2179 C   0  0  0  0  0  0  0  0  0  0  0  0
   15.8021   -6.7269  -10.6672 C   0  0  2  0  0  0  0  0  0  0  0  0
   16.1203   -8.0575  -11.0354 N   0  0  0  0  0  0  0  0  0  0  0  0
   16.6286   -5.7615  -11.4326 C   0  0  0  0  0  0  0  0  0  0  0  0
   17.6205   -6.1941  -12.0564 O   0  0  0  0  0  0  0  0  0  0  0  0
   16.3549   -4.4074  -11.4891 O   0  0  0  0  0  0  0  0  0  0  0  0
  1  2  1  0
  2  3  1  0
  3  4  2  0
  5  6  1  0
  6  8  1  0
  7  6  2  0
  8  9  1  0
 10  9  1  6
 11  3  1  0
 11 10  1  0
 12 19  1  0
 12 10  1  0
 13 12  2  0
 15 14  1  6
 15 17  1  0
 15 16  1  0
 18 17  1  1
 18 20  1  0
 18 19  1  0
 20 22  1  0
 21 20  2  0
M  END
$$$$
