GQL.pdb
     RDKit          3D

 22 21  0  0  1  0  0  0  0  0999 V2000
   28.8263  -21.4434  -15.7256 N   0  0  0  0  0  0  0  0  0  0  0  0
   27.5508  -21.7914  -15.1869 C   0  0  0  0  0  0  0  0  0  0  0  0
   27.1857  -20.9599  -14.0022 C   0  0  0  0  0  0  0  0  0  0  0  0
   27.7229  -19.8282  -13.8919 O   0  0  0  0  0  0  0  0  0  0  0  0
   21.4961  -20.5289  -12.9814 N   0  0  0  0  0  0  0  0  0  0  0  0
   22.3142  -19.8347  -13.8980 C   0  0  0  0  0  0  0  0  0  0  0  0
   21.7602  -19.2768  -14.8715 O   0  0  0  0  0  0  0  0  0  0  0  0
   23.8119  -19.7503  -13.7356 C   0  0  0  0  0  0  0  0  0  0  0  0
   24.1650  -20.4700  -12.4935 C   0  0  0  0  0  0  0  0  0  0  0  0
   25.5970  -20.4765  -12.0791 C   0  0  2  0  0  0  0  0  0  0  0  0
   26.2767  -21.3857  -13.0169 N   0  0  0  0  0  0  0  0  0  0  0  0
   25.8303  -20.9698  -10.7142 C   0  0  0  0  0  0  0  0  0  0  0  0
   25.8192  -22.2210  -10.5178 O   0  0  0  0  0  0  0  0  0  0  0  0
   29.1134  -20.6912   -7.4057 C   0  0  0  0  0  0  0  0  0  0  0  0
   28.1675  -19.5254   -7.4761 C   0  0  2  0  0  0  0  0  0  0  0  0
   28.6226  -18.4727   -6.4559 C   0  0  0  0  0  0  0  0  0  0  0  0
   26.7732  -19.9427   -7.2028 C   0  0  0  0  0  0  0  0  0  0  0  0
   26.0489  -20.6916   -8.2599 C   0  0  2  0  0  0  0  0  0  0  0  0
   26.0750  -20.1604   -9.5730 N   0  0  0  0  0  0  0  0  0  0  0  0
   24.6652  -21.0618   -7.8736 C   0  0  0  0  0  0  0  0  0  0  0  0
   23.7192  -20.6111   -8.5536 O   0  0  0  0  0  0  0  0  0  0  0  0
   24.3716  -21.8806   -6.7989 O   0  0  0  0  0  0  0  0  0  0  0  0
  1  2  1  0
  2  3  1  0
  3  4  2  0
  5  6  1  0
  6  8  1  0
  7  6  2  0
  8  9  1  0
 10  9  1  6
 11  3  1  0
 11 10  1  0
 12 19  1  0
 12 10  1  0
 13 12  2  0
 15 14  1  1
 15 17  1  0
 15 16  1  0
 18 17  1  1
 18 20  1  0
 18 19  1  0
 20 22  1  0
 21 20  2  0
M  END
$$$$
