GQL.pdb
     RDKit          3D

 22 21  0  0  1  0  0  0  0  0999 V2000
   28.4598  -19.0215  -15.8675 N   0  0  0  0  0  0  0  0  0  0  0  0
   27.5069  -19.0904  -14.8067 C   0  0  0  0  0  0  0  0  0  0  0  0
   26.1699  -19.5650  -15.2709 C   0  0  0  0  0  0  0  0  0  0  0  0
   25.8137  -19.2643  -16.4389 O   0  0  0  0  0  0  0  0  0  0  0  0
   23.6490  -24.9153  -13.8921 N   0  0  0  0  0  0  0  0  0  0  0  0
   24.5481  -24.6360  -14.9433 C   0  0  0  0  0  0  0  0  0  0  0  0
   25.1183  -25.6018  -15.4983 O   0  0  0  0  0  0  0  0  0  0  0  0
   24.8330  -23.2282  -15.4053 C   0  0  0  0  0  0  0  0  0  0  0  0
   24.0353  -22.3138  -14.5608 C   0  0  0  0  0  0  0  0  0  0  0  0
   24.0164  -20.8693  -14.9289 C   0  0  2  0  0  0  0  0  0  0  0  0
   25.3035  -20.3253  -14.4648 N   0  0  0  0  0  0  0  0  0  0  0  0
   22.9384  -20.0968  -14.2948 C   0  0  0  0  0  0  0  0  0  0  0  0
   23.0058  -19.8834  -13.0482 O   0  0  0  0  0  0  0  0  0  0  0  0
   18.5277  -15.9621  -15.3107 C   0  0  0  0  0  0  0  0  0  0  0  0
   19.3370  -16.7174  -14.2942 C   0  0  2  0  0  0  0  0  0  0  0  0
   19.9234  -15.7077  -13.2977 C   0  0  0  0  0  0  0  0  0  0  0  0
   20.4185  -17.4992  -14.9361 C   0  0  0  0  0  0  0  0  0  0  0  0
   20.8495  -18.7607  -14.2836 C   0  0  2  0  0  0  0  0  0  0  0  0
   21.8079  -19.5538  -14.9616 N   0  0  0  0  0  0  0  0  0  0  0  0
   19.7166  -19.5965  -13.8159 C   0  0  0  0  0  0  0  0  0  0  0  0
   19.3327  -20.5360  -14.5441 O   0  0  0  0  0  0  0  0  0  0  0  0
   19.0654  -19.3867  -12.6144 O   0  0  0  0  0  0  0  0  0  0  0  0
  1  2  1  0
  2  3  1  0
  3  4  2  0
  5  6  1  0
  6  8  1  0
  7  6  2  0
  8  9  1  0
 10  9  1  1
 11  3  1  0
 11 10  1  0
 12 19  1  0
 12 10  1  0
 13 12  2  0
 15 14  1  6
 15 17  1  0
 15 16  1  0
 18 17  1  6
 18 20  1  0
 18 19  1  0
 20 22  1  0
 21 20  2  0
M  END
$$$$
