GQL.pdb
     RDKit          3D

 22 21  0  0  1  0  0  0  0  0999 V2000
   29.5335  -26.7672  -17.1889 N   0  0  0  0  0  0  0  0  0  0  0  0
   28.6640  -26.2898  -16.1622 C   0  0  0  0  0  0  0  0  0  0  0  0
   27.6811  -25.2865  -16.6678 C   0  0  0  0  0  0  0  0  0  0  0  0
   27.4940  -25.2230  -17.9097 O   0  0  0  0  0  0  0  0  0  0  0  0
   22.5395  -26.4357  -16.1064 N   0  0  0  0  0  0  0  0  0  0  0  0
   23.0096  -25.9936  -14.8515 C   0  0  0  0  0  0  0  0  0  0  0  0
   22.4251  -26.4112  -13.8269 O   0  0  0  0  0  0  0  0  0  0  0  0
   24.1776  -25.0478  -14.7177 C   0  0  0  0  0  0  0  0  0  0  0  0
   24.6377  -24.7147  -16.0827 C   0  0  0  0  0  0  0  0  0  0  0  0
   25.7353  -23.7153  -16.2198 C   0  0  2  0  0  0  0  0  0  0  0  0
   26.9652  -24.4203  -15.8219 N   0  0  0  0  0  0  0  0  0  0  0  0
   25.5881  -22.5323  -15.3597 C   0  0  0  0  0  0  0  0  0  0  0  0
   26.1086  -22.5606  -14.2054 O   0  0  0  0  0  0  0  0  0  0  0  0
   27.7641  -19.1747  -14.3535 C   0  0  0  0  0  0  0  0  0  0  0  0
   26.9557  -18.9813  -15.6056 C   0  0  2  0  0  0  0  0  0  0  0  0
   27.3903  -17.6634  -16.2615 C   0  0  0  0  0  0  0  0  0  0  0  0
   25.5039  -18.9609  -15.3146 C   0  0  0  0  0  0  0  0  0  0  0  0
   24.8692  -20.2164  -14.8414 C   0  0  2  0  0  0  0  0  0  0  0  0
   24.9067  -21.3359  -15.7088 N   0  0  0  0  0  0  0  0  0  0  0  0
   23.5003  -20.0164  -14.3056 C   0  0  0  0  0  0  0  0  0  0  0  0
   22.5717  -20.7044  -14.7798 O   0  0  0  0  0  0  0  0  0  0  0  0
   23.2022  -19.1066  -13.3081 O   0  0  0  0  0  0  0  0  0  0  0  0
  1  2  1  0
  2  3  1  0
  3  4  2  0
  5  6  1  0
  6  8  1  0
  7  6  2  0
  8  9  1  0
 10  9  1  1
 11  3  1  0
 11 10  1  0
 12 19  1  0
 12 10  1  0
 13 12  2  0
 15 14  1  1
 15 17  1  0
 15 16  1  0
 18 17  1  6
 18 20  1  0
 18 19  1  0
 20 22  1  0
 21 20  2  0
M  END
$$$$
