GQL.pdb
     RDKit          3D

 22 21  0  0  1  0  0  0  0  0999 V2000
   13.9614  -12.7514  -11.6864 N   0  0  0  0  0  0  0  0  0  0  0  0
   14.8837  -11.9294  -12.4019 C   0  0  0  0  0  0  0  0  0  0  0  0
   15.6834  -11.0499  -11.4990 C   0  0  0  0  0  0  0  0  0  0  0  0
   15.4664  -11.1263  -10.2627 O   0  0  0  0  0  0  0  0  0  0  0  0
   20.4893   -7.9384  -13.6287 N   0  0  0  0  0  0  0  0  0  0  0  0
   20.5234   -7.4243  -12.3150 C   0  0  0  0  0  0  0  0  0  0  0  0
   21.4674   -6.6620  -12.0088 O   0  0  0  0  0  0  0  0  0  0  0  0
   19.4696   -7.7649  -11.2903 C   0  0  0  0  0  0  0  0  0  0  0  0
   18.5730   -8.7735  -11.8941 C   0  0  0  0  0  0  0  0  0  0  0  0
   17.3788   -9.1980  -11.1091 C   0  0  2  0  0  0  0  0  0  0  0  0
   16.6575  -10.1508  -11.9694 N   0  0  0  0  0  0  0  0  0  0  0  0
   16.4586   -8.1039  -10.7672 C   0  0  0  0  0  0  0  0  0  0  0  0
   15.6266   -7.7231  -11.6429 O   0  0  0  0  0  0  0  0  0  0  0  0
   13.7461   -5.0717   -6.1097 C   0  0  0  0  0  0  0  0  0  0  0  0
   13.8892   -5.2985   -7.5885 C   0  0  2  0  0  0  0  0  0  0  0  0
   12.5181   -5.7000   -8.1498 C   0  0  0  0  0  0  0  0  0  0  0  0
   14.8950   -6.3454   -7.8804 C   0  0  0  0  0  0  0  0  0  0  0  0
   15.4484   -6.4175   -9.2557 C   0  0  2  0  0  0  0  0  0  0  0  0
   16.4111   -7.4222   -9.5220 N   0  0  0  0  0  0  0  0  0  0  0  0
   15.9063   -5.1049   -9.7738 C   0  0  0  0  0  0  0  0  0  0  0  0
   17.1141   -4.8091   -9.6544 O   0  0  0  0  0  0  0  0  0  0  0  0
   15.0626   -4.1937  -10.3817 O   0  0  0  0  0  0  0  0  0  0  0  0
  1  2  1  0
  2  3  1  0
  3  4  2  0
  5  6  1  0
  6  8  1  0
  7  6  2  0
  8  9  1  0
 10  9  1  6
 11  3  1  0
 11 10  1  0
 12 19  1  0
 12 10  1  0
 13 12  2  0
 15 14  1  1
 15 17  1  0
 15 16  1  0
 18 17  1  1
 18 20  1  0
 18 19  1  0
 20 22  1  0
 21 20  2  0
M  END
$$$$
