GQL.pdb
     RDKit          3D

 22 21  0  0  1  0  0  0  0  0999 V2000
   25.1868  -32.4375   -8.9472 N   0  0  0  0  0  0  0  0  0  0  0  0
   25.9197  -33.4839   -8.3100 C   0  0  0  0  0  0  0  0  0  0  0  0
   26.4568  -33.0753   -6.9786 C   0  0  0  0  0  0  0  0  0  0  0  0
   26.0741  -31.9754   -6.5042 O   0  0  0  0  0  0  0  0  0  0  0  0
   22.9377  -33.6845   -4.7766 N   0  0  0  0  0  0  0  0  0  0  0  0
   24.1487  -33.6422   -4.0534 C   0  0  0  0  0  0  0  0  0  0  0  0
   24.1638  -33.0108   -2.9731 O   0  0  0  0  0  0  0  0  0  0  0  0
   25.4016  -34.3266   -4.5417 C   0  0  0  0  0  0  0  0  0  0  0  0
   26.5554  -33.5461   -4.0468 C   0  0  0  0  0  0  0  0  0  0  0  0
   27.7971  -33.5454   -4.8718 C   0  0  2  0  0  0  0  0  0  0  0  0
   27.3622  -33.8610   -6.2427 N   0  0  0  0  0  0  0  0  0  0  0  0
   28.7940  -34.5469   -4.4667 C   0  0  0  0  0  0  0  0  0  0  0  0
   28.6393  -35.7411   -4.8594 O   0  0  0  0  0  0  0  0  0  0  0  0
   32.6866  -35.1631   -5.9151 C   0  0  0  0  0  0  0  0  0  0  0  0
   32.7814  -34.2626   -4.7155 C   0  0  2  0  0  0  0  0  0  0  0  0
   34.2403  -33.8093   -4.5669 C   0  0  0  0  0  0  0  0  0  0  0  0
   32.3246  -34.9496   -3.4858 C   0  0  0  0  0  0  0  0  0  0  0  0
   30.8884  -35.3084   -3.3792 C   0  0  2  0  0  0  0  0  0  0  0  0
   29.9383  -34.2966   -3.6634 N   0  0  0  0  0  0  0  0  0  0  0  0
   30.5491  -36.0025   -2.1128 C   0  0  0  0  0  0  0  0  0  0  0  0
   29.5133  -35.6567   -1.5062 O   0  0  0  0  0  0  0  0  0  0  0  0
   31.3225  -37.0126   -1.5713 O   0  0  0  0  0  0  0  0  0  0  0  0
  1  2  1  0
  2  3  1  0
  3  4  2  0
  5  6  1  0
  6  8  1  0
  7  6  2  0
  8  9  1  0
 10  9  1  1
 11  3  1  0
 11 10  1  0
 12 19  1  0
 12 10  1  0
 13 12  2  0
 15 14  1  6
 15 17  1  0
 15 16  1  0
 18 17  1  1
 18 20  1  0
 18 19  1  0
 20 22  1  0
 21 20  2  0
M  END
$$$$
