GQL.pdb
     RDKit          3D

 22 21  0  0  1  0  0  0  0  0999 V2000
   18.0022  -25.7012   -5.0672 N   0  0  0  0  0  0  0  0  0  0  0  0
   17.6219  -24.5764   -5.8599 C   0  0  0  0  0  0  0  0  0  0  0  0
   18.5119  -24.3852   -7.0429 C   0  0  0  0  0  0  0  0  0  0  0  0
   19.7490  -24.5392   -6.8772 O   0  0  0  0  0  0  0  0  0  0  0  0
   16.6043  -25.9266  -12.4239 N   0  0  0  0  0  0  0  0  0  0  0  0
   17.7343  -25.2319  -12.9052 C   0  0  0  0  0  0  0  0  0  0  0  0
   17.9668  -25.2718  -14.1341 O   0  0  0  0  0  0  0  0  0  0  0  0
   18.6515  -24.4569  -11.9915 C   0  0  0  0  0  0  0  0  0  0  0  0
   18.0963  -24.5474  -10.6243 C   0  0  0  0  0  0  0  0  0  0  0  0
   18.8795  -23.9311   -9.5157 C   0  0  2  0  0  0  0  0  0  0  0  0
   18.0289  -24.0441   -8.3191 N   0  0  0  0  0  0  0  0  0  0  0  0
   19.1990  -22.5104   -9.7167 C   0  0  0  0  0  0  0  0  0  0  0  0
   18.2890  -21.6548   -9.5070 O   0  0  0  0  0  0  0  0  0  0  0  0
   24.3393  -20.4648   -9.1749 C   0  0  0  0  0  0  0  0  0  0  0  0
   23.1946  -20.9216  -10.0350 C   0  0  2  0  0  0  0  0  0  0  0  0
   23.6461  -20.8787  -11.5014 C   0  0  0  0  0  0  0  0  0  0  0  0
   21.9969  -20.0736   -9.8368 C   0  0  0  0  0  0  0  0  0  0  0  0
   20.6839  -20.6058  -10.2792 C   0  0  2  0  0  0  0  0  0  0  0  0
   20.4572  -21.9962  -10.1291 N   0  0  0  0  0  0  0  0  0  0  0  0
   20.2969  -20.1574  -11.6393 C   0  0  0  0  0  0  0  0  0  0  0  0
   20.2251  -21.0122  -12.5474 O   0  0  0  0  0  0  0  0  0  0  0  0
   20.0120  -18.8408  -11.9509 O   0  0  0  0  0  0  0  0  0  0  0  0
  1  2  1  0
  2  3  1  0
  3  4  2  0
  5  6  1  0
  6  8  1  0
  7  6  2  0
  8  9  1  0
 10  9  1  6
 11  3  1  0
 11 10  1  0
 12 19  1  0
 12 10  1  0
 13 12  2  0
 15 14  1  1
 15 17  1  0
 15 16  1  0
 18 17  1  6
 18 20  1  0
 18 19  1  0
 20 22  1  0
 21 20  2  0
M  END
$$$$
