GQL.pdb
     RDKit          3D

 22 21  0  0  1  0  0  0  0  0999 V2000
   15.0443  -13.5130  -16.8260 N   0  0  0  0  0  0  0  0  0  0  0  0
   15.6838  -12.5603  -15.9767 C   0  0  0  0  0  0  0  0  0  0  0  0
   16.6175  -11.6665  -16.7235 C   0  0  0  0  0  0  0  0  0  0  0  0
   16.5707  -11.6879  -17.9800 O   0  0  0  0  0  0  0  0  0  0  0  0
   16.4053   -6.6390  -18.5220 N   0  0  0  0  0  0  0  0  0  0  0  0
   15.9557   -7.0176  -17.2391 C   0  0  0  0  0  0  0  0  0  0  0  0
   15.0919   -6.3007  -16.6861 O   0  0  0  0  0  0  0  0  0  0  0  0
   16.4810   -8.2425  -16.5317 C   0  0  0  0  0  0  0  0  0  0  0  0
   17.5046   -8.8548  -17.4053 C   0  0  0  0  0  0  0  0  0  0  0  0
   18.4134   -9.8708  -16.8016 C   0  0  2  0  0  0  0  0  0  0  0  0
   17.5357  -10.8123  -16.0866 N   0  0  0  0  0  0  0  0  0  0  0  0
   19.3784   -9.3233  -15.8373 C   0  0  0  0  0  0  0  0  0  0  0  0
   18.9705   -9.0471  -14.6705 O   0  0  0  0  0  0  0  0  0  0  0  0
   23.0151  -11.0789  -13.9814 C   0  0  0  0  0  0  0  0  0  0  0  0
   23.3761  -10.3528  -15.2468 C   0  0  2  0  0  0  0  0  0  0  0  0
   24.8780  -10.5425  -15.5000 C   0  0  0  0  0  0  0  0  0  0  0  0
   23.0438   -8.9124  -15.1576 C   0  0  0  0  0  0  0  0  0  0  0  0
   21.6110   -8.5285  -15.1075 C   0  0  2  0  0  0  0  0  0  0  0  0
   20.7527   -9.0729  -16.0944 N   0  0  0  0  0  0  0  0  0  0  0  0
   21.3993   -7.0657  -14.9805 C   0  0  0  0  0  0  0  0  0  0  0  0
   21.9604   -6.4649  -14.0399 O   0  0  0  0  0  0  0  0  0  0  0  0
   20.6122   -6.3353  -15.8515 O   0  0  0  0  0  0  0  0  0  0  0  0
  1  2  1  0
  2  3  1  0
  3  4  2  0
  5  6  1  0
  6  8  1  0
  7  6  2  0
  8  9  1  0
 10  9  1  1
 11  3  1  0
 11 10  1  0
 12 19  1  0
 12 10  1  0
 13 12  2  0
 15 14  1  1
 15 17  1  0
 15 16  1  0
 18 17  1  6
 18 20  1  0
 18 19  1  0
 20 22  1  0
 21 20  2  0
M  END
$$$$
