GQL.pdb
     RDKit          3D

 22 21  0  0  1  0  0  0  0  0999 V2000
   32.8162  -24.9755  -17.3688 N   0  0  0  0  0  0  0  0  0  0  0  0
   31.5542  -25.0187  -18.0349 C   0  0  0  0  0  0  0  0  0  0  0  0
   30.4055  -25.0140  -17.0817 C   0  0  0  0  0  0  0  0  0  0  0  0
   30.5646  -24.4397  -15.9743 O   0  0  0  0  0  0  0  0  0  0  0  0
   26.0643  -21.6725  -16.7918 N   0  0  0  0  0  0  0  0  0  0  0  0
   27.3760  -21.5837  -16.2794 C   0  0  0  0  0  0  0  0  0  0  0  0
   27.6817  -20.5608  -15.6266 O   0  0  0  0  0  0  0  0  0  0  0  0
   28.3994  -22.6712  -16.4954 C   0  0  0  0  0  0  0  0  0  0  0  0
   27.7636  -23.7219  -17.3185 C   0  0  0  0  0  0  0  0  0  0  0  0
   27.8779  -25.1328  -16.8511 C   0  0  2  0  0  0  0  0  0  0  0  0
   29.1682  -25.6183  -17.3685 N   0  0  0  0  0  0  0  0  0  0  0  0
   26.8209  -26.0239  -17.3506 C   0  0  0  0  0  0  0  0  0  0  0  0
   26.7882  -26.2807  -18.5904 O   0  0  0  0  0  0  0  0  0  0  0  0
   22.0392  -28.8581  -16.7507 C   0  0  0  0  0  0  0  0  0  0  0  0
   23.3666  -29.5578  -16.8348 C   0  0  2  0  0  0  0  0  0  0  0  0
   23.2773  -30.8602  -16.0275 C   0  0  0  0  0  0  0  0  0  0  0  0
   24.4618  -28.7039  -16.3208 C   0  0  0  0  0  0  0  0  0  0  0  0
   24.8535  -27.5154  -17.1189 C   0  0  2  0  0  0  0  0  0  0  0  0
   25.8149  -26.6386  -16.5584 N   0  0  0  0  0  0  0  0  0  0  0  0
   23.6943  -26.7527  -17.6437 C   0  0  0  0  0  0  0  0  0  0  0  0
   23.2077  -27.0950  -18.7421 O   0  0  0  0  0  0  0  0  0  0  0  0
   23.1266  -25.6826  -16.9772 O   0  0  0  0  0  0  0  0  0  0  0  0
  1  2  1  0
  2  3  1  0
  3  4  2  0
  5  6  1  0
  6  8  1  0
  7  6  2  0
  8  9  1  0
 10  9  1  6
 11  3  1  0
 11 10  1  0
 12 19  1  0
 12 10  1  0
 13 12  2  0
 15 14  1  1
 15 17  1  0
 15 16  1  0
 18 17  1  1
 18 20  1  0
 18 19  1  0
 20 22  1  0
 21 20  2  0
M  END
$$$$
