GQL.pdb
     RDKit          3D

 22 21  0  0  1  0  0  0  0  0999 V2000
   12.6931  -12.7024  -11.7223 N   0  0  0  0  0  0  0  0  0  0  0  0
   12.9910  -11.6386  -12.6266 C   0  0  0  0  0  0  0  0  0  0  0  0
   14.1980  -10.8621  -12.2162 C   0  0  0  0  0  0  0  0  0  0  0  0
   14.6314  -11.0262  -11.0471 O   0  0  0  0  0  0  0  0  0  0  0  0
   17.9957   -8.5926  -16.3378 N   0  0  0  0  0  0  0  0  0  0  0  0
   18.6056   -7.9891  -15.2175 C   0  0  0  0  0  0  0  0  0  0  0  0
   19.6659   -7.3504  -15.4012 O   0  0  0  0  0  0  0  0  0  0  0  0
   18.0215   -8.0933  -13.8302 C   0  0  0  0  0  0  0  0  0  0  0  0
   16.7799   -8.8896  -13.9300 C   0  0  0  0  0  0  0  0  0  0  0  0
   16.0236   -9.1550  -12.6730 C   0  0  2  0  0  0  0  0  0  0  0  0
   14.8617   -9.9660  -13.0734 N   0  0  0  0  0  0  0  0  0  0  0  0
   15.5270   -7.9469  -11.9985 C   0  0  0  0  0  0  0  0  0  0  0  0
   14.5010   -7.3741  -12.4710 O   0  0  0  0  0  0  0  0  0  0  0  0
   13.1482   -7.0634   -8.4270 C   0  0  0  0  0  0  0  0  0  0  0  0
   14.6076   -7.2331   -8.1105 C   0  0  2  0  0  0  0  0  0  0  0  0
   14.7795   -7.1826   -6.5861 C   0  0  0  0  0  0  0  0  0  0  0  0
   15.4274   -6.1842   -8.7591 C   0  0  0  0  0  0  0  0  0  0  0  0
   15.5363   -6.1993  -10.2393 C   0  0  2  0  0  0  0  0  0  0  0  0
   16.0984   -7.3515  -10.8424 N   0  0  0  0  0  0  0  0  0  0  0  0
   16.1480   -4.9675  -10.7955 C   0  0  0  0  0  0  0  0  0  0  0  0
   15.6042   -3.8709  -10.5461 O   0  0  0  0  0  0  0  0  0  0  0  0
   17.2895   -4.9738  -11.5756 O   0  0  0  0  0  0  0  0  0  0  0  0
  1  2  1  0
  2  3  1  0
  3  4  2  0
  5  6  1  0
  6  8  1  0
  7  6  2  0
  8  9  1  0
 10  9  1  6
 11  3  1  0
 11 10  1  0
 12 19  1  0
 12 10  1  0
 13 12  2  0
 15 14  1  1
 15 17  1  0
 15 16  1  0
 18 17  1  1
 18 20  1  0
 18 19  1  0
 20 22  1  0
 21 20  2  0
M  END
$$$$
