GQL.pdb
     RDKit          3D

 22 21  0  0  1  0  0  0  0  0999 V2000
   20.1929  -20.2926  -10.6719 N   0  0  0  0  0  0  0  0  0  0  0  0
   21.4010  -19.5412  -10.7901 C   0  0  0  0  0  0  0  0  0  0  0  0
   22.6113  -20.3519  -10.4643 C   0  0  0  0  0  0  0  0  0  0  0  0
   22.4365  -21.4863   -9.9506 O   0  0  0  0  0  0  0  0  0  0  0  0
   26.8806  -20.4675  -14.3527 N   0  0  0  0  0  0  0  0  0  0  0  0
   27.5119  -21.3481  -13.4488 C   0  0  0  0  0  0  0  0  0  0  0  0
   28.5534  -21.9291  -13.8280 O   0  0  0  0  0  0  0  0  0  0  0  0
   26.9722  -21.6014  -12.0628 C   0  0  0  0  0  0  0  0  0  0  0  0
   25.8257  -20.6904  -11.8596 C   0  0  0  0  0  0  0  0  0  0  0  0
   25.1200  -20.7459  -10.5476 C   0  0  2  0  0  0  0  0  0  0  0  0
   23.9225  -19.9038  -10.7058 N   0  0  0  0  0  0  0  0  0  0  0  0
   25.9007  -20.2225   -9.4174 C   0  0  0  0  0  0  0  0  0  0  0  0
   25.9866  -18.9666   -9.2773 O   0  0  0  0  0  0  0  0  0  0  0  0
   28.2592  -18.4798   -5.5546 C   0  0  0  0  0  0  0  0  0  0  0  0
   27.3851  -19.6823   -5.3344 C   0  0  2  0  0  0  0  0  0  0  0  0
   27.5492  -20.1377   -3.8778 C   0  0  0  0  0  0  0  0  0  0  0  0
   27.7334  -20.7819   -6.2631 C   0  0  0  0  0  0  0  0  0  0  0  0
   27.6867  -20.5056   -7.7206 C   0  0  2  0  0  0  0  0  0  0  0  0
   26.5784  -21.0073   -8.4467 N   0  0  0  0  0  0  0  0  0  0  0  0
   28.9561  -20.8237   -8.4194 C   0  0  0  0  0  0  0  0  0  0  0  0
   28.9413  -21.7068   -9.3028 O   0  0  0  0  0  0  0  0  0  0  0  0
   30.1537  -20.1913   -8.1410 O   0  0  0  0  0  0  0  0  0  0  0  0
  1  2  1  0
  2  3  1  0
  3  4  2  0
  5  6  1  0
  6  8  1  0
  7  6  2  0
  8  9  1  0
 10  9  1  6
 11  3  1  0
 11 10  1  0
 12 19  1  0
 12 10  1  0
 13 12  2  0
 15 14  1  6
 15 17  1  0
 15 16  1  0
 18 17  1  1
 18 20  1  0
 18 19  1  0
 20 22  1  0
 21 20  2  0
M  END
$$$$
