GQL.pdb
     RDKit          3D

 22 21  0  0  1  0  0  0  0  0999 V2000
   18.3602  -13.0304  -21.5494 N   0  0  0  0  0  0  0  0  0  0  0  0
   18.1203  -12.0554  -20.5346 C   0  0  0  0  0  0  0  0  0  0  0  0
   19.3055  -11.1810  -20.2919 C   0  0  0  0  0  0  0  0  0  0  0  0
   20.3814  -11.7336  -19.9476 O   0  0  0  0  0  0  0  0  0  0  0  0
   20.7712   -5.0948  -21.6028 N   0  0  0  0  0  0  0  0  0  0  0  0
   20.7546   -6.0939  -22.5992 C   0  0  0  0  0  0  0  0  0  0  0  0
   21.0412   -5.7581  -23.7701 O   0  0  0  0  0  0  0  0  0  0  0  0
   20.4062   -7.5297  -22.2929 C   0  0  0  0  0  0  0  0  0  0  0  0
   20.1074   -7.6154  -20.8476 C   0  0  0  0  0  0  0  0  0  0  0  0
   20.4118   -8.8980  -20.1514 C   0  0  2  0  0  0  0  0  0  0  0  0
   19.2678   -9.7818  -20.4310 N   0  0  0  0  0  0  0  0  0  0  0  0
   20.5504   -8.7774  -18.6930 C   0  0  0  0  0  0  0  0  0  0  0  0
   19.5206   -8.9484  -17.9757 O   0  0  0  0  0  0  0  0  0  0  0  0
   23.9479  -10.3921  -14.0178 C   0  0  0  0  0  0  0  0  0  0  0  0
   22.8018   -9.5346  -14.4760 C   0  0  2  0  0  0  0  0  0  0  0  0
   21.5142  -10.0656  -13.8309 C   0  0  0  0  0  0  0  0  0  0  0  0
   22.6808   -9.5367  -15.9518 C   0  0  0  0  0  0  0  0  0  0  0  0
   21.8242   -8.5021  -16.5833 C   0  0  2  0  0  0  0  0  0  0  0  0
   21.7543   -8.4848  -17.9982 N   0  0  0  0  0  0  0  0  0  0  0  0
   22.0669   -7.1369  -16.0557 C   0  0  0  0  0  0  0  0  0  0  0  0
   22.7139   -6.3348  -16.7617 O   0  0  0  0  0  0  0  0  0  0  0  0
   21.6125   -6.7093  -14.8218 O   0  0  0  0  0  0  0  0  0  0  0  0
  1  2  1  0
  2  3  1  0
  3  4  2  0
  5  6  1  0
  6  8  1  0
  7  6  2  0
  8  9  1  0
 10  9  1  6
 11  3  1  0
 11 10  1  0
 12 19  1  0
 12 10  1  0
 13 12  2  0
 15 14  1  6
 15 17  1  0
 15 16  1  0
 18 17  1  6
 18 20  1  0
 18 19  1  0
 20 22  1  0
 21 20  2  0
M  END
$$$$
