GQL.pdb
     RDKit          3D

 22 21  0  0  1  0  0  0  0  0999 V2000
   24.1161  -23.7827  -13.8736 N   0  0  0  0  0  0  0  0  0  0  0  0
   23.9606  -22.6317  -13.0435 C   0  0  0  0  0  0  0  0  0  0  0  0
   25.2263  -22.2551  -12.3475 C   0  0  0  0  0  0  0  0  0  0  0  0
   26.2615  -22.9176  -12.6136 O   0  0  0  0  0  0  0  0  0  0  0  0
   25.7664  -19.4599  -14.3675 N   0  0  0  0  0  0  0  0  0  0  0  0
   27.1658  -19.5395  -14.2045 C   0  0  0  0  0  0  0  0  0  0  0  0
   27.8654  -19.7147  -15.2272 O   0  0  0  0  0  0  0  0  0  0  0  0
   27.8263  -19.4209  -12.8531 C   0  0  0  0  0  0  0  0  0  0  0  0
   26.7537  -19.3852  -11.8364 C   0  0  0  0  0  0  0  0  0  0  0  0
   26.5715  -20.5905  -10.9781 C   0  0  2  0  0  0  0  0  0  0  0  0
   25.3066  -21.2026  -11.4179 N   0  0  0  0  0  0  0  0  0  0  0  0
   26.4633  -20.3000   -9.5412 C   0  0  0  0  0  0  0  0  0  0  0  0
   25.3204  -20.0285   -9.0678 O   0  0  0  0  0  0  0  0  0  0  0  0
   27.9781  -22.0911   -5.0389 C   0  0  0  0  0  0  0  0  0  0  0  0
   28.9250  -21.4543   -6.0170 C   0  0  2  0  0  0  0  0  0  0  0  0
   30.3319  -21.4655   -5.4032 C   0  0  0  0  0  0  0  0  0  0  0  0
   28.5141  -20.0699   -6.3450 C   0  0  0  0  0  0  0  0  0  0  0  0
   27.3694  -19.8826   -7.2710 C   0  0  2  0  0  0  0  0  0  0  0  0
   27.5399  -20.2981   -8.6147 N   0  0  0  0  0  0  0  0  0  0  0  0
   26.7868  -18.5193   -7.2159 C   0  0  0  0  0  0  0  0  0  0  0  0
   26.8884  -17.7899   -8.2249 O   0  0  0  0  0  0  0  0  0  0  0  0
   26.1375  -18.0170   -6.1034 O   0  0  0  0  0  0  0  0  0  0  0  0
  1  2  1  0
  2  3  1  0
  3  4  2  0
  5  6  1  0
  6  8  1  0
  7  6  2  0
  8  9  1  0
 10  9  1  6
 11  3  1  0
 11 10  1  0
 12 19  1  0
 12 10  1  0
 13 12  2  0
 15 14  1  1
 15 17  1  0
 15 16  1  0
 18 17  1  6
 18 20  1  0
 18 19  1  0
 20 22  1  0
 21 20  2  0
M  END
$$$$
