PLA.pdb
     RDKit          3D

 21 21  0  0  1  0  0  0  0  0999 V2000
    7.1575  -14.9618   20.9822 N   0  0  0  0  0  0  0  0  0  0  0  0
    6.5236  -14.3418   19.8351 C   0  0  0  0  0  0  0  0  0  0  0  0
    7.4950  -13.2957   19.3269 C   0  0  0  0  0  0  0  0  0  0  0  0
    8.2213  -12.9493   20.6233 C   0  0  0  0  0  0  0  0  0  0  0  0
    8.4447  -14.3586   21.1437 C   0  0  1  0  0  0  0  0  0  0  0  0
    8.9304  -14.3680   22.5370 C   0  0  0  0  0  0  0  0  0  0  0  0
   10.1196  -14.0983   22.8439 O   0  0  0  0  0  0  0  0  0  0  0  0
    8.2788  -12.0580   26.3862 C   0  0  0  0  0  0  0  0  0  0  0  0
    7.0610  -12.6740   25.6842 C   0  0  2  0  0  0  0  0  0  0  0  0
    5.8034  -12.2135   26.3872 C   0  0  0  0  0  0  0  0  0  0  0  0
    7.1956  -14.1604   25.7272 C   0  0  0  0  0  0  0  0  0  0  0  0
    8.4107  -14.6804   24.9941 C   0  0  2  0  0  0  0  0  0  0  0  0
    8.0177  -14.6946   23.5689 N   0  0  0  0  0  0  0  0  0  0  0  0
    8.7523  -16.0678   25.3488 C   0  0  0  0  0  0  0  0  0  0  0  0
    7.8390  -16.9490   25.2994 O   0  0  0  0  0  0  0  0  0  0  0  0
   11.6219  -18.3057   25.5335 C   0  0  0  0  0  0  0  0  0  0  0  0
   10.2839  -17.8528   26.0785 C   0  0  2  0  0  0  0  0  0  0  0  0
   10.0510  -16.4728   25.7438 N   0  0  0  0  0  0  0  0  0  0  0  0
   10.3144  -18.0499   27.5543 C   0  0  0  0  0  0  0  0  0  0  0  0
   10.1911  -17.0718   28.3116 O   0  0  0  0  0  0  0  0  0  0  0  0
   10.4821  -19.3389   28.0391 O   0  0  0  0  0  0  0  0  0  0  0  0
  1  2  1  0
  3  2  1  0
  4  5  1  0
  4  3  1  0
  5  1  1  0
  5  6  1  1
  6 13  1  0
  7  6  2  0
  9  8  1  1
  9 10  1  0
  9 11  1  0
 12 11  1  1
 12 13  1  0
 14 12  1  0
 15 14  2  0
 17 16  1  1
 17 18  1  0
 17 19  1  0
 18 14  1  0
 19 21  1  0
 20 19  2  0
M  END
$$$$
