PLA.pdb
     RDKit          3D

 21 21  0  0  1  0  0  0  0  0999 V2000
    7.9212  -16.7519   21.3578 N   0  0  0  0  0  0  0  0  0  0  0  0
    7.0736  -16.8024   20.1826 C   0  0  0  0  0  0  0  0  0  0  0  0
    7.1413  -15.4267   19.5506 C   0  0  0  0  0  0  0  0  0  0  0  0
    7.4228  -14.5759   20.7854 C   0  0  0  0  0  0  0  0  0  0  0  0
    8.4957  -15.4431   21.4209 C   0  0  1  0  0  0  0  0  0  0  0  0
    8.8244  -15.0083   22.7920 C   0  0  0  0  0  0  0  0  0  0  0  0
   10.0069  -14.9072   23.2077 O   0  0  0  0  0  0  0  0  0  0  0  0
    5.4768  -12.1270   27.0280 C   0  0  0  0  0  0  0  0  0  0  0  0
    6.8662  -12.6984   26.7138 C   0  0  2  0  0  0  0  0  0  0  0  0
    7.8877  -11.5869   26.8088 C   0  0  0  0  0  0  0  0  0  0  0  0
    6.8320  -13.2909   25.3437 C   0  0  0  0  0  0  0  0  0  0  0  0
    8.0065  -14.1937   25.0442 C   0  0  2  0  0  0  0  0  0  0  0  0
    7.7628  -14.6925   23.6739 N   0  0  0  0  0  0  0  0  0  0  0  0
    8.0653  -15.3776   25.9173 C   0  0  0  0  0  0  0  0  0  0  0  0
    8.2715  -15.2062   27.1587 O   0  0  0  0  0  0  0  0  0  0  0  0
    7.2610  -19.0073   25.8276 C   0  0  0  0  0  0  0  0  0  0  0  0
    7.9852  -17.7959   26.3757 C   0  0  2  0  0  0  0  0  0  0  0  0
    7.9035  -16.7027   25.4435 N   0  0  0  0  0  0  0  0  0  0  0  0
    9.4003  -18.1934   26.6147 C   0  0  0  0  0  0  0  0  0  0  0  0
   10.3135  -17.6453   25.9735 O   0  0  0  0  0  0  0  0  0  0  0  0
    9.6531  -19.1772   27.5596 O   0  0  0  0  0  0  0  0  0  0  0  0
  1  2  1  0
  3  2  1  0
  4  5  1  0
  4  3  1  0
  5  1  1  0
  5  6  1  1
  6 13  1  0
  7  6  2  0
  9  8  1  6
  9 10  1  0
  9 11  1  0
 12 11  1  1
 12 13  1  0
 14 12  1  0
 15 14  2  0
 17 16  1  6
 17 18  1  0
 17 19  1  0
 18 14  1  0
 19 21  1  0
 20 19  2  0
M  END
$$$$
