PLA.pdb
     RDKit          3D

 21 21  0  0  1  0  0  0  0  0999 V2000
    8.4882  -15.2031   19.5106 N   0  0  0  0  0  0  0  0  0  0  0  0
    8.0565  -16.1848   18.5348 C   0  0  0  0  0  0  0  0  0  0  0  0
    6.8764  -16.9072   19.1526 C   0  0  0  0  0  0  0  0  0  0  0  0
    7.2165  -16.7632   20.6330 C   0  0  0  0  0  0  0  0  0  0  0  0
    7.6093  -15.2961   20.6357 C   0  0  1  0  0  0  0  0  0  0  0  0
    8.2346  -14.8885   21.9084 C   0  0  0  0  0  0  0  0  0  0  0  0
    9.4765  -14.9340   22.1006 O   0  0  0  0  0  0  0  0  0  0  0  0
    5.8617  -12.2542   26.9502 C   0  0  0  0  0  0  0  0  0  0  0  0
    7.1089  -12.9354   26.3707 C   0  0  2  0  0  0  0  0  0  0  0  0
    8.2955  -12.0124   26.5375 C   0  0  0  0  0  0  0  0  0  0  0  0
    6.8529  -13.2384   24.9312 C   0  0  0  0  0  0  0  0  0  0  0  0
    7.9379  -14.0680   24.2841 C   0  0  2  0  0  0  0  0  0  0  0  0
    7.3997  -14.4276   22.9548 N   0  0  0  0  0  0  0  0  0  0  0  0
    8.1972  -15.3347   24.9883 C   0  0  0  0  0  0  0  0  0  0  0  0
    7.2226  -16.1204   25.2021 O   0  0  0  0  0  0  0  0  0  0  0  0
   10.8805  -17.6974   25.2972 C   0  0  0  0  0  0  0  0  0  0  0  0
    9.6720  -17.0578   25.9476 C   0  0  2  0  0  0  0  0  0  0  0  0
    9.4814  -15.7242   25.4415 N   0  0  0  0  0  0  0  0  0  0  0  0
    9.9114  -17.0455   27.4173 C   0  0  0  0  0  0  0  0  0  0  0  0
    9.9194  -15.9660   28.0337 O   0  0  0  0  0  0  0  0  0  0  0  0
   10.1205  -18.2589   28.0565 O   0  0  0  0  0  0  0  0  0  0  0  0
  1  2  1  0
  3  2  1  0
  4  5  1  0
  4  3  1  0
  5  1  1  0
  5  6  1  1
  6 13  1  0
  7  6  2  0
  9  8  1  6
  9 10  1  0
  9 11  1  0
 12 11  1  1
 12 13  1  0
 14 12  1  0
 15 14  2  0
 17 16  1  6
 17 18  1  0
 17 19  1  0
 18 14  1  0
 19 21  1  0
 20 19  2  0
M  END
$$$$
