PLA.pdb
     RDKit          3D

 21 21  0  0  1  0  0  0  0  0999 V2000
    7.3339  -15.6738   20.9771 N   0  0  0  0  0  0  0  0  0  0  0  0
    6.7058  -15.3944   19.7006 C   0  0  0  0  0  0  0  0  0  0  0  0
    7.5391  -14.3117   19.0451 C   0  0  0  0  0  0  0  0  0  0  0  0
    8.0945  -13.6124   20.2822 C   0  0  0  0  0  0  0  0  0  0  0  0
    8.4932  -14.8417   21.0801 C   0  0  1  0  0  0  0  0  0  0  0  0
    8.8597  -14.5096   22.4702 C   0  0  0  0  0  0  0  0  0  0  0  0
   10.0360  -14.2278   22.8140 O   0  0  0  0  0  0  0  0  0  0  0  0
    5.4730  -12.3113   27.0211 C   0  0  0  0  0  0  0  0  0  0  0  0
    6.8846  -12.7692   26.6301 C   0  0  2  0  0  0  0  0  0  0  0  0
    7.8219  -11.5838   26.6961 C   0  0  0  0  0  0  0  0  0  0  0  0
    6.8281  -13.3426   25.2526 C   0  0  0  0  0  0  0  0  0  0  0  0
    8.0958  -14.0543   24.8397 C   0  0  2  0  0  0  0  0  0  0  0  0
    7.8432  -14.5088   23.4557 N   0  0  0  0  0  0  0  0  0  0  0  0
    8.3677  -15.2630   25.6350 C   0  0  0  0  0  0  0  0  0  0  0  0
    8.5751  -15.1350   26.8814 O   0  0  0  0  0  0  0  0  0  0  0  0
    7.9702  -18.9346   25.3400 C   0  0  0  0  0  0  0  0  0  0  0  0
    8.5839  -17.6950   25.9558 C   0  0  2  0  0  0  0  0  0  0  0  0
    8.4101  -16.5659   25.0808 N   0  0  0  0  0  0  0  0  0  0  0  0
   10.0275  -17.9798   26.1853 C   0  0  0  0  0  0  0  0  0  0  0  0
   10.8913  -17.3313   25.5699 O   0  0  0  0  0  0  0  0  0  0  0  0
   10.3622  -18.9748   27.0922 O   0  0  0  0  0  0  0  0  0  0  0  0
  1  2  1  0
  3  2  1  0
  4  5  1  0
  4  3  1  0
  5  1  1  0
  5  6  1  1
  6 13  1  0
  7  6  2  0
  9  8  1  6
  9 10  1  0
  9 11  1  0
 12 11  1  1
 12 13  1  0
 14 12  1  0
 15 14  2  0
 17 16  1  6
 17 18  1  0
 17 19  1  0
 18 14  1  0
 19 21  1  0
 20 19  2  0
M  END
$$$$
