PLA.pdb
     RDKit          3D

 21 21  0  0  1  0  0  0  0  0999 V2000
    7.2283  -14.8073   20.7478 N   0  0  0  0  0  0  0  0  0  0  0  0
    6.6259  -14.1365   19.6123 C   0  0  0  0  0  0  0  0  0  0  0  0
    7.6258  -13.0932   19.1561 C   0  0  0  0  0  0  0  0  0  0  0  0
    8.3365  -12.8053   20.4751 C   0  0  0  0  0  0  0  0  0  0  0  0
    8.5239  -14.2355   20.9507 C   0  0  1  0  0  0  0  0  0  0  0  0
    8.9856  -14.3017   22.3506 C   0  0  0  0  0  0  0  0  0  0  0  0
   10.1859  -14.1213   22.6794 O   0  0  0  0  0  0  0  0  0  0  0  0
    8.3235  -12.0401   26.3204 C   0  0  0  0  0  0  0  0  0  0  0  0
    7.0896  -12.5487   25.5627 C   0  0  2  0  0  0  0  0  0  0  0  0
    5.8439  -12.0853   26.2847 C   0  0  0  0  0  0  0  0  0  0  0  0
    7.1589  -14.0388   25.4979 C   0  0  0  0  0  0  0  0  0  0  0  0
    8.3934  -14.5584   24.7977 C   0  0  2  0  0  0  0  0  0  0  0  0
    8.0361  -14.5800   23.3632 N   0  0  0  0  0  0  0  0  0  0  0  0
    8.7301  -15.9432   25.1670 C   0  0  0  0  0  0  0  0  0  0  0  0
    7.8156  -16.8231   25.1195 O   0  0  0  0  0  0  0  0  0  0  0  0
   11.6049  -18.1752   25.3884 C   0  0  0  0  0  0  0  0  0  0  0  0
   10.2564  -17.7267   25.9110 C   0  0  2  0  0  0  0  0  0  0  0  0
   10.0254  -16.3469   25.5741 N   0  0  0  0  0  0  0  0  0  0  0  0
   10.2623  -17.9257   27.3869 C   0  0  0  0  0  0  0  0  0  0  0  0
   10.1541  -16.9454   28.1436 O   0  0  0  0  0  0  0  0  0  0  0  0
   10.3905  -19.2189   27.8724 O   0  0  0  0  0  0  0  0  0  0  0  0
  1  2  1  0
  3  2  1  0
  4  5  1  0
  4  3  1  0
  5  1  1  0
  5  6  1  1
  6 13  1  0
  7  6  2  0
  9  8  1  1
  9 10  1  0
  9 11  1  0
 12 11  1  1
 12 13  1  0
 14 12  1  0
 15 14  2  0
 17 16  1  1
 17 18  1  0
 17 19  1  0
 18 14  1  0
 19 21  1  0
 20 19  2  0
M  END
$$$$
