PLA.pdb
     RDKit          3D

 21 21  0  0  1  0  0  0  0  0999 V2000
    7.2072  -14.7212   20.9683 N   0  0  0  0  0  0  0  0  0  0  0  0
    6.5367  -14.0855   19.8510 C   0  0  0  0  0  0  0  0  0  0  0  0
    7.4713  -12.9998   19.3567 C   0  0  0  0  0  0  0  0  0  0  0  0
    8.2118  -12.6718   20.6497 C   0  0  0  0  0  0  0  0  0  0  0  0
    8.4811  -14.0890   21.1249 C   0  0  1  0  0  0  0  0  0  0  0  0
    8.9921  -14.1256   22.5086 C   0  0  0  0  0  0  0  0  0  0  0  0
   10.1811  -13.8398   22.8017 O   0  0  0  0  0  0  0  0  0  0  0  0
    7.8236  -11.7801   26.1316 C   0  0  0  0  0  0  0  0  0  0  0  0
    6.7540  -12.7115   25.5453 C   0  0  2  0  0  0  0  0  0  0  0  0
    5.4452  -12.4711   26.2644 C   0  0  0  0  0  0  0  0  0  0  0  0
    7.2159  -14.1216   25.7122 C   0  0  0  0  0  0  0  0  0  0  0  0
    8.4963  -14.4317   24.9715 C   0  0  2  0  0  0  0  0  0  0  0  0
    8.1050  -14.4982   23.5473 N   0  0  0  0  0  0  0  0  0  0  0  0
    9.0600  -15.7480   25.3136 C   0  0  0  0  0  0  0  0  0  0  0  0
    9.2614  -16.0222   26.5371 O   0  0  0  0  0  0  0  0  0  0  0  0
    9.6439  -19.0595   23.7355 C   0  0  0  0  0  0  0  0  0  0  0  0
    9.9085  -17.9979   24.7822 C   0  0  2  0  0  0  0  0  0  0  0  0
    9.3906  -16.7282   24.3459 N   0  0  0  0  0  0  0  0  0  0  0  0
   11.3818  -17.9345   24.9896 C   0  0  0  0  0  0  0  0  0  0  0  0
   12.0158  -16.9309   24.6204 O   0  0  0  0  0  0  0  0  0  0  0  0
   12.0042  -19.0152   25.5973 O   0  0  0  0  0  0  0  0  0  0  0  0
  1  2  1  0
  3  2  1  0
  4  5  1  0
  4  3  1  0
  5  1  1  0
  5  6  1  1
  6 13  1  0
  7  6  2  0
  9  8  1  1
  9 10  1  0
  9 11  1  0
 12 11  1  1
 12 13  1  0
 14 12  1  0
 15 14  2  0
 17 16  1  6
 17 18  1  0
 17 19  1  0
 18 14  1  0
 19 21  1  0
 20 19  2  0
M  END
$$$$
