PLA.pdb
     RDKit          3D

 21 21  0  0  1  0  0  0  0  0999 V2000
    7.3296  -14.9355   21.0321 N   0  0  0  0  0  0  0  0  0  0  0  0
    6.7451  -14.3947   19.8205 C   0  0  0  0  0  0  0  0  0  0  0  0
    7.6710  -13.2867   19.3604 C   0  0  0  0  0  0  0  0  0  0  0  0
    8.2603  -12.8538   20.6995 C   0  0  0  0  0  0  0  0  0  0  0  0
    8.5489  -14.2284   21.2774 C   0  0  1  0  0  0  0  0  0  0  0  0
    8.9188  -14.1669   22.7045 C   0  0  0  0  0  0  0  0  0  0  0  0
   10.0559  -13.8003   23.0965 O   0  0  0  0  0  0  0  0  0  0  0  0
    7.8399  -11.9055   26.4943 C   0  0  0  0  0  0  0  0  0  0  0  0
    6.6947  -12.5850   25.7314 C   0  0  2  0  0  0  0  0  0  0  0  0
    5.3821  -12.2223   26.3897 C   0  0  0  0  0  0  0  0  0  0  0  0
    6.9254  -14.0601   25.7532 C   0  0  0  0  0  0  0  0  0  0  0  0
    8.2326  -14.4786   25.1205 C   0  0  2  0  0  0  0  0  0  0  0  0
    7.9516  -14.5364   23.6701 N   0  0  0  0  0  0  0  0  0  0  0  0
    8.6634  -15.8289   25.5184 C   0  0  0  0  0  0  0  0  0  0  0  0
    8.7191  -16.1078   26.7561 O   0  0  0  0  0  0  0  0  0  0  0  0
    9.5115  -19.1286   23.9735 C   0  0  0  0  0  0  0  0  0  0  0  0
    9.5278  -18.0923   25.0772 C   0  0  2  0  0  0  0  0  0  0  0  0
    9.0204  -16.8371   24.5895 N   0  0  0  0  0  0  0  0  0  0  0  0
   10.9364  -17.9584   25.5416 C   0  0  0  0  0  0  0  0  0  0  0  0
   11.5344  -16.8779   25.3996 O   0  0  0  0  0  0  0  0  0  0  0  0
   11.5407  -19.0622   26.1256 O   0  0  0  0  0  0  0  0  0  0  0  0
  1  2  1  0
  3  2  1  0
  4  5  1  0
  4  3  1  0
  5  1  1  0
  5  6  1  1
  6 13  1  0
  7  6  2  0
  9  8  1  1
  9 10  1  0
  9 11  1  0
 12 11  1  1
 12 13  1  0
 14 12  1  0
 15 14  2  0
 17 16  1  6
 17 18  1  0
 17 19  1  0
 18 14  1  0
 19 21  1  0
 20 19  2  0
M  END
$$$$
