PLA.pdb
     RDKit          3D

 21 21  0  0  1  0  0  0  0  0999 V2000
    7.4055  -14.8697   20.9471 N   0  0  0  0  0  0  0  0  0  0  0  0
    6.8206  -14.3444   19.7289 C   0  0  0  0  0  0  0  0  0  0  0  0
    7.7610  -13.2619   19.2387 C   0  0  0  0  0  0  0  0  0  0  0  0
    8.3679  -12.8112   20.5640 C   0  0  0  0  0  0  0  0  0  0  0  0
    8.6382  -14.1781   21.1684 C   0  0  1  0  0  0  0  0  0  0  0  0
    9.0202  -14.0931   22.5910 C   0  0  0  0  0  0  0  0  0  0  0  0
   10.1568  -13.7088   22.9676 O   0  0  0  0  0  0  0  0  0  0  0  0
    7.9102  -11.7847   26.2816 C   0  0  0  0  0  0  0  0  0  0  0  0
    6.7905  -12.5574   25.5714 C   0  0  2  0  0  0  0  0  0  0  0  0
    5.4675  -12.2100   26.2169 C   0  0  0  0  0  0  0  0  0  0  0  0
    7.0837  -14.0173   25.6819 C   0  0  0  0  0  0  0  0  0  0  0  0
    8.3764  -14.4282   25.0155 C   0  0  2  0  0  0  0  0  0  0  0  0
    8.0659  -14.4599   23.5704 N   0  0  0  0  0  0  0  0  0  0  0  0
    8.8111  -15.7865   25.3810 C   0  0  0  0  0  0  0  0  0  0  0  0
    8.9375  -16.0723   26.6120 O   0  0  0  0  0  0  0  0  0  0  0  0
    9.4836  -19.1006   23.7913 C   0  0  0  0  0  0  0  0  0  0  0  0
    9.6246  -18.0557   24.8780 C   0  0  2  0  0  0  0  0  0  0  0  0
    9.0968  -16.7948   24.4281 N   0  0  0  0  0  0  0  0  0  0  0  0
   11.0734  -17.9459   25.2048 C   0  0  0  0  0  0  0  0  0  0  0  0
   11.6527  -18.8884   25.7718 O   0  0  0  0  0  0  0  0  0  0  0  0
   11.7354  -16.7768   24.8592 O   0  0  0  0  0  0  0  0  0  0  0  0
  1  2  1  0
  3  2  1  0
  4  5  1  0
  4  3  1  0
  5  1  1  0
  5  6  1  1
  6 13  1  0
  7  6  2  0
  9  8  1  1
  9 10  1  0
  9 11  1  0
 12 11  1  1
 12 13  1  0
 14 12  1  0
 15 14  2  0
 17 16  1  6
 17 18  1  0
 17 19  1  0
 18 14  1  0
 19 21  1  0
 20 19  2  0
M  END
$$$$
