PLA.pdb
     RDKit          3D

 21 21  0  0  1  0  0  0  0  0999 V2000
    7.2254  -15.0756   20.8163 N   0  0  0  0  0  0  0  0  0  0  0  0
    6.7026  -14.6432   19.5350 C   0  0  0  0  0  0  0  0  0  0  0  0
    7.6947  -13.6359   18.9896 C   0  0  0  0  0  0  0  0  0  0  0  0
    8.2672  -13.0877   20.2933 C   0  0  0  0  0  0  0  0  0  0  0  0
    8.4710  -14.4033   21.0245 C   0  0  1  0  0  0  0  0  0  0  0  0
    8.8035  -14.2042   22.4482 C   0  0  0  0  0  0  0  0  0  0  0  0
    9.9744  -13.9786   22.8474 O   0  0  0  0  0  0  0  0  0  0  0  0
    5.5786  -12.2192   27.1602 C   0  0  0  0  0  0  0  0  0  0  0  0
    6.9365  -12.8032   26.7476 C   0  0  2  0  0  0  0  0  0  0  0  0
    8.0159  -11.7802   27.0237 C   0  0  0  0  0  0  0  0  0  0  0  0
    6.8765  -13.1535   25.2974 C   0  0  0  0  0  0  0  0  0  0  0  0
    8.0025  -14.0541   24.8442 C   0  0  2  0  0  0  0  0  0  0  0  0
    7.7593  -14.2703   23.4020 N   0  0  0  0  0  0  0  0  0  0  0  0
    7.9737  -15.3824   25.4783 C   0  0  0  0  0  0  0  0  0  0  0  0
    8.1183  -15.4566   26.7378 O   0  0  0  0  0  0  0  0  0  0  0  0
    6.7727  -18.7823   24.8526 C   0  0  0  0  0  0  0  0  0  0  0  0
    7.7853  -17.8377   25.4649 C   0  0  2  0  0  0  0  0  0  0  0  0
    7.7925  -16.5864   24.7544 N   0  0  0  0  0  0  0  0  0  0  0  0
    9.1154  -18.5037   25.3937 C   0  0  0  0  0  0  0  0  0  0  0  0
    9.3057  -19.5716   26.0010 O   0  0  0  0  0  0  0  0  0  0  0  0
   10.1106  -17.8988   24.6399 O   0  0  0  0  0  0  0  0  0  0  0  0
  1  2  1  0
  3  2  1  0
  4  5  1  0
  4  3  1  0
  5  1  1  0
  5  6  1  1
  6 13  1  0
  7  6  2  0
  9  8  1  6
  9 10  1  0
  9 11  1  0
 12 11  1  1
 12 13  1  0
 14 12  1  0
 15 14  2  0
 17 16  1  6
 17 18  1  0
 17 19  1  0
 18 14  1  0
 19 21  1  0
 20 19  2  0
M  END
$$$$
