PLA.pdb
     RDKit          3D

 21 21  0  0  1  0  0  0  0  0999 V2000
    7.2443  -15.1502   21.2554 N   0  0  0  0  0  0  0  0  0  0  0  0
    6.7196  -14.5991   20.0213 C   0  0  0  0  0  0  0  0  0  0  0  0
    7.7370  -13.5825   19.5438 C   0  0  0  0  0  0  0  0  0  0  0  0
    8.3435  -13.1601   20.8786 C   0  0  0  0  0  0  0  0  0  0  0  0
    8.5136  -14.5364   21.4982 C   0  0  1  0  0  0  0  0  0  0  0  0
    8.8704  -14.4639   22.9281 C   0  0  0  0  0  0  0  0  0  0  0  0
   10.0283  -14.1773   23.3258 O   0  0  0  0  0  0  0  0  0  0  0  0
    7.9590  -11.9031   26.5061 C   0  0  0  0  0  0  0  0  0  0  0  0
    6.7905  -12.5493   25.7496 C   0  0  2  0  0  0  0  0  0  0  0  0
    5.4897  -12.0029   26.2947 C   0  0  0  0  0  0  0  0  0  0  0  0
    6.8765  -14.0293   25.9275 C   0  0  0  0  0  0  0  0  0  0  0  0
    8.1296  -14.6385   25.3417 C   0  0  2  0  0  0  0  0  0  0  0  0
    7.8656  -14.7285   23.8898 N   0  0  0  0  0  0  0  0  0  0  0  0
    8.3795  -16.0121   25.8086 C   0  0  0  0  0  0  0  0  0  0  0  0
    8.3554  -16.2422   27.0574 O   0  0  0  0  0  0  0  0  0  0  0  0
    8.5201  -19.4901   24.5936 C   0  0  0  0  0  0  0  0  0  0  0  0
    9.0078  -18.3718   25.4903 C   0  0  2  0  0  0  0  0  0  0  0  0
    8.6465  -17.0945   24.9347 N   0  0  0  0  0  0  0  0  0  0  0  0
   10.4862  -18.5078   25.6077 C   0  0  0  0  0  0  0  0  0  0  0  0
   11.2272  -17.6203   25.1510 O   0  0  0  0  0  0  0  0  0  0  0  0
   10.9918  -19.6384   26.2329 O   0  0  0  0  0  0  0  0  0  0  0  0
  1  2  1  0
  3  2  1  0
  4  5  1  0
  4  3  1  0
  5  1  1  0
  5  6  1  1
  6 13  1  0
  7  6  2  0
  9  8  1  1
  9 10  1  0
  9 11  1  0
 12 11  1  1
 12 13  1  0
 14 12  1  0
 15 14  2  0
 17 16  1  6
 17 18  1  0
 17 19  1  0
 18 14  1  0
 19 21  1  0
 20 19  2  0
M  END
$$$$
