PLA.pdb
     RDKit          3D

 21 21  0  0  1  0  0  0  0  0999 V2000
    7.1758  -14.7835   20.9761 N   0  0  0  0  0  0  0  0  0  0  0  0
    6.5114  -14.1401   19.8596 C   0  0  0  0  0  0  0  0  0  0  0  0
    7.4403  -13.0386   19.3902 C   0  0  0  0  0  0  0  0  0  0  0  0
    8.1628  -12.7201   20.6957 C   0  0  0  0  0  0  0  0  0  0  0  0
    8.4413  -14.1407   21.1554 C   0  0  1  0  0  0  0  0  0  0  0  0
    8.9371  -14.1903   22.5442 C   0  0  0  0  0  0  0  0  0  0  0  0
   10.1288  -13.9303   22.8500 O   0  0  0  0  0  0  0  0  0  0  0  0
    8.3211  -12.1474   26.5828 C   0  0  0  0  0  0  0  0  0  0  0  0
    7.0916  -12.7229   25.8670 C   0  0  2  0  0  0  0  0  0  0  0  0
    5.8490  -12.3412   26.6404 C   0  0  0  0  0  0  0  0  0  0  0  0
    7.2472  -14.2056   25.7840 C   0  0  0  0  0  0  0  0  0  0  0  0
    8.4536  -14.6448   24.9865 C   0  0  2  0  0  0  0  0  0  0  0  0
    8.0316  -14.5456   23.5730 N   0  0  0  0  0  0  0  0  0  0  0  0
    8.8203  -16.0519   25.2170 C   0  0  0  0  0  0  0  0  0  0  0  0
    7.9342  -16.9455   25.0462 O   0  0  0  0  0  0  0  0  0  0  0  0
   11.6877  -18.2786   25.3064 C   0  0  0  0  0  0  0  0  0  0  0  0
   10.3561  -17.8554   25.8899 C   0  0  2  0  0  0  0  0  0  0  0  0
   10.1144  -16.4626   25.6208 N   0  0  0  0  0  0  0  0  0  0  0  0
   10.4081  -18.1185   27.3548 C   0  0  0  0  0  0  0  0  0  0  0  0
   10.2813  -17.1774   28.1570 O   0  0  0  0  0  0  0  0  0  0  0  0
   10.5991  -19.4255   27.7786 O   0  0  0  0  0  0  0  0  0  0  0  0
  1  2  1  0
  3  2  1  0
  4  5  1  0
  4  3  1  0
  5  1  1  0
  5  6  1  1
  6 13  1  0
  7  6  2  0
  9  8  1  1
  9 10  1  0
  9 11  1  0
 12 11  1  1
 12 13  1  0
 14 12  1  0
 15 14  2  0
 17 16  1  6
 17 18  1  0
 17 19  1  0
 18 14  1  0
 19 21  1  0
 20 19  2  0
M  END
$$$$
