PLA.pdb
     RDKit          3D

 21 21  0  0  1  0  0  0  0  0999 V2000
   11.5221  -17.9145   17.2144 N   0  0  0  0  0  0  0  0  0  0  0  0
   11.3637  -19.2762   16.7426 C   0  0  0  0  0  0  0  0  0  0  0  0
   10.0469  -19.7706   17.3067 C   0  0  0  0  0  0  0  0  0  0  0  0
    9.9639  -18.9283   18.5762 C   0  0  0  0  0  0  0  0  0  0  0  0
   10.3635  -17.5867   17.9870 C   0  0  1  0  0  0  0  0  0  0  0  0
   10.6163  -16.5731   19.0290 C   0  0  0  0  0  0  0  0  0  0  0  0
   11.7735  -16.1890   19.3368 O   0  0  0  0  0  0  0  0  0  0  0  0
    9.0740  -12.4071   19.1234 C   0  0  0  0  0  0  0  0  0  0  0  0
    8.0433  -13.5214   19.3495 C   0  0  2  0  0  0  0  0  0  0  0  0
    6.6564  -12.9177   19.3391 C   0  0  0  0  0  0  0  0  0  0  0  0
    8.3411  -14.1790   20.6565 C   0  0  0  0  0  0  0  0  0  0  0  0
    9.6647  -14.9082   20.6806 C   0  0  2  0  0  0  0  0  0  0  0  0
    9.5086  -16.0114   19.7088 N   0  0  0  0  0  0  0  0  0  0  0  0
    9.9591  -15.5329   21.9807 C   0  0  0  0  0  0  0  0  0  0  0  0
   10.1369  -14.7810   22.9886 O   0  0  0  0  0  0  0  0  0  0  0  0
    9.8900  -18.8755   23.6072 C   0  0  0  0  0  0  0  0  0  0  0  0
   10.3753  -17.4476   23.4724 C   0  0  2  0  0  0  0  0  0  0  0  0
   10.0548  -16.9339   22.1669 N   0  0  0  0  0  0  0  0  0  0  0  0
   11.8468  -17.4540   23.7009 C   0  0  0  0  0  0  0  0  0  0  0  0
   12.6148  -17.0837   22.7962 O   0  0  0  0  0  0  0  0  0  0  0  0
   12.3156  -17.8798   24.9351 O   0  0  0  0  0  0  0  0  0  0  0  0
  1  2  1  0
  3  2  1  0
  4  5  1  0
  4  3  1  0
  5  1  1  0
  5  6  1  1
  6 13  1  0
  7  6  2  0
  9  8  1  1
  9 10  1  0
  9 11  1  0
 12 11  1  1
 12 13  1  0
 14 12  1  0
 15 14  2  0
 17 16  1  6
 17 18  1  0
 17 19  1  0
 18 14  1  0
 19 21  1  0
 20 19  2  0
M  END
$$$$
