PLA.pdb
     RDKit          3D

 21 21  0  0  1  0  0  0  0  0999 V2000
    7.2348  -15.3682   20.8770 N   0  0  0  0  0  0  0  0  0  0  0  0
    6.6350  -15.0882   19.5871 C   0  0  0  0  0  0  0  0  0  0  0  0
    7.5563  -14.1039   18.8951 C   0  0  0  0  0  0  0  0  0  0  0  0
    8.1643  -13.4050   20.1074 C   0  0  0  0  0  0  0  0  0  0  0  0
    8.4584  -14.6309   20.9544 C   0  0  1  0  0  0  0  0  0  0  0  0
    8.8475  -14.2760   22.3328 C   0  0  0  0  0  0  0  0  0  0  0  0
   10.0019  -13.8768   22.6315 O   0  0  0  0  0  0  0  0  0  0  0  0
    5.5355  -12.3772   27.0489 C   0  0  0  0  0  0  0  0  0  0  0  0
    6.9518  -12.7647   26.6024 C   0  0  2  0  0  0  0  0  0  0  0  0
    7.8391  -11.5414   26.6657 C   0  0  0  0  0  0  0  0  0  0  0  0
    6.8744  -13.3100   25.2146 C   0  0  0  0  0  0  0  0  0  0  0  0
    8.1557  -13.9610   24.7467 C   0  0  2  0  0  0  0  0  0  0  0  0
    7.8792  -14.3907   23.3594 N   0  0  0  0  0  0  0  0  0  0  0  0
    8.4976  -15.1774   25.5023 C   0  0  0  0  0  0  0  0  0  0  0  0
    8.6783  -15.0822   26.7558 O   0  0  0  0  0  0  0  0  0  0  0  0
    8.5529  -18.8698   25.0553 C   0  0  0  0  0  0  0  0  0  0  0  0
    8.9818  -17.5816   25.7254 C   0  0  2  0  0  0  0  0  0  0  0  0
    8.6362  -16.4530   24.9022 N   0  0  0  0  0  0  0  0  0  0  0  0
   10.4534  -17.6596   25.9397 C   0  0  0  0  0  0  0  0  0  0  0  0
   10.9221  -18.5193   26.7057 O   0  0  0  0  0  0  0  0  0  0  0  0
   11.2618  -16.7556   25.2661 O   0  0  0  0  0  0  0  0  0  0  0  0
  1  2  1  0
  3  2  1  0
  4  5  1  0
  4  3  1  0
  5  1  1  0
  5  6  1  1
  6 13  1  0
  7  6  2  0
  9  8  1  6
  9 10  1  0
  9 11  1  0
 12 11  1  1
 12 13  1  0
 14 12  1  0
 15 14  2  0
 17 16  1  6
 17 18  1  0
 17 19  1  0
 18 14  1  0
 19 21  1  0
 20 19  2  0
M  END
$$$$
