PLA.pdb
     RDKit          3D

 21 21  0  0  1  0  0  0  0  0999 V2000
    7.2272  -15.3496   21.1051 N   0  0  0  0  0  0  0  0  0  0  0  0
    6.5942  -14.8000   19.9221 C   0  0  0  0  0  0  0  0  0  0  0  0
    7.5564  -13.7702   19.3653 C   0  0  0  0  0  0  0  0  0  0  0  0
    8.2687  -13.3458   20.6461 C   0  0  0  0  0  0  0  0  0  0  0  0
    8.5056  -14.7223   21.2427 C   0  0  1  0  0  0  0  0  0  0  0  0
    8.9810  -14.6510   22.6377 C   0  0  0  0  0  0  0  0  0  0  0  0
   10.1777  -14.4058   22.9361 O   0  0  0  0  0  0  0  0  0  0  0  0
    8.2377  -12.0153   26.2296 C   0  0  0  0  0  0  0  0  0  0  0  0
    7.0352  -12.7329   25.6016 C   0  0  2  0  0  0  0  0  0  0  0  0
    5.7675  -12.2366   26.2607 C   0  0  0  0  0  0  0  0  0  0  0  0
    7.2107  -14.2028   25.7965 C   0  0  0  0  0  0  0  0  0  0  0  0
    8.4321  -14.7643   25.1057 C   0  0  2  0  0  0  0  0  0  0  0  0
    8.0493  -14.8680   23.6814 N   0  0  0  0  0  0  0  0  0  0  0  0
    8.7740  -16.1261   25.5484 C   0  0  0  0  0  0  0  0  0  0  0  0
    7.8730  -17.0204   25.5106 O   0  0  0  0  0  0  0  0  0  0  0  0
   11.7050  -18.2622   25.8338 C   0  0  0  0  0  0  0  0  0  0  0  0
   10.3270  -17.8722   26.3253 C   0  0  2  0  0  0  0  0  0  0  0  0
   10.0600  -16.4925   26.0159 N   0  0  0  0  0  0  0  0  0  0  0  0
   10.2949  -18.1092   27.7951 C   0  0  0  0  0  0  0  0  0  0  0  0
   10.1537  -17.1501   28.5733 O   0  0  0  0  0  0  0  0  0  0  0  0
   10.4258  -19.4130   28.2509 O   0  0  0  0  0  0  0  0  0  0  0  0
  1  2  1  0
  3  2  1  0
  4  5  1  0
  4  3  1  0
  5  1  1  0
  5  6  1  1
  6 13  1  0
  7  6  2  0
  9  8  1  1
  9 10  1  0
  9 11  1  0
 12 11  1  1
 12 13  1  0
 14 12  1  0
 15 14  2  0
 17 16  1  1
 17 18  1  0
 17 19  1  0
 18 14  1  0
 19 21  1  0
 20 19  2  0
M  END
$$$$
