ARQ.pdb
     RDKit          3D

 26 25  0  0  1  0  0  0  0  0999 V2000
   42.3018  -12.3780  -14.5635 C   0  0  0  0  0  0  0  0  0  0  0  0
   43.1297  -13.2368  -13.5982 C   0  0  2  0  0  0  0  0  0  0  0  0
   42.8354  -14.6126  -13.9421 N   0  0  0  0  0  0  0  0  0  0  0  0
   42.7509  -12.9638  -12.2085 C   0  0  0  0  0  0  0  0  0  0  0  0
   41.7770  -13.6376  -11.7219 O   0  0  0  0  0  0  0  0  0  0  0  0
   47.5210  -11.5161   -5.4836 N   0  0  0  0  0  0  0  0  0  0  0  0
   47.0986  -12.6064   -6.2954 C   0  0  0  0  0  0  0  0  0  0  0  0
   47.8336  -13.6350   -6.4690 N   0  0  0  0  0  0  0  0  0  0  0  0
   45.8231  -12.5314   -6.9210 N   0  0  0  0  0  0  0  0  0  0  0  0
   45.0017  -11.3438   -6.8121 C   0  0  0  0  0  0  0  0  0  0  0  0
   43.7281  -11.4923   -7.6567 C   0  0  0  0  0  0  0  0  0  0  0  0
   44.1731  -11.6915   -9.0818 C   0  0  0  0  0  0  0  0  0  0  0  0
   43.0356  -11.8852  -10.0363 C   0  0  2  0  0  0  0  0  0  0  0  0
   43.4164  -11.9949  -11.4001 N   0  0  0  0  0  0  0  0  0  0  0  0
   42.1668  -10.6591   -9.9146 C   0  0  0  0  0  0  0  0  0  0  0  0
   42.2677   -9.6908  -10.7282 O   0  0  0  0  0  0  0  0  0  0  0  0
   47.5089  -14.4055   -7.0786 N   0  0  0  0  0  0  0  0  0  0  0  0
   37.4421  -10.6937   -5.7489 C   0  0  0  0  0  0  0  0  0  0  0  0
   37.1411   -9.5453   -6.5234 O   0  0  0  0  0  0  0  0  0  0  0  0
   36.0945   -8.9029   -6.2609 C   0  0  0  0  0  0  0  0  0  0  0  0
   38.0380   -9.1293   -7.5910 C   0  0  0  0  0  0  0  0  0  0  0  0
   39.1891   -9.9930   -7.8970 C   0  0  1  0  0  0  0  0  0  0  0  0
   40.2077   -9.5394   -8.8696 N   0  0  0  0  0  0  0  0  0  0  0  0
   41.2350  -10.6111   -8.8721 C   0  0  0  0  0  0  0  0  0  0  0  0
   40.8263   -8.2366   -8.7051 O   0  0  0  0  0  0  0  0  0  0  0  0
   41.8506   -8.0331   -8.0138 O   0  0  0  0  0  0  0  0  0  0  0  0
  2  1  1  6
  2  3  1  0
  4  2  1  0
  5  4  2  0
  6  7  1  0
  7  9  1  0
  7  8  2  0
  9 10  1  0
 10 11  1  0
 11 12  1  0
 13 12  1  1
 13 14  1  0
 14  4  1  0
 15 13  1  0
 15 16  2  0
 17 18  1  0
 18 20  1  0
 19 18  2  0
 20 21  1  0
 22 21  1  6
 22 23  1  0
 23 15  1  0
 24 22  1  0
 25 24  2  0
 26 24  1  0
M  END
$$$$
