ARQ.pdb
     RDKit          3D

 26 25  0  0  1  0  0  0  0  0999 V2000
   25.1073  -17.1493  -19.0236 C   0  0  0  0  0  0  0  0  0  0  0  0
   26.1847  -18.2305  -18.8652 C   0  0  2  0  0  0  0  0  0  0  0  0
   25.9901  -19.1467  -19.9699 N   0  0  0  0  0  0  0  0  0  0  0  0
   26.0309  -18.9301  -17.5862 C   0  0  0  0  0  0  0  0  0  0  0  0
   25.1314  -19.8387  -17.5180 O   0  0  0  0  0  0  0  0  0  0  0  0
   28.5924  -21.7957  -10.0529 N   0  0  0  0  0  0  0  0  0  0  0  0
   29.5962  -21.7345  -11.0602 C   0  0  0  0  0  0  0  0  0  0  0  0
   30.5032  -22.6269  -11.1557 N   0  0  0  0  0  0  0  0  0  0  0  0
   29.5730  -20.6450  -11.9748 N   0  0  0  0  0  0  0  0  0  0  0  0
   28.5021  -19.6704  -11.9552 C   0  0  0  0  0  0  0  0  0  0  0  0
   27.4145  -20.0469  -12.9715 C   0  0  0  0  0  0  0  0  0  0  0  0
   27.6465  -19.1945  -14.1913 C   0  0  0  0  0  0  0  0  0  0  0  0
   26.6269  -19.4090  -15.2670 C   0  0  2  0  0  0  0  0  0  0  0  0
   26.8319  -18.6384  -16.4422 N   0  0  0  0  0  0  0  0  0  0  0  0
   25.3017  -18.9877  -14.6848 C   0  0  0  0  0  0  0  0  0  0  0  0
   24.9735  -17.7652  -14.5974 O   0  0  0  0  0  0  0  0  0  0  0  0
   31.2480  -22.5330  -11.8678 N   0  0  0  0  0  0  0  0  0  0  0  0
   21.0748  -18.2304  -17.3660 C   0  0  0  0  0  0  0  0  0  0  0  0
   20.3316  -18.2878  -16.1603 O   0  0  0  0  0  0  0  0  0  0  0  0
   19.1159  -17.9744  -16.1902 C   0  0  0  0  0  0  0  0  0  0  0  0
   20.9756  -18.7083  -14.9252 C   0  0  0  0  0  0  0  0  0  0  0  0
   22.4039  -19.0576  -14.9794 C   0  0  1  0  0  0  0  0  0  0  0  0
   23.0704  -19.6062  -13.7776 N   0  0  0  0  0  0  0  0  0  0  0  0
   24.4300  -19.9863  -14.2370 C   0  0  0  0  0  0  0  0  0  0  0  0
   22.4510  -20.6988  -13.0498 O   0  0  0  0  0  0  0  0  0  0  0  0
   21.5141  -20.5498  -12.2322 O   0  0  0  0  0  0  0  0  0  0  0  0
  2  1  1  6
  2  3  1  0
  4  2  1  0
  5  4  2  0
  6  7  1  0
  7  9  1  0
  7  8  2  0
  9 10  1  0
 10 11  1  0
 11 12  1  0
 13 12  1  1
 13 14  1  0
 14  4  1  0
 15 13  1  0
 15 16  2  0
 17 18  1  0
 18 20  1  0
 19 18  2  0
 20 21  1  0
 22 21  1  1
 22 23  1  0
 23 15  1  0
 24 22  1  0
 25 24  2  0
 26 24  1  0
M  END
$$$$
