ARQ.pdb
     RDKit          3D

 26 25  0  0  1  0  0  0  0  0999 V2000
   21.6284   -7.2973  -11.1782 C   0  0  0  0  0  0  0  0  0  0  0  0
   20.7729   -7.7914  -12.3525 C   0  0  2  0  0  0  0  0  0  0  0  0
   21.1392   -6.9641  -13.4834 N   0  0  0  0  0  0  0  0  0  0  0  0
   19.3460   -7.6440  -12.0506 C   0  0  0  0  0  0  0  0  0  0  0  0
   18.8252   -6.4873  -12.2242 O   0  0  0  0  0  0  0  0  0  0  0  0
   13.0838  -13.4372  -10.6605 N   0  0  0  0  0  0  0  0  0  0  0  0
   12.4824  -12.2241  -10.2215 C   0  0  0  0  0  0  0  0  0  0  0  0
   11.3373  -12.2107   -9.6586 N   0  0  0  0  0  0  0  0  0  0  0  0
   13.1888  -11.0057  -10.4230 N   0  0  0  0  0  0  0  0  0  0  0  0
   14.1384  -10.8583  -11.5063 C   0  0  0  0  0  0  0  0  0  0  0  0
   14.8315   -9.4903  -11.4306 C   0  0  0  0  0  0  0  0  0  0  0  0
   16.3142   -9.7551  -11.4184 C   0  0  0  0  0  0  0  0  0  0  0  0
   17.1396   -8.5062  -11.4576 C   0  0  2  0  0  0  0  0  0  0  0  0
   18.5380   -8.7218  -11.5809 N   0  0  0  0  0  0  0  0  0  0  0  0
   16.9121   -7.8063  -10.1419 C   0  0  0  0  0  0  0  0  0  0  0  0
   17.4160   -8.2423   -9.0622 O   0  0  0  0  0  0  0  0  0  0  0  0
   10.9042  -11.3104   -9.3891 N   0  0  0  0  0  0  0  0  0  0  0  0
   17.9259   -2.1860   -9.0952 C   0  0  0  0  0  0  0  0  0  0  0  0
   17.2064   -2.4884   -7.9119 O   0  0  0  0  0  0  0  0  0  0  0  0
   17.2552   -1.6748   -6.9564 C   0  0  0  0  0  0  0  0  0  0  0  0
   16.4284   -3.7147   -7.8239 C   0  0  0  0  0  0  0  0  0  0  0  0
   16.5192   -4.6677   -8.9413 C   0  0  1  0  0  0  0  0  0  0  0  0
   15.8368   -5.9771   -8.8451 N   0  0  0  0  0  0  0  0  0  0  0  0
   16.1232   -6.6509  -10.1366 C   0  0  0  0  0  0  0  0  0  0  0  0
   14.4174   -6.0258   -8.5451 O   0  0  0  0  0  0  0  0  0  0  0  0
   13.5270   -6.1929   -9.4098 O   0  0  0  0  0  0  0  0  0  0  0  0
  2  1  1  1
  2  3  1  0
  4  2  1  0
  5  4  2  0
  6  7  1  0
  7  9  1  0
  7  8  2  0
  9 10  1  0
 10 11  1  0
 11 12  1  0
 13 12  1  1
 13 14  1  0
 14  4  1  0
 15 13  1  0
 15 16  2  0
 17 18  1  0
 18 20  1  0
 19 18  2  0
 20 21  1  0
 22 21  1  1
 22 23  1  0
 23 15  1  0
 24 22  1  0
 25 24  2  0
 26 24  1  0
M  END
$$$$
