ARQ.pdb
     RDKit          3D

 26 25  0  0  1  0  0  0  0  0999 V2000
   28.2464  -20.2920  -17.7855 C   0  0  0  0  0  0  0  0  0  0  0  0
   28.5259  -21.5969  -17.0277 C   0  0  2  0  0  0  0  0  0  0  0  0
   28.5258  -22.6429  -18.0294 N   0  0  0  0  0  0  0  0  0  0  0  0
   27.4847  -21.8463  -16.0264 C   0  0  0  0  0  0  0  0  0  0  0  0
   27.7901  -22.5983  -15.0361 O   0  0  0  0  0  0  0  0  0  0  0  0
   25.8200  -20.5204   -9.0995 N   0  0  0  0  0  0  0  0  0  0  0  0
   24.5011  -20.9694   -9.3911 C   0  0  0  0  0  0  0  0  0  0  0  0
   23.5464  -20.8275   -8.5564 N   0  0  0  0  0  0  0  0  0  0  0  0
   24.2586  -21.5893  -10.6484 N   0  0  0  0  0  0  0  0  0  0  0  0
   25.2574  -21.5775  -11.6968 C   0  0  0  0  0  0  0  0  0  0  0  0
   25.0524  -20.3683  -12.6205 C   0  0  0  0  0  0  0  0  0  0  0  0
   25.9941  -20.5453  -13.7827 C   0  0  0  0  0  0  0  0  0  0  0  0
   25.3756  -21.2628  -14.9426 C   0  0  2  0  0  0  0  0  0  0  0  0
   26.1734  -21.2917  -16.1172 N   0  0  0  0  0  0  0  0  0  0  0  0
   24.1131  -20.5118  -15.2811 C   0  0  0  0  0  0  0  0  0  0  0  0
   24.0904  -19.2447  -15.3416 O   0  0  0  0  0  0  0  0  0  0  0  0
   22.5895  -21.1296   -8.8089 N   0  0  0  0  0  0  0  0  0  0  0  0
   18.9849  -22.7852  -13.0384 C   0  0  0  0  0  0  0  0  0  0  0  0
   18.5485  -21.5306  -13.5333 O   0  0  0  0  0  0  0  0  0  0  0  0
   17.4135  -21.1142  -13.1933 C   0  0  0  0  0  0  0  0  0  0  0  0
   19.4102  -20.7518  -14.4096 C   0  0  0  0  0  0  0  0  0  0  0  0
   20.7672  -21.2590  -14.6668 C   0  0  1  0  0  0  0  0  0  0  0  0
   21.6491  -20.5443  -15.6159 N   0  0  0  0  0  0  0  0  0  0  0  0
   22.9518  -21.2512  -15.5305 C   0  0  0  0  0  0  0  0  0  0  0  0
   21.8341  -19.1107  -15.4825 O   0  0  0  0  0  0  0  0  0  0  0  0
   22.7880  -18.5850  -14.8644 O   0  0  0  0  0  0  0  0  0  0  0  0
  2  1  1  6
  2  3  1  0
  4  2  1  0
  5  4  2  0
  6  7  1  0
  7  9  1  0
  7  8  2  0
  9 10  1  0
 10 11  1  0
 11 12  1  0
 13 12  1  1
 13 14  1  0
 14  4  1  0
 15 13  1  0
 15 16  2  0
 17 18  1  0
 18 20  1  0
 19 18  2  0
 20 21  1  0
 22 21  1  6
 22 23  1  0
 23 15  1  0
 24 22  1  0
 25 24  2  0
 26 24  1  0
M  END
$$$$
