ARQ.pdb
     RDKit          3D

 26 25  0  0  1  0  0  0  0  0999 V2000
   23.2379  -16.1055  -18.3940 C   0  0  0  0  0  0  0  0  0  0  0  0
   24.4653  -16.8138  -17.8052 C   0  0  2  0  0  0  0  0  0  0  0  0
   25.2730  -17.2123  -18.9393 N   0  0  0  0  0  0  0  0  0  0  0  0
   24.0605  -17.9882  -17.0267 C   0  0  0  0  0  0  0  0  0  0  0  0
   23.7615  -19.0497  -17.6772 O   0  0  0  0  0  0  0  0  0  0  0  0
   27.3233  -21.2127  -10.1872 N   0  0  0  0  0  0  0  0  0  0  0  0
   27.5428  -21.1820  -11.5932 C   0  0  0  0  0  0  0  0  0  0  0  0
   28.7078  -21.3320  -12.0917 N   0  0  0  0  0  0  0  0  0  0  0  0
   26.4251  -20.9780  -12.4494 N   0  0  0  0  0  0  0  0  0  0  0  0
   25.0693  -21.0635  -11.9480 C   0  0  0  0  0  0  0  0  0  0  0  0
   24.0615  -20.8140  -13.0792 C   0  0  0  0  0  0  0  0  0  0  0  0
   24.5235  -19.5793  -13.8076 C   0  0  0  0  0  0  0  0  0  0  0  0
   23.6316  -19.1952  -14.9476 C   0  0  2  0  0  0  0  0  0  0  0  0
   23.9905  -17.9867  -15.6018 N   0  0  0  0  0  0  0  0  0  0  0  0
   22.2578  -18.9920  -14.3610 C   0  0  0  0  0  0  0  0  0  0  0  0
   22.0193  -18.0569  -13.5374 O   0  0  0  0  0  0  0  0  0  0  0  0
   28.8411  -21.2888  -13.1169 N   0  0  0  0  0  0  0  0  0  0  0  0
   18.9763  -21.6204  -18.5914 C   0  0  0  0  0  0  0  0  0  0  0  0
   18.7302  -20.6086  -17.6296 O   0  0  0  0  0  0  0  0  0  0  0  0
   18.3177  -19.4912  -18.0275 C   0  0  0  0  0  0  0  0  0  0  0  0
   18.9492  -20.8763  -16.2163 C   0  0  0  0  0  0  0  0  0  0  0  0
   18.9570  -19.7306  -15.2931 C   0  0  1  0  0  0  0  0  0  0  0  0
   19.8901  -19.7210  -14.1449 N   0  0  0  0  0  0  0  0  0  0  0  0
   21.2382  -19.8679  -14.7492 C   0  0  0  0  0  0  0  0  0  0  0  0
   19.7065  -20.6719  -13.0636 O   0  0  0  0  0  0  0  0  0  0  0  0
   20.4610  -21.6506  -12.8598 O   0  0  0  0  0  0  0  0  0  0  0  0
  2  1  1  6
  2  3  1  0
  4  2  1  0
  5  4  2  0
  6  7  1  0
  7  9  1  0
  7  8  2  0
  9 10  1  0
 10 11  1  0
 11 12  1  0
 13 12  1  1
 13 14  1  0
 14  4  1  0
 15 13  1  0
 15 16  2  0
 17 18  1  0
 18 20  1  0
 19 18  2  0
 20 21  1  0
 22 21  1  6
 22 23  1  0
 23 15  1  0
 24 22  1  0
 25 24  2  0
 26 24  1  0
M  END
$$$$
