ARQ.pdb
     RDKit          3D

 26 25  0  0  1  0  0  0  0  0999 V2000
   25.1774  -25.1438  -18.4746 C   0  0  0  0  0  0  0  0  0  0  0  0
   25.8873  -24.8200  -17.1532 C   0  0  2  0  0  0  0  0  0  0  0  0
   26.4979  -26.0594  -16.7189 N   0  0  0  0  0  0  0  0  0  0  0  0
   24.9266  -24.3443  -16.1533 C   0  0  0  0  0  0  0  0  0  0  0  0
   24.0549  -25.1818  -15.7311 O   0  0  0  0  0  0  0  0  0  0  0  0
   24.1229  -20.4359   -8.8996 N   0  0  0  0  0  0  0  0  0  0  0  0
   25.3256  -20.6190   -9.6385 C   0  0  0  0  0  0  0  0  0  0  0  0
   26.4529  -20.7593   -9.0573 N   0  0  0  0  0  0  0  0  0  0  0  0
   25.2512  -20.6438  -11.0590 N   0  0  0  0  0  0  0  0  0  0  0  0
   24.0788  -20.1608  -11.7584 C   0  0  0  0  0  0  0  0  0  0  0  0
   23.4635  -21.2793  -12.6115 C   0  0  0  0  0  0  0  0  0  0  0  0
   24.4883  -21.6442  -13.6533 C   0  0  0  0  0  0  0  0  0  0  0  0
   24.0064  -22.6800  -14.6215 C   0  0  2  0  0  0  0  0  0  0  0  0
   24.9312  -23.0104  -15.6475 N   0  0  0  0  0  0  0  0  0  0  0  0
   22.7876  -22.0988  -15.2919 C   0  0  0  0  0  0  0  0  0  0  0  0
   22.8849  -21.2023  -16.1844 O   0  0  0  0  0  0  0  0  0  0  0  0
   27.3159  -20.8578   -9.6197 N   0  0  0  0  0  0  0  0  0  0  0  0
   15.8943  -24.0562  -15.7591 C   0  0  0  0  0  0  0  0  0  0  0  0
   17.1556  -24.0116  -16.4045 O   0  0  0  0  0  0  0  0  0  0  0  0
   17.4889  -24.9764  -17.1361 C   0  0  0  0  0  0  0  0  0  0  0  0
   18.0304  -22.8639  -16.2185 C   0  0  0  0  0  0  0  0  0  0  0  0
   19.3725  -23.1053  -15.6658 C   0  0  1  0  0  0  0  0  0  0  0  0
   20.3130  -21.9745  -15.5048 N   0  0  0  0  0  0  0  0  0  0  0  0
   21.5305  -22.5752  -14.9041 C   0  0  0  0  0  0  0  0  0  0  0  0
   19.9004  -20.7989  -14.7600 O   0  0  0  0  0  0  0  0  0  0  0  0
   20.1402  -20.6245  -13.5432 O   0  0  0  0  0  0  0  0  0  0  0  0
  2  1  1  6
  2  3  1  0
  4  2  1  0
  5  4  2  0
  6  7  1  0
  7  9  1  0
  7  8  2  0
  9 10  1  0
 10 11  1  0
 11 12  1  0
 13 12  1  1
 13 14  1  0
 14  4  1  0
 15 13  1  0
 15 16  2  0
 17 18  1  0
 18 20  1  0
 19 18  2  0
 20 21  1  0
 22 21  1  6
 22 23  1  0
 23 15  1  0
 24 22  1  0
 25 24  2  0
 26 24  1  0
M  END
$$$$
