ARQ.pdb
     RDKit          3D

 26 25  0  0  1  0  0  0  0  0999 V2000
   15.7267  -13.5055  -14.3625 C   0  0  0  0  0  0  0  0  0  0  0  0
   15.0086  -12.3427  -13.6646 C   0  0  2  0  0  0  0  0  0  0  0  0
   14.0610  -11.8269  -14.6307 N   0  0  0  0  0  0  0  0  0  0  0  0
   15.9654  -11.3011  -13.2788 C   0  0  0  0  0  0  0  0  0  0  0  0
   16.7893  -11.5791  -12.3390 O   0  0  0  0  0  0  0  0  0  0  0  0
   15.0608   -5.0471  -16.5209 N   0  0  0  0  0  0  0  0  0  0  0  0
   16.3425   -4.6431  -16.0516 C   0  0  0  0  0  0  0  0  0  0  0  0
   16.5545   -3.4615  -15.6191 N   0  0  0  0  0  0  0  0  0  0  0  0
   17.4020   -5.5924  -16.0722 N   0  0  0  0  0  0  0  0  0  0  0  0
   17.2076   -6.9235  -16.6083 C   0  0  0  0  0  0  0  0  0  0  0  0
   16.5035   -7.8195  -15.5793 C   0  0  0  0  0  0  0  0  0  0  0  0
   17.5454   -8.2216  -14.5688 C   0  0  0  0  0  0  0  0  0  0  0  0
   17.0093   -9.1030  -13.4833 C   0  0  2  0  0  0  0  0  0  0  0  0
   16.0072  -10.0183  -13.9017 N   0  0  0  0  0  0  0  0  0  0  0  0
   16.3776   -8.1865  -12.4666 C   0  0  0  0  0  0  0  0  0  0  0  0
   15.1372   -7.9212  -12.4922 O   0  0  0  0  0  0  0  0  0  0  0  0
   17.4765   -3.2149  -15.2193 N   0  0  0  0  0  0  0  0  0  0  0  0
   12.7471   -6.4616   -7.6701 C   0  0  0  0  0  0  0  0  0  0  0  0
   13.5414   -7.4196   -8.3489 O   0  0  0  0  0  0  0  0  0  0  0  0
   12.9809   -8.4446   -8.8097 C   0  0  0  0  0  0  0  0  0  0  0  0
   14.9716   -7.2027   -8.5055 C   0  0  0  0  0  0  0  0  0  0  0  0
   15.6005   -7.6451   -9.7600 C   0  0  1  0  0  0  0  0  0  0  0  0
   16.5893   -6.7730  -10.4315 N   0  0  0  0  0  0  0  0  0  0  0  0
   17.1989   -7.6276  -11.4814 C   0  0  0  0  0  0  0  0  0  0  0  0
   17.6169   -6.1156   -9.6449 O   0  0  0  0  0  0  0  0  0  0  0  0
   18.8082   -6.4988   -9.5938 O   0  0  0  0  0  0  0  0  0  0  0  0
  2  1  1  6
  2  3  1  0
  4  2  1  0
  5  4  2  0
  6  7  1  0
  7  9  1  0
  7  8  2  0
  9 10  1  0
 10 11  1  0
 11 12  1  0
 13 12  1  6
 13 14  1  0
 14  4  1  0
 15 13  1  0
 15 16  2  0
 17 18  1  0
 18 20  1  0
 19 18  2  0
 20 21  1  0
 22 21  1  6
 22 23  1  0
 23 15  1  0
 24 22  1  0
 25 24  2  0
 26 24  1  0
M  END
$$$$
