ARQ.pdb
     RDKit          3D

 26 25  0  0  1  0  0  0  0  0999 V2000
   27.3436  -20.2105  -16.8987 C   0  0  0  0  0  0  0  0  0  0  0  0
   27.6980  -21.2975  -15.8752 C   0  0  2  0  0  0  0  0  0  0  0  0
   27.9364  -22.5014  -16.6442 N   0  0  0  0  0  0  0  0  0  0  0  0
   26.5928  -21.5013  -14.9338 C   0  0  0  0  0  0  0  0  0  0  0  0
   25.7299  -22.4007  -15.2269 O   0  0  0  0  0  0  0  0  0  0  0  0
   24.3665  -21.9805   -7.1633 N   0  0  0  0  0  0  0  0  0  0  0  0
   23.1783  -21.3169   -7.5802 C   0  0  0  0  0  0  0  0  0  0  0  0
   22.0261  -21.6975   -7.1856 N   0  0  0  0  0  0  0  0  0  0  0  0
   23.2961  -20.2040   -8.4585 N   0  0  0  0  0  0  0  0  0  0  0  0
   24.4512  -20.0436   -9.3170 C   0  0  0  0  0  0  0  0  0  0  0  0
   24.2115  -20.7236  -10.6726 C   0  0  0  0  0  0  0  0  0  0  0  0
   25.4367  -20.4661  -11.5100 C   0  0  0  0  0  0  0  0  0  0  0  0
   25.3344  -21.0221  -12.8967 C   0  0  2  0  0  0  0  0  0  0  0  0
   26.4509  -20.7480  -13.7307 N   0  0  0  0  0  0  0  0  0  0  0  0
   24.1347  -20.3642  -13.5296 C   0  0  0  0  0  0  0  0  0  0  0  0
   24.2175  -19.2265  -14.0851 O   0  0  0  0  0  0  0  0  0  0  0  0
   21.1768  -21.2169   -7.5298 N   0  0  0  0  0  0  0  0  0  0  0  0
   21.3535  -18.8769  -17.8662 C   0  0  0  0  0  0  0  0  0  0  0  0
   20.9283  -20.2279  -17.8065 O   0  0  0  0  0  0  0  0  0  0  0  0
   20.2257  -20.6770  -18.7454 C   0  0  0  0  0  0  0  0  0  0  0  0
   21.3110  -21.0643  -16.6791 C   0  0  0  0  0  0  0  0  0  0  0  0
   22.1805  -20.4740  -15.6493 C   0  0  1  0  0  0  0  0  0  0  0  0
   21.7526  -20.4878  -14.2330 N   0  0  0  0  0  0  0  0  0  0  0  0
   22.9122  -21.0436  -13.4910 C   0  0  0  0  0  0  0  0  0  0  0  0
   20.5289  -21.1737  -13.8601 O   0  0  0  0  0  0  0  0  0  0  0  0
   20.4917  -22.1751  -13.1089 O   0  0  0  0  0  0  0  0  0  0  0  0
  2  1  1  6
  2  3  1  0
  4  2  1  0
  5  4  2  0
  6  7  1  0
  7  9  1  0
  7  8  2  0
  9 10  1  0
 10 11  1  0
 11 12  1  0
 13 12  1  1
 13 14  1  0
 14  4  1  0
 15 13  1  0
 15 16  2  0
 17 18  1  0
 18 20  1  0
 19 18  2  0
 20 21  1  0
 22 21  1  1
 22 23  1  0
 23 15  1  0
 24 22  1  0
 25 24  2  0
 26 24  1  0
M  END
$$$$
