ARQ.pdb
     RDKit          3D

 26 25  0  0  1  0  0  0  0  0999 V2000
   26.6188  -23.7598  -17.8396 C   0  0  0  0  0  0  0  0  0  0  0  0
   26.8264  -24.2330  -16.3947 C   0  0  2  0  0  0  0  0  0  0  0  0
   26.6195  -25.6663  -16.4150 N   0  0  0  0  0  0  0  0  0  0  0  0
   25.8633  -23.5890  -15.4964 C   0  0  0  0  0  0  0  0  0  0  0  0
   24.6794  -24.0753  -15.4584 O   0  0  0  0  0  0  0  0  0  0  0  0
   23.1597  -20.2160   -9.4726 N   0  0  0  0  0  0  0  0  0  0  0  0
   24.1549  -20.6678   -8.5607 C   0  0  0  0  0  0  0  0  0  0  0  0
   23.8677  -20.9768   -7.3564 N   0  0  0  0  0  0  0  0  0  0  0  0
   25.4976  -20.7717   -9.0195 N   0  0  0  0  0  0  0  0  0  0  0  0
   25.8543  -20.4331  -10.3814 C   0  0  0  0  0  0  0  0  0  0  0  0
   25.2417  -21.4417  -11.3638 C   0  0  0  0  0  0  0  0  0  0  0  0
   25.7030  -21.0415  -12.7406 C   0  0  0  0  0  0  0  0  0  0  0  0
   25.1925  -21.9430  -13.8220 C   0  0  2  0  0  0  0  0  0  0  0  0
   26.1944  -22.4650  -14.6827 N   0  0  0  0  0  0  0  0  0  0  0  0
   24.2693  -21.1062  -14.6706 C   0  0  0  0  0  0  0  0  0  0  0  0
   24.7126  -20.1919  -15.4305 O   0  0  0  0  0  0  0  0  0  0  0  0
   24.5882  -21.3981   -6.7448 N   0  0  0  0  0  0  0  0  0  0  0  0
   18.9030  -23.3132  -16.7328 C   0  0  0  0  0  0  0  0  0  0  0  0
   18.6898  -21.9255  -16.9286 O   0  0  0  0  0  0  0  0  0  0  0  0
   17.6058  -21.5522  -17.4411 C   0  0  0  0  0  0  0  0  0  0  0  0
   19.7110  -20.9673  -16.5335 C   0  0  0  0  0  0  0  0  0  0  0  0
   20.9039  -21.4803  -15.8416 C   0  0  1  0  0  0  0  0  0  0  0  0
   21.9653  -20.5412  -15.4167 N   0  0  0  0  0  0  0  0  0  0  0  0
   22.8956  -21.3624  -14.6017 C   0  0  0  0  0  0  0  0  0  0  0  0
   21.6060  -19.3234  -14.7133 O   0  0  0  0  0  0  0  0  0  0  0  0
   21.3111  -19.2816  -13.4968 O   0  0  0  0  0  0  0  0  0  0  0  0
  2  1  1  6
  2  3  1  0
  4  2  1  0
  5  4  2  0
  6  7  1  0
  7  9  1  0
  7  8  2  0
  9 10  1  0
 10 11  1  0
 11 12  1  0
 13 12  1  1
 13 14  1  0
 14  4  1  0
 15 13  1  0
 15 16  2  0
 17 18  1  0
 18 20  1  0
 19 18  2  0
 20 21  1  0
 22 21  1  6
 22 23  1  0
 23 15  1  0
 24 22  1  0
 25 24  2  0
 26 24  1  0
M  END
$$$$
