ARQ.pdb
     RDKit          3D

 26 25  0  0  1  0  0  0  0  0999 V2000
   27.7248  -25.0369  -17.5682 C   0  0  0  0  0  0  0  0  0  0  0  0
   27.2784  -23.5688  -17.5562 C   0  0  2  0  0  0  0  0  0  0  0  0
   28.4936  -22.7874  -17.4548 N   0  0  0  0  0  0  0  0  0  0  0  0
   26.4021  -23.3041  -16.4111 C   0  0  0  0  0  0  0  0  0  0  0  0
   25.2764  -23.9135  -16.3797 O   0  0  0  0  0  0  0  0  0  0  0  0
   23.3876  -19.9109  -10.1182 N   0  0  0  0  0  0  0  0  0  0  0  0
   24.1013  -20.7285   -9.1973 C   0  0  0  0  0  0  0  0  0  0  0  0
   23.6218  -21.0208   -8.0515 N   0  0  0  0  0  0  0  0  0  0  0  0
   25.3791  -21.2235   -9.5795 N   0  0  0  0  0  0  0  0  0  0  0  0
   26.0242  -20.7773  -10.7968 C   0  0  0  0  0  0  0  0  0  0  0  0
   25.2944  -21.3352  -12.0271 C   0  0  0  0  0  0  0  0  0  0  0  0
   26.3473  -21.6111  -13.0682 C   0  0  0  0  0  0  0  0  0  0  0  0
   25.7880  -22.1506  -14.3483 C   0  0  2  0  0  0  0  0  0  0  0  0
   26.7544  -22.4111  -15.3559 N   0  0  0  0  0  0  0  0  0  0  0  0
   24.8604  -21.0906  -14.8855 C   0  0  0  0  0  0  0  0  0  0  0  0
   25.2920  -19.9559  -15.2543 O   0  0  0  0  0  0  0  0  0  0  0  0
   24.1771  -21.5887   -7.3882 N   0  0  0  0  0  0  0  0  0  0  0  0
   20.2647  -22.4201  -18.5293 C   0  0  0  0  0  0  0  0  0  0  0  0
   19.9689  -21.0590  -18.2663 O   0  0  0  0  0  0  0  0  0  0  0  0
   19.0562  -20.5054  -18.9278 C   0  0  0  0  0  0  0  0  0  0  0  0
   20.7108  -20.3349  -17.2453 C   0  0  0  0  0  0  0  0  0  0  0  0
   21.8218  -21.0322  -16.5788 C   0  0  1  0  0  0  0  0  0  0  0  0
   22.5620  -20.3580  -15.4894 N   0  0  0  0  0  0  0  0  0  0  0  0
   23.4960  -21.3884  -14.9699 C   0  0  0  0  0  0  0  0  0  0  0  0
   21.8287  -19.7358  -14.4021 O   0  0  0  0  0  0  0  0  0  0  0  0
   21.4474  -20.3477  -13.3780 O   0  0  0  0  0  0  0  0  0  0  0  0
  2  1  1  1
  2  3  1  0
  4  2  1  0
  5  4  2  0
  6  7  1  0
  7  9  1  0
  7  8  2  0
  9 10  1  0
 10 11  1  0
 11 12  1  0
 13 12  1  1
 13 14  1  0
 14  4  1  0
 15 13  1  0
 15 16  2  0
 17 18  1  0
 18 20  1  0
 19 18  2  0
 20 21  1  0
 22 21  1  6
 22 23  1  0
 23 15  1  0
 24 22  1  0
 25 24  2  0
 26 24  1  0
M  END
$$$$
