ARQ.pdb
     RDKit          3D

 26 25  0  0  1  0  0  0  0  0999 V2000
   25.6634  -22.0478  -18.4020 C   0  0  0  0  0  0  0  0  0  0  0  0
   26.2860  -22.5086  -17.0772 C   0  0  2  0  0  0  0  0  0  0  0  0
   26.7127  -23.8752  -17.2956 N   0  0  0  0  0  0  0  0  0  0  0  0
   25.3005  -22.4465  -15.9937 C   0  0  0  0  0  0  0  0  0  0  0  0
   24.3047  -23.2487  -16.0586 O   0  0  0  0  0  0  0  0  0  0  0  0
   24.2123  -19.3792   -9.6586 N   0  0  0  0  0  0  0  0  0  0  0  0
   24.3412  -20.6611   -9.0536 C   0  0  0  0  0  0  0  0  0  0  0  0
   23.5982  -21.0188   -8.0797 N   0  0  0  0  0  0  0  0  0  0  0  0
   25.3274  -21.5532   -9.5591 N   0  0  0  0  0  0  0  0  0  0  0  0
   26.2425  -21.1466  -10.6052 C   0  0  0  0  0  0  0  0  0  0  0  0
   25.8920  -21.8451  -11.9268 C   0  0  0  0  0  0  0  0  0  0  0  0
   24.7997  -21.0323  -12.5709 C   0  0  0  0  0  0  0  0  0  0  0  0
   24.3867  -21.5526  -13.9130 C   0  0  2  0  0  0  0  0  0  0  0  0
   25.4123  -21.5428  -14.8954 N   0  0  0  0  0  0  0  0  0  0  0  0
   23.2926  -20.6387  -14.4035 C   0  0  0  0  0  0  0  0  0  0  0  0
   23.5416  -19.6530  -15.1625 O   0  0  0  0  0  0  0  0  0  0  0  0
   23.7247  -21.9507   -7.6480 N   0  0  0  0  0  0  0  0  0  0  0  0
   21.6417  -21.6030  -18.8612 C   0  0  0  0  0  0  0  0  0  0  0  0
   20.4494  -20.8846  -18.5934 O   0  0  0  0  0  0  0  0  0  0  0  0
   19.6545  -20.6680  -19.5412 C   0  0  0  0  0  0  0  0  0  0  0  0
   20.1643  -20.4208  -17.2441 C   0  0  0  0  0  0  0  0  0  0  0  0
   21.1018  -20.7987  -16.1750 C   0  0  2  0  0  0  0  0  0  0  0  0
   20.8533  -20.3462  -14.7884 N   0  0  0  0  0  0  0  0  0  0  0  0
   21.9799  -20.9040  -13.9987 C   0  0  0  0  0  0  0  0  0  0  0  0
   19.5834  -20.6466  -14.1527 O   0  0  0  0  0  0  0  0  0  0  0  0
   18.6518  -19.8186  -14.0297 O   0  0  0  0  0  0  0  0  0  0  0  0
  2  1  1  6
  2  3  1  0
  4  2  1  0
  5  4  2  0
  6  7  1  0
  7  9  1  0
  7  8  2  0
  9 10  1  0
 10 11  1  0
 11 12  1  0
 13 12  1  1
 13 14  1  0
 14  4  1  0
 15 13  1  0
 15 16  2  0
 17 18  1  0
 18 20  1  0
 19 18  2  0
 20 21  1  0
 22 21  1  6
 22 23  1  0
 23 15  1  0
 24 22  1  0
 25 24  2  0
 26 24  1  0
M  END
$$$$
