ARQ.pdb
     RDKit          3D

 26 25  0  0  1  0  0  0  0  0999 V2000
   24.4643  -12.9737  -17.5719 C   0  0  0  0  0  0  0  0  0  0  0  0
   24.8350  -11.7297  -16.7534 C   0  0  2  0  0  0  0  0  0  0  0  0
   25.0673  -12.1999  -15.4035 N   0  0  0  0  0  0  0  0  0  0  0  0
   23.7425  -10.7524  -16.7747 C   0  0  0  0  0  0  0  0  0  0  0  0
   23.4624  -10.2089  -17.8997 O   0  0  0  0  0  0  0  0  0  0  0  0
   16.0315  -11.8864  -14.1815 N   0  0  0  0  0  0  0  0  0  0  0  0
   16.7103  -12.6569  -15.1673 C   0  0  0  0  0  0  0  0  0  0  0  0
   16.2717  -13.7936  -15.5465 N   0  0  0  0  0  0  0  0  0  0  0  0
   17.9053  -12.1321  -15.7333 N   0  0  0  0  0  0  0  0  0  0  0  0
   18.3910  -10.8157  -15.3754 C   0  0  0  0  0  0  0  0  0  0  0  0
   19.6825  -10.4933  -16.1406 C   0  0  0  0  0  0  0  0  0  0  0  0
   20.6393   -9.8934  -15.1438 C   0  0  0  0  0  0  0  0  0  0  0  0
   21.9376   -9.4631  -15.7534 C   0  0  2  0  0  0  0  0  0  0  0  0
   22.9992  -10.3957  -15.6105 N   0  0  0  0  0  0  0  0  0  0  0  0
   22.3496   -8.2064  -15.0298 C   0  0  0  0  0  0  0  0  0  0  0  0
   22.9783   -8.2502  -13.9287 O   0  0  0  0  0  0  0  0  0  0  0  0
   16.7621  -14.3136  -16.2947 N   0  0  0  0  0  0  0  0  0  0  0  0
   22.2428   -2.7011  -18.0371 C   0  0  0  0  0  0  0  0  0  0  0  0
   22.5776   -2.2980  -16.7200 O   0  0  0  0  0  0  0  0  0  0  0  0
   22.7473   -1.0747  -16.4926 C   0  0  0  0  0  0  0  0  0  0  0  0
   22.7117   -3.2907  -15.6648 C   0  0  0  0  0  0  0  0  0  0  0  0
   22.4158   -4.6928  -15.9986 C   0  0  1  0  0  0  0  0  0  0  0  0
   22.4595   -5.7237  -14.9382 N   0  0  0  0  0  0  0  0  0  0  0  0
   22.0196   -6.9747  -15.6057 C   0  0  0  0  0  0  0  0  0  0  0  0
   21.7239   -5.5150  -13.7043 O   0  0  0  0  0  0  0  0  0  0  0  0
   20.5165   -5.8117  -13.5533 O   0  0  0  0  0  0  0  0  0  0  0  0
  2  1  1  6
  2  3  1  0
  4  2  1  0
  5  4  2  0
  6  7  1  0
  7  9  1  0
  7  8  2  0
  9 10  1  0
 10 11  1  0
 11 12  1  0
 13 12  1  1
 13 14  1  0
 14  4  1  0
 15 13  1  0
 15 16  2  0
 17 18  1  0
 18 20  1  0
 19 18  2  0
 20 21  1  0
 22 21  1  6
 22 23  1  0
 23 15  1  0
 24 22  1  0
 25 24  2  0
 26 24  1  0
M  END
$$$$
