ARQ.pdb
     RDKit          3D

 26 25  0  0  1  0  0  0  0  0999 V2000
   23.8901  -26.8030  -16.4969 C   0  0  0  0  0  0  0  0  0  0  0  0
   24.0506  -25.3290  -16.8926 C   0  0  2  0  0  0  0  0  0  0  0  0
   25.4633  -25.1410  -17.1507 N   0  0  0  0  0  0  0  0  0  0  0  0
   23.6069  -24.4507  -15.8060 C   0  0  0  0  0  0  0  0  0  0  0  0
   22.3585  -24.4524  -15.5219 O   0  0  0  0  0  0  0  0  0  0  0  0
   28.0990  -20.4974   -9.8435 N   0  0  0  0  0  0  0  0  0  0  0  0
   28.0447  -20.6091  -11.2615 C   0  0  0  0  0  0  0  0  0  0  0  0
   29.0674  -20.3818  -11.9900 N   0  0  0  0  0  0  0  0  0  0  0  0
   26.8123  -20.9845  -11.8651 N   0  0  0  0  0  0  0  0  0  0  0  0
   25.5627  -20.8969  -11.1386 C   0  0  0  0  0  0  0  0  0  0  0  0
   24.3966  -21.3742  -12.0161 C   0  0  0  0  0  0  0  0  0  0  0  0
   24.9934  -22.2268  -13.1048 C   0  0  0  0  0  0  0  0  0  0  0  0
   23.9677  -22.8360  -14.0100 C   0  0  2  0  0  0  0  0  0  0  0  0
   24.4997  -23.6141  -15.0724 N   0  0  0  0  0  0  0  0  0  0  0  0
   23.2168  -21.6869  -14.6334 C   0  0  0  0  0  0  0  0  0  0  0  0
   23.7623  -20.9222  -15.4862 O   0  0  0  0  0  0  0  0  0  0  0  0
   29.0075  -20.4991  -13.0163 N   0  0  0  0  0  0  0  0  0  0  0  0
   17.9676  -22.7761  -12.4521 C   0  0  0  0  0  0  0  0  0  0  0  0
   17.9299  -21.9632  -13.6127 O   0  0  0  0  0  0  0  0  0  0  0  0
   17.0666  -22.2113  -14.4903 C   0  0  0  0  0  0  0  0  0  0  0  0
   18.8730  -20.8660  -13.7663 C   0  0  0  0  0  0  0  0  0  0  0  0
   19.7360  -20.8631  -14.9580 C   0  0  1  0  0  0  0  0  0  0  0  0
   21.1243  -20.3618  -14.8564 N   0  0  0  0  0  0  0  0  0  0  0  0
   21.8884  -21.4791  -14.2465 C   0  0  0  0  0  0  0  0  0  0  0  0
   21.3882  -19.1179  -14.1562 O   0  0  0  0  0  0  0  0  0  0  0  0
   21.8242  -19.0564  -12.9837 O   0  0  0  0  0  0  0  0  0  0  0  0
  2  1  1  1
  2  3  1  0
  4  2  1  0
  5  4  2  0
  6  7  1  0
  7  9  1  0
  7  8  2  0
  9 10  1  0
 10 11  1  0
 11 12  1  0
 13 12  1  1
 13 14  1  0
 14  4  1  0
 15 13  1  0
 15 16  2  0
 17 18  1  0
 18 20  1  0
 19 18  2  0
 20 21  1  0
 22 21  1  6
 22 23  1  0
 23 15  1  0
 24 22  1  0
 25 24  2  0
 26 24  1  0
M  END
$$$$
