ARQ.pdb
     RDKit          3D

 26 25  0  0  1  0  0  0  0  0999 V2000
   24.7056  -20.9852   -8.9143 C   0  0  0  0  0  0  0  0  0  0  0  0
   26.0825  -20.8515   -9.5785 C   0  0  2  0  0  0  0  0  0  0  0  0
   26.7936  -19.8475   -8.8145 N   0  0  0  0  0  0  0  0  0  0  0  0
   25.9438  -20.4293  -10.9755 C   0  0  0  0  0  0  0  0  0  0  0  0
   25.7445  -19.1838  -11.1957 O   0  0  0  0  0  0  0  0  0  0  0  0
   29.4797  -23.4045  -17.9861 N   0  0  0  0  0  0  0  0  0  0  0  0
   29.3382  -23.4808  -16.5718 C   0  0  0  0  0  0  0  0  0  0  0  0
   30.0466  -24.2778  -15.8709 N   0  0  0  0  0  0  0  0  0  0  0  0
   28.3790  -22.6412  -15.9403 N   0  0  0  0  0  0  0  0  0  0  0  0
   27.5100  -21.7792  -16.7140 C   0  0  0  0  0  0  0  0  0  0  0  0
   26.6427  -20.9175  -15.7852 C   0  0  0  0  0  0  0  0  0  0  0  0
   26.6812  -21.5686  -14.4276 C   0  0  0  0  0  0  0  0  0  0  0  0
   25.9128  -20.8146  -13.3866 C   0  0  2  0  0  0  0  0  0  0  0  0
   26.0217  -21.3393  -12.0714 N   0  0  0  0  0  0  0  0  0  0  0  0
   24.4610  -20.9056  -13.7827 C   0  0  0  0  0  0  0  0  0  0  0  0
   23.7320  -21.8764  -13.4142 O   0  0  0  0  0  0  0  0  0  0  0  0
   29.8992  -24.3374  -14.8484 N   0  0  0  0  0  0  0  0  0  0  0  0
   21.7273  -15.9505  -16.5516 C   0  0  0  0  0  0  0  0  0  0  0  0
   20.6349  -16.8406  -16.3972 O   0  0  0  0  0  0  0  0  0  0  0  0
   19.5116  -16.4929  -16.8382 C   0  0  0  0  0  0  0  0  0  0  0  0
   20.8282  -18.1272  -15.7459 C   0  0  0  0  0  0  0  0  0  0  0  0
   22.1956  -18.4979  -15.3489 C   0  0  1  0  0  0  0  0  0  0  0  0
   22.4666  -19.8596  -14.8373 N   0  0  0  0  0  0  0  0  0  0  0  0
   23.9278  -19.8836  -14.5756 C   0  0  0  0  0  0  0  0  0  0  0  0
   22.0674  -21.0133  -15.6226 O   0  0  0  0  0  0  0  0  0  0  0  0
   22.7385  -21.4760  -16.5734 O   0  0  0  0  0  0  0  0  0  0  0  0
  2  1  1  1
  2  3  1  0
  4  2  1  0
  5  4  2  0
  6  7  1  0
  7  9  1  0
  7  8  2  0
  9 10  1  0
 10 11  1  0
 11 12  1  0
 13 12  1  6
 13 14  1  0
 14  4  1  0
 15 13  1  0
 15 16  2  0
 17 18  1  0
 18 20  1  0
 19 18  2  0
 20 21  1  0
 22 21  1  1
 22 23  1  0
 23 15  1  0
 24 22  1  0
 25 24  2  0
 26 24  1  0
M  END
$$$$
