RLW.pdb
     RDKit          3D

 34 35  0  0  1  0  0  0  0  0999 V2000
   32.1654  -25.3801  -15.8141 N   0  0  0  0  0  0  0  0  0  0  0  0
   31.0421  -25.7881  -16.6515 C   0  0  0  0  0  0  0  0  0  0  0  0
   30.8677  -27.0150  -16.9221 N   0  0  0  0  0  0  0  0  0  0  0  0
   30.1654  -24.7938  -17.1526 N   0  0  0  0  0  0  0  0  0  0  0  0
   30.1826  -23.4231  -16.7860 C   0  0  0  0  0  0  0  0  0  0  0  0
   29.7024  -23.0347  -15.4374 C   0  0  0  0  0  0  0  0  0  0  0  0
   28.1649  -22.9871  -15.3879 C   0  0  0  0  0  0  0  0  0  0  0  0
   27.6600  -21.6361  -15.0115 C   0  0  2  0  0  0  0  0  0  0  0  0
   28.7330  -20.8764  -14.4150 N   0  0  0  0  0  0  0  0  0  0  0  0
   26.5714  -21.7536  -13.9659 C   0  0  0  0  0  0  0  0  0  0  0  0
   25.6378  -22.5320  -14.1693 O   0  0  0  0  0  0  0  0  0  0  0  0
   30.1893  -27.3893  -17.5610 C   0  0  0  0  0  0  0  0  0  0  0  0
   26.2966  -20.0493   -8.1306 C   0  0  1  0  0  0  0  0  0  0  0  0
   25.3695  -20.5558   -9.2507 C   0  0  0  0  0  0  0  0  0  0  0  0
   24.7979  -21.8961   -8.8207 C   0  0  0  0  0  0  0  0  0  0  0  0
   26.2259  -20.6569  -10.4736 C   0  0  2  0  0  0  0  0  0  0  0  0
   25.5594  -20.9804  -11.7608 N   0  0  0  0  0  0  0  0  0  0  0  0
   26.6389  -20.9799  -12.7896 C   0  0  0  0  0  0  0  0  0  0  0  0
   24.4556  -20.1497  -12.2020 O   0  0  0  0  0  0  0  0  0  0  0  0
   24.4923  -18.8916  -11.9092 N   0  0  0  0  0  0  0  0  0  0  0  0
   23.3568  -20.6228  -12.9275 C   0  0  1  0  0  0  0  0  0  0  0  0
   22.7182  -19.8964  -14.0340 C   0  0  0  0  0  0  0  0  0  0  0  0
   23.5898  -19.8726  -15.2248 C   0  0  0  0  0  0  0  0  0  0  0  0
   24.5701  -18.7864  -15.2303 C   0  0  0  0  0  0  0  0  0  0  0  0
   24.6171  -17.6833  -14.3693 N   0  0  0  0  0  0  0  0  0  0  0  0
   25.6335  -16.8761  -14.6959 C   0  0  0  0  0  0  0  0  0  0  0  0
   26.2867  -17.4009  -15.7622 C   0  0  0  0  0  0  0  0  0  0  0  0
   27.3903  -17.0163  -16.4897 C   0  0  0  0  0  0  0  0  0  0  0  0
   27.8685  -17.7736  -17.5430 C   0  0  0  0  0  0  0  0  0  0  0  0
   27.2266  -18.9416  -17.8743 C   0  0  0  0  0  0  0  0  0  0  0  0
   26.1261  -19.3313  -17.1551 C   0  0  0  0  0  0  0  0  0  0  0  0
   25.6294  -18.5858  -16.0954 C   0  0  0  0  0  0  0  0  0  0  0  0
   21.4148  -20.4920  -14.2756 O   0  0  0  0  0  0  0  0  0  0  0  0
   20.2238  -19.7792  -14.4672 O   0  0  0  0  0  0  0  0  0  0  0  0
  1  2  1  0
  2  3  2  0
  4  2  1  0
  5  4  1  0
  6  5  1  0
  7  6  1  0
  8  7  1  0
  8  9  1  1
 10 11  2  0
 10  8  1  0
 13 12  1  1
 13 15  1  0
 14 13  1  0
 16 15  1  1
 16 17  1  0
 17 10  1  0
 18 19  2  0
 18 16  1  0
 20 18  1  0
 21 20  1  0
 21 22  1  6
 22 23  1  0
 23 31  1  0
 23 24  2  0
 24 25  1  0
 25 26  1  0
 26 27  2  0
 28 27  1  0
 29 28  2  0
 30 31  2  0
 30 29  1  0
 31 26  1  0
 32 21  1  0
 33 32  1  0
 34 32  2  0
M  END
$$$$
