RLW.pdb
     RDKit          3D

 34 35  0  0  1  0  0  0  0  0999 V2000
   28.2049  -17.7695  -21.1380 N   0  0  0  0  0  0  0  0  0  0  0  0
   27.5898  -16.9415  -20.1058 C   0  0  0  0  0  0  0  0  0  0  0  0
   26.8148  -15.9926  -20.4345 N   0  0  0  0  0  0  0  0  0  0  0  0
   27.8789  -17.2159  -18.7458 N   0  0  0  0  0  0  0  0  0  0  0  0
   28.5749  -18.3563  -18.2679 C   0  0  0  0  0  0  0  0  0  0  0  0
   27.9328  -19.6886  -18.3804 C   0  0  0  0  0  0  0  0  0  0  0  0
   27.3801  -20.1550  -17.0219 C   0  0  0  0  0  0  0  0  0  0  0  0
   28.3964  -20.9101  -16.2352 C   0  0  2  0  0  0  0  0  0  0  0  0
   28.7255  -22.1315  -16.9313 N   0  0  0  0  0  0  0  0  0  0  0  0
   27.8292  -21.3109  -14.8900 C   0  0  0  0  0  0  0  0  0  0  0  0
   27.0117  -22.2321  -14.8437 O   0  0  0  0  0  0  0  0  0  0  0  0
   26.4039  -15.3213  -19.8107 C   0  0  0  0  0  0  0  0  0  0  0  0
   29.8552  -22.6054  -11.0775 C   0  0  2  0  0  0  0  0  0  0  0  0
   30.0487  -21.1358  -11.4940 C   0  0  0  0  0  0  0  0  0  0  0  0
   31.0604  -20.5069  -10.5511 C   0  0  0  0  0  0  0  0  0  0  0  0
   28.6959  -20.5035  -11.3974 C   0  0  2  0  0  0  0  0  0  0  0  0
   27.6634  -20.9240  -12.3786 N   0  0  0  0  0  0  0  0  0  0  0  0
   28.2374  -20.6327  -13.7236 C   0  0  0  0  0  0  0  0  0  0  0  0
   26.3326  -20.3570  -12.2757 O   0  0  0  0  0  0  0  0  0  0  0  0
   26.1678  -19.1315  -12.6511 N   0  0  0  0  0  0  0  0  0  0  0  0
   25.2161  -21.0534  -11.8003 C   0  0  1  0  0  0  0  0  0  0  0  0
   23.8397  -20.5396  -11.8384 C   0  0  0  0  0  0  0  0  0  0  0  0
   23.1500  -20.9640  -13.0722 C   0  0  0  0  0  0  0  0  0  0  0  0
   21.7660  -20.5008  -13.1766 C   0  0  0  0  0  0  0  0  0  0  0  0
   21.3107  -19.1773  -13.1403 N   0  0  0  0  0  0  0  0  0  0  0  0
   19.9756  -19.1377  -13.2277 C   0  0  0  0  0  0  0  0  0  0  0  0
   19.5036  -20.4055  -13.3241 C   0  0  0  0  0  0  0  0  0  0  0  0
   18.2454  -20.9483  -13.4551 C   0  0  0  0  0  0  0  0  0  0  0  0
   18.0479  -22.3128  -13.5589 C   0  0  0  0  0  0  0  0  0  0  0  0
   19.1352  -23.1513  -13.5306 C   0  0  0  0  0  0  0  0  0  0  0  0
   20.3919  -22.6186  -13.3994 C   0  0  0  0  0  0  0  0  0  0  0  0
   20.6120  -21.2527  -13.2929 C   0  0  0  0  0  0  0  0  0  0  0  0
   23.1661  -20.9556  -10.6197 O   0  0  0  0  0  0  0  0  0  0  0  0
   22.0432  -20.3290  -10.0631 O   0  0  0  0  0  0  0  0  0  0  0  0
  1  2  1  0
  2  3  2  0
  4  2  1  0
  5  4  1  0
  6  5  1  0
  7  6  1  0
  8  7  1  0
  8  9  1  6
 10 11  2  0
 10  8  1  0
 13 12  1  6
 13 15  1  0
 14 13  1  0
 16 15  1  6
 16 17  1  0
 17 10  1  0
 18 19  2  0
 18 16  1  0
 20 18  1  0
 21 20  1  0
 21 22  1  1
 22 23  1  0
 23 31  1  0
 23 24  2  0
 24 25  1  0
 25 26  1  0
 26 27  2  0
 28 27  1  0
 29 28  2  0
 30 31  2  0
 30 29  1  0
 31 26  1  0
 32 21  1  0
 33 32  1  0
 34 32  2  0
M  END
$$$$
