RLW.pdb
     RDKit          3D

 34 35  0  0  1  0  0  0  0  0999 V2000
   45.7924  -10.5025   -4.5508 N   0  0  0  0  0  0  0  0  0  0  0  0
   46.1885   -9.1509   -4.1691 C   0  0  0  0  0  0  0  0  0  0  0  0
   46.5035   -8.9000   -2.9662 N   0  0  0  0  0  0  0  0  0  0  0  0
   46.2078   -8.1378   -5.1599 N   0  0  0  0  0  0  0  0  0  0  0  0
   45.4424   -8.1427   -6.3546 C   0  0  0  0  0  0  0  0  0  0  0  0
   46.1231   -7.8718   -7.6443 C   0  0  0  0  0  0  0  0  0  0  0  0
   45.1180   -7.8546   -8.8097 C   0  0  0  0  0  0  0  0  0  0  0  0
   44.5794   -9.2132   -9.1026 C   0  0  2  0  0  0  0  0  0  0  0  0
   45.4328   -9.8654  -10.0675 N   0  0  0  0  0  0  0  0  0  0  0  0
   43.2056   -9.1108   -9.7304 C   0  0  0  0  0  0  0  0  0  0  0  0
   43.0274   -9.6023  -10.8465 O   0  0  0  0  0  0  0  0  0  0  0  0
   46.8162   -8.0150   -2.6088 C   0  0  0  0  0  0  0  0  0  0  0  0
   40.3935  -10.2330  -11.9589 C   0  0  2  0  0  0  0  0  0  0  0  0
   41.0584  -10.7804  -10.6827 C   0  0  0  0  0  0  0  0  0  0  0  0
   40.7826  -12.2727  -10.6093 C   0  0  0  0  0  0  0  0  0  0  0  0
   40.4464  -10.0219   -9.5472 C   0  0  2  0  0  0  0  0  0  0  0  0
   40.7334   -8.5679   -9.4512 N   0  0  0  0  0  0  0  0  0  0  0  0
   42.1626   -8.4614   -9.0394 C   0  0  0  0  0  0  0  0  0  0  0  0
   39.9069   -7.7503   -8.5844 O   0  0  0  0  0  0  0  0  0  0  0  0
   39.3749   -8.3137   -7.5503 N   0  0  0  0  0  0  0  0  0  0  0  0
   39.6528   -6.3906   -8.7942 C   0  0  2  0  0  0  0  0  0  0  0  0
   38.7381   -5.5816   -7.9764 C   0  0  0  0  0  0  0  0  0  0  0  0
   37.3365   -5.9943   -8.1843 C   0  0  0  0  0  0  0  0  0  0  0  0
   36.7082   -5.4118   -9.3704 C   0  0  0  0  0  0  0  0  0  0  0  0
   36.7971   -5.8734  -10.6892 N   0  0  0  0  0  0  0  0  0  0  0  0
   36.1211   -5.0662  -11.5156 C   0  0  0  0  0  0  0  0  0  0  0  0
   35.5688   -4.0601  -10.7931 C   0  0  0  0  0  0  0  0  0  0  0  0
   34.7733   -2.9823  -11.1101 C   0  0  0  0  0  0  0  0  0  0  0  0
   34.3203   -2.1023  -10.1446 C   0  0  0  0  0  0  0  0  0  0  0  0
   34.6723   -2.3072   -8.8331 C   0  0  0  0  0  0  0  0  0  0  0  0
   35.4651   -3.3781   -8.5091 C   0  0  0  0  0  0  0  0  0  0  0  0
   35.9311   -4.2723   -9.4623 C   0  0  0  0  0  0  0  0  0  0  0  0
   39.1727   -5.6651   -6.5921 O   0  0  0  0  0  0  0  0  0  0  0  0
   39.3024   -4.5768   -5.7191 O   0  0  0  0  0  0  0  0  0  0  0  0
  1  2  1  0
  2  3  2  0
  4  2  1  0
  5  4  1  0
  6  5  1  0
  7  6  1  0
  8  7  1  0
  8  9  1  6
 10 11  2  0
 10  8  1  0
 13 12  1  6
 13 15  1  0
 14 13  1  0
 16 15  1  6
 16 17  1  0
 17 10  1  0
 18 19  2  0
 18 16  1  0
 20 18  1  0
 21 20  1  0
 21 22  1  6
 22 23  1  0
 23 31  1  0
 23 24  2  0
 24 25  1  0
 25 26  1  0
 26 27  2  0
 28 27  1  0
 29 28  2  0
 30 31  2  0
 30 29  1  0
 31 26  1  0
 32 21  1  0
 33 32  1  0
 34 32  2  0
M  END
$$$$
