RLW.pdb
     RDKit          3D

 34 35  0  0  1  0  0  0  0  0999 V2000
   20.7536  -26.2339  -15.7189 N   0  0  0  0  0  0  0  0  0  0  0  0
   21.6300  -27.0361  -16.5662 C   0  0  0  0  0  0  0  0  0  0  0  0
   21.3903  -28.2702  -16.7353 N   0  0  0  0  0  0  0  0  0  0  0  0
   22.7432  -26.4130  -17.1833 N   0  0  0  0  0  0  0  0  0  0  0  0
   22.9888  -25.0158  -17.2159 C   0  0  0  0  0  0  0  0  0  0  0  0
   23.0429  -24.2664  -15.9371 C   0  0  0  0  0  0  0  0  0  0  0  0
   24.4738  -24.2366  -15.3712 C   0  0  0  0  0  0  0  0  0  0  0  0
   25.3728  -23.3579  -16.1721 C   0  0  2  0  0  0  0  0  0  0  0  0
   26.2564  -24.1784  -16.9661 N   0  0  0  0  0  0  0  0  0  0  0  0
   26.2484  -22.5275  -15.2579 C   0  0  0  0  0  0  0  0  0  0  0  0
   27.2577  -23.0449  -14.7756 O   0  0  0  0  0  0  0  0  0  0  0  0
   21.9295  -28.9064  -17.2948 C   0  0  0  0  0  0  0  0  0  0  0  0
   28.7106  -18.6488  -15.2516 C   0  0  2  0  0  0  0  0  0  0  0  0
   27.2184  -18.5266  -15.6109 C   0  0  0  0  0  0  0  0  0  0  0  0
   26.9404  -17.0817  -15.9890 C   0  0  0  0  0  0  0  0  0  0  0  0
   26.4687  -18.9605  -14.3907 C   0  0  2  0  0  0  0  0  0  0  0  0
   26.6161  -20.3720  -13.9529 N   0  0  0  0  0  0  0  0  0  0  0  0
   25.9009  -21.1914  -14.9731 C   0  0  0  0  0  0  0  0  0  0  0  0
   26.1700  -20.7391  -12.6228 O   0  0  0  0  0  0  0  0  0  0  0  0
   24.9195  -21.0225  -12.4621 N   0  0  0  0  0  0  0  0  0  0  0  0
   27.0078  -20.8099  -11.5044 C   0  0  2  0  0  0  0  0  0  0  0  0
   26.5427  -21.0677  -10.1344 C   0  0  0  0  0  0  0  0  0  0  0  0
   27.6694  -21.0540   -9.1812 C   0  0  0  0  0  0  0  0  0  0  0  0
   27.2913  -20.7154   -7.8089 C   0  0  0  0  0  0  0  0  0  0  0  0
   26.0114  -20.7726   -7.2441 N   0  0  0  0  0  0  0  0  0  0  0  0
   26.0400  -20.3530   -5.9735 C   0  0  0  0  0  0  0  0  0  0  0  0
   27.3121  -20.0094   -5.6524 C   0  0  0  0  0  0  0  0  0  0  0  0
   27.9145  -19.5429   -4.5059 C   0  0  0  0  0  0  0  0  0  0  0  0
   29.2727  -19.2909   -4.4475 C   0  0  0  0  0  0  0  0  0  0  0  0
   30.0436  -19.5113   -5.5624 C   0  0  0  0  0  0  0  0  0  0  0  0
   29.4511  -19.9751   -6.7087 C   0  0  0  0  0  0  0  0  0  0  0  0
   28.0901  -20.2335   -6.7888 C   0  0  0  0  0  0  0  0  0  0  0  0
   25.4999  -20.1054   -9.8205 O   0  0  0  0  0  0  0  0  0  0  0  0
   24.3146  -20.3945   -9.1313 O   0  0  0  0  0  0  0  0  0  0  0  0
  1  2  1  0
  2  3  2  0
  4  2  1  0
  5  4  1  0
  6  5  1  0
  7  6  1  0
  8  7  1  0
  8  9  1  6
 10 11  2  0
 10  8  1  0
 13 12  1  6
 13 15  1  0
 14 13  1  0
 16 15  1  6
 16 17  1  0
 17 10  1  0
 18 19  2  0
 18 16  1  0
 20 18  1  0
 21 20  1  0
 21 22  1  6
 22 23  1  0
 23 31  1  0
 23 24  2  0
 24 25  1  0
 25 26  1  0
 26 27  2  0
 28 27  1  0
 29 28  2  0
 30 31  2  0
 30 29  1  0
 31 26  1  0
 32 21  1  0
 33 32  1  0
 34 32  2  0
M  END
$$$$
