RLW.pdb
     RDKit          3D

 34 35  0  0  1  0  0  0  0  0999 V2000
   22.4061  -23.3215  -18.9381 N   0  0  0  0  0  0  0  0  0  0  0  0
   22.7618  -23.5781  -20.3299 C   0  0  0  0  0  0  0  0  0  0  0  0
   21.8720  -23.5164  -21.2319 N   0  0  0  0  0  0  0  0  0  0  0  0
   24.1059  -23.8983  -20.6450 N   0  0  0  0  0  0  0  0  0  0  0  0
   25.0529  -24.4471  -19.7420 C   0  0  0  0  0  0  0  0  0  0  0  0
   24.5658  -25.2074  -18.5652 C   0  0  0  0  0  0  0  0  0  0  0  0
   25.0129  -24.5429  -17.2510 C   0  0  0  0  0  0  0  0  0  0  0  0
   26.4818  -24.2910  -17.2243 C   0  0  2  0  0  0  0  0  0  0  0  0
   27.1755  -25.5417  -17.0268 N   0  0  0  0  0  0  0  0  0  0  0  0
   26.8418  -23.4001  -16.0544 C   0  0  0  0  0  0  0  0  0  0  0  0
   27.2657  -23.9227  -15.0218 O   0  0  0  0  0  0  0  0  0  0  0  0
   22.0184  -23.6452  -22.2171 C   0  0  0  0  0  0  0  0  0  0  0  0
   27.3299  -17.3208  -15.7246 C   0  0  1  0  0  0  0  0  0  0  0  0
   27.2859  -18.5418  -14.7877 C   0  0  0  0  0  0  0  0  0  0  0  0
   28.5342  -18.5181  -13.9220 C   0  0  0  0  0  0  0  0  0  0  0  0
   27.2243  -19.7397  -15.6824 C   0  0  2  0  0  0  0  0  0  0  0  0
   27.0251  -21.0679  -15.0486 N   0  0  0  0  0  0  0  0  0  0  0  0
   26.6878  -22.0029  -16.1601 C   0  0  0  0  0  0  0  0  0  0  0  0
   26.0482  -21.1924  -13.9841 O   0  0  0  0  0  0  0  0  0  0  0  0
   24.7971  -21.1540  -14.3053 N   0  0  0  0  0  0  0  0  0  0  0  0
   26.3742  -21.3557  -12.6333 C   0  0  2  0  0  0  0  0  0  0  0  0
   25.3882  -21.4547  -11.5480 C   0  0  0  0  0  0  0  0  0  0  0  0
   26.0083  -21.9778  -10.3151 C   0  0  0  0  0  0  0  0  0  0  0  0
   26.3321  -20.9519   -9.3234 C   0  0  0  0  0  0  0  0  0  0  0  0
   25.5568  -19.8409   -8.9698 N   0  0  0  0  0  0  0  0  0  0  0  0
   26.1895  -19.1003   -8.0518 C   0  0  0  0  0  0  0  0  0  0  0  0
   27.3824  -19.6787   -7.7662 C   0  0  0  0  0  0  0  0  0  0  0  0
   28.4104  -19.3710   -6.9039 C   0  0  0  0  0  0  0  0  0  0  0  0
   29.5328  -20.1708   -6.7938 C   0  0  0  0  0  0  0  0  0  0  0  0
   29.6268  -21.3035   -7.5647 C   0  0  0  0  0  0  0  0  0  0  0  0
   28.6074  -21.6166   -8.4268 C   0  0  0  0  0  0  0  0  0  0  0  0
   27.4732  -20.8273   -8.5532 C   0  0  0  0  0  0  0  0  0  0  0  0
   24.7643  -20.1527  -11.3813 O   0  0  0  0  0  0  0  0  0  0  0  0
   25.3793  -18.9222  -11.6480 O   0  0  0  0  0  0  0  0  0  0  0  0
  1  2  1  0
  2  3  2  0
  4  2  1  0
  5  4  1  0
  6  5  1  0
  7  6  1  0
  8  7  1  0
  8  9  1  1
 10 11  2  0
 10  8  1  0
 13 12  1  1
 13 15  1  0
 14 13  1  0
 16 15  1  6
 16 17  1  0
 17 10  1  0
 18 19  2  0
 18 16  1  0
 20 18  1  0
 21 20  1  0
 21 22  1  6
 22 23  1  0
 23 31  1  0
 23 24  2  0
 24 25  1  0
 25 26  1  0
 26 27  2  0
 28 27  1  0
 29 28  2  0
 30 31  2  0
 30 29  1  0
 31 26  1  0
 32 21  1  0
 33 32  1  0
 34 32  2  0
M  END
$$$$
