RLW.pdb
     RDKit          3D

 34 35  0  0  1  0  0  0  0  0999 V2000
   25.5867  -28.2359  -18.7695 N   0  0  0  0  0  0  0  0  0  0  0  0
   24.7527  -27.9661  -17.6028 C   0  0  0  0  0  0  0  0  0  0  0  0
   24.1423  -28.9179  -17.0279 N   0  0  0  0  0  0  0  0  0  0  0  0
   24.6385  -26.6327  -17.1367 N   0  0  0  0  0  0  0  0  0  0  0  0
   25.4029  -25.5316  -17.6020 C   0  0  0  0  0  0  0  0  0  0  0  0
   26.8609  -25.5040  -17.3307 C   0  0  0  0  0  0  0  0  0  0  0  0
   27.2825  -24.1661  -16.6975 C   0  0  0  0  0  0  0  0  0  0  0  0
   26.1472  -23.4945  -16.0035 C   0  0  2  0  0  0  0  0  0  0  0  0
   25.5860  -22.4881  -16.8734 N   0  0  0  0  0  0  0  0  0  0  0  0
   26.6381  -22.7782  -14.7633 C   0  0  0  0  0  0  0  0  0  0  0  0
   27.2192  -23.4312  -13.8945 O   0  0  0  0  0  0  0  0  0  0  0  0
   23.4818  -28.8290  -16.2766 C   0  0  0  0  0  0  0  0  0  0  0  0
   29.0870  -18.9607  -14.7228 C   0  0  2  0  0  0  0  0  0  0  0  0
   27.5931  -18.8077  -15.0625 C   0  0  0  0  0  0  0  0  0  0  0  0
   27.3461  -17.3642  -15.4669 C   0  0  0  0  0  0  0  0  0  0  0  0
   26.8514  -19.1967  -13.8224 C   0  0  2  0  0  0  0  0  0  0  0  0
   26.8740  -20.6266  -13.4219 N   0  0  0  0  0  0  0  0  0  0  0  0
   26.4252  -21.3921  -14.6203 C   0  0  0  0  0  0  0  0  0  0  0  0
   26.1108  -21.0366  -12.2590 O   0  0  0  0  0  0  0  0  0  0  0  0
   24.8579  -21.3069  -12.4238 N   0  0  0  0  0  0  0  0  0  0  0  0
   26.6453  -21.1620  -10.9721 C   0  0  2  0  0  0  0  0  0  0  0  0
   25.8612  -21.5067   -9.7780 C   0  0  0  0  0  0  0  0  0  0  0  0
   26.7424  -21.7733   -8.6245 C   0  0  0  0  0  0  0  0  0  0  0  0
   27.0227  -20.5986   -7.7983 C   0  0  0  0  0  0  0  0  0  0  0  0
   26.2976  -19.4018   -7.7538 N   0  0  0  0  0  0  0  0  0  0  0  0
   26.8706  -18.5371   -6.9080 C   0  0  0  0  0  0  0  0  0  0  0  0
   27.9736  -19.1140   -6.3696 C   0  0  0  0  0  0  0  0  0  0  0  0
   28.9118  -18.7054   -5.4489 C   0  0  0  0  0  0  0  0  0  0  0  0
   29.9490  -19.5287   -5.0513 C   0  0  0  0  0  0  0  0  0  0  0  0
   30.0478  -20.7888   -5.5883 C   0  0  0  0  0  0  0  0  0  0  0  0
   29.1177  -21.2033   -6.5067 C   0  0  0  0  0  0  0  0  0  0  0  0
   28.0699  -20.3928   -6.9199 C   0  0  0  0  0  0  0  0  0  0  0  0
   24.8986  -20.4432   -9.5445 O   0  0  0  0  0  0  0  0  0  0  0  0
   23.6870  -20.5871   -8.8556 O   0  0  0  0  0  0  0  0  0  0  0  0
  1  2  1  0
  2  3  2  0
  4  2  1  0
  5  4  1  0
  6  5  1  0
  7  6  1  0
  8  7  1  0
  8  9  1  6
 10 11  2  0
 10  8  1  0
 13 12  1  6
 13 15  1  0
 14 13  1  0
 16 15  1  6
 16 17  1  0
 17 10  1  0
 18 19  2  0
 18 16  1  0
 20 18  1  0
 21 20  1  0
 21 22  1  6
 22 23  1  0
 23 31  1  0
 23 24  2  0
 24 25  1  0
 25 26  1  0
 26 27  2  0
 28 27  1  0
 29 28  2  0
 30 31  2  0
 30 29  1  0
 31 26  1  0
 32 21  1  0
 33 32  1  0
 34 32  2  0
M  END
$$$$
