RLW.pdb
     RDKit          3D

 34 35  0  0  1  0  0  0  0  0999 V2000
   21.4752  -18.8134  -18.5099 N   0  0  0  0  0  0  0  0  0  0  0  0
   20.9066  -19.8727  -17.6831 C   0  0  0  0  0  0  0  0  0  0  0  0
   20.1218  -20.7254  -18.1990 N   0  0  0  0  0  0  0  0  0  0  0  0
   21.2434  -19.9227  -16.3074 N   0  0  0  0  0  0  0  0  0  0  0  0
   22.2557  -19.1504  -15.6811 C   0  0  0  0  0  0  0  0  0  0  0  0
   23.6712  -19.3785  -16.0613 C   0  0  0  0  0  0  0  0  0  0  0  0
   24.3350  -20.4130  -15.1351 C   0  0  0  0  0  0  0  0  0  0  0  0
   24.5608  -19.8719  -13.7647 C   0  0  2  0  0  0  0  0  0  0  0  0
   25.2491  -18.6064  -13.8603 N   0  0  0  0  0  0  0  0  0  0  0  0
   25.4573  -20.8004  -12.9734 C   0  0  0  0  0  0  0  0  0  0  0  0
   25.1182  -21.9777  -12.8395 O   0  0  0  0  0  0  0  0  0  0  0  0
   19.6364  -21.4553  -17.7088 C   0  0  0  0  0  0  0  0  0  0  0  0
   31.2108  -20.2283  -11.0250 C   0  0  1  0  0  0  0  0  0  0  0  0
   30.0014  -21.1686  -10.8699 C   0  0  0  0  0  0  0  0  0  0  0  0
   30.3909  -22.5327  -11.4137 C   0  0  0  0  0  0  0  0  0  0  0  0
   28.8894  -20.5328  -11.6434 C   0  0  2  0  0  0  0  0  0  0  0  0
   27.5417  -21.1503  -11.5532 N   0  0  0  0  0  0  0  0  0  0  0  0
   26.6516  -20.3116  -12.4063 C   0  0  0  0  0  0  0  0  0  0  0  0
   26.9446  -21.3314  -10.2441 O   0  0  0  0  0  0  0  0  0  0  0  0
   27.3804  -22.3021   -9.5108 N   0  0  0  0  0  0  0  0  0  0  0  0
   25.9305  -20.5201   -9.7237 C   0  0  1  0  0  0  0  0  0  0  0  0
   25.1359  -20.8473   -8.5314 C   0  0  0  0  0  0  0  0  0  0  0  0
   25.2384  -19.7798   -7.5175 C   0  0  0  0  0  0  0  0  0  0  0  0
   26.6105  -19.4376   -7.1418 C   0  0  0  0  0  0  0  0  0  0  0  0
   27.4648  -18.5343   -7.7856 N   0  0  0  0  0  0  0  0  0  0  0  0
   28.6588  -18.5055   -7.1814 C   0  0  0  0  0  0  0  0  0  0  0  0
   28.6433  -19.3689   -6.1356 C   0  0  0  0  0  0  0  0  0  0  0  0
   29.5652  -19.7239   -5.1769 C   0  0  0  0  0  0  0  0  0  0  0  0
   29.2680  -20.6392   -4.1841 C   0  0  0  0  0  0  0  0  0  0  0  0
   28.0198  -21.2110   -4.1517 C   0  0  0  0  0  0  0  0  0  0  0  0
   27.0960  -20.8634   -5.1036 C   0  0  0  0  0  0  0  0  0  0  0  0
   27.3740  -19.9480   -6.1087 C   0  0  0  0  0  0  0  0  0  0  0  0
   23.7732  -21.1217   -8.9554 O   0  0  0  0  0  0  0  0  0  0  0  0
   23.2924  -20.9894  -10.2648 O   0  0  0  0  0  0  0  0  0  0  0  0
  1  2  1  0
  2  3  2  0
  4  2  1  0
  5  4  1  0
  6  5  1  0
  7  6  1  0
  8  7  1  0
  8  9  1  6
 10 11  2  0
 10  8  1  0
 13 12  1  1
 13 15  1  0
 14 13  1  0
 16 15  1  6
 16 17  1  0
 17 10  1  0
 18 19  2  0
 18 16  1  0
 20 18  1  0
 21 20  1  0
 21 22  1  1
 22 23  1  0
 23 31  1  0
 23 24  2  0
 24 25  1  0
 25 26  1  0
 26 27  2  0
 28 27  1  0
 29 28  2  0
 30 31  2  0
 30 29  1  0
 31 26  1  0
 32 21  1  0
 33 32  1  0
 34 32  2  0
M  END
$$$$
