RLW.pdb
     RDKit          3D

 34 35  0  0  1  0  0  0  0  0999 V2000
   32.6307  -25.4771  -16.4473 N   0  0  0  0  0  0  0  0  0  0  0  0
   32.0213  -24.6469  -17.4810 C   0  0  0  0  0  0  0  0  0  0  0  0
   32.7562  -24.0008  -18.2883 N   0  0  0  0  0  0  0  0  0  0  0  0
   30.6079  -24.5765  -17.5575 N   0  0  0  0  0  0  0  0  0  0  0  0
   29.8703  -23.5512  -18.2039 C   0  0  0  0  0  0  0  0  0  0  0  0
   29.5027  -22.3374  -17.4348 C   0  0  0  0  0  0  0  0  0  0  0  0
   28.7315  -22.7038  -16.1543 C   0  0  0  0  0  0  0  0  0  0  0  0
   27.4158  -22.0076  -16.0766 C   0  0  2  0  0  0  0  0  0  0  0  0
   27.6003  -20.6068  -16.3735 N   0  0  0  0  0  0  0  0  0  0  0  0
   26.8598  -22.0886  -14.6707 C   0  0  0  0  0  0  0  0  0  0  0  0
   26.5606  -23.1944  -14.2160 O   0  0  0  0  0  0  0  0  0  0  0  0
   32.4379  -23.4300  -19.0508 C   0  0  0  0  0  0  0  0  0  0  0  0
   28.8303  -22.0649  -11.5651 C   0  0  2  0  0  0  0  0  0  0  0  0
   28.6298  -20.5959  -11.9804 C   0  0  0  0  0  0  0  0  0  0  0  0
   29.6010  -19.7427  -11.1824 C   0  0  0  0  0  0  0  0  0  0  0  0
   27.1985  -20.2794  -11.6794 C   0  0  2  0  0  0  0  0  0  0  0  0
   26.1558  -20.9211  -12.5199 N   0  0  0  0  0  0  0  0  0  0  0  0
   26.6925  -20.9130  -13.9111 C   0  0  0  0  0  0  0  0  0  0  0  0
   24.8135  -20.3726  -12.5046 O   0  0  0  0  0  0  0  0  0  0  0  0
   24.6854  -19.0938  -12.3697 N   0  0  0  0  0  0  0  0  0  0  0  0
   23.6497  -21.1389  -12.6308 C   0  0  1  0  0  0  0  0  0  0  0  0
   22.2877  -20.5869  -12.6206 C   0  0  0  0  0  0  0  0  0  0  0  0
   22.1256  -19.5577  -13.6658 C   0  0  0  0  0  0  0  0  0  0  0  0
   22.3137  -20.0520  -15.0301 C   0  0  0  0  0  0  0  0  0  0  0  0
   21.5560  -21.0270  -15.6899 N   0  0  0  0  0  0  0  0  0  0  0  0
   22.0428  -21.2491  -16.9167 C   0  0  0  0  0  0  0  0  0  0  0  0
   23.1184  -20.4471  -17.1147 C   0  0  0  0  0  0  0  0  0  0  0  0
   23.9759  -20.2438  -18.1722 C   0  0  0  0  0  0  0  0  0  0  0  0
   25.0027  -19.3199  -18.1103 C   0  0  0  0  0  0  0  0  0  0  0  0
   25.1736  -18.5840  -16.9635 C   0  0  0  0  0  0  0  0  0  0  0  0
   24.3242  -18.7811  -15.9052 C   0  0  0  0  0  0  0  0  0  0  0  0
   23.2884  -19.7034  -15.9463 C   0  0  0  0  0  0  0  0  0  0  0  0
   21.3497  -21.6909  -12.7369 O   0  0  0  0  0  0  0  0  0  0  0  0
   19.9754  -21.6142  -12.4749 O   0  0  0  0  0  0  0  0  0  0  0  0
  1  2  1  0
  2  3  2  0
  4  2  1  0
  5  4  1  0
  6  5  1  0
  7  6  1  0
  8  7  1  0
  8  9  1  1
 10 11  2  0
 10  8  1  0
 13 12  1  6
 13 15  1  0
 14 13  1  0
 16 15  1  1
 16 17  1  0
 17 10  1  0
 18 19  2  0
 18 16  1  0
 20 18  1  0
 21 20  1  0
 21 22  1  1
 22 23  1  0
 23 31  1  0
 23 24  2  0
 24 25  1  0
 25 26  1  0
 26 27  2  0
 28 27  1  0
 29 28  2  0
 30 31  2  0
 30 29  1  0
 31 26  1  0
 32 21  1  0
 33 32  1  0
 34 32  2  0
M  END
$$$$
