NSF.pdb
     RDKit          3D

 26 26  0  0  1  0  0  0  0  0999 V2000
   19.4207  -14.5921  -18.2211 N   0  0  0  0  0  0  0  0  0  0  0  0
   19.4487  -14.8531  -16.8212 C   0  0  0  0  0  0  0  0  0  0  0  0
   18.9364  -15.9116  -16.3909 O   0  0  0  0  0  0  0  0  0  0  0  0
   20.0722  -13.8842  -15.8938 C   0  0  0  0  0  0  0  0  0  0  0  0
   20.4755  -12.6651  -16.7100 C   0  0  2  0  0  0  0  0  0  0  0  0
   21.5270  -13.1350  -17.6080 N   0  0  0  0  0  0  0  0  0  0  0  0
   21.0358  -11.6031  -15.8626 C   0  0  0  0  0  0  0  0  0  0  0  0
   20.3658  -11.1122  -14.9156 O   0  0  0  0  0  0  0  0  0  0  0  0
   24.5898   -9.5929  -16.9966 O   0  0  0  0  0  0  0  0  0  0  0  0
   24.3413   -9.8201  -15.6543 C   0  0  0  0  0  0  0  0  0  0  0  0
   22.8456   -9.9108  -15.3761 C   0  0  2  0  0  0  0  0  0  0  0  0
   22.3526  -11.0658  -16.0500 N   0  0  0  0  0  0  0  0  0  0  0  0
   22.1557   -8.6421  -15.7905 C   0  0  0  0  0  0  0  0  0  0  0  0
   21.5133   -8.6090  -16.8829 O   0  0  0  0  0  0  0  0  0  0  0  0
   22.1997   -7.4716  -14.9935 N   0  0  0  0  0  0  0  0  0  0  0  0
   21.6291   -6.2117  -15.3476 C   0  0  1  0  0  0  0  0  0  0  0  0
   20.2203   -6.2934  -15.8205 C   0  0  0  0  0  0  0  0  0  0  0  0
   19.6005   -5.0184  -16.2007 C   0  0  0  0  0  0  0  0  0  0  0  0
   19.7847   -4.4793  -17.4620 C   0  0  0  0  0  0  0  0  0  0  0  0
   19.2008   -3.2867  -17.8454 C   0  0  0  0  0  0  0  0  0  0  0  0
   18.4079   -2.6033  -16.9504 C   0  0  0  0  0  0  0  0  0  0  0  0
   18.2188   -3.1237  -15.7016 C   0  0  0  0  0  0  0  0  0  0  0  0
   18.8059   -4.3215  -15.3230 C   0  0  0  0  0  0  0  0  0  0  0  0
   21.9178   -5.1275  -14.3772 C   0  0  0  0  0  0  0  0  0  0  0  0
   22.2650   -3.8340  -14.6970 O   0  0  0  0  0  0  0  0  0  0  0  0
   21.8476   -5.3850  -13.1508 O   0  0  0  0  0  0  0  0  0  0  0  0
  1  2  1  0
  2  4  1  0
  3  2  2  0
  4  5  1  0
  5  6  1  6
  7  5  1  0
  8  7  2  0
  9 10  1  0
 11 10  1  6
 11 13  1  0
 11 12  1  0
 12  7  1  0
 13 15  1  0
 14 13  2  0
 16 15  1  0
 16 24  1  0
 16 17  1  1
 18 17  1  0
 18 23  2  0
 19 18  1  0
 20 19  2  0
 20 21  1  0
 21 22  2  0
 22 23  1  0
 24 26  2  0
 24 25  1  0
M  END
$$$$
