NSF.pdb
     RDKit          3D

 26 26  0  0  1  0  0  0  0  0999 V2000
   19.4950  -15.2855  -15.8061 N   0  0  0  0  0  0  0  0  0  0  0  0
   19.6119  -14.7271  -17.1111 C   0  0  0  0  0  0  0  0  0  0  0  0
   19.6674  -15.4963  -18.0976 O   0  0  0  0  0  0  0  0  0  0  0  0
   19.6694  -13.2603  -17.2927 C   0  0  0  0  0  0  0  0  0  0  0  0
   18.3074  -12.6990  -16.9120 C   0  0  2  0  0  0  0  0  0  0  0  0
   17.4116  -13.0982  -17.9942 N   0  0  0  0  0  0  0  0  0  0  0  0
   18.3223  -11.2310  -16.8459 C   0  0  0  0  0  0  0  0  0  0  0  0
   19.0055  -10.5552  -17.6603 O   0  0  0  0  0  0  0  0  0  0  0  0
   17.0067   -9.2105  -13.4559 O   0  0  0  0  0  0  0  0  0  0  0  0
   16.6245   -8.6662  -14.6695 C   0  0  0  0  0  0  0  0  0  0  0  0
   17.5884   -9.0620  -15.7816 C   0  0  2  0  0  0  0  0  0  0  0  0
   17.5772  -10.4841  -15.8738 N   0  0  0  0  0  0  0  0  0  0  0  0
   18.9548   -8.4948  -15.5199 C   0  0  0  0  0  0  0  0  0  0  0  0
   19.8558   -9.2389  -15.0284 O   0  0  0  0  0  0  0  0  0  0  0  0
   19.2721   -7.1442  -15.8069 N   0  0  0  0  0  0  0  0  0  0  0  0
   20.5479   -6.5365  -15.6040 C   0  0  1  0  0  0  0  0  0  0  0  0
   21.4773   -6.6731  -16.7585 C   0  0  0  0  0  0  0  0  0  0  0  0
   22.5784   -5.7040  -16.8086 C   0  0  0  0  0  0  0  0  0  0  0  0
   23.7800   -5.9499  -16.1675 C   0  0  0  0  0  0  0  0  0  0  0  0
   24.8343   -5.0573  -16.2118 C   0  0  0  0  0  0  0  0  0  0  0  0
   24.6954   -3.8806  -16.9138 C   0  0  0  0  0  0  0  0  0  0  0  0
   23.5140   -3.6248  -17.5503 C   0  0  0  0  0  0  0  0  0  0  0  0
   22.4602   -4.5249  -17.5037 C   0  0  0  0  0  0  0  0  0  0  0  0
   20.4799   -5.1869  -14.9920 C   0  0  0  0  0  0  0  0  0  0  0  0
   21.3794   -4.6682  -14.0876 O   0  0  0  0  0  0  0  0  0  0  0  0
   19.5288   -4.4314  -15.3082 O   0  0  0  0  0  0  0  0  0  0  0  0
  1  2  1  0
  2  4  1  0
  3  2  2  0
  4  5  1  0
  5  6  1  6
  7  5  1  0
  8  7  2  0
  9 10  1  0
 11 10  1  1
 11 13  1  0
 11 12  1  0
 12  7  1  0
 13 15  1  0
 14 13  2  0
 16 15  1  0
 16 24  1  0
 16 17  1  6
 18 17  1  0
 18 23  2  0
 19 18  1  0
 20 19  2  0
 20 21  1  0
 21 22  2  0
 22 23  1  0
 24 26  2  0
 24 25  1  0
M  END
$$$$
