NSF.pdb
     RDKit          3D

 26 26  0  0  1  0  0  0  0  0999 V2000
   29.6216  -16.6487  -16.0803 N   0  0  0  0  0  0  0  0  0  0  0  0
   28.2497  -17.0116  -16.2018 C   0  0  0  0  0  0  0  0  0  0  0  0
   27.7783  -17.2298  -17.3412 O   0  0  0  0  0  0  0  0  0  0  0  0
   27.3984  -17.1249  -14.9977 C   0  0  0  0  0  0  0  0  0  0  0  0
   27.7604  -18.4294  -14.3032 C   0  0  2  0  0  0  0  0  0  0  0  0
   27.3999  -19.4813  -15.2501 N   0  0  0  0  0  0  0  0  0  0  0  0
   26.9776  -18.6286  -13.0755 C   0  0  0  0  0  0  0  0  0  0  0  0
   27.0034  -17.7763  -12.1484 O   0  0  0  0  0  0  0  0  0  0  0  0
   23.5187  -21.2669  -10.8774 O   0  0  0  0  0  0  0  0  0  0  0  0
   24.2508  -20.9345  -12.0037 C   0  0  0  0  0  0  0  0  0  0  0  0
   25.4127  -20.0115  -11.6561 C   0  0  2  0  0  0  0  0  0  0  0  0
   26.1495  -19.7788  -12.8537 N   0  0  0  0  0  0  0  0  0  0  0  0
   26.2437  -20.6044  -10.5537 C   0  0  0  0  0  0  0  0  0  0  0  0
   27.1859  -21.4020  -10.8422 O   0  0  0  0  0  0  0  0  0  0  0  0
   26.0069  -20.2985   -9.1908 N   0  0  0  0  0  0  0  0  0  0  0  0
   26.6530  -20.9237   -8.0818 C   0  0  1  0  0  0  0  0  0  0  0  0
   27.9833  -20.3457   -7.7479 C   0  0  0  0  0  0  0  0  0  0  0  0
   28.2487  -20.1403   -6.3190 C   0  0  0  0  0  0  0  0  0  0  0  0
   27.9609  -18.9353   -5.7021 C   0  0  0  0  0  0  0  0  0  0  0  0
   28.1910  -18.7241   -4.3557 C   0  0  0  0  0  0  0  0  0  0  0  0
   28.7246  -19.7393   -3.5933 C   0  0  0  0  0  0  0  0  0  0  0  0
   29.0144  -20.9334   -4.1900 C   0  0  0  0  0  0  0  0  0  0  0  0
   28.7799  -21.1401   -5.5410 C   0  0  0  0  0  0  0  0  0  0  0  0
   25.7556  -21.1757   -6.9278 C   0  0  0  0  0  0  0  0  0  0  0  0
   26.0295  -22.0043   -5.8626 O   0  0  0  0  0  0  0  0  0  0  0  0
   24.6427  -20.5964   -6.8948 O   0  0  0  0  0  0  0  0  0  0  0  0
  1  2  1  0
  2  4  1  0
  3  2  2  0
  4  5  1  0
  5  6  1  6
  7  5  1  0
  8  7  2  0
  9 10  1  0
 11 10  1  6
 11 13  1  0
 11 12  1  0
 12  7  1  0
 13 15  1  0
 14 13  2  0
 16 15  1  0
 16 24  1  0
 16 17  1  1
 18 17  1  0
 18 23  2  0
 19 18  1  0
 20 19  2  0
 20 21  1  0
 21 22  2  0
 22 23  1  0
 24 26  2  0
 24 25  1  0
M  END
$$$$
