NSF.pdb
     RDKit          3D

 26 26  0  0  1  0  0  0  0  0999 V2000
   18.2911  -18.1992  -19.1360 N   0  0  0  0  0  0  0  0  0  0  0  0
   18.7310  -19.4194  -18.5478 C   0  0  0  0  0  0  0  0  0  0  0  0
   18.0973  -20.4722  -18.7886 O   0  0  0  0  0  0  0  0  0  0  0  0
   19.9172  -19.4369  -17.6645 C   0  0  0  0  0  0  0  0  0  0  0  0
   19.4745  -19.9844  -16.3157 C   0  0  2  0  0  0  0  0  0  0  0  0
   18.6835  -18.9172  -15.7090 N   0  0  0  0  0  0  0  0  0  0  0  0
   20.6200  -20.2629  -15.4381 C   0  0  0  0  0  0  0  0  0  0  0  0
   20.7746  -19.6318  -14.3590 O   0  0  0  0  0  0  0  0  0  0  0  0
   22.3810  -23.7401  -13.9882 O   0  0  0  0  0  0  0  0  0  0  0  0
   23.0010  -23.0404  -15.0086 C   0  0  0  0  0  0  0  0  0  0  0  0
   22.7277  -21.5450  -14.8998 C   0  0  2  0  0  0  0  0  0  0  0  0
   21.6165  -21.2491  -15.7418 N   0  0  0  0  0  0  0  0  0  0  0  0
   23.9603  -20.7586  -15.2455 C   0  0  0  0  0  0  0  0  0  0  0  0
   24.1781  -20.4379  -16.4525 O   0  0  0  0  0  0  0  0  0  0  0  0
   24.8951  -20.3601  -14.2583 N   0  0  0  0  0  0  0  0  0  0  0  0
   26.1023  -19.6404  -14.5094 C   0  0  1  0  0  0  0  0  0  0  0  0
   26.7839  -19.1486  -13.2811 C   0  0  0  0  0  0  0  0  0  0  0  0
   26.5558  -19.9390  -12.0655 C   0  0  0  0  0  0  0  0  0  0  0  0
   27.4282  -20.9458  -11.6905 C   0  0  0  0  0  0  0  0  0  0  0  0
   27.2396  -21.6939  -10.5437 C   0  0  0  0  0  0  0  0  0  0  0  0
   26.1505  -21.4381   -9.7406 C   0  0  0  0  0  0  0  0  0  0  0  0
   25.2808  -20.4478  -10.0999 C   0  0  0  0  0  0  0  0  0  0  0  0
   25.4760  -19.6993  -11.2508 C   0  0  0  0  0  0  0  0  0  0  0  0
   26.9823  -20.2773  -15.5196 C   0  0  0  0  0  0  0  0  0  0  0  0
   27.7681  -19.6127  -16.4343 O   0  0  0  0  0  0  0  0  0  0  0  0
   27.0330  -21.5306  -15.5670 O   0  0  0  0  0  0  0  0  0  0  0  0
  1  2  1  0
  2  4  1  0
  3  2  2  0
  4  5  1  0
  5  6  1  1
  7  5  1  0
  8  7  2  0
  9 10  1  0
 11 10  1  6
 11 13  1  0
 11 12  1  0
 12  7  1  0
 13 15  1  0
 14 13  2  0
 16 15  1  0
 16 24  1  0
 16 17  1  1
 18 17  1  0
 18 23  2  0
 19 18  1  0
 20 19  2  0
 20 21  1  0
 21 22  2  0
 22 23  1  0
 24 26  2  0
 24 25  1  0
M  END
$$$$
