NSF.pdb
     RDKit          3D

 26 26  0  0  1  0  0  0  0  0999 V2000
   14.3125  -15.8991  -15.8397 N   0  0  0  0  0  0  0  0  0  0  0  0
   15.1222  -15.3332  -14.8136 C   0  0  0  0  0  0  0  0  0  0  0  0
   14.9862  -15.7428  -13.6382 O   0  0  0  0  0  0  0  0  0  0  0  0
   16.1051  -14.2762  -15.1364 C   0  0  0  0  0  0  0  0  0  0  0  0
   15.9792  -13.9736  -16.6222 C   0  0  2  0  0  0  0  0  0  0  0  0
   16.5940  -15.1123  -17.2993 N   0  0  0  0  0  0  0  0  0  0  0  0
   16.7213  -12.7614  -16.9962 C   0  0  0  0  0  0  0  0  0  0  0  0
   17.9782  -12.7737  -17.0776 O   0  0  0  0  0  0  0  0  0  0  0  0
   14.7226   -9.1026  -17.4504 O   0  0  0  0  0  0  0  0  0  0  0  0
   15.7734   -9.3826  -18.3063 C   0  0  0  0  0  0  0  0  0  0  0  0
   16.7798  -10.3251  -17.6572 C   0  0  2  0  0  0  0  0  0  0  0  0
   16.0812  -11.5112  -17.2880 N   0  0  0  0  0  0  0  0  0  0  0  0
   17.4598   -9.6519  -16.4988 C   0  0  0  0  0  0  0  0  0  0  0  0
   17.0041   -9.8146  -15.3271 O   0  0  0  0  0  0  0  0  0  0  0  0
   18.6033   -8.8342  -16.6746 N   0  0  0  0  0  0  0  0  0  0  0  0
   19.2432   -8.0802  -15.6450 C   0  0  1  0  0  0  0  0  0  0  0  0
   20.7245   -8.0115  -15.7725 C   0  0  0  0  0  0  0  0  0  0  0  0
   21.4107   -7.1665  -14.7879 C   0  0  0  0  0  0  0  0  0  0  0  0
   21.6575   -5.8281  -15.0395 C   0  0  0  0  0  0  0  0  0  0  0  0
   22.2907   -5.0112  -14.1219 C   0  0  0  0  0  0  0  0  0  0  0  0
   22.6943   -5.5359  -12.9143 C   0  0  0  0  0  0  0  0  0  0  0  0
   22.4578   -6.8559  -12.6536 C   0  0  0  0  0  0  0  0  0  0  0  0
   21.8206   -7.6704  -13.5774 C   0  0  0  0  0  0  0  0  0  0  0  0
   18.5667   -6.7980  -15.3306 C   0  0  0  0  0  0  0  0  0  0  0  0
   18.3919   -6.2691  -14.0713 O   0  0  0  0  0  0  0  0  0  0  0  0
   18.1030   -6.1160  -16.2767 O   0  0  0  0  0  0  0  0  0  0  0  0
  1  2  1  0
  2  4  1  0
  3  2  2  0
  4  5  1  0
  5  6  1  6
  7  5  1  0
  8  7  2  0
  9 10  1  0
 11 10  1  1
 11 13  1  0
 11 12  1  0
 12  7  1  0
 13 15  1  0
 14 13  2  0
 16 15  1  0
 16 24  1  0
 16 17  1  6
 18 17  1  0
 18 23  2  0
 19 18  1  0
 20 19  2  0
 20 21  1  0
 21 22  2  0
 22 23  1  0
 24 26  2  0
 24 25  1  0
M  END
$$$$
