NSF.pdb
     RDKit          3D

 26 26  0  0  1  0  0  0  0  0999 V2000
   19.1409  -14.8460  -15.8381 N   0  0  0  0  0  0  0  0  0  0  0  0
   19.3202  -14.4739  -17.2012 C   0  0  0  0  0  0  0  0  0  0  0  0
   19.7397  -15.3294  -18.0136 O   0  0  0  0  0  0  0  0  0  0  0  0
   19.0168  -13.0959  -17.6445 C   0  0  0  0  0  0  0  0  0  0  0  0
   17.6382  -12.7369  -17.1100 C   0  0  2  0  0  0  0  0  0  0  0  0
   16.7125  -13.0480  -18.1958 N   0  0  0  0  0  0  0  0  0  0  0  0
   17.5272  -11.3029  -16.8083 C   0  0  0  0  0  0  0  0  0  0  0  0
   17.9185  -10.4373  -17.6354 O   0  0  0  0  0  0  0  0  0  0  0  0
   16.8219   -9.8643  -12.9368 O   0  0  0  0  0  0  0  0  0  0  0  0
   16.0693   -9.3155  -13.9604 C   0  0  0  0  0  0  0  0  0  0  0  0
   16.7948   -9.4175  -15.2967 C   0  0  2  0  0  0  0  0  0  0  0  0
   16.9782  -10.8019  -15.5812 N   0  0  0  0  0  0  0  0  0  0  0  0
   18.0823   -8.6441  -15.2567 C   0  0  0  0  0  0  0  0  0  0  0  0
   19.1789   -9.2465  -15.4610 O   0  0  0  0  0  0  0  0  0  0  0  0
   18.1113   -7.2519  -14.9958 N   0  0  0  0  0  0  0  0  0  0  0  0
   19.2629   -6.4159  -15.1102 C   0  0  1  0  0  0  0  0  0  0  0  0
   19.9804   -6.5432  -16.4080 C   0  0  0  0  0  0  0  0  0  0  0  0
   21.0609   -5.5764  -16.6365 C   0  0  0  0  0  0  0  0  0  0  0  0
   22.3878   -5.9293  -16.4624 C   0  0  0  0  0  0  0  0  0  0  0  0
   23.4215   -5.0390  -16.6839 C   0  0  0  0  0  0  0  0  0  0  0  0
   23.1331   -3.7553  -17.0909 C   0  0  0  0  0  0  0  0  0  0  0  0
   21.8274   -3.3935  -17.2654 C   0  0  0  0  0  0  0  0  0  0  0  0
   20.7945   -4.2915  -17.0433 C   0  0  0  0  0  0  0  0  0  0  0  0
   19.0485   -5.0290  -14.6295 C   0  0  0  0  0  0  0  0  0  0  0  0
   19.9445   -4.2857  -13.8941 O   0  0  0  0  0  0  0  0  0  0  0  0
   17.9636   -4.4599  -14.9023 O   0  0  0  0  0  0  0  0  0  0  0  0
  1  2  1  0
  2  4  1  0
  3  2  2  0
  4  5  1  0
  5  6  1  6
  7  5  1  0
  8  7  2  0
  9 10  1  0
 11 10  1  1
 11 13  1  0
 11 12  1  0
 12  7  1  0
 13 15  1  0
 14 13  2  0
 16 15  1  0
 16 24  1  0
 16 17  1  6
 18 17  1  0
 18 23  2  0
 19 18  1  0
 20 19  2  0
 20 21  1  0
 21 22  2  0
 22 23  1  0
 24 26  2  0
 24 25  1  0
M  END
$$$$
