NSF.pdb
     RDKit          3D

 26 26  0  0  1  0  0  0  0  0999 V2000
   19.5638  -14.4621  -16.7733 N   0  0  0  0  0  0  0  0  0  0  0  0
   19.7635  -13.7025  -15.5852 C   0  0  0  0  0  0  0  0  0  0  0  0
   19.2911  -14.1279  -14.5064 O   0  0  0  0  0  0  0  0  0  0  0  0
   20.5156  -12.4298  -15.6308 C   0  0  0  0  0  0  0  0  0  0  0  0
   20.7674  -12.1001  -17.0947 C   0  0  2  0  0  0  0  0  0  0  0  0
   21.9104  -12.9225  -17.4823 N   0  0  0  0  0  0  0  0  0  0  0  0
   21.1330  -10.6888  -17.2803 C   0  0  0  0  0  0  0  0  0  0  0  0
   22.2766  -10.2707  -16.9577 O   0  0  0  0  0  0  0  0  0  0  0  0
   18.2370   -7.9526  -18.4453 O   0  0  0  0  0  0  0  0  0  0  0  0
   19.5124   -7.7356  -18.9369 C   0  0  0  0  0  0  0  0  0  0  0  0
   20.5690   -8.3416  -18.0209 C   0  0  2  0  0  0  0  0  0  0  0  0
   20.2351   -9.7138  -17.8290 N   0  0  0  0  0  0  0  0  0  0  0  0
   20.6584   -7.5673  -16.7365 C   0  0  0  0  0  0  0  0  0  0  0  0
   19.8718   -7.8475  -15.7827 O   0  0  0  0  0  0  0  0  0  0  0  0
   21.6010   -6.5253  -16.5549 N   0  0  0  0  0  0  0  0  0  0  0  0
   21.7418   -5.7385  -15.3719 C   0  0  1  0  0  0  0  0  0  0  0  0
   23.0080   -5.9799  -14.6280 C   0  0  0  0  0  0  0  0  0  0  0  0
   23.3931   -7.3867  -14.4644 C   0  0  0  0  0  0  0  0  0  0  0  0
   24.3258   -7.9768  -15.2995 C   0  0  0  0  0  0  0  0  0  0  0  0
   24.7122   -9.2960  -15.1558 C   0  0  0  0  0  0  0  0  0  0  0  0
   24.1567  -10.0581  -14.1521 C   0  0  0  0  0  0  0  0  0  0  0  0
   23.2340   -9.4883  -13.3215 C   0  0  0  0  0  0  0  0  0  0  0  0
   22.8513   -8.1637  -13.4694 C   0  0  0  0  0  0  0  0  0  0  0  0
   21.3634   -4.3151  -15.5487 C   0  0  0  0  0  0  0  0  0  0  0  0
   21.0416   -3.7114  -16.7437 O   0  0  0  0  0  0  0  0  0  0  0  0
   21.3265   -3.5735  -14.5367 O   0  0  0  0  0  0  0  0  0  0  0  0
  1  2  1  0
  2  4  1  0
  3  2  2  0
  4  5  1  0
  5  6  1  1
  7  5  1  0
  8  7  2  0
  9 10  1  0
 11 10  1  6
 11 13  1  0
 11 12  1  0
 12  7  1  0
 13 15  1  0
 14 13  2  0
 16 15  1  0
 16 24  1  0
 16 17  1  6
 18 17  1  0
 18 23  2  0
 19 18  1  0
 20 19  2  0
 20 21  1  0
 21 22  2  0
 22 23  1  0
 24 26  2  0
 24 25  1  0
M  END
$$$$
