NSF.pdb
     RDKit          3D

 26 26  0  0  1  0  0  0  0  0999 V2000
   19.6785  -13.1983  -17.1915 N   0  0  0  0  0  0  0  0  0  0  0  0
   20.7248  -12.5600  -16.4660 C   0  0  0  0  0  0  0  0  0  0  0  0
   21.7421  -13.2224  -16.1591 O   0  0  0  0  0  0  0  0  0  0  0  0
   20.6053  -11.1370  -16.0810 C   0  0  0  0  0  0  0  0  0  0  0  0
   19.2136  -10.6705  -16.4816 C   0  0  2  0  0  0  0  0  0  0  0  0
   19.3391  -10.2367  -17.8705 N   0  0  0  0  0  0  0  0  0  0  0  0
   18.7723   -9.5209  -15.6795 C   0  0  0  0  0  0  0  0  0  0  0  0
   19.3999   -8.4294  -15.7163 O   0  0  0  0  0  0  0  0  0  0  0  0
   15.3508   -9.7913  -13.2235 O   0  0  0  0  0  0  0  0  0  0  0  0
   15.6666   -8.6051  -13.8626 C   0  0  0  0  0  0  0  0  0  0  0  0
   17.1728   -8.4566  -14.0409 C   0  0  2  0  0  0  0  0  0  0  0  0
   17.6240   -9.5610  -14.8206 N   0  0  0  0  0  0  0  0  0  0  0  0
   17.8532   -8.3557  -12.7052 C   0  0  0  0  0  0  0  0  0  0  0  0
   18.3185   -9.4019  -12.1611 O   0  0  0  0  0  0  0  0  0  0  0  0
   17.9931   -7.1192  -12.0280 N   0  0  0  0  0  0  0  0  0  0  0  0
   18.6432   -6.9376  -10.7700 C   0  0  1  0  0  0  0  0  0  0  0  0
   20.1295   -6.9627  -10.8441 C   0  0  0  0  0  0  0  0  0  0  0  0
   20.7273   -6.1720  -11.9267 C   0  0  0  0  0  0  0  0  0  0  0  0
   20.5047   -4.8097  -12.0270 C   0  0  0  0  0  0  0  0  0  0  0  0
   21.0673   -4.0438  -13.0305 C   0  0  0  0  0  0  0  0  0  0  0  0
   21.8774   -4.6458  -13.9675 C   0  0  0  0  0  0  0  0  0  0  0  0
   22.1044   -5.9901  -13.8808 C   0  0  0  0  0  0  0  0  0  0  0  0
   21.5385   -6.7533  -12.8707 C   0  0  0  0  0  0  0  0  0  0  0  0
   18.0609   -5.8516   -9.9440 C   0  0  0  0  0  0  0  0  0  0  0  0
   18.3236   -5.6265   -8.6113 O   0  0  0  0  0  0  0  0  0  0  0  0
   17.2542   -5.0547  -10.4822 O   0  0  0  0  0  0  0  0  0  0  0  0
  1  2  1  0
  2  4  1  0
  3  2  2  0
  4  5  1  0
  5  6  1  6
  7  5  1  0
  8  7  2  0
  9 10  1  0
 11 10  1  1
 11 13  1  0
 11 12  1  0
 12  7  1  0
 13 15  1  0
 14 13  2  0
 16 15  1  0
 16 24  1  0
 16 17  1  6
 18 17  1  0
 18 23  2  0
 19 18  1  0
 20 19  2  0
 20 21  1  0
 21 22  2  0
 22 23  1  0
 24 26  2  0
 24 25  1  0
M  END
$$$$
