NSF.pdb
     RDKit          3D

 26 26  0  0  1  0  0  0  0  0999 V2000
   27.3218  -15.2099  -17.0088 N   0  0  0  0  0  0  0  0  0  0  0  0
   26.3581  -14.9265  -15.9990 C   0  0  0  0  0  0  0  0  0  0  0  0
   26.3225  -13.7790  -15.4990 O   0  0  0  0  0  0  0  0  0  0  0  0
   25.4180  -15.9760  -15.5492 C   0  0  0  0  0  0  0  0  0  0  0  0
   25.8052  -17.2683  -16.2528 C   0  0  2  0  0  0  0  0  0  0  0  0
   24.8805  -17.3851  -17.3772 N   0  0  0  0  0  0  0  0  0  0  0  0
   25.6210  -18.4385  -15.3831 C   0  0  0  0  0  0  0  0  0  0  0  0
   24.4773  -18.7547  -14.9604 O   0  0  0  0  0  0  0  0  0  0  0  0
   28.8877  -20.9153  -14.2991 O   0  0  0  0  0  0  0  0  0  0  0  0
   27.5970  -21.4081  -14.3799 C   0  0  0  0  0  0  0  0  0  0  0  0
   26.5728  -20.3387  -14.0195 C   0  0  2  0  0  0  0  0  0  0  0  0
   26.7043  -19.2816  -14.9663 N   0  0  0  0  0  0  0  0  0  0  0  0
   26.7597  -19.8891  -12.5981 C   0  0  0  0  0  0  0  0  0  0  0  0
   27.5460  -18.9272  -12.3460 O   0  0  0  0  0  0  0  0  0  0  0  0
   26.0802  -20.5102  -11.5212 N   0  0  0  0  0  0  0  0  0  0  0  0
   26.2998  -20.2320  -10.1382 C   0  0  1  0  0  0  0  0  0  0  0  0
   25.2075  -19.4532   -9.4935 C   0  0  0  0  0  0  0  0  0  0  0  0
   23.9197  -20.1458   -9.3668 C   0  0  0  0  0  0  0  0  0  0  0  0
   23.0430  -20.2307  -10.4343 C   0  0  0  0  0  0  0  0  0  0  0  0
   21.8310  -20.8885  -10.3410 C   0  0  0  0  0  0  0  0  0  0  0  0
   21.4735  -21.4822   -9.1509 C   0  0  0  0  0  0  0  0  0  0  0  0
   22.3292  -21.4048   -8.0888 C   0  0  0  0  0  0  0  0  0  0  0  0
   23.5446  -20.7448   -8.1888 C   0  0  0  0  0  0  0  0  0  0  0  0
   26.8019  -21.3936   -9.3642 C   0  0  0  0  0  0  0  0  0  0  0  0
   27.2921  -21.3512   -8.0781 O   0  0  0  0  0  0  0  0  0  0  0  0
   26.7911  -22.5259   -9.9057 O   0  0  0  0  0  0  0  0  0  0  0  0
  1  2  1  0
  2  4  1  0
  3  2  2  0
  4  5  1  0
  5  6  1  6
  7  5  1  0
  8  7  2  0
  9 10  1  0
 11 10  1  6
 11 13  1  0
 11 12  1  0
 12  7  1  0
 13 15  1  0
 14 13  2  0
 16 15  1  0
 16 24  1  0
 16 17  1  1
 18 17  1  0
 18 23  2  0
 19 18  1  0
 20 19  2  0
 20 21  1  0
 21 22  2  0
 22 23  1  0
 24 26  2  0
 24 25  1  0
M  END
$$$$
