QVR.pdb
     RDKit          3D

 28 27  0  0  1  0  0  0  0  0999 V2000
    6.7328  -13.1309   18.3240 N   0  0  0  0  0  0  0  0  0  0  0  0
    8.1315  -13.4130   18.5754 C   0  0  0  0  0  0  0  0  0  0  0  0
    8.9832  -12.9682   17.8110 O   0  0  0  0  0  0  0  0  0  0  0  0
    8.4585  -14.2294   19.7445 C   0  0  0  0  0  0  0  0  0  0  0  0
    7.3087  -14.6288   20.6126 C   0  0  0  0  0  0  0  0  0  0  0  0
    7.5995  -15.2542   21.9052 C   0  0  2  0  0  0  0  0  0  0  0  0
    6.5783  -16.2513   22.2295 N   0  0  0  0  0  0  0  0  0  0  0  0
    8.0253  -14.5267   23.0820 C   0  0  0  0  0  0  0  0  0  0  0  0
    9.0278  -13.7038   23.0357 O   0  0  0  0  0  0  0  0  0  0  0  0
    6.1728  -12.0845   25.2366 C   0  0  0  0  0  0  0  0  0  0  0  0
    6.7851  -13.0840   26.1889 C   0  0  2  0  0  0  0  0  0  0  0  0
    7.1929  -12.3145   27.4136 C   0  0  0  0  0  0  0  0  0  0  0  0
    7.8201  -13.9626   25.5881 C   0  0  2  0  0  0  0  0  0  0  0  0
    7.4429  -14.6238   24.3578 N   0  0  0  0  0  0  0  0  0  0  0  0
    8.4396  -14.9005   26.5321 C   0  0  0  0  0  0  0  0  0  0  0  0
    7.8559  -15.9645   26.9137 O   0  0  0  0  0  0  0  0  0  0  0  0
   15.7301  -16.4051   23.7885 N   0  0  0  0  0  0  0  0  0  0  0  0
   14.4493  -16.7557   23.2988 C   0  0  0  0  0  0  0  0  0  0  0  0
   14.2972  -17.2028   22.0908 N   0  0  0  0  0  0  0  0  0  0  0  0
   13.2676  -16.6422   24.0827 N   0  0  0  0  0  0  0  0  0  0  0  0
   13.3107  -16.1087   25.4299 C   0  0  0  0  0  0  0  0  0  0  0  0
   11.9220  -16.3206   26.0349 C   0  0  0  0  0  0  0  0  0  0  0  0
   11.8193  -15.7404   27.4036 C   0  0  0  0  0  0  0  0  0  0  0  0
   10.3828  -15.6873   27.9201 C   0  0  2  0  0  0  0  0  0  0  0  0
    9.7264  -14.6909   27.0736 N   0  0  0  0  0  0  0  0  0  0  0  0
   10.2757  -15.3482   29.3325 C   0  0  0  0  0  0  0  0  0  0  0  0
   10.4704  -16.3121   30.3293 O   0  0  0  0  0  0  0  0  0  0  0  0
   10.0066  -14.1910   29.7600 O   0  0  0  0  0  0  0  0  0  0  0  0
  2  1  1  0
  2  4  1  0
  3  2  2  0
  5  4  1  0
  6  5  1  0
  6  7  1  1
  8  9  2  0
  8  6  1  0
 11 10  1  6
 11 13  1  0
 12 11  1  0
 13 14  1  6
 13 15  1  0
 14  8  1  0
 15 16  2  0
 15 25  1  0
 17 18  1  0
 18 20  1  0
 18 19  2  0
 20 21  1  0
 21 22  1  0
 23 22  1  0
 24 23  1  6
 24 26  1  0
 25 24  1  0
 26 28  2  0
 26 27  1  0
M  END
$$$$
