QVR.pdb
     RDKit          3D

 28 27  0  0  1  0  0  0  0  0999 V2000
    7.7636  -12.1629   18.1818 N   0  0  0  0  0  0  0  0  0  0  0  0
    7.5052  -13.5607   17.9018 C   0  0  0  0  0  0  0  0  0  0  0  0
    7.2936  -13.9149   16.7454 O   0  0  0  0  0  0  0  0  0  0  0  0
    7.5068  -14.4896   19.0320 C   0  0  0  0  0  0  0  0  0  0  0  0
    7.7529  -13.8893   20.3789 C   0  0  0  0  0  0  0  0  0  0  0  0
    7.9364  -14.7920   21.5181 C   0  0  2  0  0  0  0  0  0  0  0  0
    6.8766  -15.8011   21.5439 N   0  0  0  0  0  0  0  0  0  0  0  0
    8.2872  -14.3546   22.8527 C   0  0  0  0  0  0  0  0  0  0  0  0
    9.5102  -14.0454   23.1576 O   0  0  0  0  0  0  0  0  0  0  0  0
    6.1093  -11.8280   25.1601 C   0  0  0  0  0  0  0  0  0  0  0  0
    6.5826  -13.0277   25.9460 C   0  0  2  0  0  0  0  0  0  0  0  0
    6.8637  -12.5425   27.3403 C   0  0  0  0  0  0  0  0  0  0  0  0
    7.6589  -13.8143   25.2928 C   0  0  2  0  0  0  0  0  0  0  0  0
    7.3949  -14.2269   23.9315 N   0  0  0  0  0  0  0  0  0  0  0  0
    8.1693  -14.9284   26.1008 C   0  0  0  0  0  0  0  0  0  0  0  0
    7.4591  -15.9465   26.3790 O   0  0  0  0  0  0  0  0  0  0  0  0
   15.5025  -19.7458   26.0548 N   0  0  0  0  0  0  0  0  0  0  0  0
   14.5104  -20.2982   26.8996 C   0  0  0  0  0  0  0  0  0  0  0  0
   14.6020  -21.5203   27.3243 N   0  0  0  0  0  0  0  0  0  0  0  0
   13.3694  -19.5651   27.3293 N   0  0  0  0  0  0  0  0  0  0  0  0
   12.8937  -18.4156   26.5850 C   0  0  0  0  0  0  0  0  0  0  0  0
   11.7494  -17.8056   27.3960 C   0  0  0  0  0  0  0  0  0  0  0  0
   11.1125  -16.6627   26.6827 C   0  0  0  0  0  0  0  0  0  0  0  0
    9.9629  -16.0372   27.4703 C   0  0  2  0  0  0  0  0  0  0  0  0
    9.4834  -14.9503   26.6165 N   0  0  0  0  0  0  0  0  0  0  0  0
   10.3453  -15.5558   28.7906 C   0  0  0  0  0  0  0  0  0  0  0  0
   10.4336  -16.4249   29.8849 O   0  0  0  0  0  0  0  0  0  0  0  0
   10.6203  -14.3506   29.0478 O   0  0  0  0  0  0  0  0  0  0  0  0
  2  1  1  0
  2  4  1  0
  3  2  2  0
  5  4  1  0
  6  5  1  0
  6  7  1  1
  8  9  2  0
  8  6  1  0
 11 10  1  6
 11 13  1  0
 12 11  1  0
 13 14  1  6
 13 15  1  0
 14  8  1  0
 15 16  2  0
 15 25  1  0
 17 18  1  0
 18 20  1  0
 18 19  2  0
 20 21  1  0
 21 22  1  0
 23 22  1  0
 24 23  1  6
 24 26  1  0
 25 24  1  0
 26 28  2  0
 26 27  1  0
M  END
$$$$
