QVR.pdb
     RDKit          3D

 28 27  0  0  1  0  0  0  0  0999 V2000
    7.8794  -21.4834   18.3385 N   0  0  0  0  0  0  0  0  0  0  0  0
    8.3823  -21.2234   17.0049 C   0  0  0  0  0  0  0  0  0  0  0  0
    8.3581  -22.1196   16.1660 O   0  0  0  0  0  0  0  0  0  0  0  0
    8.9040  -19.8854   16.7265 C   0  0  0  0  0  0  0  0  0  0  0  0
    8.7300  -18.8707   17.8106 C   0  0  0  0  0  0  0  0  0  0  0  0
    9.2152  -17.5092   17.5713 C   0  0  2  0  0  0  0  0  0  0  0  0
   10.2928  -17.5194   16.5810 N   0  0  0  0  0  0  0  0  0  0  0  0
    9.4632  -16.5398   18.6174 C   0  0  0  0  0  0  0  0  0  0  0  0
   10.6488  -16.3862   19.1224 O   0  0  0  0  0  0  0  0  0  0  0  0
    7.6051  -12.8030   19.2552 C   0  0  0  0  0  0  0  0  0  0  0  0
    7.6153  -13.7397   20.4398 C   0  0  2  0  0  0  0  0  0  0  0  0
    7.6794  -12.8761   21.6681 C   0  0  0  0  0  0  0  0  0  0  0  0
    8.6091  -14.8392   20.3551 C   0  0  2  0  0  0  0  0  0  0  0  0
    8.4986  -15.6952   19.1940 N   0  0  0  0  0  0  0  0  0  0  0  0
    8.7496  -15.6239   21.5877 C   0  0  0  0  0  0  0  0  0  0  0  0
    7.9389  -16.5544   21.8962 O   0  0  0  0  0  0  0  0  0  0  0  0
   14.4844  -20.5999   22.8203 N   0  0  0  0  0  0  0  0  0  0  0  0
   14.1352  -20.0274   21.5739 C   0  0  0  0  0  0  0  0  0  0  0  0
   14.4368  -20.6203   20.4605 N   0  0  0  0  0  0  0  0  0  0  0  0
   13.4454  -18.7882   21.4618 N   0  0  0  0  0  0  0  0  0  0  0  0
   13.2234  -17.9469   22.6214 C   0  0  0  0  0  0  0  0  0  0  0  0
   11.7458  -17.5521   22.6058 C   0  0  0  0  0  0  0  0  0  0  0  0
   11.4052  -16.6356   23.7303 C   0  0  0  0  0  0  0  0  0  0  0  0
    9.9390  -16.2076   23.7246 C   0  0  2  0  0  0  0  0  0  0  0  0
    9.7968  -15.4059   22.5091 N   0  0  0  0  0  0  0  0  0  0  0  0
    9.5369  -15.4634   24.9103 C   0  0  0  0  0  0  0  0  0  0  0  0
    9.2210  -16.1171   26.1075 O   0  0  0  0  0  0  0  0  0  0  0  0
    9.4433  -14.2050   24.9532 O   0  0  0  0  0  0  0  0  0  0  0  0
  2  1  1  0
  2  4  1  0
  3  2  2  0
  5  4  1  0
  6  5  1  0
  6  7  1  1
  8  9  2  0
  8  6  1  0
 11 10  1  6
 11 13  1  0
 12 11  1  0
 13 14  1  6
 13 15  1  0
 14  8  1  0
 15 16  2  0
 15 25  1  0
 17 18  1  0
 18 20  1  0
 18 19  2  0
 20 21  1  0
 21 22  1  0
 23 22  1  0
 24 23  1  1
 24 26  1  0
 25 24  1  0
 26 28  2  0
 26 27  1  0
M  END
$$$$
