QVR.pdb
     RDKit          3D

 28 27  0  0  1  0  0  0  0  0999 V2000
    9.0515  -20.8511   17.1357 N   0  0  0  0  0  0  0  0  0  0  0  0
    9.4628  -20.1987   15.9093 C   0  0  0  0  0  0  0  0  0  0  0  0
    9.7035  -20.8790   14.9159 O   0  0  0  0  0  0  0  0  0  0  0  0
    9.5745  -18.7401   15.9222 C   0  0  0  0  0  0  0  0  0  0  0  0
    8.3850  -17.9920   16.4327 C   0  0  0  0  0  0  0  0  0  0  0  0
    8.4560  -16.5297   16.4878 C   0  0  2  0  0  0  0  0  0  0  0  0
    9.0120  -15.9997   15.2420 N   0  0  0  0  0  0  0  0  0  0  0  0
    8.9188  -15.7817   17.6375 C   0  0  0  0  0  0  0  0  0  0  0  0
   10.1355  -15.3346   17.7016 O   0  0  0  0  0  0  0  0  0  0  0  0
    6.6901  -13.1130   19.9462 C   0  0  0  0  0  0  0  0  0  0  0  0
    7.4681  -14.1306   20.7463 C   0  0  2  0  0  0  0  0  0  0  0  0
    7.8659  -13.4543   22.0280 C   0  0  0  0  0  0  0  0  0  0  0  0
    8.5530  -14.8133   19.9974 C   0  0  2  0  0  0  0  0  0  0  0  0
    8.1510  -15.4717   18.7736 N   0  0  0  0  0  0  0  0  0  0  0  0
    9.4008  -15.6842   20.8206 C   0  0  0  0  0  0  0  0  0  0  0  0
    9.1290  -16.9120   21.0121 O   0  0  0  0  0  0  0  0  0  0  0  0
   18.1640  -15.1212   22.6493 N   0  0  0  0  0  0  0  0  0  0  0  0
   17.6661  -16.4417   22.7578 C   0  0  0  0  0  0  0  0  0  0  0  0
   18.4700  -17.4447   22.9306 N   0  0  0  0  0  0  0  0  0  0  0  0
   16.2793  -16.7502   22.6847 N   0  0  0  0  0  0  0  0  0  0  0  0
   15.2853  -15.7040   22.5464 C   0  0  0  0  0  0  0  0  0  0  0  0
   13.9159  -16.3792   22.6369 C   0  0  0  0  0  0  0  0  0  0  0  0
   12.8608  -15.5877   21.9435 C   0  0  0  0  0  0  0  0  0  0  0  0
   11.4519  -16.1141   22.2099 C   0  0  2  0  0  0  0  0  0  0  0  0
   10.5781  -15.2218   21.4479 N   0  0  0  0  0  0  0  0  0  0  0  0
   11.0906  -16.1458   23.6205 C   0  0  0  0  0  0  0  0  0  0  0  0
   11.4757  -17.2087   24.4467 O   0  0  0  0  0  0  0  0  0  0  0  0
   10.4205  -15.2435   24.1957 O   0  0  0  0  0  0  0  0  0  0  0  0
  2  1  1  0
  2  4  1  0
  3  2  2  0
  5  4  1  0
  6  5  1  0
  6  7  1  6
  8  9  2  0
  8  6  1  0
 11 10  1  6
 11 13  1  0
 12 11  1  0
 13 14  1  6
 13 15  1  0
 14  8  1  0
 15 16  2  0
 15 25  1  0
 17 18  1  0
 18 20  1  0
 18 19  2  0
 20 21  1  0
 21 22  1  0
 23 22  1  0
 24 23  1  1
 24 26  1  0
 25 24  1  0
 26 28  2  0
 26 27  1  0
M  END
$$$$
