QVR.pdb
     RDKit          3D

 28 27  0  0  1  0  0  0  0  0999 V2000
    7.9726  -12.6265   18.0844 N   0  0  0  0  0  0  0  0  0  0  0  0
    7.6317  -14.0280   17.9474 C   0  0  0  0  0  0  0  0  0  0  0  0
    7.1333  -14.4276   16.8989 O   0  0  0  0  0  0  0  0  0  0  0  0
    7.9012  -14.9052   19.0867 C   0  0  0  0  0  0  0  0  0  0  0  0
    8.5371  -14.2632   20.2777 C   0  0  0  0  0  0  0  0  0  0  0  0
    8.4852  -14.9721   21.5588 C   0  0  2  0  0  0  0  0  0  0  0  0
    7.3603  -15.9084   21.5774 N   0  0  0  0  0  0  0  0  0  0  0  0
    8.6702  -14.3372   22.8465 C   0  0  0  0  0  0  0  0  0  0  0  0
    9.7465  -13.6631   23.1136 O   0  0  0  0  0  0  0  0  0  0  0  0
    6.1774  -12.0468   24.9968 C   0  0  0  0  0  0  0  0  0  0  0  0
    6.7078  -13.1926   25.8255 C   0  0  2  0  0  0  0  0  0  0  0  0
    6.8319  -12.6815   27.2333 C   0  0  0  0  0  0  0  0  0  0  0  0
    7.9042  -13.8667   25.2616 C   0  0  2  0  0  0  0  0  0  0  0  0
    7.7589  -14.3782   23.9161 N   0  0  0  0  0  0  0  0  0  0  0  0
    8.5122  -14.8637   26.1510 C   0  0  0  0  0  0  0  0  0  0  0  0
    7.9770  -15.9975   26.3663 O   0  0  0  0  0  0  0  0  0  0  0  0
   15.2067  -17.4283   23.4982 N   0  0  0  0  0  0  0  0  0  0  0  0
   14.7832  -18.4107   24.4249 C   0  0  0  0  0  0  0  0  0  0  0  0
   15.1183  -19.6549   24.2767 N   0  0  0  0  0  0  0  0  0  0  0  0
   13.9775  -18.1051   25.5568 N   0  0  0  0  0  0  0  0  0  0  0  0
   13.4689  -16.7651   25.7746 C   0  0  0  0  0  0  0  0  0  0  0  0
   12.5537  -16.8321   26.9981 C   0  0  0  0  0  0  0  0  0  0  0  0
   11.8798  -15.5287   27.2581 C   0  0  0  0  0  0  0  0  0  0  0  0
   10.3985  -15.6830   27.5975 C   0  0  2  0  0  0  0  0  0  0  0  0
    9.7343  -14.6365   26.8203 N   0  0  0  0  0  0  0  0  0  0  0  0
   10.1036  -15.5670   29.0190 C   0  0  0  0  0  0  0  0  0  0  0  0
   10.2359  -16.6620   29.8816 O   0  0  0  0  0  0  0  0  0  0  0  0
    9.7161  -14.5004   29.5726 O   0  0  0  0  0  0  0  0  0  0  0  0
  2  1  1  0
  2  4  1  0
  3  2  2  0
  5  4  1  0
  6  5  1  0
  6  7  1  1
  8  9  2  0
  8  6  1  0
 11 10  1  6
 11 13  1  0
 12 11  1  0
 13 14  1  6
 13 15  1  0
 14  8  1  0
 15 16  2  0
 15 25  1  0
 17 18  1  0
 18 20  1  0
 18 19  2  0
 20 21  1  0
 21 22  1  0
 23 22  1  0
 24 23  1  1
 24 26  1  0
 25 24  1  0
 26 28  2  0
 26 27  1  0
M  END
$$$$
