QVR.pdb
     RDKit          3D

 28 27  0  0  1  0  0  0  0  0999 V2000
    8.0326  -12.0834   18.3873 N   0  0  0  0  0  0  0  0  0  0  0  0
    8.0443  -13.4612   17.9395 C   0  0  0  0  0  0  0  0  0  0  0  0
    8.3330  -13.7138   16.7732 O   0  0  0  0  0  0  0  0  0  0  0  0
    7.7022  -14.4942   18.9172 C   0  0  0  0  0  0  0  0  0  0  0  0
    7.2242  -14.0102   20.2485 C   0  0  0  0  0  0  0  0  0  0  0  0
    7.3101  -14.9234   21.3909 C   0  0  2  0  0  0  0  0  0  0  0  0
    6.0666  -15.6827   21.5303 N   0  0  0  0  0  0  0  0  0  0  0  0
    7.8601  -14.5619   22.6801 C   0  0  0  0  0  0  0  0  0  0  0  0
    9.1344  -14.3718   22.8365 O   0  0  0  0  0  0  0  0  0  0  0  0
    6.2769  -11.9019   25.1918 C   0  0  0  0  0  0  0  0  0  0  0  0
    6.7278  -13.1217   25.9597 C   0  0  2  0  0  0  0  0  0  0  0  0
    7.2814  -12.6252   27.2657 C   0  0  0  0  0  0  0  0  0  0  0  0
    7.5885  -14.0569   25.1925 C   0  0  2  0  0  0  0  0  0  0  0  0
    7.1221  -14.3906   23.8643 N   0  0  0  0  0  0  0  0  0  0  0  0
    7.9909  -15.2568   25.9362 C   0  0  0  0  0  0  0  0  0  0  0  0
    7.1727  -16.1912   26.2112 O   0  0  0  0  0  0  0  0  0  0  0  0
   15.0819  -20.0769   24.5595 N   0  0  0  0  0  0  0  0  0  0  0  0
   14.4590  -20.5145   25.7527 C   0  0  0  0  0  0  0  0  0  0  0  0
   14.8334  -21.6106   26.3365 N   0  0  0  0  0  0  0  0  0  0  0  0
   13.4017  -19.7966   26.3775 N   0  0  0  0  0  0  0  0  0  0  0  0
   12.3596  -19.1641   25.5929 C   0  0  0  0  0  0  0  0  0  0  0  0
   11.3579  -18.5696   26.5841 C   0  0  0  0  0  0  0  0  0  0  0  0
   10.7714  -17.2950   26.0821 C   0  0  0  0  0  0  0  0  0  0  0  0
    9.7293  -16.7062   27.0311 C   0  0  2  0  0  0  0  0  0  0  0  0
    9.3127  -15.4596   26.3887 N   0  0  0  0  0  0  0  0  0  0  0  0
   10.2239  -16.4767   28.3817 C   0  0  0  0  0  0  0  0  0  0  0  0
   10.4672  -15.1825   28.8575 O   0  0  0  0  0  0  0  0  0  0  0  0
   10.4661  -17.3995   29.2087 O   0  0  0  0  0  0  0  0  0  0  0  0
  2  1  1  0
  2  4  1  0
  3  2  2  0
  5  4  1  0
  6  5  1  0
  6  7  1  1
  8  9  2  0
  8  6  1  0
 11 10  1  6
 11 13  1  0
 12 11  1  0
 13 14  1  6
 13 15  1  0
 14  8  1  0
 15 16  2  0
 15 25  1  0
 17 18  1  0
 18 20  1  0
 18 19  2  0
 20 21  1  0
 21 22  1  0
 23 22  1  0
 24 23  1  6
 24 26  1  0
 25 24  1  0
 26 28  2  0
 26 27  1  0
M  END
$$$$
