QVR.pdb
     RDKit          3D

 28 27  0  0  1  0  0  0  0  0999 V2000
   10.5981  -15.7701   11.5918 N   0  0  0  0  0  0  0  0  0  0  0  0
    9.1909  -16.1054   11.6713 C   0  0  0  0  0  0  0  0  0  0  0  0
    8.5565  -16.2933   10.6370 O   0  0  0  0  0  0  0  0  0  0  0  0
    8.5911  -16.2000   13.0022 C   0  0  0  0  0  0  0  0  0  0  0  0
    9.4981  -15.9159   14.1562 C   0  0  0  0  0  0  0  0  0  0  0  0
    9.0484  -16.2872   15.5002 C   0  0  2  0  0  0  0  0  0  0  0  0
    7.6114  -16.5649   15.4977 N   0  0  0  0  0  0  0  0  0  0  0  0
    9.4564  -15.6056   16.7104 C   0  0  0  0  0  0  0  0  0  0  0  0
   10.7110  -15.4161   16.9832 O   0  0  0  0  0  0  0  0  0  0  0  0
    7.1567  -12.6142   18.6941 C   0  0  0  0  0  0  0  0  0  0  0  0
    7.7859  -13.6776   19.5625 C   0  0  2  0  0  0  0  0  0  0  0  0
    8.0765  -13.0315   20.8879 C   0  0  0  0  0  0  0  0  0  0  0  0
    8.9080  -14.4148   18.9289 C   0  0  2  0  0  0  0  0  0  0  0  0
    8.5898  -15.0994   17.6948 N   0  0  0  0  0  0  0  0  0  0  0  0
    9.6555  -15.2834   19.8462 C   0  0  0  0  0  0  0  0  0  0  0  0
    9.2343  -16.4349   20.1853 O   0  0  0  0  0  0  0  0  0  0  0  0
   16.0025  -13.6552   20.2563 N   0  0  0  0  0  0  0  0  0  0  0  0
   16.5865  -14.2318   21.4094 C   0  0  0  0  0  0  0  0  0  0  0  0
   17.3820  -13.5437   22.1683 N   0  0  0  0  0  0  0  0  0  0  0  0
   16.3456  -15.5772   21.8039 N   0  0  0  0  0  0  0  0  0  0  0  0
   15.4518  -16.4313   21.0467 C   0  0  0  0  0  0  0  0  0  0  0  0
   14.0784  -16.3364   21.7131 C   0  0  0  0  0  0  0  0  0  0  0  0
   13.1182  -15.5448   20.8933 C   0  0  0  0  0  0  0  0  0  0  0  0
   11.6609  -15.8029   21.2711 C   0  0  2  0  0  0  0  0  0  0  0  0
   10.8946  -14.9049   20.4070 N   0  0  0  0  0  0  0  0  0  0  0  0
   11.3671  -15.5754   22.6793 C   0  0  0  0  0  0  0  0  0  0  0  0
   11.6649  -16.5396   23.6500 O   0  0  0  0  0  0  0  0  0  0  0  0
   10.8357  -14.5207   23.1259 O   0  0  0  0  0  0  0  0  0  0  0  0
  2  1  1  0
  2  4  1  0
  3  2  2  0
  5  4  1  0
  6  5  1  0
  6  7  1  6
  8  9  2  0
  8  6  1  0
 11 10  1  6
 11 13  1  0
 12 11  1  0
 13 14  1  6
 13 15  1  0
 14  8  1  0
 15 16  2  0
 15 25  1  0
 17 18  1  0
 18 20  1  0
 18 19  2  0
 20 21  1  0
 21 22  1  0
 23 22  1  0
 24 23  1  1
 24 26  1  0
 25 24  1  0
 26 28  2  0
 26 27  1  0
M  END
$$$$
