QVR.pdb
     RDKit          3D

 28 27  0  0  1  0  0  0  0  0999 V2000
    6.2848  -19.4823   18.3457 N   0  0  0  0  0  0  0  0  0  0  0  0
    7.6206  -20.0175   18.1774 C   0  0  0  0  0  0  0  0  0  0  0  0
    7.9529  -21.0182   18.8064 O   0  0  0  0  0  0  0  0  0  0  0  0
    8.5175  -19.3225   17.2541 C   0  0  0  0  0  0  0  0  0  0  0  0
    7.9588  -18.1122   16.5771 C   0  0  0  0  0  0  0  0  0  0  0  0
    8.7538  -16.8817   16.5880 C   0  0  2  0  0  0  0  0  0  0  0  0
    9.8676  -16.9867   15.6443 N   0  0  0  0  0  0  0  0  0  0  0  0
    9.1405  -16.1752   17.7909 C   0  0  0  0  0  0  0  0  0  0  0  0
   10.3505  -16.2513   18.2539 O   0  0  0  0  0  0  0  0  0  0  0  0
    7.5979  -12.4861   19.1963 C   0  0  0  0  0  0  0  0  0  0  0  0
    7.6469  -13.6127   20.2010 C   0  0  2  0  0  0  0  0  0  0  0  0
    7.8663  -12.9782   21.5456 C   0  0  0  0  0  0  0  0  0  0  0  0
    8.5593  -14.7274   19.8419 C   0  0  2  0  0  0  0  0  0  0  0  0
    8.2948  -15.3690   18.5725 N   0  0  0  0  0  0  0  0  0  0  0  0
    8.7578  -15.7146   20.9100 C   0  0  0  0  0  0  0  0  0  0  0  0
    7.9138  -16.6360   21.1482 O   0  0  0  0  0  0  0  0  0  0  0  0
   15.9771  -19.2924   22.4546 N   0  0  0  0  0  0  0  0  0  0  0  0
   14.7478  -19.7668   21.9379 C   0  0  0  0  0  0  0  0  0  0  0  0
   14.7201  -20.6127   20.9551 N   0  0  0  0  0  0  0  0  0  0  0  0
   13.4865  -19.3548   22.4511 N   0  0  0  0  0  0  0  0  0  0  0  0
   13.3954  -18.5115   23.6268 C   0  0  0  0  0  0  0  0  0  0  0  0
   11.9295  -18.0962   23.7614 C   0  0  0  0  0  0  0  0  0  0  0  0
   11.5124  -17.1734   22.6682 C   0  0  0  0  0  0  0  0  0  0  0  0
   10.0737  -16.6836   22.8208 C   0  0  2  0  0  0  0  0  0  0  0  0
    9.9007  -15.7142   21.7388 N   0  0  0  0  0  0  0  0  0  0  0  0
    9.7855  -16.0954   24.1217 C   0  0  0  0  0  0  0  0  0  0  0  0
    9.4976  -16.8951   25.2344 O   0  0  0  0  0  0  0  0  0  0  0  0
    9.7724  -14.8527   24.3448 O   0  0  0  0  0  0  0  0  0  0  0  0
  2  1  1  0
  2  4  1  0
  3  2  2  0
  5  4  1  0
  6  5  1  0
  6  7  1  1
  8  9  2  0
  8  6  1  0
 11 10  1  6
 11 13  1  0
 12 11  1  0
 13 14  1  6
 13 15  1  0
 14  8  1  0
 15 16  2  0
 15 25  1  0
 17 18  1  0
 18 20  1  0
 18 19  2  0
 20 21  1  0
 21 22  1  0
 23 22  1  0
 24 23  1  1
 24 26  1  0
 25 24  1  0
 26 28  2  0
 26 27  1  0
M  END
$$$$
