QVR.pdb
     RDKit          3D

 28 27  0  0  1  0  0  0  0  0999 V2000
    5.2586  -19.4733   16.8939 N   0  0  0  0  0  0  0  0  0  0  0  0
    6.4474  -19.9476   16.2151 C   0  0  0  0  0  0  0  0  0  0  0  0
    6.5505  -21.1402   15.9421 O   0  0  0  0  0  0  0  0  0  0  0  0
    7.4796  -18.9635   15.8893 C   0  0  0  0  0  0  0  0  0  0  0  0
    7.1960  -17.5519   16.2920 C   0  0  0  0  0  0  0  0  0  0  0  0
    8.3303  -16.6488   16.5021 C   0  0  2  0  0  0  0  0  0  0  0  0
    9.4748  -17.0725   15.6943 N   0  0  0  0  0  0  0  0  0  0  0  0
    8.7469  -16.1560   17.7979 C   0  0  0  0  0  0  0  0  0  0  0  0
    9.8935  -16.4902   18.3058 O   0  0  0  0  0  0  0  0  0  0  0  0
    7.5435  -12.4263   19.3456 C   0  0  0  0  0  0  0  0  0  0  0  0
    7.5530  -13.5639   20.3388 C   0  0  2  0  0  0  0  0  0  0  0  0
    7.9066  -12.9660   21.6715 C   0  0  0  0  0  0  0  0  0  0  0  0
    8.3412  -14.7499   19.9190 C   0  0  2  0  0  0  0  0  0  0  0  0
    7.9960  -15.3066   18.6291 N   0  0  0  0  0  0  0  0  0  0  0  0
    8.4506  -15.7966   20.9422 C   0  0  0  0  0  0  0  0  0  0  0  0
    7.4775  -16.5603   21.2390 O   0  0  0  0  0  0  0  0  0  0  0  0
   12.9716  -18.4008   18.4368 N   0  0  0  0  0  0  0  0  0  0  0  0
   13.9096  -18.7780   19.4273 C   0  0  0  0  0  0  0  0  0  0  0  0
   15.1844  -18.6794   19.2096 N   0  0  0  0  0  0  0  0  0  0  0  0
   13.5243  -19.2812   20.7009 N   0  0  0  0  0  0  0  0  0  0  0  0
   12.1280  -19.4784   21.0373 C   0  0  0  0  0  0  0  0  0  0  0  0
   11.6633  -18.2126   21.7592 C   0  0  0  0  0  0  0  0  0  0  0  0
   10.2191  -18.2792   22.1204 C   0  0  0  0  0  0  0  0  0  0  0  0
    9.7074  -16.9914   22.7629 C   0  0  2  0  0  0  0  0  0  0  0  0
    9.6434  -16.0326   21.6597 N   0  0  0  0  0  0  0  0  0  0  0  0
   10.5419  -16.5034   23.8523 C   0  0  0  0  0  0  0  0  0  0  0  0
   10.5221  -17.1121   25.1132 O   0  0  0  0  0  0  0  0  0  0  0  0
   11.3280  -15.5206   23.7509 O   0  0  0  0  0  0  0  0  0  0  0  0
  2  1  1  0
  2  4  1  0
  3  2  2  0
  5  4  1  0
  6  5  1  0
  6  7  1  1
  8  9  2  0
  8  6  1  0
 11 10  1  6
 11 13  1  0
 12 11  1  0
 13 14  1  6
 13 15  1  0
 14  8  1  0
 15 16  2  0
 15 25  1  0
 17 18  1  0
 18 20  1  0
 18 19  2  0
 20 21  1  0
 21 22  1  0
 23 22  1  0
 24 23  1  6
 24 26  1  0
 25 24  1  0
 26 28  2  0
 26 27  1  0
M  END
$$$$
