QVR.pdb
     RDKit          3D

 28 27  0  0  1  0  0  0  0  0999 V2000
   12.4642  -14.4150   13.1118 N   0  0  0  0  0  0  0  0  0  0  0  0
   11.7206  -15.5907   12.7072 C   0  0  0  0  0  0  0  0  0  0  0  0
   12.0106  -16.1553   11.6562 O   0  0  0  0  0  0  0  0  0  0  0  0
   10.6439  -16.0470   13.5861 C   0  0  0  0  0  0  0  0  0  0  0  0
   10.4545  -15.2756   14.8526 C   0  0  0  0  0  0  0  0  0  0  0  0
   10.1022  -16.0132   16.0685 C   0  0  2  0  0  0  0  0  0  0  0  0
    8.9229  -16.8477   15.8340 N   0  0  0  0  0  0  0  0  0  0  0  0
   10.0887  -15.4334   17.3948 C   0  0  0  0  0  0  0  0  0  0  0  0
   11.1489  -14.8760   17.8943 O   0  0  0  0  0  0  0  0  0  0  0  0
    6.9578  -13.2890   18.8709 C   0  0  0  0  0  0  0  0  0  0  0  0
    7.5171  -14.2497   19.8933 C   0  0  2  0  0  0  0  0  0  0  0  0
    7.3753  -13.5811   21.2318 C   0  0  0  0  0  0  0  0  0  0  0  0
    8.8596  -14.7932   19.5674 C   0  0  2  0  0  0  0  0  0  0  0  0
    8.9855  -15.4123   18.2660 N   0  0  0  0  0  0  0  0  0  0  0  0
    9.4433  -15.6341   20.6195 C   0  0  0  0  0  0  0  0  0  0  0  0
    9.0872  -16.8421   20.7987 O   0  0  0  0  0  0  0  0  0  0  0  0
   17.1542  -14.0281   19.9827 N   0  0  0  0  0  0  0  0  0  0  0  0
   16.1613  -14.4540   19.0683 C   0  0  0  0  0  0  0  0  0  0  0  0
   16.3592  -14.3818   17.7885 N   0  0  0  0  0  0  0  0  0  0  0  0
   14.9056  -14.9777   19.4837 N   0  0  0  0  0  0  0  0  0  0  0  0
   14.5109  -14.9598   20.8785 C   0  0  0  0  0  0  0  0  0  0  0  0
   13.1161  -15.5831   20.9522 C   0  0  0  0  0  0  0  0  0  0  0  0
   12.6007  -15.6244   22.3498 C   0  0  0  0  0  0  0  0  0  0  0  0
   11.1365  -16.0519   22.4307 C   0  0  2  0  0  0  0  0  0  0  0  0
   10.4441  -15.1635   21.4971 N   0  0  0  0  0  0  0  0  0  0  0  0
   10.5713  -15.9710   23.7705 C   0  0  0  0  0  0  0  0  0  0  0  0
   10.8650  -16.9339   24.7438 O   0  0  0  0  0  0  0  0  0  0  0  0
    9.7933  -15.0525   24.1518 O   0  0  0  0  0  0  0  0  0  0  0  0
  2  1  1  0
  2  4  1  0
  3  2  2  0
  5  4  1  0
  6  5  1  0
  6  7  1  6
  8  9  2  0
  8  6  1  0
 11 10  1  6
 11 13  1  0
 12 11  1  0
 13 14  1  6
 13 15  1  0
 14  8  1  0
 15 16  2  0
 15 25  1  0
 17 18  1  0
 18 20  1  0
 18 19  2  0
 20 21  1  0
 21 22  1  0
 23 22  1  0
 24 23  1  1
 24 26  1  0
 25 24  1  0
 26 28  2  0
 26 27  1  0
M  END
$$$$
