QVR.pdb
     RDKit          3D

 28 27  0  0  1  0  0  0  0  0999 V2000
    8.5995  -20.3700   15.3010 N   0  0  0  0  0  0  0  0  0  0  0  0
    7.2331  -19.9236   15.1197 C   0  0  0  0  0  0  0  0  0  0  0  0
    6.5345  -20.4539   14.2606 O   0  0  0  0  0  0  0  0  0  0  0  0
    6.7530  -18.8441   15.9825 C   0  0  0  0  0  0  0  0  0  0  0  0
    7.7622  -18.2375   16.9037 C   0  0  0  0  0  0  0  0  0  0  0  0
    7.3138  -17.7839   18.2227 C   0  0  2  0  0  0  0  0  0  0  0  0
    5.8747  -17.5175   18.2073 N   0  0  0  0  0  0  0  0  0  0  0  0
    8.0248  -16.8195   19.0349 C   0  0  0  0  0  0  0  0  0  0  0  0
    9.2866  -16.9665   19.3006 O   0  0  0  0  0  0  0  0  0  0  0  0
    7.5925  -12.7819   18.8681 C   0  0  0  0  0  0  0  0  0  0  0  0
    7.5923  -13.2849   20.2921 C   0  0  2  0  0  0  0  0  0  0  0  0
    8.2714  -12.2297   21.1191 C   0  0  0  0  0  0  0  0  0  0  0  0
    8.0873  -14.6743   20.4614 C   0  0  2  0  0  0  0  0  0  0  0  0
    7.4639  -15.6686   19.6155 N   0  0  0  0  0  0  0  0  0  0  0  0
    8.1575  -15.1256   21.8564 C   0  0  0  0  0  0  0  0  0  0  0  0
    7.1333  -15.1638   22.6099 O   0  0  0  0  0  0  0  0  0  0  0  0
    5.8143  -21.9680   25.2065 N   0  0  0  0  0  0  0  0  0  0  0  0
    7.0889  -21.7015   25.7612 C   0  0  0  0  0  0  0  0  0  0  0  0
    7.7556  -22.6293   26.3750 N   0  0  0  0  0  0  0  0  0  0  0  0
    7.7102  -20.4240   25.6848 N   0  0  0  0  0  0  0  0  0  0  0  0
    7.7409  -19.6790   24.4416 C   0  0  0  0  0  0  0  0  0  0  0  0
    8.5392  -18.4022   24.7099 C   0  0  0  0  0  0  0  0  0  0  0  0
    8.5254  -17.4833   23.5368 C   0  0  0  0  0  0  0  0  0  0  0  0
    9.3856  -16.2387   23.7470 C   0  0  2  0  0  0  0  0  0  0  0  0
    9.3624  -15.5554   22.4537 N   0  0  0  0  0  0  0  0  0  0  0  0
   10.7463  -16.5278   24.1787 C   0  0  0  0  0  0  0  0  0  0  0  0
   11.0487  -16.7590   25.5262 O   0  0  0  0  0  0  0  0  0  0  0  0
   11.7345  -16.5916   23.3954 O   0  0  0  0  0  0  0  0  0  0  0  0
  2  1  1  0
  2  4  1  0
  3  2  2  0
  5  4  1  0
  6  5  1  0
  6  7  1  6
  8  9  2  0
  8  6  1  0
 11 10  1  6
 11 13  1  0
 12 11  1  0
 13 14  1  6
 13 15  1  0
 14  8  1  0
 15 16  2  0
 15 25  1  0
 17 18  1  0
 18 20  1  0
 18 19  2  0
 20 21  1  0
 21 22  1  0
 23 22  1  0
 24 23  1  6
 24 26  1  0
 25 24  1  0
 26 28  2  0
 26 27  1  0
M  END
$$$$
