QVR.pdb
     RDKit          3D

 28 27  0  0  1  0  0  0  0  0999 V2000
    6.6312  -18.5370   17.9704 N   0  0  0  0  0  0  0  0  0  0  0  0
    7.1206  -17.8390   19.1418 C   0  0  0  0  0  0  0  0  0  0  0  0
    8.2501  -18.0794   19.5589 O   0  0  0  0  0  0  0  0  0  0  0  0
    6.2258  -16.8716   19.7771 C   0  0  0  0  0  0  0  0  0  0  0  0
    6.5825  -16.4579   21.1688 C   0  0  0  0  0  0  0  0  0  0  0  0
    7.4158  -15.2661   21.3465 C   0  0  2  0  0  0  0  0  0  0  0  0
    8.3064  -15.0916   20.1983 N   0  0  0  0  0  0  0  0  0  0  0  0
    8.0715  -14.9112   22.5873 C   0  0  0  0  0  0  0  0  0  0  0  0
    9.3186  -15.2046   22.7948 O   0  0  0  0  0  0  0  0  0  0  0  0
    5.9190  -13.2156   26.2269 C   0  0  0  0  0  0  0  0  0  0  0  0
    7.3329  -12.9394   25.7736 C   0  0  2  0  0  0  0  0  0  0  0  0
    7.3134  -11.5932   25.1059 C   0  0  0  0  0  0  0  0  0  0  0  0
    7.9690  -14.0434   25.0116 C   0  0  2  0  0  0  0  0  0  0  0  0
    7.4677  -14.2484   23.6701 N   0  0  0  0  0  0  0  0  0  0  0  0
    8.0638  -15.3100   25.7474 C   0  0  0  0  0  0  0  0  0  0  0  0
    7.0972  -16.1348   25.8066 O   0  0  0  0  0  0  0  0  0  0  0  0
   12.2695  -23.1840   24.3156 N   0  0  0  0  0  0  0  0  0  0  0  0
   11.3923  -22.4978   25.1891 C   0  0  0  0  0  0  0  0  0  0  0  0
   10.4049  -23.1141   25.7612 N   0  0  0  0  0  0  0  0  0  0  0  0
   11.5319  -21.1145   25.4903 N   0  0  0  0  0  0  0  0  0  0  0  0
   10.5951  -20.1368   24.9724 C   0  0  0  0  0  0  0  0  0  0  0  0
   10.1037  -19.3180   26.1672 C   0  0  0  0  0  0  0  0  0  0  0  0
    9.8788  -17.8900   25.8055 C   0  0  0  0  0  0  0  0  0  0  0  0
    9.3951  -17.0476   26.9843 C   0  0  2  0  0  0  0  0  0  0  0  0
    9.2348  -15.7027   26.4314 N   0  0  0  0  0  0  0  0  0  0  0  0
   10.2996  -17.0560   28.1259 C   0  0  0  0  0  0  0  0  0  0  0  0
   10.3477  -18.1420   29.0085 O   0  0  0  0  0  0  0  0  0  0  0  0
   11.0906  -16.1119   28.4040 O   0  0  0  0  0  0  0  0  0  0  0  0
  2  1  1  0
  2  4  1  0
  3  2  2  0
  5  4  1  0
  6  5  1  0
  6  7  1  6
  8  9  2  0
  8  6  1  0
 11 10  1  6
 11 13  1  0
 12 11  1  0
 13 14  1  6
 13 15  1  0
 14  8  1  0
 15 16  2  0
 15 25  1  0
 17 18  1  0
 18 20  1  0
 18 19  2  0
 20 21  1  0
 21 22  1  0
 23 22  1  0
 24 23  1  6
 24 26  1  0
 25 24  1  0
 26 28  2  0
 26 27  1  0
M  END
$$$$
