QVR.pdb
     RDKit          3D

 28 27  0  0  1  0  0  0  0  0999 V2000
    8.9586  -20.0813   14.6632 N   0  0  0  0  0  0  0  0  0  0  0  0
    7.5644  -19.7112   14.5281 C   0  0  0  0  0  0  0  0  0  0  0  0
    6.9000  -20.1880   13.6123 O   0  0  0  0  0  0  0  0  0  0  0  0
    7.0155  -18.7706   15.5049 C   0  0  0  0  0  0  0  0  0  0  0  0
    7.9511  -18.3116   16.5768 C   0  0  0  0  0  0  0  0  0  0  0  0
    8.3717  -16.9083   16.5768 C   0  0  2  0  0  0  0  0  0  0  0  0
    9.1884  -16.6215   15.3966 N   0  0  0  0  0  0  0  0  0  0  0  0
    8.8603  -16.2069   17.7451 C   0  0  0  0  0  0  0  0  0  0  0  0
   10.1286  -16.1553   18.0150 O   0  0  0  0  0  0  0  0  0  0  0  0
    7.3633  -12.6773   19.4656 C   0  0  0  0  0  0  0  0  0  0  0  0
    7.5448  -13.8350   20.4183 C   0  0  2  0  0  0  0  0  0  0  0  0
    7.8759  -13.2395   21.7578 C   0  0  0  0  0  0  0  0  0  0  0  0
    8.4508  -14.9055   19.9313 C   0  0  2  0  0  0  0  0  0  0  0  0
    8.0623  -15.5378   18.6894 N   0  0  0  0  0  0  0  0  0  0  0  0
    8.8135  -15.8999   20.9482 C   0  0  0  0  0  0  0  0  0  0  0  0
    8.0685  -16.8941   21.2218 O   0  0  0  0  0  0  0  0  0  0  0  0
   16.2071  -19.8871   24.6868 N   0  0  0  0  0  0  0  0  0  0  0  0
   14.8719  -20.2834   24.4345 C   0  0  0  0  0  0  0  0  0  0  0  0
   14.2960  -21.1875   25.1646 N   0  0  0  0  0  0  0  0  0  0  0  0
   14.0894  -19.7285   23.3840 N   0  0  0  0  0  0  0  0  0  0  0  0
   13.8881  -18.2969   23.2756 C   0  0  0  0  0  0  0  0  0  0  0  0
   12.3977  -18.0406   23.5047 C   0  0  0  0  0  0  0  0  0  0  0  0
   11.8360  -17.0984   22.4962 C   0  0  0  0  0  0  0  0  0  0  0  0
   10.3532  -16.8060   22.7175 C   0  0  2  0  0  0  0  0  0  0  0  0
   10.0156  -15.8261   21.6849 N   0  0  0  0  0  0  0  0  0  0  0  0
   10.0420  -16.3110   24.0514 C   0  0  0  0  0  0  0  0  0  0  0  0
    9.8782  -17.1858   25.1324 O   0  0  0  0  0  0  0  0  0  0  0  0
    9.8990  -15.0885   24.3329 O   0  0  0  0  0  0  0  0  0  0  0  0
  2  1  1  0
  2  4  1  0
  3  2  2  0
  5  4  1  0
  6  5  1  0
  6  7  1  6
  8  9  2  0
  8  6  1  0
 11 10  1  6
 11 13  1  0
 12 11  1  0
 13 14  1  6
 13 15  1  0
 14  8  1  0
 15 16  2  0
 15 25  1  0
 17 18  1  0
 18 20  1  0
 18 19  2  0
 20 21  1  0
 21 22  1  0
 23 22  1  0
 24 23  1  1
 24 26  1  0
 25 24  1  0
 26 28  2  0
 26 27  1  0
M  END
$$$$
