QVR.pdb
     RDKit          3D

 28 27  0  0  1  0  0  0  0  0999 V2000
    7.0555  -17.9713   14.0283 N   0  0  0  0  0  0  0  0  0  0  0  0
    6.5140  -18.4734   15.2748 C   0  0  0  0  0  0  0  0  0  0  0  0
    5.3543  -18.2083   15.5786 O   0  0  0  0  0  0  0  0  0  0  0  0
    7.3945  -19.2799   16.1199 C   0  0  0  0  0  0  0  0  0  0  0  0
    7.8738  -18.6330   17.3797 C   0  0  0  0  0  0  0  0  0  0  0  0
    8.6932  -17.4234   17.2706 C   0  0  2  0  0  0  0  0  0  0  0  0
    9.8553  -17.6710   16.4160 N   0  0  0  0  0  0  0  0  0  0  0  0
    9.0273  -16.5654   18.3875 C   0  0  0  0  0  0  0  0  0  0  0  0
   10.1817  -16.6476   18.9749 O   0  0  0  0  0  0  0  0  0  0  0  0
    7.7275  -12.5907   19.0378 C   0  0  0  0  0  0  0  0  0  0  0  0
    7.5619  -13.5408   20.2000 C   0  0  2  0  0  0  0  0  0  0  0  0
    7.7035  -12.7178   21.4495 C   0  0  0  0  0  0  0  0  0  0  0  0
    8.3921  -14.7691   20.1227 C   0  0  2  0  0  0  0  0  0  0  0  0
    8.1830  -15.5936   18.9524 N   0  0  0  0  0  0  0  0  0  0  0  0
    8.3980  -15.5734   21.3506 C   0  0  0  0  0  0  0  0  0  0  0  0
    7.3724  -16.2119   21.7489 O   0  0  0  0  0  0  0  0  0  0  0  0
   13.7426  -19.6347   27.0601 N   0  0  0  0  0  0  0  0  0  0  0  0
   13.0131  -20.3497   26.0804 C   0  0  0  0  0  0  0  0  0  0  0  0
   13.5141  -21.4034   25.5138 N   0  0  0  0  0  0  0  0  0  0  0  0
   11.7090  -19.9673   25.6598 N   0  0  0  0  0  0  0  0  0  0  0  0
   11.5017  -19.2616   24.4106 C   0  0  0  0  0  0  0  0  0  0  0  0
   11.1744  -17.8114   24.7703 C   0  0  0  0  0  0  0  0  0  0  0  0
   10.9731  -16.9712   23.5561 C   0  0  0  0  0  0  0  0  0  0  0  0
    9.5321  -16.4897   23.3990 C   0  0  2  0  0  0  0  0  0  0  0  0
    9.5425  -15.7002   22.1674 N   0  0  0  0  0  0  0  0  0  0  0  0
    9.0421  -15.7150   24.5309 C   0  0  0  0  0  0  0  0  0  0  0  0
    8.2780  -16.3086   25.5430 O   0  0  0  0  0  0  0  0  0  0  0  0
    9.2606  -14.4811   24.6865 O   0  0  0  0  0  0  0  0  0  0  0  0
  2  1  1  0
  2  4  1  0
  3  2  2  0
  5  4  1  0
  6  5  1  0
  6  7  1  1
  8  9  2  0
  8  6  1  0
 11 10  1  6
 11 13  1  0
 12 11  1  0
 13 14  1  6
 13 15  1  0
 14  8  1  0
 15 16  2  0
 15 25  1  0
 17 18  1  0
 18 20  1  0
 18 19  2  0
 20 21  1  0
 21 22  1  0
 23 22  1  0
 24 23  1  1
 24 26  1  0
 25 24  1  0
 26 28  2  0
 26 27  1  0
M  END
$$$$
