QVR.pdb
     RDKit          3D

 28 27  0  0  1  0  0  0  0  0999 V2000
    4.8170  -20.6773   16.5676 N   0  0  0  0  0  0  0  0  0  0  0  0
    5.9793  -20.8608   17.4128 C   0  0  0  0  0  0  0  0  0  0  0  0
    5.9562  -21.7172   18.2922 O   0  0  0  0  0  0  0  0  0  0  0  0
    7.1360  -19.9984   17.1708 C   0  0  0  0  0  0  0  0  0  0  0  0
    7.4352  -18.9840   18.2275 C   0  0  0  0  0  0  0  0  0  0  0  0
    8.1037  -17.7429   17.8288 C   0  0  2  0  0  0  0  0  0  0  0  0
    9.0166  -17.9923   16.7123 N   0  0  0  0  0  0  0  0  0  0  0  0
    8.6531  -16.7808   18.7605 C   0  0  0  0  0  0  0  0  0  0  0  0
    9.9259  -16.7405   19.0108 O   0  0  0  0  0  0  0  0  0  0  0  0
    7.4062  -12.8512   19.4654 C   0  0  0  0  0  0  0  0  0  0  0  0
    7.5405  -13.7016   20.7062 C   0  0  2  0  0  0  0  0  0  0  0  0
    7.9614  -12.7784   21.8147 C   0  0  0  0  0  0  0  0  0  0  0  0
    8.3505  -14.9335   20.5315 C   0  0  2  0  0  0  0  0  0  0  0  0
    7.9134  -15.8266   19.4808 N   0  0  0  0  0  0  0  0  0  0  0  0
    8.6191  -15.6624   21.7770 C   0  0  0  0  0  0  0  0  0  0  0  0
    7.7097  -16.2936   22.4037 O   0  0  0  0  0  0  0  0  0  0  0  0
   13.7747  -18.3835   19.0546 N   0  0  0  0  0  0  0  0  0  0  0  0
   12.7554  -19.2554   19.5066 C   0  0  0  0  0  0  0  0  0  0  0  0
   11.8477  -19.6977   18.6925 N   0  0  0  0  0  0  0  0  0  0  0  0
   12.6601  -19.6945   20.8563 N   0  0  0  0  0  0  0  0  0  0  0  0
   12.8289  -18.7686   21.9590 C   0  0  0  0  0  0  0  0  0  0  0  0
   11.4634  -18.1276   22.2120 C   0  0  0  0  0  0  0  0  0  0  0  0
   11.5088  -17.1535   23.3388 C   0  0  0  0  0  0  0  0  0  0  0  0
   10.1657  -16.4698   23.5875 C   0  0  2  0  0  0  0  0  0  0  0  0
    9.9041  -15.7198   22.3589 N   0  0  0  0  0  0  0  0  0  0  0  0
   10.1517  -15.6051   24.7594 C   0  0  0  0  0  0  0  0  0  0  0  0
    9.9890  -16.1282   26.0480 O   0  0  0  0  0  0  0  0  0  0  0  0
   10.2816  -14.3502   24.7095 O   0  0  0  0  0  0  0  0  0  0  0  0
  2  1  1  0
  2  4  1  0
  3  2  2  0
  5  4  1  0
  6  5  1  0
  6  7  1  6
  8  9  2  0
  8  6  1  0
 11 10  1  6
 11 13  1  0
 12 11  1  0
 13 14  1  6
 13 15  1  0
 14  8  1  0
 15 16  2  0
 15 25  1  0
 17 18  1  0
 18 20  1  0
 18 19  2  0
 20 21  1  0
 21 22  1  0
 23 22  1  0
 24 23  1  6
 24 26  1  0
 25 24  1  0
 26 28  2  0
 26 27  1  0
M  END
$$$$
