KLG.pdb
     RDKit          3D

 22 21  0  0  1  0  0  0  0  0999 V2000
    6.0658  -18.7433   22.1470 N   0  0  0  0  0  0  0  0  0  0  0  0
    6.1338  -18.3517   23.5137 C   0  0  1  0  0  0  0  0  0  0  0  0
    6.6511  -19.4227   24.3848 C   0  0  0  0  0  0  0  0  0  0  0  0
    5.8011  -20.6557   24.3063 C   0  0  0  0  0  0  0  0  0  0  0  0
    6.2032  -21.7823   25.2084 C   0  0  0  0  0  0  0  0  0  0  0  0
    5.4179  -23.0548   24.9662 C   0  0  0  0  0  0  0  0  0  0  0  0
    6.0313  -24.1277   25.6917 N   0  0  0  0  0  0  0  0  0  0  0  0
    6.9058  -17.0627   23.6564 C   0  0  0  0  0  0  0  0  0  0  0  0
    7.6991  -16.7223   22.7528 O   0  0  0  0  0  0  0  0  0  0  0  0
    6.2451  -12.1248   27.3833 C   0  0  0  0  0  0  0  0  0  0  0  0
    7.0026  -12.8209   26.3317 C   0  0  2  0  0  0  0  0  0  0  0  0
    7.0303  -11.9040   25.0784 C   0  0  0  0  0  0  0  0  0  0  0  0
    6.6376  -14.1464   25.8635 C   0  0  0  0  0  0  0  0  0  0  0  0
    7.4379  -14.9290   24.9129 C   0  0  2  0  0  0  0  0  0  0  0  0
    6.7382  -16.2420   24.7997 N   0  0  0  0  0  0  0  0  0  0  0  0
    8.7756  -15.2455   25.4071 C   0  0  0  0  0  0  0  0  0  0  0  0
    9.6859  -14.3891   25.4769 O   0  0  0  0  0  0  0  0  0  0  0  0
    9.0796  -16.5712   25.8291 N   0  0  0  0  0  0  0  0  0  0  0  0
   10.4317  -16.9106   26.2804 C   0  0  0  0  0  0  0  0  0  0  0  0
   10.4557  -17.6599   27.5373 C   0  0  0  0  0  0  0  0  0  0  0  0
    9.2144  -17.9417   28.1246 O   0  0  0  0  0  0  0  0  0  0  0  0
   11.4553  -18.0767   28.1458 O   0  0  0  0  0  0  0  0  0  0  0  0
  2  8  1  0
  2  1  1  6
  3  2  1  0
  4  3  1  0
  5  4  1  0
  6  5  1  0
  7  6  1  0
  8  9  2  0
 11 12  1  6
 11 10  1  0
 13 11  1  0
 14 13  1  1
 15 14  1  0
 15  8  1  0
 16 14  1  0
 17 16  2  0
 18 16  1  0
 19 18  1  0
 20 19  1  0
 20 21  1  0
 22 20  2  0
M  END
$$$$
