KLG.pdb
     RDKit          3D

 22 21  0  0  1  0  0  0  0  0999 V2000
    6.6934  -17.6486   23.3147 N   0  0  0  0  0  0  0  0  0  0  0  0
    7.6095  -16.9518   22.4773 C   0  0  1  0  0  0  0  0  0  0  0  0
    7.0023  -16.5290   21.2021 C   0  0  0  0  0  0  0  0  0  0  0  0
    7.0453  -17.6262   20.1808 C   0  0  0  0  0  0  0  0  0  0  0  0
    6.5113  -17.2755   18.8255 C   0  0  0  0  0  0  0  0  0  0  0  0
    6.4922  -18.4476   17.8662 C   0  0  0  0  0  0  0  0  0  0  0  0
    5.9366  -18.0195   16.6165 N   0  0  0  0  0  0  0  0  0  0  0  0
    8.2445  -15.8060   23.2268 C   0  0  0  0  0  0  0  0  0  0  0  0
    9.0986  -15.0982   22.6514 O   0  0  0  0  0  0  0  0  0  0  0  0
    7.1608  -11.4941   25.1150 C   0  0  0  0  0  0  0  0  0  0  0  0
    6.6176  -12.7493   25.6568 C   0  0  2  0  0  0  0  0  0  0  0  0
    5.6680  -12.3895   26.8319 C   0  0  0  0  0  0  0  0  0  0  0  0
    7.4739  -13.8212   26.1334 C   0  0  0  0  0  0  0  0  0  0  0  0
    8.5431  -14.4331   25.3341 C   0  0  2  0  0  0  0  0  0  0  0  0
    7.8813  -15.5297   24.5686 N   0  0  0  0  0  0  0  0  0  0  0  0
    9.5661  -15.0901   26.1438 C   0  0  0  0  0  0  0  0  0  0  0  0
   10.2077  -14.4874   27.0338 O   0  0  0  0  0  0  0  0  0  0  0  0
    9.8631  -16.4663   25.9299 N   0  0  0  0  0  0  0  0  0  0  0  0
   10.8844  -17.1357   26.7397 C   0  0  0  0  0  0  0  0  0  0  0  0
   11.0758  -18.5437   26.3890 C   0  0  0  0  0  0  0  0  0  0  0  0
   11.6232  -19.3694   27.3809 O   0  0  0  0  0  0  0  0  0  0  0  0
   10.8072  -19.0930   25.3077 O   0  0  0  0  0  0  0  0  0  0  0  0
  2  8  1  0
  2  1  1  1
  3  2  1  0
  4  3  1  0
  5  4  1  0
  6  5  1  0
  7  6  1  0
  8  9  2  0
 11 12  1  1
 11 10  1  0
 13 11  1  0
 14 13  1  1
 15 14  1  0
 15  8  1  0
 16 14  1  0
 17 16  2  0
 18 16  1  0
 19 18  1  0
 20 19  1  0
 20 21  1  0
 22 20  2  0
M  END
$$$$
