KLG.pdb
     RDKit          3D

 22 21  0  0  1  0  0  0  0  0999 V2000
    7.3107  -15.9092   21.7312 N   0  0  0  0  0  0  0  0  0  0  0  0
    8.4570  -15.0711   21.6342 C   0  0  1  0  0  0  0  0  0  0  0  0
    8.2533  -13.9368   20.7148 C   0  0  0  0  0  0  0  0  0  0  0  0
    7.8185  -14.3998   19.3563 C   0  0  0  0  0  0  0  0  0  0  0  0
    8.2788  -13.5600   18.2039 C   0  0  0  0  0  0  0  0  0  0  0  0
    7.8574  -14.1078   16.8561 C   0  0  0  0  0  0  0  0  0  0  0  0
    8.3946  -13.2719   15.8233 N   0  0  0  0  0  0  0  0  0  0  0  0
    8.9095  -14.6335   23.0059 C   0  0  0  0  0  0  0  0  0  0  0  0
    9.9811  -14.0014   23.1230 O   0  0  0  0  0  0  0  0  0  0  0  0
    7.4430  -11.3828   26.2162 C   0  0  0  0  0  0  0  0  0  0  0  0
    6.6398  -12.5816   25.9302 C   0  0  2  0  0  0  0  0  0  0  0  0
    5.3751  -12.5335   26.8303 C   0  0  0  0  0  0  0  0  0  0  0  0
    7.1814  -13.9235   26.0534 C   0  0  0  0  0  0  0  0  0  0  0  0
    8.4677  -14.3438   25.4829 C   0  0  2  0  0  0  0  0  0  0  0  0
    8.1330  -14.9323   24.1532 N   0  0  0  0  0  0  0  0  0  0  0  0
    9.1076  -15.4221   26.2324 C   0  0  0  0  0  0  0  0  0  0  0  0
    9.2944  -15.3617   27.4687 O   0  0  0  0  0  0  0  0  0  0  0  0
    9.5449  -16.5946   25.5529 N   0  0  0  0  0  0  0  0  0  0  0  0
   10.1004  -17.7212   26.3072 C   0  0  0  0  0  0  0  0  0  0  0  0
   10.4475  -18.8696   25.4688 C   0  0  0  0  0  0  0  0  0  0  0  0
   10.8911  -20.0215   26.1334 O   0  0  0  0  0  0  0  0  0  0  0  0
   10.3934  -18.9402   24.2298 O   0  0  0  0  0  0  0  0  0  0  0  0
  2  8  1  0
  2  1  1  1
  3  2  1  0
  4  3  1  0
  5  4  1  0
  6  5  1  0
  7  6  1  0
  8  9  2  0
 11 12  1  1
 11 10  1  0
 13 11  1  0
 14 13  1  1
 15 14  1  0
 15  8  1  0
 16 14  1  0
 17 16  2  0
 18 16  1  0
 19 18  1  0
 20 19  1  0
 20 21  1  0
 22 20  2  0
M  END
$$$$
