KLG.pdb
     RDKit          3D

 22 21  0  0  1  0  0  0  0  0999 V2000
    7.2524  -17.2081   20.5506 N   0  0  0  0  0  0  0  0  0  0  0  0
    7.2140  -17.3134   21.9695 C   0  0  1  0  0  0  0  0  0  0  0  0
    7.8038  -18.5723   22.4603 C   0  0  0  0  0  0  0  0  0  0  0  0
    7.6253  -19.6864   21.4724 C   0  0  0  0  0  0  0  0  0  0  0  0
    8.7833  -20.6272   21.3358 C   0  0  0  0  0  0  0  0  0  0  0  0
    8.5163  -21.7732   20.3820 C   0  0  0  0  0  0  0  0  0  0  0  0
    9.6880  -22.5942   20.2982 N   0  0  0  0  0  0  0  0  0  0  0  0
    7.8338  -16.0938   22.6069 C   0  0  0  0  0  0  0  0  0  0  0  0
    8.7278  -15.4718   21.9942 O   0  0  0  0  0  0  0  0  0  0  0  0
    6.1280  -12.3541   27.2547 C   0  0  0  0  0  0  0  0  0  0  0  0
    7.1630  -12.7864   26.3029 C   0  0  2  0  0  0  0  0  0  0  0  0
    7.5157  -11.5735   25.3993 C   0  0  0  0  0  0  0  0  0  0  0  0
    6.9727  -13.9195   25.4145 C   0  0  0  0  0  0  0  0  0  0  0  0
    8.0124  -14.4423   24.5188 C   0  0  2  0  0  0  0  0  0  0  0  0
    7.4119  -15.6528   23.8861 N   0  0  0  0  0  0  0  0  0  0  0  0
    9.1963  -14.9234   25.2264 C   0  0  0  0  0  0  0  0  0  0  0  0
   10.0546  -14.1476   25.7043 O   0  0  0  0  0  0  0  0  0  0  0  0
    9.4042  -16.3226   25.3897 N   0  0  0  0  0  0  0  0  0  0  0  0
   10.6032  -16.8164   26.0719 C   0  0  0  0  0  0  0  0  0  0  0  0
   10.3143  -17.7830   27.1321 C   0  0  0  0  0  0  0  0  0  0  0  0
   11.4161  -18.3023   27.8262 O   0  0  0  0  0  0  0  0  0  0  0  0
    9.1990  -18.1977   27.4887 O   0  0  0  0  0  0  0  0  0  0  0  0
  2  8  1  0
  2  1  1  6
  3  2  1  0
  4  3  1  0
  5  4  1  0
  6  5  1  0
  7  6  1  0
  8  9  2  0
 11 12  1  6
 11 10  1  0
 13 11  1  0
 14 13  1  1
 15 14  1  0
 15  8  1  0
 16 14  1  0
 17 16  2  0
 18 16  1  0
 19 18  1  0
 20 19  1  0
 20 21  1  0
 22 20  2  0
M  END
$$$$
