KLG.pdb
     RDKit          3D

 22 21  0  0  1  0  0  0  0  0999 V2000
    5.4441  -18.0980   22.5990 N   0  0  0  0  0  0  0  0  0  0  0  0
    6.0238  -17.8999   23.8837 C   0  0  1  0  0  0  0  0  0  0  0  0
    6.6682  -19.1178   24.4083 C   0  0  0  0  0  0  0  0  0  0  0  0
    5.7365  -20.2923   24.3747 C   0  0  0  0  0  0  0  0  0  0  0  0
    6.3237  -21.6018   24.8053 C   0  0  0  0  0  0  0  0  0  0  0  0
    5.3486  -22.7571   24.7104 C   0  0  0  0  0  0  0  0  0  0  0  0
    6.0469  -23.9807   24.9729 N   0  0  0  0  0  0  0  0  0  0  0  0
    6.9540  -16.7116   23.8664 C   0  0  0  0  0  0  0  0  0  0  0  0
    7.6791  -16.5177   22.8673 O   0  0  0  0  0  0  0  0  0  0  0  0
    6.6884  -11.7525   24.6013 C   0  0  0  0  0  0  0  0  0  0  0  0
    6.4804  -12.7727   25.6406 C   0  0  2  0  0  0  0  0  0  0  0  0
    6.1212  -12.0400   26.9621 C   0  0  0  0  0  0  0  0  0  0  0  0
    7.4977  -13.7530   25.9773 C   0  0  0  0  0  0  0  0  0  0  0  0
    8.0338  -14.7370   25.0281 C   0  0  2  0  0  0  0  0  0  0  0  0
    7.0102  -15.8209   24.9674 N   0  0  0  0  0  0  0  0  0  0  0  0
    9.2559  -15.3856   25.4968 C   0  0  0  0  0  0  0  0  0  0  0  0
    9.3911  -15.7939   26.6723 O   0  0  0  0  0  0  0  0  0  0  0  0
   10.3481  -15.5698   24.6018 N   0  0  0  0  0  0  0  0  0  0  0  0
   11.5926  -16.1838   25.0722 C   0  0  0  0  0  0  0  0  0  0  0  0
   12.5732  -16.4025   24.0079 C   0  0  0  0  0  0  0  0  0  0  0  0
   13.7763  -15.6895   24.1060 O   0  0  0  0  0  0  0  0  0  0  0  0
   12.4605  -17.1512   23.0231 O   0  0  0  0  0  0  0  0  0  0  0  0
  2  8  1  0
  2  1  1  6
  3  2  1  0
  4  3  1  0
  5  4  1  0
  6  5  1  0
  7  6  1  0
  8  9  2  0
 11 12  1  1
 11 10  1  0
 13 11  1  0
 14 13  1  1
 15 14  1  0
 15  8  1  0
 16 14  1  0
 17 16  2  0
 18 16  1  0
 19 18  1  0
 20 19  1  0
 20 21  1  0
 22 20  2  0
M  END
$$$$
