KLG.pdb
     RDKit          3D

 22 21  0  0  1  0  0  0  0  0999 V2000
    7.6291  -15.6128   21.4693 N   0  0  0  0  0  0  0  0  0  0  0  0
    8.9163  -15.0116   21.5562 C   0  0  1  0  0  0  0  0  0  0  0  0
    9.0872  -13.8988   20.6043 C   0  0  0  0  0  0  0  0  0  0  0  0
    8.1010  -13.9810   19.4776 C   0  0  0  0  0  0  0  0  0  0  0  0
    8.6749  -13.8539   18.0994 C   0  0  0  0  0  0  0  0  0  0  0  0
    7.6312  -13.9352   17.0047 C   0  0  0  0  0  0  0  0  0  0  0  0
    8.2870  -13.9078   15.7308 N   0  0  0  0  0  0  0  0  0  0  0  0
    9.2172  -14.6104   22.9796 C   0  0  0  0  0  0  0  0  0  0  0  0
   10.2738  -13.9918   23.2296 O   0  0  0  0  0  0  0  0  0  0  0  0
    7.7583  -11.4850   26.3588 C   0  0  0  0  0  0  0  0  0  0  0  0
    6.8957  -12.5595   25.8435 C   0  0  2  0  0  0  0  0  0  0  0  0
    5.5216  -12.4519   26.5594 C   0  0  0  0  0  0  0  0  0  0  0  0
    7.2823  -13.9582   25.9037 C   0  0  0  0  0  0  0  0  0  0  0  0
    8.5713  -14.4736   25.4247 C   0  0  2  0  0  0  0  0  0  0  0  0
    8.3164  -14.9281   24.0266 N   0  0  0  0  0  0  0  0  0  0  0  0
    9.0200  -15.6643   26.1421 C   0  0  0  0  0  0  0  0  0  0  0  0
    8.9861  -15.7488   27.3906 O   0  0  0  0  0  0  0  0  0  0  0  0
    9.5202  -16.7824   25.4159 N   0  0  0  0  0  0  0  0  0  0  0  0
    9.9815  -17.9780   26.1265 C   0  0  0  0  0  0  0  0  0  0  0  0
   10.3923  -19.0636   25.2351 C   0  0  0  0  0  0  0  0  0  0  0  0
   10.4655  -20.3453   25.7983 O   0  0  0  0  0  0  0  0  0  0  0  0
   10.6849  -18.9784   24.0308 O   0  0  0  0  0  0  0  0  0  0  0  0
  2  8  1  0
  2  1  1  1
  3  2  1  0
  4  3  1  0
  5  4  1  0
  6  5  1  0
  7  6  1  0
  8  9  2  0
 11 12  1  1
 11 10  1  0
 13 11  1  0
 14 13  1  1
 15 14  1  0
 15  8  1  0
 16 14  1  0
 17 16  2  0
 18 16  1  0
 19 18  1  0
 20 19  1  0
 20 21  1  0
 22 20  2  0
M  END
$$$$
