KLG.pdb
     RDKit          3D

 22 21  0  0  1  0  0  0  0  0999 V2000
    7.2427  -16.3943   21.1225 N   0  0  0  0  0  0  0  0  0  0  0  0
    7.0817  -16.6647   22.5106 C   0  0  1  0  0  0  0  0  0  0  0  0
    7.4052  -18.0608   22.8569 C   0  0  0  0  0  0  0  0  0  0  0  0
    6.1653  -18.8804   23.0571 C   0  0  0  0  0  0  0  0  0  0  0  0
    6.3824  -20.2828   23.5379 C   0  0  0  0  0  0  0  0  0  0  0  0
    5.0935  -21.0435   23.7711 C   0  0  0  0  0  0  0  0  0  0  0  0
    5.4069  -22.3974   24.1213 N   0  0  0  0  0  0  0  0  0  0  0  0
    7.8556  -15.6667   23.3369 C   0  0  0  0  0  0  0  0  0  0  0  0
    8.8743  -15.1303   22.8509 O   0  0  0  0  0  0  0  0  0  0  0  0
    7.3055  -11.2110   25.1792 C   0  0  0  0  0  0  0  0  0  0  0  0
    6.5036  -12.3423   25.6701 C   0  0  2  0  0  0  0  0  0  0  0  0
    5.5855  -11.8173   26.8076 C   0  0  0  0  0  0  0  0  0  0  0  0
    7.1116  -13.5654   26.1639 C   0  0  0  0  0  0  0  0  0  0  0  0
    8.1607  -14.3051   25.4505 C   0  0  2  0  0  0  0  0  0  0  0  0
    7.4378  -15.3363   24.6502 N   0  0  0  0  0  0  0  0  0  0  0  0
    9.0446  -15.0555   26.3390 C   0  0  0  0  0  0  0  0  0  0  0  0
    9.6608  -14.5161   27.2857 O   0  0  0  0  0  0  0  0  0  0  0  0
    9.2292  -16.4533   26.1395 N   0  0  0  0  0  0  0  0  0  0  0  0
   10.1920  -17.1952   26.9578 C   0  0  0  0  0  0  0  0  0  0  0  0
   10.1960  -18.6344   26.6920 C   0  0  0  0  0  0  0  0  0  0  0  0
   10.8710  -19.4424   27.6177 O   0  0  0  0  0  0  0  0  0  0  0  0
    9.6671  -19.2243   25.7353 O   0  0  0  0  0  0  0  0  0  0  0  0
  2  8  1  0
  2  1  1  6
  3  2  1  0
  4  3  1  0
  5  4  1  0
  6  5  1  0
  7  6  1  0
  8  9  2  0
 11 12  1  1
 11 10  1  0
 13 11  1  0
 14 13  1  1
 15 14  1  0
 15  8  1  0
 16 14  1  0
 17 16  2  0
 18 16  1  0
 19 18  1  0
 20 19  1  0
 20 21  1  0
 22 20  2  0
M  END
$$$$
