KLG.pdb
     RDKit          3D

 22 21  0  0  1  0  0  0  0  0999 V2000
    7.0450  -15.9516   21.6851 N   0  0  0  0  0  0  0  0  0  0  0  0
    8.2375  -15.1801   21.5928 C   0  0  1  0  0  0  0  0  0  0  0  0
    8.0980  -14.0282   20.6833 C   0  0  0  0  0  0  0  0  0  0  0  0
    7.7598  -14.4648   19.2890 C   0  0  0  0  0  0  0  0  0  0  0  0
    8.4003  -13.6776   18.1868 C   0  0  0  0  0  0  0  0  0  0  0  0
    7.9553  -14.1085   16.8045 C   0  0  0  0  0  0  0  0  0  0  0  0
    8.6954  -13.3704   15.8241 N   0  0  0  0  0  0  0  0  0  0  0  0
    8.7164  -14.7807   22.9672 C   0  0  0  0  0  0  0  0  0  0  0  0
    9.8148  -14.1967   23.0857 O   0  0  0  0  0  0  0  0  0  0  0  0
    7.5991  -11.4935   26.1019 C   0  0  0  0  0  0  0  0  0  0  0  0
    6.7150  -12.6435   25.8572 C   0  0  2  0  0  0  0  0  0  0  0  0
    5.4344  -12.4508   26.7145 C   0  0  0  0  0  0  0  0  0  0  0  0
    7.1498  -14.0129   26.0695 C   0  0  0  0  0  0  0  0  0  0  0  0
    8.3575  -14.5921   25.4673 C   0  0  2  0  0  0  0  0  0  0  0  0
    7.9346  -15.0616   24.1155 N   0  0  0  0  0  0  0  0  0  0  0  0
    8.8324  -15.7872   26.1601 C   0  0  0  0  0  0  0  0  0  0  0  0
    9.0686  -15.8017   27.3893 O   0  0  0  0  0  0  0  0  0  0  0  0
    9.0436  -16.9919   25.4308 N   0  0  0  0  0  0  0  0  0  0  0  0
    9.5589  -18.1845   26.1084 C   0  0  0  0  0  0  0  0  0  0  0  0
   11.0203  -18.2325   26.1732 C   0  0  0  0  0  0  0  0  0  0  0  0
   11.5852  -19.3573   26.7905 O   0  0  0  0  0  0  0  0  0  0  0  0
   11.8207  -17.3862   25.7417 O   0  0  0  0  0  0  0  0  0  0  0  0
  2  8  1  0
  2  1  1  1
  3  2  1  0
  4  3  1  0
  5  4  1  0
  6  5  1  0
  7  6  1  0
  8  9  2  0
 11 12  1  1
 11 10  1  0
 13 11  1  0
 14 13  1  1
 15 14  1  0
 15  8  1  0
 16 14  1  0
 17 16  2  0
 18 16  1  0
 19 18  1  0
 20 19  1  0
 20 21  1  0
 22 20  2  0
M  END
$$$$
