KLG.pdb
     RDKit          3D

 22 21  0  0  1  0  0  0  0  0999 V2000
   11.0594  -17.8609   17.5766 N   0  0  0  0  0  0  0  0  0  0  0  0
   10.2345  -18.0214   18.7253 C   0  0  1  0  0  0  0  0  0  0  0  0
   10.4016  -19.3401   19.3630 C   0  0  0  0  0  0  0  0  0  0  0  0
   11.4804  -20.1413   18.6973 C   0  0  0  0  0  0  0  0  0  0  0  0
   11.0502  -21.4503   18.1087 C   0  0  0  0  0  0  0  0  0  0  0  0
   12.1948  -22.2490   17.5203 C   0  0  0  0  0  0  0  0  0  0  0  0
   11.6684  -23.4183   16.8804 N   0  0  0  0  0  0  0  0  0  0  0  0
   10.4427  -16.8790   19.6894 C   0  0  0  0  0  0  0  0  0  0  0  0
   11.5487  -16.2981   19.7186 O   0  0  0  0  0  0  0  0  0  0  0  0
    8.1739  -12.7447   19.5964 C   0  0  0  0  0  0  0  0  0  0  0  0
    7.5371  -13.9249   20.2012 C   0  0  2  0  0  0  0  0  0  0  0  0
    6.1068  -13.5176   20.6488 C   0  0  0  0  0  0  0  0  0  0  0  0
    8.1308  -14.6368   21.3193 C   0  0  0  0  0  0  0  0  0  0  0  0
    9.4943  -15.1820   21.3128 C   0  0  2  0  0  0  0  0  0  0  0  0
    9.4001  -16.4640   20.5550 N   0  0  0  0  0  0  0  0  0  0  0  0
    9.9745  -15.5532   22.6415 C   0  0  0  0  0  0  0  0  0  0  0  0
   10.0753  -14.7251   23.5748 O   0  0  0  0  0  0  0  0  0  0  0  0
   10.3494  -16.9008   22.9083 N   0  0  0  0  0  0  0  0  0  0  0  0
   10.7566  -17.3006   24.2579 C   0  0  0  0  0  0  0  0  0  0  0  0
   11.0901  -18.7213   24.3694 C   0  0  0  0  0  0  0  0  0  0  0  0
   11.5011  -19.1730   25.6313 O   0  0  0  0  0  0  0  0  0  0  0  0
   11.0504  -19.5763   23.4691 O   0  0  0  0  0  0  0  0  0  0  0  0
  2  8  1  0
  2  1  1  6
  3  2  1  0
  4  3  1  0
  5  4  1  0
  6  5  1  0
  7  6  1  0
  8  9  2  0
 11 12  1  1
 11 10  1  0
 13 11  1  0
 14 13  1  1
 15 14  1  0
 15  8  1  0
 16 14  1  0
 17 16  2  0
 18 16  1  0
 19 18  1  0
 20 19  1  0
 20 21  1  0
 22 20  2  0
M  END
$$$$
