KLG.pdb
     RDKit          3D

 22 21  0  0  1  0  0  0  0  0999 V2000
    7.1741  -15.8505   21.5931 N   0  0  0  0  0  0  0  0  0  0  0  0
    8.2993  -14.9881   21.4665 C   0  0  1  0  0  0  0  0  0  0  0  0
    8.0631  -13.8843   20.5181 C   0  0  0  0  0  0  0  0  0  0  0  0
    7.7447  -14.3962   19.1450 C   0  0  0  0  0  0  0  0  0  0  0  0
    8.4101  -13.6768   18.0115 C   0  0  0  0  0  0  0  0  0  0  0  0
    7.9031  -14.1038   16.6495 C   0  0  0  0  0  0  0  0  0  0  0  0
    8.5191  -13.2884   15.6449 N   0  0  0  0  0  0  0  0  0  0  0  0
    8.7486  -14.5027   22.8231 C   0  0  0  0  0  0  0  0  0  0  0  0
    9.7527  -13.7635   22.9057 O   0  0  0  0  0  0  0  0  0  0  0  0
    7.3366  -11.3378   26.1344 C   0  0  0  0  0  0  0  0  0  0  0  0
    6.5323  -12.5275   25.8153 C   0  0  2  0  0  0  0  0  0  0  0  0
    5.2753  -12.5114   26.7274 C   0  0  0  0  0  0  0  0  0  0  0  0
    7.0764  -13.8720   25.8886 C   0  0  0  0  0  0  0  0  0  0  0  0
    8.3704  -14.2649   25.3161 C   0  0  2  0  0  0  0  0  0  0  0  0
    8.0446  -14.8769   23.9948 N   0  0  0  0  0  0  0  0  0  0  0  0
    9.0420  -15.3175   26.0742 C   0  0  0  0  0  0  0  0  0  0  0  0
    9.2261  -15.2420   27.3101 O   0  0  0  0  0  0  0  0  0  0  0  0
    9.5152  -16.4814   25.4040 N   0  0  0  0  0  0  0  0  0  0  0  0
   10.1880  -17.5441   26.1556 C   0  0  0  0  0  0  0  0  0  0  0  0
   10.5378  -18.7056   25.3367 C   0  0  0  0  0  0  0  0  0  0  0  0
   10.3523  -19.9659   25.9220 O   0  0  0  0  0  0  0  0  0  0  0  0
   10.9824  -18.7019   24.1768 O   0  0  0  0  0  0  0  0  0  0  0  0
  2  8  1  0
  2  1  1  1
  3  2  1  0
  4  3  1  0
  5  4  1  0
  6  5  1  0
  7  6  1  0
  8  9  2  0
 11 12  1  1
 11 10  1  0
 13 11  1  0
 14 13  1  1
 15 14  1  0
 15  8  1  0
 16 14  1  0
 17 16  2  0
 18 16  1  0
 19 18  1  0
 20 19  1  0
 20 21  1  0
 22 20  2  0
M  END
$$$$
