KLG.pdb
     RDKit          3D

 22 21  0  0  1  0  0  0  0  0999 V2000
    7.1899  -15.8589   21.2843 N   0  0  0  0  0  0  0  0  0  0  0  0
    8.3987  -15.1174   21.1627 C   0  0  1  0  0  0  0  0  0  0  0  0
    8.2967  -14.0253   20.1775 C   0  0  0  0  0  0  0  0  0  0  0  0
    8.1391  -14.5541   18.7830 C   0  0  0  0  0  0  0  0  0  0  0  0
    8.0701  -13.5219   17.6992 C   0  0  0  0  0  0  0  0  0  0  0  0
    7.9257  -14.1156   16.3132 C   0  0  0  0  0  0  0  0  0  0  0  0
    7.9349  -13.0564   15.3479 N   0  0  0  0  0  0  0  0  0  0  0  0
    8.8631  -14.6377   22.5162 C   0  0  0  0  0  0  0  0  0  0  0  0
    9.9747  -14.0758   22.6169 O   0  0  0  0  0  0  0  0  0  0  0  0
    5.7410  -12.4059   27.2250 C   0  0  0  0  0  0  0  0  0  0  0  0
    7.0456  -12.7991   26.6705 C   0  0  2  0  0  0  0  0  0  0  0  0
    7.9062  -11.5149   26.5206 C   0  0  0  0  0  0  0  0  0  0  0  0
    7.1674  -13.5242   25.4180 C   0  0  0  0  0  0  0  0  0  0  0  0
    8.4040  -14.1726   24.9631 C   0  0  2  0  0  0  0  0  0  0  0  0
    8.0529  -14.8189   23.6649 N   0  0  0  0  0  0  0  0  0  0  0  0
    8.8381  -15.2632   25.8326 C   0  0  0  0  0  0  0  0  0  0  0  0
    9.1612  -15.0811   27.0281 O   0  0  0  0  0  0  0  0  0  0  0  0
    8.9059  -16.5912   25.3230 N   0  0  0  0  0  0  0  0  0  0  0  0
    9.1436  -17.7183   26.2286 C   0  0  0  0  0  0  0  0  0  0  0  0
   10.5582  -18.0680   26.3653 C   0  0  0  0  0  0  0  0  0  0  0  0
   10.8613  -19.1377   27.2192 O   0  0  0  0  0  0  0  0  0  0  0  0
   11.5253  -17.5226   25.8082 O   0  0  0  0  0  0  0  0  0  0  0  0
  2  8  1  0
  2  1  1  1
  3  2  1  0
  4  3  1  0
  5  4  1  0
  6  5  1  0
  7  6  1  0
  8  9  2  0
 11 12  1  6
 11 10  1  0
 13 11  1  0
 14 13  1  1
 15 14  1  0
 15  8  1  0
 16 14  1  0
 17 16  2  0
 18 16  1  0
 19 18  1  0
 20 19  1  0
 20 21  1  0
 22 20  2  0
M  END
$$$$
