KLG.pdb
     RDKit          3D

 22 21  0  0  1  0  0  0  0  0999 V2000
    7.4751  -15.8610   21.3716 N   0  0  0  0  0  0  0  0  0  0  0  0
    8.5921  -14.9848   21.2704 C   0  0  1  0  0  0  0  0  0  0  0  0
    8.4050  -13.9448   20.2423 C   0  0  0  0  0  0  0  0  0  0  0  0
    8.1627  -14.5447   18.8894 C   0  0  0  0  0  0  0  0  0  0  0  0
    8.2766  -13.6029   17.7297 C   0  0  0  0  0  0  0  0  0  0  0  0
    7.8101  -14.2043   16.4201 C   0  0  0  0  0  0  0  0  0  0  0  0
    8.0698  -13.2751   15.3604 N   0  0  0  0  0  0  0  0  0  0  0  0
    8.9372  -14.4100   22.6226 C   0  0  0  0  0  0  0  0  0  0  0  0
    9.9575  -13.6984   22.7416 O   0  0  0  0  0  0  0  0  0  0  0  0
    5.3637  -12.4101   27.1002 C   0  0  0  0  0  0  0  0  0  0  0  0
    6.7276  -12.7104   26.6380 C   0  0  2  0  0  0  0  0  0  0  0  0
    7.4534  -11.3605   26.3867 C   0  0  0  0  0  0  0  0  0  0  0  0
    6.9852  -13.5388   25.4732 C   0  0  0  0  0  0  0  0  0  0  0  0
    8.3274  -13.9440   25.0362 C   0  0  2  0  0  0  0  0  0  0  0  0
    8.1180  -14.6699   23.7495 N   0  0  0  0  0  0  0  0  0  0  0  0
    8.9574  -14.9137   25.9286 C   0  0  0  0  0  0  0  0  0  0  0  0
    9.1968  -14.6630   27.1314 O   0  0  0  0  0  0  0  0  0  0  0  0
    9.3234  -16.1980   25.4342 N   0  0  0  0  0  0  0  0  0  0  0  0
    9.9526  -17.1792   26.3221 C   0  0  0  0  0  0  0  0  0  0  0  0
   10.2445  -18.4551   25.6672 C   0  0  0  0  0  0  0  0  0  0  0  0
    9.6822  -19.6015   26.2460 O   0  0  0  0  0  0  0  0  0  0  0  0
   10.9368  -18.6389   24.6523 O   0  0  0  0  0  0  0  0  0  0  0  0
  2  8  1  0
  2  1  1  1
  3  2  1  0
  4  3  1  0
  5  4  1  0
  6  5  1  0
  7  6  1  0
  8  9  2  0
 11 12  1  6
 11 10  1  0
 13 11  1  0
 14 13  1  1
 15 14  1  0
 15  8  1  0
 16 14  1  0
 17 16  2  0
 18 16  1  0
 19 18  1  0
 20 19  1  0
 20 21  1  0
 22 20  2  0
M  END
$$$$
