WEL.pdb
     RDKit          3D

 32 33  0  0  1  0  0  0  0  0999 V2000
   15.4601  -17.9664    3.7470 N   0  0  0  0  0  0  0  0  0  0  0  0
   16.8202  -18.4176    3.8835 C   0  0  1  0  0  0  0  0  0  0  0  0
   17.7343  -17.4412    3.1848 C   0  0  0  0  0  0  0  0  0  0  0  0
   18.4029  -18.0379    2.0094 C   0  0  0  0  0  0  0  0  0  0  0  0
   17.8153  -18.9728    1.1465 C   0  0  0  0  0  0  0  0  0  0  0  0
   18.6728  -19.2969    0.1637 N   0  0  0  0  0  0  0  0  0  0  0  0
   19.8067  -18.6102    0.3459 C   0  0  0  0  0  0  0  0  0  0  0  0
   20.9730  -18.6085   -0.3917 C   0  0  0  0  0  0  0  0  0  0  0  0
   22.0137  -17.8026    0.0223 C   0  0  0  0  0  0  0  0  0  0  0  0
   21.8730  -17.0201    1.1552 C   0  0  0  0  0  0  0  0  0  0  0  0
   20.6917  -17.0431    1.8736 C   0  0  0  0  0  0  0  0  0  0  0  0
   19.6511  -17.8276    1.4863 C   0  0  0  0  0  0  0  0  0  0  0  0
   17.1306  -18.4884    5.3415 C   0  0  0  0  0  0  0  0  0  0  0  0
   16.8792  -17.5226    6.1024 O   0  0  0  0  0  0  0  0  0  0  0  0
   17.7286  -19.6636    5.9281 N   0  0  0  0  0  0  0  0  0  0  0  0
   18.0254  -19.7251    7.3241 C   0  0  1  0  0  0  0  0  0  0  0  0
   17.6746  -20.9693    8.0389 C   0  0  0  0  0  0  0  0  0  0  0  0
   16.2680  -21.3390    8.2412 C   0  0  0  0  0  0  0  0  0  0  0  0
   15.6920  -22.4002    7.4311 C   0  0  0  0  0  0  0  0  0  0  0  0
   16.4119  -23.2721    6.8828 O   0  0  0  0  0  0  0  0  0  0  0  0
   19.4239  -19.2640    7.6129 C   0  0  0  0  0  0  0  0  0  0  0  0
   20.3720  -19.5000    6.8211 O   0  0  0  0  0  0  0  0  0  0  0  0
   14.3068  -22.5254    7.2059 O   0  0  0  0  0  0  0  0  0  0  0  0
   23.2541  -15.6015    9.2397 C   0  0  0  0  0  0  0  0  0  0  0  0
   22.2286  -16.1075   10.2029 C   0  0  1  0  0  0  0  0  0  0  0  0
   21.8404  -15.0283   11.2126 C   0  0  0  0  0  0  0  0  0  0  0  0
   21.0728  -16.8011    9.6265 C   0  0  0  0  0  0  0  0  0  0  0  0
   21.1580  -18.1779    9.1168 C   0  0  2  0  0  0  0  0  0  0  0  0
   19.7351  -18.5415    8.7929 N   0  0  0  0  0  0  0  0  0  0  0  0
   21.6940  -19.2373    9.9342 C   0  0  0  0  0  0  0  0  0  0  0  0
   20.9417  -19.8842   10.7464 O   0  0  0  0  0  0  0  0  0  0  0  0
   23.0074  -19.6442    9.9188 O   0  0  0  0  0  0  0  0  0  0  0  0
  2  1  1  1
  2 13  1  0
  3  2  1  0
  4  3  1  0
  5  4  2  0
  6  5  1  0
  7  6  1  0
  7 12  2  0
  8  7  1  0
  9  8  2  0
  9 10  1  0
 10 11  2  0
 11 12  1  0
 12  4  1  0
 13 14  2  0
 15 13  1  0
 15 16  1  0
 16 17  1  6
 18 17  1  0
 19 23  1  0
 19 18  1  0
 20 19  2  0
 21 16  1  0
 21 22  2  0
 25 24  1  6
 25 27  1  0
 25 26  1  0
 28 27  1  1
 28 29  1  0
 29 21  1  0
 30 28  1  0
 31 30  2  0
 32 30  1  0
M  END
$$$$
