WEL.pdb
     RDKit          3D

 32 33  0  0  1  0  0  0  0  0999 V2000
   26.8426  -19.5448  -10.7556 N   0  0  0  0  0  0  0  0  0  0  0  0
   26.8258  -20.9824  -10.8269 C   0  0  1  0  0  0  0  0  0  0  0  0
   27.0242  -21.5454   -9.4409 C   0  0  0  0  0  0  0  0  0  0  0  0
   27.1191  -20.4885   -8.4120 C   0  0  0  0  0  0  0  0  0  0  0  0
   26.1676  -19.4787   -8.2155 C   0  0  0  0  0  0  0  0  0  0  0  0
   26.5323  -18.6943   -7.1870 N   0  0  0  0  0  0  0  0  0  0  0  0
   27.6912  -19.1490   -6.6964 C   0  0  0  0  0  0  0  0  0  0  0  0
   28.4602  -18.6775   -5.6520 C   0  0  0  0  0  0  0  0  0  0  0  0
   29.6358  -19.3339   -5.3502 C   0  0  0  0  0  0  0  0  0  0  0  0
   30.0196  -20.4390   -6.0899 C   0  0  0  0  0  0  0  0  0  0  0  0
   29.2276  -20.8878   -7.1308 C   0  0  0  0  0  0  0  0  0  0  0  0
   28.0644  -20.2595   -7.4477 C   0  0  0  0  0  0  0  0  0  0  0  0
   25.5041  -21.3936  -11.3849 C   0  0  0  0  0  0  0  0  0  0  0  0
   25.2033  -22.6061  -11.5046 O   0  0  0  0  0  0  0  0  0  0  0  0
   24.5278  -20.4177  -11.8058 N   0  0  0  0  0  0  0  0  0  0  0  0
   23.2601  -20.8170  -12.3297 C   0  0  1  0  0  0  0  0  0  0  0  0
   22.1173  -19.9072  -12.1098 C   0  0  0  0  0  0  0  0  0  0  0  0
   20.7652  -20.2976  -12.5288 C   0  0  0  0  0  0  0  0  0  0  0  0
   19.9824  -21.1704  -11.6687 C   0  0  0  0  0  0  0  0  0  0  0  0
   19.7745  -20.8886  -10.4619 O   0  0  0  0  0  0  0  0  0  0  0  0
   23.3705  -21.2771  -13.7538 C   0  0  0  0  0  0  0  0  0  0  0  0
   23.9538  -20.5846  -14.6264 O   0  0  0  0  0  0  0  0  0  0  0  0
   19.4096  -22.3762  -12.1193 O   0  0  0  0  0  0  0  0  0  0  0  0
   25.6655  -25.6486  -15.4901 C   0  0  0  0  0  0  0  0  0  0  0  0
   25.0651  -24.2823  -15.5812 C   0  0  1  0  0  0  0  0  0  0  0  0
   25.7234  -23.4634  -16.6907 C   0  0  0  0  0  0  0  0  0  0  0  0
   23.6010  -24.2090  -15.6010 C   0  0  0  0  0  0  0  0  0  0  0  0
   22.8798  -22.9275  -15.6203 C   0  0  2  0  0  0  0  0  0  0  0  0
   22.8205  -22.5145  -14.1754 N   0  0  0  0  0  0  0  0  0  0  0  0
   21.5400  -22.8408  -16.1447 C   0  0  0  0  0  0  0  0  0  0  0  0
   20.5300  -22.7755  -15.3574 O   0  0  0  0  0  0  0  0  0  0  0  0
   21.2280  -22.8145  -17.4836 O   0  0  0  0  0  0  0  0  0  0  0  0
  2  1  1  1
  2 13  1  0
  3  2  1  0
  4  3  1  0
  5  4  2  0
  6  5  1  0
  7  6  1  0
  7 12  2  0
  8  7  1  0
  9  8  2  0
  9 10  1  0
 10 11  2  0
 11 12  1  0
 12  4  1  0
 13 14  2  0
 15 13  1  0
 15 16  1  0
 16 17  1  6
 18 17  1  0
 19 23  1  0
 19 18  1  0
 20 19  2  0
 21 16  1  0
 21 22  2  0
 25 24  1  6
 25 27  1  0
 25 26  1  0
 28 27  1  1
 28 29  1  0
 29 21  1  0
 30 28  1  0
 31 30  2  0
 32 30  1  0
M  END
$$$$
