WEL.pdb
     RDKit          3D

 32 33  0  0  1  0  0  0  0  0999 V2000
   24.9926  -18.3279  -15.7932 N   0  0  0  0  0  0  0  0  0  0  0  0
   25.9558  -18.7218  -14.7986 C   0  0  1  0  0  0  0  0  0  0  0  0
   27.0847  -17.7205  -14.7843 C   0  0  0  0  0  0  0  0  0  0  0  0
   27.9217  -17.7981  -16.0000 C   0  0  0  0  0  0  0  0  0  0  0  0
   28.2604  -16.7034  -16.8067 C   0  0  0  0  0  0  0  0  0  0  0  0
   29.0527  -17.1015  -17.8166 N   0  0  0  0  0  0  0  0  0  0  0  0
   29.2499  -18.4204  -17.7070 C   0  0  0  0  0  0  0  0  0  0  0  0
   29.9800  -19.2791  -18.5032 C   0  0  0  0  0  0  0  0  0  0  0  0
   30.0150  -20.6177  -18.1702 C   0  0  0  0  0  0  0  0  0  0  0  0
   29.3264  -21.0713  -17.0586 C   0  0  0  0  0  0  0  0  0  0  0  0
   28.6034  -20.1864  -16.2800 C   0  0  0  0  0  0  0  0  0  0  0  0
   28.5537  -18.8626  -16.5859 C   0  0  0  0  0  0  0  0  0  0  0  0
   25.2579  -18.7568  -13.4799 C   0  0  0  0  0  0  0  0  0  0  0  0
   24.5610  -17.7877  -13.0927 O   0  0  0  0  0  0  0  0  0  0  0  0
   25.3579  -19.9003  -12.6051 N   0  0  0  0  0  0  0  0  0  0  0  0
   24.7411  -19.9028  -11.3165 C   0  0  1  0  0  0  0  0  0  0  0  0
   23.3598  -20.4185  -11.2257 C   0  0  0  0  0  0  0  0  0  0  0  0
   22.7489  -21.1122  -12.3667 C   0  0  0  0  0  0  0  0  0  0  0  0
   21.4026  -21.6449  -12.2323 C   0  0  0  0  0  0  0  0  0  0  0  0
   20.7641  -21.5517  -11.1540 O   0  0  0  0  0  0  0  0  0  0  0  0
   25.6476  -20.4832  -10.2709 C   0  0  0  0  0  0  0  0  0  0  0  0
   26.2677  -21.5605  -10.4611 O   0  0  0  0  0  0  0  0  0  0  0  0
   20.7275  -22.2941  -13.2849 O   0  0  0  0  0  0  0  0  0  0  0  0
   29.5353  -20.4695   -6.4251 C   0  0  0  0  0  0  0  0  0  0  0  0
   28.3670  -19.5531   -6.2498 C   0  0  1  0  0  0  0  0  0  0  0  0
   28.7946  -18.2288   -5.6186 C   0  0  0  0  0  0  0  0  0  0  0  0
   27.4874  -19.3819   -7.4101 C   0  0  0  0  0  0  0  0  0  0  0  0
   26.6766  -20.4840   -7.9493 C   0  0  2  0  0  0  0  0  0  0  0  0
   25.8429  -19.8395   -9.0223 N   0  0  0  0  0  0  0  0  0  0  0  0
   25.7796  -21.2266   -7.0998 C   0  0  0  0  0  0  0  0  0  0  0  0
   26.2330  -22.0449   -6.2229 O   0  0  0  0  0  0  0  0  0  0  0  0
   24.4087  -21.1292   -7.1409 O   0  0  0  0  0  0  0  0  0  0  0  0
  2  1  1  6
  2 13  1  0
  3  2  1  0
  4  3  1  0
  5  4  2  0
  6  5  1  0
  7  6  1  0
  7 12  2  0
  8  7  1  0
  9  8  2  0
  9 10  1  0
 10 11  2  0
 11 12  1  0
 12  4  1  0
 13 14  2  0
 15 13  1  0
 15 16  1  0
 16 17  1  6
 18 17  1  0
 19 23  1  0
 19 18  1  0
 20 19  2  0
 21 16  1  0
 21 22  2  0
 25 24  1  6
 25 27  1  0
 25 26  1  0
 28 27  1  1
 28 29  1  0
 29 21  1  0
 30 28  1  0
 31 30  2  0
 32 30  1  0
M  END
$$$$
