WEL.pdb
     RDKit          3D

 32 33  0  0  1  0  0  0  0  0999 V2000
   27.7554  -19.3019   -9.9700 N   0  0  0  0  0  0  0  0  0  0  0  0
   26.9696  -20.4939   -9.7873 C   0  0  1  0  0  0  0  0  0  0  0  0
   26.2093  -20.3870   -8.4882 C   0  0  0  0  0  0  0  0  0  0  0  0
   27.0266  -19.8032   -7.4038 C   0  0  0  0  0  0  0  0  0  0  0  0
   27.3961  -18.4540   -7.3212 C   0  0  0  0  0  0  0  0  0  0  0  0
   28.1131  -18.2390   -6.2050 N   0  0  0  0  0  0  0  0  0  0  0  0
   28.2315  -19.3979   -5.5466 C   0  0  0  0  0  0  0  0  0  0  0  0
   28.8780  -19.6849   -4.3617 C   0  0  0  0  0  0  0  0  0  0  0  0
   28.8565  -20.9838   -3.8968 C   0  0  0  0  0  0  0  0  0  0  0  0
   28.1964  -21.9644   -4.6167 C   0  0  0  0  0  0  0  0  0  0  0  0
   27.5575  -21.6460   -5.8010 C   0  0  0  0  0  0  0  0  0  0  0  0
   27.5629  -20.3737   -6.2801 C   0  0  0  0  0  0  0  0  0  0  0  0
   26.0339  -20.6023  -10.9449 C   0  0  0  0  0  0  0  0  0  0  0  0
   25.5680  -19.5758  -11.4964 O   0  0  0  0  0  0  0  0  0  0  0  0
   25.6316  -21.8847  -11.4706 N   0  0  0  0  0  0  0  0  0  0  0  0
   24.8913  -21.9866  -12.6882 C   0  0  1  0  0  0  0  0  0  0  0  0
   25.2127  -23.1147  -13.5861 C   0  0  0  0  0  0  0  0  0  0  0  0
   24.5534  -23.2359  -14.8926 C   0  0  0  0  0  0  0  0  0  0  0  0
   24.8587  -22.2656  -15.9316 C   0  0  0  0  0  0  0  0  0  0  0  0
   23.9492  -21.6888  -16.5792 O   0  0  0  0  0  0  0  0  0  0  0  0
   23.4171  -21.8331  -12.4534 C   0  0  0  0  0  0  0  0  0  0  0  0
   22.8311  -22.4440  -11.5235 O   0  0  0  0  0  0  0  0  0  0  0  0
   26.1756  -21.9078  -16.2820 O   0  0  0  0  0  0  0  0  0  0  0  0
   20.3942  -17.0747  -13.3724 C   0  0  0  0  0  0  0  0  0  0  0  0
   20.7939  -18.3598  -12.7209 C   0  0  1  0  0  0  0  0  0  0  0  0
   20.0582  -18.5589  -11.3965 C   0  0  0  0  0  0  0  0  0  0  0  0
   20.7882  -19.5552  -13.5696 C   0  0  0  0  0  0  0  0  0  0  0  0
   21.1381  -20.8865  -13.0521 C   0  0  2  0  0  0  0  0  0  0  0  0
   22.6222  -20.9908  -13.2719 N   0  0  0  0  0  0  0  0  0  0  0  0
   20.5398  -22.0757  -13.6050 C   0  0  0  0  0  0  0  0  0  0  0  0
   21.1018  -22.7049  -14.5706 O   0  0  0  0  0  0  0  0  0  0  0  0
   19.3613  -22.6311  -13.1654 O   0  0  0  0  0  0  0  0  0  0  0  0
  2  1  1  6
  2 13  1  0
  3  2  1  0
  4  3  1  0
  5  4  2  0
  6  5  1  0
  7  6  1  0
  7 12  2  0
  8  7  1  0
  9  8  2  0
  9 10  1  0
 10 11  2  0
 11 12  1  0
 12  4  1  0
 13 14  2  0
 15 13  1  0
 15 16  1  0
 16 17  1  1
 18 17  1  0
 19 23  1  0
 19 18  1  0
 20 19  2  0
 21 16  1  0
 21 22  2  0
 25 24  1  6
 25 27  1  0
 25 26  1  0
 28 27  1  6
 28 29  1  0
 29 21  1  0
 30 28  1  0
 31 30  2  0
 32 30  1  0
M  END
$$$$
