WEL.pdb
     RDKit          3D

 32 33  0  0  1  0  0  0  0  0999 V2000
   17.8569  -11.9163  -16.7917 N   0  0  0  0  0  0  0  0  0  0  0  0
   18.4664  -10.8410  -17.5293 C   0  0  1  0  0  0  0  0  0  0  0  0
   17.6707  -10.5954  -18.7877 C   0  0  0  0  0  0  0  0  0  0  0  0
   17.7663  -11.7193  -19.7428 C   0  0  0  0  0  0  0  0  0  0  0  0
   18.9445  -12.4187  -20.0365 C   0  0  0  0  0  0  0  0  0  0  0  0
   18.6920  -13.3981  -20.9214 N   0  0  0  0  0  0  0  0  0  0  0  0
   17.3888  -13.3713  -21.2240 C   0  0  0  0  0  0  0  0  0  0  0  0
   16.6591  -14.1678  -22.0828 C   0  0  0  0  0  0  0  0  0  0  0  0
   15.3087  -13.9217  -22.2231 C   0  0  0  0  0  0  0  0  0  0  0  0
   14.7161  -12.8939  -21.5104 C   0  0  0  0  0  0  0  0  0  0  0  0
   15.4737  -12.1127  -20.6572 C   0  0  0  0  0  0  0  0  0  0  0  0
   16.8057  -12.3352  -20.5003 C   0  0  0  0  0  0  0  0  0  0  0  0
   18.4653   -9.6324  -16.6538 C   0  0  0  0  0  0  0  0  0  0  0  0
   17.4641   -9.3427  -15.9549 O   0  0  0  0  0  0  0  0  0  0  0  0
   19.6094   -8.7558  -16.5786 N   0  0  0  0  0  0  0  0  0  0  0  0
   19.5846   -7.5732  -15.7776 C   0  0  1  0  0  0  0  0  0  0  0  0
   20.8834   -6.9623  -15.4280 C   0  0  0  0  0  0  0  0  0  0  0  0
   20.9378   -5.7705  -14.5719 C   0  0  0  0  0  0  0  0  0  0  0  0
   22.2334   -5.2242  -14.2016 C   0  0  0  0  0  0  0  0  0  0  0  0
   22.3322   -4.1766  -13.5146 O   0  0  0  0  0  0  0  0  0  0  0  0
   18.5941   -6.5734  -16.2983 C   0  0  0  0  0  0  0  0  0  0  0  0
   18.3045   -6.5080  -17.5203 O   0  0  0  0  0  0  0  0  0  0  0  0
   23.4524   -5.8205  -14.5804 O   0  0  0  0  0  0  0  0  0  0  0  0
   14.7514   -4.1076  -18.3153 C   0  0  0  0  0  0  0  0  0  0  0  0
   14.6312   -4.8150  -17.0036 C   0  0  1  0  0  0  0  0  0  0  0  0
   13.4270   -5.7556  -16.9925 C   0  0  0  0  0  0  0  0  0  0  0  0
   15.8517   -5.4339  -16.4776 C   0  0  0  0  0  0  0  0  0  0  0  0
   16.9823   -4.6375  -15.9773 C   0  0  2  0  0  0  0  0  0  0  0  0
   17.9420   -5.6591  -15.4322 N   0  0  0  0  0  0  0  0  0  0  0  0
   16.7897   -3.6426  -14.9522 C   0  0  0  0  0  0  0  0  0  0  0  0
   16.2196   -2.5258  -15.2204 O   0  0  0  0  0  0  0  0  0  0  0  0
   17.1767   -3.7904  -13.6411 O   0  0  0  0  0  0  0  0  0  0  0  0
  2  1  1  1
  2 13  1  0
  3  2  1  0
  4  3  1  0
  5  4  2  0
  6  5  1  0
  7  6  1  0
  7 12  2  0
  8  7  1  0
  9  8  2  0
  9 10  1  0
 10 11  2  0
 11 12  1  0
 12  4  1  0
 13 14  2  0
 15 13  1  0
 15 16  1  0
 16 17  1  6
 18 17  1  0
 19 23  1  0
 19 18  1  0
 20 19  2  0
 21 16  1  0
 21 22  2  0
 25 24  1  6
 25 27  1  0
 25 26  1  0
 28 27  1  1
 28 29  1  0
 29 21  1  0
 30 28  1  0
 31 30  2  0
 32 30  1  0
M  END
$$$$
