WEL.pdb
     RDKit          3D

 32 33  0  0  1  0  0  0  0  0999 V2000
   22.6018  -13.3475  -17.9735 N   0  0  0  0  0  0  0  0  0  0  0  0
   21.5662  -13.0671  -17.0139 C   0  0  1  0  0  0  0  0  0  0  0  0
   22.1111  -13.2886  -15.6241 C   0  0  0  0  0  0  0  0  0  0  0  0
   22.7959  -14.5914  -15.4887 C   0  0  0  0  0  0  0  0  0  0  0  0
   22.1498  -15.8349  -15.4767 C   0  0  0  0  0  0  0  0  0  0  0  0
   23.0533  -16.8237  -15.3672 N   0  0  0  0  0  0  0  0  0  0  0  0
   24.2739  -16.2788  -15.3060 C   0  0  0  0  0  0  0  0  0  0  0  0
   25.5103  -16.8796  -15.1845 C   0  0  0  0  0  0  0  0  0  0  0  0
   26.6313  -16.0766  -15.1347 C   0  0  0  0  0  0  0  0  0  0  0  0
   26.4993  -14.7007  -15.2059 C   0  0  0  0  0  0  0  0  0  0  0  0
   25.2466  -14.1280  -15.3274 C   0  0  0  0  0  0  0  0  0  0  0  0
   24.1266  -14.8968  -15.3798 C   0  0  0  0  0  0  0  0  0  0  0  0
   21.1462  -11.6474  -17.2015 C   0  0  0  0  0  0  0  0  0  0  0  0
   21.9962  -10.7402  -17.3730 O   0  0  0  0  0  0  0  0  0  0  0  0
   19.7542  -11.2664  -17.1926 N   0  0  0  0  0  0  0  0  0  0  0  0
   19.3562   -9.9108  -17.4045 C   0  0  1  0  0  0  0  0  0  0  0  0
   18.0205   -9.6789  -17.9912 C   0  0  0  0  0  0  0  0  0  0  0  0
   17.5906   -8.3206  -18.3469 C   0  0  0  0  0  0  0  0  0  0  0  0
   16.2261   -7.9115  -18.0554 C   0  0  0  0  0  0  0  0  0  0  0  0
   15.9799   -6.9316  -17.3081 O   0  0  0  0  0  0  0  0  0  0  0  0
   19.6135   -9.0633  -16.1931 C   0  0  0  0  0  0  0  0  0  0  0  0
   19.4485   -9.5103  -15.0293 O   0  0  0  0  0  0  0  0  0  0  0  0
   15.0993   -8.5738  -18.5814 O   0  0  0  0  0  0  0  0  0  0  0  0
   22.0899   -4.6092  -13.7996 C   0  0  0  0  0  0  0  0  0  0  0  0
   22.3674   -6.0778  -13.8395 C   0  0  1  0  0  0  0  0  0  0  0  0
   22.1830   -6.7115  -12.4613 C   0  0  0  0  0  0  0  0  0  0  0  0
   21.7238   -6.8382  -14.9151 C   0  0  0  0  0  0  0  0  0  0  0  0
   20.2636   -6.8720  -15.0868 C   0  0  2  0  0  0  0  0  0  0  0  0
   20.0544   -7.7205  -16.3107 N   0  0  0  0  0  0  0  0  0  0  0  0
   19.5130   -5.6561  -15.2765 C   0  0  0  0  0  0  0  0  0  0  0  0
   18.8955   -5.1063  -14.2964 O   0  0  0  0  0  0  0  0  0  0  0  0
   19.3960   -4.9922  -16.4749 O   0  0  0  0  0  0  0  0  0  0  0  0
  2  1  1  6
  2 13  1  0
  3  2  1  0
  4  3  1  0
  5  4  2  0
  6  5  1  0
  7  6  1  0
  7 12  2  0
  8  7  1  0
  9  8  2  0
  9 10  1  0
 10 11  2  0
 11 12  1  0
 12  4  1  0
 13 14  2  0
 15 13  1  0
 15 16  1  0
 16 17  1  1
 18 17  1  0
 19 23  1  0
 19 18  1  0
 20 19  2  0
 21 16  1  0
 21 22  2  0
 25 24  1  1
 25 27  1  0
 25 26  1  0
 28 27  1  6
 28 29  1  0
 29 21  1  0
 30 28  1  0
 31 30  2  0
 32 30  1  0
M  END
$$$$
