WEL.pdb
     RDKit          3D

 32 33  0  0  1  0  0  0  0  0999 V2000
   25.3991  -16.7901  -18.5555 N   0  0  0  0  0  0  0  0  0  0  0  0
   24.1532  -17.5109  -18.5363 C   0  0  1  0  0  0  0  0  0  0  0  0
   24.3431  -18.8388  -19.2275 C   0  0  0  0  0  0  0  0  0  0  0  0
   23.4657  -18.9900  -20.4073 C   0  0  0  0  0  0  0  0  0  0  0  0
   23.8908  -18.8757  -21.7377 C   0  0  0  0  0  0  0  0  0  0  0  0
   22.8602  -19.0936  -22.5723 N   0  0  0  0  0  0  0  0  0  0  0  0
   21.7684  -19.3475  -21.8415 C   0  0  0  0  0  0  0  0  0  0  0  0
   20.4764  -19.6235  -22.2402 C   0  0  0  0  0  0  0  0  0  0  0  0
   19.5199  -19.8430  -21.2703 C   0  0  0  0  0  0  0  0  0  0  0  0
   19.8668  -19.7833  -19.9318 C   0  0  0  0  0  0  0  0  0  0  0  0
   21.1701  -19.5045  -19.5633 C   0  0  0  0  0  0  0  0  0  0  0  0
   22.1315  -19.2854  -20.4993 C   0  0  0  0  0  0  0  0  0  0  0  0
   23.7630  -17.7042  -17.1088 C   0  0  0  0  0  0  0  0  0  0  0  0
   24.6023  -17.5669  -16.1860 O   0  0  0  0  0  0  0  0  0  0  0  0
   22.4130  -18.0550  -16.7380 N   0  0  0  0  0  0  0  0  0  0  0  0
   22.0230  -18.1509  -15.3671 C   0  0  1  0  0  0  0  0  0  0  0  0
   20.6143  -17.8504  -15.0391 C   0  0  0  0  0  0  0  0  0  0  0  0
   20.1198  -18.0132  -13.6661 C   0  0  0  0  0  0  0  0  0  0  0  0
   18.7270  -17.7135  -13.3757 C   0  0  0  0  0  0  0  0  0  0  0  0
   17.9435  -17.3034  -14.2685 O   0  0  0  0  0  0  0  0  0  0  0  0
   22.5049  -19.4277  -14.7432 C   0  0  0  0  0  0  0  0  0  0  0  0
   22.2845  -20.5453  -15.2759 O   0  0  0  0  0  0  0  0  0  0  0  0
   18.1640  -17.8589  -12.0923 O   0  0  0  0  0  0  0  0  0  0  0  0
   26.0888  -22.3571  -11.6127 C   0  0  0  0  0  0  0  0  0  0  0  0
   25.2795  -21.2773  -10.9689 C   0  0  1  0  0  0  0  0  0  0  0  0
   26.0509  -20.6158   -9.8277 C   0  0  0  0  0  0  0  0  0  0  0  0
   24.6393  -20.3124  -11.8681 C   0  0  0  0  0  0  0  0  0  0  0  0
   23.6607  -20.7196  -12.8875 C   0  0  2  0  0  0  0  0  0  0  0  0
   23.2304  -19.4270  -13.5245 N   0  0  0  0  0  0  0  0  0  0  0  0
   22.4639  -21.4339  -12.5200 C   0  0  0  0  0  0  0  0  0  0  0  0
   22.2778  -22.6434  -12.9029 O   0  0  0  0  0  0  0  0  0  0  0  0
   21.4508  -20.9121  -11.7505 O   0  0  0  0  0  0  0  0  0  0  0  0
  2  1  1  1
  2 13  1  0
  3  2  1  0
  4  3  1  0
  5  4  2  0
  6  5  1  0
  7  6  1  0
  7 12  2  0
  8  7  1  0
  9  8  2  0
  9 10  1  0
 10 11  2  0
 11 12  1  0
 12  4  1  0
 13 14  2  0
 15 13  1  0
 15 16  1  0
 16 17  1  6
 18 17  1  0
 19 23  1  0
 19 18  1  0
 20 19  2  0
 21 16  1  0
 21 22  2  0
 25 24  1  6
 25 27  1  0
 25 26  1  0
 28 27  1  1
 28 29  1  0
 29 21  1  0
 30 28  1  0
 31 30  2  0
 32 30  1  0
M  END
$$$$
