CMA.pdb
     RDKit          3D

 20 19  0  0  1  0  0  0  0  0999 V2000
   31.9193   -9.5913  -19.5869 N   0  0  0  0  0  0  0  0  0  0  0  0
   30.9540   -9.3851  -18.5546 C   0  0  1  0  0  0  0  0  0  0  0  0
   30.3401  -10.7238  -18.2125 C   0  0  0  0  0  0  0  0  0  0  0  0
   29.3987  -11.3438  -19.6235 S   0  0  0  0  0  0  0  0  0  0  0  0
   31.5280   -8.7804  -17.3298 C   0  0  0  0  0  0  0  0  0  0  0  0
   30.7770   -8.5106  -16.3425 O   0  0  0  0  0  0  0  0  0  0  0  0
   36.7362  -10.4098  -13.9693 C   0  0  0  0  0  0  0  0  0  0  0  0
   37.1396   -8.7069  -14.4486 S   0  0  0  0  0  0  0  0  0  0  0  0
   35.5416   -7.8052  -14.6447 C   0  0  0  0  0  0  0  0  0  0  0  0
   34.7956   -8.4011  -15.7987 C   0  0  0  0  0  0  0  0  0  0  0  0
   33.4349   -7.8146  -16.0099 C   0  0  2  0  0  0  0  0  0  0  0  0
   32.8933   -8.4894  -17.2174 N   0  0  0  0  0  0  0  0  0  0  0  0
   33.4900   -6.3687  -16.2778 C   0  0  0  0  0  0  0  0  0  0  0  0
   33.9528   -5.9813  -17.3885 O   0  0  0  0  0  0  0  0  0  0  0  0
   32.4427   -3.0939  -14.6458 C   0  0  0  0  0  0  0  0  0  0  0  0
   33.2000   -3.9407  -15.6423 C   0  0  2  0  0  0  0  0  0  0  0  0
   33.0577   -5.3529  -15.3860 N   0  0  0  0  0  0  0  0  0  0  0  0
   34.6159   -3.5130  -15.7360 C   0  0  0  0  0  0  0  0  0  0  0  0
   35.0295   -2.6021  -16.6954 O   0  0  0  0  0  0  0  0  0  0  0  0
   35.4956   -3.9546  -14.9558 O   0  0  0  0  0  0  0  0  0  0  0  0
  2  1  1  6
  2  3  1  0
  3  4  1  0
  5  6  2  0
  5  2  1  0
  8  9  1  0
  8  7  1  0
  9 10  1  0
 11 10  1  6
 11 12  1  0
 11 13  1  0
 12  5  1  0
 13 14  2  0
 16 15  1  1
 17 13  1  0
 17 16  1  0
 18 19  1  0
 18 16  1  0
 20 18  2  0
M  END
$$$$
