CMA.pdb
     RDKit          3D

 20 19  0  0  1  0  0  0  0  0999 V2000
   28.2216  -21.3083  -14.8415 N   0  0  0  0  0  0  0  0  0  0  0  0
   27.7039  -20.2941  -13.9791 C   0  0  1  0  0  0  0  0  0  0  0  0
   26.7687  -19.4238  -14.7877 C   0  0  0  0  0  0  0  0  0  0  0  0
   27.6585  -17.9792  -15.4065 S   0  0  0  0  0  0  0  0  0  0  0  0
   26.9790  -20.8377  -12.8068 C   0  0  0  0  0  0  0  0  0  0  0  0
   26.5341  -22.0265  -12.8304 O   0  0  0  0  0  0  0  0  0  0  0  0
   26.5561  -20.1085   -5.0352 C   0  0  0  0  0  0  0  0  0  0  0  0
   27.0602  -19.4102   -6.6323 S   0  0  0  0  0  0  0  0  0  0  0  0
   26.2862  -20.4481   -7.9471 C   0  0  0  0  0  0  0  0  0  0  0  0
   26.7038  -19.9157   -9.2833 C   0  0  0  0  0  0  0  0  0  0  0  0
   26.1440  -20.6789  -10.4428 C   0  0  2  0  0  0  0  0  0  0  0  0
   26.7615  -20.0760  -11.6520 N   0  0  0  0  0  0  0  0  0  0  0  0
   24.6838  -20.5308  -10.5507 C   0  0  0  0  0  0  0  0  0  0  0  0
   23.9772  -20.7953   -9.5365 O   0  0  0  0  0  0  0  0  0  0  0  0
   22.1456  -18.8739  -12.7709 C   0  0  0  0  0  0  0  0  0  0  0  0
   22.5561  -19.9340  -11.7753 C   0  0  2  0  0  0  0  0  0  0  0  0
   23.9867  -20.1055  -11.7113 N   0  0  0  0  0  0  0  0  0  0  0  0
   21.8352  -21.2048  -12.0241 C   0  0  0  0  0  0  0  0  0  0  0  0
   20.4596  -21.2913  -11.8771 O   0  0  0  0  0  0  0  0  0  0  0  0
   22.4354  -22.2504  -12.3760 O   0  0  0  0  0  0  0  0  0  0  0  0
  2  1  1  6
  2  3  1  0
  3  4  1  0
  5  6  2  0
  5  2  1  0
  8  9  1  0
  8  7  1  0
  9 10  1  0
 11 10  1  1
 11 12  1  0
 11 13  1  0
 12  5  1  0
 13 14  2  0
 16 15  1  6
 17 13  1  0
 17 16  1  0
 18 19  1  0
 18 16  1  0
 20 18  2  0
M  END
$$$$
