CMA.pdb
     RDKit          3D

 20 19  0  0  1  0  0  0  0  0999 V2000
   16.2130  -10.6600  -14.9585 N   0  0  0  0  0  0  0  0  0  0  0  0
   17.0309   -9.8653  -15.8185 C   0  0  1  0  0  0  0  0  0  0  0  0
   16.1677   -8.7736  -16.4092 C   0  0  0  0  0  0  0  0  0  0  0  0
   15.0106   -9.4847  -17.5994 S   0  0  0  0  0  0  0  0  0  0  0  0
   18.1886   -9.2548  -15.1241 C   0  0  0  0  0  0  0  0  0  0  0  0
   18.1141   -8.9789  -13.8872 O   0  0  0  0  0  0  0  0  0  0  0  0
   23.6921  -11.7035  -14.7547 C   0  0  0  0  0  0  0  0  0  0  0  0
   24.3082  -10.0798  -15.2805 S   0  0  0  0  0  0  0  0  0  0  0  0
   23.0145   -8.8398  -14.8402 C   0  0  0  0  0  0  0  0  0  0  0  0
   21.7091   -9.2834  -15.4255 C   0  0  0  0  0  0  0  0  0  0  0  0
   20.5521   -8.4054  -15.0640 C   0  0  2  0  0  0  0  0  0  0  0  0
   19.3846   -8.9649  -15.7925 N   0  0  0  0  0  0  0  0  0  0  0  0
   20.7493   -7.0170  -15.5100 C   0  0  0  0  0  0  0  0  0  0  0  0
   21.5484   -6.2852  -14.8590 O   0  0  0  0  0  0  0  0  0  0  0  0
   20.0602   -4.8821  -18.5440 C   0  0  0  0  0  0  0  0  0  0  0  0
   20.3740   -5.0719  -17.0780 C   0  0  2  0  0  0  0  0  0  0  0  0
   20.1143   -6.4176  -16.6286 N   0  0  0  0  0  0  0  0  0  0  0  0
   19.6922   -4.0480  -16.2514 C   0  0  0  0  0  0  0  0  0  0  0  0
   20.2137   -2.7710  -16.1146 O   0  0  0  0  0  0  0  0  0  0  0  0
   18.6204   -4.2916  -15.6436 O   0  0  0  0  0  0  0  0  0  0  0  0
  2  1  1  1
  2  3  1  0
  3  4  1  0
  5  6  2  0
  5  2  1  0
  8  9  1  0
  8  7  1  0
  9 10  1  0
 11 10  1  6
 11 12  1  0
 11 13  1  0
 12  5  1  0
 13 14  2  0
 16 15  1  6
 17 13  1  0
 17 16  1  0
 18 19  1  0
 18 16  1  0
 20 18  2  0
M  END
$$$$
