CMA.pdb
     RDKit          3D

 20 19  0  0  1  0  0  0  0  0999 V2000
   24.3895  -11.6966  -20.9918 N   0  0  0  0  0  0  0  0  0  0  0  0
   24.5259  -10.3418  -20.5605 C   0  0  1  0  0  0  0  0  0  0  0  0
   23.6741   -9.4754  -21.4603 C   0  0  0  0  0  0  0  0  0  0  0  0
   23.8261   -7.7449  -20.9664 S   0  0  0  0  0  0  0  0  0  0  0  0
   24.1206  -10.1336  -19.1507 C   0  0  0  0  0  0  0  0  0  0  0  0
   23.0964  -10.7256  -18.6901 O   0  0  0  0  0  0  0  0  0  0  0  0
   27.5306  -13.1708  -15.0317 C   0  0  0  0  0  0  0  0  0  0  0  0
   27.3076  -11.3701  -15.0314 S   0  0  0  0  0  0  0  0  0  0  0  0
   25.7807  -11.0122  -16.0038 C   0  0  0  0  0  0  0  0  0  0  0  0
   25.5785   -9.5287  -16.0464 C   0  0  0  0  0  0  0  0  0  0  0  0
   24.4123   -9.0986  -16.8803 C   0  0  2  0  0  0  0  0  0  0  0  0
   24.8376   -9.2928  -18.2903 N   0  0  0  0  0  0  0  0  0  0  0  0
   24.0897   -7.6755  -16.6899 C   0  0  0  0  0  0  0  0  0  0  0  0
   24.9116   -6.8122  -17.1106 O   0  0  0  0  0  0  0  0  0  0  0  0
   21.4766   -5.2325  -16.4908 C   0  0  0  0  0  0  0  0  0  0  0  0
   22.6872   -5.7842  -15.7741 C   0  0  2  0  0  0  0  0  0  0  0  0
   22.9148   -7.1775  -16.0691 N   0  0  0  0  0  0  0  0  0  0  0  0
   22.6153   -5.5086  -14.3196 C   0  0  0  0  0  0  0  0  0  0  0  0
   22.9992   -4.2819  -13.8009 O   0  0  0  0  0  0  0  0  0  0  0  0
   22.2068   -6.3687  -13.5006 O   0  0  0  0  0  0  0  0  0  0  0  0
  2  1  1  6
  2  3  1  0
  3  4  1  0
  5  6  2  0
  5  2  1  0
  8  9  1  0
  8  7  1  0
  9 10  1  0
 11 10  1  1
 11 12  1  0
 11 13  1  0
 12  5  1  0
 13 14  2  0
 16 15  1  6
 17 13  1  0
 17 16  1  0
 18 19  1  0
 18 16  1  0
 20 18  2  0
M  END
$$$$
