CMA.pdb
     RDKit          3D

 20 19  0  0  1  0  0  0  0  0999 V2000
   20.8340  -20.7262  -12.6133 N   0  0  0  0  0  0  0  0  0  0  0  0
   22.0185  -21.5200  -12.5293 C   0  0  1  0  0  0  0  0  0  0  0  0
   22.2545  -22.1545  -13.8811 C   0  0  0  0  0  0  0  0  0  0  0  0
   21.1787  -23.5915  -14.0791 S   0  0  0  0  0  0  0  0  0  0  0  0
   23.2166  -20.7423  -12.1355 C   0  0  0  0  0  0  0  0  0  0  0  0
   23.3429  -19.5364  -12.5113 O   0  0  0  0  0  0  0  0  0  0  0  0
   27.3876  -19.4569   -6.0648 C   0  0  0  0  0  0  0  0  0  0  0  0
   26.4458  -20.6274   -7.0824 S   0  0  0  0  0  0  0  0  0  0  0  0
   26.6646  -20.1153   -8.8417 C   0  0  0  0  0  0  0  0  0  0  0  0
   25.9474  -21.0963   -9.7172 C   0  0  0  0  0  0  0  0  0  0  0  0
   25.4457  -20.5113  -11.0003 C   0  0  2  0  0  0  0  0  0  0  0  0
   24.2344  -21.2971  -11.3497 N   0  0  0  0  0  0  0  0  0  0  0  0
   26.4192  -20.6577  -12.0942 C   0  0  0  0  0  0  0  0  0  0  0  0
   27.5301  -20.0632  -11.9925 O   0  0  0  0  0  0  0  0  0  0  0  0
   27.2032  -22.8453  -15.0161 C   0  0  0  0  0  0  0  0  0  0  0  0
   27.1589  -21.4825  -14.3647 C   0  0  2  0  0  0  0  0  0  0  0  0
   26.2199  -21.4244  -13.2715 N   0  0  0  0  0  0  0  0  0  0  0  0
   26.9350  -20.4187  -15.3722 C   0  0  0  0  0  0  0  0  0  0  0  0
   25.8364  -19.5769  -15.2964 O   0  0  0  0  0  0  0  0  0  0  0  0
   27.7253  -20.2359  -16.3311 O   0  0  0  0  0  0  0  0  0  0  0  0
  2  1  1  6
  2  3  1  0
  3  4  1  0
  5  6  2  0
  5  2  1  0
  8  9  1  0
  8  7  1  0
  9 10  1  0
 11 10  1  1
 11 12  1  0
 11 13  1  0
 12  5  1  0
 13 14  2  0
 16 15  1  6
 17 13  1  0
 17 16  1  0
 18 19  1  0
 18 16  1  0
 20 18  2  0
M  END
$$$$
