CMA.pdb
     RDKit          3D

 20 19  0  0  1  0  0  0  0  0999 V2000
   17.8945  -12.6391  -16.6625 N   0  0  0  0  0  0  0  0  0  0  0  0
   18.4555  -11.3915  -17.0736 C   0  0  1  0  0  0  0  0  0  0  0  0
   17.3302  -10.3891  -17.1961 C   0  0  0  0  0  0  0  0  0  0  0  0
   16.3810  -10.7150  -18.6975 S   0  0  0  0  0  0  0  0  0  0  0  0
   19.4764  -10.8718  -16.1340 C   0  0  0  0  0  0  0  0  0  0  0  0
   19.3289  -11.0322  -14.8834 O   0  0  0  0  0  0  0  0  0  0  0  0
   27.0258  -10.1304  -14.9020 C   0  0  0  0  0  0  0  0  0  0  0  0
   25.6379  -10.6193  -15.9636 S   0  0  0  0  0  0  0  0  0  0  0  0
   24.1143   -9.8640  -15.2471 C   0  0  0  0  0  0  0  0  0  0  0  0
   22.9417  -10.2649  -16.0882 C   0  0  0  0  0  0  0  0  0  0  0  0
   21.6375   -9.6979  -15.6214 C   0  0  2  0  0  0  0  0  0  0  0  0
   20.6196  -10.1975  -16.5810 N   0  0  0  0  0  0  0  0  0  0  0  0
   21.6257   -8.2269  -15.6641 C   0  0  0  0  0  0  0  0  0  0  0  0
   21.6293   -7.6592  -16.7935 O   0  0  0  0  0  0  0  0  0  0  0  0
   21.3013   -5.2853  -13.2758 C   0  0  0  0  0  0  0  0  0  0  0  0
   21.6180   -5.9339  -14.6034 C   0  0  2  0  0  0  0  0  0  0  0  0
   21.6055   -7.3743  -14.5299 N   0  0  0  0  0  0  0  0  0  0  0  0
   22.8783   -5.3980  -15.1699 C   0  0  0  0  0  0  0  0  0  0  0  0
   23.9986   -6.2008  -15.3173 O   0  0  0  0  0  0  0  0  0  0  0  0
   22.9847   -4.2018  -15.5378 O   0  0  0  0  0  0  0  0  0  0  0  0
  2  1  1  1
  2  3  1  0
  3  4  1  0
  5  6  2  0
  5  2  1  0
  8  9  1  0
  8  7  1  0
  9 10  1  0
 11 10  1  6
 11 12  1  0
 11 13  1  0
 12  5  1  0
 13 14  2  0
 16 15  1  1
 17 13  1  0
 17 16  1  0
 18 19  1  0
 18 16  1  0
 20 18  2  0
M  END
$$$$
