CMA.pdb
     RDKit          3D

 20 19  0  0  1  0  0  0  0  0999 V2000
   24.1359  -20.3328   -8.8685 N   0  0  0  0  0  0  0  0  0  0  0  0
   24.5762  -20.9060  -10.1005 C   0  0  1  0  0  0  0  0  0  0  0  0
   23.5309  -20.6146  -11.1532 C   0  0  0  0  0  0  0  0  0  0  0  0
   22.0855  -21.6643  -10.8876 S   0  0  0  0  0  0  0  0  0  0  0  0
   25.8874  -20.3842  -10.5522 C   0  0  0  0  0  0  0  0  0  0  0  0
   26.1677  -19.1552  -10.4024 O   0  0  0  0  0  0  0  0  0  0  0  0
   31.6389  -22.0362   -8.8430 C   0  0  0  0  0  0  0  0  0  0  0  0
   31.7478  -22.4147  -10.6142 S   0  0  0  0  0  0  0  0  0  0  0  0
   30.5861  -21.2756  -11.4850 C   0  0  0  0  0  0  0  0  0  0  0  0
   29.1878  -21.6031  -11.0599 C   0  0  0  0  0  0  0  0  0  0  0  0
   28.1539  -20.6646  -11.5988 C   0  0  2  0  0  0  0  0  0  0  0  0
   26.8475  -21.2105  -11.1495 N   0  0  0  0  0  0  0  0  0  0  0  0
   28.1537  -20.6256  -13.0699 C   0  0  0  0  0  0  0  0  0  0  0  0
   27.8358  -21.6754  -13.6981 O   0  0  0  0  0  0  0  0  0  0  0  0
   29.5379  -20.4926  -15.8370 C   0  0  0  0  0  0  0  0  0  0  0  0
   28.5306  -19.5018  -15.3011 C   0  0  2  0  0  0  0  0  0  0  0  0
   28.4799  -19.4926  -13.8597 N   0  0  0  0  0  0  0  0  0  0  0  0
   27.2006  -19.7072  -15.9220 C   0  0  0  0  0  0  0  0  0  0  0  0
   27.0326  -19.6489  -17.2966 O   0  0  0  0  0  0  0  0  0  0  0  0
   26.1760  -19.9408  -15.2341 O   0  0  0  0  0  0  0  0  0  0  0  0
  2  1  1  1
  2  3  1  0
  3  4  1  0
  5  6  2  0
  5  2  1  0
  8  9  1  0
  8  7  1  0
  9 10  1  0
 11 10  1  6
 11 12  1  0
 11 13  1  0
 12  5  1  0
 13 14  2  0
 16 15  1  1
 17 13  1  0
 17 16  1  0
 18 19  1  0
 18 16  1  0
 20 18  2  0
M  END
$$$$
