CMA.pdb
     RDKit          3D

 20 19  0  0  1  0  0  0  0  0999 V2000
   20.5991  -13.3529  -16.9378 N   0  0  0  0  0  0  0  0  0  0  0  0
   20.7505  -12.0358  -17.4694 C   0  0  1  0  0  0  0  0  0  0  0  0
   19.3940  -11.5609  -17.9388 C   0  0  0  0  0  0  0  0  0  0  0  0
   18.8020  -12.6232  -19.2740 S   0  0  0  0  0  0  0  0  0  0  0  0
   21.2973  -11.0690  -16.4888 C   0  0  0  0  0  0  0  0  0  0  0  0
   20.9872  -11.1650  -15.2615 O   0  0  0  0  0  0  0  0  0  0  0  0
   27.3030  -11.8596  -14.7675 C   0  0  0  0  0  0  0  0  0  0  0  0
   26.6231  -10.4260  -15.6478 S   0  0  0  0  0  0  0  0  0  0  0  0
   24.8021  -10.4193  -15.3493 C   0  0  0  0  0  0  0  0  0  0  0  0
   24.2142   -9.2110  -16.0108 C   0  0  0  0  0  0  0  0  0  0  0  0
   22.7287   -9.1012  -15.8646 C   0  0  2  0  0  0  0  0  0  0  0  0
   22.1594  -10.0338  -16.8711 N   0  0  0  0  0  0  0  0  0  0  0  0
   22.2408   -7.7461  -16.1666 C   0  0  0  0  0  0  0  0  0  0  0  0
   22.3294   -7.3274  -17.3560 O   0  0  0  0  0  0  0  0  0  0  0  0
   19.7254   -5.3724  -15.4956 C   0  0  0  0  0  0  0  0  0  0  0  0
   21.2289   -5.5164  -15.5441 C   0  0  2  0  0  0  0  0  0  0  0  0
   21.6650   -6.8537  -15.2253 N   0  0  0  0  0  0  0  0  0  0  0  0
   21.8892   -4.4826  -14.7123 C   0  0  0  0  0  0  0  0  0  0  0  0
   21.8248   -3.1397  -15.0498 O   0  0  0  0  0  0  0  0  0  0  0  0
   22.5310   -4.7768  -13.6735 O   0  0  0  0  0  0  0  0  0  0  0  0
  2  1  1  1
  2  3  1  0
  3  4  1  0
  5  6  2  0
  5  2  1  0
  8  9  1  0
  8  7  1  0
  9 10  1  0
 11 10  1  6
 11 12  1  0
 11 13  1  0
 12  5  1  0
 13 14  2  0
 16 15  1  1
 17 13  1  0
 17 16  1  0
 18 19  1  0
 18 16  1  0
 20 18  2  0
M  END
$$$$
