CMA.pdb
     RDKit          3D

 20 19  0  0  1  0  0  0  0  0999 V2000
   28.5856  -20.9849  -16.5194 N   0  0  0  0  0  0  0  0  0  0  0  0
   28.4051  -20.3802  -15.2381 C   0  0  1  0  0  0  0  0  0  0  0  0
   28.1827  -18.8992  -15.4457 C   0  0  0  0  0  0  0  0  0  0  0  0
   26.6069  -18.6288  -16.2855 S   0  0  0  0  0  0  0  0  0  0  0  0
   27.2652  -20.9467  -14.4797 C   0  0  0  0  0  0  0  0  0  0  0  0
   26.4903  -21.7873  -15.0315 O   0  0  0  0  0  0  0  0  0  0  0  0
   26.0679  -19.1617   -8.3246 C   0  0  0  0  0  0  0  0  0  0  0  0
   25.5141  -20.8896   -8.3141 S   0  0  0  0  0  0  0  0  0  0  0  0
   25.0324  -21.3156  -10.0438 C   0  0  0  0  0  0  0  0  0  0  0  0
   26.1365  -20.8949  -10.9643 C   0  0  0  0  0  0  0  0  0  0  0  0
   25.8600  -21.1697  -12.4094 C   0  0  2  0  0  0  0  0  0  0  0  0
   27.0049  -20.5836  -13.1525 N   0  0  0  0  0  0  0  0  0  0  0  0
   24.6273  -20.5127  -12.8725 C   0  0  0  0  0  0  0  0  0  0  0  0
   24.6922  -19.3044  -13.2380 O   0  0  0  0  0  0  0  0  0  0  0  0
   22.0786  -20.4549  -14.9405 C   0  0  0  0  0  0  0  0  0  0  0  0
   22.1641  -20.4636  -13.4318 C   0  0  2  0  0  0  0  0  0  0  0  0
   23.3507  -21.1275  -12.9509 N   0  0  0  0  0  0  0  0  0  0  0  0
   20.9205  -21.0025  -12.8320 C   0  0  0  0  0  0  0  0  0  0  0  0
   19.6871  -20.4288  -13.0981 O   0  0  0  0  0  0  0  0  0  0  0  0
   20.9309  -21.9947  -12.0619 O   0  0  0  0  0  0  0  0  0  0  0  0
  2  1  1  6
  2  3  1  0
  3  4  1  0
  5  6  2  0
  5  2  1  0
  8  9  1  0
  8  7  1  0
  9 10  1  0
 11 10  1  1
 11 12  1  0
 11 13  1  0
 12  5  1  0
 13 14  2  0
 16 15  1  6
 17 13  1  0
 17 16  1  0
 18 19  1  0
 18 16  1  0
 20 18  2  0
M  END
$$$$
