CMA.pdb
     RDKit          3D

 20 19  0  0  1  0  0  0  0  0999 V2000
   25.0263  -12.3767  -16.5730 N   0  0  0  0  0  0  0  0  0  0  0  0
   24.9259  -11.0266  -16.1175 C   0  0  1  0  0  0  0  0  0  0  0  0
   26.1702  -10.2894  -16.5582 C   0  0  0  0  0  0  0  0  0  0  0  0
   27.6126  -10.9556  -15.6996 S   0  0  0  0  0  0  0  0  0  0  0  0
   23.7288  -10.3229  -16.6344 C   0  0  0  0  0  0  0  0  0  0  0  0
   23.0555  -10.8286  -17.5844 O   0  0  0  0  0  0  0  0  0  0  0  0
   16.7082   -9.6549  -16.2753 C   0  0  0  0  0  0  0  0  0  0  0  0
   18.3691  -10.2324  -15.8280 S   0  0  0  0  0  0  0  0  0  0  0  0
   19.5708   -9.0082  -16.5080 C   0  0  0  0  0  0  0  0  0  0  0  0
   20.9575   -9.4612  -16.1687 C   0  0  0  0  0  0  0  0  0  0  0  0
   22.0247   -8.4795  -16.5398 C   0  0  2  0  0  0  0  0  0  0  0  0
   23.3035   -9.0981  -16.1052 N   0  0  0  0  0  0  0  0  0  0  0  0
   21.8702   -7.1988  -15.8316 C   0  0  0  0  0  0  0  0  0  0  0  0
   21.9804   -7.1921  -14.5724 O   0  0  0  0  0  0  0  0  0  0  0  0
   19.9214   -4.5191  -15.3800 C   0  0  0  0  0  0  0  0  0  0  0  0
   21.3792   -4.7230  -15.7221 C   0  0  2  0  0  0  0  0  0  0  0  0
   21.6087   -5.9477  -16.4483 N   0  0  0  0  0  0  0  0  0  0  0  0
   22.2306   -4.6019  -14.5150 C   0  0  0  0  0  0  0  0  0  0  0  0
   23.4036   -3.8637  -14.5341 O   0  0  0  0  0  0  0  0  0  0  0  0
   21.9281   -5.1594  -13.4309 O   0  0  0  0  0  0  0  0  0  0  0  0
  2  1  1  6
  2  3  1  0
  3  4  1  0
  5  6  2  0
  5  2  1  0
  8  9  1  0
  8  7  1  0
  9 10  1  0
 11 10  1  1
 11 12  1  0
 11 13  1  0
 12  5  1  0
 13 14  2  0
 16 15  1  1
 17 13  1  0
 17 16  1  0
 18 19  1  0
 18 16  1  0
 20 18  2  0
M  END
$$$$
