CMA.pdb
     RDKit          3D

 20 19  0  0  1  0  0  0  0  0999 V2000
   18.9049  -12.2918  -16.3402 N   0  0  0  0  0  0  0  0  0  0  0  0
   19.1429  -10.9634  -16.8080 C   0  0  1  0  0  0  0  0  0  0  0  0
   17.8286  -10.2164  -16.7869 C   0  0  0  0  0  0  0  0  0  0  0  0
   16.7181  -10.8962  -18.0383 S   0  0  0  0  0  0  0  0  0  0  0  0
   20.1396  -10.2273  -15.9955 C   0  0  0  0  0  0  0  0  0  0  0  0
   20.0986  -10.2920  -14.7283 O   0  0  0  0  0  0  0  0  0  0  0  0
   26.6376  -10.5376  -14.8881 C   0  0  0  0  0  0  0  0  0  0  0  0
   26.1853   -9.5846  -16.3645 S   0  0  0  0  0  0  0  0  0  0  0  0
   24.7263   -8.5478  -15.9152 C   0  0  0  0  0  0  0  0  0  0  0  0
   23.5007   -9.1609  -16.5196 C   0  0  0  0  0  0  0  0  0  0  0  0
   22.2413   -8.8706  -15.7646 C   0  0  2  0  0  0  0  0  0  0  0  0
   21.1442   -9.4482  -16.5829 N   0  0  0  0  0  0  0  0  0  0  0  0
   21.9988   -7.4258  -15.6258 C   0  0  0  0  0  0  0  0  0  0  0  0
   21.6054   -6.7830  -16.6407 O   0  0  0  0  0  0  0  0  0  0  0  0
   21.9822   -4.7486  -12.9236 C   0  0  0  0  0  0  0  0  0  0  0  0
   22.0213   -5.2451  -14.3503 C   0  0  2  0  0  0  0  0  0  0  0  0
   22.1657   -6.6778  -14.4314 N   0  0  0  0  0  0  0  0  0  0  0  0
   23.0448   -4.5185  -15.1383 C   0  0  0  0  0  0  0  0  0  0  0  0
   22.7330   -3.3523  -15.8197 O   0  0  0  0  0  0  0  0  0  0  0  0
   24.2302   -4.9253  -15.2223 O   0  0  0  0  0  0  0  0  0  0  0  0
  2  1  1  1
  2  3  1  0
  3  4  1  0
  5  6  2  0
  5  2  1  0
  8  9  1  0
  8  7  1  0
  9 10  1  0
 11 10  1  6
 11 12  1  0
 11 13  1  0
 12  5  1  0
 13 14  2  0
 16 15  1  1
 17 13  1  0
 17 16  1  0
 18 19  1  0
 18 16  1  0
 20 18  2  0
M  END
$$$$
