CMA.pdb
     RDKit          3D

 20 19  0  0  1  0  0  0  0  0999 V2000
   15.5755  -11.0734   -9.7515 N   0  0  0  0  0  0  0  0  0  0  0  0
   15.3438   -9.7871  -10.3277 C   0  0  1  0  0  0  0  0  0  0  0  0
   14.2748   -9.0943   -9.5134 C   0  0  0  0  0  0  0  0  0  0  0  0
   12.6742   -9.8745   -9.8147 S   0  0  0  0  0  0  0  0  0  0  0  0
   16.5574   -8.9381  -10.3691 C   0  0  0  0  0  0  0  0  0  0  0  0
   17.3280   -8.8819   -9.3618 O   0  0  0  0  0  0  0  0  0  0  0  0
   21.9632   -9.5763  -12.9220 C   0  0  0  0  0  0  0  0  0  0  0  0
   21.2567   -8.3205  -14.0248 S   0  0  0  0  0  0  0  0  0  0  0  0
   20.2040   -7.2166  -12.9863 C   0  0  0  0  0  0  0  0  0  0  0  0
   18.8866   -7.8911  -12.7562 C   0  0  0  0  0  0  0  0  0  0  0  0
   18.1553   -7.3983  -11.5468 C   0  0  2  0  0  0  0  0  0  0  0  0
   16.8935   -8.1808  -11.4981 N   0  0  0  0  0  0  0  0  0  0  0  0
   17.8075   -5.9723  -11.6523 C   0  0  0  0  0  0  0  0  0  0  0  0
   17.2160   -5.5744  -12.6961 O   0  0  0  0  0  0  0  0  0  0  0  0
   17.7610   -2.8283   -9.5417 C   0  0  0  0  0  0  0  0  0  0  0  0
   17.8465   -3.5763  -10.8519 C   0  0  2  0  0  0  0  0  0  0  0  0
   18.0777   -4.9878  -10.6666 N   0  0  0  0  0  0  0  0  0  0  0  0
   18.8335   -2.9463  -11.7604 C   0  0  0  0  0  0  0  0  0  0  0  0
   18.4983   -1.8459  -12.5338 O   0  0  0  0  0  0  0  0  0  0  0  0
   20.0076   -3.3795  -11.8680 O   0  0  0  0  0  0  0  0  0  0  0  0
  2  1  1  1
  2  3  1  0
  3  4  1  0
  5  6  2  0
  5  2  1  0
  8  9  1  0
  8  7  1  0
  9 10  1  0
 11 10  1  6
 11 12  1  0
 11 13  1  0
 12  5  1  0
 13 14  2  0
 16 15  1  1
 17 13  1  0
 17 16  1  0
 18 19  1  0
 18 16  1  0
 20 18  2  0
M  END
$$$$
