CMA.pdb
     RDKit          3D

 20 19  0  0  1  0  0  0  0  0999 V2000
   19.7411  -21.8895  -12.8764 N   0  0  0  0  0  0  0  0  0  0  0  0
   20.6521  -21.5112  -13.9094 C   0  0  1  0  0  0  0  0  0  0  0  0
   19.9146  -20.6178  -14.8809 C   0  0  0  0  0  0  0  0  0  0  0  0
   21.0358  -20.0808  -16.1908 S   0  0  0  0  0  0  0  0  0  0  0  0
   21.8498  -20.8020  -13.4016 C   0  0  0  0  0  0  0  0  0  0  0  0
   21.7197  -19.8462  -12.5763 O   0  0  0  0  0  0  0  0  0  0  0  0
   25.1897  -20.3119   -9.4171 C   0  0  0  0  0  0  0  0  0  0  0  0
   26.4243  -21.3874  -10.1989 S   0  0  0  0  0  0  0  0  0  0  0  0
   26.4332  -20.9840  -11.9996 C   0  0  0  0  0  0  0  0  0  0  0  0
   25.1674  -21.5008  -12.6109 C   0  0  0  0  0  0  0  0  0  0  0  0
   24.3324  -20.4436  -13.2631 C   0  0  2  0  0  0  0  0  0  0  0  0
   23.1444  -21.1521  -13.8048 N   0  0  0  0  0  0  0  0  0  0  0  0
   25.0327  -19.7977  -14.3847 C   0  0  0  0  0  0  0  0  0  0  0  0
   25.1385  -20.4333  -15.4722 O   0  0  0  0  0  0  0  0  0  0  0  0
   27.0598  -16.6465  -15.0479 C   0  0  0  0  0  0  0  0  0  0  0  0
   26.3569  -17.9245  -15.4433 C   0  0  2  0  0  0  0  0  0  0  0  0
   25.6058  -18.4998  -14.3546 N   0  0  0  0  0  0  0  0  0  0  0  0
   27.3042  -18.8839  -16.0586 C   0  0  0  0  0  0  0  0  0  0  0  0
   27.5242  -18.8990  -17.4271 O   0  0  0  0  0  0  0  0  0  0  0  0
   27.9434  -19.7186  -15.3716 O   0  0  0  0  0  0  0  0  0  0  0  0
  2  1  1  1
  2  3  1  0
  3  4  1  0
  5  6  2  0
  5  2  1  0
  8  9  1  0
  8  7  1  0
  9 10  1  0
 11 10  1  6
 11 12  1  0
 11 13  1  0
 12  5  1  0
 13 14  2  0
 16 15  1  1
 17 13  1  0
 17 16  1  0
 18 19  1  0
 18 16  1  0
 20 18  2  0
M  END
$$$$
