VLV.pdb
     RDKit          3D

 23 22  0  0  1  0  0  0  0  0999 V2000
   16.5273  -12.1391  -16.8197 C   0  0  0  0  0  0  0  0  0  0  0  0
   16.5498  -11.7081  -15.3656 C   0  0  2  0  0  0  0  0  0  0  0  0
   15.4482  -12.4400  -14.6318 C   0  0  0  0  0  0  0  0  0  0  0  0
   16.3751  -10.2100  -15.2358 C   0  0  2  0  0  0  0  0  0  0  0  0
   16.9807   -9.5109  -16.3480 N   0  0  0  0  0  0  0  0  0  0  0  0
   16.9757   -9.6932  -13.9858 C   0  0  0  0  0  0  0  0  0  0  0  0
   16.6322  -10.2027  -12.8936 O   0  0  0  0  0  0  0  0  0  0  0  0
   21.0268   -7.5914  -11.0142 C   0  0  0  0  0  0  0  0  0  0  0  0
   20.3354   -6.5814  -11.9357 C   0  0  1  0  0  0  0  0  0  0  0  0
   21.4950   -5.7289  -12.4805 C   0  0  0  0  0  0  0  0  0  0  0  0
   19.7356   -7.3349  -13.0800 C   0  0  0  0  0  0  0  0  0  0  0  0
   18.4641   -8.0671  -12.7184 C   0  0  2  0  0  0  0  0  0  0  0  0
   17.9311   -8.6382  -13.9670 N   0  0  0  0  0  0  0  0  0  0  0  0
   17.5157   -7.1142  -12.1308 C   0  0  0  0  0  0  0  0  0  0  0  0
   17.0821   -6.1336  -12.7806 O   0  0  0  0  0  0  0  0  0  0  0  0
   13.9179   -6.0326   -9.0404 C   0  0  0  0  0  0  0  0  0  0  0  0
   14.8505   -7.0781   -9.6194 C   0  0  2  0  0  0  0  0  0  0  0  0
   15.2687   -7.9777   -8.4867 C   0  0  0  0  0  0  0  0  0  0  0  0
   16.0001   -6.3420  -10.2467 C   0  0  2  0  0  0  0  0  0  0  0  0
   17.0121   -7.2173  -10.7921 N   0  0  0  0  0  0  0  0  0  0  0  0
   16.6157   -5.4579   -9.2274 C   0  0  0  0  0  0  0  0  0  0  0  0
   16.0791   -4.4230   -8.7569 O   0  0  0  0  0  0  0  0  0  0  0  0
   17.8764   -5.7636   -8.7330 O   0  0  0  0  0  0  0  0  0  0  0  0
  2  1  1  6
  2  3  1  0
  4  2  1  0
  4  6  1  0
  4  5  1  6
  6 13  1  0
  6  7  2  0
  9  8  1  1
  9 11  1  0
 10  9  1  0
 12 11  1  6
 13 12  1  0
 14 12  1  0
 14 20  1  0
 15 14  2  0
 17 16  1  1
 18 17  1  0
 19 17  1  0
 19 20  1  1
 19 21  1  0
 21 23  1  0
 22 21  2  0
M  END
$$$$
