VLV.pdb
     RDKit          3D

 23 22  0  0  1  0  0  0  0  0999 V2000
   23.5412  -21.2226  -13.6113 C   0  0  0  0  0  0  0  0  0  0  0  0
   24.5237  -20.0915  -13.3751 C   0  0  2  0  0  0  0  0  0  0  0  0
   24.9981  -19.5806  -14.7173 C   0  0  0  0  0  0  0  0  0  0  0  0
   25.6952  -20.5506  -12.5333 C   0  0  2  0  0  0  0  0  0  0  0  0
   26.4364  -21.6038  -13.1922 N   0  0  0  0  0  0  0  0  0  0  0  0
   25.2583  -21.0533  -11.2117 C   0  0  0  0  0  0  0  0  0  0  0  0
   24.8646  -22.2392  -11.1152 O   0  0  0  0  0  0  0  0  0  0  0  0
   27.4645  -18.9492   -6.6350 C   0  0  0  0  0  0  0  0  0  0  0  0
   26.9358  -19.9883   -7.6291 C   0  0  1  0  0  0  0  0  0  0  0  0
   27.2796  -21.3351   -6.9686 C   0  0  0  0  0  0  0  0  0  0  0  0
   25.4463  -19.8631   -7.6803 C   0  0  0  0  0  0  0  0  0  0  0  0
   24.8039  -20.7406   -8.7294 C   0  0  2  0  0  0  0  0  0  0  0  0
   25.2648  -20.2473  -10.0384 N   0  0  0  0  0  0  0  0  0  0  0  0
   23.3452  -20.6336   -8.6125 C   0  0  0  0  0  0  0  0  0  0  0  0
   22.7371  -19.5811   -8.9196 O   0  0  0  0  0  0  0  0  0  0  0  0
   20.6281  -23.7549   -8.9793 C   0  0  0  0  0  0  0  0  0  0  0  0
   20.3001  -22.2782   -9.0801 C   0  0  2  0  0  0  0  0  0  0  0  0
   20.6851  -21.8304  -10.4652 C   0  0  0  0  0  0  0  0  0  0  0  0
   21.0728  -21.5818   -7.9962 C   0  0  2  0  0  0  0  0  0  0  0  0
   22.5050  -21.6985   -8.1475 N   0  0  0  0  0  0  0  0  0  0  0  0
   20.6720  -22.1460   -6.6845 C   0  0  0  0  0  0  0  0  0  0  0  0
   21.4326  -22.7888   -5.9173 O   0  0  0  0  0  0  0  0  0  0  0  0
   19.3692  -21.9717   -6.2377 O   0  0  0  0  0  0  0  0  0  0  0  0
  2  1  1  6
  2  3  1  0
  4  2  1  0
  4  6  1  0
  4  5  1  6
  6 13  1  0
  6  7  2  0
  9  8  1  1
  9 11  1  0
 10  9  1  0
 12 11  1  1
 13 12  1  0
 14 12  1  0
 14 20  1  0
 15 14  2  0
 17 16  1  6
 18 17  1  0
 19 17  1  0
 19 20  1  6
 19 21  1  0
 21 23  1  0
 22 21  2  0
M  END
$$$$
