VLV.pdb
     RDKit          3D

 23 22  0  0  1  0  0  0  0  0999 V2000
   12.6588  -12.9127  -12.3192 C   0  0  0  0  0  0  0  0  0  0  0  0
   13.5889  -12.6713  -13.4927 C   0  0  2  0  0  0  0  0  0  0  0  0
   13.9371  -14.0069  -14.1110 C   0  0  0  0  0  0  0  0  0  0  0  0
   14.8414  -11.9408  -13.0573 C   0  0  2  0  0  0  0  0  0  0  0  0
   15.6023  -12.7211  -12.1061 N   0  0  0  0  0  0  0  0  0  0  0  0
   14.5276  -10.6353  -12.4348 C   0  0  0  0  0  0  0  0  0  0  0  0
   13.9751   -9.7508  -13.1297 O   0  0  0  0  0  0  0  0  0  0  0  0
   11.5549  -10.1933   -8.1073 C   0  0  0  0  0  0  0  0  0  0  0  0
   12.2033   -9.8082   -9.4409 C   0  0  1  0  0  0  0  0  0  0  0  0
   11.4801   -8.5092   -9.8384 C   0  0  0  0  0  0  0  0  0  0  0  0
   13.6386   -9.4792   -9.1791 C   0  0  0  0  0  0  0  0  0  0  0  0
   14.4027   -9.0863  -10.4222 C   0  0  2  0  0  0  0  0  0  0  0  0
   14.8261  -10.3365  -11.0755 N   0  0  0  0  0  0  0  0  0  0  0  0
   15.5642   -8.2787  -10.0326 C   0  0  0  0  0  0  0  0  0  0  0  0
   16.4550   -8.7316   -9.2755 O   0  0  0  0  0  0  0  0  0  0  0  0
   17.0182   -5.1758  -12.2947 C   0  0  0  0  0  0  0  0  0  0  0  0
   17.8467   -5.8010  -11.1897 C   0  0  2  0  0  0  0  0  0  0  0  0
   18.5176   -7.0175  -11.7704 C   0  0  0  0  0  0  0  0  0  0  0  0
   16.9055   -6.1240  -10.0643 C   0  0  2  0  0  0  0  0  0  0  0  0
   15.7788   -6.9310  -10.4730 N   0  0  0  0  0  0  0  0  0  0  0  0
   16.4109   -4.8561   -9.4750 C   0  0  0  0  0  0  0  0  0  0  0  0
   15.2523   -4.3948   -9.6343 O   0  0  0  0  0  0  0  0  0  0  0  0
   17.2611   -4.0956   -8.6838 O   0  0  0  0  0  0  0  0  0  0  0  0
  2  1  1  1
  2  3  1  0
  4  2  1  0
  4  6  1  0
  4  5  1  1
  6 13  1  0
  6  7  2  0
  9  8  1  1
  9 11  1  0
 10  9  1  0
 12 11  1  1
 13 12  1  0
 14 12  1  0
 14 20  1  0
 15 14  2  0
 17 16  1  6
 18 17  1  0
 19 17  1  0
 19 20  1  6
 19 21  1  0
 21 23  1  0
 22 21  2  0
M  END
$$$$
