VLV.pdb
     RDKit          3D

 23 22  0  0  1  0  0  0  0  0999 V2000
   25.7881  -18.9029  -17.7059 C   0  0  0  0  0  0  0  0  0  0  0  0
   26.7241  -18.3264  -16.6609 C   0  0  2  0  0  0  0  0  0  0  0  0
   27.8409  -17.5933  -17.3700 C   0  0  0  0  0  0  0  0  0  0  0  0
   27.2813  -19.4128  -15.7659 C   0  0  2  0  0  0  0  0  0  0  0  0
   28.0748  -20.3596  -16.5187 N   0  0  0  0  0  0  0  0  0  0  0  0
   26.2070  -20.1600  -15.0748 C   0  0  0  0  0  0  0  0  0  0  0  0
   25.6825  -21.1400  -15.6537 O   0  0  0  0  0  0  0  0  0  0  0  0
   25.9855  -20.3665   -9.5212 C   0  0  0  0  0  0  0  0  0  0  0  0
   26.0341  -20.6843  -11.0192 C   0  0  1  0  0  0  0  0  0  0  0  0
   26.0605  -22.2223  -11.0667 C   0  0  0  0  0  0  0  0  0  0  0  0
   24.7500  -20.2228  -11.6315 C   0  0  0  0  0  0  0  0  0  0  0  0
   24.6408  -20.5325  -13.1065 C   0  0  2  0  0  0  0  0  0  0  0  0
   25.7393  -19.8148  -13.7754 N   0  0  0  0  0  0  0  0  0  0  0  0
   23.3372  -20.0693  -13.5957 C   0  0  0  0  0  0  0  0  0  0  0  0
   22.9644  -18.8815  -13.4478 O   0  0  0  0  0  0  0  0  0  0  0  0
   21.0608  -22.1959  -16.4295 C   0  0  0  0  0  0  0  0  0  0  0  0
   20.8686  -20.7110  -16.1926 C   0  0  2  0  0  0  0  0  0  0  0  0
   21.8488  -19.9884  -17.0781 C   0  0  0  0  0  0  0  0  0  0  0  0
   21.1007  -20.4662  -14.7286 C   0  0  2  0  0  0  0  0  0  0  0  0
   22.3958  -20.9145  -14.2708 N   0  0  0  0  0  0  0  0  0  0  0  0
   20.0419  -21.1576  -13.9539 C   0  0  0  0  0  0  0  0  0  0  0  0
   18.8287  -20.8281  -13.9443 O   0  0  0  0  0  0  0  0  0  0  0  0
   20.3771  -22.2533  -13.1701 O   0  0  0  0  0  0  0  0  0  0  0  0
  2  1  1  6
  2  3  1  0
  4  2  1  0
  4  6  1  0
  4  5  1  6
  6 13  1  0
  6  7  2  0
  9  8  1  1
  9 11  1  0
 10  9  1  0
 12 11  1  1
 13 12  1  0
 14 12  1  0
 14 20  1  0
 15 14  2  0
 17 16  1  1
 18 17  1  0
 19 17  1  0
 19 20  1  1
 19 21  1  0
 21 23  1  0
 22 21  2  0
M  END
$$$$
