VLV.pdb
     RDKit          3D

 23 22  0  0  1  0  0  0  0  0999 V2000
   14.5632  -10.4732  -15.2513 C   0  0  0  0  0  0  0  0  0  0  0  0
   15.6524  -11.0483  -16.1364 C   0  0  2  0  0  0  0  0  0  0  0  0
   15.4235  -12.5372  -16.2718 C   0  0  0  0  0  0  0  0  0  0  0  0
   17.0263  -10.7682  -15.5658 C   0  0  2  0  0  0  0  0  0  0  0  0
   17.3901  -11.7467  -14.5644 N   0  0  0  0  0  0  0  0  0  0  0  0
   17.1006   -9.4264  -14.9459 C   0  0  0  0  0  0  0  0  0  0  0  0
   16.9012   -8.4173  -15.6617 O   0  0  0  0  0  0  0  0  0  0  0  0
   16.1644   -5.6843  -11.4935 C   0  0  0  0  0  0  0  0  0  0  0  0
   17.1084   -6.6804  -10.8123 C   0  0  1  0  0  0  0  0  0  0  0  0
   16.4811   -6.8878   -9.4224 C   0  0  0  0  0  0  0  0  0  0  0  0
   17.0285   -7.9756  -11.5558 C   0  0  0  0  0  0  0  0  0  0  0  0
   17.5544   -7.8917  -12.9699 C   0  0  2  0  0  0  0  0  0  0  0  0
   17.3896   -9.2282  -13.5663 N   0  0  0  0  0  0  0  0  0  0  0  0
   18.9696   -7.5060  -12.9302 C   0  0  0  0  0  0  0  0  0  0  0  0
   19.8181   -8.1848  -12.3049 O   0  0  0  0  0  0  0  0  0  0  0  0
   21.3574   -7.4724  -15.5189 C   0  0  0  0  0  0  0  0  0  0  0  0
   21.4783   -6.0465  -15.0187 C   0  0  2  0  0  0  0  0  0  0  0  0
   22.9385   -5.6816  -15.0630 C   0  0  0  0  0  0  0  0  0  0  0  0
   20.9022   -6.0173  -13.6316 C   0  0  2  0  0  0  0  0  0  0  0  0
   19.4957   -6.3455  -13.5880 N   0  0  0  0  0  0  0  0  0  0  0  0
   21.1072   -4.6658  -13.0564 C   0  0  0  0  0  0  0  0  0  0  0  0
   20.2170   -3.7830  -12.9635 O   0  0  0  0  0  0  0  0  0  0  0  0
   22.3607   -4.3136  -12.5750 O   0  0  0  0  0  0  0  0  0  0  0  0
  2  1  1  1
  2  3  1  0
  4  2  1  0
  4  6  1  0
  4  5  1  1
  6 13  1  0
  6  7  2  0
  9  8  1  6
  9 11  1  0
 10  9  1  0
 12 11  1  1
 13 12  1  0
 14 12  1  0
 14 20  1  0
 15 14  2  0
 17 16  1  1
 18 17  1  0
 19 17  1  0
 19 20  1  6
 19 21  1  0
 21 23  1  0
 22 21  2  0
M  END
$$$$
