VLV.pdb
     RDKit          3D

 23 22  0  0  1  0  0  0  0  0999 V2000
   26.5995  -23.8205  -18.2861 C   0  0  0  0  0  0  0  0  0  0  0  0
   25.4934  -23.5178  -17.2934 C   0  0  2  0  0  0  0  0  0  0  0  0
   24.8173  -22.2297  -17.7073 C   0  0  0  0  0  0  0  0  0  0  0  0
   26.0370  -23.4077  -15.8848 C   0  0  2  0  0  0  0  0  0  0  0  0
   26.7226  -24.6183  -15.4888 N   0  0  0  0  0  0  0  0  0  0  0  0
   24.9634  -23.1444  -14.9008 C   0  0  0  0  0  0  0  0  0  0  0  0
   24.0343  -23.9769  -14.7815 O   0  0  0  0  0  0  0  0  0  0  0  0
   25.9985  -20.1399  -10.3265 C   0  0  0  0  0  0  0  0  0  0  0  0
   25.5700  -21.2391  -11.3040 C   0  0  1  0  0  0  0  0  0  0  0  0
   25.0445  -22.3590  -10.3886 C   0  0  0  0  0  0  0  0  0  0  0  0
   24.4214  -20.7199  -12.1089 C   0  0  0  0  0  0  0  0  0  0  0  0
   23.8729  -21.7259  -13.0940 C   0  0  2  0  0  0  0  0  0  0  0  0
   24.9375  -21.9825  -14.0788 N   0  0  0  0  0  0  0  0  0  0  0  0
   22.6844  -21.1595  -13.7420 C   0  0  0  0  0  0  0  0  0  0  0  0
   22.7022  -20.0214  -14.2673 O   0  0  0  0  0  0  0  0  0  0  0  0
   20.6883  -22.5257  -16.5317 C   0  0  0  0  0  0  0  0  0  0  0  0
   19.6381  -22.2337  -15.4782 C   0  0  2  0  0  0  0  0  0  0  0  0
   18.4478  -21.6447  -16.1876 C   0  0  0  0  0  0  0  0  0  0  0  0
   20.2612  -21.2935  -14.4858 C   0  0  2  0  0  0  0  0  0  0  0  0
   21.4262  -21.8418  -13.8300 N   0  0  0  0  0  0  0  0  0  0  0  0
   19.2478  -20.9356  -13.4639 C   0  0  0  0  0  0  0  0  0  0  0  0
   19.1243  -21.5000  -12.3473 O   0  0  0  0  0  0  0  0  0  0  0  0
   18.3526  -19.9070  -13.7237 O   0  0  0  0  0  0  0  0  0  0  0  0
  2  1  1  6
  2  3  1  0
  4  2  1  0
  4  6  1  0
  4  5  1  1
  6 13  1  0
  6  7  2  0
  9  8  1  1
  9 11  1  0
 10  9  1  0
 12 11  1  1
 13 12  1  0
 14 12  1  0
 14 20  1  0
 15 14  2  0
 17 16  1  6
 18 17  1  0
 19 17  1  0
 19 20  1  1
 19 21  1  0
 21 23  1  0
 22 21  2  0
M  END
$$$$
