VLV.pdb
     RDKit          3D

 23 22  0  0  1  0  0  0  0  0999 V2000
   25.7345  -18.3708  -17.0839 C   0  0  0  0  0  0  0  0  0  0  0  0
   26.6426  -17.8333  -15.9944 C   0  0  2  0  0  0  0  0  0  0  0  0
   27.6739  -16.9296  -16.6327 C   0  0  0  0  0  0  0  0  0  0  0  0
   27.3139  -18.9587  -15.2364 C   0  0  2  0  0  0  0  0  0  0  0  0
   28.1598  -19.7476  -16.1052 N   0  0  0  0  0  0  0  0  0  0  0  0
   26.3258  -19.8650  -14.6099 C   0  0  0  0  0  0  0  0  0  0  0  0
   25.9618  -20.8885  -15.2348 O   0  0  0  0  0  0  0  0  0  0  0  0
   26.0115  -20.3639   -9.1078 C   0  0  0  0  0  0  0  0  0  0  0  0
   26.0730  -20.7124  -10.5984 C   0  0  1  0  0  0  0  0  0  0  0  0
   26.1054  -22.2510  -10.6139 C   0  0  0  0  0  0  0  0  0  0  0  0
   24.7921  -20.2686  -11.2301 C   0  0  0  0  0  0  0  0  0  0  0  0
   24.7446  -20.5006  -12.7226 C   0  0  2  0  0  0  0  0  0  0  0  0
   25.7666  -19.6263  -13.3228 N   0  0  0  0  0  0  0  0  0  0  0  0
   23.4059  -20.1580  -13.2161 C   0  0  0  0  0  0  0  0  0  0  0  0
   22.9477  -18.9951  -13.1187 O   0  0  0  0  0  0  0  0  0  0  0  0
   22.0402  -20.6034  -16.6363 C   0  0  0  0  0  0  0  0  0  0  0  0
   20.9864  -21.2489  -15.7583 C   0  0  2  0  0  0  0  0  0  0  0  0
   19.6430  -20.8530  -16.3110 C   0  0  0  0  0  0  0  0  0  0  0  0
   21.2196  -20.7565  -14.3583 C   0  0  2  0  0  0  0  0  0  0  0  0
   22.5233  -21.1009  -13.8391 N   0  0  0  0  0  0  0  0  0  0  0  0
   20.1747  -21.3230  -13.4713 C   0  0  0  0  0  0  0  0  0  0  0  0
   20.2513  -22.4361  -12.8922 O   0  0  0  0  0  0  0  0  0  0  0  0
   19.0126  -20.5997  -13.2399 O   0  0  0  0  0  0  0  0  0  0  0  0
  2  1  1  6
  2  3  1  0
  4  2  1  0
  4  6  1  0
  4  5  1  6
  6 13  1  0
  6  7  2  0
  9  8  1  1
  9 11  1  0
 10  9  1  0
 12 11  1  1
 13 12  1  0
 14 12  1  0
 14 20  1  0
 15 14  2  0
 17 16  1  6
 18 17  1  0
 19 17  1  0
 19 20  1  1
 19 21  1  0
 21 23  1  0
 22 21  2  0
M  END
$$$$
