VLV.pdb
     RDKit          3D

 23 22  0  0  1  0  0  0  0  0999 V2000
   15.8813  -27.6762   -5.5955 C   0  0  0  0  0  0  0  0  0  0  0  0
   15.6614  -26.6474   -4.5029 C   0  0  2  0  0  0  0  0  0  0  0  0
   14.4052  -27.0145   -3.7448 C   0  0  0  0  0  0  0  0  0  0  0  0
   15.5496  -25.2520   -5.0792 C   0  0  2  0  0  0  0  0  0  0  0  0
   16.7496  -24.8810   -5.7968 N   0  0  0  0  0  0  0  0  0  0  0  0
   15.3124  -24.2400   -4.0257 C   0  0  0  0  0  0  0  0  0  0  0  0
   16.2830  -23.8395   -3.3416 O   0  0  0  0  0  0  0  0  0  0  0  0
   11.1489  -20.5527   -4.4277 C   0  0  0  0  0  0  0  0  0  0  0  0
   12.5572  -21.0896   -4.1520 C   0  0  1  0  0  0  0  0  0  0  0  0
   13.3404  -19.8460   -3.6955 C   0  0  0  0  0  0  0  0  0  0  0  0
   12.4732  -22.0355   -2.9965 C   0  0  0  0  0  0  0  0  0  0  0  0
   13.7842  -22.7171   -2.6799 C   0  0  2  0  0  0  0  0  0  0  0  0
   14.0251  -23.6974   -3.7523 N   0  0  0  0  0  0  0  0  0  0  0  0
   13.6732  -23.3821   -1.3766 C   0  0  0  0  0  0  0  0  0  0  0  0
   12.9120  -24.3629   -1.2023 O   0  0  0  0  0  0  0  0  0  0  0  0
   16.6846  -23.0487    1.4740 C   0  0  0  0  0  0  0  0  0  0  0  0
   15.7356  -24.2304    1.4415 C   0  0  2  0  0  0  0  0  0  0  0  0
   16.2993  -25.2272    0.4639 C   0  0  0  0  0  0  0  0  0  0  0  0
   14.3888  -23.7011    1.0377 C   0  0  2  0  0  0  0  0  0  0  0  0
   14.4085  -22.9787   -0.2135 N   0  0  0  0  0  0  0  0  0  0  0  0
   13.8840  -22.8092    2.1096 C   0  0  0  0  0  0  0  0  0  0  0  0
   13.7827  -21.5597    2.0150 O   0  0  0  0  0  0  0  0  0  0  0  0
   13.4846  -23.3583    3.3205 O   0  0  0  0  0  0  0  0  0  0  0  0
  2  1  1  6
  2  3  1  0
  4  2  1  0
  4  6  1  0
  4  5  1  1
  6 13  1  0
  6  7  2  0
  9  8  1  1
  9 11  1  0
 10  9  1  0
 12 11  1  6
 13 12  1  0
 14 12  1  0
 14 20  1  0
 15 14  2  0
 17 16  1  6
 18 17  1  0
 19 17  1  0
 19 20  1  6
 19 21  1  0
 21 23  1  0
 22 21  2  0
M  END
$$$$
