VLV.pdb
     RDKit          3D

 23 22  0  0  1  0  0  0  0  0999 V2000
   26.0263  -20.8118  -17.2440 C   0  0  0  0  0  0  0  0  0  0  0  0
   27.1267  -20.2360  -16.3733 C   0  0  2  0  0  0  0  0  0  0  0  0
   28.3345  -19.9668  -17.2429 C   0  0  0  0  0  0  0  0  0  0  0  0
   27.4808  -21.1791  -15.2433 C   0  0  2  0  0  0  0  0  0  0  0  0
   27.9358  -22.4566  -15.7467 N   0  0  0  0  0  0  0  0  0  0  0  0
   26.3273  -21.4218  -14.3485 C   0  0  0  0  0  0  0  0  0  0  0  0
   25.5613  -22.3824  -14.5956 O   0  0  0  0  0  0  0  0  0  0  0  0
   26.1242  -19.8215   -8.9270 C   0  0  0  0  0  0  0  0  0  0  0  0
   26.0089  -20.6772  -10.1926 C   0  0  1  0  0  0  0  0  0  0  0  0
   25.3572  -21.9799   -9.6959 C   0  0  0  0  0  0  0  0  0  0  0  0
   25.0497  -20.0027  -11.1209 C   0  0  0  0  0  0  0  0  0  0  0  0
   24.8228  -20.7613  -12.4079 C   0  0  2  0  0  0  0  0  0  0  0  0
   26.0463  -20.6099  -13.2135 N   0  0  0  0  0  0  0  0  0  0  0  0
   23.6639  -20.1877  -13.1014 C   0  0  0  0  0  0  0  0  0  0  0  0
   23.6473  -18.9906  -13.4735 O   0  0  0  0  0  0  0  0  0  0  0  0
   19.8389  -20.5388  -16.0430 C   0  0  0  0  0  0  0  0  0  0  0  0
   21.0711  -21.1632  -15.4186 C   0  0  2  0  0  0  0  0  0  0  0  0
   20.7539  -22.6124  -15.1611 C   0  0  0  0  0  0  0  0  0  0  0  0
   21.3682  -20.3899  -14.1654 C   0  0  2  0  0  0  0  0  0  0  0  0
   22.4749  -20.9283  -13.4083 N   0  0  0  0  0  0  0  0  0  0  0  0
   20.1543  -20.3745  -13.3134 C   0  0  0  0  0  0  0  0  0  0  0  0
   20.0099  -21.0420  -12.2581 O   0  0  0  0  0  0  0  0  0  0  0  0
   19.0780  -19.5762  -13.6761 O   0  0  0  0  0  0  0  0  0  0  0  0
  2  1  1  6
  2  3  1  0
  4  2  1  0
  4  6  1  0
  4  5  1  6
  6 13  1  0
  6  7  2  0
  9  8  1  1
  9 11  1  0
 10  9  1  0
 12 11  1  1
 13 12  1  0
 14 12  1  0
 14 20  1  0
 15 14  2  0
 17 16  1  1
 18 17  1  0
 19 17  1  0
 19 20  1  1
 19 21  1  0
 21 23  1  0
 22 21  2  0
M  END
$$$$
