VLV.pdb
     RDKit          3D

 23 22  0  0  1  0  0  0  0  0999 V2000
   23.0038  -22.3814  -17.2721 C   0  0  0  0  0  0  0  0  0  0  0  0
   21.8186  -22.0847  -16.3734 C   0  0  2  0  0  0  0  0  0  0  0  0
   20.6784  -21.5858  -17.2328 C   0  0  0  0  0  0  0  0  0  0  0  0
   22.1764  -21.0637  -15.3145 C   0  0  2  0  0  0  0  0  0  0  0  0
   22.3421  -19.7461  -15.8881 N   0  0  0  0  0  0  0  0  0  0  0  0
   23.4282  -21.4191  -14.6095 C   0  0  0  0  0  0  0  0  0  0  0  0
   23.5175  -22.5441  -14.0648 O   0  0  0  0  0  0  0  0  0  0  0  0
   28.4502  -20.5369  -16.3648 C   0  0  0  0  0  0  0  0  0  0  0  0
   27.1579  -21.0698  -15.7376 C   0  0  1  0  0  0  0  0  0  0  0  0
   27.4928  -22.5325  -15.3955 C   0  0  0  0  0  0  0  0  0  0  0  0
   26.9285  -20.3340  -14.4559 C   0  0  0  0  0  0  0  0  0  0  0  0
   25.7222  -20.8231  -13.6884 C   0  0  2  0  0  0  0  0  0  0  0  0
   24.5419  -20.5368  -14.5215 N   0  0  0  0  0  0  0  0  0  0  0  0
   25.6480  -20.1069  -12.4099 C   0  0  0  0  0  0  0  0  0  0  0  0
   25.5015  -18.8628  -12.3615 O   0  0  0  0  0  0  0  0  0  0  0  0
   24.6191  -21.8200   -8.6613 C   0  0  0  0  0  0  0  0  0  0  0  0
   24.5439  -20.3475   -9.0136 C   0  0  2  0  0  0  0  0  0  0  0  0
   23.2313  -20.1245   -9.7168 C   0  0  0  0  0  0  0  0  0  0  0  0
   25.7365  -20.0403   -9.8740 C   0  0  2  0  0  0  0  0  0  0  0  0
   25.7343  -20.7514  -11.1318 N   0  0  0  0  0  0  0  0  0  0  0  0
   26.9692  -20.3797   -9.1225 C   0  0  0  0  0  0  0  0  0  0  0  0
   27.3262  -19.8361   -8.0467 O   0  0  0  0  0  0  0  0  0  0  0  0
   27.8156  -21.3651   -9.6120 O   0  0  0  0  0  0  0  0  0  0  0  0
  2  1  1  6
  2  3  1  0
  4  2  1  0
  4  6  1  0
  4  5  1  6
  6 13  1  0
  6  7  2  0
  9  8  1  1
  9 11  1  0
 10  9  1  0
 12 11  1  6
 13 12  1  0
 14 12  1  0
 14 20  1  0
 15 14  2  0
 17 16  1  6
 18 17  1  0
 19 17  1  0
 19 20  1  6
 19 21  1  0
 21 23  1  0
 22 21  2  0
M  END
$$$$
