VLV.pdb
     RDKit          3D

 23 22  0  0  1  0  0  0  0  0999 V2000
   23.1457  -20.9459   -9.5778 C   0  0  0  0  0  0  0  0  0  0  0  0
   24.3458  -20.3800   -8.8430 C   0  0  2  0  0  0  0  0  0  0  0  0
   24.1034  -18.9085   -8.5912 C   0  0  0  0  0  0  0  0  0  0  0  0
   25.6193  -20.5841   -9.6357 C   0  0  2  0  0  0  0  0  0  0  0  0
   26.7396  -19.9120   -9.0145 N   0  0  0  0  0  0  0  0  0  0  0  0
   25.4909  -20.0795  -11.0210 C   0  0  0  0  0  0  0  0  0  0  0  0
   25.5358  -18.8432  -11.2213 O   0  0  0  0  0  0  0  0  0  0  0  0
   28.2927  -21.8727  -15.1456 C   0  0  0  0  0  0  0  0  0  0  0  0
   27.4949  -20.9556  -14.2130 C   0  0  1  0  0  0  0  0  0  0  0  0
   27.7715  -19.5447  -14.7618 C   0  0  0  0  0  0  0  0  0  0  0  0
   26.0416  -21.2520  -14.4053 C   0  0  0  0  0  0  0  0  0  0  0  0
   25.1369  -20.4330  -13.5141 C   0  0  2  0  0  0  0  0  0  0  0  0
   25.3179  -20.9386  -12.1427 N   0  0  0  0  0  0  0  0  0  0  0  0
   23.7487  -20.6044  -13.9574 C   0  0  0  0  0  0  0  0  0  0  0  0
   23.0977  -21.6423  -13.6916 O   0  0  0  0  0  0  0  0  0  0  0  0
   20.8053  -17.9279  -13.8602 C   0  0  0  0  0  0  0  0  0  0  0  0
   20.9076  -18.4976  -15.2613 C   0  0  2  0  0  0  0  0  0  0  0  0
   19.5028  -18.6712  -15.7748 C   0  0  0  0  0  0  0  0  0  0  0  0
   21.6636  -19.7915  -15.1551 C   0  0  2  0  0  0  0  0  0  0  0  0
   23.0299  -19.6227  -14.7162 N   0  0  0  0  0  0  0  0  0  0  0  0
   21.6540  -20.4615  -16.4781 C   0  0  0  0  0  0  0  0  0  0  0  0
   22.4718  -20.2315  -17.4048 O   0  0  0  0  0  0  0  0  0  0  0  0
   20.6858  -21.4186  -16.7497 O   0  0  0  0  0  0  0  0  0  0  0  0
  2  1  1  6
  2  3  1  0
  4  2  1  0
  4  6  1  0
  4  5  1  1
  6 13  1  0
  6  7  2  0
  9  8  1  6
  9 11  1  0
 10  9  1  0
 12 11  1  6
 13 12  1  0
 14 12  1  0
 14 20  1  0
 15 14  2  0
 17 16  1  1
 18 17  1  0
 19 17  1  0
 19 20  1  6
 19 21  1  0
 21 23  1  0
 22 21  2  0
M  END
$$$$
