VLV.pdb
     RDKit          3D

 23 22  0  0  1  0  0  0  0  0999 V2000
   23.1550  -21.0025  -17.2785 C   0  0  0  0  0  0  0  0  0  0  0  0
   23.3206  -19.7791  -16.3975 C   0  0  2  0  0  0  0  0  0  0  0  0
   24.5947  -19.9336  -15.5973 C   0  0  0  0  0  0  0  0  0  0  0  0
   22.1306  -19.6008  -15.4788 C   0  0  2  0  0  0  0  0  0  0  0  0
   22.0854  -18.2635  -14.9291 N   0  0  0  0  0  0  0  0  0  0  0  0
   22.1577  -20.5604  -14.3524 C   0  0  0  0  0  0  0  0  0  0  0  0
   22.1663  -21.7881  -14.6034 O   0  0  0  0  0  0  0  0  0  0  0  0
   25.0233  -20.0242   -9.6381 C   0  0  0  0  0  0  0  0  0  0  0  0
   24.3611  -20.5406  -10.9196 C   0  0  1  0  0  0  0  0  0  0  0  0
   24.7887  -22.0176  -10.9835 C   0  0  0  0  0  0  0  0  0  0  0  0
   22.8789  -20.4944  -10.7250 C   0  0  0  0  0  0  0  0  0  0  0  0
   22.1021  -21.1037  -11.8689 C   0  0  2  0  0  0  0  0  0  0  0  0
   22.1745  -20.1505  -12.9893 N   0  0  0  0  0  0  0  0  0  0  0  0
   20.7125  -21.3103  -11.4451 C   0  0  0  0  0  0  0  0  0  0  0  0
   19.9460  -20.3456  -11.2140 O   0  0  0  0  0  0  0  0  0  0  0  0
   18.6272  -25.0107  -11.8621 C   0  0  0  0  0  0  0  0  0  0  0  0
   17.9608  -23.6500  -11.8128 C   0  0  2  0  0  0  0  0  0  0  0  0
   17.9581  -23.1047  -13.2163 C   0  0  0  0  0  0  0  0  0  0  0  0
   18.7512  -22.8084  -10.8517 C   0  0  2  0  0  0  0  0  0  0  0  0
   20.1216  -22.6039  -11.2618 N   0  0  0  0  0  0  0  0  0  0  0  0
   18.7314  -23.4577   -9.5185 C   0  0  0  0  0  0  0  0  0  0  0  0
   19.7264  -23.9907   -8.9651 O   0  0  0  0  0  0  0  0  0  0  0  0
   17.5449  -23.4994   -8.7991 O   0  0  0  0  0  0  0  0  0  0  0  0
  2  1  1  1
  2  3  1  0
  4  2  1  0
  4  6  1  0
  4  5  1  1
  6 13  1  0
  6  7  2  0
  9  8  1  1
  9 11  1  0
 10  9  1  0
 12 11  1  1
 13 12  1  0
 14 12  1  0
 14 20  1  0
 15 14  2  0
 17 16  1  6
 18 17  1  0
 19 17  1  0
 19 20  1  6
 19 21  1  0
 21 23  1  0
 22 21  2  0
M  END
$$$$
