VLV.pdb
     RDKit          3D

 23 22  0  0  1  0  0  0  0  0999 V2000
   18.3731  -13.5029  -20.8118 C   0  0  0  0  0  0  0  0  0  0  0  0
   18.7210  -12.7465  -19.5440 C   0  0  2  0  0  0  0  0  0  0  0  0
   19.1816  -11.3574  -19.9258 C   0  0  0  0  0  0  0  0  0  0  0  0
   19.7925  -13.4667  -18.7534 C   0  0  2  0  0  0  0  0  0  0  0  0
   19.3306  -14.7591  -18.2964 N   0  0  0  0  0  0  0  0  0  0  0  0
   20.2203  -12.6866  -17.5707 C   0  0  0  0  0  0  0  0  0  0  0  0
   19.4407  -12.5916  -16.5942 O   0  0  0  0  0  0  0  0  0  0  0  0
   25.2805  -13.0094  -15.7225 C   0  0  0  0  0  0  0  0  0  0  0  0
   23.7534  -12.9080  -15.7949 C   0  0  1  0  0  0  0  0  0  0  0  0
   23.3006  -13.1571  -14.3453 C   0  0  0  0  0  0  0  0  0  0  0  0
   23.4002  -11.5003  -16.1562 C   0  0  0  0  0  0  0  0  0  0  0  0
   21.9141  -11.2722  -16.3073 C   0  0  2  0  0  0  0  0  0  0  0  0
   21.4837  -12.0356  -17.4909 N   0  0  0  0  0  0  0  0  0  0  0  0
   21.6682   -9.8373  -16.4908 C   0  0  0  0  0  0  0  0  0  0  0  0
   22.1267   -9.2131  -17.4766 O   0  0  0  0  0  0  0  0  0  0  0  0
   18.3513   -7.8499  -15.0719 C   0  0  0  0  0  0  0  0  0  0  0  0
   19.2591   -7.2934  -16.1509 C   0  0  2  0  0  0  0  0  0  0  0  0
   18.8457   -7.9289  -17.4518 C   0  0  0  0  0  0  0  0  0  0  0  0
   20.6692   -7.6239  -15.7519 C   0  0  2  0  0  0  0  0  0  0  0  0
   20.8994   -9.0400  -15.5800 N   0  0  0  0  0  0  0  0  0  0  0  0
   20.9860   -6.9197  -14.4857 C   0  0  0  0  0  0  0  0  0  0  0  0
   21.0370   -7.4655  -13.3545 O   0  0  0  0  0  0  0  0  0  0  0  0
   21.2513   -5.5573  -14.5123 O   0  0  0  0  0  0  0  0  0  0  0  0
  2  1  1  6
  2  3  1  0
  4  2  1  0
  4  6  1  0
  4  5  1  1
  6 13  1  0
  6  7  2  0
  9  8  1  1
  9 11  1  0
 10  9  1  0
 12 11  1  6
 13 12  1  0
 14 12  1  0
 14 20  1  0
 15 14  2  0
 17 16  1  1
 18 17  1  0
 19 17  1  0
 19 20  1  1
 19 21  1  0
 21 23  1  0
 22 21  2  0
M  END
$$$$
