VLV.pdb
     RDKit          3D

 23 22  0  0  1  0  0  0  0  0999 V2000
   20.1762  -19.1571   -9.9086 C   0  0  0  0  0  0  0  0  0  0  0  0
   19.9986  -20.2672  -10.9267 C   0  0  2  0  0  0  0  0  0  0  0  0
   18.6157  -20.8559  -10.7576 C   0  0  0  0  0  0  0  0  0  0  0  0
   21.0583  -21.3358  -10.7623 C   0  0  2  0  0  0  0  0  0  0  0  0
   20.8647  -22.0858   -9.5406 N   0  0  0  0  0  0  0  0  0  0  0  0
   22.4209  -20.7587  -10.7365 C   0  0  0  0  0  0  0  0  0  0  0  0
   22.7679  -19.9848  -11.6592 O   0  0  0  0  0  0  0  0  0  0  0  0
   26.4810  -18.6157   -7.9529 C   0  0  0  0  0  0  0  0  0  0  0  0
   26.6380  -20.1325   -8.1006 C   0  0  1  0  0  0  0  0  0  0  0  0
   27.1501  -20.5839   -6.7213 C   0  0  0  0  0  0  0  0  0  0  0  0
   25.2781  -20.7202   -8.3060 C   0  0  0  0  0  0  0  0  0  0  0  0
   24.7222  -20.4823   -9.6909 C   0  0  2  0  0  0  0  0  0  0  0  0
   23.3607  -21.0437   -9.7061 N   0  0  0  0  0  0  0  0  0  0  0  0
   25.5793  -21.1584  -10.6713 C   0  0  0  0  0  0  0  0  0  0  0  0
   25.9943  -22.3267  -10.4859 O   0  0  0  0  0  0  0  0  0  0  0  0
   26.3150  -19.5340  -14.5467 C   0  0  0  0  0  0  0  0  0  0  0  0
   26.3120  -21.0295  -14.2985 C   0  0  2  0  0  0  0  0  0  0  0  0
   24.9030  -21.5139  -14.5161 C   0  0  0  0  0  0  0  0  0  0  0  0
   26.8016  -21.2426  -12.8944 C   0  0  2  0  0  0  0  0  0  0  0  0
   26.0083  -20.5568  -11.9003 N   0  0  0  0  0  0  0  0  0  0  0  0
   28.2077  -20.7801  -12.8022 C   0  0  0  0  0  0  0  0  0  0  0  0
   28.5830  -19.7392  -12.2056 O   0  0  0  0  0  0  0  0  0  0  0  0
   29.2106  -21.5253  -13.4071 O   0  0  0  0  0  0  0  0  0  0  0  0
  2  1  1  1
  2  3  1  0
  4  2  1  0
  4  6  1  0
  4  5  1  1
  6 13  1  0
  6  7  2  0
  9  8  1  1
  9 11  1  0
 10  9  1  0
 12 11  1  1
 13 12  1  0
 14 12  1  0
 14 20  1  0
 15 14  2  0
 17 16  1  1
 18 17  1  0
 19 17  1  0
 19 20  1  1
 19 21  1  0
 21 23  1  0
 22 21  2  0
M  END
$$$$
