VLV.pdb
     RDKit          3D

 23 22  0  0  1  0  0  0  0  0999 V2000
   19.3221  -13.0733  -16.0896 C   0  0  0  0  0  0  0  0  0  0  0  0
   17.9982  -12.6750  -16.7135 C   0  0  2  0  0  0  0  0  0  0  0  0
   17.5982  -13.7402  -17.7100 C   0  0  0  0  0  0  0  0  0  0  0  0
   18.0951  -11.3225  -17.3867 C   0  0  2  0  0  0  0  0  0  0  0  0
   18.7898  -11.4128  -18.6523 N   0  0  0  0  0  0  0  0  0  0  0  0
   18.8060  -10.3377  -16.5411 C   0  0  0  0  0  0  0  0  0  0  0  0
   18.3410  -10.0638  -15.4101 O   0  0  0  0  0  0  0  0  0  0  0  0
   23.8229  -10.5857  -14.9308 C   0  0  0  0  0  0  0  0  0  0  0  0
   22.3305  -10.2423  -14.9782 C   0  0  1  0  0  0  0  0  0  0  0  0
   22.0491   -9.6399  -13.5902 C   0  0  0  0  0  0  0  0  0  0  0  0
   22.1358   -9.1669  -15.9992 C   0  0  0  0  0  0  0  0  0  0  0  0
   20.7035   -8.6994  -16.1156 C   0  0  2  0  0  0  0  0  0  0  0  0
   20.0005   -9.6838  -16.9557 N   0  0  0  0  0  0  0  0  0  0  0  0
   20.6849   -7.3706  -16.7377 C   0  0  0  0  0  0  0  0  0  0  0  0
   21.2754   -7.1436  -17.8200 O   0  0  0  0  0  0  0  0  0  0  0  0
   17.5999   -4.7133  -16.2870 C   0  0  0  0  0  0  0  0  0  0  0  0
   18.6212   -4.6127  -17.4027 C   0  0  2  0  0  0  0  0  0  0  0  0
   18.2012   -5.5783  -18.4789 C   0  0  0  0  0  0  0  0  0  0  0  0
   19.9597   -4.9389  -16.8035 C   0  0  2  0  0  0  0  0  0  0  0  0
   20.0051   -6.2397  -16.1760 N   0  0  0  0  0  0  0  0  0  0  0  0
   20.3016   -3.9004  -15.8016 C   0  0  0  0  0  0  0  0  0  0  0  0
   20.3143   -4.0801  -14.5574 O   0  0  0  0  0  0  0  0  0  0  0  0
   20.6376   -2.6239  -16.2315 O   0  0  0  0  0  0  0  0  0  0  0  0
  2  1  1  6
  2  3  1  0
  4  2  1  0
  4  6  1  0
  4  5  1  6
  6 13  1  0
  6  7  2  0
  9  8  1  1
  9 11  1  0
 10  9  1  0
 12 11  1  6
 13 12  1  0
 14 12  1  0
 14 20  1  0
 15 14  2  0
 17 16  1  1
 18 17  1  0
 19 17  1  0
 19 20  1  1
 19 21  1  0
 21 23  1  0
 22 21  2  0
M  END
$$$$
