VLV.pdb
     RDKit          3D

 23 22  0  0  1  0  0  0  0  0999 V2000
   26.0317  -19.7425  -16.5932 C   0  0  0  0  0  0  0  0  0  0  0  0
   26.9807  -19.1378  -15.5762 C   0  0  2  0  0  0  0  0  0  0  0  0
   28.1262  -18.4857  -16.3180 C   0  0  0  0  0  0  0  0  0  0  0  0
   27.4950  -20.1882  -14.6150 C   0  0  2  0  0  0  0  0  0  0  0  0
   28.2321  -21.2214  -15.3092 N   0  0  0  0  0  0  0  0  0  0  0  0
   26.3939  -20.8333  -13.8656 C   0  0  0  0  0  0  0  0  0  0  0  0
   25.8461  -21.8505  -14.3511 O   0  0  0  0  0  0  0  0  0  0  0  0
   25.9772  -19.9845   -8.3992 C   0  0  0  0  0  0  0  0  0  0  0  0
   26.0848  -20.6135   -9.7921 C   0  0  1  0  0  0  0  0  0  0  0  0
   26.2155  -22.1198   -9.5048 C   0  0  0  0  0  0  0  0  0  0  0  0
   24.7886  -20.3872  -10.5030 C   0  0  0  0  0  0  0  0  0  0  0  0
   24.7704  -20.9348  -11.9112 C   0  0  2  0  0  0  0  0  0  0  0  0
   25.9259  -20.3488  -12.6116 N   0  0  0  0  0  0  0  0  0  0  0  0
   23.5123  -20.5453  -12.5581 C   0  0  0  0  0  0  0  0  0  0  0  0
   23.2159  -19.3419  -12.7470 O   0  0  0  0  0  0  0  0  0  0  0  0
   22.2613  -21.3847  -15.9063 C   0  0  0  0  0  0  0  0  0  0  0  0
   21.1122  -21.7990  -15.0086 C   0  0  2  0  0  0  0  0  0  0  0  0
   19.8377  -21.4002  -15.7042 C   0  0  0  0  0  0  0  0  0  0  0  0
   21.3109  -21.1036  -13.6918 C   0  0  2  0  0  0  0  0  0  0  0  0
   22.5327  -21.4846  -13.0210 N   0  0  0  0  0  0  0  0  0  0  0  0
   20.1555  -21.4049  -12.8122 C   0  0  0  0  0  0  0  0  0  0  0  0
   20.1032  -22.3620  -11.9989 O   0  0  0  0  0  0  0  0  0  0  0  0
   19.0312  -20.5921  -12.8627 O   0  0  0  0  0  0  0  0  0  0  0  0
  2  1  1  6
  2  3  1  0
  4  2  1  0
  4  6  1  0
  4  5  1  6
  6 13  1  0
  6  7  2  0
  9  8  1  1
  9 11  1  0
 10  9  1  0
 12 11  1  1
 13 12  1  0
 14 12  1  0
 14 20  1  0
 15 14  2  0
 17 16  1  6
 18 17  1  0
 19 17  1  0
 19 20  1  1
 19 21  1  0
 21 23  1  0
 22 21  2  0
M  END
$$$$
