NQD.pdb
     RDKit          3D

 26 25  0  0  1  0  0  0  0  0999 V2000
    7.6868  -14.9966   14.8462 N   0  0  0  0  0  0  0  0  0  0  0  0
    7.6091  -13.7069   15.4656 C   0  0  0  0  0  0  0  0  0  0  0  0
    6.7569  -12.9066   15.0011 O   0  0  0  0  0  0  0  0  0  0  0  0
    8.5205  -13.4166   16.5858 C   0  0  0  0  0  0  0  0  0  0  0  0
    9.4011  -14.5597   16.9198 C   0  0  2  0  0  0  0  0  0  0  0  0
    8.6739  -15.7525   17.2177 N   0  0  0  0  0  0  0  0  0  0  0  0
   10.3726  -14.2366   18.0152 C   0  0  0  0  0  0  0  0  0  0  0  0
   11.1197  -13.2751   17.8116 O   0  0  0  0  0  0  0  0  0  0  0  0
   10.0816  -16.9016   23.8669 N   0  0  0  0  0  0  0  0  0  0  0  0
   11.3550  -16.2905   23.8578 C   0  0  0  0  0  0  0  0  0  0  0  0
   12.0484  -16.2939   24.8852 O   0  0  0  0  0  0  0  0  0  0  0  0
   11.8815  -15.6382   22.6161 C   0  0  0  0  0  0  0  0  0  0  0  0
   10.9130  -15.6802   21.4753 C   0  0  0  0  0  0  0  0  0  0  0  0
   11.3462  -14.9478   20.2360 C   0  0  2  0  0  0  0  0  0  0  0  0
   10.3910  -15.0085   19.1740 N   0  0  0  0  0  0  0  0  0  0  0  0
   12.7281  -15.2157   19.8611 C   0  0  0  0  0  0  0  0  0  0  0  0
   12.9829  -16.2486   19.1634 O   0  0  0  0  0  0  0  0  0  0  0  0
   13.8394  -14.4113   20.2126 N   0  0  0  0  0  0  0  0  0  0  0  0
   15.1634  -14.6772   19.6244 C   0  0  1  0  0  0  0  0  0  0  0  0
   15.7356  -13.4462   19.0154 C   0  0  0  0  0  0  0  0  0  0  0  0
   17.0570  -13.7426   18.4291 C   0  0  0  0  0  0  0  0  0  0  0  0
   18.1150  -13.5115   19.1109 O   0  0  0  0  0  0  0  0  0  0  0  0
   16.0003  -15.1581   20.7663 C   0  0  0  0  0  0  0  0  0  0  0  0
   17.1446  -15.6199   20.5129 O   0  0  0  0  0  0  0  0  0  0  0  0
   17.2826  -14.2630   17.1676 O   0  0  0  0  0  0  0  0  0  0  0  0
   15.5983  -15.1278   22.0809 O   0  0  0  0  0  0  0  0  0  0  0  0
  1  2  1  0
  2  3  2  0
  4  2  1  0
  5  4  1  0
  5  6  1  1
  7 15  1  0
  7  5  1  0
  8  7  2  0
  9 10  1  0
 10 12  1  0
 11 10  2  0
 13 12  1  0
 14 13  1  1
 14 15  1  0
 16 14  1  0
 16 17  2  0
 18 16  1  0
 19 18  1  0
 19 20  1  1
 20 21  1  0
 21 25  1  0
 22 21  2  0
 23 19  1  0
 24 23  2  0
 26 23  1  0
M  END
$$$$
