NQD.pdb
     RDKit          3D

 26 25  0  0  1  0  0  0  0  0999 V2000
    9.6972  -17.3334   13.5752 N   0  0  0  0  0  0  0  0  0  0  0  0
    8.6665  -17.3438   14.5705 C   0  0  0  0  0  0  0  0  0  0  0  0
    7.6422  -18.0286   14.3169 O   0  0  0  0  0  0  0  0  0  0  0  0
    8.8791  -16.5626   15.8010 C   0  0  0  0  0  0  0  0  0  0  0  0
    9.3633  -17.3905   16.9296 C   0  0  2  0  0  0  0  0  0  0  0  0
    8.4134  -18.3727   17.3455 N   0  0  0  0  0  0  0  0  0  0  0  0
    9.8242  -16.5643   18.0929 C   0  0  0  0  0  0  0  0  0  0  0  0
   10.7222  -15.7503   17.8582 O   0  0  0  0  0  0  0  0  0  0  0  0
    6.3193  -16.1880   23.3238 N   0  0  0  0  0  0  0  0  0  0  0  0
    6.1114  -15.5987   22.0571 C   0  0  0  0  0  0  0  0  0  0  0  0
    4.9882  -15.1727   21.7516 O   0  0  0  0  0  0  0  0  0  0  0  0
    7.2366  -15.4790   21.0753 C   0  0  0  0  0  0  0  0  0  0  0  0
    8.5235  -16.0493   21.5850 C   0  0  0  0  0  0  0  0  0  0  0  0
    9.6344  -16.1342   20.5757 C   0  0  2  0  0  0  0  0  0  0  0  0
    9.2412  -16.7450   19.3444 N   0  0  0  0  0  0  0  0  0  0  0  0
   10.8929  -16.6014   21.1411 C   0  0  0  0  0  0  0  0  0  0  0  0
   11.0993  -17.8543   21.2213 O   0  0  0  0  0  0  0  0  0  0  0  0
   11.9312  -15.7667   21.6215 N   0  0  0  0  0  0  0  0  0  0  0  0
   13.0920  -16.3510   22.3150 C   0  0  1  0  0  0  0  0  0  0  0  0
   14.3176  -15.5398   22.0840 C   0  0  0  0  0  0  0  0  0  0  0  0
   14.7236  -15.6339   20.6683 C   0  0  0  0  0  0  0  0  0  0  0  0
   14.4348  -16.6854   19.9987 O   0  0  0  0  0  0  0  0  0  0  0  0
   12.7102  -16.3593   23.7606 C   0  0  0  0  0  0  0  0  0  0  0  0
   11.6402  -15.7862   24.0973 O   0  0  0  0  0  0  0  0  0  0  0  0
   15.4139  -14.6670   19.9600 O   0  0  0  0  0  0  0  0  0  0  0  0
   13.4563  -16.9558   24.7497 O   0  0  0  0  0  0  0  0  0  0  0  0
  1  2  1  0
  2  3  2  0
  4  2  1  0
  5  4  1  0
  5  6  1  1
  7 15  1  0
  7  5  1  0
  8  7  2  0
  9 10  1  0
 10 12  1  0
 11 10  2  0
 13 12  1  0
 14 13  1  1
 14 15  1  0
 16 14  1  0
 16 17  2  0
 18 16  1  0
 19 18  1  0
 19 20  1  1
 20 21  1  0
 21 25  1  0
 22 21  2  0
 23 19  1  0
 24 23  2  0
 26 23  1  0
M  END
$$$$
