NQD.pdb
     RDKit          3D

 26 25  0  0  1  0  0  0  0  0999 V2000
    7.8140  -17.1968   12.2067 N   0  0  0  0  0  0  0  0  0  0  0  0
    7.5778  -15.8457   12.6211 C   0  0  0  0  0  0  0  0  0  0  0  0
    6.5590  -15.2790   12.1484 O   0  0  0  0  0  0  0  0  0  0  0  0
    8.5321  -15.2277   13.5574 C   0  0  0  0  0  0  0  0  0  0  0  0
    8.8932  -16.1217   14.6818 C   0  0  2  0  0  0  0  0  0  0  0  0
    7.7542  -16.7128   15.3091 N   0  0  0  0  0  0  0  0  0  0  0  0
    9.7726  -15.4485   15.6925 C   0  0  0  0  0  0  0  0  0  0  0  0
   10.8626  -15.0426   15.2786 O   0  0  0  0  0  0  0  0  0  0  0  0
    7.5963  -13.2063   21.3205 N   0  0  0  0  0  0  0  0  0  0  0  0
    7.9003  -12.3199   20.2635 C   0  0  0  0  0  0  0  0  0  0  0  0
    7.4500  -11.1652   20.2778 O   0  0  0  0  0  0  0  0  0  0  0  0
    8.7659  -12.7589   19.1223 C   0  0  0  0  0  0  0  0  0  0  0  0
    9.1343  -14.2084   19.1887 C   0  0  0  0  0  0  0  0  0  0  0  0
   10.0377  -14.6938   18.0895 C   0  0  2  0  0  0  0  0  0  0  0  0
    9.3382  -15.3156   17.0088 N   0  0  0  0  0  0  0  0  0  0  0  0
   11.2099  -15.4068   18.5790 C   0  0  0  0  0  0  0  0  0  0  0  0
   11.1042  -16.6463   18.8458 O   0  0  0  0  0  0  0  0  0  0  0  0
   12.4861  -14.8303   18.7904 N   0  0  0  0  0  0  0  0  0  0  0  0
   13.5945  -15.6511   19.3075 C   0  0  1  0  0  0  0  0  0  0  0  0
   14.0426  -16.6446   18.2947 C   0  0  0  0  0  0  0  0  0  0  0  0
   15.1932  -17.4087   18.8145 C   0  0  0  0  0  0  0  0  0  0  0  0
   15.0836  -18.0352   19.9249 O   0  0  0  0  0  0  0  0  0  0  0  0
   14.6794  -14.6728   19.6261 C   0  0  0  0  0  0  0  0  0  0  0  0
   14.7212  -13.5964   18.9731 O   0  0  0  0  0  0  0  0  0  0  0  0
   16.4294  -17.5220   18.2046 O   0  0  0  0  0  0  0  0  0  0  0  0
   15.6380  -14.8745   20.5910 O   0  0  0  0  0  0  0  0  0  0  0  0
  1  2  1  0
  2  3  2  0
  4  2  1  0
  5  4  1  0
  5  6  1  1
  7 15  1  0
  7  5  1  0
  8  7  2  0
  9 10  1  0
 10 12  1  0
 11 10  2  0
 13 12  1  0
 14 13  1  1
 14 15  1  0
 16 14  1  0
 16 17  2  0
 18 16  1  0
 19 18  1  0
 19 20  1  6
 20 21  1  0
 21 25  1  0
 22 21  2  0
 23 19  1  0
 24 23  2  0
 26 23  1  0
M  END
$$$$
