NQD.pdb
     RDKit          3D

 26 25  0  0  1  0  0  0  0  0999 V2000
    7.9696  -13.3956   16.4498 N   0  0  0  0  0  0  0  0  0  0  0  0
    7.1828  -14.0882   17.4267 C   0  0  0  0  0  0  0  0  0  0  0  0
    6.3690  -14.9443   16.9940 O   0  0  0  0  0  0  0  0  0  0  0  0
    7.3818  -13.7515   18.8468 C   0  0  0  0  0  0  0  0  0  0  0  0
    8.7767  -13.9645   19.2967 C   0  0  2  0  0  0  0  0  0  0  0  0
    9.2611  -15.2756   19.0028 N   0  0  0  0  0  0  0  0  0  0  0  0
    8.9704  -13.6341   20.7464 C   0  0  0  0  0  0  0  0  0  0  0  0
    8.5884  -12.5158   21.1037 O   0  0  0  0  0  0  0  0  0  0  0  0
    6.3426  -13.1002   25.2769 N   0  0  0  0  0  0  0  0  0  0  0  0
    6.3849  -14.4602   24.8979 C   0  0  0  0  0  0  0  0  0  0  0  0
    5.4575  -15.2185   25.2161 O   0  0  0  0  0  0  0  0  0  0  0  0
    7.5399  -14.9992   24.1105 C   0  0  0  0  0  0  0  0  0  0  0  0
    8.5422  -13.9490   23.7451 C   0  0  0  0  0  0  0  0  0  0  0  0
    9.7545  -14.4452   23.0075 C   0  0  2  0  0  0  0  0  0  0  0  0
    9.5536  -14.5692   21.5975 N   0  0  0  0  0  0  0  0  0  0  0  0
   10.4016  -15.5772   23.6571 C   0  0  0  0  0  0  0  0  0  0  0  0
   10.4268  -15.6199   24.9284 O   0  0  0  0  0  0  0  0  0  0  0  0
   11.0204  -16.6592   22.9847 N   0  0  0  0  0  0  0  0  0  0  0  0
   11.9434  -17.5513   23.7072 C   0  0  1  0  0  0  0  0  0  0  0  0
   11.8707  -18.9395   23.1770 C   0  0  0  0  0  0  0  0  0  0  0  0
   12.3543  -19.8925   24.1948 C   0  0  0  0  0  0  0  0  0  0  0  0
   12.0906  -19.6834   25.4294 O   0  0  0  0  0  0  0  0  0  0  0  0
   13.2983  -16.9571   23.4909 C   0  0  0  0  0  0  0  0  0  0  0  0
   14.2152  -17.2544   24.3019 O   0  0  0  0  0  0  0  0  0  0  0  0
   13.0951  -21.0336   23.9456 O   0  0  0  0  0  0  0  0  0  0  0  0
   13.6080  -16.1034   22.4584 O   0  0  0  0  0  0  0  0  0  0  0  0
  1  2  1  0
  2  3  2  0
  4  2  1  0
  5  4  1  0
  5  6  1  1
  7 15  1  0
  7  5  1  0
  8  7  2  0
  9 10  1  0
 10 12  1  0
 11 10  2  0
 13 12  1  0
 14 13  1  1
 14 15  1  0
 16 14  1  0
 16 17  2  0
 18 16  1  0
 19 18  1  0
 19 20  1  6
 20 21  1  0
 21 25  1  0
 22 21  2  0
 23 19  1  0
 24 23  2  0
 26 23  1  0
M  END
$$$$
