NQD.pdb
     RDKit          3D

 26 25  0  0  1  0  0  0  0  0999 V2000
   11.5627  -17.3215   14.7814 N   0  0  0  0  0  0  0  0  0  0  0  0
   10.4769  -17.6448   15.6586 C   0  0  0  0  0  0  0  0  0  0  0  0
    9.8224  -18.6848   15.3891 O   0  0  0  0  0  0  0  0  0  0  0  0
   10.2101  -16.7480   16.7961 C   0  0  0  0  0  0  0  0  0  0  0  0
   10.7395  -17.2722   18.0763 C   0  0  2  0  0  0  0  0  0  0  0  0
   10.2082  -18.5544   18.4135 N   0  0  0  0  0  0  0  0  0  0  0  0
   10.5665  -16.3055   19.2093 C   0  0  0  0  0  0  0  0  0  0  0  0
   11.1039  -15.2029   19.0686 O   0  0  0  0  0  0  0  0  0  0  0  0
    5.5567  -16.3830   22.9338 N   0  0  0  0  0  0  0  0  0  0  0  0
    5.7376  -16.0379   21.5761 C   0  0  0  0  0  0  0  0  0  0  0  0
    4.7511  -15.8900   20.8403 O   0  0  0  0  0  0  0  0  0  0  0  0
    7.1122  -15.8446   21.0127 C   0  0  0  0  0  0  0  0  0  0  0  0
    8.1943  -16.0165   22.0329 C   0  0  0  0  0  0  0  0  0  0  0  0
    9.5982  -15.9005   21.5079 C   0  0  2  0  0  0  0  0  0  0  0  0
    9.8341  -16.6798   20.3328 N   0  0  0  0  0  0  0  0  0  0  0  0
   10.6130  -15.9997   22.5482 C   0  0  0  0  0  0  0  0  0  0  0  0
   10.5070  -15.2602   23.5781 O   0  0  0  0  0  0  0  0  0  0  0  0
   11.7337  -16.8649   22.5148 N   0  0  0  0  0  0  0  0  0  0  0  0
   12.7646  -16.7845   23.5637 C   0  0  1  0  0  0  0  0  0  0  0  0
   12.8605  -18.0626   24.3193 C   0  0  0  0  0  0  0  0  0  0  0  0
   11.8112  -18.1141   25.3557 C   0  0  0  0  0  0  0  0  0  0  0  0
   11.0387  -17.1073   25.5207 O   0  0  0  0  0  0  0  0  0  0  0  0
   14.0343  -16.4896   22.8312 C   0  0  0  0  0  0  0  0  0  0  0  0
   15.0879  -16.3352   23.5041 O   0  0  0  0  0  0  0  0  0  0  0  0
   11.5658  -19.1782   26.2044 O   0  0  0  0  0  0  0  0  0  0  0  0
   14.1248  -16.3761   21.4638 O   0  0  0  0  0  0  0  0  0  0  0  0
  1  2  1  0
  2  3  2  0
  4  2  1  0
  5  4  1  0
  5  6  1  1
  7 15  1  0
  7  5  1  0
  8  7  2  0
  9 10  1  0
 10 12  1  0
 11 10  2  0
 13 12  1  0
 14 13  1  1
 14 15  1  0
 16 14  1  0
 16 17  2  0
 18 16  1  0
 19 18  1  0
 19 20  1  6
 20 21  1  0
 21 25  1  0
 22 21  2  0
 23 19  1  0
 24 23  2  0
 26 23  1  0
M  END
$$$$
