NQD.pdb
     RDKit          3D

 26 25  0  0  1  0  0  0  0  0999 V2000
    9.6307  -17.8776   16.7983 N   0  0  0  0  0  0  0  0  0  0  0  0
    8.6307  -17.8872   17.8243 C   0  0  0  0  0  0  0  0  0  0  0  0
    7.6641  -18.6764   17.6649 O   0  0  0  0  0  0  0  0  0  0  0  0
    8.8053  -16.9844   18.9750 C   0  0  0  0  0  0  0  0  0  0  0  0
    9.6414  -17.5749   20.0456 C   0  0  2  0  0  0  0  0  0  0  0  0
    9.0849  -18.7736   20.5874 N   0  0  0  0  0  0  0  0  0  0  0  0
    9.9615  -16.5933   21.1329 C   0  0  0  0  0  0  0  0  0  0  0  0
   10.4829  -15.5342   20.7715 O   0  0  0  0  0  0  0  0  0  0  0  0
    7.3557  -18.1947   25.6148 N   0  0  0  0  0  0  0  0  0  0  0  0
    6.7213  -17.5540   24.5275 C   0  0  0  0  0  0  0  0  0  0  0  0
    5.6208  -17.9612   24.1281 O   0  0  0  0  0  0  0  0  0  0  0  0
    7.3629  -16.3818   23.8502 C   0  0  0  0  0  0  0  0  0  0  0  0
    8.6546  -15.9714   24.4859 C   0  0  0  0  0  0  0  0  0  0  0  0
    9.8682  -16.0791   23.6052 C   0  0  2  0  0  0  0  0  0  0  0  0
    9.6685  -16.9077   22.4574 N   0  0  0  0  0  0  0  0  0  0  0  0
   11.1004  -16.3106   24.3469 C   0  0  0  0  0  0  0  0  0  0  0  0
   11.4100  -15.5073   25.2837 O   0  0  0  0  0  0  0  0  0  0  0  0
   12.0062  -17.3737   24.1125 N   0  0  0  0  0  0  0  0  0  0  0  0
   13.3631  -17.3319   24.6843 C   0  0  1  0  0  0  0  0  0  0  0  0
   13.9440  -15.9658   24.5847 C   0  0  0  0  0  0  0  0  0  0  0  0
   15.0382  -15.9556   23.5945 C   0  0  0  0  0  0  0  0  0  0  0  0
   16.1235  -16.5843   23.8483 O   0  0  0  0  0  0  0  0  0  0  0  0
   13.1908  -17.7466   26.1104 C   0  0  0  0  0  0  0  0  0  0  0  0
   12.0222  -17.8018   26.5775 O   0  0  0  0  0  0  0  0  0  0  0  0
   15.0150  -15.3097   22.3717 O   0  0  0  0  0  0  0  0  0  0  0  0
   14.2316  -18.0731   26.9476 O   0  0  0  0  0  0  0  0  0  0  0  0
  1  2  1  0
  2  3  2  0
  4  2  1  0
  5  4  1  0
  5  6  1  1
  7 15  1  0
  7  5  1  0
  8  7  2  0
  9 10  1  0
 10 12  1  0
 11 10  2  0
 13 12  1  0
 14 13  1  1
 14 15  1  0
 16 14  1  0
 16 17  2  0
 18 16  1  0
 19 18  1  0
 19 20  1  1
 20 21  1  0
 21 25  1  0
 22 21  2  0
 23 19  1  0
 24 23  2  0
 26 23  1  0
M  END
$$$$
