NQD.pdb
     RDKit          3D

 26 25  0  0  1  0  0  0  0  0999 V2000
   15.6612  -16.0743   14.7158 N   0  0  0  0  0  0  0  0  0  0  0  0
   15.6059  -14.6426   14.7003 C   0  0  0  0  0  0  0  0  0  0  0  0
   16.2487  -14.0615   13.7884 O   0  0  0  0  0  0  0  0  0  0  0  0
   14.8113  -13.9653   15.7392 C   0  0  0  0  0  0  0  0  0  0  0  0
   14.1819  -14.9123   16.6884 C   0  0  2  0  0  0  0  0  0  0  0  0
   13.0297  -15.5589   16.1457 N   0  0  0  0  0  0  0  0  0  0  0  0
   13.8680  -14.2784   18.0104 C   0  0  0  0  0  0  0  0  0  0  0  0
   14.8375  -13.9001   18.6745 O   0  0  0  0  0  0  0  0  0  0  0  0
    8.0682  -12.1112   19.5105 N   0  0  0  0  0  0  0  0  0  0  0  0
    8.2799  -13.4163   19.0135 C   0  0  0  0  0  0  0  0  0  0  0  0
    7.3297  -14.0598   18.5451 O   0  0  0  0  0  0  0  0  0  0  0  0
    9.6444  -14.0340   19.0429 C   0  0  0  0  0  0  0  0  0  0  0  0
   10.6790  -13.1427   19.6566 C   0  0  0  0  0  0  0  0  0  0  0  0
   12.0727  -13.7052   19.6938 C   0  0  2  0  0  0  0  0  0  0  0  0
   12.5431  -14.1492   18.4189 N   0  0  0  0  0  0  0  0  0  0  0  0
   12.2959  -14.6200   20.8051 C   0  0  0  0  0  0  0  0  0  0  0  0
   12.0736  -15.8604   20.6299 O   0  0  0  0  0  0  0  0  0  0  0  0
   12.7479  -14.2437   22.0935 N   0  0  0  0  0  0  0  0  0  0  0  0
   12.9892  -15.2684   23.1237 C   0  0  1  0  0  0  0  0  0  0  0  0
   12.1908  -16.4950   22.8560 C   0  0  0  0  0  0  0  0  0  0  0  0
   11.9299  -17.2111   24.1197 C   0  0  0  0  0  0  0  0  0  0  0  0
   11.7226  -18.4736   24.0972 O   0  0  0  0  0  0  0  0  0  0  0  0
   14.4561  -15.5479   23.0498 C   0  0  0  0  0  0  0  0  0  0  0  0
   14.9229  -15.9984   21.9700 O   0  0  0  0  0  0  0  0  0  0  0  0
   11.8814  -16.6381   25.3776 O   0  0  0  0  0  0  0  0  0  0  0  0
   15.3315  -15.3433   24.0903 O   0  0  0  0  0  0  0  0  0  0  0  0
  1  2  1  0
  2  3  2  0
  4  2  1  0
  5  4  1  0
  5  6  1  6
  7 15  1  0
  7  5  1  0
  8  7  2  0
  9 10  1  0
 10 12  1  0
 11 10  2  0
 13 12  1  0
 14 13  1  6
 14 15  1  0
 16 14  1  0
 16 17  2  0
 18 16  1  0
 19 18  1  0
 19 20  1  6
 20 21  1  0
 21 25  1  0
 22 21  2  0
 23 19  1  0
 24 23  2  0
 26 23  1  0
M  END
$$$$
