NQD.pdb
     RDKit          3D

 26 25  0  0  1  0  0  0  0  0999 V2000
    7.9103  -15.2725   16.4521 N   0  0  0  0  0  0  0  0  0  0  0  0
    7.3567  -15.7018   17.7020 C   0  0  0  0  0  0  0  0  0  0  0  0
    6.2289  -16.2574   17.6601 O   0  0  0  0  0  0  0  0  0  0  0  0
    8.1381  -15.4642   18.9278 C   0  0  0  0  0  0  0  0  0  0  0  0
    7.7497  -14.2153   19.6227 C   0  0  2  0  0  0  0  0  0  0  0  0
    7.9473  -13.0494   18.8214 N   0  0  0  0  0  0  0  0  0  0  0  0
    8.4172  -14.0679   20.9572 C   0  0  0  0  0  0  0  0  0  0  0  0
    9.6007  -13.7170   20.9360 O   0  0  0  0  0  0  0  0  0  0  0  0
    5.3596  -12.4841   26.2258 N   0  0  0  0  0  0  0  0  0  0  0  0
    6.5816  -12.9627   26.7481 C   0  0  0  0  0  0  0  0  0  0  0  0
    6.8210  -12.8508   27.9591 O   0  0  0  0  0  0  0  0  0  0  0  0
    7.5948  -13.6090   25.8536 C   0  0  0  0  0  0  0  0  0  0  0  0
    7.1960  -13.5977   24.4107 C   0  0  0  0  0  0  0  0  0  0  0  0
    8.1767  -14.2363   23.4670 C   0  0  2  0  0  0  0  0  0  0  0  0
    7.6994  -14.3252   22.1223 N   0  0  0  0  0  0  0  0  0  0  0  0
    8.7899  -15.4441   24.0027 C   0  0  0  0  0  0  0  0  0  0  0  0
    8.1206  -16.5261   23.9915 O   0  0  0  0  0  0  0  0  0  0  0  0
   10.0943  -15.5237   24.5485 N   0  0  0  0  0  0  0  0  0  0  0  0
   10.5727  -16.7818   25.1469 C   0  0  1  0  0  0  0  0  0  0  0  0
   12.0585  -16.8547   25.1236 C   0  0  0  0  0  0  0  0  0  0  0  0
   12.5308  -17.0498   23.7392 C   0  0  0  0  0  0  0  0  0  0  0  0
   11.7688  -17.6282   22.8892 O   0  0  0  0  0  0  0  0  0  0  0  0
   10.0514  -16.7619   26.5481 C   0  0  0  0  0  0  0  0  0  0  0  0
    9.6068  -15.6745   27.0028 O   0  0  0  0  0  0  0  0  0  0  0  0
   13.7616  -16.6600   23.2431 O   0  0  0  0  0  0  0  0  0  0  0  0
   10.0263  -17.8602   27.3751 O   0  0  0  0  0  0  0  0  0  0  0  0
  1  2  1  0
  2  3  2  0
  4  2  1  0
  5  4  1  0
  5  6  1  6
  7 15  1  0
  7  5  1  0
  8  7  2  0
  9 10  1  0
 10 12  1  0
 11 10  2  0
 13 12  1  0
 14 13  1  1
 14 15  1  0
 16 14  1  0
 16 17  2  0
 18 16  1  0
 19 18  1  0
 19 20  1  1
 20 21  1  0
 21 25  1  0
 22 21  2  0
 23 19  1  0
 24 23  2  0
 26 23  1  0
M  END
$$$$
