NQD.pdb
     RDKit          3D

 26 25  0  0  1  0  0  0  0  0999 V2000
    7.0692  -18.9751   19.7215 N   0  0  0  0  0  0  0  0  0  0  0  0
    6.6212  -17.8724   20.5191 C   0  0  0  0  0  0  0  0  0  0  0  0
    5.4302  -17.5024   20.3549 O   0  0  0  0  0  0  0  0  0  0  0  0
    7.5752  -17.2610   21.4602 C   0  0  0  0  0  0  0  0  0  0  0  0
    7.6346  -15.7860   21.3395 C   0  0  2  0  0  0  0  0  0  0  0  0
    7.9651  -15.3496   20.0202 N   0  0  0  0  0  0  0  0  0  0  0  0
    8.5451  -15.1619   22.3543 C   0  0  0  0  0  0  0  0  0  0  0  0
    9.7046  -14.9514   21.9862 O   0  0  0  0  0  0  0  0  0  0  0  0
    6.4234  -11.9382   27.4033 N   0  0  0  0  0  0  0  0  0  0  0  0
    5.8608  -12.2895   26.1563 C   0  0  0  0  0  0  0  0  0  0  0  0
    4.7296  -11.8832   25.8533 O   0  0  0  0  0  0  0  0  0  0  0  0
    6.6182  -13.1482   25.1902 C   0  0  0  0  0  0  0  0  0  0  0  0
    7.9768  -13.5332   25.6873 C   0  0  0  0  0  0  0  0  0  0  0  0
    8.8062  -14.3440   24.7309 C   0  0  2  0  0  0  0  0  0  0  0  0
    8.0615  -14.8584   23.6243 N   0  0  0  0  0  0  0  0  0  0  0  0
    9.6905  -15.2921   25.3949 C   0  0  0  0  0  0  0  0  0  0  0  0
   10.4144  -14.8820   26.3575 O   0  0  0  0  0  0  0  0  0  0  0  0
    9.8205  -16.6612   25.0566 N   0  0  0  0  0  0  0  0  0  0  0  0
   10.8412  -17.4944   25.7151 C   0  0  1  0  0  0  0  0  0  0  0  0
   10.2752  -18.8064   26.1296 C   0  0  0  0  0  0  0  0  0  0  0  0
   10.0314  -18.8117   27.5851 C   0  0  0  0  0  0  0  0  0  0  0  0
   10.4138  -17.8156   28.2916 O   0  0  0  0  0  0  0  0  0  0  0  0
   11.9158  -17.6657   24.6898 C   0  0  0  0  0  0  0  0  0  0  0  0
   11.7077  -17.2221   23.5293 O   0  0  0  0  0  0  0  0  0  0  0  0
    9.4098  -19.8221   28.2963 O   0  0  0  0  0  0  0  0  0  0  0  0
   13.1219  -18.2791   24.9346 O   0  0  0  0  0  0  0  0  0  0  0  0
  1  2  1  0
  2  3  2  0
  4  2  1  0
  5  4  1  0
  5  6  1  6
  7 15  1  0
  7  5  1  0
  8  7  2  0
  9 10  1  0
 10 12  1  0
 11 10  2  0
 13 12  1  0
 14 13  1  1
 14 15  1  0
 16 14  1  0
 16 17  2  0
 18 16  1  0
 19 18  1  0
 19 20  1  6
 20 21  1  0
 21 25  1  0
 22 21  2  0
 23 19  1  0
 24 23  2  0
 26 23  1  0
M  END
$$$$
