NQD.pdb
     RDKit          3D

 26 25  0  0  1  0  0  0  0  0999 V2000
    9.3541  -14.9486   15.1985 N   0  0  0  0  0  0  0  0  0  0  0  0
    8.2620  -14.2025   15.7494 C   0  0  0  0  0  0  0  0  0  0  0  0
    7.5273  -13.5887   14.9332 O   0  0  0  0  0  0  0  0  0  0  0  0
    8.0819  -14.2086   17.2113 C   0  0  0  0  0  0  0  0  0  0  0  0
    9.0655  -15.0704   17.9068 C   0  0  2  0  0  0  0  0  0  0  0  0
    9.5748  -16.1144   17.0756 N   0  0  0  0  0  0  0  0  0  0  0  0
    8.5363  -15.6222   19.1966 C   0  0  0  0  0  0  0  0  0  0  0  0
    7.3797  -15.3042   19.4888 O   0  0  0  0  0  0  0  0  0  0  0  0
    5.4525  -19.5973   18.8919 N   0  0  0  0  0  0  0  0  0  0  0  0
    6.4026  -19.5818   19.9369 C   0  0  0  0  0  0  0  0  0  0  0  0
    6.2731  -20.3512   20.9001 O   0  0  0  0  0  0  0  0  0  0  0  0
    7.5713  -18.6454   19.8943 C   0  0  0  0  0  0  0  0  0  0  0  0
    7.7700  -17.8960   21.1749 C   0  0  0  0  0  0  0  0  0  0  0  0
    9.0046  -17.0403   21.2350 C   0  0  2  0  0  0  0  0  0  0  0  0
    9.3440  -16.4397   19.9828 N   0  0  0  0  0  0  0  0  0  0  0  0
   10.1048  -17.6651   21.9568 C   0  0  0  0  0  0  0  0  0  0  0  0
   10.5230  -18.8024   21.5687 O   0  0  0  0  0  0  0  0  0  0  0  0
   10.7656  -17.1077   23.0785 N   0  0  0  0  0  0  0  0  0  0  0  0
   12.2293  -17.2137   23.2057 C   0  0  1  0  0  0  0  0  0  0  0  0
   12.8765  -15.8812   23.0677 C   0  0  0  0  0  0  0  0  0  0  0  0
   14.2358  -16.0372   22.5147 C   0  0  0  0  0  0  0  0  0  0  0  0
   15.1990  -16.3609   23.2925 O   0  0  0  0  0  0  0  0  0  0  0  0
   12.4548  -17.7890   24.5672 C   0  0  0  0  0  0  0  0  0  0  0  0
   11.5242  -17.7028   25.4117 O   0  0  0  0  0  0  0  0  0  0  0  0
   14.5943  -15.8608   21.1906 O   0  0  0  0  0  0  0  0  0  0  0  0
   13.6186  -18.4090   24.9571 O   0  0  0  0  0  0  0  0  0  0  0  0
  1  2  1  0
  2  3  2  0
  4  2  1  0
  5  4  1  0
  5  6  1  6
  7 15  1  0
  7  5  1  0
  8  7  2  0
  9 10  1  0
 10 12  1  0
 11 10  2  0
 13 12  1  0
 14 13  1  6
 14 15  1  0
 16 14  1  0
 16 17  2  0
 18 16  1  0
 19 18  1  0
 19 20  1  1
 20 21  1  0
 21 25  1  0
 22 21  2  0
 23 19  1  0
 24 23  2  0
 26 23  1  0
M  END
$$$$
