NQD.pdb
     RDKit          3D

 26 25  0  0  1  0  0  0  0  0999 V2000
    7.9174  -15.3205   15.9065 N   0  0  0  0  0  0  0  0  0  0  0  0
    7.6274  -14.0267   16.4496 C   0  0  0  0  0  0  0  0  0  0  0  0
    7.2126  -13.1547   15.6433 O   0  0  0  0  0  0  0  0  0  0  0  0
    7.8334  -13.8153   17.8927 C   0  0  0  0  0  0  0  0  0  0  0  0
    8.3010  -15.0353   18.5901 C   0  0  2  0  0  0  0  0  0  0  0  0
    7.3118  -16.0648   18.6319 N   0  0  0  0  0  0  0  0  0  0  0  0
    8.8317  -14.7459   19.9623 C   0  0  0  0  0  0  0  0  0  0  0  0
    9.8665  -14.0746   20.0134 O   0  0  0  0  0  0  0  0  0  0  0  0
    6.8005  -16.6686   25.8023 N   0  0  0  0  0  0  0  0  0  0  0  0
    6.2519  -17.1437   24.5905 C   0  0  0  0  0  0  0  0  0  0  0  0
    5.4754  -18.1098   24.6016 O   0  0  0  0  0  0  0  0  0  0  0  0
    6.5958  -16.4901   23.2870 C   0  0  0  0  0  0  0  0  0  0  0  0
    7.5028  -15.3094   23.4437 C   0  0  0  0  0  0  0  0  0  0  0  0
    8.6143  -15.2134   22.4361 C   0  0  2  0  0  0  0  0  0  0  0  0
    8.1590  -15.2307   21.0810 N   0  0  0  0  0  0  0  0  0  0  0  0
    9.7421  -16.0849   22.7367 C   0  0  0  0  0  0  0  0  0  0  0  0
    9.8373  -17.1952   22.1227 O   0  0  0  0  0  0  0  0  0  0  0  0
   10.7655  -15.8011   23.6736 N   0  0  0  0  0  0  0  0  0  0  0  0
   11.8566  -16.7654   23.8953 C   0  0  1  0  0  0  0  0  0  0  0  0
   13.1837  -16.1357   23.6591 C   0  0  0  0  0  0  0  0  0  0  0  0
   14.2593  -17.0927   23.9834 C   0  0  0  0  0  0  0  0  0  0  0  0
   14.2655  -18.2455   23.4279 O   0  0  0  0  0  0  0  0  0  0  0  0
   11.7047  -17.1950   25.3194 C   0  0  0  0  0  0  0  0  0  0  0  0
   11.0097  -16.4775   26.0869 O   0  0  0  0  0  0  0  0  0  0  0  0
   15.3032  -16.8671   24.8623 O   0  0  0  0  0  0  0  0  0  0  0  0
   12.2777  -18.3285   25.8462 O   0  0  0  0  0  0  0  0  0  0  0  0
  1  2  1  0
  2  3  2  0
  4  2  1  0
  5  4  1  0
  5  6  1  1
  7 15  1  0
  7  5  1  0
  8  7  2  0
  9 10  1  0
 10 12  1  0
 11 10  2  0
 13 12  1  0
 14 13  1  1
 14 15  1  0
 16 14  1  0
 16 17  2  0
 18 16  1  0
 19 18  1  0
 19 20  1  1
 20 21  1  0
 21 25  1  0
 22 21  2  0
 23 19  1  0
 24 23  2  0
 26 23  1  0
M  END
$$$$
