NQD.pdb
     RDKit          3D

 26 25  0  0  1  0  0  0  0  0999 V2000
    7.2381  -12.8460   16.7828 N   0  0  0  0  0  0  0  0  0  0  0  0
    8.3098  -13.7253   17.1450 C   0  0  0  0  0  0  0  0  0  0  0  0
    8.6870  -14.5474   16.2707 O   0  0  0  0  0  0  0  0  0  0  0  0
    8.8835  -13.6039   18.4961 C   0  0  0  0  0  0  0  0  0  0  0  0
    8.7236  -14.8374   19.3002 C   0  0  2  0  0  0  0  0  0  0  0  0
    7.3636  -15.2625   19.4005 N   0  0  0  0  0  0  0  0  0  0  0  0
    9.3515  -14.7252   20.6571 C   0  0  0  0  0  0  0  0  0  0  0  0
   10.5851  -14.6836   20.6823 O   0  0  0  0  0  0  0  0  0  0  0  0
    6.0019  -13.1257   25.8767 N   0  0  0  0  0  0  0  0  0  0  0  0
    5.9206  -14.4892   25.5173 C   0  0  0  0  0  0  0  0  0  0  0  0
    5.0188  -15.1983   25.9867 O   0  0  0  0  0  0  0  0  0  0  0  0
    6.9127  -15.0909   24.5697 C   0  0  0  0  0  0  0  0  0  0  0  0
    7.9461  -14.1134   24.1030 C   0  0  0  0  0  0  0  0  0  0  0  0
    8.9734  -14.6663   23.1549 C   0  0  2  0  0  0  0  0  0  0  0  0
    8.5449  -14.6756   21.7911 N   0  0  0  0  0  0  0  0  0  0  0  0
    9.5966  -15.8937   23.6315 C   0  0  0  0  0  0  0  0  0  0  0  0
    9.1772  -17.0071   23.1806 O   0  0  0  0  0  0  0  0  0  0  0  0
   10.6512  -15.9605   24.5744 N   0  0  0  0  0  0  0  0  0  0  0  0
   11.3252  -17.2421   24.8440 C   0  0  1  0  0  0  0  0  0  0  0  0
   12.7862  -17.1445   24.5800 C   0  0  0  0  0  0  0  0  0  0  0  0
   13.4512  -18.4060   24.9598 C   0  0  0  0  0  0  0  0  0  0  0  0
   13.0881  -19.5011   24.4063 O   0  0  0  0  0  0  0  0  0  0  0  0
   11.0512  -17.5229   26.2868 C   0  0  0  0  0  0  0  0  0  0  0  0
   10.4719  -16.6346   26.9668 O   0  0  0  0  0  0  0  0  0  0  0  0
   14.4657  -18.5358   25.8910 O   0  0  0  0  0  0  0  0  0  0  0  0
   11.3928  -18.6942   26.9209 O   0  0  0  0  0  0  0  0  0  0  0  0
  1  2  1  0
  2  3  2  0
  4  2  1  0
  5  4  1  0
  5  6  1  1
  7 15  1  0
  7  5  1  0
  8  7  2  0
  9 10  1  0
 10 12  1  0
 11 10  2  0
 13 12  1  0
 14 13  1  1
 14 15  1  0
 16 14  1  0
 16 17  2  0
 18 16  1  0
 19 18  1  0
 19 20  1  1
 20 21  1  0
 21 25  1  0
 22 21  2  0
 23 19  1  0
 24 23  2  0
 26 23  1  0
M  END
$$$$
