NQD.pdb
     RDKit          3D

 26 25  0  0  1  0  0  0  0  0999 V2000
   12.7898  -16.6332   13.4830 N   0  0  0  0  0  0  0  0  0  0  0  0
   13.2755  -15.2944   13.6406 C   0  0  0  0  0  0  0  0  0  0  0  0
   13.7825  -14.7532   12.6245 O   0  0  0  0  0  0  0  0  0  0  0  0
   13.1473  -14.6586   14.9631 C   0  0  0  0  0  0  0  0  0  0  0  0
   12.6365  -15.5863   15.9985 C   0  0  2  0  0  0  0  0  0  0  0  0
   11.2977  -16.0159   15.7475 N   0  0  0  0  0  0  0  0  0  0  0  0
   12.7702  -15.0311   17.3849 C   0  0  0  0  0  0  0  0  0  0  0  0
   13.9166  -14.7545   17.7503 O   0  0  0  0  0  0  0  0  0  0  0  0
    7.5970  -13.2568   20.6571 N   0  0  0  0  0  0  0  0  0  0  0  0
    7.8975  -13.2993   19.2776 C   0  0  0  0  0  0  0  0  0  0  0  0
    7.0172  -13.0348   18.4459 O   0  0  0  0  0  0  0  0  0  0  0  0
    9.2730  -13.6585   18.8052 C   0  0  0  0  0  0  0  0  0  0  0  0
   10.2480  -13.8465   19.9256 C   0  0  0  0  0  0  0  0  0  0  0  0
   11.5877  -14.3999   19.5270 C   0  0  2  0  0  0  0  0  0  0  0  0
   11.6359  -14.8585   18.1737 N   0  0  0  0  0  0  0  0  0  0  0  0
   12.1597  -15.2980   20.5210 C   0  0  0  0  0  0  0  0  0  0  0  0
   11.9304  -16.5455   20.4215 O   0  0  0  0  0  0  0  0  0  0  0  0
   12.9661  -14.8977   21.6142 N   0  0  0  0  0  0  0  0  0  0  0  0
   13.4376  -15.8934   22.5920 C   0  0  1  0  0  0  0  0  0  0  0  0
   14.7490  -15.4954   23.1712 C   0  0  0  0  0  0  0  0  0  0  0  0
   15.7820  -15.4854   22.1174 C   0  0  0  0  0  0  0  0  0  0  0  0
   15.9796  -16.5393   21.4189 O   0  0  0  0  0  0  0  0  0  0  0  0
   12.3715  -15.9365   23.6393 C   0  0  0  0  0  0  0  0  0  0  0  0
   11.4010  -15.1403   23.5343 O   0  0  0  0  0  0  0  0  0  0  0  0
   16.5946  -14.4142   21.7929 O   0  0  0  0  0  0  0  0  0  0  0  0
   12.3833  -16.7940   24.7142 O   0  0  0  0  0  0  0  0  0  0  0  0
  1  2  1  0
  2  3  2  0
  4  2  1  0
  5  4  1  0
  5  6  1  6
  7 15  1  0
  7  5  1  0
  8  7  2  0
  9 10  1  0
 10 12  1  0
 11 10  2  0
 13 12  1  0
 14 13  1  1
 14 15  1  0
 16 14  1  0
 16 17  2  0
 18 16  1  0
 19 18  1  0
 19 20  1  1
 20 21  1  0
 21 25  1  0
 22 21  2  0
 23 19  1  0
 24 23  2  0
 26 23  1  0
M  END
$$$$
