NQD.pdb
     RDKit          3D

 26 25  0  0  1  0  0  0  0  0999 V2000
   10.0120  -15.5231   13.6149 N   0  0  0  0  0  0  0  0  0  0  0  0
    9.2681  -15.9061   14.7780 C   0  0  0  0  0  0  0  0  0  0  0  0
    8.3946  -16.7981   14.6225 O   0  0  0  0  0  0  0  0  0  0  0  0
    9.5762  -15.2366   16.0533 C   0  0  0  0  0  0  0  0  0  0  0  0
   10.0440  -16.1778   17.0969 C   0  0  2  0  0  0  0  0  0  0  0  0
    9.2103  -17.3311   17.2186 N   0  0  0  0  0  0  0  0  0  0  0  0
   10.2365  -15.5127   18.4268 C   0  0  0  0  0  0  0  0  0  0  0  0
   11.2888  -14.8836   18.5716 O   0  0  0  0  0  0  0  0  0  0  0  0
    7.9999  -12.2710   18.7606 N   0  0  0  0  0  0  0  0  0  0  0  0
    7.3951  -13.3399   19.4583 C   0  0  0  0  0  0  0  0  0  0  0  0
    6.7369  -14.1876   18.8382 O   0  0  0  0  0  0  0  0  0  0  0  0
    7.5424  -13.4642   20.9440 C   0  0  0  0  0  0  0  0  0  0  0  0
    8.0389  -14.8094   21.3742 C   0  0  0  0  0  0  0  0  0  0  0  0
    9.3525  -15.2316   20.7774 C   0  0  2  0  0  0  0  0  0  0  0  0
    9.2553  -15.6301   19.4078 N   0  0  0  0  0  0  0  0  0  0  0  0
   10.1207  -16.1173   21.6418 C   0  0  0  0  0  0  0  0  0  0  0  0
    9.9266  -17.3720   21.5588 O   0  0  0  0  0  0  0  0  0  0  0  0
   11.0859  -15.6973   22.5892 N   0  0  0  0  0  0  0  0  0  0  0  0
   11.9299  -16.6888   23.2779 C   0  0  1  0  0  0  0  0  0  0  0  0
   13.3611  -16.2833   23.2528 C   0  0  0  0  0  0  0  0  0  0  0  0
   14.1695  -17.2432   24.0292 C   0  0  0  0  0  0  0  0  0  0  0  0
   14.6680  -18.2659   23.4433 O   0  0  0  0  0  0  0  0  0  0  0  0
   11.4026  -16.7353   24.6763 C   0  0  0  0  0  0  0  0  0  0  0  0
   10.5458  -15.8777   25.0185 O   0  0  0  0  0  0  0  0  0  0  0  0
   14.4554  -17.1522   25.3794 O   0  0  0  0  0  0  0  0  0  0  0  0
   11.7953  -17.6591   25.6161 O   0  0  0  0  0  0  0  0  0  0  0  0
  1  2  1  0
  2  3  2  0
  4  2  1  0
  5  4  1  0
  5  6  1  1
  7 15  1  0
  7  5  1  0
  8  7  2  0
  9 10  1  0
 10 12  1  0
 11 10  2  0
 13 12  1  0
 14 13  1  1
 14 15  1  0
 16 14  1  0
 16 17  2  0
 18 16  1  0
 19 18  1  0
 19 20  1  1
 20 21  1  0
 21 25  1  0
 22 21  2  0
 23 19  1  0
 24 23  2  0
 26 23  1  0
M  END
$$$$
