HNP.pdb
     RDKit          3D

 26 27  0  0  1  0  0  0  0  0999 V2000
   15.2756  -12.7872  -15.9194 N   0  0  0  0  0  0  0  0  0  0  0  0
   15.8907  -11.6568  -16.5701 C   0  0  1  0  0  0  0  0  0  0  0  0
   15.1614  -10.4077  -16.1653 C   0  0  0  0  0  0  0  0  0  0  0  0
   13.7626  -10.3733  -16.6621 C   0  0  0  0  0  0  0  0  0  0  0  0
   13.2987   -9.8043  -17.8241 C   0  0  0  0  0  0  0  0  0  0  0  0
   11.9639  -10.0219  -17.8578 N   0  0  0  0  0  0  0  0  0  0  0  0
   11.5964  -10.7004  -16.7634 C   0  0  0  0  0  0  0  0  0  0  0  0
   12.7003  -10.9084  -16.0421 N   0  0  0  0  0  0  0  0  0  0  0  0
   17.3190  -11.5202  -16.2610 C   0  0  0  0  0  0  0  0  0  0  0  0
   17.7370  -11.7901  -15.1154 O   0  0  0  0  0  0  0  0  0  0  0  0
   22.5757   -9.6938  -18.3777 N   0  0  0  0  0  0  0  0  0  0  0  0
   21.8704  -10.8684  -18.0338 C   0  0  0  0  0  0  0  0  0  0  0  0
   22.3992  -11.8800  -17.4922 O   0  0  0  0  0  0  0  0  0  0  0  0
   20.4029  -10.9290  -18.3285 C   0  0  0  0  0  0  0  0  0  0  0  0
   19.6440  -10.8955  -17.0168 C   0  0  2  0  0  0  0  0  0  0  0  0
   18.2460  -11.0812  -17.2710 N   0  0  0  0  0  0  0  0  0  0  0  0
   19.9085   -9.7286  -16.1920 C   0  0  0  0  0  0  0  0  0  0  0  0
   18.9758   -8.8078  -16.3318 O   0  0  0  0  0  0  0  0  0  0  0  0
   20.9520   -9.4472  -15.3133 N   0  0  0  0  0  0  0  0  0  0  0  0
   22.0785  -10.3448  -15.0547 C   0  0  0  0  0  0  0  0  0  0  0  0
   22.0089  -10.3604  -13.5253 C   0  0  0  0  0  0  0  0  0  0  0  0
   21.9352   -8.8628  -13.2413 C   0  0  0  0  0  0  0  0  0  0  0  0
   21.1943   -8.3104  -14.4804 C   0  0  1  0  0  0  0  0  0  0  0  0
   22.1182   -7.4046  -15.2212 C   0  0  0  0  0  0  0  0  0  0  0  0
   22.2403   -6.2306  -14.7882 O   0  0  0  0  0  0  0  0  0  0  0  0
   22.8389   -7.7679  -16.3392 O   0  0  0  0  0  0  0  0  0  0  0  0
  2  3  1  0
  2  1  1  1
  4  3  1  0
  5  4  2  0
  6  5  1  0
  7  6  1  0
  7  8  2  0
  8  4  1  0
  9  2  1  0
  9 10  2  0
 11 12  1  0
 12 14  1  0
 13 12  2  0
 15 14  1  6
 15 16  1  0
 16  9  1  0
 17 15  1  0
 18 17  2  0
 19 17  1  0
 19 20  1  0
 20 21  1  0
 22 21  1  0
 23 19  1  0
 23 22  1  0
 23 24  1  6
 25 24  2  0
 26 24  1  0
M  END
$$$$
