HNP.pdb
     RDKit          3D

 26 27  0  0  1  0  0  0  0  0999 V2000
   11.9976  -21.1550   -0.6741 N   0  0  0  0  0  0  0  0  0  0  0  0
   12.6529  -20.2050    0.1906 C   0  0  1  0  0  0  0  0  0  0  0  0
   11.6630  -19.7090    1.2054 C   0  0  0  0  0  0  0  0  0  0  0  0
   10.8861  -18.5384    0.7249 C   0  0  0  0  0  0  0  0  0  0  0  0
   10.9285  -17.2502    1.2022 C   0  0  0  0  0  0  0  0  0  0  0  0
   10.0565  -16.5311    0.4587 N   0  0  0  0  0  0  0  0  0  0  0  0
    9.4850  -17.3294   -0.4519 C   0  0  0  0  0  0  0  0  0  0  0  0
    9.9976  -18.5500   -0.2799 N   0  0  0  0  0  0  0  0  0  0  0  0
   13.8275  -20.7608    0.8730 C   0  0  0  0  0  0  0  0  0  0  0  0
   13.9575  -21.9984    0.9810 O   0  0  0  0  0  0  0  0  0  0  0  0
   15.0519  -18.2331    3.2871 N   0  0  0  0  0  0  0  0  0  0  0  0
   16.3936  -18.0981    2.8662 C   0  0  0  0  0  0  0  0  0  0  0  0
   17.0926  -17.0614    3.0472 O   0  0  0  0  0  0  0  0  0  0  0  0
   17.0359  -19.2507    2.1567 C   0  0  0  0  0  0  0  0  0  0  0  0
   16.0264  -20.3763    2.0495 C   0  0  2  0  0  0  0  0  0  0  0  0
   14.8365  -19.8898    1.4163 N   0  0  0  0  0  0  0  0  0  0  0  0
   15.7491  -21.0643    3.2991 C   0  0  0  0  0  0  0  0  0  0  0  0
   14.4774  -20.9780    3.6346 O   0  0  0  0  0  0  0  0  0  0  0  0
   16.5861  -21.7715    4.1592 N   0  0  0  0  0  0  0  0  0  0  0  0
   18.0116  -22.0008    3.9206 C   0  0  0  0  0  0  0  0  0  0  0  0
   18.0339  -23.5181    4.1245 C   0  0  0  0  0  0  0  0  0  0  0  0
   17.2891  -23.6249    5.4522 C   0  0  0  0  0  0  0  0  0  0  0  0
   16.3156  -22.4252    5.4018 C   0  0  1  0  0  0  0  0  0  0  0  0
   16.6763  -21.4750    6.4926 C   0  0  0  0  0  0  0  0  0  0  0  0
   17.4223  -20.5096    6.1892 O   0  0  0  0  0  0  0  0  0  0  0  0
   16.2491  -21.5864    7.7989 O   0  0  0  0  0  0  0  0  0  0  0  0
  2  3  1  0
  2  1  1  1
  4  3  1  0
  5  4  2  0
  6  5  1  0
  7  6  1  0
  7  8  2  0
  8  4  1  0
  9  2  1  0
  9 10  2  0
 11 12  1  0
 12 14  1  0
 13 12  2  0
 15 14  1  1
 15 16  1  0
 16  9  1  0
 17 15  1  0
 18 17  2  0
 19 17  1  0
 19 20  1  0
 20 21  1  0
 22 21  1  0
 23 19  1  0
 23 22  1  0
 23 24  1  1
 25 24  2  0
 26 24  1  0
M  END
$$$$
