HNP.pdb
     RDKit          3D

 26 27  0  0  1  0  0  0  0  0999 V2000
   16.5867  -13.9763    5.4202 N   0  0  0  0  0  0  0  0  0  0  0  0
   17.3000  -15.2276    5.3484 C   0  0  1  0  0  0  0  0  0  0  0  0
   18.6157  -14.9975    4.6614 C   0  0  0  0  0  0  0  0  0  0  0  0
   19.3715  -13.8560    5.2362 C   0  0  0  0  0  0  0  0  0  0  0  0
   19.0752  -12.5177    5.1352 C   0  0  0  0  0  0  0  0  0  0  0  0
   20.0373  -11.8539    5.8163 N   0  0  0  0  0  0  0  0  0  0  0  0
   20.9073  -12.7339    6.3280 C   0  0  0  0  0  0  0  0  0  0  0  0
   20.4919  -13.9504    5.9677 N   0  0  0  0  0  0  0  0  0  0  0  0
   17.5264  -15.8388    6.6634 C   0  0  0  0  0  0  0  0  0  0  0  0
   17.5753  -15.1205    7.6841 O   0  0  0  0  0  0  0  0  0  0  0  0
   15.2726  -17.8575    8.5487 N   0  0  0  0  0  0  0  0  0  0  0  0
   15.7802  -19.1470    8.2750 C   0  0  0  0  0  0  0  0  0  0  0  0
   15.0749  -20.1947    8.2434 O   0  0  0  0  0  0  0  0  0  0  0  0
   17.2470  -19.2920    8.0068 C   0  0  0  0  0  0  0  0  0  0  0  0
   17.8847  -17.9174    8.0483 C   0  0  2  0  0  0  0  0  0  0  0  0
   17.6885  -17.2636    6.7883 N   0  0  0  0  0  0  0  0  0  0  0  0
   19.2755  -17.9058    8.4696 C   0  0  0  0  0  0  0  0  0  0  0  0
   20.0962  -17.7686    7.4474 O   0  0  0  0  0  0  0  0  0  0  0  0
   19.8489  -18.0122    9.7346 N   0  0  0  0  0  0  0  0  0  0  0  0
   19.0899  -18.0397   10.9854 C   0  0  0  0  0  0  0  0  0  0  0  0
   19.8494  -16.9417   11.7351 C   0  0  0  0  0  0  0  0  0  0  0  0
   21.2863  -17.4059   11.5143 C   0  0  0  0  0  0  0  0  0  0  0  0
   21.2177  -18.1054   10.1376 C   0  0  1  0  0  0  0  0  0  0  0  0
   21.5294  -19.5514   10.3237 C   0  0  0  0  0  0  0  0  0  0  0  0
   22.7426  -19.8710   10.4052 O   0  0  0  0  0  0  0  0  0  0  0  0
   20.5826  -20.5500   10.4106 O   0  0  0  0  0  0  0  0  0  0  0  0
  2  3  1  0
  2  1  1  1
  4  3  1  0
  5  4  2  0
  6  5  1  0
  7  6  1  0
  7  8  2  0
  8  4  1  0
  9  2  1  0
  9 10  2  0
 11 12  1  0
 12 14  1  0
 13 12  2  0
 15 14  1  6
 15 16  1  0
 16  9  1  0
 17 15  1  0
 18 17  2  0
 19 17  1  0
 19 20  1  0
 20 21  1  0
 22 21  1  0
 23 19  1  0
 23 22  1  0
 23 24  1  1
 25 24  2  0
 26 24  1  0
M  END
$$$$
