HNP.pdb
     RDKit          3D

 26 27  0  0  1  0  0  0  0  0999 V2000
   26.7732  -35.4832   -1.8597 N   0  0  0  0  0  0  0  0  0  0  0  0
   27.2618  -34.1391   -1.6743 C   0  0  1  0  0  0  0  0  0  0  0  0
   26.9953  -33.3491   -2.9237 C   0  0  0  0  0  0  0  0  0  0  0  0
   27.6573  -33.9272   -4.1204 C   0  0  0  0  0  0  0  0  0  0  0  0
   28.9939  -33.8918   -4.4390 C   0  0  0  0  0  0  0  0  0  0  0  0
   29.1310  -34.5475   -5.6144 N   0  0  0  0  0  0  0  0  0  0  0  0
   27.9320  -34.9807   -6.0242 C   0  0  0  0  0  0  0  0  0  0  0  0
   27.0418  -34.5964   -5.1065 N   0  0  0  0  0  0  0  0  0  0  0  0
   26.6603  -33.4607   -0.5200 C   0  0  0  0  0  0  0  0  0  0  0  0
   26.9531  -32.2716   -0.2743 O   0  0  0  0  0  0  0  0  0  0  0  0
   22.3826  -34.1256   -0.2482 N   0  0  0  0  0  0  0  0  0  0  0  0
   22.8954  -33.3993    0.8495 C   0  0  0  0  0  0  0  0  0  0  0  0
   22.6256  -32.1879    1.0864 O   0  0  0  0  0  0  0  0  0  0  0  0
   23.8207  -34.1002    1.7965 C   0  0  0  0  0  0  0  0  0  0  0  0
   25.2309  -33.5996    1.5547 C   0  0  2  0  0  0  0  0  0  0  0  0
   25.7296  -34.1544    0.3311 N   0  0  0  0  0  0  0  0  0  0  0  0
   26.1445  -33.7973    2.6674 C   0  0  0  0  0  0  0  0  0  0  0  0
   26.8835  -34.8771    2.5090 O   0  0  0  0  0  0  0  0  0  0  0  0
   26.3502  -33.0513    3.8256 N   0  0  0  0  0  0  0  0  0  0  0  0
   25.6175  -31.8300    4.1621 C   0  0  0  0  0  0  0  0  0  0  0  0
   26.8145  -30.9226    4.4590 C   0  0  0  0  0  0  0  0  0  0  0  0
   27.6057  -31.8182    5.4082 C   0  0  0  0  0  0  0  0  0  0  0  0
   27.2597  -33.2409    4.9126 C   0  0  1  0  0  0  0  0  0  0  0  0
   26.5196  -33.9532    5.9932 C   0  0  0  0  0  0  0  0  0  0  0  0
   25.2670  -33.9999    5.8962 O   0  0  0  0  0  0  0  0  0  0  0  0
   27.1146  -34.5569    7.0808 O   0  0  0  0  0  0  0  0  0  0  0  0
  2  3  1  0
  2  1  1  6
  4  3  1  0
  5  4  2  0
  6  5  1  0
  7  6  1  0
  7  8  2  0
  8  4  1  0
  9  2  1  0
  9 10  2  0
 11 12  1  0
 12 14  1  0
 13 12  2  0
 15 14  1  1
 15 16  1  0
 16  9  1  0
 17 15  1  0
 18 17  2  0
 19 17  1  0
 19 20  1  0
 20 21  1  0
 22 21  1  0
 23 19  1  0
 23 22  1  0
 23 24  1  1
 25 24  2  0
 26 24  1  0
M  END
$$$$
