HNP.pdb
     RDKit          3D

 26 27  0  0  1  0  0  0  0  0999 V2000
   15.4671  -19.3153    2.4100 N   0  0  0  0  0  0  0  0  0  0  0  0
   16.0109  -19.9839    3.5663 C   0  0  1  0  0  0  0  0  0  0  0  0
   16.7133  -21.2338    3.1186 C   0  0  0  0  0  0  0  0  0  0  0  0
   15.7961  -22.2090    2.4765 C   0  0  0  0  0  0  0  0  0  0  0  0
   15.2544  -23.3432    3.0328 C   0  0  0  0  0  0  0  0  0  0  0  0
   14.4813  -23.9126    2.0798 N   0  0  0  0  0  0  0  0  0  0  0  0
   14.5303  -23.1711    0.9659 C   0  0  0  0  0  0  0  0  0  0  0  0
   15.3347  -22.1362    1.2192 N   0  0  0  0  0  0  0  0  0  0  0  0
   16.9351  -19.1437    4.3370 C   0  0  0  0  0  0  0  0  0  0  0  0
   17.7357  -18.3913    3.7429 O   0  0  0  0  0  0  0  0  0  0  0  0
   17.8945  -16.4219    9.4647 N   0  0  0  0  0  0  0  0  0  0  0  0
   17.8479  -16.3983    8.0531 C   0  0  0  0  0  0  0  0  0  0  0  0
   18.5284  -15.6133    7.3342 O   0  0  0  0  0  0  0  0  0  0  0  0
   16.9345  -17.3592    7.3553 C   0  0  0  0  0  0  0  0  0  0  0  0
   17.7776  -18.3520    6.5798 C   0  0  2  0  0  0  0  0  0  0  0  0
   16.9238  -19.1757    5.7760 N   0  0  0  0  0  0  0  0  0  0  0  0
   18.6980  -19.1310    7.3909 C   0  0  0  0  0  0  0  0  0  0  0  0
   18.2279  -20.3357    7.6456 O   0  0  0  0  0  0  0  0  0  0  0  0
   19.9480  -18.8127    7.9169 N   0  0  0  0  0  0  0  0  0  0  0  0
   20.6430  -17.5460    7.6852 C   0  0  0  0  0  0  0  0  0  0  0  0
   21.9920  -18.1083    7.2287 C   0  0  0  0  0  0  0  0  0  0  0  0
   22.2560  -19.1185    8.3417 C   0  0  0  0  0  0  0  0  0  0  0  0
   20.8338  -19.5667    8.7485 C   0  0  1  0  0  0  0  0  0  0  0  0
   20.5881  -19.1457   10.1574 C   0  0  0  0  0  0  0  0  0  0  0  0
   19.8470  -18.1461   10.3367 O   0  0  0  0  0  0  0  0  0  0  0  0
   21.1164  -19.7754   11.2645 O   0  0  0  0  0  0  0  0  0  0  0  0
  2  3  1  0
  2  1  1  6
  4  3  1  0
  5  4  2  0
  6  5  1  0
  7  6  1  0
  7  8  2  0
  8  4  1  0
  9  2  1  0
  9 10  2  0
 11 12  1  0
 12 14  1  0
 13 12  2  0
 15 14  1  1
 15 16  1  0
 16  9  1  0
 17 15  1  0
 18 17  2  0
 19 17  1  0
 19 20  1  0
 20 21  1  0
 22 21  1  0
 23 19  1  0
 23 22  1  0
 23 24  1  1
 25 24  2  0
 26 24  1  0
M  END
$$$$
