HNP.pdb
     RDKit          3D

 26 27  0  0  1  0  0  0  0  0999 V2000
   19.9638  -11.0474  -17.0594 N   0  0  0  0  0  0  0  0  0  0  0  0
   20.7127   -9.9111  -17.5364 C   0  0  1  0  0  0  0  0  0  0  0  0
   20.3499   -9.6585  -18.9719 C   0  0  0  0  0  0  0  0  0  0  0  0
   20.6849  -10.8015  -19.8583 C   0  0  0  0  0  0  0  0  0  0  0  0
   21.8032  -10.9554  -20.6425 C   0  0  0  0  0  0  0  0  0  0  0  0
   21.6779  -12.1482  -21.2686 N   0  0  0  0  0  0  0  0  0  0  0  0
   20.5288  -12.7266  -20.8972 C   0  0  0  0  0  0  0  0  0  0  0  0
   19.9320  -11.8969  -20.0384 N   0  0  0  0  0  0  0  0  0  0  0  0
   20.4843   -8.6962  -16.7451 C   0  0  0  0  0  0  0  0  0  0  0  0
   19.3641   -8.4876  -16.2336 O   0  0  0  0  0  0  0  0  0  0  0  0
   21.4004   -5.2325  -12.7736 N   0  0  0  0  0  0  0  0  0  0  0  0
   22.2873   -5.2815  -13.8720 C   0  0  0  0  0  0  0  0  0  0  0  0
   22.9908   -4.3062  -14.2594 O   0  0  0  0  0  0  0  0  0  0  0  0
   22.4059   -6.5660  -14.6337 C   0  0  0  0  0  0  0  0  0  0  0  0
   21.3892   -6.5576  -15.7580 C   0  0  2  0  0  0  0  0  0  0  0  0
   21.5444   -7.7425  -16.5488 N   0  0  0  0  0  0  0  0  0  0  0  0
   21.3851   -5.3483  -16.5639 C   0  0  0  0  0  0  0  0  0  0  0  0
   22.2251   -5.4310  -17.5762 O   0  0  0  0  0  0  0  0  0  0  0  0
   20.6594   -4.1663  -16.4358 N   0  0  0  0  0  0  0  0  0  0  0  0
   19.6955   -3.9008  -15.3671 C   0  0  0  0  0  0  0  0  0  0  0  0
   18.5122   -3.4616  -16.2337 C   0  0  0  0  0  0  0  0  0  0  0  0
   19.1996   -2.4394  -17.1346 C   0  0  0  0  0  0  0  0  0  0  0  0
   20.6413   -2.9862  -17.2431 C   0  0  1  0  0  0  0  0  0  0  0  0
   21.5703   -2.0033  -16.6157 C   0  0  0  0  0  0  0  0  0  0  0  0
   22.0914   -1.1435  -17.3706 O   0  0  0  0  0  0  0  0  0  0  0  0
   21.8917   -1.9776  -15.2751 O   0  0  0  0  0  0  0  0  0  0  0  0
  2  3  1  0
  2  1  1  1
  4  3  1  0
  5  4  2  0
  6  5  1  0
  7  6  1  0
  7  8  2  0
  8  4  1  0
  9  2  1  0
  9 10  2  0
 11 12  1  0
 12 14  1  0
 13 12  2  0
 15 14  1  1
 15 16  1  0
 16  9  1  0
 17 15  1  0
 18 17  2  0
 19 17  1  0
 19 20  1  0
 20 21  1  0
 22 21  1  0
 23 19  1  0
 23 22  1  0
 23 24  1  1
 25 24  2  0
 26 24  1  0
M  END
$$$$
