HNP.pdb
     RDKit          3D

 26 27  0  0  1  0  0  0  0  0999 V2000
   25.5403  -21.0289  -13.2853 N   0  0  0  0  0  0  0  0  0  0  0  0
   26.6948  -20.5393  -12.5732 C   0  0  1  0  0  0  0  0  0  0  0  0
   27.3754  -19.4953  -13.4116 C   0  0  0  0  0  0  0  0  0  0  0  0
   27.8514  -20.0258  -14.7141 C   0  0  0  0  0  0  0  0  0  0  0  0
   28.7563  -21.0381  -14.9276 C   0  0  0  0  0  0  0  0  0  0  0  0
   28.8765  -21.1759  -16.2681 N   0  0  0  0  0  0  0  0  0  0  0  0
   28.0815  -20.2886  -16.8793 C   0  0  0  0  0  0  0  0  0  0  0  0
   27.4623  -19.5930  -15.9226 N   0  0  0  0  0  0  0  0  0  0  0  0
   26.3664  -19.9819  -11.2558 C   0  0  0  0  0  0  0  0  0  0  0  0
   25.5835  -19.0127  -11.1671 O   0  0  0  0  0  0  0  0  0  0  0  0
   25.0694  -20.0036   -6.4635 N   0  0  0  0  0  0  0  0  0  0  0  0
   24.3972  -20.8517   -7.3714 C   0  0  0  0  0  0  0  0  0  0  0  0
   23.2919  -21.4143   -7.1307 O   0  0  0  0  0  0  0  0  0  0  0  0
   25.0285  -21.1087   -8.7055 C   0  0  0  0  0  0  0  0  0  0  0  0
   26.3536  -20.3749   -8.7634 C   0  0  2  0  0  0  0  0  0  0  0  0
   26.9366  -20.5470  -10.0610 N   0  0  0  0  0  0  0  0  0  0  0  0
   27.2774  -20.7044   -7.6911 C   0  0  0  0  0  0  0  0  0  0  0  0
   27.7015  -21.9495   -7.7747 O   0  0  0  0  0  0  0  0  0  0  0  0
   27.7629  -19.9378   -6.6342 N   0  0  0  0  0  0  0  0  0  0  0  0
   27.3673  -18.5543   -6.3678 C   0  0  0  0  0  0  0  0  0  0  0  0
   28.7641  -17.9366   -6.2586 C   0  0  0  0  0  0  0  0  0  0  0  0
   29.4188  -18.9151   -5.2876 C   0  0  0  0  0  0  0  0  0  0  0  0
   28.7080  -20.2499   -5.6075 C   0  0  1  0  0  0  0  0  0  0  0  0
   27.9354  -20.6762   -4.4059 C   0  0  0  0  0  0  0  0  0  0  0  0
   28.5943  -21.0055   -3.3871 O   0  0  0  0  0  0  0  0  0  0  0  0
   26.5592  -20.7326   -4.3413 O   0  0  0  0  0  0  0  0  0  0  0  0
  2  3  1  0
  2  1  1  6
  4  3  1  0
  5  4  2  0
  6  5  1  0
  7  6  1  0
  7  8  2  0
  8  4  1  0
  9  2  1  0
  9 10  2  0
 11 12  1  0
 12 14  1  0
 13 12  2  0
 15 14  1  6
 15 16  1  0
 16  9  1  0
 17 15  1  0
 18 17  2  0
 19 17  1  0
 19 20  1  0
 20 21  1  0
 22 21  1  0
 23 19  1  0
 23 22  1  0
 23 24  1  1
 25 24  2  0
 26 24  1  0
M  END
$$$$
