HNP.pdb
     RDKit          3D

 26 27  0  0  1  0  0  0  0  0999 V2000
   28.6759  -18.9448  -19.3707 N   0  0  0  0  0  0  0  0  0  0  0  0
   27.4897  -19.5544  -18.8222 C   0  0  1  0  0  0  0  0  0  0  0  0
   27.4351  -20.9902  -19.2597 C   0  0  0  0  0  0  0  0  0  0  0  0
   27.1175  -21.1390  -20.7024 C   0  0  0  0  0  0  0  0  0  0  0  0
   25.9230  -21.5235  -21.2633 C   0  0  0  0  0  0  0  0  0  0  0  0
   26.1019  -21.5133  -22.6042 N   0  0  0  0  0  0  0  0  0  0  0  0
   27.3568  -21.1383  -22.8825 C   0  0  0  0  0  0  0  0  0  0  0  0
   27.9664  -20.9134  -21.7162 N   0  0  0  0  0  0  0  0  0  0  0  0
   27.4266  -19.4786  -17.3578 C   0  0  0  0  0  0  0  0  0  0  0  0
   28.4364  -19.7528  -16.6758 O   0  0  0  0  0  0  0  0  0  0  0  0
   27.6132  -16.7504  -15.4393 N   0  0  0  0  0  0  0  0  0  0  0  0
   26.2652  -16.5002  -15.0991 C   0  0  0  0  0  0  0  0  0  0  0  0
   25.7857  -15.3480  -14.9020 O   0  0  0  0  0  0  0  0  0  0  0  0
   25.3384  -17.6688  -14.9580 C   0  0  0  0  0  0  0  0  0  0  0  0
   26.1059  -18.9364  -15.2772 C   0  0  2  0  0  0  0  0  0  0  0  0
   26.2088  -19.0852  -16.6988 N   0  0  0  0  0  0  0  0  0  0  0  0
   25.5976  -20.1335  -14.6287 C   0  0  0  0  0  0  0  0  0  0  0  0
   25.1846  -21.0277  -15.5045 O   0  0  0  0  0  0  0  0  0  0  0  0
   25.4860  -20.4661  -13.2807 N   0  0  0  0  0  0  0  0  0  0  0  0
   26.0020  -19.6475  -12.1828 C   0  0  0  0  0  0  0  0  0  0  0  0
   26.7927  -20.7313  -11.4448 C   0  0  0  0  0  0  0  0  0  0  0  0
   25.7366  -21.8299  -11.3627 C   0  0  0  0  0  0  0  0  0  0  0  0
   24.8991  -21.6029  -12.6420 C   0  0  1  0  0  0  0  0  0  0  0  0
   23.5142  -21.2230  -12.2416 C   0  0  0  0  0  0  0  0  0  0  0  0
   22.7403  -22.1529  -11.8995 O   0  0  0  0  0  0  0  0  0  0  0  0
   23.0327  -19.9311  -12.2232 O   0  0  0  0  0  0  0  0  0  0  0  0
  2  3  1  0
  2  1  1  1
  4  3  1  0
  5  4  2  0
  6  5  1  0
  7  6  1  0
  7  8  2  0
  8  4  1  0
  9  2  1  0
  9 10  2  0
 11 12  1  0
 12 14  1  0
 13 12  2  0
 15 14  1  6
 15 16  1  0
 16  9  1  0
 17 15  1  0
 18 17  2  0
 19 17  1  0
 19 20  1  0
 20 21  1  0
 22 21  1  0
 23 19  1  0
 23 22  1  0
 23 24  1  1
 25 24  2  0
 26 24  1  0
M  END
$$$$
