HNP.pdb
     RDKit          3D

 26 27  0  0  1  0  0  0  0  0999 V2000
   18.4309  -16.2987  -16.1992 N   0  0  0  0  0  0  0  0  0  0  0  0
   17.9835  -15.6215  -15.0071 C   0  0  1  0  0  0  0  0  0  0  0  0
   18.9521  -15.9058  -13.8949 C   0  0  0  0  0  0  0  0  0  0  0  0
   19.0574  -17.3533  -13.5814 C   0  0  0  0  0  0  0  0  0  0  0  0
   20.1281  -18.1850  -13.8077 C   0  0  0  0  0  0  0  0  0  0  0  0
   19.7705  -19.4100  -13.3587 N   0  0  0  0  0  0  0  0  0  0  0  0
   18.5257  -19.3578  -12.8681 C   0  0  0  0  0  0  0  0  0  0  0  0
   18.1011  -18.1000  -13.0097 N   0  0  0  0  0  0  0  0  0  0  0  0
   17.8437  -14.1714  -15.1855 C   0  0  0  0  0  0  0  0  0  0  0  0
   18.0859  -13.6542  -16.2963 O   0  0  0  0  0  0  0  0  0  0  0  0
   16.0883   -9.5714  -14.9349 N   0  0  0  0  0  0  0  0  0  0  0  0
   15.4828  -10.6082  -15.6793 C   0  0  0  0  0  0  0  0  0  0  0  0
   14.6275  -10.4208  -16.5901 O   0  0  0  0  0  0  0  0  0  0  0  0
   15.8707  -12.0227  -15.3747 C   0  0  0  0  0  0  0  0  0  0  0  0
   16.9102  -12.0127  -14.2714 C   0  0  2  0  0  0  0  0  0  0  0  0
   17.4239  -13.3380  -14.0895 N   0  0  0  0  0  0  0  0  0  0  0  0
   16.4663  -11.4128  -13.0245 C   0  0  0  0  0  0  0  0  0  0  0  0
   15.5056  -12.1147  -12.4575 O   0  0  0  0  0  0  0  0  0  0  0  0
   16.8840  -10.2591  -12.3649 N   0  0  0  0  0  0  0  0  0  0  0  0
   17.7235   -9.2223  -12.9663 C   0  0  0  0  0  0  0  0  0  0  0  0
   18.7931   -9.1356  -11.8742 C   0  0  0  0  0  0  0  0  0  0  0  0
   17.9087   -9.0079  -10.6370 C   0  0  0  0  0  0  0  0  0  0  0  0
   16.6436   -9.8040  -11.0308 C   0  0  1  0  0  0  0  0  0  0  0  0
   15.4879   -8.8636  -11.0826 C   0  0  0  0  0  0  0  0  0  0  0  0
   15.1865   -8.3862  -12.2059 O   0  0  0  0  0  0  0  0  0  0  0  0
   14.7369   -8.4875   -9.9891 O   0  0  0  0  0  0  0  0  0  0  0  0
  2  3  1  0
  2  1  1  6
  4  3  1  0
  5  4  2  0
  6  5  1  0
  7  6  1  0
  7  8  2  0
  8  4  1  0
  9  2  1  0
  9 10  2  0
 11 12  1  0
 12 14  1  0
 13 12  2  0
 15 14  1  6
 15 16  1  0
 16  9  1  0
 17 15  1  0
 18 17  2  0
 19 17  1  0
 19 20  1  0
 20 21  1  0
 22 21  1  0
 23 19  1  0
 23 22  1  0
 23 24  1  6
 25 24  2  0
 26 24  1  0
M  END
$$$$
