HNP.pdb
     RDKit          3D

 26 27  0  0  1  0  0  0  0  0999 V2000
   27.8661  -21.4650  -15.9370 N   0  0  0  0  0  0  0  0  0  0  0  0
   26.9910  -20.4545  -15.3959 C   0  0  1  0  0  0  0  0  0  0  0  0
   26.5738  -19.5299  -16.5036 C   0  0  0  0  0  0  0  0  0  0  0  0
   27.6960  -18.7026  -17.0141 C   0  0  0  0  0  0  0  0  0  0  0  0
   27.9680  -17.3869  -16.7242 C   0  0  0  0  0  0  0  0  0  0  0  0
   29.0859  -17.0600  -17.4124 N   0  0  0  0  0  0  0  0  0  0  0  0
   29.5056  -18.1235  -18.1094 C   0  0  0  0  0  0  0  0  0  0  0  0
   28.6509  -19.1181  -17.8595 N   0  0  0  0  0  0  0  0  0  0  0  0
   25.8022  -21.0120  -14.7400 C   0  0  0  0  0  0  0  0  0  0  0  0
   25.2322  -22.0105  -15.2279 O   0  0  0  0  0  0  0  0  0  0  0  0
   25.6588  -22.1374  -11.1673 N   0  0  0  0  0  0  0  0  0  0  0  0
   24.9435  -21.0537  -10.6112 C   0  0  0  0  0  0  0  0  0  0  0  0
   25.0373  -20.6861   -9.4060 O   0  0  0  0  0  0  0  0  0  0  0  0
   24.0102  -20.2875  -11.4978 C   0  0  0  0  0  0  0  0  0  0  0  0
   24.0857  -20.8674  -12.8962 C   0  0  2  0  0  0  0  0  0  0  0  0
   25.2886  -20.4193  -13.5330 N   0  0  0  0  0  0  0  0  0  0  0  0
   22.9059  -20.6380  -13.7132 C   0  0  0  0  0  0  0  0  0  0  0  0
   23.0381  -19.5717  -14.4765 O   0  0  0  0  0  0  0  0  0  0  0  0
   21.7085  -21.3432  -13.8091 N   0  0  0  0  0  0  0  0  0  0  0  0
   21.4065  -22.5632  -13.0595 C   0  0  0  0  0  0  0  0  0  0  0  0
   20.9606  -23.4435  -14.2302 C   0  0  0  0  0  0  0  0  0  0  0  0
   19.9674  -22.5066  -14.9120 C   0  0  0  0  0  0  0  0  0  0  0  0
   20.5427  -21.1057  -14.6023 C   0  0  1  0  0  0  0  0  0  0  0  0
   19.5664  -20.3694  -13.7495 C   0  0  0  0  0  0  0  0  0  0  0  0
   18.5262  -19.9387  -14.3090 O   0  0  0  0  0  0  0  0  0  0  0  0
   19.7297  -20.1326  -12.4010 O   0  0  0  0  0  0  0  0  0  0  0  0
  2  3  1  0
  2  1  1  6
  4  3  1  0
  5  4  2  0
  6  5  1  0
  7  6  1  0
  7  8  2  0
  8  4  1  0
  9  2  1  0
  9 10  2  0
 11 12  1  0
 12 14  1  0
 13 12  2  0
 15 14  1  1
 15 16  1  0
 16  9  1  0
 17 15  1  0
 18 17  2  0
 19 17  1  0
 19 20  1  0
 20 21  1  0
 22 21  1  0
 23 19  1  0
 23 22  1  0
 23 24  1  1
 25 24  2  0
 26 24  1  0
M  END
$$$$
