HNP.pdb
     RDKit          3D

 26 27  0  0  1  0  0  0  0  0999 V2000
   26.4089  -19.1914  -18.2032 N   0  0  0  0  0  0  0  0  0  0  0  0
   25.0351  -19.0156  -18.6049 C   0  0  1  0  0  0  0  0  0  0  0  0
   24.6004  -20.2210  -19.3884 C   0  0  0  0  0  0  0  0  0  0  0  0
   25.4135  -20.4340  -20.6123 C   0  0  0  0  0  0  0  0  0  0  0  0
   25.3140  -19.7702  -21.8117 C   0  0  0  0  0  0  0  0  0  0  0  0
   26.2565  -20.2968  -22.6270 N   0  0  0  0  0  0  0  0  0  0  0  0
   26.9258  -21.2543  -21.9725 C   0  0  0  0  0  0  0  0  0  0  0  0
   26.4032  -21.3294  -20.7463 N   0  0  0  0  0  0  0  0  0  0  0  0
   24.1255  -18.8046  -17.4725 C   0  0  0  0  0  0  0  0  0  0  0  0
   24.4331  -19.2294  -16.3389 O   0  0  0  0  0  0  0  0  0  0  0  0
   20.6994  -15.3341  -14.6705 N   0  0  0  0  0  0  0  0  0  0  0  0
   20.3468  -16.1956  -15.7330 C   0  0  0  0  0  0  0  0  0  0  0  0
   19.2290  -16.7757  -15.8344 O   0  0  0  0  0  0  0  0  0  0  0  0
   21.3565  -16.4457  -16.8111 C   0  0  0  0  0  0  0  0  0  0  0  0
   21.9914  -17.8017  -16.5745 C   0  0  2  0  0  0  0  0  0  0  0  0
   22.8803  -18.1062  -17.6564 N   0  0  0  0  0  0  0  0  0  0  0  0
   21.0486  -18.8757  -16.3109 C   0  0  0  0  0  0  0  0  0  0  0  0
   20.5738  -19.3957  -17.4251 O   0  0  0  0  0  0  0  0  0  0  0  0
   20.5906  -19.4170  -15.1119 N   0  0  0  0  0  0  0  0  0  0  0  0
   20.9202  -18.8878  -13.7879 C   0  0  0  0  0  0  0  0  0  0  0  0
   21.3966  -20.1890  -13.1365 C   0  0  0  0  0  0  0  0  0  0  0  0
   20.2397  -21.1150  -13.5011 C   0  0  0  0  0  0  0  0  0  0  0  0
   19.7532  -20.5469  -14.8538 C   0  0  1  0  0  0  0  0  0  0  0  0
   18.3616  -20.0399  -14.6828 C   0  0  0  0  0  0  0  0  0  0  0  0
   18.2126  -18.7958  -14.5804 O   0  0  0  0  0  0  0  0  0  0  0  0
   17.2396  -20.8397  -14.6297 O   0  0  0  0  0  0  0  0  0  0  0  0
  2  3  1  0
  2  1  1  1
  4  3  1  0
  5  4  2  0
  6  5  1  0
  7  6  1  0
  7  8  2  0
  8  4  1  0
  9  2  1  0
  9 10  2  0
 11 12  1  0
 12 14  1  0
 13 12  2  0
 15 14  1  6
 15 16  1  0
 16  9  1  0
 17 15  1  0
 18 17  2  0
 19 17  1  0
 19 20  1  0
 20 21  1  0
 22 21  1  0
 23 19  1  0
 23 22  1  0
 23 24  1  1
 25 24  2  0
 26 24  1  0
M  END
$$$$
