HNP.pdb
     RDKit          3D

 26 27  0  0  1  0  0  0  0  0999 V2000
   17.7912  -14.5576  -16.7111 N   0  0  0  0  0  0  0  0  0  0  0  0
   18.2056  -13.2996  -17.2815 C   0  0  1  0  0  0  0  0  0  0  0  0
   16.9886  -12.4557  -17.5316 C   0  0  0  0  0  0  0  0  0  0  0  0
   16.0922  -13.0329  -18.5649 C   0  0  0  0  0  0  0  0  0  0  0  0
   16.0222  -12.6988  -19.8964 C   0  0  0  0  0  0  0  0  0  0  0  0
   15.0682  -13.4855  -20.4450 N   0  0  0  0  0  0  0  0  0  0  0  0
   14.5545  -14.2850  -19.5016 C   0  0  0  0  0  0  0  0  0  0  0  0
   15.1856  -14.0000  -18.3603 N   0  0  0  0  0  0  0  0  0  0  0  0
   19.1531  -12.5662  -16.4339 C   0  0  0  0  0  0  0  0  0  0  0  0
   18.9537  -12.4837  -15.2037 O   0  0  0  0  0  0  0  0  0  0  0  0
   24.3886  -11.2000  -15.1550 N   0  0  0  0  0  0  0  0  0  0  0  0
   23.5986  -10.4798  -16.0785 C   0  0  0  0  0  0  0  0  0  0  0  0
   23.6642   -9.2290  -16.2438 O   0  0  0  0  0  0  0  0  0  0  0  0
   22.6160  -11.2381  -16.9174 C   0  0  0  0  0  0  0  0  0  0  0  0
   21.2635  -11.1975  -16.2341 C   0  0  2  0  0  0  0  0  0  0  0  0
   20.3164  -11.9431  -17.0090 N   0  0  0  0  0  0  0  0  0  0  0  0
   20.7876   -9.8636  -15.9086 C   0  0  0  0  0  0  0  0  0  0  0  0
   20.1164   -9.3253  -16.9071 O   0  0  0  0  0  0  0  0  0  0  0  0
   20.9258   -9.1002  -14.7516 N   0  0  0  0  0  0  0  0  0  0  0  0
   21.6411   -9.5397  -13.5530 C   0  0  0  0  0  0  0  0  0  0  0  0
   20.5498   -9.2494  -12.5191 C   0  0  0  0  0  0  0  0  0  0  0  0
   20.1828   -7.8193  -12.9054 C   0  0  0  0  0  0  0  0  0  0  0  0
   20.4437   -7.7933  -14.4287 C   0  0  1  0  0  0  0  0  0  0  0  0
   21.5481   -6.8306  -14.7049 C   0  0  0  0  0  0  0  0  0  0  0  0
   21.2986   -5.6091  -14.5427 O   0  0  0  0  0  0  0  0  0  0  0  0
   22.8119   -7.1903  -15.1230 O   0  0  0  0  0  0  0  0  0  0  0  0
  2  3  1  0
  2  1  1  1
  4  3  1  0
  5  4  2  0
  6  5  1  0
  7  6  1  0
  7  8  2  0
  8  4  1  0
  9  2  1  0
  9 10  2  0
 11 12  1  0
 12 14  1  0
 13 12  2  0
 15 14  1  6
 15 16  1  0
 16  9  1  0
 17 15  1  0
 18 17  2  0
 19 17  1  0
 19 20  1  0
 20 21  1  0
 22 21  1  0
 23 19  1  0
 23 22  1  0
 23 24  1  1
 25 24  2  0
 26 24  1  0
M  END
$$$$
