HNP.pdb
     RDKit          3D

 26 27  0  0  1  0  0  0  0  0999 V2000
   21.5123  -17.3337  -18.8792 N   0  0  0  0  0  0  0  0  0  0  0  0
   22.0824  -17.4464  -17.5594 C   0  0  1  0  0  0  0  0  0  0  0  0
   20.9708  -17.4523  -16.5493 C   0  0  0  0  0  0  0  0  0  0  0  0
   20.2616  -16.1504  -16.4686 C   0  0  0  0  0  0  0  0  0  0  0  0
   19.1346  -15.7649  -17.1545 C   0  0  0  0  0  0  0  0  0  0  0  0
   18.8511  -14.5027  -16.7585 N   0  0  0  0  0  0  0  0  0  0  0  0
   19.7598  -14.1042  -15.8594 C   0  0  0  0  0  0  0  0  0  0  0  0
   20.6145  -15.1159  -15.6911 N   0  0  0  0  0  0  0  0  0  0  0  0
   22.9135  -18.6443  -17.3904 C   0  0  0  0  0  0  0  0  0  0  0  0
   22.6203  -19.6964  -17.9965 O   0  0  0  0  0  0  0  0  0  0  0  0
   26.6887  -21.7259  -16.0808 N   0  0  0  0  0  0  0  0  0  0  0  0
   27.2282  -20.4415  -15.8470 C   0  0  0  0  0  0  0  0  0  0  0  0
   28.4310  -20.2253  -15.5265 O   0  0  0  0  0  0  0  0  0  0  0  0
   26.3241  -19.2547  -15.9825 C   0  0  0  0  0  0  0  0  0  0  0  0
   24.9399  -19.7417  -16.3626 C   0  0  2  0  0  0  0  0  0  0  0  0
   24.0697  -18.6160  -16.5334 N   0  0  0  0  0  0  0  0  0  0  0  0
   24.3827  -20.7442  -15.4702 C   0  0  0  0  0  0  0  0  0  0  0  0
   23.8999  -20.2057  -14.3684 O   0  0  0  0  0  0  0  0  0  0  0  0
   24.2846  -22.1280  -15.5967 N   0  0  0  0  0  0  0  0  0  0  0  0
   24.8194  -22.8942  -16.7229 C   0  0  0  0  0  0  0  0  0  0  0  0
   23.5586  -23.6882  -17.0754 C   0  0  0  0  0  0  0  0  0  0  0  0
   23.1753  -24.2163  -15.6958 C   0  0  0  0  0  0  0  0  0  0  0  0
   23.6795  -23.1055  -14.7464 C   0  0  1  0  0  0  0  0  0  0  0  0
   24.7550  -23.6712  -13.8827 C   0  0  0  0  0  0  0  0  0  0  0  0
   25.9429  -23.4071  -14.1985 O   0  0  0  0  0  0  0  0  0  0  0  0
   24.5327  -24.4576  -12.7721 O   0  0  0  0  0  0  0  0  0  0  0  0
  2  3  1  0
  2  1  1  6
  4  3  1  0
  5  4  2  0
  6  5  1  0
  7  6  1  0
  7  8  2  0
  8  4  1  0
  9  2  1  0
  9 10  2  0
 11 12  1  0
 12 14  1  0
 13 12  2  0
 15 14  1  1
 15 16  1  0
 16  9  1  0
 17 15  1  0
 18 17  2  0
 19 17  1  0
 19 20  1  0
 20 21  1  0
 22 21  1  0
 23 19  1  0
 23 22  1  0
 23 24  1  1
 25 24  2  0
 26 24  1  0
M  END
$$$$
