HNP.pdb
     RDKit          3D

 26 27  0  0  1  0  0  0  0  0999 V2000
   25.2994  -18.5433  -16.9212 N   0  0  0  0  0  0  0  0  0  0  0  0
   26.1154  -18.8156  -15.7638 C   0  0  1  0  0  0  0  0  0  0  0  0
   27.1837  -17.7645  -15.6649 C   0  0  0  0  0  0  0  0  0  0  0  0
   28.1032  -17.7691  -16.8307 C   0  0  0  0  0  0  0  0  0  0  0  0
   29.1644  -18.6123  -17.0590 C   0  0  0  0  0  0  0  0  0  0  0  0
   29.7044  -18.2457  -18.2439 N   0  0  0  0  0  0  0  0  0  0  0  0
   29.0150  -17.2136  -18.7464 C   0  0  0  0  0  0  0  0  0  0  0  0
   28.0423  -16.9315  -17.8766 N   0  0  0  0  0  0  0  0  0  0  0  0
   25.3469  -18.8619  -14.5142 C   0  0  0  0  0  0  0  0  0  0  0  0
   24.5543  -17.9376  -14.2358 O   0  0  0  0  0  0  0  0  0  0  0  0
   21.6941  -20.0222  -11.1083 N   0  0  0  0  0  0  0  0  0  0  0  0
   22.6290  -21.0098  -11.4905 C   0  0  0  0  0  0  0  0  0  0  0  0
   22.8586  -22.0622  -10.8302 O   0  0  0  0  0  0  0  0  0  0  0  0
   23.4041  -20.8038  -12.7558 C   0  0  0  0  0  0  0  0  0  0  0  0
   24.7090  -20.1110  -12.4167 C   0  0  2  0  0  0  0  0  0  0  0  0
   25.4955  -19.9688  -13.6061 N   0  0  0  0  0  0  0  0  0  0  0  0
   25.4542  -20.7194  -11.3274 C   0  0  0  0  0  0  0  0  0  0  0  0
   26.1274  -21.7801  -11.7263 O   0  0  0  0  0  0  0  0  0  0  0  0
   25.5616  -20.3673   -9.9840 N   0  0  0  0  0  0  0  0  0  0  0  0
   24.9058  -19.2071   -9.3795 C   0  0  0  0  0  0  0  0  0  0  0  0
   26.1278  -18.5868   -8.6967 C   0  0  0  0  0  0  0  0  0  0  0  0
   26.6886  -19.8110   -7.9785 C   0  0  0  0  0  0  0  0  0  0  0  0
   26.2853  -20.9758   -8.9112 C   0  0  1  0  0  0  0  0  0  0  0  0
   25.3357  -21.8625   -8.1801 C   0  0  0  0  0  0  0  0  0  0  0  0
   25.8079  -22.5696   -7.2541 O   0  0  0  0  0  0  0  0  0  0  0  0
   23.9871  -21.9563   -8.4521 O   0  0  0  0  0  0  0  0  0  0  0  0
  2  3  1  0
  2  1  1  6
  4  3  1  0
  5  4  2  0
  6  5  1  0
  7  6  1  0
  7  8  2  0
  8  4  1  0
  9  2  1  0
  9 10  2  0
 11 12  1  0
 12 14  1  0
 13 12  2  0
 15 14  1  6
 15 16  1  0
 16  9  1  0
 17 15  1  0
 18 17  2  0
 19 17  1  0
 19 20  1  0
 20 21  1  0
 22 21  1  0
 23 19  1  0
 23 22  1  0
 23 24  1  1
 25 24  2  0
 26 24  1  0
M  END
$$$$
