HNP.pdb
     RDKit          3D

 26 27  0  0  1  0  0  0  0  0999 V2000
   20.2185  -20.6587  -13.6683 N   0  0  0  0  0  0  0  0  0  0  0  0
   21.0294  -20.3890  -14.8299 C   0  0  1  0  0  0  0  0  0  0  0  0
   20.7356  -18.9980  -15.3147 C   0  0  0  0  0  0  0  0  0  0  0  0
   19.3812  -18.8717  -15.9098 C   0  0  0  0  0  0  0  0  0  0  0  0
   18.4262  -19.8519  -16.0376 C   0  0  0  0  0  0  0  0  0  0  0  0
   17.3562  -19.2771  -16.6334 N   0  0  0  0  0  0  0  0  0  0  0  0
   17.6211  -17.9866  -16.8734 C   0  0  0  0  0  0  0  0  0  0  0  0
   18.8577  -17.7512  -16.4290 N   0  0  0  0  0  0  0  0  0  0  0  0
   22.4677  -20.5328  -14.5754 C   0  0  0  0  0  0  0  0  0  0  0  0
   22.9599  -20.0917  -13.5155 O   0  0  0  0  0  0  0  0  0  0  0  0
   24.4781  -24.2189  -13.9368 N   0  0  0  0  0  0  0  0  0  0  0  0
   24.2248  -23.6366  -15.1986 C   0  0  0  0  0  0  0  0  0  0  0  0
   23.2121  -23.8951  -15.9084 O   0  0  0  0  0  0  0  0  0  0  0  0
   25.2154  -22.6512  -15.7391 C   0  0  0  0  0  0  0  0  0  0  0  0
   24.7425  -21.2523  -15.3968 C   0  0  2  0  0  0  0  0  0  0  0  0
   23.3180  -21.1839  -15.5372 N   0  0  0  0  0  0  0  0  0  0  0  0
   25.4233  -20.1884  -16.1154 C   0  0  0  0  0  0  0  0  0  0  0  0
   24.6167  -19.5688  -16.9536 O   0  0  0  0  0  0  0  0  0  0  0  0
   26.7415  -19.7422  -16.0554 N   0  0  0  0  0  0  0  0  0  0  0  0
   27.7846  -20.3567  -15.2334 C   0  0  0  0  0  0  0  0  0  0  0  0
   28.2867  -19.0955  -14.5250 C   0  0  0  0  0  0  0  0  0  0  0  0
   28.4781  -18.1691  -15.7225 C   0  0  0  0  0  0  0  0  0  0  0  0
   27.3913  -18.6500  -16.7109 C   0  0  1  0  0  0  0  0  0  0  0  0
   28.0620  -19.1951  -17.9257 C   0  0  0  0  0  0  0  0  0  0  0  0
   28.1051  -20.4459  -18.0448 O   0  0  0  0  0  0  0  0  0  0  0  0
   28.6324  -18.4235  -18.9159 O   0  0  0  0  0  0  0  0  0  0  0  0
  2  3  1  0
  2  1  1  1
  4  3  1  0
  5  4  2  0
  6  5  1  0
  7  6  1  0
  7  8  2  0
  8  4  1  0
  9  2  1  0
  9 10  2  0
 11 12  1  0
 12 14  1  0
 13 12  2  0
 15 14  1  6
 15 16  1  0
 16  9  1  0
 17 15  1  0
 18 17  2  0
 19 17  1  0
 19 20  1  0
 20 21  1  0
 22 21  1  0
 23 19  1  0
 23 22  1  0
 23 24  1  6
 25 24  2  0
 26 24  1  0
M  END
$$$$
