WRA.pdb
     RDKit          3D

 31 32  0  0  1  0  0  0  0  0999 V2000
   26.7306  -22.6402  -12.1946 N   0  0  0  0  0  0  0  0  0  0  0  0
   26.0533  -21.3963  -12.0474 C   0  0  1  0  0  0  0  0  0  0  0  0
   26.9975  -20.2241  -11.9411 C   0  0  0  0  0  0  0  0  0  0  0  0
   27.8855  -20.3410  -10.7567 C   0  0  0  0  0  0  0  0  0  0  0  0
   29.2483  -20.6414  -10.8365 C   0  0  0  0  0  0  0  0  0  0  0  0
   29.7154  -20.6618   -9.5935 N   0  0  0  0  0  0  0  0  0  0  0  0
   28.7428  -20.3937   -8.7107 C   0  0  0  0  0  0  0  0  0  0  0  0
   28.7268  -20.3017   -7.3509 C   0  0  0  0  0  0  0  0  0  0  0  0
   27.5453  -20.0037   -6.6994 C   0  0  0  0  0  0  0  0  0  0  0  0
   26.3817  -19.7981   -7.4104 C   0  0  0  0  0  0  0  0  0  0  0  0
   26.4049  -19.8928   -8.7924 C   0  0  0  0  0  0  0  0  0  0  0  0
   27.5829  -20.1891   -9.4301 C   0  0  0  0  0  0  0  0  0  0  0  0
   25.0633  -21.1564  -13.1325 C   0  0  0  0  0  0  0  0  0  0  0  0
   25.3882  -21.2461  -14.3496 O   0  0  0  0  0  0  0  0  0  0  0  0
   24.4793  -24.3258  -16.4325 N   0  0  0  0  0  0  0  0  0  0  0  0
   23.7190  -25.2081  -15.6112 C   0  0  0  0  0  0  0  0  0  0  0  0
   23.9323  -26.4664  -15.5556 N   0  0  0  0  0  0  0  0  0  0  0  0
   22.6746  -24.6371  -14.8225 N   0  0  0  0  0  0  0  0  0  0  0  0
   22.5610  -23.2175  -14.6541 C   0  0  0  0  0  0  0  0  0  0  0  0
   21.5432  -22.8837  -13.5544 C   0  0  0  0  0  0  0  0  0  0  0  0
   21.4081  -21.3811  -13.5565 C   0  0  0  0  0  0  0  0  0  0  0  0
   22.7191  -20.6877  -13.9389 C   0  0  2  0  0  0  0  0  0  0  0  0
   23.7014  -20.8141  -12.8827 N   0  0  0  0  0  0  0  0  0  0  0  0
   22.3673  -19.2522  -14.0563 C   0  0  0  0  0  0  0  0  0  0  0  0
   22.1832  -18.6215  -12.9922 O   0  0  0  0  0  0  0  0  0  0  0  0
   23.3923  -27.1312  -14.9951 C   0  0  0  0  0  0  0  0  0  0  0  0
   22.8693  -16.4061  -16.0545 C   0  0  1  0  0  0  0  0  0  0  0  0
   21.8103  -17.2026  -15.2848 N   0  0  0  0  0  0  0  0  0  0  0  0
   22.2312  -18.5669  -15.2937 C   0  0  0  0  0  0  0  0  0  0  0  0
   20.5052  -16.9681  -15.8974 O   0  0  0  0  0  0  0  0  0  0  0  0
   19.8101  -15.8043  -15.6396 O   0  0  0  0  0  0  0  0  0  0  0  0
  2 13  1  0
  2  1  1  6
  3  2  1  0
  4  3  1  0
  4  5  2  0
  6  5  1  0
  7 12  2  0
  7  6  1  0
  8  7  1  0
  9 10  1  0
  9  8  2  0
 10 11  2  0
 11 12  1  0
 12  4  1  0
 13 14  2  0
 16 17  2  0
 16 15  1  0
 18 16  1  0
 19 20  1  0
 19 18  1  0
 20 21  1  0
 22 21  1  1
 23 22  1  0
 23 13  1  0
 24 25  2  0
 24 22  1  0
 27 26  1  1
 27 29  1  0
 27 28  1  0
 28 24  1  0
 29 30  1  0
 31 29  2  0
M  END
$$$$
