WRA.pdb
     RDKit          3D

 31 32  0  0  1  0  0  0  0  0999 V2000
   20.2304  -21.5251  -14.1162 N   0  0  0  0  0  0  0  0  0  0  0  0
   20.5521  -21.8460  -12.7667 C   0  0  1  0  0  0  0  0  0  0  0  0
   20.8460  -20.6262  -11.9285 C   0  0  0  0  0  0  0  0  0  0  0  0
   22.3032  -20.3503  -11.8541 C   0  0  0  0  0  0  0  0  0  0  0  0
   23.0440  -19.8078  -12.9080 C   0  0  0  0  0  0  0  0  0  0  0  0
   24.2988  -19.7002  -12.4863 N   0  0  0  0  0  0  0  0  0  0  0  0
   24.4207  -20.1384  -11.2253 C   0  0  0  0  0  0  0  0  0  0  0  0
   25.4825  -20.2286  -10.3755 C   0  0  0  0  0  0  0  0  0  0  0  0
   25.2991  -20.7351   -9.1031 C   0  0  0  0  0  0  0  0  0  0  0  0
   24.0528  -21.1504   -8.6835 C   0  0  0  0  0  0  0  0  0  0  0  0
   22.9776  -21.0557   -9.5522 C   0  0  0  0  0  0  0  0  0  0  0  0
   23.1699  -20.5515  -10.8134 C   0  0  0  0  0  0  0  0  0  0  0  0
   19.5008  -22.6722  -12.1130 C   0  0  0  0  0  0  0  0  0  0  0  0
   18.2781  -22.3681  -12.1996 O   0  0  0  0  0  0  0  0  0  0  0  0
   18.4652  -29.6911   -8.4076 N   0  0  0  0  0  0  0  0  0  0  0  0
   17.4000  -30.0359   -9.2894 C   0  0  0  0  0  0  0  0  0  0  0  0
   16.4448  -30.8165   -8.9573 N   0  0  0  0  0  0  0  0  0  0  0  0
   17.4222  -29.4712  -10.6007 N   0  0  0  0  0  0  0  0  0  0  0  0
   18.4251  -28.5205  -10.9843 C   0  0  0  0  0  0  0  0  0  0  0  0
   18.0255  -27.1057  -10.5421 C   0  0  0  0  0  0  0  0  0  0  0  0
   19.0754  -26.1822  -11.1085 C   0  0  0  0  0  0  0  0  0  0  0  0
   18.7585  -24.7108  -10.8252 C   0  0  2  0  0  0  0  0  0  0  0  0
   19.7910  -23.8452  -11.3553 N   0  0  0  0  0  0  0  0  0  0  0  0
   18.7895  -24.5950   -9.3475 C   0  0  0  0  0  0  0  0  0  0  0  0
   19.9132  -24.5032   -8.8063 O   0  0  0  0  0  0  0  0  0  0  0  0
   15.6649  -31.0841   -9.5638 C   0  0  0  0  0  0  0  0  0  0  0  0
   16.4233  -23.7965   -6.6345 C   0  0  1  0  0  0  0  0  0  0  0  0
   17.7730  -24.3265   -7.1304 N   0  0  0  0  0  0  0  0  0  0  0  0
   17.6289  -24.5826   -8.5276 C   0  0  0  0  0  0  0  0  0  0  0  0
   18.1422  -25.4953   -6.3360 O   0  0  0  0  0  0  0  0  0  0  0  0
   18.6237  -25.3448   -5.0517 O   0  0  0  0  0  0  0  0  0  0  0  0
  2 13  1  0
  2  1  1  6
  3  2  1  0
  4  3  1  0
  4  5  2  0
  6  5  1  0
  7 12  2  0
  7  6  1  0
  8  7  1  0
  9 10  1  0
  9  8  2  0
 10 11  2  0
 11 12  1  0
 12  4  1  0
 13 14  2  0
 16 17  2  0
 16 15  1  0
 18 16  1  0
 19 20  1  0
 19 18  1  0
 20 21  1  0
 22 21  1  1
 23 22  1  0
 23 13  1  0
 24 25  2  0
 24 22  1  0
 27 26  1  6
 27 29  1  0
 27 28  1  0
 28 24  1  0
 29 30  1  0
 31 29  2  0
M  END
$$$$
