WRA.pdb
     RDKit          3D

 31 32  0  0  1  0  0  0  0  0999 V2000
   26.7292  -22.8182  -11.9606 N   0  0  0  0  0  0  0  0  0  0  0  0
   26.0094  -21.7807  -11.3024 C   0  0  1  0  0  0  0  0  0  0  0  0
   26.7375  -20.4592  -11.3219 C   0  0  0  0  0  0  0  0  0  0  0  0
   27.8826  -20.4501  -10.3765 C   0  0  0  0  0  0  0  0  0  0  0  0
   29.1902  -20.7842  -10.7402 C   0  0  0  0  0  0  0  0  0  0  0  0
   29.9396  -20.6642   -9.6502 N   0  0  0  0  0  0  0  0  0  0  0  0
   29.2020  -20.2734   -8.6012 C   0  0  0  0  0  0  0  0  0  0  0  0
   29.5087  -20.0186   -7.2978 C   0  0  0  0  0  0  0  0  0  0  0  0
   28.5130  -19.6219   -6.4259 C   0  0  0  0  0  0  0  0  0  0  0  0
   27.2118  -19.4807   -6.8603 C   0  0  0  0  0  0  0  0  0  0  0  0
   26.9069  -19.7410   -8.1864 C   0  0  0  0  0  0  0  0  0  0  0  0
   27.9024  -20.1344   -9.0444 C   0  0  0  0  0  0  0  0  0  0  0  0
   24.6332  -21.6123  -11.8435 C   0  0  0  0  0  0  0  0  0  0  0  0
   24.3508  -21.9334  -13.0319 O   0  0  0  0  0  0  0  0  0  0  0  0
   18.6962  -24.0036   -8.0061 N   0  0  0  0  0  0  0  0  0  0  0  0
   17.9014  -24.0192   -9.1889 C   0  0  0  0  0  0  0  0  0  0  0  0
   16.7060  -24.4687   -9.2198 N   0  0  0  0  0  0  0  0  0  0  0  0
   18.4893  -23.5039  -10.3838 N   0  0  0  0  0  0  0  0  0  0  0  0
   19.8320  -23.0004  -10.3948 C   0  0  0  0  0  0  0  0  0  0  0  0
   19.8331  -21.4659  -10.4412 C   0  0  0  0  0  0  0  0  0  0  0  0
   21.2604  -21.0445  -10.1936 C   0  0  0  0  0  0  0  0  0  0  0  0
   22.1649  -21.3505  -11.3910 C   0  0  2  0  0  0  0  0  0  0  0  0
   23.5530  -21.0861  -11.0750 N   0  0  0  0  0  0  0  0  0  0  0  0
   21.7496  -20.3838  -12.4356 C   0  0  0  0  0  0  0  0  0  0  0  0
   21.7322  -19.1743  -12.1184 O   0  0  0  0  0  0  0  0  0  0  0  0
   16.1294  -24.5513  -10.0615 C   0  0  0  0  0  0  0  0  0  0  0  0
   21.0045  -20.3663  -16.0727 C   0  0  1  0  0  0  0  0  0  0  0  0
   20.9966  -19.7315  -14.6779 N   0  0  0  0  0  0  0  0  0  0  0  0
   21.3769  -20.7534  -13.7561 C   0  0  0  0  0  0  0  0  0  0  0  0
   19.6786  -19.1529  -14.4298 O   0  0  0  0  0  0  0  0  0  0  0  0
   19.3838  -17.8745  -14.8575 O   0  0  0  0  0  0  0  0  0  0  0  0
  2 13  1  0
  2  1  1  6
  3  2  1  0
  4  3  1  0
  4  5  2  0
  6  5  1  0
  7 12  2  0
  7  6  1  0
  8  7  1  0
  9 10  1  0
  9  8  2  0
 10 11  2  0
 11 12  1  0
 12  4  1  0
 13 14  2  0
 16 17  2  0
 16 15  1  0
 18 16  1  0
 19 20  1  0
 19 18  1  0
 20 21  1  0
 22 21  1  1
 23 22  1  0
 23 13  1  0
 24 25  2  0
 24 22  1  0
 27 26  1  6
 27 29  1  0
 27 28  1  0
 28 24  1  0
 29 30  1  0
 31 29  2  0
M  END
$$$$
