WRA.pdb
     RDKit          3D

 31 32  0  0  1  0  0  0  0  0999 V2000
   28.1110  -19.9861   -9.6555 N   0  0  0  0  0  0  0  0  0  0  0  0
   26.8912  -20.6974   -9.4706 C   0  0  1  0  0  0  0  0  0  0  0  0
   26.0864  -20.1861   -8.3011 C   0  0  0  0  0  0  0  0  0  0  0  0
   26.9511  -19.5412   -7.2806 C   0  0  0  0  0  0  0  0  0  0  0  0
   27.3799  -18.2129   -7.3558 C   0  0  0  0  0  0  0  0  0  0  0  0
   28.1269  -17.9842   -6.2818 N   0  0  0  0  0  0  0  0  0  0  0  0
   28.2110  -19.0793   -5.5133 C   0  0  0  0  0  0  0  0  0  0  0  0
   28.8478  -19.3372   -4.3361 C   0  0  0  0  0  0  0  0  0  0  0  0
   28.7514  -20.5926   -3.7671 C   0  0  0  0  0  0  0  0  0  0  0  0
   28.0174  -21.5879   -4.3775 C   0  0  0  0  0  0  0  0  0  0  0  0
   27.3724  -21.3191   -5.5738 C   0  0  0  0  0  0  0  0  0  0  0  0
   27.4741  -20.0695   -6.1308 C   0  0  0  0  0  0  0  0  0  0  0  0
   26.0512  -20.7138  -10.6990 C   0  0  0  0  0  0  0  0  0  0  0  0
   25.6588  -19.6425  -11.2408 O   0  0  0  0  0  0  0  0  0  0  0  0
   25.5266  -26.0007  -16.0526 N   0  0  0  0  0  0  0  0  0  0  0  0
   24.7420  -25.2116  -16.9430 C   0  0  0  0  0  0  0  0  0  0  0  0
   24.0060  -25.7159  -17.8573 N   0  0  0  0  0  0  0  0  0  0  0  0
   24.7970  -23.7933  -16.7880 N   0  0  0  0  0  0  0  0  0  0  0  0
   25.1882  -23.1955  -15.5445 C   0  0  0  0  0  0  0  0  0  0  0  0
   24.0975  -23.3945  -14.4827 C   0  0  0  0  0  0  0  0  0  0  0  0
   24.8041  -23.3574  -13.1503 C   0  0  0  0  0  0  0  0  0  0  0  0
   24.9641  -21.9276  -12.6252 C   0  0  2  0  0  0  0  0  0  0  0  0
   25.6354  -21.9169  -11.3424 N   0  0  0  0  0  0  0  0  0  0  0  0
   23.5782  -21.4460  -12.4114 C   0  0  0  0  0  0  0  0  0  0  0  0
   22.9814  -21.8604  -11.3936 O   0  0  0  0  0  0  0  0  0  0  0  0
   23.5243  -25.1830  -18.5865 C   0  0  0  0  0  0  0  0  0  0  0  0
   21.3903  -18.7292  -13.4806 C   0  0  1  0  0  0  0  0  0  0  0  0
   21.5630  -20.1687  -12.9841 N   0  0  0  0  0  0  0  0  0  0  0  0
   22.9042  -20.5529  -13.2875 C   0  0  0  0  0  0  0  0  0  0  0  0
   20.5389  -21.0074  -13.6016 O   0  0  0  0  0  0  0  0  0  0  0  0
   20.8900  -21.9899  -14.5047 O   0  0  0  0  0  0  0  0  0  0  0  0
  2 13  1  0
  2  1  1  6
  3  2  1  0
  4  3  1  0
  4  5  2  0
  6  5  1  0
  7 12  2  0
  7  6  1  0
  8  7  1  0
  9 10  1  0
  9  8  2  0
 10 11  2  0
 11 12  1  0
 12  4  1  0
 13 14  2  0
 16 17  2  0
 16 15  1  0
 18 16  1  0
 19 20  1  0
 19 18  1  0
 20 21  1  0
 22 21  1  1
 23 22  1  0
 23 13  1  0
 24 25  2  0
 24 22  1  0
 27 26  1  1
 27 29  1  0
 27 28  1  0
 28 24  1  0
 29 30  1  0
 31 29  2  0
M  END
$$$$
