WRA.pdb
     RDKit          3D

 31 32  0  0  1  0  0  0  0  0999 V2000
   27.1981  -18.6361   -9.7845 N   0  0  0  0  0  0  0  0  0  0  0  0
   26.8801  -20.0151   -9.6263 C   0  0  1  0  0  0  0  0  0  0  0  0
   26.5092  -20.3717   -8.2077 C   0  0  0  0  0  0  0  0  0  0  0  0
   27.3874  -19.6898   -7.2235 C   0  0  0  0  0  0  0  0  0  0  0  0
   27.7395  -18.3395   -7.3042 C   0  0  0  0  0  0  0  0  0  0  0  0
   28.5255  -18.0800   -6.2656 N   0  0  0  0  0  0  0  0  0  0  0  0
   28.7068  -19.1758   -5.5150 C   0  0  0  0  0  0  0  0  0  0  0  0
   29.4143  -19.4091   -4.3736 C   0  0  0  0  0  0  0  0  0  0  0  0
   29.4142  -20.6729   -3.8152 C   0  0  0  0  0  0  0  0  0  0  0  0
   28.7057  -21.7012   -4.4003 C   0  0  0  0  0  0  0  0  0  0  0  0
   27.9884  -21.4573   -5.5603 C   0  0  0  0  0  0  0  0  0  0  0  0
   27.9947  -20.1991   -6.1071 C   0  0  0  0  0  0  0  0  0  0  0  0
   25.8113  -20.4626  -10.5603 C   0  0  0  0  0  0  0  0  0  0  0  0
   24.6425  -19.9881  -10.4969 O   0  0  0  0  0  0  0  0  0  0  0  0
   24.1843  -25.0812  -16.7520 N   0  0  0  0  0  0  0  0  0  0  0  0
   24.2304  -23.9701  -17.6434 C   0  0  0  0  0  0  0  0  0  0  0  0
   23.4270  -23.8313  -18.6268 N   0  0  0  0  0  0  0  0  0  0  0  0
   25.2300  -22.9782  -17.4074 N   0  0  0  0  0  0  0  0  0  0  0  0
   25.9331  -22.9129  -16.1592 C   0  0  0  0  0  0  0  0  0  0  0  0
   24.9551  -22.6745  -15.0001 C   0  0  0  0  0  0  0  0  0  0  0  0
   25.8051  -22.5429  -13.7606 C   0  0  0  0  0  0  0  0  0  0  0  0
   25.2831  -21.4528  -12.8200 C   0  0  2  0  0  0  0  0  0  0  0  0
   26.0238  -21.4413  -11.5759 N   0  0  0  0  0  0  0  0  0  0  0  0
   23.8903  -21.8557  -12.5103 C   0  0  0  0  0  0  0  0  0  0  0  0
   23.7351  -22.8917  -11.8271 O   0  0  0  0  0  0  0  0  0  0  0  0
   23.4179  -23.0371  -19.2724 C   0  0  0  0  0  0  0  0  0  0  0  0
   20.4417  -20.5351  -12.9343 C   0  0  1  0  0  0  0  0  0  0  0  0
   21.4479  -21.6461  -12.6156 N   0  0  0  0  0  0  0  0  0  0  0  0
   22.7419  -21.1384  -12.9414 C   0  0  0  0  0  0  0  0  0  0  0  0
   21.0687  -22.8513  -13.3485 O   0  0  0  0  0  0  0  0  0  0  0  0
   20.0839  -23.6860  -12.8610 O   0  0  0  0  0  0  0  0  0  0  0  0
  2 13  1  0
  2  1  1  1
  3  2  1  0
  4  3  1  0
  4  5  2  0
  6  5  1  0
  7 12  2  0
  7  6  1  0
  8  7  1  0
  9 10  1  0
  9  8  2  0
 10 11  2  0
 11 12  1  0
 12  4  1  0
 13 14  2  0
 16 17  2  0
 16 15  1  0
 18 16  1  0
 19 20  1  0
 19 18  1  0
 20 21  1  0
 22 21  1  6
 23 22  1  0
 23 13  1  0
 24 25  2  0
 24 22  1  0
 27 26  1  1
 27 29  1  0
 27 28  1  0
 28 24  1  0
 29 30  1  0
 31 29  2  0
M  END
$$$$
