WRA.pdb
     RDKit          3D

 31 32  0  0  1  0  0  0  0  0999 V2000
   26.9863  -20.0467  -16.3972 N   0  0  0  0  0  0  0  0  0  0  0  0
   25.9733  -19.3768  -15.6536 C   0  0  1  0  0  0  0  0  0  0  0  0
   25.0233  -18.5968  -16.5287 C   0  0  0  0  0  0  0  0  0  0  0  0
   25.6814  -17.4093  -17.1302 C   0  0  0  0  0  0  0  0  0  0  0  0
   25.7623  -17.1827  -18.5071 C   0  0  0  0  0  0  0  0  0  0  0  0
   26.4108  -16.0358  -18.6749 N   0  0  0  0  0  0  0  0  0  0  0  0
   26.7567  -15.5028  -17.4945 C   0  0  0  0  0  0  0  0  0  0  0  0
   27.4197  -14.3619  -17.1530 C   0  0  0  0  0  0  0  0  0  0  0  0
   27.6344  -14.0686  -15.8200 C   0  0  0  0  0  0  0  0  0  0  0  0
   27.1848  -14.9180  -14.8309 C   0  0  0  0  0  0  0  0  0  0  0  0
   26.5113  -16.0758  -15.1848 C   0  0  0  0  0  0  0  0  0  0  0  0
   26.3031  -16.3582  -16.5111 C   0  0  0  0  0  0  0  0  0  0  0  0
   25.2108  -20.3015  -14.7712 C   0  0  0  0  0  0  0  0  0  0  0  0
   24.9605  -21.4883  -15.1234 O   0  0  0  0  0  0  0  0  0  0  0  0
   28.0100  -21.6767  -12.0591 N   0  0  0  0  0  0  0  0  0  0  0  0
   28.3673  -21.4702  -10.6949 C   0  0  0  0  0  0  0  0  0  0  0  0
   29.5349  -21.1045  -10.3277 N   0  0  0  0  0  0  0  0  0  0  0  0
   27.3572  -21.6886   -9.7097 N   0  0  0  0  0  0  0  0  0  0  0  0
   25.9646  -21.6369  -10.0480 C   0  0  0  0  0  0  0  0  0  0  0  0
   25.6178  -20.2934  -10.7049 C   0  0  0  0  0  0  0  0  0  0  0  0
   24.1775  -20.4041  -11.1402 C   0  0  0  0  0  0  0  0  0  0  0  0
   24.0519  -20.8529  -12.5991 C   0  0  2  0  0  0  0  0  0  0  0  0
   24.7161  -19.9230  -13.4881 N   0  0  0  0  0  0  0  0  0  0  0  0
   22.5992  -20.7929  -12.8894 C   0  0  0  0  0  0  0  0  0  0  0  0
   22.0408  -19.6797  -12.7763 O   0  0  0  0  0  0  0  0  0  0  0  0
   29.8192  -20.9256   -9.3608 C   0  0  0  0  0  0  0  0  0  0  0  0
   19.9583  -22.9270  -14.3603 C   0  0  1  0  0  0  0  0  0  0  0  0
   20.4222  -21.7409  -13.5080 N   0  0  0  0  0  0  0  0  0  0  0  0
   21.8214  -21.9151  -13.2834 C   0  0  0  0  0  0  0  0  0  0  0  0
   19.6158  -21.6895  -12.2913 O   0  0  0  0  0  0  0  0  0  0  0  0
   20.1743  -21.9987  -11.0680 O   0  0  0  0  0  0  0  0  0  0  0  0
  2 13  1  0
  2  1  1  6
  3  2  1  0
  4  3  1  0
  4  5  2  0
  6  5  1  0
  7 12  2  0
  7  6  1  0
  8  7  1  0
  9 10  1  0
  9  8  2  0
 10 11  2  0
 11 12  1  0
 12  4  1  0
 13 14  2  0
 16 17  2  0
 16 15  1  0
 18 16  1  0
 19 20  1  0
 19 18  1  0
 20 21  1  0
 22 21  1  1
 23 22  1  0
 23 13  1  0
 24 25  2  0
 24 22  1  0
 27 26  1  6
 27 29  1  0
 27 28  1  0
 28 24  1  0
 29 30  1  0
 31 29  2  0
M  END
$$$$
