WRA.pdb
     RDKit          3D

 31 32  0  0  1  0  0  0  0  0999 V2000
   26.4633  -22.0496   -8.8663 N   0  0  0  0  0  0  0  0  0  0  0  0
   25.7952  -20.7959   -8.9642 C   0  0  1  0  0  0  0  0  0  0  0  0
   26.5732  -19.6667   -8.3343 C   0  0  0  0  0  0  0  0  0  0  0  0
   26.7473  -19.8690   -6.8735 C   0  0  0  0  0  0  0  0  0  0  0  0
   25.8318  -20.5567   -6.0719 C   0  0  0  0  0  0  0  0  0  0  0  0
   26.3109  -20.5410   -4.8333 N   0  0  0  0  0  0  0  0  0  0  0  0
   27.4796  -19.8866   -4.7789 C   0  0  0  0  0  0  0  0  0  0  0  0
   28.3385  -19.6095   -3.7574 C   0  0  0  0  0  0  0  0  0  0  0  0
   29.4953  -18.8977   -4.0106 C   0  0  0  0  0  0  0  0  0  0  0  0
   29.7906  -18.4646   -5.2861 C   0  0  0  0  0  0  0  0  0  0  0  0
   28.9135  -18.7498   -6.3200 C   0  0  0  0  0  0  0  0  0  0  0  0
   27.7675  -19.4571   -6.0585 C   0  0  0  0  0  0  0  0  0  0  0  0
   25.4400  -20.4493  -10.3673 C   0  0  0  0  0  0  0  0  0  0  0  0
   25.2379  -19.2528  -10.7174 O   0  0  0  0  0  0  0  0  0  0  0  0
   27.0109  -24.0856  -17.6304 N   0  0  0  0  0  0  0  0  0  0  0  0
   26.3007  -24.7229  -16.5718 C   0  0  0  0  0  0  0  0  0  0  0  0
   26.1067  -25.9846  -16.5228 N   0  0  0  0  0  0  0  0  0  0  0  0
   25.7905  -23.8926  -15.5282 N   0  0  0  0  0  0  0  0  0  0  0  0
   24.9950  -22.7356  -15.8198 C   0  0  0  0  0  0  0  0  0  0  0  0
   25.6111  -21.4819  -15.1829 C   0  0  0  0  0  0  0  0  0  0  0  0
   25.8965  -21.8441  -13.7465 C   0  0  0  0  0  0  0  0  0  0  0  0
   25.0003  -21.0746  -12.7717 C   0  0  2  0  0  0  0  0  0  0  0  0
   25.3040  -21.4239  -11.3998 N   0  0  0  0  0  0  0  0  0  0  0  0
   23.6271  -21.5514  -13.0637 C   0  0  0  0  0  0  0  0  0  0  0  0
   23.3932  -22.7654  -12.8755 O   0  0  0  0  0  0  0  0  0  0  0  0
   25.5732  -26.4708  -15.7970 C   0  0  0  0  0  0  0  0  0  0  0  0
   20.3425  -20.1122  -14.0695 C   0  0  1  0  0  0  0  0  0  0  0  0
   21.2787  -21.2734  -13.7180 N   0  0  0  0  0  0  0  0  0  0  0  0
   22.5805  -20.7153  -13.5377 C   0  0  0  0  0  0  0  0  0  0  0  0
   21.1939  -22.2834  -14.7697 O   0  0  0  0  0  0  0  0  0  0  0  0
   20.3692  -23.3798  -14.6221 O   0  0  0  0  0  0  0  0  0  0  0  0
  2 13  1  0
  2  1  1  6
  3  2  1  0
  4  3  1  0
  4  5  2  0
  6  5  1  0
  7 12  2  0
  7  6  1  0
  8  7  1  0
  9 10  1  0
  9  8  2  0
 10 11  2  0
 11 12  1  0
 12  4  1  0
 13 14  2  0
 16 17  2  0
 16 15  1  0
 18 16  1  0
 19 20  1  0
 19 18  1  0
 20 21  1  0
 22 21  1  6
 23 22  1  0
 23 13  1  0
 24 25  2  0
 24 22  1  0
 27 26  1  1
 27 29  1  0
 27 28  1  0
 28 24  1  0
 29 30  1  0
 31 29  2  0
M  END
$$$$
