WRA.pdb
     RDKit          3D

 31 32  0  0  1  0  0  0  0  0999 V2000
   27.0933  -21.2102  -14.0509 N   0  0  0  0  0  0  0  0  0  0  0  0
   27.8217  -21.1143  -12.8310 C   0  0  1  0  0  0  0  0  0  0  0  0
   29.1670  -20.4528  -13.0026 C   0  0  0  0  0  0  0  0  0  0  0  0
   30.2808  -21.4044  -12.7599 C   0  0  0  0  0  0  0  0  0  0  0  0
   30.6579  -22.4024  -13.6630 C   0  0  0  0  0  0  0  0  0  0  0  0
   31.6801  -23.0530  -13.1190 N   0  0  0  0  0  0  0  0  0  0  0  0
   31.9912  -22.5413  -11.9196 C   0  0  0  0  0  0  0  0  0  0  0  0
   32.9418  -22.8594  -10.9961 C   0  0  0  0  0  0  0  0  0  0  0  0
   33.0238  -22.1359   -9.8218 C   0  0  0  0  0  0  0  0  0  0  0  0
   32.1541  -21.0947   -9.5742 C   0  0  0  0  0  0  0  0  0  0  0  0
   31.1903  -20.7763  -10.5172 C   0  0  0  0  0  0  0  0  0  0  0  0
   31.1169  -21.5006  -11.6799 C   0  0  0  0  0  0  0  0  0  0  0  0
   27.0490  -20.4275  -11.7603 C   0  0  0  0  0  0  0  0  0  0  0  0
   26.8190  -19.1867  -11.8091 O   0  0  0  0  0  0  0  0  0  0  0  0
   19.9165  -21.4068  -10.1491 N   0  0  0  0  0  0  0  0  0  0  0  0
   20.5042  -20.9971  -11.3811 C   0  0  0  0  0  0  0  0  0  0  0  0
   20.0763  -21.3848  -12.5206 N   0  0  0  0  0  0  0  0  0  0  0  0
   21.6228  -20.1123  -11.3146 N   0  0  0  0  0  0  0  0  0  0  0  0
   22.5262  -20.1376  -10.2011 C   0  0  0  0  0  0  0  0  0  0  0  0
   23.6001  -21.2163  -10.4012 C   0  0  0  0  0  0  0  0  0  0  0  0
   24.5150  -21.1176   -9.2057 C   0  0  0  0  0  0  0  0  0  0  0  0
   25.8345  -20.4200   -9.5489 C   0  0  2  0  0  0  0  0  0  0  0  0
   26.5218  -21.1068  -10.6224 N   0  0  0  0  0  0  0  0  0  0  0  0
   26.6624  -20.5543   -8.3264 C   0  0  0  0  0  0  0  0  0  0  0  0
   27.0648  -21.7016   -8.0336 O   0  0  0  0  0  0  0  0  0  0  0  0
   20.4452  -21.0767  -13.4243 C   0  0  0  0  0  0  0  0  0  0  0  0
   28.5238  -18.4421   -5.9557 C   0  0  1  0  0  0  0  0  0  0  0  0
   27.7612  -19.7275   -6.2942 N   0  0  0  0  0  0  0  0  0  0  0  0
   27.0171  -19.4659   -7.4843 C   0  0  0  0  0  0  0  0  0  0  0  0
   26.9471  -20.1107   -5.1436 O   0  0  0  0  0  0  0  0  0  0  0  0
   25.5794  -20.2453   -5.2677 O   0  0  0  0  0  0  0  0  0  0  0  0
  2 13  1  0
  2  1  1  6
  3  2  1  0
  4  3  1  0
  4  5  2  0
  6  5  1  0
  7 12  2  0
  7  6  1  0
  8  7  1  0
  9 10  1  0
  9  8  2  0
 10 11  2  0
 11 12  1  0
 12  4  1  0
 13 14  2  0
 16 17  2  0
 16 15  1  0
 18 16  1  0
 19 20  1  0
 19 18  1  0
 20 21  1  0
 22 21  1  1
 23 22  1  0
 23 13  1  0
 24 25  2  0
 24 22  1  0
 27 26  1  6
 27 29  1  0
 27 28  1  0
 28 24  1  0
 29 30  1  0
 31 29  2  0
M  END
$$$$
