WRA.pdb
     RDKit          3D

 31 32  0  0  1  0  0  0  0  0999 V2000
   22.1923  -17.3498  -17.6341 N   0  0  0  0  0  0  0  0  0  0  0  0
   23.0409  -17.2408  -16.4958 C   0  0  1  0  0  0  0  0  0  0  0  0
   22.4206  -16.4403  -15.3772 C   0  0  0  0  0  0  0  0  0  0  0  0
   22.4784  -14.9817  -15.6493 C   0  0  0  0  0  0  0  0  0  0  0  0
   21.3547  -14.2024  -15.9392 C   0  0  0  0  0  0  0  0  0  0  0  0
   21.7813  -12.9581  -16.1225 N   0  0  0  0  0  0  0  0  0  0  0  0
   23.1108  -12.8791  -15.9704 C   0  0  0  0  0  0  0  0  0  0  0  0
   23.9923  -11.8430  -16.0568 C   0  0  0  0  0  0  0  0  0  0  0  0
   25.3384  -12.0708  -15.8444 C   0  0  0  0  0  0  0  0  0  0  0  0
   25.8000  -13.3355  -15.5457 C   0  0  0  0  0  0  0  0  0  0  0  0
   24.8987  -14.3842  -15.4590 C   0  0  0  0  0  0  0  0  0  0  0  0
   23.5642  -14.1480  -15.6716 C   0  0  0  0  0  0  0  0  0  0  0  0
   23.4838  -18.5678  -15.9881 C   0  0  0  0  0  0  0  0  0  0  0  0
   22.7040  -19.5612  -15.9789 O   0  0  0  0  0  0  0  0  0  0  0  0
   28.8729  -24.4007  -15.9921 N   0  0  0  0  0  0  0  0  0  0  0  0
   28.9821  -23.4316  -17.0313 C   0  0  0  0  0  0  0  0  0  0  0  0
   29.1056  -23.7422  -18.2642 N   0  0  0  0  0  0  0  0  0  0  0  0
   28.9501  -22.0550  -16.6535 N   0  0  0  0  0  0  0  0  0  0  0  0
   28.7570  -21.6628  -15.2876 C   0  0  0  0  0  0  0  0  0  0  0  0
   27.2624  -21.6434  -14.9373 C   0  0  0  0  0  0  0  0  0  0  0  0
   26.7491  -20.2971  -15.3845 C   0  0  0  0  0  0  0  0  0  0  0  0
   25.2545  -20.1282  -15.0962 C   0  0  2  0  0  0  0  0  0  0  0  0
   24.7958  -18.8108  -15.4841 N   0  0  0  0  0  0  0  0  0  0  0  0
   25.1402  -20.2279  -13.6214 C   0  0  0  0  0  0  0  0  0  0  0  0
   25.7320  -19.3593  -12.9437 O   0  0  0  0  0  0  0  0  0  0  0  0
   29.2497  -23.0761  -19.0279 C   0  0  0  0  0  0  0  0  0  0  0  0
   23.3511  -22.2863  -11.0910 C   0  0  1  0  0  0  0  0  0  0  0  0
   24.4103  -21.2658  -11.5212 N   0  0  0  0  0  0  0  0  0  0  0  0
   24.4054  -21.2413  -12.9488 C   0  0  0  0  0  0  0  0  0  0  0  0
   25.6920  -21.6363  -10.9268 O   0  0  0  0  0  0  0  0  0  0  0  0
   25.9467  -21.3781   -9.5954 O   0  0  0  0  0  0  0  0  0  0  0  0
  2 13  1  0
  2  1  1  6
  3  2  1  0
  4  3  1  0
  4  5  2  0
  6  5  1  0
  7 12  2  0
  7  6  1  0
  8  7  1  0
  9 10  1  0
  9  8  2  0
 10 11  2  0
 11 12  1  0
 12  4  1  0
 13 14  2  0
 16 17  2  0
 16 15  1  0
 18 16  1  0
 19 20  1  0
 19 18  1  0
 20 21  1  0
 22 21  1  1
 23 22  1  0
 23 13  1  0
 24 25  2  0
 24 22  1  0
 27 26  1  1
 27 29  1  0
 27 28  1  0
 28 24  1  0
 29 30  1  0
 31 29  2  0
M  END
$$$$
