LIQ.pdb
     RDKit          3D

 26 25  0  0  1  0  0  0  0  0999 V2000
    6.3446  -21.4676   18.2459 C   0  0  0  0  0  0  0  0  0  0  0  0
    6.8899  -20.1829   17.6237 C   0  0  1  0  0  0  0  0  0  0  0  0
    5.7174  -19.3970   17.1128 C   0  0  0  0  0  0  0  0  0  0  0  0
    7.7607  -19.4338   18.5950 C   0  0  0  0  0  0  0  0  0  0  0  0
    8.1223  -18.1054   17.9808 C   0  0  2  0  0  0  0  0  0  0  0  0
    8.9773  -18.3126   16.8559 N   0  0  0  0  0  0  0  0  0  0  0  0
    8.7955  -17.2088   18.9551 C   0  0  0  0  0  0  0  0  0  0  0  0
   10.0404  -17.3068   19.0740 O   0  0  0  0  0  0  0  0  0  0  0  0
    6.5582  -12.3167   19.8194 C   0  0  0  0  0  0  0  0  0  0  0  0
    7.6103  -13.3889   19.6308 C   0  0  0  0  0  0  0  0  0  0  0  0
    7.7699  -14.2049   20.9220 C   0  0  2  0  0  0  0  0  0  0  0  0
    8.2560  -13.2293   21.9683 C   0  0  0  0  0  0  0  0  0  0  0  0
    8.6747  -15.3727   20.6928 C   0  0  2  0  0  0  0  0  0  0  0  0
    8.0385  -16.2819   19.7138 N   0  0  0  0  0  0  0  0  0  0  0  0
    9.0005  -16.1397   21.9101 C   0  0  0  0  0  0  0  0  0  0  0  0
    8.0798  -16.7924   22.5184 O   0  0  0  0  0  0  0  0  0  0  0  0
   13.5094  -20.5099   22.3791 N   0  0  0  0  0  0  0  0  0  0  0  0
   13.3302  -19.1413   22.0564 C   0  0  0  0  0  0  0  0  0  0  0  0
   14.2756  -18.4252   21.6701 O   0  0  0  0  0  0  0  0  0  0  0  0
   11.9437  -18.5464   22.1899 C   0  0  0  0  0  0  0  0  0  0  0  0
   11.9324  -17.7062   23.4260 C   0  0  0  0  0  0  0  0  0  0  0  0
   10.6110  -17.0250   23.6095 C   0  0  2  0  0  0  0  0  0  0  0  0
   10.3033  -16.1917   22.4365 N   0  0  0  0  0  0  0  0  0  0  0  0
   10.6483  -16.1815   24.8080 C   0  0  0  0  0  0  0  0  0  0  0  0
   10.6054  -14.9148   24.7963 O   0  0  0  0  0  0  0  0  0  0  0  0
   10.7370  -16.8216   26.0624 O   0  0  0  0  0  0  0  0  0  0  0  0
  2  3  1  1
  2  1  1  0
  4  2  1  0
  4  5  1  0
  5  6  1  6
  7  5  1  0
  7  8  2  0
  9 10  1  0
 10 11  1  0
 11 13  1  0
 11 12  1  1
 13 14  1  6
 14  7  1  0
 15 16  2  0
 15 13  1  0
 17 18  1  0
 18 19  2  0
 20 18  1  0
 20 21  1  0
 22 21  1  6
 22 24  1  0
 22 23  1  0
 23 15  1  0
 24 26  1  0
 25 24  2  0
M  END
$$$$
