LIQ.pdb
     RDKit          3D

 26 25  0  0  1  0  0  0  0  0999 V2000
    8.0748  -13.6811   18.4992 C   0  0  0  0  0  0  0  0  0  0  0  0
    8.1867  -13.1324   19.9209 C   0  0  1  0  0  0  0  0  0  0  0  0
    8.1421  -11.6347   19.8303 C   0  0  0  0  0  0  0  0  0  0  0  0
    7.1384  -13.7292   20.8197 C   0  0  0  0  0  0  0  0  0  0  0  0
    7.6623  -15.0371   21.3560 C   0  0  2  0  0  0  0  0  0  0  0  0
    6.5812  -15.9544   21.5266 N   0  0  0  0  0  0  0  0  0  0  0  0
    8.3711  -14.8620   22.6496 C   0  0  0  0  0  0  0  0  0  0  0  0
    9.6131  -14.6897   22.6152 O   0  0  0  0  0  0  0  0  0  0  0  0
    6.1022  -11.7134   26.0623 C   0  0  0  0  0  0  0  0  0  0  0  0
    7.1740  -12.4827   25.3196 C   0  0  0  0  0  0  0  0  0  0  0  0
    7.4508  -13.8180   26.0259 C   0  0  2  0  0  0  0  0  0  0  0  0
    8.0467  -13.4588   27.3670 C   0  0  0  0  0  0  0  0  0  0  0  0
    8.3170  -14.6892   25.1740 C   0  0  2  0  0  0  0  0  0  0  0  0
    7.6497  -14.8919   23.8688 N   0  0  0  0  0  0  0  0  0  0  0  0
    8.6206  -16.0080   25.7613 C   0  0  0  0  0  0  0  0  0  0  0  0
    7.6681  -16.8276   26.0155 O   0  0  0  0  0  0  0  0  0  0  0  0
   12.4405  -21.4277   24.4248 N   0  0  0  0  0  0  0  0  0  0  0  0
   12.7221  -20.3142   25.2557 C   0  0  0  0  0  0  0  0  0  0  0  0
   13.8443  -19.7697   25.2714 O   0  0  0  0  0  0  0  0  0  0  0  0
   11.6172  -19.7823   26.1445 C   0  0  0  0  0  0  0  0  0  0  0  0
   11.2868  -18.4026   25.6738 C   0  0  0  0  0  0  0  0  0  0  0  0
   10.2176  -17.7804   26.5185 C   0  0  2  0  0  0  0  0  0  0  0  0
    9.9350  -16.4137   26.0526 N   0  0  0  0  0  0  0  0  0  0  0  0
   10.6520  -17.7363   27.9180 C   0  0  0  0  0  0  0  0  0  0  0  0
   10.9781  -16.6787   28.5357 O   0  0  0  0  0  0  0  0  0  0  0  0
   10.7108  -18.9538   28.6289 O   0  0  0  0  0  0  0  0  0  0  0  0
  2  3  1  6
  2  1  1  0
  4  2  1  0
  4  5  1  0
  5  6  1  1
  7  5  1  0
  7  8  2  0
  9 10  1  0
 10 11  1  0
 11 13  1  0
 11 12  1  1
 13 14  1  6
 14  7  1  0
 15 16  2  0
 15 13  1  0
 17 18  1  0
 18 19  2  0
 20 18  1  0
 20 21  1  0
 22 21  1  6
 22 24  1  0
 22 23  1  0
 23 15  1  0
 24 26  1  0
 25 24  2  0
M  END
$$$$
