LIQ.pdb
     RDKit          3D

 26 25  0  0  1  0  0  0  0  0999 V2000
    7.5951  -12.2923   18.4517 C   0  0  0  0  0  0  0  0  0  0  0  0
    7.6743  -13.6063   19.2275 C   0  0  1  0  0  0  0  0  0  0  0  0
    8.7247  -14.4543   18.5710 C   0  0  0  0  0  0  0  0  0  0  0  0
    7.9051  -13.3607   20.6936 C   0  0  0  0  0  0  0  0  0  0  0  0
    8.0707  -14.6940   21.3775 C   0  0  2  0  0  0  0  0  0  0  0  0
    6.8143  -15.3714   21.4210 N   0  0  0  0  0  0  0  0  0  0  0  0
    8.6015  -14.5474   22.7570 C   0  0  0  0  0  0  0  0  0  0  0  0
    9.8065  -14.2236   22.8867 O   0  0  0  0  0  0  0  0  0  0  0  0
    5.6685  -11.8825   25.9910 C   0  0  0  0  0  0  0  0  0  0  0  0
    6.8644  -12.5312   25.3267 C   0  0  0  0  0  0  0  0  0  0  0  0
    7.2171  -13.8442   26.0407 C   0  0  2  0  0  0  0  0  0  0  0  0
    7.6491  -13.4521   27.4344 C   0  0  0  0  0  0  0  0  0  0  0  0
    8.2436  -14.6023   25.2618 C   0  0  2  0  0  0  0  0  0  0  0  0
    7.7586  -14.7704   23.8740 N   0  0  0  0  0  0  0  0  0  0  0  0
    8.5698  -15.9307   25.8144 C   0  0  0  0  0  0  0  0  0  0  0  0
    7.6377  -16.7915   25.9982 O   0  0  0  0  0  0  0  0  0  0  0  0
   13.4698  -19.1562   24.5979 N   0  0  0  0  0  0  0  0  0  0  0  0
   12.4272  -18.6765   23.7658 C   0  0  0  0  0  0  0  0  0  0  0  0
   12.5324  -18.6538   22.5231 O   0  0  0  0  0  0  0  0  0  0  0  0
   11.1548  -18.1805   24.4206 C   0  0  0  0  0  0  0  0  0  0  0  0
   11.3670  -18.2168   25.8997 C   0  0  0  0  0  0  0  0  0  0  0  0
   10.1870  -17.6569   26.6331 C   0  0  2  0  0  0  0  0  0  0  0  0
    9.8848  -16.3015   26.1470 N   0  0  0  0  0  0  0  0  0  0  0  0
   10.4733  -17.6049   28.0700 C   0  0  0  0  0  0  0  0  0  0  0  0
   10.6672  -18.6221   28.8009 O   0  0  0  0  0  0  0  0  0  0  0  0
   10.5393  -16.3360   28.6837 O   0  0  0  0  0  0  0  0  0  0  0  0
  2  3  1  6
  2  1  1  0
  4  2  1  0
  4  5  1  0
  5  6  1  1
  7  5  1  0
  7  8  2  0
  9 10  1  0
 10 11  1  0
 11 13  1  0
 11 12  1  1
 13 14  1  6
 14  7  1  0
 15 16  2  0
 15 13  1  0
 17 18  1  0
 18 19  2  0
 20 18  1  0
 20 21  1  0
 22 21  1  6
 22 24  1  0
 22 23  1  0
 23 15  1  0
 24 26  1  0
 25 24  2  0
M  END
$$$$
