LIQ.pdb
     RDKit          3D

 26 25  0  0  1  0  0  0  0  0999 V2000
    6.4668  -19.0390   19.7663 C   0  0  0  0  0  0  0  0  0  0  0  0
    6.8404  -17.5602   19.8569 C   0  0  1  0  0  0  0  0  0  0  0  0
    5.5875  -16.7646   19.6318 C   0  0  0  0  0  0  0  0  0  0  0  0
    7.5435  -17.2539   21.1510 C   0  0  0  0  0  0  0  0  0  0  0  0
    7.8065  -15.7706   21.2083 C   0  0  2  0  0  0  0  0  0  0  0  0
    8.6274  -15.3849   20.1052 N   0  0  0  0  0  0  0  0  0  0  0  0
    8.4662  -15.3729   22.4784 C   0  0  0  0  0  0  0  0  0  0  0  0
    9.7110  -15.5069   22.5556 O   0  0  0  0  0  0  0  0  0  0  0  0
    6.1387  -11.6244   25.6584 C   0  0  0  0  0  0  0  0  0  0  0  0
    7.1954  -12.4583   24.9657 C   0  0  0  0  0  0  0  0  0  0  0  0
    7.3775  -13.7953   25.6992 C   0  0  2  0  0  0  0  0  0  0  0  0
    7.9000  -13.4438   27.0726 C   0  0  0  0  0  0  0  0  0  0  0  0
    8.2632  -14.7063   24.9114 C   0  0  2  0  0  0  0  0  0  0  0  0
    7.6970  -14.8621   23.5531 N   0  0  0  0  0  0  0  0  0  0  0  0
    8.4449  -16.0442   25.5058 C   0  0  0  0  0  0  0  0  0  0  0  0
    7.8787  -17.0623   24.9705 O   0  0  0  0  0  0  0  0  0  0  0  0
   13.5137  -18.8838   25.1229 N   0  0  0  0  0  0  0  0  0  0  0  0
   12.4094  -18.8820   24.2341 C   0  0  0  0  0  0  0  0  0  0  0  0
   12.5443  -19.1023   23.0138 O   0  0  0  0  0  0  0  0  0  0  0  0
   11.0321  -18.6028   24.7988 C   0  0  0  0  0  0  0  0  0  0  0  0
   11.1495  -17.4205   25.7056 C   0  0  0  0  0  0  0  0  0  0  0  0
   10.0936  -17.4420   26.7680 C   0  0  2  0  0  0  0  0  0  0  0  0
    9.2331  -16.2543   26.6512 N   0  0  0  0  0  0  0  0  0  0  0  0
   10.7212  -17.4585   28.0928 C   0  0  0  0  0  0  0  0  0  0  0  0
   11.0105  -18.5109   28.7373 O   0  0  0  0  0  0  0  0  0  0  0  0
   11.0264  -16.2187   28.6934 O   0  0  0  0  0  0  0  0  0  0  0  0
  2  3  1  1
  2  1  1  0
  4  2  1  0
  4  5  1  0
  5  6  1  6
  7  5  1  0
  7  8  2  0
  9 10  1  0
 10 11  1  0
 11 13  1  0
 11 12  1  1
 13 14  1  6
 14  7  1  0
 15 16  2  0
 15 13  1  0
 17 18  1  0
 18 19  2  0
 20 18  1  0
 20 21  1  0
 22 21  1  6
 22 24  1  0
 22 23  1  0
 23 15  1  0
 24 26  1  0
 25 24  2  0
M  END
$$$$
