LIQ.pdb
     RDKit          3D

 26 25  0  0  1  0  0  0  0  0999 V2000
    6.6581  -19.8026   20.6993 C   0  0  0  0  0  0  0  0  0  0  0  0
    6.6141  -18.2768   20.6299 C   0  0  1  0  0  0  0  0  0  0  0  0
    5.1698  -17.8690   20.5956 C   0  0  0  0  0  0  0  0  0  0  0  0
    7.4054  -17.6572   21.7491 C   0  0  0  0  0  0  0  0  0  0  0  0
    7.5175  -16.1767   21.4877 C   0  0  2  0  0  0  0  0  0  0  0  0
    8.2061  -15.9567   20.2561 N   0  0  0  0  0  0  0  0  0  0  0  0
    8.2292  -15.4721   22.5847 C   0  0  0  0  0  0  0  0  0  0  0  0
    9.4801  -15.4051   22.5196 O   0  0  0  0  0  0  0  0  0  0  0  0
    7.0453  -11.3009   26.9743 C   0  0  0  0  0  0  0  0  0  0  0  0
    7.9690  -12.3742   26.4388 C   0  0  0  0  0  0  0  0  0  0  0  0
    7.2698  -13.1637   25.3225 C   0  0  2  0  0  0  0  0  0  0  0  0
    5.9863  -13.6831   25.9271 C   0  0  0  0  0  0  0  0  0  0  0  0
    8.1775  -14.2234   24.7855 C   0  0  2  0  0  0  0  0  0  0  0  0
    7.5007  -14.9024   23.6583 N   0  0  0  0  0  0  0  0  0  0  0  0
    8.5829  -15.2385   25.7762 C   0  0  0  0  0  0  0  0  0  0  0  0
    7.7155  -16.0628   26.2363 O   0  0  0  0  0  0  0  0  0  0  0  0
   13.8407  -17.9121   25.0454 N   0  0  0  0  0  0  0  0  0  0  0  0
   13.4492  -18.6684   26.1787 C   0  0  0  0  0  0  0  0  0  0  0  0
   14.1155  -19.6417   26.5846 O   0  0  0  0  0  0  0  0  0  0  0  0
   12.1823  -18.2700   26.9067 C   0  0  0  0  0  0  0  0  0  0  0  0
   11.6157  -17.0790   26.2035 C   0  0  0  0  0  0  0  0  0  0  0  0
   10.3807  -16.5788   26.8881 C   0  0  2  0  0  0  0  0  0  0  0  0
    9.9060  -15.3462   26.2399 N   0  0  0  0  0  0  0  0  0  0  0  0
   10.6704  -16.3050   28.2989 C   0  0  0  0  0  0  0  0  0  0  0  0
   10.7473  -15.1451   28.8043 O   0  0  0  0  0  0  0  0  0  0  0  0
   10.8772  -17.4069   29.1557 O   0  0  0  0  0  0  0  0  0  0  0  0
  2  3  1  1
  2  1  1  0
  4  2  1  0
  4  5  1  0
  5  6  1  6
  7  5  1  0
  7  8  2  0
  9 10  1  0
 10 11  1  0
 11 13  1  0
 11 12  1  1
 13 14  1  6
 14  7  1  0
 15 16  2  0
 15 13  1  0
 17 18  1  0
 18 19  2  0
 20 18  1  0
 20 21  1  0
 22 21  1  6
 22 24  1  0
 22 23  1  0
 23 15  1  0
 24 26  1  0
 25 24  2  0
M  END
$$$$
