LIQ.pdb
     RDKit          3D

 26 25  0  0  1  0  0  0  0  0999 V2000
    6.8900  -17.3161   18.8733 C   0  0  0  0  0  0  0  0  0  0  0  0
    6.1088  -17.3795   20.1850 C   0  0  1  0  0  0  0  0  0  0  0  0
    5.4803  -18.7402   20.2694 C   0  0  0  0  0  0  0  0  0  0  0  0
    6.9830  -17.0282   21.3577 C   0  0  0  0  0  0  0  0  0  0  0  0
    7.1681  -15.5323   21.3799 C   0  0  2  0  0  0  0  0  0  0  0  0
    7.7950  -15.1073   20.1692 N   0  0  0  0  0  0  0  0  0  0  0  0
    7.9840  -15.0915   22.5403 C   0  0  0  0  0  0  0  0  0  0  0  0
    9.2298  -15.0579   22.3978 O   0  0  0  0  0  0  0  0  0  0  0  0
    5.7969  -11.5360   25.9470 C   0  0  0  0  0  0  0  0  0  0  0  0
    6.8786  -12.2405   25.1560 C   0  0  0  0  0  0  0  0  0  0  0  0
    7.2879  -13.5407   25.8631 C   0  0  2  0  0  0  0  0  0  0  0  0
    7.9598  -13.1168   27.1483 C   0  0  0  0  0  0  0  0  0  0  0  0
    8.1391  -14.3783   24.9636 C   0  0  2  0  0  0  0  0  0  0  0  0
    7.3563  -14.7262   23.7570 N   0  0  0  0  0  0  0  0  0  0  0  0
    8.6377  -15.6223   25.5803 C   0  0  0  0  0  0  0  0  0  0  0  0
    7.8097  -16.5341   25.9364 O   0  0  0  0  0  0  0  0  0  0  0  0
   14.2324  -20.3327   25.2510 N   0  0  0  0  0  0  0  0  0  0  0  0
   13.5638  -19.0938   25.0848 C   0  0  0  0  0  0  0  0  0  0  0  0
   14.0076  -18.1998   24.3367 O   0  0  0  0  0  0  0  0  0  0  0  0
   12.2741  -18.8648   25.8451 C   0  0  0  0  0  0  0  0  0  0  0  0
   11.7711  -17.5061   25.4777 C   0  0  0  0  0  0  0  0  0  0  0  0
   10.4933  -17.1871   26.1913 C   0  0  2  0  0  0  0  0  0  0  0  0
   10.0079  -15.8570   25.7912 N   0  0  0  0  0  0  0  0  0  0  0  0
   10.7144  -17.2077   27.6404 C   0  0  0  0  0  0  0  0  0  0  0  0
   10.7212  -16.1787   28.3805 O   0  0  0  0  0  0  0  0  0  0  0  0
   10.9339  -18.4581   28.2564 O   0  0  0  0  0  0  0  0  0  0  0  0
  2  3  1  1
  2  1  1  0
  4  2  1  0
  4  5  1  0
  5  6  1  6
  7  5  1  0
  7  8  2  0
  9 10  1  0
 10 11  1  0
 11 13  1  0
 11 12  1  1
 13 14  1  6
 14  7  1  0
 15 16  2  0
 15 13  1  0
 17 18  1  0
 18 19  2  0
 20 18  1  0
 20 21  1  0
 22 21  1  6
 22 24  1  0
 22 23  1  0
 23 15  1  0
 24 26  1  0
 25 24  2  0
M  END
$$$$
