LIQ.pdb
     RDKit          3D

 26 25  0  0  1  0  0  0  0  0999 V2000
    7.5577  -12.0337   18.7613 C   0  0  0  0  0  0  0  0  0  0  0  0
    7.5938  -13.4521   19.3285 C   0  0  1  0  0  0  0  0  0  0  0  0
    7.8941  -14.3844   18.1909 C   0  0  0  0  0  0  0  0  0  0  0  0
    8.5545  -13.5538   20.4815 C   0  0  0  0  0  0  0  0  0  0  0  0
    8.1799  -14.7590   21.3060 C   0  0  2  0  0  0  0  0  0  0  0  0
    6.7580  -14.8780   21.3653 N   0  0  0  0  0  0  0  0  0  0  0  0
    8.7274  -14.6798   22.6846 C   0  0  0  0  0  0  0  0  0  0  0  0
    9.9688  -14.5525   22.8124 O   0  0  0  0  0  0  0  0  0  0  0  0
    6.2322  -11.7254   26.1622 C   0  0  0  0  0  0  0  0  0  0  0  0
    7.3547  -12.4745   25.4760 C   0  0  0  0  0  0  0  0  0  0  0  0
    7.4530  -13.9030   26.0313 C   0  0  2  0  0  0  0  0  0  0  0  0
    7.8813  -13.7560   27.4727 C   0  0  0  0  0  0  0  0  0  0  0  0
    8.3736  -14.7277   25.1901 C   0  0  2  0  0  0  0  0  0  0  0  0
    7.8595  -14.7478   23.8026 N   0  0  0  0  0  0  0  0  0  0  0  0
    8.5418  -16.1180   25.6537 C   0  0  0  0  0  0  0  0  0  0  0  0
    7.7030  -17.0173   25.2910 O   0  0  0  0  0  0  0  0  0  0  0  0
   12.0370  -21.0159   23.1994 N   0  0  0  0  0  0  0  0  0  0  0  0
   11.8971  -19.6717   23.6273 C   0  0  0  0  0  0  0  0  0  0  0  0
   12.0538  -18.7112   22.8470 O   0  0  0  0  0  0  0  0  0  0  0  0
   11.5471  -19.4113   25.0776 C   0  0  0  0  0  0  0  0  0  0  0  0
   10.9450  -18.0455   25.1563 C   0  0  0  0  0  0  0  0  0  0  0  0
   10.1586  -17.8689   26.4189 C   0  0  2  0  0  0  0  0  0  0  0  0
    9.6066  -16.5066   26.4857 N   0  0  0  0  0  0  0  0  0  0  0  0
   11.0234  -18.0999   27.5800 C   0  0  0  0  0  0  0  0  0  0  0  0
   11.4047  -17.1960   28.3826 O   0  0  0  0  0  0  0  0  0  0  0  0
   11.4621  -19.4187   27.8235 O   0  0  0  0  0  0  0  0  0  0  0  0
  2  3  1  6
  2  1  1  0
  4  2  1  0
  4  5  1  0
  5  6  1  1
  7  5  1  0
  7  8  2  0
  9 10  1  0
 10 11  1  0
 11 13  1  0
 11 12  1  1
 13 14  1  6
 14  7  1  0
 15 16  2  0
 15 13  1  0
 17 18  1  0
 18 19  2  0
 20 18  1  0
 20 21  1  0
 22 21  1  6
 22 24  1  0
 22 23  1  0
 23 15  1  0
 24 26  1  0
 25 24  2  0
M  END
$$$$
