LIQ.pdb
     RDKit          3D

 26 25  0  0  1  0  0  0  0  0999 V2000
    6.0876  -18.8848   20.1186 C   0  0  0  0  0  0  0  0  0  0  0  0
    6.4802  -17.4085   20.1518 C   0  0  1  0  0  0  0  0  0  0  0  0
    5.2303  -16.6052   19.9376 C   0  0  0  0  0  0  0  0  0  0  0  0
    7.2239  -17.0705   21.4149 C   0  0  0  0  0  0  0  0  0  0  0  0
    7.4264  -15.5773   21.4609 C   0  0  2  0  0  0  0  0  0  0  0  0
    8.1083  -15.1480   20.2819 N   0  0  0  0  0  0  0  0  0  0  0  0
    8.1986  -15.1590   22.6588 C   0  0  0  0  0  0  0  0  0  0  0  0
    9.4484  -15.1150   22.5606 O   0  0  0  0  0  0  0  0  0  0  0  0
    6.0515  -11.5716   26.0892 C   0  0  0  0  0  0  0  0  0  0  0  0
    7.1346  -12.3113   25.3331 C   0  0  0  0  0  0  0  0  0  0  0  0
    7.3944  -13.6774   25.9847 C   0  0  2  0  0  0  0  0  0  0  0  0
    7.9771  -13.3800   27.3466 C   0  0  0  0  0  0  0  0  0  0  0  0
    8.2647  -14.5176   25.1062 C   0  0  2  0  0  0  0  0  0  0  0  0
    7.5268  -14.8255   23.8610 N   0  0  0  0  0  0  0  0  0  0  0  0
    8.7091  -15.7836   25.7195 C   0  0  0  0  0  0  0  0  0  0  0  0
    7.8450  -16.6749   26.0400 O   0  0  0  0  0  0  0  0  0  0  0  0
   14.5351  -20.2440   26.0853 N   0  0  0  0  0  0  0  0  0  0  0  0
   13.6097  -19.3505   25.4896 C   0  0  0  0  0  0  0  0  0  0  0  0
   13.8400  -18.7931   24.3977 O   0  0  0  0  0  0  0  0  0  0  0  0
   12.3080  -19.0752   26.2131 C   0  0  0  0  0  0  0  0  0  0  0  0
   11.7845  -17.7671   25.7142 C   0  0  0  0  0  0  0  0  0  0  0  0
   10.4966  -17.4034   26.3873 C   0  0  2  0  0  0  0  0  0  0  0  0
   10.0654  -16.0616   25.9649 N   0  0  0  0  0  0  0  0  0  0  0  0
   10.6737  -17.4209   27.8425 C   0  0  0  0  0  0  0  0  0  0  0  0
   10.7397  -16.3854   28.5704 O   0  0  0  0  0  0  0  0  0  0  0  0
   10.7769  -18.6759   28.4792 O   0  0  0  0  0  0  0  0  0  0  0  0
  2  3  1  1
  2  1  1  0
  4  2  1  0
  4  5  1  0
  5  6  1  6
  7  5  1  0
  7  8  2  0
  9 10  1  0
 10 11  1  0
 11 13  1  0
 11 12  1  1
 13 14  1  6
 14  7  1  0
 15 16  2  0
 15 13  1  0
 17 18  1  0
 18 19  2  0
 20 18  1  0
 20 21  1  0
 22 21  1  6
 22 24  1  0
 22 23  1  0
 23 15  1  0
 24 26  1  0
 25 24  2  0
M  END
$$$$
