LIQ.pdb
     RDKit          3D

 26 25  0  0  1  0  0  0  0  0999 V2000
    5.9343  -18.7488   20.0699 C   0  0  0  0  0  0  0  0  0  0  0  0
    6.4694  -17.3178   20.0927 C   0  0  1  0  0  0  0  0  0  0  0  0
    5.3883  -16.4242   19.5578 C   0  0  0  0  0  0  0  0  0  0  0  0
    6.9610  -16.9414   21.4637 C   0  0  0  0  0  0  0  0  0  0  0  0
    7.3846  -15.4949   21.4350 C   0  0  2  0  0  0  0  0  0  0  0  0
    8.2215  -15.2613   20.3017 N   0  0  0  0  0  0  0  0  0  0  0  0
    8.1075  -15.1042   22.6725 C   0  0  0  0  0  0  0  0  0  0  0  0
    9.3546  -15.2384   22.6861 O   0  0  0  0  0  0  0  0  0  0  0  0
    5.7348  -11.4064   25.7814 C   0  0  0  0  0  0  0  0  0  0  0  0
    6.8304  -12.1827   25.0821 C   0  0  0  0  0  0  0  0  0  0  0  0
    7.1933  -13.4334   25.8960 C   0  0  2  0  0  0  0  0  0  0  0  0
    7.8349  -12.9263   27.1664 C   0  0  0  0  0  0  0  0  0  0  0  0
    8.0542  -14.3504   25.0879 C   0  0  2  0  0  0  0  0  0  0  0  0
    7.3934  -14.5994   23.7874 N   0  0  0  0  0  0  0  0  0  0  0  0
    8.3368  -15.6471   25.7322 C   0  0  0  0  0  0  0  0  0  0  0  0
    7.4836  -16.6003   25.6484 O   0  0  0  0  0  0  0  0  0  0  0  0
   11.8755  -18.4543   22.9809 N   0  0  0  0  0  0  0  0  0  0  0  0
   12.2181  -19.2102   24.1301 C   0  0  0  0  0  0  0  0  0  0  0  0
   13.1238  -20.0676   24.1100 O   0  0  0  0  0  0  0  0  0  0  0  0
   11.4524  -18.9571   25.4121 C   0  0  0  0  0  0  0  0  0  0  0  0
   10.8500  -17.5927   25.3137 C   0  0  0  0  0  0  0  0  0  0  0  0
   10.0786  -17.2475   26.5505 C   0  0  2  0  0  0  0  0  0  0  0  0
    9.5272  -15.8878   26.4408 N   0  0  0  0  0  0  0  0  0  0  0  0
   10.9572  -17.3221   27.7217 C   0  0  0  0  0  0  0  0  0  0  0  0
   11.3907  -16.3162   28.3595 O   0  0  0  0  0  0  0  0  0  0  0  0
   11.3478  -18.6008   28.1727 O   0  0  0  0  0  0  0  0  0  0  0  0
  2  3  1  1
  2  1  1  0
  4  2  1  0
  4  5  1  0
  5  6  1  6
  7  5  1  0
  7  8  2  0
  9 10  1  0
 10 11  1  0
 11 13  1  0
 11 12  1  1
 13 14  1  6
 14  7  1  0
 15 16  2  0
 15 13  1  0
 17 18  1  0
 18 19  2  0
 20 18  1  0
 20 21  1  0
 22 21  1  6
 22 24  1  0
 22 23  1  0
 23 15  1  0
 24 26  1  0
 25 24  2  0
M  END
$$$$
