IHT.pdb
     RDKit          3D

 26 26  0  0  1  0  0  0  0  0999 V2000
    5.6769  -10.9422   26.6069 C   0  0  0  0  0  0  0  0  0  0  0  0
    5.3242  -12.2333   25.9045 C   0  0  0  0  0  0  0  0  0  0  0  0
    6.5393  -13.0833   25.7323 C   0  0  2  0  0  0  0  0  0  0  0  0
    7.5648  -12.3378   24.8951 C   0  0  0  0  0  0  0  0  0  0  0  0
    6.2645  -14.4556   25.1770 C   0  0  2  0  0  0  0  0  0  0  0  0
    5.2967  -15.0745   26.0589 N   0  0  0  0  0  0  0  0  0  0  0  0
    7.4429  -15.3106   25.0908 C   0  0  0  0  0  0  0  0  0  0  0  0
    7.8680  -16.0330   26.0344 O   0  0  0  0  0  0  0  0  0  0  0  0
    8.1761  -15.3490   23.8756 N   0  0  0  0  0  0  0  0  0  0  0  0
    9.2399  -16.3287   23.6218 C   0  0  1  0  0  0  0  0  0  0  0  0
    9.7494  -16.0230   22.2422 C   0  0  0  0  0  0  0  0  0  0  0  0
   10.6803  -17.0332   21.6953 C   0  0  0  0  0  0  0  0  0  0  0  0
   11.1003  -18.2186   22.2126 C   0  0  0  0  0  0  0  0  0  0  0  0
   11.9114  -18.8283   21.3075 N   0  0  0  0  0  0  0  0  0  0  0  0
   11.9971  -18.0403   20.2421 C   0  0  0  0  0  0  0  0  0  0  0  0
   11.2623  -16.9552   20.4573 N   0  0  0  0  0  0  0  0  0  0  0  0
   10.3381  -15.9333   24.5695 C   0  0  0  0  0  0  0  0  0  0  0  0
   11.1220  -14.9955   24.3615 O   0  0  0  0  0  0  0  0  0  0  0  0
   10.4457  -14.5920   27.8169 C   0  0  0  0  0  0  0  0  0  0  0  0
   11.1135  -15.9364   28.0099 C   0  0  1  0  0  0  0  0  0  0  0  0
   10.1085  -16.8367   28.3674 O   0  0  0  0  0  0  0  0  0  0  0  0
   11.6327  -16.3687   26.6363 C   0  0  2  0  0  0  0  0  0  0  0  0
   10.5087  -16.6527   25.7680 N   0  0  0  0  0  0  0  0  0  0  0  0
   12.5235  -17.5552   26.7738 C   0  0  0  0  0  0  0  0  0  0  0  0
   12.1618  -18.6645   26.3007 O   0  0  0  0  0  0  0  0  0  0  0  0
   13.7476  -17.5023   27.4042 O   0  0  0  0  0  0  0  0  0  0  0  0
  2  3  1  0
  2  1  1  0
  3  4  1  6
  5  6  1  1
  5  3  1  0
  7  5  1  0
  8  7  2  0
  9  7  1  0
 10  9  1  0
 11 12  1  0
 10 11  1  6
 12 16  1  0
 13 14  1  0
 13 12  2  0
 14 15  1  0
 15 16  2  0
 17 10  1  0
 17 18  2  0
 20 22  1  0
 20 19  1  6
 21 20  1  0
 22 23  1  6
 23 17  1  0
 24 22  1  0
 25 24  2  0
 26 24  1  0
M  END
$$$$
