IHT.pdb
     RDKit          3D

 26 26  0  0  1  0  0  0  0  0999 V2000
    6.9010  -11.5612   27.7905 C   0  0  0  0  0  0  0  0  0  0  0  0
    6.1884  -12.4044   26.7582 C   0  0  0  0  0  0  0  0  0  0  0  0
    7.1244  -13.4038   26.1634 C   0  0  2  0  0  0  0  0  0  0  0  0
    8.3735  -12.6954   25.6672 C   0  0  0  0  0  0  0  0  0  0  0  0
    6.5140  -14.2653   25.0899 C   0  0  2  0  0  0  0  0  0  0  0  0
    5.4456  -15.0155   25.7168 N   0  0  0  0  0  0  0  0  0  0  0  0
    7.4490  -15.1979   24.4709 C   0  0  0  0  0  0  0  0  0  0  0  0
    7.6266  -16.3870   24.8549 O   0  0  0  0  0  0  0  0  0  0  0  0
    8.2210  -14.7619   23.3619 N   0  0  0  0  0  0  0  0  0  0  0  0
    9.0643  -15.6713   22.5760 C   0  0  1  0  0  0  0  0  0  0  0  0
    9.5922  -14.8481   21.4358 C   0  0  0  0  0  0  0  0  0  0  0  0
    8.5984  -14.5531   20.3817 C   0  0  0  0  0  0  0  0  0  0  0  0
    7.3065  -14.9562   20.2484 C   0  0  0  0  0  0  0  0  0  0  0  0
    6.7775  -14.3713   19.1407 N   0  0  0  0  0  0  0  0  0  0  0  0
    7.7200  -13.6144   18.5908 C   0  0  0  0  0  0  0  0  0  0  0  0
    8.8229  -13.7111   19.3243 N   0  0  0  0  0  0  0  0  0  0  0  0
   10.2405  -15.9479   23.4708 C   0  0  0  0  0  0  0  0  0  0  0  0
   10.9517  -15.0613   23.9662 O   0  0  0  0  0  0  0  0  0  0  0  0
   10.3741  -18.3765   26.4910 C   0  0  0  0  0  0  0  0  0  0  0  0
   11.4160  -18.8005   25.4784 C   0  0  1  0  0  0  0  0  0  0  0  0
   10.8070  -19.7392   24.6441 O   0  0  0  0  0  0  0  0  0  0  0  0
   11.7190  -17.5697   24.6201 C   0  0  2  0  0  0  0  0  0  0  0  0
   10.5758  -17.2804   23.7789 N   0  0  0  0  0  0  0  0  0  0  0  0
   12.9453  -17.8004   23.8058 C   0  0  0  0  0  0  0  0  0  0  0  0
   12.8497  -17.9265   22.5567 O   0  0  0  0  0  0  0  0  0  0  0  0
   14.2049  -17.8848   24.3581 O   0  0  0  0  0  0  0  0  0  0  0  0
  2  3  1  0
  2  1  1  0
  3  4  1  6
  5  6  1  1
  5  3  1  0
  7  5  1  0
  8  7  2  0
  9  7  1  0
 10  9  1  0
 11 12  1  0
 10 11  1  6
 12 16  1  0
 13 14  1  0
 13 12  2  0
 14 15  1  0
 15 16  2  0
 17 10  1  0
 17 18  2  0
 20 22  1  0
 20 19  1  1
 21 20  1  0
 22 23  1  6
 23 17  1  0
 24 22  1  0
 25 24  2  0
 26 24  1  0
M  END
$$$$
