IHT.pdb
     RDKit          3D

 26 26  0  0  1  0  0  0  0  0999 V2000
    5.9196  -10.8639   26.8606 C   0  0  0  0  0  0  0  0  0  0  0  0
    5.4515  -12.1397   26.1989 C   0  0  0  0  0  0  0  0  0  0  0  0
    6.5981  -13.0738   25.9953 C   0  0  2  0  0  0  0  0  0  0  0  0
    7.7077  -12.3578   25.2440 C   0  0  0  0  0  0  0  0  0  0  0  0
    6.2303  -14.3740   25.3310 C   0  0  2  0  0  0  0  0  0  0  0  0
    5.1431  -14.9412   26.1015 N   0  0  0  0  0  0  0  0  0  0  0  0
    7.3212  -15.3400   25.2672 C   0  0  0  0  0  0  0  0  0  0  0  0
    7.6367  -16.1198   26.2081 O   0  0  0  0  0  0  0  0  0  0  0  0
    8.0928  -15.4269   24.0785 N   0  0  0  0  0  0  0  0  0  0  0  0
    9.1405  -16.4372   23.8852 C   0  0  1  0  0  0  0  0  0  0  0  0
    9.6791  -16.2008   22.5030 C   0  0  0  0  0  0  0  0  0  0  0  0
   10.7246  -17.1574   22.0813 C   0  0  0  0  0  0  0  0  0  0  0  0
   11.2380  -18.2427   22.7199 C   0  0  0  0  0  0  0  0  0  0  0  0
   12.1392  -18.8470   21.9004 N   0  0  0  0  0  0  0  0  0  0  0  0
   12.1888  -18.1540   20.7687 C   0  0  0  0  0  0  0  0  0  0  0  0
   11.3438  -17.1336   20.8591 N   0  0  0  0  0  0  0  0  0  0  0  0
   10.2306  -16.0230   24.8344 C   0  0  0  0  0  0  0  0  0  0  0  0
   10.8898  -14.9800   24.7122 O   0  0  0  0  0  0  0  0  0  0  0  0
   10.8180  -14.4171   27.4996 C   0  0  0  0  0  0  0  0  0  0  0  0
   11.2657  -15.7773   27.9893 C   0  0  1  0  0  0  0  0  0  0  0  0
   10.1332  -16.4133   28.5003 O   0  0  0  0  0  0  0  0  0  0  0  0
   11.7015  -16.5666   26.7522 C   0  0  2  0  0  0  0  0  0  0  0  0
   10.5415  -16.8486   25.9319 N   0  0  0  0  0  0  0  0  0  0  0  0
   12.3933  -17.8215   27.1607 C   0  0  0  0  0  0  0  0  0  0  0  0
   11.8672  -18.9359   26.9025 O   0  0  0  0  0  0  0  0  0  0  0  0
   13.6034  -17.8278   27.8197 O   0  0  0  0  0  0  0  0  0  0  0  0
  2  3  1  0
  2  1  1  0
  3  4  1  6
  5  6  1  1
  5  3  1  0
  7  5  1  0
  8  7  2  0
  9  7  1  0
 10  9  1  0
 11 12  1  0
 10 11  1  6
 12 16  1  0
 13 14  1  0
 13 12  2  0
 14 15  1  0
 15 16  2  0
 17 10  1  0
 17 18  2  0
 20 22  1  0
 20 19  1  6
 21 20  1  0
 22 23  1  6
 23 17  1  0
 24 22  1  0
 25 24  2  0
 26 24  1  0
M  END
$$$$
