IHT.pdb
     RDKit          3D

 26 26  0  0  1  0  0  0  0  0999 V2000
    7.5462  -11.9297   27.1066 C   0  0  0  0  0  0  0  0  0  0  0  0
    7.1112  -13.3145   26.6853 C   0  0  0  0  0  0  0  0  0  0  0  0
    7.1432  -13.4424   25.1982 C   0  0  2  0  0  0  0  0  0  0  0  0
    6.1899  -12.4325   24.5822 C   0  0  0  0  0  0  0  0  0  0  0  0
    6.8797  -14.8343   24.6881 C   0  0  2  0  0  0  0  0  0  0  0  0
    5.6640  -15.2889   25.3306 N   0  0  0  0  0  0  0  0  0  0  0  0
    7.9494  -15.7848   24.9697 C   0  0  0  0  0  0  0  0  0  0  0  0
    7.8885  -16.6823   25.8549 O   0  0  0  0  0  0  0  0  0  0  0  0
    9.1475  -15.7150   24.2110 N   0  0  0  0  0  0  0  0  0  0  0  0
   10.2134  -16.7190   24.3177 C   0  0  1  0  0  0  0  0  0  0  0  0
   11.1032  -16.4911   23.1292 C   0  0  0  0  0  0  0  0  0  0  0  0
   10.5685  -17.0154   21.8544 C   0  0  0  0  0  0  0  0  0  0  0  0
    9.4885  -17.8040   21.6076 C   0  0  0  0  0  0  0  0  0  0  0  0
    9.3645  -17.9683   20.2635 N   0  0  0  0  0  0  0  0  0  0  0  0
   10.3477  -17.2940   19.6787 C   0  0  0  0  0  0  0  0  0  0  0  0
   11.0824  -16.7137   20.6205 N   0  0  0  0  0  0  0  0  0  0  0  0
   11.0056  -16.2881   25.5209 C   0  0  0  0  0  0  0  0  0  0  0  0
   11.5627  -15.1848   25.6188 O   0  0  0  0  0  0  0  0  0  0  0  0
   10.9274  -14.4837   27.3249 C   0  0  0  0  0  0  0  0  0  0  0  0
   10.9658  -15.5407   28.4074 C   0  0  1  0  0  0  0  0  0  0  0  0
    9.6535  -15.9819   28.5850 O   0  0  0  0  0  0  0  0  0  0  0  0
   11.7607  -16.7197   27.8405 C   0  0  2  0  0  0  0  0  0  0  0  0
   11.1390  -17.1686   26.6117 N   0  0  0  0  0  0  0  0  0  0  0  0
   11.8339  -17.8195   28.8431 C   0  0  0  0  0  0  0  0  0  0  0  0
   11.2111  -18.8940   28.6364 O   0  0  0  0  0  0  0  0  0  0  0  0
   12.5621  -17.7216   30.0087 O   0  0  0  0  0  0  0  0  0  0  0  0
  2  3  1  0
  2  1  1  0
  3  4  1  6
  5  6  1  1
  5  3  1  0
  7  5  1  0
  8  7  2  0
  9  7  1  0
 10  9  1  0
 11 12  1  0
 10 11  1  6
 12 16  1  0
 13 14  1  0
 13 12  2  0
 14 15  1  0
 15 16  2  0
 17 10  1  0
 17 18  2  0
 20 22  1  0
 20 19  1  6
 21 20  1  0
 22 23  1  6
 23 17  1  0
 24 22  1  0
 25 24  2  0
 26 24  1  0
M  END
$$$$
