IHT.pdb
     RDKit          3D

 26 26  0  0  1  0  0  0  0  0999 V2000
    7.1424  -11.9652   28.2015 C   0  0  0  0  0  0  0  0  0  0  0  0
    6.1649  -12.6663   27.2863 C   0  0  0  0  0  0  0  0  0  0  0  0
    6.8937  -13.4562   26.2502 C   0  0  2  0  0  0  0  0  0  0  0  0
    7.8510  -12.5459   25.4996 C   0  0  0  0  0  0  0  0  0  0  0  0
    6.0007  -14.2177   25.3069 C   0  0  2  0  0  0  0  0  0  0  0  0
    5.2743  -15.1804   26.1087 N   0  0  0  0  0  0  0  0  0  0  0  0
    6.7151  -14.9236   24.2493 C   0  0  0  0  0  0  0  0  0  0  0  0
    7.1753  -16.0935   24.3602 O   0  0  0  0  0  0  0  0  0  0  0  0
    6.9181  -14.2717   23.0043 N   0  0  0  0  0  0  0  0  0  0  0  0
    7.5656  -14.9282   21.8617 C   0  0  1  0  0  0  0  0  0  0  0  0
    7.5613  -13.9112   20.7563 C   0  0  0  0  0  0  0  0  0  0  0  0
    8.1366  -14.3901   19.4813 C   0  0  0  0  0  0  0  0  0  0  0  0
    8.6230  -15.6121   19.1358 C   0  0  0  0  0  0  0  0  0  0  0  0
    8.9861  -15.5842   17.8257 N   0  0  0  0  0  0  0  0  0  0  0  0
    8.7307  -14.3677   17.3584 C   0  0  0  0  0  0  0  0  0  0  0  0
    8.2188  -13.6352   18.3407 N   0  0  0  0  0  0  0  0  0  0  0  0
    9.0002  -15.0764   22.2870 C   0  0  0  0  0  0  0  0  0  0  0  0
    9.6731  -14.1543   22.7709 O   0  0  0  0  0  0  0  0  0  0  0  0
   10.5990  -17.2773   24.7392 C   0  0  0  0  0  0  0  0  0  0  0  0
   11.2089  -17.6709   23.4112 C   0  0  1  0  0  0  0  0  0  0  0  0
   10.4200  -18.7006   22.8960 O   0  0  0  0  0  0  0  0  0  0  0  0
   11.0400  -16.4691   22.4782 C   0  0  2  0  0  0  0  0  0  0  0  0
    9.6400  -16.3218   22.1371 N   0  0  0  0  0  0  0  0  0  0  0  0
   11.8786  -16.6432   21.2590 C   0  0  0  0  0  0  0  0  0  0  0  0
   11.3320  -16.9329   20.1624 O   0  0  0  0  0  0  0  0  0  0  0  0
   13.2492  -16.5011   21.2675 O   0  0  0  0  0  0  0  0  0  0  0  0
  2  3  1  0
  2  1  1  0
  3  4  1  6
  5  6  1  1
  5  3  1  0
  7  5  1  0
  8  7  2  0
  9  7  1  0
 10  9  1  0
 11 12  1  0
 10 11  1  6
 12 16  1  0
 13 14  1  0
 13 12  2  0
 14 15  1  0
 15 16  2  0
 17 10  1  0
 17 18  2  0
 20 22  1  0
 20 19  1  1
 21 20  1  0
 22 23  1  6
 23 17  1  0
 24 22  1  0
 25 24  2  0
 26 24  1  0
M  END
$$$$
