IHT.pdb
     RDKit          3D

 26 26  0  0  1  0  0  0  0  0999 V2000
    7.0412  -11.8487   20.4204 C   0  0  0  0  0  0  0  0  0  0  0  0
    7.6056  -13.1921   20.0185 C   0  0  0  0  0  0  0  0  0  0  0  0
    7.8980  -14.0186   21.2268 C   0  0  2  0  0  0  0  0  0  0  0  0
    8.8234  -13.2499   22.1547 C   0  0  0  0  0  0  0  0  0  0  0  0
    8.4342  -15.3929   20.9251 C   0  0  2  0  0  0  0  0  0  0  0  0
    7.4217  -16.0714   20.1431 N   0  0  0  0  0  0  0  0  0  0  0  0
    8.7320  -16.1896   22.1099 C   0  0  0  0  0  0  0  0  0  0  0  0
    7.8635  -16.7971   22.7952 O   0  0  0  0  0  0  0  0  0  0  0  0
   10.0804  -16.3039   22.5396 N   0  0  0  0  0  0  0  0  0  0  0  0
   10.4852  -17.1590   23.6624 C   0  0  1  0  0  0  0  0  0  0  0  0
   11.7564  -17.8276   23.2227 C   0  0  0  0  0  0  0  0  0  0  0  0
   11.5590  -19.0090   22.3560 C   0  0  0  0  0  0  0  0  0  0  0  0
   10.4603  -19.7856   22.1585 C   0  0  0  0  0  0  0  0  0  0  0  0
   10.7493  -20.7210   21.2149 N   0  0  0  0  0  0  0  0  0  0  0  0
   12.0054  -20.5332   20.8271 C   0  0  0  0  0  0  0  0  0  0  0  0
   12.5088  -19.5068   21.5029 N   0  0  0  0  0  0  0  0  0  0  0  0
   10.8760  -16.1882   24.7420 C   0  0  0  0  0  0  0  0  0  0  0  0
   11.3943  -15.0840   24.5197 O   0  0  0  0  0  0  0  0  0  0  0  0
    8.5414  -14.8804   27.0221 C   0  0  0  0  0  0  0  0  0  0  0  0
    9.9572  -14.3544   26.9259 C   0  0  1  0  0  0  0  0  0  0  0  0
   10.1430  -13.4993   28.0133 O   0  0  0  0  0  0  0  0  0  0  0  0
   10.8853  -15.5534   27.1366 C   0  0  2  0  0  0  0  0  0  0  0  0
   10.6527  -16.5277   26.0902 N   0  0  0  0  0  0  0  0  0  0  0  0
   10.6623  -16.1450   28.4859 C   0  0  0  0  0  0  0  0  0  0  0  0
   10.0166  -17.2202   28.5963 O   0  0  0  0  0  0  0  0  0  0  0  0
   11.1348  -15.5661   29.6436 O   0  0  0  0  0  0  0  0  0  0  0  0
  2  3  1  0
  2  1  1  0
  3  4  1  1
  5  6  1  6
  5  3  1  0
  7  5  1  0
  8  7  2  0
  9  7  1  0
 10  9  1  0
 11 12  1  0
 10 11  1  6
 12 16  1  0
 13 14  1  0
 13 12  2  0
 14 15  1  0
 15 16  2  0
 17 10  1  0
 17 18  2  0
 20 22  1  0
 20 19  1  1
 21 20  1  0
 22 23  1  6
 23 17  1  0
 24 22  1  0
 25 24  2  0
 26 24  1  0
M  END
$$$$
