IHT.pdb
     RDKit          3D

 26 26  0  0  1  0  0  0  0  0999 V2000
    6.0017  -11.4543   26.9968 C   0  0  0  0  0  0  0  0  0  0  0  0
    5.6946  -12.5817   26.0380 C   0  0  0  0  0  0  0  0  0  0  0  0
    6.8485  -13.5251   25.9542 C   0  0  2  0  0  0  0  0  0  0  0  0
    8.1158  -12.7489   25.6384 C   0  0  0  0  0  0  0  0  0  0  0  0
    6.6478  -14.6693   24.9962 C   0  0  2  0  0  0  0  0  0  0  0  0
    5.4223  -15.3320   25.3915 N   0  0  0  0  0  0  0  0  0  0  0  0
    7.7342  -15.6423   24.9941 C   0  0  0  0  0  0  0  0  0  0  0  0
    7.8216  -16.6125   25.7967 O   0  0  0  0  0  0  0  0  0  0  0  0
    8.7731  -15.5098   24.0354 N   0  0  0  0  0  0  0  0  0  0  0  0
    9.8864  -16.4618   23.9357 C   0  0  1  0  0  0  0  0  0  0  0  0
   10.5092  -16.2152   22.5911 C   0  0  0  0  0  0  0  0  0  0  0  0
    9.7014  -16.6870   21.4463 C   0  0  0  0  0  0  0  0  0  0  0  0
    8.4746  -17.2727   21.4129 C   0  0  0  0  0  0  0  0  0  0  0  0
    8.1187  -17.4697   20.1154 N   0  0  0  0  0  0  0  0  0  0  0  0
    9.1036  -17.0146   19.3497 C   0  0  0  0  0  0  0  0  0  0  0  0
   10.0647  -16.5394   20.1333 N   0  0  0  0  0  0  0  0  0  0  0  0
   10.8807  -15.9728   24.9521 C   0  0  0  0  0  0  0  0  0  0  0  0
   11.1371  -14.7749   25.1429 O   0  0  0  0  0  0  0  0  0  0  0  0
   10.6562  -14.6481   27.1257 C   0  0  0  0  0  0  0  0  0  0  0  0
   11.2594  -15.8076   27.8888 C   0  0  1  0  0  0  0  0  0  0  0  0
   10.2295  -16.7239   28.1077 O   0  0  0  0  0  0  0  0  0  0  0  0
   12.2614  -16.4786   26.9459 C   0  0  2  0  0  0  0  0  0  0  0  0
   11.5745  -16.9073   25.7448 N   0  0  0  0  0  0  0  0  0  0  0  0
   12.9221  -17.6256   27.6299 C   0  0  0  0  0  0  0  0  0  0  0  0
   12.6546  -18.8028   27.2724 O   0  0  0  0  0  0  0  0  0  0  0  0
   13.8293  -17.4636   28.6544 O   0  0  0  0  0  0  0  0  0  0  0  0
  2  3  1  0
  2  1  1  0
  3  4  1  6
  5  6  1  1
  5  3  1  0
  7  5  1  0
  8  7  2  0
  9  7  1  0
 10  9  1  0
 11 12  1  0
 10 11  1  6
 12 16  1  0
 13 14  1  0
 13 12  2  0
 14 15  1  0
 15 16  2  0
 17 10  1  0
 17 18  2  0
 20 22  1  0
 20 19  1  6
 21 20  1  0
 22 23  1  6
 23 17  1  0
 24 22  1  0
 25 24  2  0
 26 24  1  0
M  END
$$$$
