IHT.pdb
     RDKit          3D

 26 26  0  0  1  0  0  0  0  0999 V2000
    7.8868  -11.6577   19.7400 C   0  0  0  0  0  0  0  0  0  0  0  0
    7.9078  -13.1686   19.7002 C   0  0  0  0  0  0  0  0  0  0  0  0
    9.3059  -13.6753   19.8312 C   0  0  2  0  0  0  0  0  0  0  0  0
   10.1627  -13.0911   18.7208 C   0  0  0  0  0  0  0  0  0  0  0  0
    9.4207  -15.1756   19.8869 C   0  0  2  0  0  0  0  0  0  0  0  0
    8.7934  -15.6852   18.6852 N   0  0  0  0  0  0  0  0  0  0  0  0
    8.7799  -15.7795   21.0495 C   0  0  0  0  0  0  0  0  0  0  0  0
    7.6692  -16.3781   21.0186 O   0  0  0  0  0  0  0  0  0  0  0  0
    9.4295  -15.7015   22.3096 N   0  0  0  0  0  0  0  0  0  0  0  0
    8.8565  -16.2743   23.5341 C   0  0  1  0  0  0  0  0  0  0  0  0
    9.7717  -17.4015   23.9192 C   0  0  0  0  0  0  0  0  0  0  0  0
    9.4835  -18.6833   23.2411 C   0  0  0  0  0  0  0  0  0  0  0  0
    8.6153  -18.9749   22.2360 C   0  0  0  0  0  0  0  0  0  0  0  0
    8.7532  -20.2866   21.9051 N   0  0  0  0  0  0  0  0  0  0  0  0
    9.6915  -20.8071   22.6876 C   0  0  0  0  0  0  0  0  0  0  0  0
   10.1428  -19.8567   23.4980 N   0  0  0  0  0  0  0  0  0  0  0  0
    9.0555  -15.2027   24.5698 C   0  0  0  0  0  0  0  0  0  0  0  0
   10.1146  -14.5746   24.7153 O   0  0  0  0  0  0  0  0  0  0  0  0
    6.6076  -12.3063   25.3738 C   0  0  0  0  0  0  0  0  0  0  0  0
    6.8446  -13.1035   26.6382 C   0  0  1  0  0  0  0  0  0  0  0  0
    5.8385  -14.0691   26.6990 O   0  0  0  0  0  0  0  0  0  0  0  0
    8.1678  -13.8486   26.4448 C   0  0  2  0  0  0  0  0  0  0  0  0
    7.9957  -14.8748   25.4371 N   0  0  0  0  0  0  0  0  0  0  0  0
    8.6232  -14.4314   27.7383 C   0  0  0  0  0  0  0  0  0  0  0  0
    8.6956  -15.6817   27.8677 O   0  0  0  0  0  0  0  0  0  0  0  0
    8.9768  -13.6590   28.8233 O   0  0  0  0  0  0  0  0  0  0  0  0
  2  3  1  0
  2  1  1  0
  3  4  1  6
  5  6  1  6
  5  3  1  0
  7  5  1  0
  8  7  2  0
  9  7  1  0
 10  9  1  0
 11 12  1  0
 10 11  1  1
 12 16  1  0
 13 14  1  0
 13 12  2  0
 14 15  1  0
 15 16  2  0
 17 10  1  0
 17 18  2  0
 20 22  1  0
 20 19  1  6
 21 20  1  0
 22 23  1  6
 23 17  1  0
 24 22  1  0
 25 24  2  0
 26 24  1  0
M  END
$$$$
