IHT.pdb
     RDKit          3D

 26 26  0  0  1  0  0  0  0  0999 V2000
    7.3724  -11.8481   19.7484 C   0  0  0  0  0  0  0  0  0  0  0  0
    7.7535  -13.3046   19.6145 C   0  0  0  0  0  0  0  0  0  0  0  0
    7.7045  -13.9818   20.9440 C   0  0  2  0  0  0  0  0  0  0  0  0
    8.6272  -13.2625   21.9134 C   0  0  0  0  0  0  0  0  0  0  0  0
    7.9918  -15.4592   20.9003 C   0  0  2  0  0  0  0  0  0  0  0  0
    6.9803  -16.0541   20.0516 N   0  0  0  0  0  0  0  0  0  0  0  0
    7.9606  -16.1113   22.2044 C   0  0  0  0  0  0  0  0  0  0  0  0
    6.9079  -16.5102   22.7752 O   0  0  0  0  0  0  0  0  0  0  0  0
    9.1824  -16.3219   22.8964 N   0  0  0  0  0  0  0  0  0  0  0  0
    9.2489  -16.9858   24.2043 C   0  0  1  0  0  0  0  0  0  0  0  0
   10.1977  -18.1364   24.0251 C   0  0  0  0  0  0  0  0  0  0  0  0
   10.4325  -18.9328   25.2485 C   0  0  0  0  0  0  0  0  0  0  0  0
    9.9119  -18.8058   26.4983 C   0  0  0  0  0  0  0  0  0  0  0  0
   10.3845  -19.8174   27.2743 N   0  0  0  0  0  0  0  0  0  0  0  0
   11.1855  -20.5654   26.5243 C   0  0  0  0  0  0  0  0  0  0  0  0
   11.2263  -20.0484   25.3017 N   0  0  0  0  0  0  0  0  0  0  0  0
    9.9572  -15.9939   25.0848 C   0  0  0  0  0  0  0  0  0  0  0  0
   10.9825  -15.3837   24.7476 O   0  0  0  0  0  0  0  0  0  0  0  0
    8.7558  -12.9234   26.3282 C   0  0  0  0  0  0  0  0  0  0  0  0
    9.0971  -13.6616   27.6045 C   0  0  1  0  0  0  0  0  0  0  0  0
    7.9311  -14.3069   28.0197 O   0  0  0  0  0  0  0  0  0  0  0  0
   10.1006  -14.7532   27.2242 C   0  0  2  0  0  0  0  0  0  0  0  0
    9.4491  -15.7250   26.3702 N   0  0  0  0  0  0  0  0  0  0  0  0
   10.6519  -15.3944   28.4510 C   0  0  0  0  0  0  0  0  0  0  0  0
   10.3963  -16.6036   28.6911 O   0  0  0  0  0  0  0  0  0  0  0  0
   11.4432  -14.7207   29.3559 O   0  0  0  0  0  0  0  0  0  0  0  0
  2  3  1  0
  2  1  1  0
  3  4  1  1
  5  6  1  6
  5  3  1  0
  7  5  1  0
  8  7  2  0
  9  7  1  0
 10  9  1  0
 11 12  1  0
 10 11  1  6
 12 16  1  0
 13 14  1  0
 13 12  2  0
 14 15  1  0
 15 16  2  0
 17 10  1  0
 17 18  2  0
 20 22  1  0
 20 19  1  6
 21 20  1  0
 22 23  1  6
 23 17  1  0
 24 22  1  0
 25 24  2  0
 26 24  1  0
M  END
$$$$
