IHT.pdb
     RDKit          3D

 26 26  0  0  1  0  0  0  0  0999 V2000
    6.9337  -12.0264   19.6576 C   0  0  0  0  0  0  0  0  0  0  0  0
    7.6210  -12.7056   18.4953 C   0  0  0  0  0  0  0  0  0  0  0  0
    8.7346  -13.5730   18.9813 C   0  0  2  0  0  0  0  0  0  0  0  0
    9.6357  -12.7708   19.9049 C   0  0  0  0  0  0  0  0  0  0  0  0
    9.5217  -14.2453   17.8879 C   0  0  2  0  0  0  0  0  0  0  0  0
    8.5618  -14.9248   17.0428 N   0  0  0  0  0  0  0  0  0  0  0  0
   10.5010  -15.2137   18.3675 C   0  0  0  0  0  0  0  0  0  0  0  0
   10.2178  -16.3844   18.7447 O   0  0  0  0  0  0  0  0  0  0  0  0
   11.8689  -14.8373   18.4228 N   0  0  0  0  0  0  0  0  0  0  0  0
   12.9306  -15.7644   18.8341 C   0  0  1  0  0  0  0  0  0  0  0  0
   14.2073  -15.1768   18.3040 C   0  0  0  0  0  0  0  0  0  0  0  0
   14.5593  -15.6109   16.9352 C   0  0  0  0  0  0  0  0  0  0  0  0
   14.7795  -16.8551   16.4326 C   0  0  0  0  0  0  0  0  0  0  0  0
   15.0124  -16.7527   15.0968 N   0  0  0  0  0  0  0  0  0  0  0  0
   14.9382  -15.4682   14.7681 C   0  0  0  0  0  0  0  0  0  0  0  0
   14.6659  -14.7658   15.8618 N   0  0  0  0  0  0  0  0  0  0  0  0
   12.9912  -15.6144   20.3290 C   0  0  0  0  0  0  0  0  0  0  0  0
   12.9595  -14.5210   20.9126 O   0  0  0  0  0  0  0  0  0  0  0  0
   11.8118  -17.3973   24.5792 C   0  0  0  0  0  0  0  0  0  0  0  0
   11.8196  -17.5042   23.0696 C   0  0  1  0  0  0  0  0  0  0  0  0
   10.6531  -16.8856   22.6169 O   0  0  0  0  0  0  0  0  0  0  0  0
   12.9950  -16.6566   22.5764 C   0  0  2  0  0  0  0  0  0  0  0  0
   13.0908  -16.7646   21.1352 N   0  0  0  0  0  0  0  0  0  0  0  0
   14.2569  -17.0942   23.2369 C   0  0  0  0  0  0  0  0  0  0  0  0
   15.0648  -17.8304   22.6121 O   0  0  0  0  0  0  0  0  0  0  0  0
   14.5941  -16.7286   24.5220 O   0  0  0  0  0  0  0  0  0  0  0  0
  2  3  1  0
  2  1  1  0
  3  4  1  6
  5  6  1  6
  5  3  1  0
  7  5  1  0
  8  7  2  0
  9  7  1  0
 10  9  1  0
 11 12  1  0
 10 11  1  6
 12 16  1  0
 13 14  1  0
 13 12  2  0
 14 15  1  0
 15 16  2  0
 17 10  1  0
 17 18  2  0
 20 22  1  0
 20 19  1  1
 21 20  1  0
 22 23  1  6
 23 17  1  0
 24 22  1  0
 25 24  2  0
 26 24  1  0
M  END
$$$$
