EEP.pdb
     RDKit          3D

 26 26  0  0  1  0  0  0  0  0999 V2000
   18.4050  -12.9791  -15.0034 N   0  0  0  0  0  0  0  0  0  0  0  0
   18.3435  -11.6208  -15.5472 C   0  0  1  0  0  0  0  0  0  0  0  0
   17.0276  -11.4878  -16.2356 C   0  0  0  0  0  0  0  0  0  0  0  0
   16.0523  -12.5696  -15.9573 C   0  0  0  0  0  0  0  0  0  0  0  0
   14.7371  -12.3933  -16.5784 C   0  0  0  0  0  0  0  0  0  0  0  0
   14.5693  -12.9564  -17.7137 O   0  0  0  0  0  0  0  0  0  0  0  0
   18.5428  -10.6703  -14.4549 C   0  0  0  0  0  0  0  0  0  0  0  0
   18.2070  -10.9475  -13.2761 O   0  0  0  0  0  0  0  0  0  0  0  0
   13.6772  -11.6935  -16.0734 O   0  0  0  0  0  0  0  0  0  0  0  0
   19.1238   -9.3954  -14.6813 N   0  0  0  0  0  0  0  0  0  0  0  0
   19.2554   -8.4070  -13.6206 C   0  0  1  0  0  0  0  0  0  0  0  0
   20.4060   -7.4859  -13.9332 C   0  0  0  0  0  0  0  0  0  0  0  0
   20.5805   -6.4374  -12.8852 C   0  0  0  0  0  0  0  0  0  0  0  0
   21.6918   -5.4902  -13.2548 C   0  0  0  0  0  0  0  0  0  0  0  0
   22.3603   -4.9799  -12.3498 O   0  0  0  0  0  0  0  0  0  0  0  0
   18.0387   -7.7588  -13.1885 C   0  0  0  0  0  0  0  0  0  0  0  0
   17.1808   -7.4407  -14.1231 O   0  0  0  0  0  0  0  0  0  0  0  0
   21.9252   -5.2262  -14.5703 O   0  0  0  0  0  0  0  0  0  0  0  0
   17.5941   -7.3965  -11.8993 N   0  0  0  0  0  0  0  0  0  0  0  0
   18.3567   -7.6269  -10.6887 C   0  0  0  0  0  0  0  0  0  0  0  0
   17.3452   -7.6972   -9.5932 C   0  0  0  0  0  0  0  0  0  0  0  0
   16.0257   -7.3225  -10.1834 C   0  0  0  0  0  0  0  0  0  0  0  0
   16.3907   -6.7413  -11.5424 C   0  0  1  0  0  0  0  0  0  0  0  0
   16.4983   -5.2670  -11.4547 C   0  0  0  0  0  0  0  0  0  0  0  0
   15.5588   -4.4878  -11.2548 O   0  0  0  0  0  0  0  0  0  0  0  0
   17.7706   -4.7182  -11.6120 O   0  0  0  0  0  0  0  0  0  0  0  0
  2  1  1  1
  2  7  1  0
  3  2  1  0
  3  4  1  0
  4  5  1  0
  5  9  1  0
  5  6  2  0
  7  8  2  0
 10  7  1  0
 10 11  1  0
 11 16  1  0
 11 12  1  6
 12 13  1  0
 13 14  1  0
 14 18  1  0
 14 15  2  0
 16 17  2  0
 19 23  1  0
 19 16  1  0
 20 19  1  0
 21 20  1  0
 21 22  1  0
 22 23  1  0
 23 24  1  1
 24 26  1  0
 25 24  2  0
M  END
$$$$
