EEP.pdb
     RDKit          3D

 26 26  0  0  1  0  0  0  0  0999 V2000
   20.0710  -13.1061  -15.2859 N   0  0  0  0  0  0  0  0  0  0  0  0
   19.9285  -12.5042  -16.6132 C   0  0  1  0  0  0  0  0  0  0  0  0
   18.9893  -13.3690  -17.3835 C   0  0  0  0  0  0  0  0  0  0  0  0
   17.9369  -14.0375  -16.5808 C   0  0  0  0  0  0  0  0  0  0  0  0
   16.9538  -14.7972  -17.3573 C   0  0  0  0  0  0  0  0  0  0  0  0
   17.1557  -14.8575  -18.6181 O   0  0  0  0  0  0  0  0  0  0  0  0
   19.4731  -11.1244  -16.4544 C   0  0  0  0  0  0  0  0  0  0  0  0
   18.3214  -10.7697  -16.8106 O   0  0  0  0  0  0  0  0  0  0  0  0
   15.8499  -15.4441  -16.8769 O   0  0  0  0  0  0  0  0  0  0  0  0
   20.3134  -10.1290  -15.8914 N   0  0  0  0  0  0  0  0  0  0  0  0
   19.8419   -8.7765  -15.6313 C   0  0  1  0  0  0  0  0  0  0  0  0
   18.4669   -8.8338  -15.0181 C   0  0  0  0  0  0  0  0  0  0  0  0
   17.3983   -8.5418  -16.0185 C   0  0  0  0  0  0  0  0  0  0  0  0
   16.0587   -8.3980  -15.3450 C   0  0  0  0  0  0  0  0  0  0  0  0
   15.2198   -9.2919  -15.4987 O   0  0  0  0  0  0  0  0  0  0  0  0
   20.7744   -7.8812  -14.9862 C   0  0  0  0  0  0  0  0  0  0  0  0
   21.4320   -8.3593  -13.9617 O   0  0  0  0  0  0  0  0  0  0  0  0
   15.8139   -7.2914  -14.5900 O   0  0  0  0  0  0  0  0  0  0  0  0
   21.1155   -6.5421  -15.2715 N   0  0  0  0  0  0  0  0  0  0  0  0
   20.4995   -5.7596  -16.3243 C   0  0  0  0  0  0  0  0  0  0  0  0
   21.5102   -4.7230  -16.6876 C   0  0  0  0  0  0  0  0  0  0  0  0
   22.6249   -4.8250  -15.6992 C   0  0  0  0  0  0  0  0  0  0  0  0
   22.0568   -5.7197  -14.6062 C   0  0  1  0  0  0  0  0  0  0  0  0
   21.4875   -4.8948  -13.5161 C   0  0  0  0  0  0  0  0  0  0  0  0
   20.2821   -4.7316  -13.2920 O   0  0  0  0  0  0  0  0  0  0  0  0
   22.3941   -4.2506  -12.6750 O   0  0  0  0  0  0  0  0  0  0  0  0
  2  1  1  1
  2  7  1  0
  3  2  1  0
  3  4  1  0
  4  5  1  0
  5  9  1  0
  5  6  2  0
  7  8  2  0
 10  7  1  0
 10 11  1  0
 11 16  1  0
 11 12  1  1
 12 13  1  0
 13 14  1  0
 14 18  1  0
 14 15  2  0
 16 17  2  0
 19 23  1  0
 19 16  1  0
 20 19  1  0
 21 20  1  0
 21 22  1  0
 22 23  1  0
 23 24  1  1
 24 26  1  0
 25 24  2  0
M  END
$$$$
