EEP.pdb
     RDKit          3D

 26 26  0  0  1  0  0  0  0  0999 V2000
   27.8895  -20.7704  -15.9679 N   0  0  0  0  0  0  0  0  0  0  0  0
   28.0144  -19.4110  -15.4379 C   0  0  1  0  0  0  0  0  0  0  0  0
   27.7998  -18.4779  -16.5810 C   0  0  0  0  0  0  0  0  0  0  0  0
   28.4971  -18.8416  -17.8382 C   0  0  0  0  0  0  0  0  0  0  0  0
   27.9542  -20.0124  -18.5317 C   0  0  0  0  0  0  0  0  0  0  0  0
   28.7986  -20.9121  -18.8654 O   0  0  0  0  0  0  0  0  0  0  0  0
   27.0570  -19.2451  -14.3461 C   0  0  0  0  0  0  0  0  0  0  0  0
   26.9320  -18.1482  -13.7455 O   0  0  0  0  0  0  0  0  0  0  0  0
   26.6466  -20.2413  -18.8571 O   0  0  0  0  0  0  0  0  0  0  0  0
   26.2293  -20.3161  -13.9196 N   0  0  0  0  0  0  0  0  0  0  0  0
   25.2805  -20.1709  -12.8252 C   0  0  1  0  0  0  0  0  0  0  0  0
   23.8812  -20.3802  -13.3432 C   0  0  0  0  0  0  0  0  0  0  0  0
   23.4590  -19.2846  -14.2647 C   0  0  0  0  0  0  0  0  0  0  0  0
   22.0405  -19.4909  -14.7278 C   0  0  0  0  0  0  0  0  0  0  0  0
   21.4134  -20.4650  -14.2985 O   0  0  0  0  0  0  0  0  0  0  0  0
   25.6001  -20.8636  -11.5983 C   0  0  0  0  0  0  0  0  0  0  0  0
   26.0131  -22.0993  -11.7139 O   0  0  0  0  0  0  0  0  0  0  0  0
   21.4945  -18.6010  -15.6022 O   0  0  0  0  0  0  0  0  0  0  0  0
   25.5466  -20.4340  -10.2553 N   0  0  0  0  0  0  0  0  0  0  0  0
   25.2156  -19.0815   -9.8538 C   0  0  0  0  0  0  0  0  0  0  0  0
   25.8588  -18.8981   -8.5193 C   0  0  0  0  0  0  0  0  0  0  0  0
   26.3995  -20.2258   -8.1016 C   0  0  0  0  0  0  0  0  0  0  0  0
   25.7634  -21.1994   -9.0840 C   0  0  1  0  0  0  0  0  0  0  0  0
   24.5357  -21.7855   -8.4990 C   0  0  0  0  0  0  0  0  0  0  0  0
   24.4964  -22.5542   -7.5309 O   0  0  0  0  0  0  0  0  0  0  0  0
   23.3250  -21.4362   -9.0963 O   0  0  0  0  0  0  0  0  0  0  0  0
  2  1  1  6
  2  7  1  0
  3  2  1  0
  3  4  1  0
  4  5  1  0
  5  9  1  0
  5  6  2  0
  7  8  2  0
 10  7  1  0
 10 11  1  0
 11 16  1  0
 11 12  1  6
 12 13  1  0
 13 14  1  0
 14 18  1  0
 14 15  2  0
 16 17  2  0
 19 23  1  0
 19 16  1  0
 20 19  1  0
 21 20  1  0
 21 22  1  0
 22 23  1  0
 23 24  1  1
 24 26  1  0
 25 24  2  0
M  END
$$$$
