EEP.pdb
     RDKit          3D

 26 26  0  0  1  0  0  0  0  0999 V2000
   23.0634  -12.7960  -17.9240 N   0  0  0  0  0  0  0  0  0  0  0  0
   23.0603  -12.2258  -16.5751 C   0  0  1  0  0  0  0  0  0  0  0  0
   24.4858  -12.0642  -16.1687 C   0  0  0  0  0  0  0  0  0  0  0  0
   25.2309  -13.3270  -15.9468 C   0  0  0  0  0  0  0  0  0  0  0  0
   26.3196  -13.5789  -16.8943 C   0  0  0  0  0  0  0  0  0  0  0  0
   26.4459  -12.7348  -17.8459 O   0  0  0  0  0  0  0  0  0  0  0  0
   22.3022  -10.9765  -16.5973 C   0  0  0  0  0  0  0  0  0  0  0  0
   22.3574  -10.1942  -17.5793 O   0  0  0  0  0  0  0  0  0  0  0  0
   27.2090  -14.6164  -16.8668 O   0  0  0  0  0  0  0  0  0  0  0  0
   21.4726  -10.5959  -15.5106 N   0  0  0  0  0  0  0  0  0  0  0  0
   20.7505   -9.3319  -15.4954 C   0  0  1  0  0  0  0  0  0  0  0  0
   19.3853   -9.5411  -14.8934 C   0  0  0  0  0  0  0  0  0  0  0  0
   18.5793  -10.5282  -15.6705 C   0  0  0  0  0  0  0  0  0  0  0  0
   17.2663  -10.8049  -14.9862 C   0  0  0  0  0  0  0  0  0  0  0  0
   17.2075  -11.7309  -14.1703 O   0  0  0  0  0  0  0  0  0  0  0  0
   21.4756   -8.1808  -15.0091 C   0  0  0  0  0  0  0  0  0  0  0  0
   22.3870   -8.4047  -14.0981 O   0  0  0  0  0  0  0  0  0  0  0  0
   16.1880  -10.0291  -15.2863 O   0  0  0  0  0  0  0  0  0  0  0  0
   21.3757   -6.8155  -15.3510 N   0  0  0  0  0  0  0  0  0  0  0  0
   20.4847   -6.3029  -16.3725 C   0  0  0  0  0  0  0  0  0  0  0  0
   21.1081   -5.0282  -16.8357 C   0  0  0  0  0  0  0  0  0  0  0  0
   22.2629   -4.7455  -15.9321 C   0  0  0  0  0  0  0  0  0  0  0  0
   22.0646   -5.7189  -14.7784 C   0  0  1  0  0  0  0  0  0  0  0  0
   21.3441   -5.0546  -13.6683 C   0  0  0  0  0  0  0  0  0  0  0  0
   21.8002   -4.1572  -12.9498 O   0  0  0  0  0  0  0  0  0  0  0  0
   20.0408   -5.4830  -13.4181 O   0  0  0  0  0  0  0  0  0  0  0  0
  2  1  1  6
  2  7  1  0
  3  2  1  0
  3  4  1  0
  4  5  1  0
  5  9  1  0
  5  6  2  0
  7  8  2  0
 10  7  1  0
 10 11  1  0
 11 16  1  0
 11 12  1  1
 12 13  1  0
 13 14  1  0
 14 18  1  0
 14 15  2  0
 16 17  2  0
 19 23  1  0
 19 16  1  0
 20 19  1  0
 21 20  1  0
 21 22  1  0
 22 23  1  0
 23 24  1  1
 24 26  1  0
 25 24  2  0
M  END
$$$$
