EEP.pdb
     RDKit          3D

 26 26  0  0  1  0  0  0  0  0999 V2000
   15.5407  -13.6608  -16.7706 N   0  0  0  0  0  0  0  0  0  0  0  0
   15.8276  -12.4937  -15.9340 C   0  0  1  0  0  0  0  0  0  0  0  0
   15.8808  -12.9733  -14.5231 C   0  0  0  0  0  0  0  0  0  0  0  0
   14.6386  -13.6080  -14.0201 C   0  0  0  0  0  0  0  0  0  0  0  0
   14.5846  -15.0650  -14.1645 C   0  0  0  0  0  0  0  0  0  0  0  0
   13.4722  -15.5513  -14.5646 O   0  0  0  0  0  0  0  0  0  0  0  0
   17.0681  -11.8775  -16.4005 C   0  0  0  0  0  0  0  0  0  0  0  0
   17.5163  -12.0992  -17.5535 O   0  0  0  0  0  0  0  0  0  0  0  0
   15.5938  -15.9530  -13.9176 O   0  0  0  0  0  0  0  0  0  0  0  0
   17.8172  -11.0037  -15.5703 N   0  0  0  0  0  0  0  0  0  0  0  0
   18.6638   -9.9539  -16.1183 C   0  0  1  0  0  0  0  0  0  0  0  0
   17.8922   -9.1754  -17.1520 C   0  0  0  0  0  0  0  0  0  0  0  0
   18.7011   -8.0613  -17.7285 C   0  0  0  0  0  0  0  0  0  0  0  0
   18.0961   -7.5717  -19.0181 C   0  0  0  0  0  0  0  0  0  0  0  0
   16.9572   -7.9456  -19.3173 O   0  0  0  0  0  0  0  0  0  0  0  0
   19.4045   -9.1595  -15.1656 C   0  0  0  0  0  0  0  0  0  0  0  0
   18.7006   -8.4618  -14.3120 O   0  0  0  0  0  0  0  0  0  0  0  0
   18.8200   -6.7349  -19.8121 O   0  0  0  0  0  0  0  0  0  0  0  0
   20.7940   -8.9959  -14.9831 N   0  0  0  0  0  0  0  0  0  0  0  0
   21.7878   -9.3885  -15.9621 C   0  0  0  0  0  0  0  0  0  0  0  0
   23.0357   -9.6335  -15.1803 C   0  0  0  0  0  0  0  0  0  0  0  0
   22.7723   -9.1972  -13.7767 C   0  0  0  0  0  0  0  0  0  0  0  0
   21.4682   -8.4185  -13.8799 C   0  0  1  0  0  0  0  0  0  0  0  0
   21.7478   -6.9712  -14.0217 C   0  0  0  0  0  0  0  0  0  0  0  0
   22.2624   -6.2502  -13.1586 O   0  0  0  0  0  0  0  0  0  0  0  0
   21.3983   -6.3784  -15.2346 O   0  0  0  0  0  0  0  0  0  0  0  0
  2  1  1  6
  2  7  1  0
  3  2  1  0
  3  4  1  0
  4  5  1  0
  5  9  1  0
  5  6  2  0
  7  8  2  0
 10  7  1  0
 10 11  1  0
 11 16  1  0
 11 12  1  1
 12 13  1  0
 13 14  1  0
 14 18  1  0
 14 15  2  0
 16 17  2  0
 19 23  1  0
 19 16  1  0
 20 19  1  0
 21 20  1  0
 21 22  1  0
 22 23  1  0
 23 24  1  6
 24 26  1  0
 25 24  2  0
M  END
$$$$
