EEP.pdb
     RDKit          3D

 26 26  0  0  1  0  0  0  0  0999 V2000
   30.7623  -25.1384  -17.1483 N   0  0  0  0  0  0  0  0  0  0  0  0
   29.4767  -24.6398  -17.6413 C   0  0  1  0  0  0  0  0  0  0  0  0
   28.5701  -25.8178  -17.7583 C   0  0  0  0  0  0  0  0  0  0  0  0
   28.1798  -26.4498  -16.4748 C   0  0  0  0  0  0  0  0  0  0  0  0
   26.7413  -26.6683  -16.3037 C   0  0  0  0  0  0  0  0  0  0  0  0
   26.2447  -26.3037  -15.1836 O   0  0  0  0  0  0  0  0  0  0  0  0
   28.9947  -23.6059  -16.7276 C   0  0  0  0  0  0  0  0  0  0  0  0
   29.3956  -23.5442  -15.5382 O   0  0  0  0  0  0  0  0  0  0  0  0
   25.8801  -27.2181  -17.2115 O   0  0  0  0  0  0  0  0  0  0  0  0
   28.0541  -22.6293  -17.1466 N   0  0  0  0  0  0  0  0  0  0  0  0
   27.5539  -21.6014  -16.2452 C   0  0  1  0  0  0  0  0  0  0  0  0
   27.1537  -20.3868  -17.0417 C   0  0  0  0  0  0  0  0  0  0  0  0
   28.3409  -19.6297  -17.5369 C   0  0  0  0  0  0  0  0  0  0  0  0
   27.9147  -18.3834  -18.2678 C   0  0  0  0  0  0  0  0  0  0  0  0
   27.4176  -17.4572  -17.6187 O   0  0  0  0  0  0  0  0  0  0  0  0
   26.6053  -22.0288  -15.2427 C   0  0  0  0  0  0  0  0  0  0  0  0
   25.8120  -23.0158  -15.5702 O   0  0  0  0  0  0  0  0  0  0  0  0
   28.0896  -18.3158  -19.6167 O   0  0  0  0  0  0  0  0  0  0  0  0
   26.3734  -21.5596  -13.9324 N   0  0  0  0  0  0  0  0  0  0  0  0
   27.1052  -20.4654  -13.3261 C   0  0  0  0  0  0  0  0  0  0  0  0
   27.0207  -20.7023  -11.8548 C   0  0  0  0  0  0  0  0  0  0  0  0
   26.0795  -21.8420  -11.6425 C   0  0  0  0  0  0  0  0  0  0  0  0
   25.4106  -22.0146  -12.9992 C   0  0  1  0  0  0  0  0  0  0  0  0
   24.1275  -21.2761  -13.0332 C   0  0  0  0  0  0  0  0  0  0  0  0
   23.9331  -20.1981  -13.6075 O   0  0  0  0  0  0  0  0  0  0  0  0
   23.0518  -21.8517  -12.3579 O   0  0  0  0  0  0  0  0  0  0  0  0
  2  1  1  1
  2  7  1  0
  3  2  1  0
  3  4  1  0
  4  5  1  0
  5  9  1  0
  5  6  2  0
  7  8  2  0
 10  7  1  0
 10 11  1  0
 11 16  1  0
 11 12  1  6
 12 13  1  0
 13 14  1  0
 14 18  1  0
 14 15  2  0
 16 17  2  0
 19 23  1  0
 19 16  1  0
 20 19  1  0
 21 20  1  0
 21 22  1  0
 22 23  1  0
 23 24  1  1
 24 26  1  0
 25 24  2  0
M  END
$$$$
