EEP.pdb
     RDKit          3D

 26 26  0  0  1  0  0  0  0  0999 V2000
   17.5383  -14.8638  -16.0617 N   0  0  0  0  0  0  0  0  0  0  0  0
   17.3586  -13.6532  -16.8658 C   0  0  1  0  0  0  0  0  0  0  0  0
   16.0148  -13.1027  -16.5272 C   0  0  0  0  0  0  0  0  0  0  0  0
   15.8032  -12.7771  -15.0961 C   0  0  0  0  0  0  0  0  0  0  0  0
   14.5292  -12.1207  -14.7916 C   0  0  0  0  0  0  0  0  0  0  0  0
   13.5297  -12.8929  -14.5950 O   0  0  0  0  0  0  0  0  0  0  0  0
   18.4641  -12.7386  -16.5875 C   0  0  0  0  0  0  0  0  0  0  0  0
   19.0397  -12.7275  -15.4704 O   0  0  0  0  0  0  0  0  0  0  0  0
   14.2996  -10.7767  -14.6965 O   0  0  0  0  0  0  0  0  0  0  0  0
   18.9327  -11.8256  -17.5677 N   0  0  0  0  0  0  0  0  0  0  0  0
   20.0047  -10.8798  -17.2930 C   0  0  1  0  0  0  0  0  0  0  0  0
   20.4660  -10.2552  -18.5842 C   0  0  0  0  0  0  0  0  0  0  0  0
   21.6075   -9.3173  -18.3724 C   0  0  0  0  0  0  0  0  0  0  0  0
   21.9056   -8.5437  -19.6301 C   0  0  0  0  0  0  0  0  0  0  0  0
   21.3743   -8.9029  -20.6861 O   0  0  0  0  0  0  0  0  0  0  0  0
   19.7896   -9.9610  -16.1990 C   0  0  0  0  0  0  0  0  0  0  0  0
   18.5664   -9.5303  -16.0279 O   0  0  0  0  0  0  0  0  0  0  0  0
   22.7483   -7.4758  -19.5652 O   0  0  0  0  0  0  0  0  0  0  0  0
   20.6888   -9.4282  -15.2512 N   0  0  0  0  0  0  0  0  0  0  0  0
   22.0969   -9.7664  -15.1963 C   0  0  0  0  0  0  0  0  0  0  0  0
   22.5048   -9.5266  -13.7806 C   0  0  0  0  0  0  0  0  0  0  0  0
   21.3504   -8.8781  -13.0903 C   0  0  0  0  0  0  0  0  0  0  0  0
   20.4242   -8.4817  -14.2318 C   0  0  1  0  0  0  0  0  0  0  0  0
   20.6698   -7.0748  -14.6232 C   0  0  0  0  0  0  0  0  0  0  0  0
   21.2184   -6.7041  -15.6679 O   0  0  0  0  0  0  0  0  0  0  0  0
   20.2434   -6.0900  -13.7327 O   0  0  0  0  0  0  0  0  0  0  0  0
  2  1  1  1
  2  7  1  0
  3  2  1  0
  3  4  1  0
  4  5  1  0
  5  9  1  0
  5  6  2  0
  7  8  2  0
 10  7  1  0
 10 11  1  0
 11 16  1  0
 11 12  1  6
 12 13  1  0
 13 14  1  0
 14 18  1  0
 14 15  2  0
 16 17  2  0
 19 23  1  0
 19 16  1  0
 20 19  1  0
 21 20  1  0
 21 22  1  0
 22 23  1  0
 23 24  1  6
 24 26  1  0
 25 24  2  0
M  END
$$$$
