EEP.pdb
     RDKit          3D

 26 26  0  0  1  0  0  0  0  0999 V2000
   19.3087  -12.7714  -15.6913 N   0  0  0  0  0  0  0  0  0  0  0  0
   20.0666  -11.6782  -16.3038 C   0  0  1  0  0  0  0  0  0  0  0  0
   19.8293  -11.7555  -17.7738 C   0  0  0  0  0  0  0  0  0  0  0  0
   18.4200  -11.9749  -18.1797 C   0  0  0  0  0  0  0  0  0  0  0  0
   18.1807  -11.9535  -19.6249 C   0  0  0  0  0  0  0  0  0  0  0  0
   16.9671  -12.1021  -19.9980 O   0  0  0  0  0  0  0  0  0  0  0  0
   19.6421  -10.4179  -15.6975 C   0  0  0  0  0  0  0  0  0  0  0  0
   18.4703  -10.2574  -15.2726 O   0  0  0  0  0  0  0  0  0  0  0  0
   19.1144  -11.7922  -20.6100 O   0  0  0  0  0  0  0  0  0  0  0  0
   20.5361   -9.3238  -15.5641 N   0  0  0  0  0  0  0  0  0  0  0  0
   20.0950   -8.0185  -15.0941 C   0  0  1  0  0  0  0  0  0  0  0  0
   21.2811   -7.2415  -14.5847 C   0  0  0  0  0  0  0  0  0  0  0  0
   20.8845   -5.9038  -14.0546 C   0  0  0  0  0  0  0  0  0  0  0  0
   22.0566   -5.2159  -13.4051 C   0  0  0  0  0  0  0  0  0  0  0  0
   22.3609   -5.5293  -12.2494 O   0  0  0  0  0  0  0  0  0  0  0  0
   19.1995   -7.2893  -15.9622 C   0  0  0  0  0  0  0  0  0  0  0  0
   19.4511   -7.3464  -17.2445 O   0  0  0  0  0  0  0  0  0  0  0  0
   22.7427   -4.2731  -14.1087 O   0  0  0  0  0  0  0  0  0  0  0  0
   18.0659   -6.5025  -15.6674 N   0  0  0  0  0  0  0  0  0  0  0  0
   17.6164   -6.2080  -14.3215 C   0  0  0  0  0  0  0  0  0  0  0  0
   16.1543   -5.9338  -14.4455 C   0  0  0  0  0  0  0  0  0  0  0  0
   15.8314   -5.9018  -15.9031 C   0  0  0  0  0  0  0  0  0  0  0  0
   17.1970   -5.8481  -16.5739 C   0  0  1  0  0  0  0  0  0  0  0  0
   17.5650   -4.4448  -16.8707 C   0  0  0  0  0  0  0  0  0  0  0  0
   16.9487   -3.6840  -17.6264 O   0  0  0  0  0  0  0  0  0  0  0  0
   18.7047   -3.9460  -16.2405 O   0  0  0  0  0  0  0  0  0  0  0  0
  2  1  1  1
  2  7  1  0
  3  2  1  0
  3  4  1  0
  4  5  1  0
  5  9  1  0
  5  6  2  0
  7  8  2  0
 10  7  1  0
 10 11  1  0
 11 16  1  0
 11 12  1  6
 12 13  1  0
 13 14  1  0
 14 18  1  0
 14 15  2  0
 16 17  2  0
 19 23  1  0
 19 16  1  0
 20 19  1  0
 21 20  1  0
 21 22  1  0
 22 23  1  0
 23 24  1  1
 24 26  1  0
 25 24  2  0
M  END
$$$$
