EEP.pdb
     RDKit          3D

 26 26  0  0  1  0  0  0  0  0999 V2000
   23.8695  -12.6835  -18.0762 N   0  0  0  0  0  0  0  0  0  0  0  0
   23.7769  -12.1277  -16.7245 C   0  0  1  0  0  0  0  0  0  0  0  0
   25.1680  -12.0400  -16.1949 C   0  0  0  0  0  0  0  0  0  0  0  0
   25.9765  -10.9110  -16.7151 C   0  0  0  0  0  0  0  0  0  0  0  0
   27.3390  -10.8274  -16.1828 C   0  0  0  0  0  0  0  0  0  0  0  0
   28.0103   -9.7904  -16.5116 O   0  0  0  0  0  0  0  0  0  0  0  0
   23.0841  -10.8426  -16.7938 C   0  0  0  0  0  0  0  0  0  0  0  0
   23.3187  -10.0209  -17.7153 O   0  0  0  0  0  0  0  0  0  0  0  0
   27.9632  -11.7372  -15.3763 O   0  0  0  0  0  0  0  0  0  0  0  0
   22.1180  -10.4705  -15.8232 N   0  0  0  0  0  0  0  0  0  0  0  0
   21.3696   -9.2253  -15.9158 C   0  0  1  0  0  0  0  0  0  0  0  0
   19.9318   -9.4750  -15.5410 C   0  0  0  0  0  0  0  0  0  0  0  0
   19.1205   -8.2228  -15.5806 C   0  0  0  0  0  0  0  0  0  0  0  0
   17.6962   -8.4941  -15.1723 C   0  0  0  0  0  0  0  0  0  0  0  0
   17.4360   -9.5599  -14.6041 O   0  0  0  0  0  0  0  0  0  0  0  0
   21.9770   -8.0614  -15.3127 C   0  0  0  0  0  0  0  0  0  0  0  0
   22.6998   -8.2664  -14.2420 O   0  0  0  0  0  0  0  0  0  0  0  0
   16.7422   -7.5601  -15.4409 O   0  0  0  0  0  0  0  0  0  0  0  0
   21.9307   -6.7004  -15.6823 N   0  0  0  0  0  0  0  0  0  0  0  0
   21.2182   -6.2035  -16.8424 C   0  0  0  0  0  0  0  0  0  0  0  0
   21.9056   -4.9310  -17.2117 C   0  0  0  0  0  0  0  0  0  0  0  0
   22.8953   -4.6328  -16.1340 C   0  0  0  0  0  0  0  0  0  0  0  0
   22.5129   -5.5943  -15.0173 C   0  0  1  0  0  0  0  0  0  0  0  0
   21.6178   -4.9212  -14.0485 C   0  0  0  0  0  0  0  0  0  0  0  0
   21.9563   -4.0421  -13.2471 O   0  0  0  0  0  0  0  0  0  0  0  0
   20.2809   -5.3179  -14.0459 O   0  0  0  0  0  0  0  0  0  0  0  0
  2  1  1  6
  2  7  1  0
  3  2  1  0
  3  4  1  0
  4  5  1  0
  5  9  1  0
  5  6  2  0
  7  8  2  0
 10  7  1  0
 10 11  1  0
 11 16  1  0
 11 12  1  1
 12 13  1  0
 13 14  1  0
 14 18  1  0
 14 15  2  0
 16 17  2  0
 19 23  1  0
 19 16  1  0
 20 19  1  0
 21 20  1  0
 21 22  1  0
 22 23  1  0
 23 24  1  1
 24 26  1  0
 25 24  2  0
M  END
$$$$
