EEP.pdb
     RDKit          3D

 26 26  0  0  1  0  0  0  0  0999 V2000
   26.9997  -21.7462  -15.7199 N   0  0  0  0  0  0  0  0  0  0  0  0
   25.6914  -21.8116  -16.3746 C   0  0  1  0  0  0  0  0  0  0  0  0
   25.3932  -23.2542  -16.6058 C   0  0  0  0  0  0  0  0  0  0  0  0
   26.5769  -24.1442  -16.6803 C   0  0  0  0  0  0  0  0  0  0  0  0
   26.5473  -25.2925  -15.7709 C   0  0  0  0  0  0  0  0  0  0  0  0
   25.5849  -25.3214  -14.9301 O   0  0  0  0  0  0  0  0  0  0  0  0
   24.7120  -21.1288  -15.5316 C   0  0  0  0  0  0  0  0  0  0  0  0
   24.9044  -20.9717  -14.2997 O   0  0  0  0  0  0  0  0  0  0  0  0
   27.4363  -26.3297  -15.7281 O   0  0  0  0  0  0  0  0  0  0  0  0
   23.5036  -20.6152  -16.0702 N   0  0  0  0  0  0  0  0  0  0  0  0
   22.5151  -19.9387  -15.2429 C   0  0  1  0  0  0  0  0  0  0  0  0
   21.9171  -18.7904  -16.0136 C   0  0  0  0  0  0  0  0  0  0  0  0
   20.8459  -18.0976  -15.2388 C   0  0  0  0  0  0  0  0  0  0  0  0
   19.8550  -17.4409  -16.1639 C   0  0  0  0  0  0  0  0  0  0  0  0
   18.6673  -17.3991  -15.8260 O   0  0  0  0  0  0  0  0  0  0  0  0
   21.5695  -20.7817  -14.5484 C   0  0  0  0  0  0  0  0  0  0  0  0
   21.1429  -21.8373  -15.1922 O   0  0  0  0  0  0  0  0  0  0  0  0
   20.2966  -16.9153  -17.3401 O   0  0  0  0  0  0  0  0  0  0  0  0
   21.0059  -20.6692  -13.2597 N   0  0  0  0  0  0  0  0  0  0  0  0
   21.2755  -19.5698  -12.3547 C   0  0  0  0  0  0  0  0  0  0  0  0
   21.0348  -20.1172  -10.9871 C   0  0  0  0  0  0  0  0  0  0  0  0
   20.4528  -21.4824  -11.1521 C   0  0  0  0  0  0  0  0  0  0  0  0
   20.0871  -21.5424  -12.6287 C   0  0  1  0  0  0  0  0  0  0  0  0
   18.6648  -21.1760  -12.8175 C   0  0  0  0  0  0  0  0  0  0  0  0
   18.2540  -20.1273  -13.3286 O   0  0  0  0  0  0  0  0  0  0  0  0
   17.7139  -22.0970  -12.3793 O   0  0  0  0  0  0  0  0  0  0  0  0
  2  1  1  1
  2  7  1  0
  3  2  1  0
  3  4  1  0
  4  5  1  0
  5  9  1  0
  5  6  2  0
  7  8  2  0
 10  7  1  0
 10 11  1  0
 11 16  1  0
 11 12  1  6
 12 13  1  0
 13 14  1  0
 14 18  1  0
 14 15  2  0
 16 17  2  0
 19 23  1  0
 19 16  1  0
 20 19  1  0
 21 20  1  0
 21 22  1  0
 22 23  1  0
 23 24  1  1
 24 26  1  0
 25 24  2  0
M  END
$$$$
