EEP.pdb
     RDKit          3D

 26 26  0  0  1  0  0  0  0  0999 V2000
   16.7506  -13.5713  -18.7615 N   0  0  0  0  0  0  0  0  0  0  0  0
   16.4657  -12.4545  -17.8581 C   0  0  1  0  0  0  0  0  0  0  0  0
   15.9022  -13.0402  -16.6079 C   0  0  0  0  0  0  0  0  0  0  0  0
   15.5434  -12.0620  -15.5529 C   0  0  0  0  0  0  0  0  0  0  0  0
   14.9605  -12.6433  -14.3410 C   0  0  0  0  0  0  0  0  0  0  0  0
   15.7779  -12.9161  -13.3968 O   0  0  0  0  0  0  0  0  0  0  0  0
   17.6955  -11.6909  -17.6563 C   0  0  0  0  0  0  0  0  0  0  0  0
   18.7714  -12.2551  -17.3347 O   0  0  0  0  0  0  0  0  0  0  0  0
   13.6416  -12.9227  -14.1161 O   0  0  0  0  0  0  0  0  0  0  0  0
   17.7245  -10.2810  -17.8152 N   0  0  0  0  0  0  0  0  0  0  0  0
   18.9517   -9.5120  -17.6676 C   0  0  1  0  0  0  0  0  0  0  0  0
   18.9664   -8.3922  -18.6756 C   0  0  0  0  0  0  0  0  0  0  0  0
   19.1571   -8.8979  -20.0669 C   0  0  0  0  0  0  0  0  0  0  0  0
   19.2386   -7.7557  -21.0455 C   0  0  0  0  0  0  0  0  0  0  0  0
   19.3114   -6.6034  -20.6059 O   0  0  0  0  0  0  0  0  0  0  0  0
   19.3234   -9.1425  -16.3213 C   0  0  0  0  0  0  0  0  0  0  0  0
   18.3442   -8.9414  -15.4777 O   0  0  0  0  0  0  0  0  0  0  0  0
   19.2297   -8.0268  -22.3801 O   0  0  0  0  0  0  0  0  0  0  0  0
   20.5920   -8.9545  -15.7330 N   0  0  0  0  0  0  0  0  0  0  0  0
   21.8425   -9.0817  -16.4544 C   0  0  0  0  0  0  0  0  0  0  0  0
   22.8612   -9.4266  -15.4194 C   0  0  0  0  0  0  0  0  0  0  0  0
   22.1963   -9.3117  -14.0873 C   0  0  0  0  0  0  0  0  0  0  0  0
   20.8905   -8.5927  -14.3970 C   0  0  1  0  0  0  0  0  0  0  0  0
   21.0448   -7.1366  -14.1762 C   0  0  0  0  0  0  0  0  0  0  0  0
   21.1464   -6.2813  -15.0638 O   0  0  0  0  0  0  0  0  0  0  0  0
   21.0775   -6.7007  -12.8520 O   0  0  0  0  0  0  0  0  0  0  0  0
  2  1  1  6
  2  7  1  0
  3  2  1  0
  3  4  1  0
  4  5  1  0
  5  9  1  0
  5  6  2  0
  7  8  2  0
 10  7  1  0
 10 11  1  0
 11 16  1  0
 11 12  1  6
 12 13  1  0
 13 14  1  0
 14 18  1  0
 14 15  2  0
 16 17  2  0
 19 23  1  0
 19 16  1  0
 20 19  1  0
 21 20  1  0
 21 22  1  0
 22 23  1  0
 23 24  1  6
 24 26  1  0
 25 24  2  0
M  END
$$$$
