EEP.pdb
     RDKit          3D

 26 26  0  0  1  0  0  0  0  0999 V2000
   15.7796  -12.6223  -16.8899 N   0  0  0  0  0  0  0  0  0  0  0  0
   16.2219  -12.5415  -15.4962 C   0  0  1  0  0  0  0  0  0  0  0  0
   15.9439  -13.8682  -14.8749 C   0  0  0  0  0  0  0  0  0  0  0  0
   16.8284  -14.9741  -15.3147 C   0  0  0  0  0  0  0  0  0  0  0  0
   16.4797  -16.2948  -14.7848 C   0  0  0  0  0  0  0  0  0  0  0  0
   15.8556  -17.0755  -15.5817 O   0  0  0  0  0  0  0  0  0  0  0  0
   17.6320  -12.1576  -15.4747 C   0  0  0  0  0  0  0  0  0  0  0  0
   18.2630  -12.0422  -14.3940 O   0  0  0  0  0  0  0  0  0  0  0  0
   16.7505  -16.7761  -13.5346 O   0  0  0  0  0  0  0  0  0  0  0  0
   18.3461  -11.8994  -16.6736 N   0  0  0  0  0  0  0  0  0  0  0  0
   19.6927  -11.3464  -16.6671 C   0  0  1  0  0  0  0  0  0  0  0  0
   20.2175  -11.2868  -18.0781 C   0  0  0  0  0  0  0  0  0  0  0  0
   21.6369  -10.8274  -18.1253 C   0  0  0  0  0  0  0  0  0  0  0  0
   22.1082  -10.6896  -19.5493 C   0  0  0  0  0  0  0  0  0  0  0  0
   22.8559  -11.5575  -20.0121 O   0  0  0  0  0  0  0  0  0  0  0  0
   19.8967  -10.1547  -15.8761 C   0  0  0  0  0  0  0  0  0  0  0  0
   18.9213   -9.2833  -15.8678 O   0  0  0  0  0  0  0  0  0  0  0  0
   21.6975   -9.6167  -20.2807 O   0  0  0  0  0  0  0  0  0  0  0  0
   20.9922   -9.7487  -15.0851 N   0  0  0  0  0  0  0  0  0  0  0  0
   22.2311  -10.4934  -14.9799 C   0  0  0  0  0  0  0  0  0  0  0  0
   22.8114  -10.1084  -13.6596 C   0  0  0  0  0  0  0  0  0  0  0  0
   21.9707   -9.0027  -13.1114 C   0  0  0  0  0  0  0  0  0  0  0  0
   21.1147   -8.5789  -14.2968 C   0  0  1  0  0  0  0  0  0  0  0  0
   21.7407   -7.4325  -14.9945 C   0  0  0  0  0  0  0  0  0  0  0  0
   21.8233   -6.2800  -14.5534 O   0  0  0  0  0  0  0  0  0  0  0  0
   22.2808   -7.6819  -16.2558 O   0  0  0  0  0  0  0  0  0  0  0  0
  2  1  1  6
  2  7  1  0
  3  2  1  0
  3  4  1  0
  4  5  1  0
  5  9  1  0
  5  6  2  0
  7  8  2  0
 10  7  1  0
 10 11  1  0
 11 16  1  0
 11 12  1  6
 12 13  1  0
 13 14  1  0
 14 18  1  0
 14 15  2  0
 16 17  2  0
 19 23  1  0
 19 16  1  0
 20 19  1  0
 21 20  1  0
 21 22  1  0
 22 23  1  0
 23 24  1  6
 24 26  1  0
 25 24  2  0
M  END
$$$$
