EEP.pdb
     RDKit          3D

 26 26  0  0  1  0  0  0  0  0999 V2000
   14.6503   -9.5839  -16.1993 N   0  0  0  0  0  0  0  0  0  0  0  0
   14.9711   -9.6739  -14.7733 C   0  0  1  0  0  0  0  0  0  0  0  0
   14.4229  -10.9722  -14.2861 C   0  0  0  0  0  0  0  0  0  0  0  0
   14.9008  -12.1756  -15.0089 C   0  0  0  0  0  0  0  0  0  0  0  0
   14.5200  -13.4542  -14.4035 C   0  0  0  0  0  0  0  0  0  0  0  0
   13.2815  -13.5984  -14.1221 O   0  0  0  0  0  0  0  0  0  0  0  0
   16.4172   -9.5393  -14.6099 C   0  0  0  0  0  0  0  0  0  0  0  0
   16.9584   -9.6146  -13.4782 O   0  0  0  0  0  0  0  0  0  0  0  0
   15.3463  -14.5026  -14.1100 O   0  0  0  0  0  0  0  0  0  0  0  0
   17.2694   -9.3181  -15.7231 N   0  0  0  0  0  0  0  0  0  0  0  0
   18.7012   -9.1050  -15.5696 C   0  0  1  0  0  0  0  0  0  0  0  0
   19.4052   -9.4890  -16.8452 C   0  0  0  0  0  0  0  0  0  0  0  0
   19.4633  -10.9696  -17.0251 C   0  0  0  0  0  0  0  0  0  0  0  0
   20.1126  -11.3248  -18.3370 C   0  0  0  0  0  0  0  0  0  0  0  0
   20.1057  -12.5055  -18.7005 O   0  0  0  0  0  0  0  0  0  0  0  0
   19.1074   -7.8458  -14.9893 C   0  0  0  0  0  0  0  0  0  0  0  0
   18.2911   -6.8365  -15.1501 O   0  0  0  0  0  0  0  0  0  0  0  0
   20.6853  -10.3374  -19.0798 O   0  0  0  0  0  0  0  0  0  0  0  0
   20.2616   -7.4972  -14.2564 N   0  0  0  0  0  0  0  0  0  0  0  0
   21.3141   -8.4335  -13.9160 C   0  0  0  0  0  0  0  0  0  0  0  0
   21.9586   -7.8736  -12.6915 C   0  0  0  0  0  0  0  0  0  0  0  0
   21.3695   -6.5212  -12.4593 C   0  0  0  0  0  0  0  0  0  0  0  0
   20.6265   -6.2245  -13.7546 C   0  0  1  0  0  0  0  0  0  0  0  0
   21.4834   -5.4299  -14.6640 C   0  0  0  0  0  0  0  0  0  0  0  0
   22.0236   -5.8508  -15.6940 O   0  0  0  0  0  0  0  0  0  0  0  0
   21.6945   -4.0942  -14.3232 O   0  0  0  0  0  0  0  0  0  0  0  0
  2  1  1  6
  2  7  1  0
  3  2  1  0
  3  4  1  0
  4  5  1  0
  5  9  1  0
  5  6  2  0
  7  8  2  0
 10  7  1  0
 10 11  1  0
 11 16  1  0
 11 12  1  6
 12 13  1  0
 13 14  1  0
 14 18  1  0
 14 15  2  0
 16 17  2  0
 19 23  1  0
 19 16  1  0
 20 19  1  0
 21 20  1  0
 21 22  1  0
 22 23  1  0
 23 24  1  6
 24 26  1  0
 25 24  2  0
M  END
$$$$
