SCI.pdb
     RDKit          3D

 21 20  0  0  1  0  0  0  0  0999 V2000
   37.6000   -2.5453  -12.4622 O   0  0  0  0  0  0  0  0  0  0  0  0
   36.6404   -2.2826  -11.4681 C   0  0  0  0  0  0  0  0  0  0  0  0
   37.3757   -2.2377  -10.1479 C   0  0  2  0  0  0  0  0  0  0  0  0
   38.0845   -3.4496   -9.8666 N   0  0  0  0  0  0  0  0  0  0  0  0
   36.4559   -1.8421   -9.0501 C   0  0  0  0  0  0  0  0  0  0  0  0
   36.3457   -2.4889   -7.9804 O   0  0  0  0  0  0  0  0  0  0  0  0
   35.6481   -0.6823   -9.1835 N   0  0  0  0  0  0  0  0  0  0  0  0
   34.8229   -0.1215   -8.1646 C   0  0  1  0  0  0  0  0  0  0  0  0
   35.5461    0.2122   -6.8938 C   0  0  0  0  0  0  0  0  0  0  0  0
   34.4388    0.9774   -5.7031 S   0  0  0  0  0  0  0  0  0  0  0  0
   34.0686    1.0777   -8.6438 C   0  0  0  0  0  0  0  0  0  0  0  0
   34.6773    2.0616   -9.1262 O   0  0  0  0  0  0  0  0  0  0  0  0
   29.9221    2.2006  -12.4666 C   0  0  0  0  0  0  0  0  0  0  0  0
   30.3314    2.6943  -11.0702 C   0  0  0  0  0  0  0  0  0  0  0  0
   31.1794    1.6462  -10.4262 C   0  0  2  0  0  0  0  0  0  0  0  0
   30.4003    0.3614  -10.3926 C   0  0  0  0  0  0  0  0  0  0  0  0
   31.7694    2.0461   -9.1295 C   0  0  2  0  0  0  0  0  0  0  0  0
   32.6549    1.0709   -8.5378 N   0  0  0  0  0  0  0  0  0  0  0  0
   30.8283    2.5634   -8.1188 C   0  0  0  0  0  0  0  0  0  0  0  0
   30.7581    1.9706   -6.8751 O   0  0  0  0  0  0  0  0  0  0  0  0
   30.0624    3.5384   -8.3125 O   0  0  0  0  0  0  0  0  0  0  0  0
  2  1  1  0
  3  2  1  0
  3  4  1  1
  5  3  1  0
  5  6  2  0
  7  5  1  0
  8  7  1  0
  8 11  1  0
  8  9  1  1
 10  9  1  0
 11 18  1  0
 11 12  2  0
 13 14  1  0
 14 15  1  0
 15 16  1  1
 17 15  1  0
 17 18  1  1
 19 20  1  0
 19 17  1  0
 21 19  2  0
M  END
$$$$
