SCI.pdb
     RDKit          3D

 21 20  0  0  1  0  0  0  0  0999 V2000
   18.8171  -16.1212  -15.7568 O   0  0  0  0  0  0  0  0  0  0  0  0
   19.2490  -15.0497  -16.5590 C   0  0  0  0  0  0  0  0  0  0  0  0
   18.0367  -14.1891  -16.8333 C   0  0  2  0  0  0  0  0  0  0  0  0
   17.0459  -14.8612  -17.6187 N   0  0  0  0  0  0  0  0  0  0  0  0
   18.4428  -12.8837  -17.4154 C   0  0  0  0  0  0  0  0  0  0  0  0
   18.3435  -12.6165  -18.6375 O   0  0  0  0  0  0  0  0  0  0  0  0
   18.9724  -11.8667  -16.5784 N   0  0  0  0  0  0  0  0  0  0  0  0
   19.3082  -10.5429  -16.9883 C   0  0  1  0  0  0  0  0  0  0  0  0
   18.1907   -9.7974  -17.6553 C   0  0  0  0  0  0  0  0  0  0  0  0
   16.8247   -9.5301  -16.5185 S   0  0  0  0  0  0  0  0  0  0  0  0
   19.8578   -9.7245  -15.8635 C   0  0  0  0  0  0  0  0  0  0  0  0
   19.3868   -9.8346  -14.7071 O   0  0  0  0  0  0  0  0  0  0  0  0
   24.5624  -10.8888  -14.8374 C   0  0  0  0  0  0  0  0  0  0  0  0
   23.1160  -10.3706  -14.8568 C   0  0  0  0  0  0  0  0  0  0  0  0
   23.1441   -8.8938  -15.0815 C   0  0  2  0  0  0  0  0  0  0  0  0
   24.0781   -8.2797  -14.0768 C   0  0  0  0  0  0  0  0  0  0  0  0
   21.8095   -8.2590  -15.1547 C   0  0  2  0  0  0  0  0  0  0  0  0
   20.9194   -8.8266  -16.1399 N   0  0  0  0  0  0  0  0  0  0  0  0
   21.7935   -6.7867  -15.2375 C   0  0  0  0  0  0  0  0  0  0  0  0
   21.9251   -6.0305  -14.0912 O   0  0  0  0  0  0  0  0  0  0  0  0
   21.6676   -6.1493  -16.3110 O   0  0  0  0  0  0  0  0  0  0  0  0
  2  1  1  0
  3  2  1  0
  3  4  1  6
  5  3  1  0
  5  6  2  0
  7  5  1  0
  8  7  1  0
  8 11  1  0
  8  9  1  1
 10  9  1  0
 11 18  1  0
 11 12  2  0
 13 14  1  0
 14 15  1  0
 15 16  1  1
 17 15  1  0
 17 18  1  6
 19 20  1  0
 19 17  1  0
 21 19  2  0
M  END
$$$$
