SCI.pdb
     RDKit          3D

 21 20  0  0  1  0  0  0  0  0999 V2000
   14.5008  -11.9374  -12.0705 O   0  0  0  0  0  0  0  0  0  0  0  0
   15.1629  -11.1686  -11.0965 C   0  0  0  0  0  0  0  0  0  0  0  0
   16.3961  -10.5924  -11.7545 C   0  0  2  0  0  0  0  0  0  0  0  0
   17.3513  -11.5957  -12.1168 N   0  0  0  0  0  0  0  0  0  0  0  0
   16.9833   -9.5169  -10.9142 C   0  0  0  0  0  0  0  0  0  0  0  0
   18.1543   -9.5590  -10.4650 O   0  0  0  0  0  0  0  0  0  0  0  0
   16.2114   -8.3722  -10.5839 N   0  0  0  0  0  0  0  0  0  0  0  0
   16.7024   -7.1913   -9.9530 C   0  0  1  0  0  0  0  0  0  0  0  0
   17.9474   -6.6290  -10.5719 C   0  0  0  0  0  0  0  0  0  0  0  0
   17.7099   -6.3113  -12.3246 S   0  0  0  0  0  0  0  0  0  0  0  0
   15.6595   -6.1232   -9.8618 C   0  0  0  0  0  0  0  0  0  0  0  0
   14.9829   -5.8067  -10.8683 O   0  0  0  0  0  0  0  0  0  0  0  0
   11.6420   -6.3638   -6.6042 C   0  0  0  0  0  0  0  0  0  0  0  0
   12.5754   -6.0053   -7.7710 C   0  0  0  0  0  0  0  0  0  0  0  0
   13.4341   -4.8555   -7.3555 C   0  0  2  0  0  0  0  0  0  0  0  0
   12.5394   -3.7328   -6.9105 C   0  0  0  0  0  0  0  0  0  0  0  0
   14.4645   -4.4704   -8.3452 C   0  0  2  0  0  0  0  0  0  0  0  0
   15.4588   -5.4828   -8.6130 N   0  0  0  0  0  0  0  0  0  0  0  0
   15.1100   -3.1611   -8.1358 C   0  0  0  0  0  0  0  0  0  0  0  0
   16.3286   -3.0884   -7.4931 O   0  0  0  0  0  0  0  0  0  0  0  0
   14.6169   -2.0712   -8.5147 O   0  0  0  0  0  0  0  0  0  0  0  0
  2  1  1  0
  3  2  1  0
  3  4  1  1
  5  3  1  0
  5  6  2  0
  7  5  1  0
  8  7  1  0
  8 11  1  0
  8  9  1  6
 10  9  1  0
 11 18  1  0
 11 12  2  0
 13 14  1  0
 14 15  1  0
 15 16  1  6
 17 15  1  0
 17 18  1  1
 19 20  1  0
 19 17  1  0
 21 19  2  0
M  END
$$$$
