SCI.pdb
     RDKit          3D

 21 20  0  0  1  0  0  0  0  0999 V2000
   27.0494  -19.3574  -16.3538 O   0  0  0  0  0  0  0  0  0  0  0  0
   28.1824  -19.7098  -15.5987 C   0  0  0  0  0  0  0  0  0  0  0  0
   28.0993  -21.1986  -15.3497 C   0  0  2  0  0  0  0  0  0  0  0  0
   28.1327  -21.9656  -16.5583 N   0  0  0  0  0  0  0  0  0  0  0  0
   26.9265  -21.5217  -14.4965 C   0  0  0  0  0  0  0  0  0  0  0  0
   25.9504  -22.1995  -14.8997 O   0  0  0  0  0  0  0  0  0  0  0  0
   26.8741  -21.0576  -13.1559 N   0  0  0  0  0  0  0  0  0  0  0  0
   25.7588  -21.1809  -12.2759 C   0  0  1  0  0  0  0  0  0  0  0  0
   26.0633  -20.8698  -10.8407 C   0  0  0  0  0  0  0  0  0  0  0  0
   24.5703  -20.9090   -9.8412 S   0  0  0  0  0  0  0  0  0  0  0  0
   24.5879  -20.3682  -12.7292 C   0  0  0  0  0  0  0  0  0  0  0  0
   24.6723  -19.1201  -12.8094 O   0  0  0  0  0  0  0  0  0  0  0  0
   20.5955  -20.0975  -17.0005 C   0  0  0  0  0  0  0  0  0  0  0  0
   20.6774  -19.9137  -15.4772 C   0  0  0  0  0  0  0  0  0  0  0  0
   21.8962  -20.6197  -14.9790 C   0  0  2  0  0  0  0  0  0  0  0  0
   21.8161  -22.0593  -15.4034 C   0  0  0  0  0  0  0  0  0  0  0  0
   22.1801  -20.4132  -13.5415 C   0  0  2  0  0  0  0  0  0  0  0  0
   23.3877  -21.0444  -13.0635 N   0  0  0  0  0  0  0  0  0  0  0  0
   21.0636  -20.6746  -12.6142 C   0  0  0  0  0  0  0  0  0  0  0  0
   19.9725  -19.8308  -12.5940 O   0  0  0  0  0  0  0  0  0  0  0  0
   21.0307  -21.6430  -11.8167 O   0  0  0  0  0  0  0  0  0  0  0  0
  2  1  1  0
  3  2  1  0
  3  4  1  6
  5  3  1  0
  5  6  2  0
  7  5  1  0
  8  7  1  0
  8 11  1  0
  8  9  1  1
 10  9  1  0
 11 18  1  0
 11 12  2  0
 13 14  1  0
 14 15  1  0
 15 16  1  1
 17 15  1  0
 17 18  1  1
 19 20  1  0
 19 17  1  0
 21 19  2  0
M  END
$$$$
