SCI.pdb
     RDKit          3D

 21 20  0  0  1  0  0  0  0  0999 V2000
   14.9316  -11.0385  -16.6053 O   0  0  0  0  0  0  0  0  0  0  0  0
   16.1532  -10.4614  -16.2146 C   0  0  0  0  0  0  0  0  0  0  0  0
   17.0911  -10.5760  -17.3949 C   0  0  2  0  0  0  0  0  0  0  0  0
   17.4290  -11.9324  -17.7049 N   0  0  0  0  0  0  0  0  0  0  0  0
   18.2871   -9.7167  -17.1980 C   0  0  0  0  0  0  0  0  0  0  0  0
   19.3366  -10.1185  -16.6395 O   0  0  0  0  0  0  0  0  0  0  0  0
   18.2774   -8.3712  -17.6509 N   0  0  0  0  0  0  0  0  0  0  0  0
   19.3383   -7.4319  -17.4909 C   0  0  1  0  0  0  0  0  0  0  0  0
   19.2051   -6.1963  -18.3305 C   0  0  0  0  0  0  0  0  0  0  0  0
   19.1087   -6.6100  -20.0766 S   0  0  0  0  0  0  0  0  0  0  0  0
   19.5431   -7.0480  -16.0600 C   0  0  0  0  0  0  0  0  0  0  0  0
   18.5606   -6.8359  -15.3110 O   0  0  0  0  0  0  0  0  0  0  0  0
   21.9590   -9.2459  -11.3819 C   0  0  0  0  0  0  0  0  0  0  0  0
   21.8474   -7.8535  -12.0222 C   0  0  0  0  0  0  0  0  0  0  0  0
   21.5651   -8.0228  -13.4796 C   0  0  2  0  0  0  0  0  0  0  0  0
   22.6828   -8.8221  -14.0886 C   0  0  0  0  0  0  0  0  0  0  0  0
   21.2434   -6.7664  -14.1919 C   0  0  2  0  0  0  0  0  0  0  0  0
   20.8709   -6.9313  -15.5774 N   0  0  0  0  0  0  0  0  0  0  0  0
   22.2199   -5.6705  -14.0508 C   0  0  0  0  0  0  0  0  0  0  0  0
   22.8614   -5.1712  -15.1655 O   0  0  0  0  0  0  0  0  0  0  0  0
   22.5186   -5.1385  -12.9542 O   0  0  0  0  0  0  0  0  0  0  0  0
  2  1  1  0
  3  2  1  0
  3  4  1  1
  5  3  1  0
  5  6  2  0
  7  5  1  0
  8  7  1  0
  8 11  1  0
  8  9  1  6
 10  9  1  0
 11 18  1  0
 11 12  2  0
 13 14  1  0
 14 15  1  0
 15 16  1  6
 17 15  1  0
 17 18  1  6
 19 20  1  0
 19 17  1  0
 21 19  2  0
M  END
$$$$
