SCI.pdb
     RDKit          3D

 21 20  0  0  1  0  0  0  0  0999 V2000
   18.8663  -12.2213  -18.6365 O   0  0  0  0  0  0  0  0  0  0  0  0
   18.6878  -12.4581  -17.2617 C   0  0  0  0  0  0  0  0  0  0  0  0
   17.3864  -11.7976  -16.8670 C   0  0  2  0  0  0  0  0  0  0  0  0
   16.4941  -11.6255  -17.9736 N   0  0  0  0  0  0  0  0  0  0  0  0
   17.6439  -10.5308  -16.1343 C   0  0  0  0  0  0  0  0  0  0  0  0
   17.9065   -9.4467  -16.7091 O   0  0  0  0  0  0  0  0  0  0  0  0
   17.5987  -10.5091  -14.7156 N   0  0  0  0  0  0  0  0  0  0  0  0
   17.9216   -9.3922  -13.8899 C   0  0  1  0  0  0  0  0  0  0  0  0
   17.5227   -9.5471  -12.4525 C   0  0  0  0  0  0  0  0  0  0  0  0
   18.2509   -8.2547  -11.4380 S   0  0  0  0  0  0  0  0  0  0  0  0
   19.3694   -9.0267  -13.9735 C   0  0  0  0  0  0  0  0  0  0  0  0
   20.2561   -9.8797  -13.7340 O   0  0  0  0  0  0  0  0  0  0  0  0
   23.6312   -7.8513  -17.0843 C   0  0  0  0  0  0  0  0  0  0  0  0
   22.9337   -6.8474  -16.1533 C   0  0  0  0  0  0  0  0  0  0  0  0
   21.5223   -7.2923  -15.9482 C   0  0  2  0  0  0  0  0  0  0  0  0
   20.6523   -6.5837  -16.9482 C   0  0  0  0  0  0  0  0  0  0  0  0
   21.0502   -7.2088  -14.5483 C   0  0  2  0  0  0  0  0  0  0  0  0
   19.7090   -7.6969  -14.3288 N   0  0  0  0  0  0  0  0  0  0  0  0
   21.2397   -5.9108  -13.8745 C   0  0  0  0  0  0  0  0  0  0  0  0
   22.5098   -5.4829  -13.5477 O   0  0  0  0  0  0  0  0  0  0  0  0
   20.2986   -5.1391  -13.5687 O   0  0  0  0  0  0  0  0  0  0  0  0
  2  1  1  0
  3  2  1  0
  3  4  1  6
  5  3  1  0
  5  6  2  0
  7  5  1  0
  8  7  1  0
  8 11  1  0
  8  9  1  1
 10  9  1  0
 11 18  1  0
 11 12  2  0
 13 14  1  0
 14 15  1  0
 15 16  1  6
 17 15  1  0
 17 18  1  6
 19 20  1  0
 19 17  1  0
 21 19  2  0
M  END
$$$$
