SCI.pdb
     RDKit          3D

 21 20  0  0  1  0  0  0  0  0999 V2000
   28.7473  -19.3804  -14.3333 O   0  0  0  0  0  0  0  0  0  0  0  0
   28.3639  -20.7075  -14.0686 C   0  0  0  0  0  0  0  0  0  0  0  0
   26.8525  -20.7310  -14.0390 C   0  0  2  0  0  0  0  0  0  0  0  0
   26.2661  -20.1640  -15.2158 N   0  0  0  0  0  0  0  0  0  0  0  0
   26.3441  -20.1110  -12.7880 C   0  0  0  0  0  0  0  0  0  0  0  0
   26.1107  -18.8832  -12.6761 O   0  0  0  0  0  0  0  0  0  0  0  0
   26.0993  -20.9164  -11.6448 N   0  0  0  0  0  0  0  0  0  0  0  0
   25.5352  -20.4658  -10.4151 C   0  0  1  0  0  0  0  0  0  0  0  0
   24.0625  -20.7152  -10.2796 C   0  0  0  0  0  0  0  0  0  0  0  0
   23.1150  -19.5106  -11.2181 S   0  0  0  0  0  0  0  0  0  0  0  0
   26.2511  -21.0235   -9.2263 C   0  0  0  0  0  0  0  0  0  0  0  0
   26.7260  -22.1832   -9.2556 O   0  0  0  0  0  0  0  0  0  0  0  0
   29.3112  -18.2104   -5.5440 C   0  0  0  0  0  0  0  0  0  0  0  0
   28.7353  -19.3152   -6.4434 C   0  0  0  0  0  0  0  0  0  0  0  0
   27.4151  -19.7395   -5.8874 C   0  0  2  0  0  0  0  0  0  0  0  0
   27.6231  -20.1984   -4.4713 C   0  0  0  0  0  0  0  0  0  0  0  0
   26.6661  -20.6877   -6.7414 C   0  0  2  0  0  0  0  0  0  0  0  0
   26.3770  -20.2091   -8.0728 N   0  0  0  0  0  0  0  0  0  0  0  0
   25.4619  -21.2915   -6.1413 C   0  0  0  0  0  0  0  0  0  0  0  0
   25.5592  -22.4809   -5.4492 O   0  0  0  0  0  0  0  0  0  0  0  0
   24.3164  -20.7842   -6.2140 O   0  0  0  0  0  0  0  0  0  0  0  0
  2  1  1  0
  3  2  1  0
  3  4  1  6
  5  3  1  0
  5  6  2  0
  7  5  1  0
  8  7  1  0
  8 11  1  0
  8  9  1  1
 10  9  1  0
 11 18  1  0
 11 12  2  0
 13 14  1  0
 14 15  1  0
 15 16  1  1
 17 15  1  0
 17 18  1  6
 19 20  1  0
 19 17  1  0
 21 19  2  0
M  END
$$$$
