SCI.pdb
     RDKit          3D

 21 20  0  0  1  0  0  0  0  0999 V2000
   19.2079  -13.8977  -15.9879 O   0  0  0  0  0  0  0  0  0  0  0  0
   19.6545  -13.5871  -17.2848 C   0  0  0  0  0  0  0  0  0  0  0  0
   21.1622  -13.6973  -17.2689 C   0  0  2  0  0  0  0  0  0  0  0  0
   21.6240  -14.8917  -16.6282 N   0  0  0  0  0  0  0  0  0  0  0  0
   21.7707  -12.4676  -16.6988 C   0  0  0  0  0  0  0  0  0  0  0  0
   22.8820  -12.4583  -16.1159 O   0  0  0  0  0  0  0  0  0  0  0  0
   21.0902  -11.2258  -16.8001 N   0  0  0  0  0  0  0  0  0  0  0  0
   21.5781   -9.9693  -16.3344 C   0  0  1  0  0  0  0  0  0  0  0  0
   22.9029   -9.5660  -16.9103 C   0  0  0  0  0  0  0  0  0  0  0  0
   23.4452   -7.9897  -16.2388 S   0  0  0  0  0  0  0  0  0  0  0  0
   20.5864   -8.8679  -16.5347 C   0  0  0  0  0  0  0  0  0  0  0  0
   20.2343   -8.5306  -17.6894 O   0  0  0  0  0  0  0  0  0  0  0  0
   15.1875   -7.9943  -15.5917 C   0  0  0  0  0  0  0  0  0  0  0  0
   16.4166   -7.1434  -15.2365 C   0  0  0  0  0  0  0  0  0  0  0  0
   17.6107   -8.0390  -15.1707 C   0  0  2  0  0  0  0  0  0  0  0  0
   17.5257   -8.8495  -13.9079 C   0  0  0  0  0  0  0  0  0  0  0  0
   18.9047   -7.3523  -15.3793 C   0  0  2  0  0  0  0  0  0  0  0  0
   20.0589   -8.2200  -15.3893 N   0  0  0  0  0  0  0  0  0  0  0  0
   19.1584   -6.1720  -14.5323 C   0  0  0  0  0  0  0  0  0  0  0  0
   20.3092   -6.1019  -13.7748 O   0  0  0  0  0  0  0  0  0  0  0  0
   18.3792   -5.1919  -14.4493 O   0  0  0  0  0  0  0  0  0  0  0  0
  2  1  1  0
  3  2  1  0
  3  4  1  1
  5  3  1  0
  5  6  2  0
  7  5  1  0
  8  7  1  0
  8 11  1  0
  8  9  1  6
 10  9  1  0
 11 18  1  0
 11 12  2  0
 13 14  1  0
 14 15  1  0
 15 16  1  1
 17 15  1  0
 17 18  1  1
 19 20  1  0
 19 17  1  0
 21 19  2  0
M  END
$$$$
