SCI.pdb
     RDKit          3D

 21 20  0  0  1  0  0  0  0  0999 V2000
   16.5349  -10.5444  -18.1210 O   0  0  0  0  0  0  0  0  0  0  0  0
   17.3211   -9.8442  -17.1885 C   0  0  0  0  0  0  0  0  0  0  0  0
   18.5478  -10.6880  -16.9259 C   0  0  2  0  0  0  0  0  0  0  0  0
   18.2269  -12.0001  -16.4507 N   0  0  0  0  0  0  0  0  0  0  0  0
   19.4955   -9.9701  -16.0347 C   0  0  0  0  0  0  0  0  0  0  0  0
   19.2103   -9.6301  -14.8609 O   0  0  0  0  0  0  0  0  0  0  0  0
   20.7945   -9.6369  -16.5004 N   0  0  0  0  0  0  0  0  0  0  0  0
   21.8024   -8.9672  -15.7459 C   0  0  1  0  0  0  0  0  0  0  0  0
   23.2021   -9.4148  -16.0453 C   0  0  0  0  0  0  0  0  0  0  0  0
   23.6766  -10.7946  -14.9962 S   0  0  0  0  0  0  0  0  0  0  0  0
   21.7115   -7.4800  -15.8753 C   0  0  0  0  0  0  0  0  0  0  0  0
   21.5633   -6.9468  -17.0001 O   0  0  0  0  0  0  0  0  0  0  0  0
   18.4606   -3.0907  -14.9766 C   0  0  0  0  0  0  0  0  0  0  0  0
   19.9611   -3.3698  -14.7986 C   0  0  0  0  0  0  0  0  0  0  0  0
   20.1648   -4.8488  -14.7399 C   0  0  2  0  0  0  0  0  0  0  0  0
   19.2571   -5.4101  -13.6817 C   0  0  0  0  0  0  0  0  0  0  0  0
   21.5792   -5.2691  -14.6285 C   0  0  2  0  0  0  0  0  0  0  0  0
   21.7970   -6.6949  -14.6980 N   0  0  0  0  0  0  0  0  0  0  0  0
   22.3440   -4.6879  -13.5096 C   0  0  0  0  0  0  0  0  0  0  0  0
   22.5814   -3.3295  -13.4692 O   0  0  0  0  0  0  0  0  0  0  0  0
   22.8083   -5.3606  -12.5575 O   0  0  0  0  0  0  0  0  0  0  0  0
  2  1  1  0
  3  2  1  0
  3  4  1  1
  5  3  1  0
  5  6  2  0
  7  5  1  0
  8  7  1  0
  8 11  1  0
  8  9  1  6
 10  9  1  0
 11 18  1  0
 11 12  2  0
 13 14  1  0
 14 15  1  0
 15 16  1  1
 17 15  1  0
 17 18  1  1
 19 20  1  0
 19 17  1  0
 21 19  2  0
M  END
$$$$
