SCI.pdb
     RDKit          3D

 21 20  0  0  1  0  0  0  0  0999 V2000
   11.8257  -22.2999   -1.4751 O   0  0  0  0  0  0  0  0  0  0  0  0
   10.5693  -21.7793   -1.1168 C   0  0  0  0  0  0  0  0  0  0  0  0
   10.4665  -20.4075   -1.7437 C   0  0  2  0  0  0  0  0  0  0  0  0
   10.7568  -20.4155   -3.1458 N   0  0  0  0  0  0  0  0  0  0  0  0
   11.2905  -19.4258   -0.9921 C   0  0  0  0  0  0  0  0  0  0  0  0
   11.5088  -18.2589   -1.3987 O   0  0  0  0  0  0  0  0  0  0  0  0
   11.8744  -19.7913    0.2492 N   0  0  0  0  0  0  0  0  0  0  0  0
   12.5767  -18.9152    1.1283 C   0  0  1  0  0  0  0  0  0  0  0  0
   11.8110  -17.6877    1.5235 C   0  0  0  0  0  0  0  0  0  0  0  0
   12.7665  -16.6667    2.6522 S   0  0  0  0  0  0  0  0  0  0  0  0
   13.0680  -19.6177    2.3538 C   0  0  0  0  0  0  0  0  0  0  0  0
   12.2634  -20.1957    3.1217 O   0  0  0  0  0  0  0  0  0  0  0  0
   18.4178  -21.8444    2.7490 C   0  0  0  0  0  0  0  0  0  0  0  0
   17.2615  -20.8531    2.5460 C   0  0  0  0  0  0  0  0  0  0  0  0
   16.0609  -21.3702    3.2694 C   0  0  2  0  0  0  0  0  0  0  0  0
   15.4559  -22.4770    2.4522 C   0  0  0  0  0  0  0  0  0  0  0  0
   15.1058  -20.3245    3.6983 C   0  0  2  0  0  0  0  0  0  0  0  0
   14.4602  -19.6119    2.6210 N   0  0  0  0  0  0  0  0  0  0  0  0
   15.5928  -19.3783    4.7192 C   0  0  0  0  0  0  0  0  0  0  0  0
   15.6680  -18.0314    4.4304 O   0  0  0  0  0  0  0  0  0  0  0  0
   15.9535  -19.7195    5.8717 O   0  0  0  0  0  0  0  0  0  0  0  0
  2  1  1  0
  3  2  1  0
  3  4  1  6
  5  3  1  0
  5  6  2  0
  7  5  1  0
  8  7  1  0
  8 11  1  0
  8  9  1  1
 10  9  1  0
 11 18  1  0
 11 12  2  0
 13 14  1  0
 14 15  1  0
 15 16  1  6
 17 15  1  0
 17 18  1  6
 19 20  1  0
 19 17  1  0
 21 19  2  0
M  END
$$$$
