SCI.pdb
     RDKit          3D

 21 20  0  0  1  0  0  0  0  0999 V2000
   28.2607  -19.7397  -16.2163 O   0  0  0  0  0  0  0  0  0  0  0  0
   27.0931  -20.5236  -16.1964 C   0  0  0  0  0  0  0  0  0  0  0  0
   27.3552  -21.6792  -15.2575 C   0  0  2  0  0  0  0  0  0  0  0  0
   27.8795  -22.8305  -15.9283 N   0  0  0  0  0  0  0  0  0  0  0  0
   26.1438  -21.9850  -14.4533 C   0  0  0  0  0  0  0  0  0  0  0  0
   25.3206  -22.8794  -14.7651 O   0  0  0  0  0  0  0  0  0  0  0  0
   25.8731  -21.2499  -13.2693 N   0  0  0  0  0  0  0  0  0  0  0  0
   24.6578  -21.2906  -12.5244 C   0  0  1  0  0  0  0  0  0  0  0  0
   24.7690  -20.7603  -11.1260 C   0  0  0  0  0  0  0  0  0  0  0  0
   26.0607  -21.6135  -10.2132 S   0  0  0  0  0  0  0  0  0  0  0  0
   23.5354  -20.6036  -13.2350 C   0  0  0  0  0  0  0  0  0  0  0  0
   23.6070  -19.3819  -13.5065 O   0  0  0  0  0  0  0  0  0  0  0  0
   22.1789  -20.2141  -17.0570 C   0  0  0  0  0  0  0  0  0  0  0  0
   21.9289  -21.6380  -16.5366 C   0  0  0  0  0  0  0  0  0  0  0  0
   20.8532  -21.5826  -15.5011 C   0  0  2  0  0  0  0  0  0  0  0  0
   19.5896  -21.1003  -16.1564 C   0  0  0  0  0  0  0  0  0  0  0  0
   21.2266  -20.8563  -14.2672 C   0  0  2  0  0  0  0  0  0  0  0  0
   22.3955  -21.3676  -13.5908 N   0  0  0  0  0  0  0  0  0  0  0  0
   20.1395  -20.6155  -13.3003 C   0  0  0  0  0  0  0  0  0  0  0  0
   19.4076  -19.4477  -13.3628 O   0  0  0  0  0  0  0  0  0  0  0  0
   19.8182  -21.4236  -12.3956 O   0  0  0  0  0  0  0  0  0  0  0  0
  2  1  1  0
  3  2  1  0
  3  4  1  6
  5  3  1  0
  5  6  2  0
  7  5  1  0
  8  7  1  0
  8 11  1  0
  8  9  1  1
 10  9  1  0
 11 18  1  0
 11 12  2  0
 13 14  1  0
 14 15  1  0
 15 16  1  6
 17 15  1  0
 17 18  1  1
 19 20  1  0
 19 17  1  0
 21 19  2  0
M  END
$$$$
