SCI.pdb
     RDKit          3D

 21 20  0  0  1  0  0  0  0  0999 V2000
   16.6778  -10.3312  -18.6243 O   0  0  0  0  0  0  0  0  0  0  0  0
   17.3739  -10.7004  -17.4593 C   0  0  0  0  0  0  0  0  0  0  0  0
   18.7252  -11.2162  -17.8993 C   0  0  2  0  0  0  0  0  0  0  0  0
   18.6780  -12.5705  -18.3617 N   0  0  0  0  0  0  0  0  0  0  0  0
   19.7374  -11.0088  -16.8315 C   0  0  0  0  0  0  0  0  0  0  0  0
   20.1005  -11.9162  -16.0444 O   0  0  0  0  0  0  0  0  0  0  0  0
   20.3434   -9.7359  -16.6648 N   0  0  0  0  0  0  0  0  0  0  0  0
   21.3655   -9.4180  -15.7226 C   0  0  1  0  0  0  0  0  0  0  0  0
   22.5866  -10.2837  -15.8159 C   0  0  0  0  0  0  0  0  0  0  0  0
   23.8376   -9.7643  -14.6348 S   0  0  0  0  0  0  0  0  0  0  0  0
   21.7641   -7.9778  -15.7846 C   0  0  0  0  0  0  0  0  0  0  0  0
   22.3290   -7.5171  -16.8044 O   0  0  0  0  0  0  0  0  0  0  0  0
   19.4483   -2.8346  -15.8227 C   0  0  0  0  0  0  0  0  0  0  0  0
   20.6651   -3.4724  -15.1345 C   0  0  0  0  0  0  0  0  0  0  0  0
   20.4635   -4.9522  -15.0906 C   0  0  2  0  0  0  0  0  0  0  0  0
   19.1941   -5.2351  -14.3371 C   0  0  0  0  0  0  0  0  0  0  0  0
   21.6417   -5.7182  -14.6275 C   0  0  2  0  0  0  0  0  0  0  0  0
   21.4870   -7.1535  -14.6651 N   0  0  0  0  0  0  0  0  0  0  0  0
   22.2242   -5.2993  -13.3391 C   0  0  0  0  0  0  0  0  0  0  0  0
   22.7291   -4.0238  -13.1932 O   0  0  0  0  0  0  0  0  0  0  0  0
   22.2943   -6.0423  -12.3302 O   0  0  0  0  0  0  0  0  0  0  0  0
  2  1  1  0
  3  2  1  0
  3  4  1  1
  5  3  1  0
  5  6  2  0
  7  5  1  0
  8  7  1  0
  8 11  1  0
  8  9  1  6
 10  9  1  0
 11 18  1  0
 11 12  2  0
 13 14  1  0
 14 15  1  0
 15 16  1  1
 17 15  1  0
 17 18  1  1
 19 20  1  0
 19 17  1  0
 21 19  2  0
M  END
$$$$
