SCI.pdb
     RDKit          3D

 21 20  0  0  1  0  0  0  0  0999 V2000
   21.2878  -13.2806  -17.6244 O   0  0  0  0  0  0  0  0  0  0  0  0
   20.4756  -12.2126  -18.0460 C   0  0  0  0  0  0  0  0  0  0  0  0
   19.3000  -12.1529  -17.0973 C   0  0  2  0  0  0  0  0  0  0  0  0
   18.2327  -13.0267  -17.4814 N   0  0  0  0  0  0  0  0  0  0  0  0
   18.8526  -10.7489  -16.9065 C   0  0  0  0  0  0  0  0  0  0  0  0
   18.3266  -10.0661  -17.8186 O   0  0  0  0  0  0  0  0  0  0  0  0
   19.0122  -10.1178  -15.6449 N   0  0  0  0  0  0  0  0  0  0  0  0
   18.7171   -8.7534  -15.3539 C   0  0  1  0  0  0  0  0  0  0  0  0
   17.4999   -8.5498  -14.5017 C   0  0  0  0  0  0  0  0  0  0  0  0
   16.1011   -9.4786  -15.1422 S   0  0  0  0  0  0  0  0  0  0  0  0
   19.8822   -8.0399  -14.7453 C   0  0  0  0  0  0  0  0  0  0  0  0
   20.4855   -8.5298  -13.7618 O   0  0  0  0  0  0  0  0  0  0  0  0
   24.0866   -7.1977  -17.3792 C   0  0  0  0  0  0  0  0  0  0  0  0
   23.0185   -7.3710  -16.2883 C   0  0  0  0  0  0  0  0  0  0  0  0
   22.5526   -6.0172  -15.8612 C   0  0  2  0  0  0  0  0  0  0  0  0
   23.7497   -5.2207  -15.4235 C   0  0  0  0  0  0  0  0  0  0  0  0
   21.4317   -6.0308  -14.8954 C   0  0  2  0  0  0  0  0  0  0  0  0
   20.2827   -6.8020  -15.3082 N   0  0  0  0  0  0  0  0  0  0  0  0
   21.0073   -4.7186  -14.3733 C   0  0  0  0  0  0  0  0  0  0  0  0
   19.9527   -4.0512  -14.9613 O   0  0  0  0  0  0  0  0  0  0  0  0
   21.5516   -4.1459  -13.3984 O   0  0  0  0  0  0  0  0  0  0  0  0
  2  1  1  0
  3  2  1  0
  3  4  1  6
  5  3  1  0
  5  6  2  0
  7  5  1  0
  8  7  1  0
  8 11  1  0
  8  9  1  1
 10  9  1  0
 11 18  1  0
 11 12  2  0
 13 14  1  0
 14 15  1  0
 15 16  1  1
 17 15  1  0
 17 18  1  6
 19 20  1  0
 19 17  1  0
 21 19  2  0
M  END
$$$$
