TYC.pdb
     RDKit          3D

 26 26  0  0  1  0  0  0  0  0999 V2000
   30.1302  -20.6621  -19.4849 C   0  0  0  0  0  0  0  0  0  0  0  0
   28.9717  -20.7597  -18.5447 C   0  0  1  0  0  0  0  0  0  0  0  0
   27.7922  -20.5918  -19.2271 O   0  0  0  0  0  0  0  0  0  0  0  0
   29.0027  -21.9930  -17.6745 C   0  0  2  0  0  0  0  0  0  0  0  0
   28.8944  -23.1605  -18.5251 N   0  0  0  0  0  0  0  0  0  0  0  0
   27.9457  -22.0339  -16.6640 C   0  0  0  0  0  0  0  0  0  0  0  0
   26.8783  -22.6625  -16.8761 O   0  0  0  0  0  0  0  0  0  0  0  0
   23.4195  -20.4517   -9.2564 O   0  0  0  0  0  0  0  0  0  0  0  0
   24.4258  -20.5252  -10.1992 C   0  0  0  0  0  0  0  0  0  0  0  0
   25.1471  -19.4105  -10.5964 C   0  0  0  0  0  0  0  0  0  0  0  0
   26.1513  -19.4849  -11.5374 C   0  0  0  0  0  0  0  0  0  0  0  0
   26.4597  -20.6913  -12.1088 C   0  0  0  0  0  0  0  0  0  0  0  0
   27.5172  -20.8280  -13.1135 C   0  0  0  0  0  0  0  0  0  0  0  0
   26.9499  -21.2957  -14.4616 C   0  0  2  0  0  0  0  0  0  0  0  0
   28.0458  -21.3785  -15.3926 N   0  0  0  0  0  0  0  0  0  0  0  0
   25.8802  -20.3817  -14.9230 C   0  0  0  0  0  0  0  0  0  0  0  0
   26.1330  -19.2522  -15.4467 O   0  0  0  0  0  0  0  0  0  0  0  0
   25.7319  -21.8152  -11.7078 C   0  0  0  0  0  0  0  0  0  0  0  0
   24.7371  -21.7386  -10.7749 C   0  0  0  0  0  0  0  0  0  0  0  0
   24.5101  -20.7359  -14.7968 N   0  0  0  0  0  0  0  0  0  0  0  0
   23.4343  -19.8168  -15.1592 C   0  0  1  0  0  0  0  0  0  0  0  0
   23.2862  -19.8647  -16.6696 C   0  0  0  0  0  0  0  0  0  0  0  0
   21.8217  -18.9369  -17.1962 S   0  0  0  0  0  0  0  0  0  0  0  0
   22.1843  -20.1228  -14.4630 C   0  0  0  0  0  0  0  0  0  0  0  0
   21.1666  -19.1826  -14.5031 O   0  0  0  0  0  0  0  0  0  0  0  0
   21.9752  -21.1959  -13.8251 O   0  0  0  0  0  0  0  0  0  0  0  0
  2  1  1  6
  3  2  1  0
  4  2  1  0
  4  5  1  6
  6  7  2  0
  6  4  1  0
  8  9  1  0
  9 10  2  0
 10 11  1  0
 12 11  2  0
 12 13  1  0
 14 13  1  1
 14 15  1  0
 15  6  1  0
 16 17  2  0
 16 14  1  0
 18 12  1  0
 19  9  1  0
 19 18  2  0
 20 16  1  0
 21 20  1  0
 21 22  1  6
 23 22  1  0
 24 21  1  0
 25 24  1  0
 26 24  2  0
M  END
$$$$
