TYC.pdb
     RDKit          3D

 26 26  0  0  1  0  0  0  0  0999 V2000
   23.3174  -20.4431  -17.5933 C   0  0  0  0  0  0  0  0  0  0  0  0
   24.5316  -21.2949  -17.4032 C   0  0  1  0  0  0  0  0  0  0  0  0
   25.3660  -21.1793  -18.4873 O   0  0  0  0  0  0  0  0  0  0  0  0
   25.2202  -21.0771  -16.0775 C   0  0  2  0  0  0  0  0  0  0  0  0
   26.3429  -21.9878  -15.9858 N   0  0  0  0  0  0  0  0  0  0  0  0
   24.3496  -21.2679  -14.9174 C   0  0  0  0  0  0  0  0  0  0  0  0
   24.2699  -22.3870  -14.3512 O   0  0  0  0  0  0  0  0  0  0  0  0
   27.5670  -21.1283   -9.3423 O   0  0  0  0  0  0  0  0  0  0  0  0
   26.4324  -20.7215  -10.0163 C   0  0  0  0  0  0  0  0  0  0  0  0
   25.1644  -20.8553   -9.4734 C   0  0  0  0  0  0  0  0  0  0  0  0
   24.0326  -20.4489  -10.1468 C   0  0  0  0  0  0  0  0  0  0  0  0
   24.1461  -19.8928  -11.3937 C   0  0  0  0  0  0  0  0  0  0  0  0
   22.9772  -19.4435  -12.1540 C   0  0  0  0  0  0  0  0  0  0  0  0
   22.6222  -20.4356  -13.2710 C   0  0  2  0  0  0  0  0  0  0  0  0
   23.5453  -20.2221  -14.3558 N   0  0  0  0  0  0  0  0  0  0  0  0
   21.2103  -20.2714  -13.6857 C   0  0  0  0  0  0  0  0  0  0  0  0
   20.8736  -19.5437  -14.6711 O   0  0  0  0  0  0  0  0  0  0  0  0
   25.4253  -19.7581  -11.9408 C   0  0  0  0  0  0  0  0  0  0  0  0
   26.5454  -20.1617  -11.2711 C   0  0  0  0  0  0  0  0  0  0  0  0
   20.1616  -20.9297  -12.9889 N   0  0  0  0  0  0  0  0  0  0  0  0
   19.0952  -21.6439  -13.6863 C   0  0  1  0  0  0  0  0  0  0  0  0
   19.7480  -22.7310  -14.5215 C   0  0  0  0  0  0  0  0  0  0  0  0
   18.5482  -23.4634  -15.6647 S   0  0  0  0  0  0  0  0  0  0  0  0
   18.0871  -22.1722  -12.7667 C   0  0  0  0  0  0  0  0  0  0  0  0
   16.7509  -22.0010  -13.0931 O   0  0  0  0  0  0  0  0  0  0  0  0
   18.3614  -22.7773  -11.6893 O   0  0  0  0  0  0  0  0  0  0  0  0
  2  1  1  6
  3  2  1  0
  4  2  1  0
  4  5  1  1
  6  7  2  0
  6  4  1  0
  8  9  1  0
  9 10  2  0
 10 11  1  0
 12 11  2  0
 12 13  1  0
 14 13  1  1
 14 15  1  0
 15  6  1  0
 16 17  2  0
 16 14  1  0
 18 12  1  0
 19  9  1  0
 19 18  2  0
 20 16  1  0
 21 20  1  0
 21 22  1  1
 23 22  1  0
 24 21  1  0
 25 24  1  0
 26 24  2  0
M  END
$$$$
