TYC.pdb
     RDKit          3D

 26 26  0  0  1  0  0  0  0  0999 V2000
   27.2384  -18.8433  -19.6048 C   0  0  0  0  0  0  0  0  0  0  0  0
   26.7537  -18.7599  -18.1927 C   0  0  1  0  0  0  0  0  0  0  0  0
   27.5235  -17.8750  -17.4790 O   0  0  0  0  0  0  0  0  0  0  0  0
   25.2697  -18.5080  -18.0777 C   0  0  2  0  0  0  0  0  0  0  0  0
   24.9699  -17.2304  -18.6909 N   0  0  0  0  0  0  0  0  0  0  0  0
   24.7714  -18.5107  -16.7023 C   0  0  0  0  0  0  0  0  0  0  0  0
   24.5993  -17.4329  -16.0794 O   0  0  0  0  0  0  0  0  0  0  0  0
   18.4349  -17.6764  -16.9480 O   0  0  0  0  0  0  0  0  0  0  0  0
   19.4727  -18.3610  -16.3469 C   0  0  0  0  0  0  0  0  0  0  0  0
   19.8078  -18.1716  -15.0157 C   0  0  0  0  0  0  0  0  0  0  0  0
   20.8438  -18.8553  -14.4166 C   0  0  0  0  0  0  0  0  0  0  0  0
   21.5762  -19.7548  -15.1455 C   0  0  0  0  0  0  0  0  0  0  0  0
   22.6873  -20.5089  -14.5597 C   0  0  0  0  0  0  0  0  0  0  0  0
   23.9968  -19.7088  -14.6162 C   0  0  2  0  0  0  0  0  0  0  0  0
   24.4513  -19.7091  -15.9829 N   0  0  0  0  0  0  0  0  0  0  0  0
   24.9969  -20.2782  -13.6846 C   0  0  0  0  0  0  0  0  0  0  0  0
   25.6939  -21.2985  -13.9793 O   0  0  0  0  0  0  0  0  0  0  0  0
   21.2378  -19.9454  -16.4882 C   0  0  0  0  0  0  0  0  0  0  0  0
   20.2105  -19.2664  -17.0795 C   0  0  0  0  0  0  0  0  0  0  0  0
   25.2201  -19.6985  -12.4068 N   0  0  0  0  0  0  0  0  0  0  0  0
   26.0584  -20.3419  -11.3985 C   0  0  1  0  0  0  0  0  0  0  0  0
   25.8847  -19.5686  -10.1033 C   0  0  0  0  0  0  0  0  0  0  0  0
   26.9017  -20.2900   -8.7888 S   0  0  0  0  0  0  0  0  0  0  0  0
   25.7523  -21.7648  -11.2475 C   0  0  0  0  0  0  0  0  0  0  0  0
   26.8107  -22.6563  -11.1688 O   0  0  0  0  0  0  0  0  0  0  0  0
   24.5777  -22.2321  -11.1843 O   0  0  0  0  0  0  0  0  0  0  0  0
  2  1  1  6
  3  2  1  0
  4  2  1  0
  4  5  1  1
  6  7  2  0
  6  4  1  0
  8  9  1  0
  9 10  2  0
 10 11  1  0
 12 11  2  0
 12 13  1  0
 14 13  1  6
 14 15  1  0
 15  6  1  0
 16 17  2  0
 16 14  1  0
 18 12  1  0
 19  9  1  0
 19 18  2  0
 20 16  1  0
 21 20  1  0
 21 22  1  1
 23 22  1  0
 24 21  1  0
 25 24  1  0
 26 24  2  0
M  END
$$$$
