TYC.pdb
     RDKit          3D

 26 26  0  0  1  0  0  0  0  0999 V2000
   26.0638  -22.0363  -17.8791 C   0  0  0  0  0  0  0  0  0  0  0  0
   25.7116  -23.4895  -17.8837 C   0  0  1  0  0  0  0  0  0  0  0  0
   26.3674  -24.1328  -18.9041 O   0  0  0  0  0  0  0  0  0  0  0  0
   25.8755  -24.1547  -16.5385 C   0  0  2  0  0  0  0  0  0  0  0  0
   25.3317  -25.4949  -16.6173 N   0  0  0  0  0  0  0  0  0  0  0  0
   25.2306  -23.4374  -15.4386 C   0  0  0  0  0  0  0  0  0  0  0  0
   23.9847  -23.4874  -15.2822 O   0  0  0  0  0  0  0  0  0  0  0  0
   24.0021  -19.6102   -7.6099 O   0  0  0  0  0  0  0  0  0  0  0  0
   24.5531  -20.1346   -8.7624 C   0  0  0  0  0  0  0  0  0  0  0  0
   23.7889  -20.7968   -9.7101 C   0  0  0  0  0  0  0  0  0  0  0  0
   24.3398  -21.3199  -10.8601 C   0  0  0  0  0  0  0  0  0  0  0  0
   25.6842  -21.1903  -11.0900 C   0  0  0  0  0  0  0  0  0  0  0  0
   26.3221  -21.7266  -12.2948 C   0  0  0  0  0  0  0  0  0  0  0  0
   25.3074  -21.8999  -13.4343 C   0  0  2  0  0  0  0  0  0  0  0  0
   25.9514  -22.6465  -14.4842 N   0  0  0  0  0  0  0  0  0  0  0  0
   24.8107  -20.5835  -13.8955 C   0  0  0  0  0  0  0  0  0  0  0  0
   23.8055  -20.0150  -13.3662 O   0  0  0  0  0  0  0  0  0  0  0  0
   26.4545  -20.5224  -10.1338 C   0  0  0  0  0  0  0  0  0  0  0  0
   25.9059  -20.0049   -8.9949 C   0  0  0  0  0  0  0  0  0  0  0  0
   25.4469  -19.8942  -14.9627 N   0  0  0  0  0  0  0  0  0  0  0  0
   25.0096  -18.5717  -15.4023 C   0  0  1  0  0  0  0  0  0  0  0  0
   26.1722  -17.9314  -16.1400 C   0  0  0  0  0  0  0  0  0  0  0  0
   27.6927  -18.0548  -15.1626 S   0  0  0  0  0  0  0  0  0  0  0  0
   23.7939  -18.6303  -16.2145 C   0  0  0  0  0  0  0  0  0  0  0  0
   22.8375  -17.6439  -16.0317 O   0  0  0  0  0  0  0  0  0  0  0  0
   23.5620  -19.5287  -17.0756 O   0  0  0  0  0  0  0  0  0  0  0  0
  2  1  1  1
  3  2  1  0
  4  2  1  0
  4  5  1  6
  6  7  2  0
  6  4  1  0
  8  9  1  0
  9 10  2  0
 10 11  1  0
 12 11  2  0
 12 13  1  0
 14 13  1  1
 14 15  1  0
 15  6  1  0
 16 17  2  0
 16 14  1  0
 18 12  1  0
 19  9  1  0
 19 18  2  0
 20 16  1  0
 21 20  1  0
 21 22  1  6
 23 22  1  0
 24 21  1  0
 25 24  1  0
 26 24  2  0
M  END
$$$$
