TYC.pdb
     RDKit          3D

 26 26  0  0  1  0  0  0  0  0999 V2000
   29.8095  -10.6512  -19.8969 C   0  0  0  0  0  0  0  0  0  0  0  0
   28.3370  -10.7765  -19.6689 C   0  0  1  0  0  0  0  0  0  0  0  0
   27.9907  -12.0972  -19.5237 O   0  0  0  0  0  0  0  0  0  0  0  0
   27.8188   -9.8853  -18.5660 C   0  0  2  0  0  0  0  0  0  0  0  0
   28.4971  -10.2337  -17.3345 N   0  0  0  0  0  0  0  0  0  0  0  0
   26.3731   -9.9733  -18.3609 C   0  0  0  0  0  0  0  0  0  0  0  0
   25.5757   -9.7574  -19.3080 O   0  0  0  0  0  0  0  0  0  0  0  0
   25.6310  -16.4217  -18.8699 O   0  0  0  0  0  0  0  0  0  0  0  0
   25.2539  -15.2756  -18.1981 C   0  0  0  0  0  0  0  0  0  0  0  0
   24.1464  -14.5317  -18.5730 C   0  0  0  0  0  0  0  0  0  0  0  0
   23.7709  -13.3879  -17.9020 C   0  0  0  0  0  0  0  0  0  0  0  0
   24.5043  -12.9580  -16.8277 C   0  0  0  0  0  0  0  0  0  0  0  0
   24.1506  -11.7500  -16.0781 C   0  0  0  0  0  0  0  0  0  0  0  0
   24.3571  -10.4862  -16.9257 C   0  0  2  0  0  0  0  0  0  0  0  0
   25.7750  -10.3030  -17.1001 N   0  0  0  0  0  0  0  0  0  0  0  0
   23.7074   -9.3183  -16.2882 C   0  0  0  0  0  0  0  0  0  0  0  0
   24.1906   -8.7522  -15.2587 O   0  0  0  0  0  0  0  0  0  0  0  0
   25.6212  -13.7087  -16.4500 C   0  0  0  0  0  0  0  0  0  0  0  0
   25.9912  -14.8420  -17.1169 C   0  0  0  0  0  0  0  0  0  0  0  0
   22.5016   -8.7769  -16.8092 N   0  0  0  0  0  0  0  0  0  0  0  0
   21.8154   -7.6557  -16.1723 C   0  0  1  0  0  0  0  0  0  0  0  0
   21.2014   -6.8133  -17.2763 C   0  0  0  0  0  0  0  0  0  0  0  0
   20.1843   -5.4876  -16.5756 S   0  0  0  0  0  0  0  0  0  0  0  0
   20.8271   -8.0966  -15.1875 C   0  0  0  0  0  0  0  0  0  0  0  0
   20.7436   -7.4036  -13.9899 O   0  0  0  0  0  0  0  0  0  0  0  0
   20.0422   -9.0740  -15.3628 O   0  0  0  0  0  0  0  0  0  0  0  0
  2  1  1  1
  3  2  1  0
  4  2  1  0
  4  5  1  1
  6  7  2  0
  6  4  1  0
  8  9  1  0
  9 10  2  0
 10 11  1  0
 12 11  2  0
 12 13  1  0
 14 13  1  1
 14 15  1  0
 15  6  1  0
 16 17  2  0
 16 14  1  0
 18 12  1  0
 19  9  1  0
 19 18  2  0
 20 16  1  0
 21 20  1  0
 21 22  1  6
 23 22  1  0
 24 21  1  0
 25 24  1  0
 26 24  2  0
M  END
$$$$
