TYC.pdb
     RDKit          3D

 26 26  0  0  1  0  0  0  0  0999 V2000
   27.6599  -19.3900  -17.3165 C   0  0  0  0  0  0  0  0  0  0  0  0
   27.9809  -20.7569  -17.8309 C   0  0  1  0  0  0  0  0  0  0  0  0
   29.0102  -20.6923  -18.7372 O   0  0  0  0  0  0  0  0  0  0  0  0
   28.1922  -21.7784  -16.7396 C   0  0  2  0  0  0  0  0  0  0  0  0
   28.3685  -23.0788  -17.3529 N   0  0  0  0  0  0  0  0  0  0  0  0
   27.0985  -21.8474  -15.7705 C   0  0  0  0  0  0  0  0  0  0  0  0
   26.0406  -22.4702  -16.0392 O   0  0  0  0  0  0  0  0  0  0  0  0
   22.3201  -20.6762   -8.4736 O   0  0  0  0  0  0  0  0  0  0  0  0
   23.3722  -20.7118   -9.3674 C   0  0  0  0  0  0  0  0  0  0  0  0
   24.6940  -20.7118   -8.9509 C   0  0  0  0  0  0  0  0  0  0  0  0
   25.7434  -20.7473   -9.8437 C   0  0  0  0  0  0  0  0  0  0  0  0
   25.4901  -20.7841  -11.1896 C   0  0  0  0  0  0  0  0  0  0  0  0
   26.5667  -20.8230  -12.1825 C   0  0  0  0  0  0  0  0  0  0  0  0
   26.0329  -21.2059  -13.5705 C   0  0  2  0  0  0  0  0  0  0  0  0
   27.1506  -21.2273  -14.4787 N   0  0  0  0  0  0  0  0  0  0  0  0
   24.9708  -20.2671  -13.9984 C   0  0  0  0  0  0  0  0  0  0  0  0
   25.1930  -19.0297  -14.1802 O   0  0  0  0  0  0  0  0  0  0  0  0
   24.1568  -20.7841  -11.6091 C   0  0  0  0  0  0  0  0  0  0  0  0
   23.1186  -20.7488  -10.7221 C   0  0  0  0  0  0  0  0  0  0  0  0
   23.6430  -20.7187  -14.2259 N   0  0  0  0  0  0  0  0  0  0  0  0
   22.5811  -19.8169  -14.6648 C   0  0  1  0  0  0  0  0  0  0  0  0
   22.5905  -19.8101  -16.1831 C   0  0  0  0  0  0  0  0  0  0  0  0
   21.1731  -18.8818  -16.8251 S   0  0  0  0  0  0  0  0  0  0  0  0
   21.2767  -20.1853  -14.1136 C   0  0  0  0  0  0  0  0  0  0  0  0
   20.3504  -19.1772  -13.8968 O   0  0  0  0  0  0  0  0  0  0  0  0
   20.9419  -21.3707  -13.8221 O   0  0  0  0  0  0  0  0  0  0  0  0
  2  1  1  1
  3  2  1  0
  4  2  1  0
  4  5  1  6
  6  7  2  0
  6  4  1  0
  8  9  1  0
  9 10  2  0
 10 11  1  0
 12 11  2  0
 12 13  1  0
 14 13  1  1
 14 15  1  0
 15  6  1  0
 16 17  2  0
 16 14  1  0
 18 12  1  0
 19  9  1  0
 19 18  2  0
 20 16  1  0
 21 20  1  0
 21 22  1  6
 23 22  1  0
 24 21  1  0
 25 24  1  0
 26 24  2  0
M  END
$$$$
