TYC.pdb
     RDKit          3D

 26 26  0  0  1  0  0  0  0  0999 V2000
   11.3090   -9.3734   -9.9239 C   0  0  0  0  0  0  0  0  0  0  0  0
   11.9755  -10.6954  -10.1337 C   0  0  1  0  0  0  0  0  0  0  0  0
   11.0342  -11.6895  -10.2371 O   0  0  0  0  0  0  0  0  0  0  0  0
   12.9843  -10.6914  -11.2568 C   0  0  2  0  0  0  0  0  0  0  0  0
   13.6014  -12.0000  -11.3272 N   0  0  0  0  0  0  0  0  0  0  0  0
   14.0265   -9.6746  -11.1156 C   0  0  0  0  0  0  0  0  0  0  0  0
   14.9285   -9.7954  -10.2489 O   0  0  0  0  0  0  0  0  0  0  0  0
   19.0289  -10.7182  -15.4015 O   0  0  0  0  0  0  0  0  0  0  0  0
   18.1605   -9.8032  -14.8397 C   0  0  0  0  0  0  0  0  0  0  0  0
   16.8070   -9.7924  -15.1369 C   0  0  0  0  0  0  0  0  0  0  0  0
   15.9410   -8.8787  -14.5757 C   0  0  0  0  0  0  0  0  0  0  0  0
   16.4162   -7.9442  -13.6939 C   0  0  0  0  0  0  0  0  0  0  0  0
   15.5410   -6.9501  -13.0678 C   0  0  0  0  0  0  0  0  0  0  0  0
   15.0359   -7.4327  -11.7003 C   0  0  2  0  0  0  0  0  0  0  0  0
   14.0948   -8.4980  -11.9323 N   0  0  0  0  0  0  0  0  0  0  0  0
   14.4462   -6.3100  -10.9359 C   0  0  0  0  0  0  0  0  0  0  0  0
   13.3227   -5.8003  -11.2384 O   0  0  0  0  0  0  0  0  0  0  0  0
   17.7815   -7.9555  -13.3945 C   0  0  0  0  0  0  0  0  0  0  0  0
   18.6376   -8.8622  -13.9521 C   0  0  0  0  0  0  0  0  0  0  0  0
   15.1224   -5.7504   -9.8186 N   0  0  0  0  0  0  0  0  0  0  0  0
   14.5774   -4.6231   -9.0665 C   0  0  1  0  0  0  0  0  0  0  0  0
   14.4618   -5.0585   -7.6164 C   0  0  0  0  0  0  0  0  0  0  0  0
   14.0350   -3.6499   -6.5600 S   0  0  0  0  0  0  0  0  0  0  0  0
   15.3795   -3.4097   -9.2256 C   0  0  0  0  0  0  0  0  0  0  0  0
   16.7601   -3.5317   -9.2062 O   0  0  0  0  0  0  0  0  0  0  0  0
   14.8886   -2.2533   -9.3800 O   0  0  0  0  0  0  0  0  0  0  0  0
  2  1  1  6
  3  2  1  0
  4  2  1  0
  4  5  1  1
  6  7  2  0
  6  4  1  0
  8  9  1  0
  9 10  2  0
 10 11  1  0
 12 11  2  0
 12 13  1  0
 14 13  1  6
 14 15  1  0
 15  6  1  0
 16 17  2  0
 16 14  1  0
 18 12  1  0
 19  9  1  0
 19 18  2  0
 20 16  1  0
 21 20  1  0
 21 22  1  1
 23 22  1  0
 24 21  1  0
 25 24  1  0
 26 24  2  0
M  END
$$$$
