TYC.pdb
     RDKit          3D

 26 26  0  0  1  0  0  0  0  0999 V2000
   27.2657  -19.2499  -16.8516 C   0  0  0  0  0  0  0  0  0  0  0  0
   27.8151  -20.5517  -17.3409 C   0  0  1  0  0  0  0  0  0  0  0  0
   28.8016  -20.3305  -18.2698 O   0  0  0  0  0  0  0  0  0  0  0  0
   28.2220  -21.4906  -16.2309 C   0  0  2  0  0  0  0  0  0  0  0  0
   28.5608  -22.7732  -16.8126 N   0  0  0  0  0  0  0  0  0  0  0  0
   27.1937  -21.6823  -15.2081 C   0  0  0  0  0  0  0  0  0  0  0  0
   26.2074  -22.4313  -15.4215 O   0  0  0  0  0  0  0  0  0  0  0  0
   22.7299  -20.7406   -7.6097 O   0  0  0  0  0  0  0  0  0  0  0  0
   23.6845  -20.6791   -8.6057 C   0  0  0  0  0  0  0  0  0  0  0  0
   23.5738  -19.8116   -9.6807 C   0  0  0  0  0  0  0  0  0  0  0  0
   24.5270  -19.7509  -10.6743 C   0  0  0  0  0  0  0  0  0  0  0  0
   25.6256  -20.5672  -10.6133 C   0  0  0  0  0  0  0  0  0  0  0  0
   26.6691  -20.5445  -11.6413 C   0  0  0  0  0  0  0  0  0  0  0  0
   26.1708  -21.1601  -12.9569 C   0  0  2  0  0  0  0  0  0  0  0  0
   27.2335  -21.0483  -13.9227 N   0  0  0  0  0  0  0  0  0  0  0  0
   24.9244  -20.4975  -13.4041 C   0  0  0  0  0  0  0  0  0  0  0  0
   24.9106  -19.3057  -13.8437 O   0  0  0  0  0  0  0  0  0  0  0  0
   25.7367  -21.4421   -9.5289 C   0  0  0  0  0  0  0  0  0  0  0  0
   24.7904  -21.5001   -8.5454 C   0  0  0  0  0  0  0  0  0  0  0  0
   23.6775  -21.1770  -13.3588 N   0  0  0  0  0  0  0  0  0  0  0  0
   22.4433  -20.5675  -13.8475 C   0  0  1  0  0  0  0  0  0  0  0  0
   22.5674  -20.4381  -15.3553 C   0  0  0  0  0  0  0  0  0  0  0  0
   21.0054  -19.8707  -16.0770 S   0  0  0  0  0  0  0  0  0  0  0  0
   21.2550  -21.3203  -13.4450 C   0  0  0  0  0  0  0  0  0  0  0  0
   20.0345  -20.6631  -13.4432 O   0  0  0  0  0  0  0  0  0  0  0  0
   21.2735  -22.5373  -13.0977 O   0  0  0  0  0  0  0  0  0  0  0  0
  2  1  1  1
  3  2  1  0
  4  2  1  0
  4  5  1  6
  6  7  2  0
  6  4  1  0
  8  9  1  0
  9 10  2  0
 10 11  1  0
 12 11  2  0
 12 13  1  0
 14 13  1  1
 14 15  1  0
 15  6  1  0
 16 17  2  0
 16 14  1  0
 18 12  1  0
 19  9  1  0
 19 18  2  0
 20 16  1  0
 21 20  1  0
 21 22  1  6
 23 22  1  0
 24 21  1  0
 25 24  1  0
 26 24  2  0
M  END
$$$$
