TYC.pdb
     RDKit          3D

 26 26  0  0  1  0  0  0  0  0999 V2000
   29.0196  -22.8233  -19.1338 C   0  0  0  0  0  0  0  0  0  0  0  0
   28.3822  -22.9733  -17.7895 C   0  0  1  0  0  0  0  0  0  0  0  0
   29.3108  -23.3915  -16.8688 O   0  0  0  0  0  0  0  0  0  0  0  0
   27.5963  -21.7597  -17.3552 C   0  0  2  0  0  0  0  0  0  0  0  0
   28.4902  -20.6205  -17.3178 N   0  0  0  0  0  0  0  0  0  0  0  0
   26.9486  -21.9065  -16.0518 C   0  0  0  0  0  0  0  0  0  0  0  0
   26.0427  -22.7598  -15.8772 O   0  0  0  0  0  0  0  0  0  0  0  0
   24.6783  -20.4240   -7.6557 O   0  0  0  0  0  0  0  0  0  0  0  0
   25.3513  -20.4284   -8.8616 C   0  0  0  0  0  0  0  0  0  0  0  0
   25.7973  -19.2614   -9.4614 C   0  0  0  0  0  0  0  0  0  0  0  0
   26.4688  -19.2667  -10.6649 C   0  0  0  0  0  0  0  0  0  0  0  0
   26.7120  -20.4546  -11.3027 C   0  0  0  0  0  0  0  0  0  0  0  0
   27.4211  -20.5188  -12.5831 C   0  0  0  0  0  0  0  0  0  0  0  0
   26.5421  -21.1406  -13.6779 C   0  0  2  0  0  0  0  0  0  0  0  0
   27.2893  -21.1105  -14.9089 N   0  0  0  0  0  0  0  0  0  0  0  0
   25.2503  -20.4241  -13.7797 C   0  0  0  0  0  0  0  0  0  0  0  0
   25.1786  -19.1998  -14.1109 O   0  0  0  0  0  0  0  0  0  0  0  0
   26.2619  -21.6313  -10.6972 C   0  0  0  0  0  0  0  0  0  0  0  0
   25.5965  -21.6231   -9.5043 C   0  0  0  0  0  0  0  0  0  0  0  0
   24.0229  -21.0859  -13.5074 N   0  0  0  0  0  0  0  0  0  0  0  0
   22.7394  -20.3900  -13.5520 C   0  0  1  0  0  0  0  0  0  0  0  0
   22.2827  -20.3729  -15.0000 C   0  0  0  0  0  0  0  0  0  0  0  0
   20.5922  -19.7338  -15.1276 S   0  0  0  0  0  0  0  0  0  0  0  0
   21.7496  -20.9928  -12.6587 C   0  0  0  0  0  0  0  0  0  0  0  0
   20.8863  -20.1503  -11.9760 O   0  0  0  0  0  0  0  0  0  0  0  0
   21.6335  -22.2392  -12.4710 O   0  0  0  0  0  0  0  0  0  0  0  0
  2  1  1  6
  3  2  1  0
  4  2  1  0
  4  5  1  1
  6  7  2  0
  6  4  1  0
  8  9  1  0
  9 10  2  0
 10 11  1  0
 12 11  2  0
 12 13  1  0
 14 13  1  1
 14 15  1  0
 15  6  1  0
 16 17  2  0
 16 14  1  0
 18 12  1  0
 19  9  1  0
 19 18  2  0
 20 16  1  0
 21 20  1  0
 21 22  1  6
 23 22  1  0
 24 21  1  0
 25 24  1  0
 26 24  2  0
M  END
$$$$
