TYC.pdb
     RDKit          3D

 26 26  0  0  1  0  0  0  0  0999 V2000
   20.7277  -11.7197  -19.6965 C   0  0  0  0  0  0  0  0  0  0  0  0
   20.9015  -12.2899  -18.3252 C   0  0  1  0  0  0  0  0  0  0  0  0
   21.3940  -13.5692  -18.4029 O   0  0  0  0  0  0  0  0  0  0  0  0
   21.6787  -11.3928  -17.3924 C   0  0  2  0  0  0  0  0  0  0  0  0
   22.0660  -12.1626  -16.2281 N   0  0  0  0  0  0  0  0  0  0  0  0
   20.9428  -10.2044  -16.9607 C   0  0  0  0  0  0  0  0  0  0  0  0
   20.4787   -9.3952  -17.8029 O   0  0  0  0  0  0  0  0  0  0  0  0
   14.6700  -12.1522  -16.2471 O   0  0  0  0  0  0  0  0  0  0  0  0
   15.7113  -11.4151  -15.7184 C   0  0  0  0  0  0  0  0  0  0  0  0
   15.6845  -10.0304  -15.6700 C   0  0  0  0  0  0  0  0  0  0  0  0
   16.7243   -9.2956  -15.1421 C   0  0  0  0  0  0  0  0  0  0  0  0
   17.8274   -9.9383  -14.6450 C   0  0  0  0  0  0  0  0  0  0  0  0
   18.9607   -9.2075  -14.0725 C   0  0  0  0  0  0  0  0  0  0  0  0
   19.9334   -8.7402  -15.1651 C   0  0  2  0  0  0  0  0  0  0  0  0
   20.7030   -9.8834  -15.5840 N   0  0  0  0  0  0  0  0  0  0  0  0
   20.7833   -7.6339  -14.6688 C   0  0  0  0  0  0  0  0  0  0  0  0
   21.8229   -7.8397  -13.9682 O   0  0  0  0  0  0  0  0  0  0  0  0
   17.8538  -11.3349  -14.6941 C   0  0  0  0  0  0  0  0  0  0  0  0
   16.8218  -12.0607  -15.2178 C   0  0  0  0  0  0  0  0  0  0  0  0
   20.4661   -6.2800  -14.9602 N   0  0  0  0  0  0  0  0  0  0  0  0
   21.3238   -5.1745  -14.5411 C   0  0  1  0  0  0  0  0  0  0  0  0
   22.6562   -5.3400  -15.2502 C   0  0  0  0  0  0  0  0  0  0  0  0
   23.7344   -3.9217  -14.9204 S   0  0  0  0  0  0  0  0  0  0  0  0
   20.7118   -3.8698  -14.7945 C   0  0  0  0  0  0  0  0  0  0  0  0
   20.9388   -2.8528  -13.8806 O   0  0  0  0  0  0  0  0  0  0  0  0
   19.9863   -3.6129  -15.7994 O   0  0  0  0  0  0  0  0  0  0  0  0
  2  1  1  6
  3  2  1  0
  4  2  1  0
  4  5  1  1
  6  7  2  0
  6  4  1  0
  8  9  1  0
  9 10  2  0
 10 11  1  0
 12 11  2  0
 12 13  1  0
 14 13  1  1
 14 15  1  0
 15  6  1  0
 16 17  2  0
 16 14  1  0
 18 12  1  0
 19  9  1  0
 19 18  2  0
 20 16  1  0
 21 20  1  0
 21 22  1  6
 23 22  1  0
 24 21  1  0
 25 24  1  0
 26 24  2  0
M  END
$$$$
