TYC.pdb
     RDKit          3D

 26 26  0  0  1  0  0  0  0  0999 V2000
   26.2045  -21.3384  -18.4523 C   0  0  0  0  0  0  0  0  0  0  0  0
   27.0912  -22.5424  -18.4576 C   0  0  1  0  0  0  0  0  0  0  0  0
   27.9767  -22.4741  -19.5046 O   0  0  0  0  0  0  0  0  0  0  0  0
   27.7434  -22.8176  -17.1242 C   0  0  2  0  0  0  0  0  0  0  0  0
   28.4242  -24.0940  -17.1984 N   0  0  0  0  0  0  0  0  0  0  0  0
   26.8096  -22.8347  -15.9983 C   0  0  0  0  0  0  0  0  0  0  0  0
   26.1054  -23.8488  -15.7633 O   0  0  0  0  0  0  0  0  0  0  0  0
   22.5648  -20.5196   -8.6252 O   0  0  0  0  0  0  0  0  0  0  0  0
   23.4562  -20.5816   -9.6780 C   0  0  0  0  0  0  0  0  0  0  0  0
   24.6795  -21.2242   -9.5717 C   0  0  0  0  0  0  0  0  0  0  0  0
   25.5685  -21.2856  -10.6231 C   0  0  0  0  0  0  0  0  0  0  0  0
   25.2492  -20.6981  -11.8188 C   0  0  0  0  0  0  0  0  0  0  0  0
   26.1560  -20.7331  -12.9690 C   0  0  0  0  0  0  0  0  0  0  0  0
   25.6691  -21.7262  -14.0342 C   0  0  2  0  0  0  0  0  0  0  0  0
   26.6331  -21.7276  -15.1044 N   0  0  0  0  0  0  0  0  0  0  0  0
   24.3079  -21.3706  -14.4960 C   0  0  0  0  0  0  0  0  0  0  0  0
   24.0654  -20.2942  -15.1255 O   0  0  0  0  0  0  0  0  0  0  0  0
   24.0153  -20.0501  -11.9255 C   0  0  0  0  0  0  0  0  0  0  0  0
   23.1360  -19.9908  -10.8818 C   0  0  0  0  0  0  0  0  0  0  0  0
   23.2039  -22.2304  -14.2502 N   0  0  0  0  0  0  0  0  0  0  0  0
   21.8424  -21.8771  -14.6440 C   0  0  1  0  0  0  0  0  0  0  0  0
   21.4126  -22.8579  -15.7205 C   0  0  0  0  0  0  0  0  0  0  0  0
   22.6504  -22.9377  -17.0411 S   0  0  0  0  0  0  0  0  0  0  0  0
   20.9232  -21.8551  -13.5058 C   0  0  0  0  0  0  0  0  0  0  0  0
   19.7998  -21.0474  -13.5885 O   0  0  0  0  0  0  0  0  0  0  0  0
   21.0916  -22.5300  -12.4483 O   0  0  0  0  0  0  0  0  0  0  0  0
  2  1  1  1
  3  2  1  0
  4  2  1  0
  4  5  1  6
  6  7  2  0
  6  4  1  0
  8  9  1  0
  9 10  2  0
 10 11  1  0
 12 11  2  0
 12 13  1  0
 14 13  1  1
 14 15  1  0
 15  6  1  0
 16 17  2  0
 16 14  1  0
 18 12  1  0
 19  9  1  0
 19 18  2  0
 20 16  1  0
 21 20  1  0
 21 22  1  6
 23 22  1  0
 24 21  1  0
 25 24  1  0
 26 24  2  0
M  END
$$$$
