TYC.pdb
     RDKit          3D

 26 26  0  0  1  0  0  0  0  0999 V2000
   28.2991   -9.8606  -17.1554 C   0  0  0  0  0  0  0  0  0  0  0  0
   28.2439  -11.0206  -18.0974 C   0  0  1  0  0  0  0  0  0  0  0  0
   29.5040  -11.3228  -18.5512 O   0  0  0  0  0  0  0  0  0  0  0  0
   27.4921  -12.2090  -17.5482 C   0  0  2  0  0  0  0  0  0  0  0  0
   27.5395  -13.2767  -18.5259 N   0  0  0  0  0  0  0  0  0  0  0  0
   26.0969  -11.9256  -17.2119 C   0  0  0  0  0  0  0  0  0  0  0  0
   25.2132  -11.9007  -18.1052 O   0  0  0  0  0  0  0  0  0  0  0  0
   22.8494  -17.5362  -15.5829 O   0  0  0  0  0  0  0  0  0  0  0  0
   23.0855  -16.2102  -15.2780 C   0  0  0  0  0  0  0  0  0  0  0  0
   22.1356  -15.2240  -15.4917 C   0  0  0  0  0  0  0  0  0  0  0  0
   22.3721  -13.9008  -15.1871 C   0  0  0  0  0  0  0  0  0  0  0  0
   23.5792  -13.5307  -14.6554 C   0  0  0  0  0  0  0  0  0  0  0  0
   23.8841  -12.1393  -14.3128 C   0  0  0  0  0  0  0  0  0  0  0  0
   24.2814  -11.3318  -15.5571 C   0  0  2  0  0  0  0  0  0  0  0  0
   25.6463  -11.6628  -15.8763 N   0  0  0  0  0  0  0  0  0  0  0  0
   24.0880   -9.8826  -15.3225 C   0  0  0  0  0  0  0  0  0  0  0  0
   24.8874   -9.1988  -14.6103 O   0  0  0  0  0  0  0  0  0  0  0  0
   24.5369  -14.5258  -14.4401 C   0  0  0  0  0  0  0  0  0  0  0  0
   24.2999  -15.8365  -14.7429 C   0  0  0  0  0  0  0  0  0  0  0  0
   22.9862   -9.1897  -15.8921 N   0  0  0  0  0  0  0  0  0  0  0  0
   22.7888   -7.7551  -15.7008 C   0  0  1  0  0  0  0  0  0  0  0  0
   23.1354   -7.0707  -17.0111 C   0  0  0  0  0  0  0  0  0  0  0  0
   22.8583   -5.2843  -16.8899 S   0  0  0  0  0  0  0  0  0  0  0  0
   21.4361   -7.4371  -15.2424 C   0  0  0  0  0  0  0  0  0  0  0  0
   21.2617   -6.3127  -14.4509 O   0  0  0  0  0  0  0  0  0  0  0  0
   20.4136   -8.1274  -15.5253 O   0  0  0  0  0  0  0  0  0  0  0  0
  2  1  1  1
  3  2  1  0
  4  2  1  0
  4  5  1  6
  6  7  2  0
  6  4  1  0
  8  9  1  0
  9 10  2  0
 10 11  1  0
 12 11  2  0
 12 13  1  0
 14 13  1  1
 14 15  1  0
 15  6  1  0
 16 17  2  0
 16 14  1  0
 18 12  1  0
 19  9  1  0
 19 18  2  0
 20 16  1  0
 21 20  1  0
 21 22  1  6
 23 22  1  0
 24 21  1  0
 25 24  1  0
 26 24  2  0
M  END
$$$$
