TYC.pdb
     RDKit          3D

 26 26  0  0  1  0  0  0  0  0999 V2000
   28.2004  -18.5967  -17.0865 C   0  0  0  0  0  0  0  0  0  0  0  0
   27.7385  -20.0146  -17.1952 C   0  0  1  0  0  0  0  0  0  0  0  0
   28.7737  -20.8205  -17.6000 O   0  0  0  0  0  0  0  0  0  0  0  0
   27.0239  -20.5129  -15.9622 C   0  0  2  0  0  0  0  0  0  0  0  0
   26.7903  -21.9351  -16.1075 N   0  0  0  0  0  0  0  0  0  0  0  0
   25.7514  -19.8403  -15.7004 C   0  0  0  0  0  0  0  0  0  0  0  0
   25.7246  -18.6459  -15.3106 O   0  0  0  0  0  0  0  0  0  0  0  0
   17.3634  -17.3874  -16.0775 O   0  0  0  0  0  0  0  0  0  0  0  0
   18.6042  -17.9616  -16.2721 C   0  0  0  0  0  0  0  0  0  0  0  0
   19.7507  -17.2012  -16.4390 C   0  0  0  0  0  0  0  0  0  0  0  0
   20.9886  -17.7751  -16.6331 C   0  0  0  0  0  0  0  0  0  0  0  0
   21.1080  -19.1395  -16.6650 C   0  0  0  0  0  0  0  0  0  0  0  0
   22.3987  -19.8024  -16.8679 C   0  0  0  0  0  0  0  0  0  0  0  0
   23.2274  -19.8193  -15.5752 C   0  0  2  0  0  0  0  0  0  0  0  0
   24.4764  -20.4755  -15.8645 N   0  0  0  0  0  0  0  0  0  0  0  0
   22.4775  -20.4808  -14.4831 C   0  0  0  0  0  0  0  0  0  0  0  0
   22.3188  -21.7403  -14.4361 O   0  0  0  0  0  0  0  0  0  0  0  0
   19.9514  -19.9060  -16.4966 C   0  0  0  0  0  0  0  0  0  0  0  0
   18.7257  -19.3345  -16.3043 C   0  0  0  0  0  0  0  0  0  0  0  0
   21.8978  -19.7233  -13.4301 N   0  0  0  0  0  0  0  0  0  0  0  0
   21.1459  -20.3502  -12.3460 C   0  0  1  0  0  0  0  0  0  0  0  0
   21.4705  -19.5919  -11.0711 C   0  0  0  0  0  0  0  0  0  0  0  0
   20.5621  -18.0255  -11.0124 S   0  0  0  0  0  0  0  0  0  0  0  0
   19.7095  -20.3965  -12.6208 C   0  0  0  0  0  0  0  0  0  0  0  0
   18.9442  -21.3325  -11.9430 O   0  0  0  0  0  0  0  0  0  0  0  0
   19.1221  -19.6325  -13.4414 O   0  0  0  0  0  0  0  0  0  0  0  0
  2  1  1  1
  3  2  1  0
  4  2  1  0
  4  5  1  6
  6  7  2  0
  6  4  1  0
  8  9  1  0
  9 10  2  0
 10 11  1  0
 12 11  2  0
 12 13  1  0
 14 13  1  6
 14 15  1  0
 15  6  1  0
 16 17  2  0
 16 14  1  0
 18 12  1  0
 19  9  1  0
 19 18  2  0
 20 16  1  0
 21 20  1  0
 21 22  1  1
 23 22  1  0
 24 21  1  0
 25 24  1  0
 26 24  2  0
M  END
$$$$
