TYC.pdb
     RDKit          3D

 26 26  0  0  1  0  0  0  0  0999 V2000
   27.5136  -24.5390  -19.6617 C   0  0  0  0  0  0  0  0  0  0  0  0
   26.6466  -24.2272  -18.4840 C   0  0  1  0  0  0  0  0  0  0  0  0
   25.3620  -24.6532  -18.7152 O   0  0  0  0  0  0  0  0  0  0  0  0
   27.2194  -24.7019  -17.1703 C   0  0  2  0  0  0  0  0  0  0  0  0
   27.2721  -26.1493  -17.1862 N   0  0  0  0  0  0  0  0  0  0  0  0
   26.4631  -24.2605  -15.9984 C   0  0  0  0  0  0  0  0  0  0  0  0
   25.6657  -25.0392  -15.4179 O   0  0  0  0  0  0  0  0  0  0  0  0
   24.0416  -19.7734   -8.8409 O   0  0  0  0  0  0  0  0  0  0  0  0
   24.6573  -20.1675  -10.0124 C   0  0  0  0  0  0  0  0  0  0  0  0
   25.5368  -21.2375  -10.0595 C   0  0  0  0  0  0  0  0  0  0  0  0
   26.1508  -21.6302  -11.2292 C   0  0  0  0  0  0  0  0  0  0  0  0
   25.8952  -20.9525  -12.3921 C   0  0  0  0  0  0  0  0  0  0  0  0
   26.5197  -21.3267  -13.6634 C   0  0  0  0  0  0  0  0  0  0  0  0
   25.7734  -22.4909  -14.3311 C   0  0  2  0  0  0  0  0  0  0  0  0
   26.5723  -22.9441  -15.4405 N   0  0  0  0  0  0  0  0  0  0  0  0
   24.4144  -22.0718  -14.7432 C   0  0  0  0  0  0  0  0  0  0  0  0
   24.2170  -21.2501  -15.6917 O   0  0  0  0  0  0  0  0  0  0  0  0
   25.0081  -19.8733  -12.3440 C   0  0  0  0  0  0  0  0  0  0  0  0
   24.4009  -19.4863  -11.1833 C   0  0  0  0  0  0  0  0  0  0  0  0
   23.2614  -22.5785  -14.0856 N   0  0  0  0  0  0  0  0  0  0  0  0
   21.9117  -22.1538  -14.4482 C   0  0  1  0  0  0  0  0  0  0  0  0
   20.9495  -23.2067  -13.9274 C   0  0  0  0  0  0  0  0  0  0  0  0
   21.5459  -24.8697  -14.3291 S   0  0  0  0  0  0  0  0  0  0  0  0
   21.5991  -20.8134  -13.9516 C   0  0  0  0  0  0  0  0  0  0  0  0
   22.4294  -20.2634  -12.9876 O   0  0  0  0  0  0  0  0  0  0  0  0
   20.6147  -20.1243  -14.3493 O   0  0  0  0  0  0  0  0  0  0  0  0
  2  1  1  6
  3  2  1  0
  4  2  1  0
  4  5  1  6
  6  7  2  0
  6  4  1  0
  8  9  1  0
  9 10  2  0
 10 11  1  0
 12 11  2  0
 12 13  1  0
 14 13  1  6
 14 15  1  0
 15  6  1  0
 16 17  2  0
 16 14  1  0
 18 12  1  0
 19  9  1  0
 19 18  2  0
 20 16  1  0
 21 20  1  0
 21 22  1  1
 23 22  1  0
 24 21  1  0
 25 24  1  0
 26 24  2  0
M  END
$$$$
