TYC.pdb
     RDKit          3D

 26 26  0  0  1  0  0  0  0  0999 V2000
   17.4969   -8.7391  -16.0099 C   0  0  0  0  0  0  0  0  0  0  0  0
   18.6332   -9.6324  -16.3928 C   0  0  1  0  0  0  0  0  0  0  0  0
   18.6530   -9.8172  -17.7532 O   0  0  0  0  0  0  0  0  0  0  0  0
   19.9604   -9.2017  -15.8164 C   0  0  2  0  0  0  0  0  0  0  0  0
   20.9689  -10.1631  -16.2123 N   0  0  0  0  0  0  0  0  0  0  0  0
   19.9620   -9.0746  -14.3591 C   0  0  0  0  0  0  0  0  0  0  0  0
   19.9465  -10.0948  -13.6254 O   0  0  0  0  0  0  0  0  0  0  0  0
   22.0497   -2.2089  -14.5932 O   0  0  0  0  0  0  0  0  0  0  0  0
   21.7871   -3.3575  -13.8729 C   0  0  0  0  0  0  0  0  0  0  0  0
   20.9202   -3.3680  -12.7918 C   0  0  0  0  0  0  0  0  0  0  0  0
   20.6587   -4.5148  -12.0735 C   0  0  0  0  0  0  0  0  0  0  0  0
   21.2665   -5.6911  -12.4256 C   0  0  0  0  0  0  0  0  0  0  0  0
   21.0251   -6.9393  -11.6977 C   0  0  0  0  0  0  0  0  0  0  0  0
   19.8030   -7.6836  -12.2551 C   0  0  2  0  0  0  0  0  0  0  0  0
   19.9809   -7.8127  -13.6785 N   0  0  0  0  0  0  0  0  0  0  0  0
   18.5530   -6.9734  -11.9007 C   0  0  0  0  0  0  0  0  0  0  0  0
   18.0173   -6.1183  -12.6724 O   0  0  0  0  0  0  0  0  0  0  0  0
   22.1409   -5.6799  -13.5161 C   0  0  0  0  0  0  0  0  0  0  0  0
   22.3982   -4.5418  -14.2263 C   0  0  0  0  0  0  0  0  0  0  0  0
   17.8939   -7.2233  -10.6671 N   0  0  0  0  0  0  0  0  0  0  0  0
   16.7310   -6.4504  -10.2381 C   0  0  1  0  0  0  0  0  0  0  0  0
   15.7437   -7.4230   -9.6178 C   0  0  0  0  0  0  0  0  0  0  0  0
   14.4170   -6.5288   -8.7674 S   0  0  0  0  0  0  0  0  0  0  0  0
   17.0922   -5.3618   -9.3296 C   0  0  0  0  0  0  0  0  0  0  0  0
   18.0835   -5.5965   -8.3898 O   0  0  0  0  0  0  0  0  0  0  0  0
   16.5535   -4.2166   -9.3496 O   0  0  0  0  0  0  0  0  0  0  0  0
  2  1  1  6
  3  2  1  0
  4  2  1  0
  4  5  1  1
  6  7  2  0
  6  4  1  0
  8  9  1  0
  9 10  2  0
 10 11  1  0
 12 11  2  0
 12 13  1  0
 14 13  1  6
 14 15  1  0
 15  6  1  0
 16 17  2  0
 16 14  1  0
 18 12  1  0
 19  9  1  0
 19 18  2  0
 20 16  1  0
 21 20  1  0
 21 22  1  1
 23 22  1  0
 24 21  1  0
 25 24  1  0
 26 24  2  0
M  END
$$$$
