NTP.pdb
     RDKit          3D

 23 23  0  0  1  0  0  0  0  0999 V2000
   14.1898  -16.6128   19.5590 N   0  0  0  0  0  0  0  0  0  0  0  0
   13.2491  -16.5834   20.6213 C   0  0  0  0  0  0  0  0  0  0  0  0
   13.2697  -17.5646   21.4236 O   0  0  0  0  0  0  0  0  0  0  0  0
   12.2804  -15.4558   20.7915 C   0  0  0  0  0  0  0  0  0  0  0  0
   10.8809  -16.0065   20.6190 C   0  0  2  0  0  0  0  0  0  0  0  0
   10.5640  -16.2162   19.2204 N   0  0  0  0  0  0  0  0  0  0  0  0
    9.8805  -15.1897   21.3138 C   0  0  0  0  0  0  0  0  0  0  0  0
    9.6136  -14.0569   20.8421 O   0  0  0  0  0  0  0  0  0  0  0  0
    6.5070  -15.1843   21.3609 C   0  0  0  0  0  0  0  0  0  0  0  0
    6.7768  -15.3453   22.8221 C   0  0  1  0  0  0  0  0  0  0  0  0
    6.5858  -16.6500   23.1937 O   0  0  0  0  0  0  0  0  0  0  0  0
    8.1818  -14.8424   23.1399 C   0  0  2  0  0  0  0  0  0  0  0  0
    9.1915  -15.6144   22.5013 N   0  0  0  0  0  0  0  0  0  0  0  0
    8.3469  -14.5233   24.5548 C   0  0  0  0  0  0  0  0  0  0  0  0
    9.1019  -15.3572   25.1969 O   0  0  0  0  0  0  0  0  0  0  0  0
    7.8109  -13.4618   25.3037 N   0  0  0  0  0  0  0  0  0  0  0  0
    7.1129  -12.3513   24.6901 C   0  0  0  0  0  0  0  0  0  0  0  0
    6.6778  -11.4379   25.8347 C   0  0  0  0  0  0  0  0  0  0  0  0
    6.5662  -12.4259   26.9559 C   0  0  0  0  0  0  0  0  0  0  0  0
    7.8372  -13.2682   26.7259 C   0  0  1  0  0  0  0  0  0  0  0  0
    7.7575  -14.4847   27.5483 C   0  0  0  0  0  0  0  0  0  0  0  0
    8.2636  -14.3791   28.8431 O   0  0  0  0  0  0  0  0  0  0  0  0
    7.2900  -15.5864   27.2113 O   0  0  0  0  0  0  0  0  0  0  0  0
  2  4  1  0
  2  1  1  0
  3  2  2  0
  4  5  1  0
  5  7  1  0
  5  6  1  6
  7  8  2  0
 10  9  1  6
 10 11  1  0
 10 12  1  0
 12 14  1  0
 12 13  1  1
 13  7  1  0
 14 16  1  0
 14 15  2  0
 16 17  1  0
 17 18  1  0
 19 18  1  0
 20 16  1  0
 20 19  1  0
 20 21  1  1
 22 21  1  0
 23 21  2  0
M  END
$$$$
