NTP.pdb
     RDKit          3D

 23 23  0  0  1  0  0  0  0  0999 V2000
   15.1177  -15.2412   19.0238 N   0  0  0  0  0  0  0  0  0  0  0  0
   14.1082  -15.5808   19.9616 C   0  0  0  0  0  0  0  0  0  0  0  0
   14.1049  -16.7766   20.3824 O   0  0  0  0  0  0  0  0  0  0  0  0
   13.0968  -14.5843   20.4337 C   0  0  0  0  0  0  0  0  0  0  0  0
   11.7455  -14.9869   19.8828 C   0  0  2  0  0  0  0  0  0  0  0  0
   11.6756  -14.7796   18.4501 N   0  0  0  0  0  0  0  0  0  0  0  0
   10.6443  -14.3430   20.6062 C   0  0  0  0  0  0  0  0  0  0  0  0
   10.5529  -13.0919   20.5487 O   0  0  0  0  0  0  0  0  0  0  0  0
    7.3969  -13.6840   20.0322 C   0  0  0  0  0  0  0  0  0  0  0  0
    7.2822  -14.5108   21.2720 C   0  0  1  0  0  0  0  0  0  0  0  0
    6.9317  -15.7952   20.9488 O   0  0  0  0  0  0  0  0  0  0  0  0
    8.5883  -14.4370   22.0571 C   0  0  2  0  0  0  0  0  0  0  0  0
    9.6674  -15.0642   21.3749 N   0  0  0  0  0  0  0  0  0  0  0  0
    8.3986  -14.7360   23.4733 C   0  0  0  0  0  0  0  0  0  0  0  0
    8.7287  -15.9441   23.8040 O   0  0  0  0  0  0  0  0  0  0  0  0
    7.9158  -13.9154   24.5069 N   0  0  0  0  0  0  0  0  0  0  0  0
    7.7424  -12.4864   24.3490 C   0  0  0  0  0  0  0  0  0  0  0  0
    7.1870  -11.9762   25.6777 C   0  0  0  0  0  0  0  0  0  0  0  0
    6.4832  -13.2012   26.1771 C   0  0  0  0  0  0  0  0  0  0  0  0
    7.5205  -14.2897   25.8352 C   0  0  1  0  0  0  0  0  0  0  0  0
    6.8892  -15.6103   25.9767 C   0  0  0  0  0  0  0  0  0  0  0  0
    6.9676  -16.1907   27.2420 O   0  0  0  0  0  0  0  0  0  0  0  0
    6.2988  -16.2560   25.0934 O   0  0  0  0  0  0  0  0  0  0  0  0
  2  4  1  0
  2  1  1  0
  3  2  2  0
  4  5  1  0
  5  7  1  0
  5  6  1  6
  7  8  2  0
 10  9  1  6
 10 11  1  0
 10 12  1  0
 12 14  1  0
 12 13  1  6
 13  7  1  0
 14 16  1  0
 14 15  2  0
 16 17  1  0
 17 18  1  0
 19 18  1  0
 20 16  1  0
 20 19  1  0
 20 21  1  6
 22 21  1  0
 23 21  2  0
M  END
$$$$
