NTP.pdb
     RDKit          3D

 23 23  0  0  1  0  0  0  0  0999 V2000
    8.8577  -12.4882   17.5241 N   0  0  0  0  0  0  0  0  0  0  0  0
    8.0589  -13.6045   17.8843 C   0  0  0  0  0  0  0  0  0  0  0  0
    7.9871  -14.5463   17.0389 O   0  0  0  0  0  0  0  0  0  0  0  0
    7.3360  -13.6729   19.1927 C   0  0  0  0  0  0  0  0  0  0  0  0
    8.3473  -13.9887   20.2740 C   0  0  2  0  0  0  0  0  0  0  0  0
    9.2515  -15.0432   19.8606 N   0  0  0  0  0  0  0  0  0  0  0  0
    7.7043  -14.2623   21.5633 C   0  0  0  0  0  0  0  0  0  0  0  0
    6.7556  -13.5201   21.9183 O   0  0  0  0  0  0  0  0  0  0  0  0
    6.4490  -17.1251   25.2720 C   0  0  0  0  0  0  0  0  0  0  0  0
    7.2248  -17.0051   24.0002 C   0  0  1  0  0  0  0  0  0  0  0  0
    6.5380  -17.5983   22.9738 O   0  0  0  0  0  0  0  0  0  0  0  0
    7.5358  -15.5363   23.7289 C   0  0  2  0  0  0  0  0  0  0  0  0
    8.1000  -15.3306   22.4394 N   0  0  0  0  0  0  0  0  0  0  0  0
    8.1689  -14.8859   24.8722 C   0  0  0  0  0  0  0  0  0  0  0  0
    9.3149  -15.3943   25.1976 O   0  0  0  0  0  0  0  0  0  0  0  0
    7.7182  -13.8094   25.6551 N   0  0  0  0  0  0  0  0  0  0  0  0
    6.5804  -12.9965   25.2788 C   0  0  0  0  0  0  0  0  0  0  0  0
    6.4106  -11.9623   26.3903 C   0  0  0  0  0  0  0  0  0  0  0  0
    6.9983  -12.7012   27.5540 C   0  0  0  0  0  0  0  0  0  0  0  0
    8.2470  -13.3252   26.8987 C   0  0  1  0  0  0  0  0  0  0  0  0
    8.8042  -14.3395   27.8061 C   0  0  0  0  0  0  0  0  0  0  0  0
    9.7459  -13.8820   28.7268 O   0  0  0  0  0  0  0  0  0  0  0  0
    8.5249  -15.5507   27.8364 O   0  0  0  0  0  0  0  0  0  0  0  0
  2  4  1  0
  2  1  1  0
  3  2  2  0
  4  5  1  0
  5  7  1  0
  5  6  1  6
  7  8  2  0
 10  9  1  1
 10 11  1  0
 10 12  1  0
 12 14  1  0
 12 13  1  6
 13  7  1  0
 14 16  1  0
 14 15  2  0
 16 17  1  0
 17 18  1  0
 19 18  1  0
 20 16  1  0
 20 19  1  0
 20 21  1  1
 22 21  1  0
 23 21  2  0
M  END
$$$$
