NTP.pdb
     RDKit          3D

 23 23  0  0  1  0  0  0  0  0999 V2000
   12.8585  -18.2675   18.5329 N   0  0  0  0  0  0  0  0  0  0  0  0
   12.7752  -17.2479   19.5165 C   0  0  0  0  0  0  0  0  0  0  0  0
   13.8393  -16.9876   20.1544 O   0  0  0  0  0  0  0  0  0  0  0  0
   11.5006  -16.5138   19.7917 C   0  0  0  0  0  0  0  0  0  0  0  0
   11.2404  -16.5636   21.2821 C   0  0  2  0  0  0  0  0  0  0  0  0
   11.0278  -17.9233   21.7366 N   0  0  0  0  0  0  0  0  0  0  0  0
   10.1614  -15.6541   21.6812 C   0  0  0  0  0  0  0  0  0  0  0  0
    9.6583  -14.9138   20.8004 O   0  0  0  0  0  0  0  0  0  0  0  0
    7.6197  -14.7830   21.0621 C   0  0  0  0  0  0  0  0  0  0  0  0
    7.2985  -15.1442   22.4764 C   0  0  1  0  0  0  0  0  0  0  0  0
    6.9264  -16.4606   22.5517 O   0  0  0  0  0  0  0  0  0  0  0  0
    8.4913  -14.8177   23.3700 C   0  0  2  0  0  0  0  0  0  0  0  0
    9.6505  -15.5646   23.0215 N   0  0  0  0  0  0  0  0  0  0  0  0
    8.1193  -14.7361   24.7792 C   0  0  0  0  0  0  0  0  0  0  0  0
    8.2980  -15.8391   25.4344 O   0  0  0  0  0  0  0  0  0  0  0  0
    7.6028  -13.6524   25.5097 N   0  0  0  0  0  0  0  0  0  0  0  0
    7.4122  -12.3410   24.9259 C   0  0  0  0  0  0  0  0  0  0  0  0
    6.8214  -11.4659   26.0301 C   0  0  0  0  0  0  0  0  0  0  0  0
    6.1247  -12.4978   26.8640 C   0  0  0  0  0  0  0  0  0  0  0  0
    7.1847  -13.6176   26.8825 C   0  0  1  0  0  0  0  0  0  0  0  0
    6.5696  -14.8468   27.4052 C   0  0  0  0  0  0  0  0  0  0  0  0
    6.9725  -15.2343   28.6825 O   0  0  0  0  0  0  0  0  0  0  0  0
    5.7358  -15.5688   26.8313 O   0  0  0  0  0  0  0  0  0  0  0  0
  2  4  1  0
  2  1  1  0
  3  2  2  0
  4  5  1  0
  5  7  1  0
  5  6  1  6
  7  8  2  0
 10  9  1  6
 10 11  1  0
 10 12  1  0
 12 14  1  0
 12 13  1  1
 13  7  1  0
 14 16  1  0
 14 15  2  0
 16 17  1  0
 17 18  1  0
 19 18  1  0
 20 16  1  0
 20 19  1  0
 20 21  1  6
 22 21  1  0
 23 21  2  0
M  END
$$$$
