NTP.pdb
     RDKit          3D

 23 23  0  0  1  0  0  0  0  0999 V2000
   14.6956  -17.9653   16.7045 N   0  0  0  0  0  0  0  0  0  0  0  0
   13.5075  -17.8690   17.4747 C   0  0  0  0  0  0  0  0  0  0  0  0
   12.7969  -18.9158   17.5533 O   0  0  0  0  0  0  0  0  0  0  0  0
   13.1080  -16.6008   18.1610 C   0  0  0  0  0  0  0  0  0  0  0  0
   11.7698  -16.1647   17.6039 C   0  0  2  0  0  0  0  0  0  0  0  0
   11.9088  -15.5969   16.2777 N   0  0  0  0  0  0  0  0  0  0  0  0
   11.0518  -15.2821   18.5292 C   0  0  0  0  0  0  0  0  0  0  0  0
   11.5581  -14.1626   18.7887 O   0  0  0  0  0  0  0  0  0  0  0  0
    8.1559  -13.2690   18.2928 C   0  0  0  0  0  0  0  0  0  0  0  0
    7.8125  -14.2203   19.3932 C   0  0  1  0  0  0  0  0  0  0  0  0
    7.0023  -15.2168   18.9163 O   0  0  0  0  0  0  0  0  0  0  0  0
    9.0947  -14.7554   20.0238 C   0  0  2  0  0  0  0  0  0  0  0  0
    9.8041  -15.6281   19.1529 N   0  0  0  0  0  0  0  0  0  0  0  0
    8.8966  -15.1718   21.4087 C   0  0  0  0  0  0  0  0  0  0  0  0
    8.8944  -16.4563   21.5760 O   0  0  0  0  0  0  0  0  0  0  0  0
    8.7092  -14.3915   22.5624 N   0  0  0  0  0  0  0  0  0  0  0  0
    8.8894  -12.9547   22.5674 C   0  0  0  0  0  0  0  0  0  0  0  0
    8.5747  -12.4917   23.9889 C   0  0  0  0  0  0  0  0  0  0  0  0
    7.6227  -13.5620   24.4289 C   0  0  0  0  0  0  0  0  0  0  0  0
    8.3269  -14.8187   23.8784 C   0  0  1  0  0  0  0  0  0  0  0  0
    7.3957  -15.9548   23.9473 C   0  0  0  0  0  0  0  0  0  0  0  0
    7.2968  -16.5873   25.1859 O   0  0  0  0  0  0  0  0  0  0  0  0
    6.6948  -16.4049   23.0243 O   0  0  0  0  0  0  0  0  0  0  0  0
  2  4  1  0
  2  1  1  0
  3  2  2  0
  4  5  1  0
  5  7  1  0
  5  6  1  6
  7  8  2  0
 10  9  1  6
 10 11  1  0
 10 12  1  0
 12 14  1  0
 12 13  1  6
 13  7  1  0
 14 16  1  0
 14 15  2  0
 16 17  1  0
 17 18  1  0
 19 18  1  0
 20 16  1  0
 20 19  1  0
 20 21  1  6
 22 21  1  0
 23 21  2  0
M  END
$$$$
