NTP.pdb
     RDKit          3D

 23 23  0  0  1  0  0  0  0  0999 V2000
   10.1804  -14.5467   17.3880 N   0  0  0  0  0  0  0  0  0  0  0  0
    8.8503  -14.0924   17.1920 C   0  0  0  0  0  0  0  0  0  0  0  0
    8.3852  -14.1908   16.0169 O   0  0  0  0  0  0  0  0  0  0  0  0
    8.0332  -13.5253   18.3100 C   0  0  0  0  0  0  0  0  0  0  0  0
    8.8471  -13.6188   19.5830 C   0  0  2  0  0  0  0  0  0  0  0  0
    9.8286  -14.6823   19.5061 N   0  0  0  0  0  0  0  0  0  0  0  0
    7.9951  -13.7145   20.7728 C   0  0  0  0  0  0  0  0  0  0  0  0
    7.0325  -12.9145   20.8747 O   0  0  0  0  0  0  0  0  0  0  0  0
    5.5445  -15.9543   21.9938 C   0  0  0  0  0  0  0  0  0  0  0  0
    6.5552  -15.9686   23.0947 C   0  0  1  0  0  0  0  0  0  0  0  0
    7.2930  -17.1216   23.0396 O   0  0  0  0  0  0  0  0  0  0  0  0
    7.4182  -14.7131   23.0114 C   0  0  2  0  0  0  0  0  0  0  0  0
    8.2018  -14.6714   21.8250 N   0  0  0  0  0  0  0  0  0  0  0  0
    8.0694  -14.4057   24.2811 C   0  0  0  0  0  0  0  0  0  0  0  0
    9.1009  -15.1466   24.5355 O   0  0  0  0  0  0  0  0  0  0  0  0
    7.7401  -13.4404   25.2480 N   0  0  0  0  0  0  0  0  0  0  0  0
    6.8231  -12.3522   24.9800 C   0  0  0  0  0  0  0  0  0  0  0  0
    6.7228  -11.5515   26.2772 C   0  0  0  0  0  0  0  0  0  0  0  0
    7.0270  -12.6150   27.2881 C   0  0  0  0  0  0  0  0  0  0  0  0
    8.2045  -13.3368   26.6023 C   0  0  1  0  0  0  0  0  0  0  0  0
    8.4570  -14.6059   27.3010 C   0  0  0  0  0  0  0  0  0  0  0  0
    9.3949  -14.5581   28.3315 O   0  0  0  0  0  0  0  0  0  0  0  0
    7.9257  -15.7059   27.0698 O   0  0  0  0  0  0  0  0  0  0  0  0
  2  4  1  0
  2  1  1  0
  3  2  2  0
  4  5  1  0
  5  7  1  0
  5  6  1  6
  7  8  2  0
 10  9  1  6
 10 11  1  0
 10 12  1  0
 12 14  1  0
 12 13  1  6
 13  7  1  0
 14 16  1  0
 14 15  2  0
 16 17  1  0
 17 18  1  0
 19 18  1  0
 20 16  1  0
 20 19  1  0
 20 21  1  1
 22 21  1  0
 23 21  2  0
M  END
$$$$
