NTP.pdb
     RDKit          3D

 23 23  0  0  1  0  0  0  0  0999 V2000
   14.4547  -14.5353   20.4763 N   0  0  0  0  0  0  0  0  0  0  0  0
   13.4668  -14.5018   19.4580 C   0  0  0  0  0  0  0  0  0  0  0  0
   13.7702  -15.0498   18.3560 O   0  0  0  0  0  0  0  0  0  0  0  0
   12.1339  -13.8549   19.6674 C   0  0  0  0  0  0  0  0  0  0  0  0
   11.1787  -14.9036   20.1959 C   0  0  2  0  0  0  0  0  0  0  0  0
   10.7357  -15.7944   19.1420 N   0  0  0  0  0  0  0  0  0  0  0  0
   10.0666  -14.3063   20.9422 C   0  0  0  0  0  0  0  0  0  0  0  0
    9.5782  -13.2319   20.5131 O   0  0  0  0  0  0  0  0  0  0  0  0
    6.8866  -14.2662   20.8478 C   0  0  0  0  0  0  0  0  0  0  0  0
    7.0587  -14.8289   22.2217 C   0  0  1  0  0  0  0  0  0  0  0  0
    6.9692  -16.1955   22.1837 O   0  0  0  0  0  0  0  0  0  0  0  0
    8.3790  -14.3417   22.8109 C   0  0  2  0  0  0  0  0  0  0  0  0
    9.5073  -14.8823   22.1342 N   0  0  0  0  0  0  0  0  0  0  0  0
    8.3731  -14.3625   24.2705 C   0  0  0  0  0  0  0  0  0  0  0  0
    9.0009  -15.3723   24.7841 O   0  0  0  0  0  0  0  0  0  0  0  0
    7.7919  -13.4609   25.1784 N   0  0  0  0  0  0  0  0  0  0  0  0
    7.2184  -12.1983   24.7617 C   0  0  0  0  0  0  0  0  0  0  0  0
    6.6829  -11.5354   26.0296 C   0  0  0  0  0  0  0  0  0  0  0  0
    6.3963  -12.7382   26.8761 C   0  0  0  0  0  0  0  0  0  0  0  0
    7.6518  -13.5903   26.6012 C   0  0  1  0  0  0  0  0  0  0  0  0
    7.4243  -14.9512   27.1100 C   0  0  0  0  0  0  0  0  0  0  0  0
    7.8084  -15.1801   28.4306 O   0  0  0  0  0  0  0  0  0  0  0  0
    6.9298  -15.9089   26.4903 O   0  0  0  0  0  0  0  0  0  0  0  0
  2  4  1  0
  2  1  1  0
  3  2  2  0
  4  5  1  0
  5  7  1  0
  5  6  1  6
  7  8  2  0
 10  9  1  6
 10 11  1  0
 10 12  1  0
 12 14  1  0
 12 13  1  6
 13  7  1  0
 14 16  1  0
 14 15  2  0
 16 17  1  0
 17 18  1  0
 19 18  1  0
 20 16  1  0
 20 19  1  0
 20 21  1  6
 22 21  1  0
 23 21  2  0
M  END
$$$$
