NTP.pdb
     RDKit          3D

 23 23  0  0  1  0  0  0  0  0999 V2000
   14.4483  -18.9928   22.5902 N   0  0  0  0  0  0  0  0  0  0  0  0
   14.4489  -17.6444   22.1476 C   0  0  0  0  0  0  0  0  0  0  0  0
   15.3353  -17.3271   21.2988 O   0  0  0  0  0  0  0  0  0  0  0  0
   13.4575  -16.6437   22.6524 C   0  0  0  0  0  0  0  0  0  0  0  0
   12.0688  -17.1499   22.3258 C   0  0  2  0  0  0  0  0  0  0  0  0
   11.9925  -17.6440   20.9654 N   0  0  0  0  0  0  0  0  0  0  0  0
   11.0364  -16.1534   22.6289 C   0  0  0  0  0  0  0  0  0  0  0  0
   11.3699  -15.1431   23.2960 O   0  0  0  0  0  0  0  0  0  0  0  0
    6.6239  -14.1379   21.9673 C   0  0  0  0  0  0  0  0  0  0  0  0
    7.4736  -15.3275   21.6564 C   0  0  1  0  0  0  0  0  0  0  0  0
    7.8913  -15.2780   20.3526 O   0  0  0  0  0  0  0  0  0  0  0  0
    8.6344  -15.3976   22.6441 C   0  0  2  0  0  0  0  0  0  0  0  0
    9.6682  -16.2704   22.2050 N   0  0  0  0  0  0  0  0  0  0  0  0
    8.1773  -15.5076   24.0260 C   0  0  0  0  0  0  0  0  0  0  0  0
    7.9906  -16.7266   24.4222 O   0  0  0  0  0  0  0  0  0  0  0  0
    7.9143  -14.4978   24.9674 N   0  0  0  0  0  0  0  0  0  0  0  0
    8.3040  -13.1189   24.7584 C   0  0  0  0  0  0  0  0  0  0  0  0
    7.8238  -12.3503   25.9883 C   0  0  0  0  0  0  0  0  0  0  0  0
    6.6613  -13.1957   26.4119 C   0  0  0  0  0  0  0  0  0  0  0  0
    7.2531  -14.6089   26.2367 C   0  0  1  0  0  0  0  0  0  0  0  0
    6.1646  -15.5943   26.3176 C   0  0  0  0  0  0  0  0  0  0  0  0
    5.9403  -16.1526   27.5754 O   0  0  0  0  0  0  0  0  0  0  0  0
    5.4312  -15.9771   25.3895 O   0  0  0  0  0  0  0  0  0  0  0  0
  2  4  1  0
  2  1  1  0
  3  2  2  0
  4  5  1  0
  5  7  1  0
  5  6  1  6
  7  8  2  0
 10  9  1  1
 10 11  1  0
 10 12  1  0
 12 14  1  0
 12 13  1  6
 13  7  1  0
 14 16  1  0
 14 15  2  0
 16 17  1  0
 17 18  1  0
 19 18  1  0
 20 16  1  0
 20 19  1  0
 20 21  1  6
 22 21  1  0
 23 21  2  0
M  END
$$$$
