NTP.pdb
     RDKit          3D

 23 23  0  0  1  0  0  0  0  0999 V2000
    8.3517  -13.4901   16.9092 N   0  0  0  0  0  0  0  0  0  0  0  0
    8.8051  -13.5687   18.2517 C   0  0  0  0  0  0  0  0  0  0  0  0
   10.0606  -13.5649   18.4269 O   0  0  0  0  0  0  0  0  0  0  0  0
    7.8561  -13.6519   19.4056 C   0  0  0  0  0  0  0  0  0  0  0  0
    8.0686  -14.9824   20.0956 C   0  0  2  0  0  0  0  0  0  0  0  0
    7.6693  -16.0877   19.2474 N   0  0  0  0  0  0  0  0  0  0  0  0
    7.4360  -15.0216   21.4181 C   0  0  0  0  0  0  0  0  0  0  0  0
    6.2020  -14.7992   21.4883 O   0  0  0  0  0  0  0  0  0  0  0  0
    6.0553  -17.2665   23.2518 C   0  0  0  0  0  0  0  0  0  0  0  0
    7.0863  -16.8186   24.2368 C   0  0  1  0  0  0  0  0  0  0  0  0
    8.1338  -17.7013   24.2537 O   0  0  0  0  0  0  0  0  0  0  0  0
    7.5221  -15.3941   23.9071 C   0  0  2  0  0  0  0  0  0  0  0  0
    8.1497  -15.2999   22.6340 N   0  0  0  0  0  0  0  0  0  0  0  0
    8.1602  -14.7353   25.0427 C   0  0  0  0  0  0  0  0  0  0  0  0
    9.3175  -15.2272   25.3532 O   0  0  0  0  0  0  0  0  0  0  0  0
    7.7040  -13.6659   25.8322 N   0  0  0  0  0  0  0  0  0  0  0  0
    6.5803  -12.8380   25.4462 C   0  0  0  0  0  0  0  0  0  0  0  0
    6.3984  -11.8179   26.5688 C   0  0  0  0  0  0  0  0  0  0  0  0
    6.9579  -12.5780   27.7327 C   0  0  0  0  0  0  0  0  0  0  0  0
    8.2134  -13.2037   27.0921 C   0  0  1  0  0  0  0  0  0  0  0  0
    8.7449  -14.2353   27.9953 C   0  0  0  0  0  0  0  0  0  0  0  0
    9.5777  -13.7805   29.0168 O   0  0  0  0  0  0  0  0  0  0  0  0
    8.5303  -15.4588   27.9425 O   0  0  0  0  0  0  0  0  0  0  0  0
  2  4  1  0
  2  1  1  0
  3  2  2  0
  4  5  1  0
  5  7  1  0
  5  6  1  6
  7  8  2  0
 10  9  1  6
 10 11  1  0
 10 12  1  0
 12 14  1  0
 12 13  1  6
 13  7  1  0
 14 16  1  0
 14 15  2  0
 16 17  1  0
 17 18  1  0
 19 18  1  0
 20 16  1  0
 20 19  1  0
 20 21  1  1
 22 21  1  0
 23 21  2  0
M  END
$$$$
