NTP.pdb
     RDKit          3D

 23 23  0  0  1  0  0  0  0  0999 V2000
   13.8969  -15.2255   20.2636 N   0  0  0  0  0  0  0  0  0  0  0  0
   13.2080  -14.4952   19.2606 C   0  0  0  0  0  0  0  0  0  0  0  0
   13.9218  -13.9459   18.3686 O   0  0  0  0  0  0  0  0  0  0  0  0
   11.7165  -14.3757   19.2501 C   0  0  0  0  0  0  0  0  0  0  0  0
   11.1711  -15.1797   20.4111 C   0  0  2  0  0  0  0  0  0  0  0  0
   10.9041  -16.5510   20.0254 N   0  0  0  0  0  0  0  0  0  0  0  0
   10.0149  -14.5277   21.0346 C   0  0  0  0  0  0  0  0  0  0  0  0
    9.2208  -13.8993   20.2919 O   0  0  0  0  0  0  0  0  0  0  0  0
    7.3696  -14.6257   20.8277 C   0  0  0  0  0  0  0  0  0  0  0  0
    7.3317  -14.9779   22.2797 C   0  0  1  0  0  0  0  0  0  0  0  0
    7.3724  -16.3386   22.4337 O   0  0  0  0  0  0  0  0  0  0  0  0
    8.4705  -14.2689   23.0067 C   0  0  2  0  0  0  0  0  0  0  0  0
    9.7424  -14.5690   22.4451 N   0  0  0  0  0  0  0  0  0  0  0  0
    8.3232  -14.3322   24.4576 C   0  0  0  0  0  0  0  0  0  0  0  0
    8.7813  -15.4229   24.9851 O   0  0  0  0  0  0  0  0  0  0  0  0
    7.7634  -13.3966   25.3444 N   0  0  0  0  0  0  0  0  0  0  0  0
    7.2110  -12.1349   24.8974 C   0  0  0  0  0  0  0  0  0  0  0  0
    6.6945  -11.4293   26.1501 C   0  0  0  0  0  0  0  0  0  0  0  0
    6.3905  -12.6041   27.0293 C   0  0  0  0  0  0  0  0  0  0  0  0
    7.6286  -13.4862   26.7707 C   0  0  1  0  0  0  0  0  0  0  0  0
    7.3789  -14.8289   27.3162 C   0  0  0  0  0  0  0  0  0  0  0  0
    7.9765  -15.1084   28.5444 O   0  0  0  0  0  0  0  0  0  0  0  0
    6.6968  -15.7312   26.8002 O   0  0  0  0  0  0  0  0  0  0  0  0
  2  4  1  0
  2  1  1  0
  3  2  2  0
  4  5  1  0
  5  7  1  0
  5  6  1  6
  7  8  2  0
 10  9  1  6
 10 11  1  0
 10 12  1  0
 12 14  1  0
 12 13  1  1
 13  7  1  0
 14 16  1  0
 14 15  2  0
 16 17  1  0
 17 18  1  0
 19 18  1  0
 20 16  1  0
 20 19  1  0
 20 21  1  6
 22 21  1  0
 23 21  2  0
M  END
$$$$
