NTP.pdb
     RDKit          3D

 23 23  0  0  1  0  0  0  0  0999 V2000
   14.0114  -15.6626   20.9095 N   0  0  0  0  0  0  0  0  0  0  0  0
   13.4867  -14.7006   20.0077 C   0  0  0  0  0  0  0  0  0  0  0  0
   14.1548  -14.4909   18.9510 O   0  0  0  0  0  0  0  0  0  0  0  0
   12.2115  -13.9678   20.2834 C   0  0  0  0  0  0  0  0  0  0  0  0
   11.0791  -14.9724   20.2739 C   0  0  2  0  0  0  0  0  0  0  0  0
   10.7346  -15.3680   18.9229 N   0  0  0  0  0  0  0  0  0  0  0  0
    9.9221  -14.5019   21.0425 C   0  0  0  0  0  0  0  0  0  0  0  0
    9.2539  -13.5461   20.5766 O   0  0  0  0  0  0  0  0  0  0  0  0
    6.7937  -14.8993   21.1573 C   0  0  0  0  0  0  0  0  0  0  0  0
    7.0878  -15.2970   22.5676 C   0  0  1  0  0  0  0  0  0  0  0  0
    7.1356  -16.6623   22.6699 O   0  0  0  0  0  0  0  0  0  0  0  0
    8.3786  -14.6266   23.0283 C   0  0  2  0  0  0  0  0  0  0  0  0
    9.5132  -15.0737   22.2959 N   0  0  0  0  0  0  0  0  0  0  0  0
    8.4773  -14.5601   24.4831 C   0  0  0  0  0  0  0  0  0  0  0  0
    9.2025  -15.4985   25.0040 O   0  0  0  0  0  0  0  0  0  0  0  0
    7.9059  -13.6416   25.3803 N   0  0  0  0  0  0  0  0  0  0  0  0
    7.2571  -12.4244   24.9394 C   0  0  0  0  0  0  0  0  0  0  0  0
    6.7606  -11.7253   26.2038 C   0  0  0  0  0  0  0  0  0  0  0  0
    6.5713  -12.8979   27.1175 C   0  0  0  0  0  0  0  0  0  0  0  0
    7.8464  -13.7099   26.8129 C   0  0  1  0  0  0  0  0  0  0  0  0
    7.7052  -15.0536   27.3935 C   0  0  0  0  0  0  0  0  0  0  0  0
    8.1969  -15.2127   28.6884 O   0  0  0  0  0  0  0  0  0  0  0  0
    7.1976  -16.0523   26.8541 O   0  0  0  0  0  0  0  0  0  0  0  0
  2  4  1  0
  2  1  1  0
  3  2  2  0
  4  5  1  0
  5  7  1  0
  5  6  1  6
  7  8  2  0
 10  9  1  6
 10 11  1  0
 10 12  1  0
 12 14  1  0
 12 13  1  1
 13  7  1  0
 14 16  1  0
 14 15  2  0
 16 17  1  0
 17 18  1  0
 19 18  1  0
 20 16  1  0
 20 19  1  0
 20 21  1  6
 22 21  1  0
 23 21  2  0
M  END
$$$$
