NTP.pdb
     RDKit          3D

 23 23  0  0  1  0  0  0  0  0999 V2000
   13.6997  -14.6087   18.5171 N   0  0  0  0  0  0  0  0  0  0  0  0
   12.8791  -15.6910   18.9284 C   0  0  0  0  0  0  0  0  0  0  0  0
   13.2808  -16.8542   18.6240 O   0  0  0  0  0  0  0  0  0  0  0  0
   11.6044  -15.4777   19.6825 C   0  0  0  0  0  0  0  0  0  0  0  0
   11.7923  -16.0121   21.0864 C   0  0  2  0  0  0  0  0  0  0  0  0
   11.9898  -17.4479   21.0835 N   0  0  0  0  0  0  0  0  0  0  0  0
   10.7132  -15.5871   21.9839 C   0  0  0  0  0  0  0  0  0  0  0  0
   10.2361  -14.4359   21.8287 O   0  0  0  0  0  0  0  0  0  0  0  0
    7.2474  -16.7444   22.5958 C   0  0  0  0  0  0  0  0  0  0  0  0
    7.9361  -16.8719   23.9161 C   0  0  1  0  0  0  0  0  0  0  0  0
    8.2326  -18.1860   24.1657 O   0  0  0  0  0  0  0  0  0  0  0  0
    9.1708  -15.9758   23.9361 C   0  0  2  0  0  0  0  0  0  0  0  0
   10.1740  -16.4144   23.0281 N   0  0  0  0  0  0  0  0  0  0  0  0
    9.5741  -15.6222   25.2938 C   0  0  0  0  0  0  0  0  0  0  0  0
   10.4202  -16.4482   25.8225 O   0  0  0  0  0  0  0  0  0  0  0  0
    9.1798  -14.5353   26.0927 N   0  0  0  0  0  0  0  0  0  0  0  0
    8.3972  -13.4326   25.5746 C   0  0  0  0  0  0  0  0  0  0  0  0
    8.1676  -12.4848   26.7505 C   0  0  0  0  0  0  0  0  0  0  0  0
    8.2385  -13.4421   27.9012 C   0  0  0  0  0  0  0  0  0  0  0  0
    9.4463  -14.3055   27.4843 C   0  0  1  0  0  0  0  0  0  0  0  0
    9.4966  -15.4993   28.3415 C   0  0  0  0  0  0  0  0  0  0  0  0
   10.2106  -15.3654   29.5315 O   0  0  0  0  0  0  0  0  0  0  0  0
    8.9733  -16.6045   28.1167 O   0  0  0  0  0  0  0  0  0  0  0  0
  2  4  1  0
  2  1  1  0
  3  2  2  0
  4  5  1  0
  5  7  1  0
  5  6  1  6
  7  8  2  0
 10  9  1  6
 10 11  1  0
 10 12  1  0
 12 14  1  0
 12 13  1  1
 13  7  1  0
 14 16  1  0
 14 15  2  0
 16 17  1  0
 17 18  1  0
 19 18  1  0
 20 16  1  0
 20 19  1  0
 20 21  1  1
 22 21  1  0
 23 21  2  0
M  END
$$$$
