NTP.pdb
     RDKit          3D

 23 23  0  0  1  0  0  0  0  0999 V2000
   13.9533  -15.9558   20.3628 N   0  0  0  0  0  0  0  0  0  0  0  0
   13.3295  -14.7033   20.1257 C   0  0  0  0  0  0  0  0  0  0  0  0
   13.9638  -13.8835   19.3960 O   0  0  0  0  0  0  0  0  0  0  0  0
   11.9925  -14.3613   20.7041 C   0  0  0  0  0  0  0  0  0  0  0  0
   11.2451  -15.6527   20.9592 C   0  0  2  0  0  0  0  0  0  0  0  0
   10.7059  -16.2029   19.7317 N   0  0  0  0  0  0  0  0  0  0  0  0
   10.2324  -15.5019   22.0092 C   0  0  0  0  0  0  0  0  0  0  0  0
    9.4945  -14.4864   21.9753 O   0  0  0  0  0  0  0  0  0  0  0  0
    6.9889  -17.1221   25.1330 C   0  0  0  0  0  0  0  0  0  0  0  0
    8.0067  -17.3859   24.0709 C   0  0  1  0  0  0  0  0  0  0  0  0
    7.3937  -17.4973   22.8508 O   0  0  0  0  0  0  0  0  0  0  0  0
    9.0685  -16.2906   24.0984 C   0  0  2  0  0  0  0  0  0  0  0  0
   10.0395  -16.4507   23.0713 N   0  0  0  0  0  0  0  0  0  0  0  0
    9.5347  -16.0077   25.4524 C   0  0  0  0  0  0  0  0  0  0  0  0
   10.3322  -16.9085   25.9324 O   0  0  0  0  0  0  0  0  0  0  0  0
    9.2442  -14.9192   26.2925 N   0  0  0  0  0  0  0  0  0  0  0  0
    8.3242  -13.8673   25.9127 C   0  0  0  0  0  0  0  0  0  0  0  0
    8.2730  -12.9002   27.0942 C   0  0  0  0  0  0  0  0  0  0  0  0
    8.6065  -13.8226   28.2271 C   0  0  0  0  0  0  0  0  0  0  0  0
    9.7557  -14.6408   27.6045 C   0  0  1  0  0  0  0  0  0  0  0  0
   10.0256  -15.8081   28.4572 C   0  0  0  0  0  0  0  0  0  0  0  0
   10.9334  -15.6070   29.4961 O   0  0  0  0  0  0  0  0  0  0  0  0
    9.5326  -16.9443   28.3484 O   0  0  0  0  0  0  0  0  0  0  0  0
  2  4  1  0
  2  1  1  0
  3  2  2  0
  4  5  1  0
  5  7  1  0
  5  6  1  6
  7  8  2  0
 10  9  1  1
 10 11  1  0
 10 12  1  0
 12 14  1  0
 12 13  1  6
 13  7  1  0
 14 16  1  0
 14 15  2  0
 16 17  1  0
 17 18  1  0
 19 18  1  0
 20 16  1  0
 20 19  1  0
 20 21  1  1
 22 21  1  0
 23 21  2  0
M  END
$$$$
