NTP.pdb
     RDKit          3D

 23 23  0  0  1  0  0  0  0  0999 V2000
   14.0585  -15.5864   20.7920 N   0  0  0  0  0  0  0  0  0  0  0  0
   13.4873  -14.7680   19.7830 C   0  0  0  0  0  0  0  0  0  0  0  0
   14.1659  -14.6192   18.7226 O   0  0  0  0  0  0  0  0  0  0  0  0
   12.1538  -14.1115   19.9551 C   0  0  0  0  0  0  0  0  0  0  0  0
   11.0928  -15.1913   19.9509 C   0  0  2  0  0  0  0  0  0  0  0  0
   10.7439  -15.5845   18.6003 N   0  0  0  0  0  0  0  0  0  0  0  0
    9.9251  -14.8160   20.7548 C   0  0  0  0  0  0  0  0  0  0  0  0
    9.0825  -14.0380   20.2432 O   0  0  0  0  0  0  0  0  0  0  0  0
    6.1624  -15.7783   23.2324 C   0  0  0  0  0  0  0  0  0  0  0  0
    7.4049  -16.0834   22.4599 C   0  0  1  0  0  0  0  0  0  0  0  0
    7.1258  -16.1244   21.1192 O   0  0  0  0  0  0  0  0  0  0  0  0
    8.4843  -15.0620   22.8054 C   0  0  2  0  0  0  0  0  0  0  0  0
    9.6939  -15.2889   22.0921 N   0  0  0  0  0  0  0  0  0  0  0  0
    8.5654  -14.8088   24.2407 C   0  0  0  0  0  0  0  0  0  0  0  0
    9.1852  -15.7333   24.9032 O   0  0  0  0  0  0  0  0  0  0  0  0
    8.0736  -13.7265   24.9902 N   0  0  0  0  0  0  0  0  0  0  0  0
    7.3663  -12.6179   24.3838 C   0  0  0  0  0  0  0  0  0  0  0  0
    6.9889  -11.6778   25.5274 C   0  0  0  0  0  0  0  0  0  0  0  0
    6.9091  -12.6435   26.6705 C   0  0  0  0  0  0  0  0  0  0  0  0
    8.1589  -13.5074   26.4063 C   0  0  1  0  0  0  0  0  0  0  0  0
    8.0960  -14.7074   27.2539 C   0  0  0  0  0  0  0  0  0  0  0  0
    8.6906  -14.5979   28.5102 O   0  0  0  0  0  0  0  0  0  0  0  0
    7.5727  -15.7985   26.9686 O   0  0  0  0  0  0  0  0  0  0  0  0
  2  4  1  0
  2  1  1  0
  3  2  2  0
  4  5  1  0
  5  7  1  0
  5  6  1  6
  7  8  2  0
 10  9  1  1
 10 11  1  0
 10 12  1  0
 12 14  1  0
 12 13  1  1
 13  7  1  0
 14 16  1  0
 14 15  2  0
 16 17  1  0
 17 18  1  0
 19 18  1  0
 20 16  1  0
 20 19  1  0
 20 21  1  1
 22 21  1  0
 23 21  2  0
M  END
$$$$
