NTP.pdb
     RDKit          3D

 23 23  0  0  1  0  0  0  0  0999 V2000
   14.2288  -14.2333   18.6974 N   0  0  0  0  0  0  0  0  0  0  0  0
   13.5906  -14.2940   19.9635 C   0  0  0  0  0  0  0  0  0  0  0  0
   14.1918  -14.9443   20.8704 O   0  0  0  0  0  0  0  0  0  0  0  0
   12.2762  -13.6272   20.2216 C   0  0  0  0  0  0  0  0  0  0  0  0
   11.2162  -14.7022   20.3330 C   0  0  2  0  0  0  0  0  0  0  0  0
   10.9374  -15.3053   19.0450 N   0  0  0  0  0  0  0  0  0  0  0  0
   10.0087  -14.2141   21.0071 C   0  0  0  0  0  0  0  0  0  0  0  0
    9.2540  -13.4353   20.3739 O   0  0  0  0  0  0  0  0  0  0  0  0
    7.1746  -14.3124   20.7552 C   0  0  0  0  0  0  0  0  0  0  0  0
    7.2302  -14.9324   22.1140 C   0  0  1  0  0  0  0  0  0  0  0  0
    7.3482  -16.2929   22.0047 O   0  0  0  0  0  0  0  0  0  0  0  0
    8.3676  -14.3054   22.9148 C   0  0  2  0  0  0  0  0  0  0  0  0
    9.6438  -14.5777   22.3487 N   0  0  0  0  0  0  0  0  0  0  0  0
    8.1961  -14.4880   24.3529 C   0  0  0  0  0  0  0  0  0  0  0  0
    8.6686  -15.6079   24.8004 O   0  0  0  0  0  0  0  0  0  0  0  0
    7.6004  -13.6383   25.3006 N   0  0  0  0  0  0  0  0  0  0  0  0
    7.0083  -12.3665   24.9418 C   0  0  0  0  0  0  0  0  0  0  0  0
    6.4616  -11.7711   26.2382 C   0  0  0  0  0  0  0  0  0  0  0  0
    6.1925  -13.0160   27.0277 C   0  0  0  0  0  0  0  0  0  0  0  0
    7.4610  -13.8355   26.7157 C   0  0  1  0  0  0  0  0  0  0  0  0
    7.2536  -15.2217   27.1606 C   0  0  0  0  0  0  0  0  0  0  0  0
    7.8582  -15.5712   28.3674 O   0  0  0  0  0  0  0  0  0  0  0  0
    6.6015  -16.1052   26.5775 O   0  0  0  0  0  0  0  0  0  0  0  0
  2  4  1  0
  2  1  1  0
  3  2  2  0
  4  5  1  0
  5  7  1  0
  5  6  1  6
  7  8  2  0
 10  9  1  6
 10 11  1  0
 10 12  1  0
 12 14  1  0
 12 13  1  6
 13  7  1  0
 14 16  1  0
 14 15  2  0
 16 17  1  0
 17 18  1  0
 19 18  1  0
 20 16  1  0
 20 19  1  0
 20 21  1  6
 22 21  1  0
 23 21  2  0
M  END
$$$$
