NTP.pdb
     RDKit          3D

 23 23  0  0  1  0  0  0  0  0999 V2000
   12.3183  -19.8464   22.2312 N   0  0  0  0  0  0  0  0  0  0  0  0
   13.0114  -18.6102   22.1575 C   0  0  0  0  0  0  0  0  0  0  0  0
   14.1568  -18.6342   21.6148 O   0  0  0  0  0  0  0  0  0  0  0  0
   12.4267  -17.3403   22.6908 C   0  0  0  0  0  0  0  0  0  0  0  0
   11.3944  -16.8445   21.7008 C   0  0  2  0  0  0  0  0  0  0  0  0
   12.0132  -16.4114   20.4640 N   0  0  0  0  0  0  0  0  0  0  0  0
   10.5176  -15.8254   22.2868 C   0  0  0  0  0  0  0  0  0  0  0  0
   11.0503  -14.7934   22.7646 O   0  0  0  0  0  0  0  0  0  0  0  0
    7.0279  -14.3643   20.9196 C   0  0  0  0  0  0  0  0  0  0  0  0
    6.8746  -14.8889   22.3107 C   0  0  1  0  0  0  0  0  0  0  0  0
    6.2122  -16.0879   22.2898 O   0  0  0  0  0  0  0  0  0  0  0  0
    8.2453  -14.9852   22.9737 C   0  0  2  0  0  0  0  0  0  0  0  0
    9.0865  -15.9436   22.3435 N   0  0  0  0  0  0  0  0  0  0  0  0
    8.1542  -14.9972   24.4306 C   0  0  0  0  0  0  0  0  0  0  0  0
    8.3328  -16.1665   24.9585 O   0  0  0  0  0  0  0  0  0  0  0  0
    7.9026  -13.9410   25.3228 N   0  0  0  0  0  0  0  0  0  0  0  0
    7.9204  -12.5531   24.9100 C   0  0  0  0  0  0  0  0  0  0  0  0
    7.5831  -11.7349   26.1553 C   0  0  0  0  0  0  0  0  0  0  0  0
    6.7660  -12.7244   26.9290 C   0  0  0  0  0  0  0  0  0  0  0  0
    7.5960  -14.0076   26.7236 C   0  0  1  0  0  0  0  0  0  0  0  0
    6.7999  -15.1646   27.1596 C   0  0  0  0  0  0  0  0  0  0  0  0
    6.9228  -15.5174   28.5029 O   0  0  0  0  0  0  0  0  0  0  0  0
    6.0363  -15.8536   26.4610 O   0  0  0  0  0  0  0  0  0  0  0  0
  2  4  1  0
  2  1  1  0
  3  2  2  0
  4  5  1  0
  5  7  1  0
  5  6  1  6
  7  8  2  0
 10  9  1  6
 10 11  1  0
 10 12  1  0
 12 14  1  0
 12 13  1  6
 13  7  1  0
 14 16  1  0
 14 15  2  0
 16 17  1  0
 17 18  1  0
 19 18  1  0
 20 16  1  0
 20 19  1  0
 20 21  1  6
 22 21  1  0
 23 21  2  0
M  END
$$$$
