NTP.pdb
     RDKit          3D

 23 23  0  0  1  0  0  0  0  0999 V2000
   13.8616  -16.2476   18.7230 N   0  0  0  0  0  0  0  0  0  0  0  0
   13.9828  -15.2515   19.7265 C   0  0  0  0  0  0  0  0  0  0  0  0
   15.0421  -14.5553   19.7088 O   0  0  0  0  0  0  0  0  0  0  0  0
   12.9195  -15.0290   20.7555 C   0  0  0  0  0  0  0  0  0  0  0  0
   11.5727  -15.1416   20.0735 C   0  0  2  0  0  0  0  0  0  0  0  0
   11.6502  -14.7455   18.6815 N   0  0  0  0  0  0  0  0  0  0  0  0
   10.5234  -14.4302   20.8108 C   0  0  0  0  0  0  0  0  0  0  0  0
   10.5340  -13.1747   20.7872 O   0  0  0  0  0  0  0  0  0  0  0  0
    7.3115  -13.6004   20.2443 C   0  0  0  0  0  0  0  0  0  0  0  0
    7.1460  -14.3665   21.5169 C   0  0  1  0  0  0  0  0  0  0  0  0
    6.6618  -15.6201   21.2505 O   0  0  0  0  0  0  0  0  0  0  0  0
    8.4721  -14.3958   22.2709 C   0  0  2  0  0  0  0  0  0  0  0  0
    9.4871  -15.0903   21.5563 N   0  0  0  0  0  0  0  0  0  0  0  0
    8.2947  -14.6976   23.6880 C   0  0  0  0  0  0  0  0  0  0  0  0
    8.5833  -15.9198   24.0051 O   0  0  0  0  0  0  0  0  0  0  0  0
    7.8612  -13.8665   24.7352 N   0  0  0  0  0  0  0  0  0  0  0  0
    7.7937  -12.4256   24.6077 C   0  0  0  0  0  0  0  0  0  0  0  0
    7.2621  -11.9052   25.9420 C   0  0  0  0  0  0  0  0  0  0  0  0
    6.4656  -13.0862   26.4071 C   0  0  0  0  0  0  0  0  0  0  0  0
    7.4250  -14.2397   26.0508 C   0  0  1  0  0  0  0  0  0  0  0  0
    6.6979  -15.5136   26.1567 C   0  0  0  0  0  0  0  0  0  0  0  0
    6.7196  -16.1253   27.4094 O   0  0  0  0  0  0  0  0  0  0  0  0
    6.0722  -16.0954   25.2535 O   0  0  0  0  0  0  0  0  0  0  0  0
  2  4  1  0
  2  1  1  0
  3  2  2  0
  4  5  1  0
  5  7  1  0
  5  6  1  6
  7  8  2  0
 10  9  1  6
 10 11  1  0
 10 12  1  0
 12 14  1  0
 12 13  1  6
 13  7  1  0
 14 16  1  0
 14 15  2  0
 16 17  1  0
 17 18  1  0
 19 18  1  0
 20 16  1  0
 20 19  1  0
 20 21  1  6
 22 21  1  0
 23 21  2  0
M  END
$$$$
