CVR.pdb
     RDKit          3D

 25 24  0  0  1  0  0  0  0  0999 V2000
   -4.7147  -21.8155   28.8578 N   0  0  0  0  0  0  0  0  0  0  0  0
   -4.2163  -21.4367   30.1589 C   0  0  1  0  0  0  0  0  0  0  0  0
   -4.8913  -20.1666   30.6050 C   0  0  0  0  0  0  0  0  0  0  0  0
   -3.7969  -18.7393   30.4868 S   0  0  0  0  0  0  0  0  0  0  0  0
   -4.3344  -22.5246   31.1506 C   0  0  0  0  0  0  0  0  0  0  0  0
   -5.4829  -23.0476   31.2766 O   0  0  0  0  0  0  0  0  0  0  0  0
   -1.6148  -25.3788   31.8762 C   0  0  0  0  0  0  0  0  0  0  0  0
   -3.0496  -25.3330   32.2737 C   0  0  2  0  0  0  0  0  0  0  0  0
   -3.9196  -25.7157   31.0682 C   0  0  0  0  0  0  0  0  0  0  0  0
   -3.5204  -24.0802   32.9162 C   0  0  2  0  0  0  0  0  0  0  0  0
   -3.2797  -23.0022   31.9413 N   0  0  0  0  0  0  0  0  0  0  0  0
   -2.9166  -23.7457   34.2144 C   0  0  0  0  0  0  0  0  0  0  0  0
   -2.3729  -22.5890   34.3278 O   0  0  0  0  0  0  0  0  0  0  0  0
   -4.2875  -21.9649   42.3581 N   0  0  0  0  0  0  0  0  0  0  0  0
   -5.1883  -22.8657   41.7449 C   0  0  0  0  0  0  0  0  0  0  0  0
   -6.2171  -23.2805   42.4066 N   0  0  0  0  0  0  0  0  0  0  0  0
   -5.0133  -23.3415   40.4228 N   0  0  0  0  0  0  0  0  0  0  0  0
   -3.9921  -22.8674   39.5408 C   0  0  0  0  0  0  0  0  0  0  0  0
   -4.0064  -23.4912   38.1674 C   0  0  0  0  0  0  0  0  0  0  0  0
   -2.9466  -22.9949   37.2480 C   0  0  0  0  0  0  0  0  0  0  0  0
   -2.1903  -24.1118   36.5639 C   0  0  2  0  0  0  0  0  0  0  0  0
   -2.8679  -24.5599   35.3614 N   0  0  0  0  0  0  0  0  0  0  0  0
   -1.9381  -25.2270   37.5037 C   0  0  0  0  0  0  0  0  0  0  0  0
   -1.0525  -25.0786   38.3750 O   0  0  0  0  0  0  0  0  0  0  0  0
   -2.6311  -26.4211   37.4652 O   0  0  0  0  0  0  0  0  0  0  0  0
  2  1  1  6
  2  3  1  0
  3  4  1  0
  5  2  1  0
  6  5  2  0
  8  7  1  6
  8  9  1  0
  8 10  1  0
 10 11  1  6
 11  5  1  0
 12 10  1  0
 12 22  1  0
 13 12  2  0
 15 16  2  0
 15 14  1  0
 17 15  1  0
 18 17  1  0
 19 18  1  0
 20 19  1  0
 21 20  1  1
 21 22  1  0
 21 23  1  0
 23 25  1  0
 24 23  2  0
M  END
$$$$
