CVR.pdb
     RDKit          3D

 25 24  0  0  1  0  0  0  0  0999 V2000
    8.6603  -15.1946   14.6422 N   0  0  0  0  0  0  0  0  0  0  0  0
    8.3376  -15.8317   15.8970 C   0  0  1  0  0  0  0  0  0  0  0  0
    8.7386  -17.2822   15.8416 C   0  0  0  0  0  0  0  0  0  0  0  0
    7.8469  -18.2791   17.0499 S   0  0  0  0  0  0  0  0  0  0  0  0
    8.9146  -15.1240   17.0577 C   0  0  0  0  0  0  0  0  0  0  0  0
   10.0721  -14.6313   16.8967 O   0  0  0  0  0  0  0  0  0  0  0  0
    6.7432  -13.9616   20.5685 C   0  0  0  0  0  0  0  0  0  0  0  0
    7.9663  -13.3419   19.9863 C   0  0  2  0  0  0  0  0  0  0  0  0
    7.5531  -12.2454   18.9945 C   0  0  0  0  0  0  0  0  0  0  0  0
    8.9636  -14.2699   19.3961 C   0  0  2  0  0  0  0  0  0  0  0  0
    8.2757  -14.9677   18.2959 N   0  0  0  0  0  0  0  0  0  0  0  0
    9.5787  -15.2379   20.3160 C   0  0  0  0  0  0  0  0  0  0  0  0
    8.9511  -16.3395   20.5139 O   0  0  0  0  0  0  0  0  0  0  0  0
   16.5810  -13.5791   19.3792 N   0  0  0  0  0  0  0  0  0  0  0  0
   15.9431  -14.6220   18.6691 C   0  0  0  0  0  0  0  0  0  0  0  0
   15.6882  -14.4679   17.4122 N   0  0  0  0  0  0  0  0  0  0  0  0
   15.5646  -15.8427   19.2785 N   0  0  0  0  0  0  0  0  0  0  0  0
   14.9572  -15.9262   20.5706 C   0  0  0  0  0  0  0  0  0  0  0  0
   13.4538  -16.0493   20.5533 C   0  0  0  0  0  0  0  0  0  0  0  0
   12.8225  -16.1472   21.8974 C   0  0  0  0  0  0  0  0  0  0  0  0
   11.3114  -16.1667   21.8381 C   0  0  2  0  0  0  0  0  0  0  0  0
   10.7935  -15.0920   21.0118 N   0  0  0  0  0  0  0  0  0  0  0  0
   10.7327  -16.1438   23.2003 C   0  0  0  0  0  0  0  0  0  0  0  0
   10.9340  -17.1281   23.9459 O   0  0  0  0  0  0  0  0  0  0  0  0
    9.9826  -15.0911   23.6866 O   0  0  0  0  0  0  0  0  0  0  0  0
  2  1  1  6
  2  3  1  0
  3  4  1  0
  5  2  1  0
  6  5  2  0
  8  7  1  6
  8  9  1  0
  8 10  1  0
 10 11  1  6
 11  5  1  0
 12 10  1  0
 12 22  1  0
 13 12  2  0
 15 16  2  0
 15 14  1  0
 17 15  1  0
 18 17  1  0
 19 18  1  0
 20 19  1  0
 21 20  1  1
 21 22  1  0
 21 23  1  0
 23 25  1  0
 24 23  2  0
M  END
$$$$
