CVR.pdb
     RDKit          3D

 25 24  0  0  1  0  0  0  0  0999 V2000
    8.5430  -17.1128   16.0543 N   0  0  0  0  0  0  0  0  0  0  0  0
    7.8458  -17.0163   17.3150 C   0  0  1  0  0  0  0  0  0  0  0  0
    7.5031  -18.3979   17.8065 C   0  0  0  0  0  0  0  0  0  0  0  0
    6.0585  -19.0768   16.9691 S   0  0  0  0  0  0  0  0  0  0  0  0
    8.5883  -16.2226   18.3148 C   0  0  0  0  0  0  0  0  0  0  0  0
    9.8534  -16.2989   18.2656 O   0  0  0  0  0  0  0  0  0  0  0  0
    6.7880  -13.5843   21.2612 C   0  0  0  0  0  0  0  0  0  0  0  0
    8.0815  -13.4059   20.5443 C   0  0  2  0  0  0  0  0  0  0  0  0
    7.8524  -12.5390   19.2982 C   0  0  0  0  0  0  0  0  0  0  0  0
    8.8378  -14.6423   20.2227 C   0  0  2  0  0  0  0  0  0  0  0  0
    7.9939  -15.4101   19.2906 N   0  0  0  0  0  0  0  0  0  0  0  0
    9.2377  -15.4782   21.3643 C   0  0  0  0  0  0  0  0  0  0  0  0
    8.3972  -16.3593   21.7690 O   0  0  0  0  0  0  0  0  0  0  0  0
   14.7860  -20.1654   26.2132 N   0  0  0  0  0  0  0  0  0  0  0  0
   13.9806  -20.6984   25.1806 C   0  0  0  0  0  0  0  0  0  0  0  0
   13.8538  -21.9794   25.0744 N   0  0  0  0  0  0  0  0  0  0  0  0
   13.2984  -19.8838   24.2448 N   0  0  0  0  0  0  0  0  0  0  0  0
   13.6249  -18.5123   24.0046 C   0  0  0  0  0  0  0  0  0  0  0  0
   12.5524  -17.5299   24.4046 C   0  0  0  0  0  0  0  0  0  0  0  0
   12.2257  -16.5107   23.3705 C   0  0  0  0  0  0  0  0  0  0  0  0
   10.7385  -16.3640   23.1375 C   0  0  2  0  0  0  0  0  0  0  0  0
   10.4534  -15.4218   22.0713 N   0  0  0  0  0  0  0  0  0  0  0  0
   10.0439  -16.0031   24.3938 C   0  0  0  0  0  0  0  0  0  0  0  0
    9.6111  -14.8357   24.5169 O   0  0  0  0  0  0  0  0  0  0  0  0
    9.8514  -16.8905   25.4344 O   0  0  0  0  0  0  0  0  0  0  0  0
  2  1  1  6
  2  3  1  0
  3  4  1  0
  5  2  1  0
  6  5  2  0
  8  7  1  6
  8  9  1  0
  8 10  1  0
 10 11  1  6
 11  5  1  0
 12 10  1  0
 12 22  1  0
 13 12  2  0
 15 16  2  0
 15 14  1  0
 17 15  1  0
 18 17  1  0
 19 18  1  0
 20 19  1  0
 21 20  1  1
 21 22  1  0
 21 23  1  0
 23 25  1  0
 24 23  2  0
M  END
$$$$
