CVR.pdb
     RDKit          3D

 25 24  0  0  1  0  0  0  0  0999 V2000
    8.9575  -17.1109   15.9869 N   0  0  0  0  0  0  0  0  0  0  0  0
    8.1293  -17.2508   17.1613 C   0  0  1  0  0  0  0  0  0  0  0  0
    8.0644  -18.7015   17.5603 C   0  0  0  0  0  0  0  0  0  0  0  0
    7.0740  -18.9529   19.0451 S   0  0  0  0  0  0  0  0  0  0  0  0
    8.5608  -16.3732   18.2678 C   0  0  0  0  0  0  0  0  0  0  0  0
    9.8120  -16.2716   18.4491 O   0  0  0  0  0  0  0  0  0  0  0  0
    7.0193  -12.8824   19.4143 C   0  0  0  0  0  0  0  0  0  0  0  0
    7.2760  -13.8251   20.5387 C   0  0  2  0  0  0  0  0  0  0  0  0
    7.6714  -13.0248   21.7877 C   0  0  0  0  0  0  0  0  0  0  0  0
    8.2272  -14.9331   20.2715 C   0  0  2  0  0  0  0  0  0  0  0  0
    7.6924  -15.6631   19.1089 N   0  0  0  0  0  0  0  0  0  0  0  0
    8.4836  -15.8563   21.3868 C   0  0  0  0  0  0  0  0  0  0  0  0
    7.8129  -16.9501   21.4088 O   0  0  0  0  0  0  0  0  0  0  0  0
   11.1058  -21.3495   20.3030 N   0  0  0  0  0  0  0  0  0  0  0  0
   12.3007  -21.5449   21.0328 C   0  0  0  0  0  0  0  0  0  0  0  0
   12.6689  -22.7458   21.3341 N   0  0  0  0  0  0  0  0  0  0  0  0
   13.1231  -20.4726   21.4556 N   0  0  0  0  0  0  0  0  0  0  0  0
   12.7989  -19.0961   21.2421 C   0  0  0  0  0  0  0  0  0  0  0  0
   11.9218  -18.4832   22.3053 C   0  0  0  0  0  0  0  0  0  0  0  0
   11.0957  -17.3346   21.8438 C   0  0  0  0  0  0  0  0  0  0  0  0
   10.2014  -16.7787   22.9295 C   0  0  2  0  0  0  0  0  0  0  0  0
    9.3933  -15.6748   22.4453 N   0  0  0  0  0  0  0  0  0  0  0  0
   10.9949  -16.4011   24.1205 C   0  0  0  0  0  0  0  0  0  0  0  0
   11.3639  -15.2111   24.2335 O   0  0  0  0  0  0  0  0  0  0  0  0
   11.3472  -17.2972   25.1107 O   0  0  0  0  0  0  0  0  0  0  0  0
  2  1  1  6
  2  3  1  0
  3  4  1  0
  5  2  1  0
  6  5  2  0
  8  7  1  6
  8  9  1  0
  8 10  1  0
 10 11  1  6
 11  5  1  0
 12 10  1  0
 12 22  1  0
 13 12  2  0
 15 16  2  0
 15 14  1  0
 17 15  1  0
 18 17  1  0
 19 18  1  0
 20 19  1  0
 21 20  1  6
 21 22  1  0
 21 23  1  0
 23 25  1  0
 24 23  2  0
M  END
$$$$
