CVR.pdb
     RDKit          3D

 25 24  0  0  1  0  0  0  0  0999 V2000
    8.1162  -17.1657   16.2363 N   0  0  0  0  0  0  0  0  0  0  0  0
    7.6573  -17.2105   17.6045 C   0  0  1  0  0  0  0  0  0  0  0  0
    7.6247  -18.6401   18.0768 C   0  0  0  0  0  0  0  0  0  0  0  0
    7.3190  -18.7622   19.8490 S   0  0  0  0  0  0  0  0  0  0  0  0
    8.4425  -16.3328   18.4955 C   0  0  0  0  0  0  0  0  0  0  0  0
    9.7007  -16.3523   18.3371 O   0  0  0  0  0  0  0  0  0  0  0  0
    6.8137  -13.6214   21.5096 C   0  0  0  0  0  0  0  0  0  0  0  0
    8.0565  -13.4793   20.7008 C   0  0  2  0  0  0  0  0  0  0  0  0
    7.7485  -12.6546   19.4432 C   0  0  0  0  0  0  0  0  0  0  0  0
    8.7816  -14.7325   20.3728 C   0  0  2  0  0  0  0  0  0  0  0  0
    7.8945  -15.4998   19.4813 N   0  0  0  0  0  0  0  0  0  0  0  0
    9.2065  -15.5582   21.5128 C   0  0  0  0  0  0  0  0  0  0  0  0
    8.3679  -16.4225   21.9558 O   0  0  0  0  0  0  0  0  0  0  0  0
   11.0535  -18.8463   18.0868 N   0  0  0  0  0  0  0  0  0  0  0  0
   12.3182  -19.3283   18.4956 C   0  0  0  0  0  0  0  0  0  0  0  0
   13.2618  -19.4494   17.6220 N   0  0  0  0  0  0  0  0  0  0  0  0
   12.6026  -19.6901   19.8346 N   0  0  0  0  0  0  0  0  0  0  0  0
   11.6890  -19.4946   20.9175 C   0  0  0  0  0  0  0  0  0  0  0  0
   11.7223  -18.1159   21.5287 C   0  0  0  0  0  0  0  0  0  0  0  0
   10.7450  -17.9004   22.6302 C   0  0  0  0  0  0  0  0  0  0  0  0
   10.7868  -16.4952   23.1879 C   0  0  2  0  0  0  0  0  0  0  0  0
   10.4444  -15.5083   22.1806 N   0  0  0  0  0  0  0  0  0  0  0  0
   12.1008  -16.2166   23.8097 C   0  0  0  0  0  0  0  0  0  0  0  0
   12.7830  -15.2717   23.3547 O   0  0  0  0  0  0  0  0  0  0  0  0
   12.6094  -16.9480   24.8652 O   0  0  0  0  0  0  0  0  0  0  0  0
  2  1  1  6
  2  3  1  0
  3  4  1  0
  5  2  1  0
  6  5  2  0
  8  7  1  6
  8  9  1  0
  8 10  1  0
 10 11  1  6
 11  5  1  0
 12 10  1  0
 12 22  1  0
 13 12  2  0
 15 16  2  0
 15 14  1  0
 17 15  1  0
 18 17  1  0
 19 18  1  0
 20 19  1  0
 21 20  1  6
 21 22  1  0
 21 23  1  0
 23 25  1  0
 24 23  2  0
M  END
$$$$
