CVR.pdb
     RDKit          3D

 25 24  0  0  1  0  0  0  0  0999 V2000
    7.2416  -14.3481   18.1982 N   0  0  0  0  0  0  0  0  0  0  0  0
    8.3620  -14.1885   19.0947 C   0  0  1  0  0  0  0  0  0  0  0  0
    8.0479  -13.1173   20.1055 C   0  0  0  0  0  0  0  0  0  0  0  0
    8.2456  -11.4611   19.4223 S   0  0  0  0  0  0  0  0  0  0  0  0
    8.7736  -15.4611   19.7208 C   0  0  0  0  0  0  0  0  0  0  0  0
    7.8413  -16.1900   20.1770 O   0  0  0  0  0  0  0  0  0  0  0  0
   10.4954  -18.5609   18.4863 C   0  0  0  0  0  0  0  0  0  0  0  0
   11.2083  -17.9832   19.6597 C   0  0  2  0  0  0  0  0  0  0  0  0
   11.9348  -19.1070   20.4120 C   0  0  0  0  0  0  0  0  0  0  0  0
   10.4014  -17.1396   20.5768 C   0  0  2  0  0  0  0  0  0  0  0  0
   10.0996  -15.9011   19.8381 N   0  0  0  0  0  0  0  0  0  0  0  0
   11.0072  -16.8282   21.8798 C   0  0  0  0  0  0  0  0  0  0  0  0
   12.0658  -16.1029   21.8762 O   0  0  0  0  0  0  0  0  0  0  0  0
   10.3481  -15.7769   28.6226 N   0  0  0  0  0  0  0  0  0  0  0  0
    9.9632  -14.4634   28.2684 C   0  0  0  0  0  0  0  0  0  0  0  0
   10.1200  -13.5064   29.1216 N   0  0  0  0  0  0  0  0  0  0  0  0
    9.4058  -14.1434   27.0068 N   0  0  0  0  0  0  0  0  0  0  0  0
    8.5465  -15.0228   26.2762 C   0  0  0  0  0  0  0  0  0  0  0  0
    9.2575  -16.1320   25.5416 C   0  0  0  0  0  0  0  0  0  0  0  0
   10.6554  -15.8160   25.1408 C   0  0  0  0  0  0  0  0  0  0  0  0
   11.3055  -16.9266   24.3462 C   0  0  2  0  0  0  0  0  0  0  0  0
   10.5515  -17.2394   23.1464 N   0  0  0  0  0  0  0  0  0  0  0  0
   11.5176  -18.1223   25.1924 C   0  0  0  0  0  0  0  0  0  0  0  0
   12.3454  -18.0469   26.1274 O   0  0  0  0  0  0  0  0  0  0  0  0
   10.8477  -19.3147   24.9999 O   0  0  0  0  0  0  0  0  0  0  0  0
  2  1  1  1
  2  3  1  0
  3  4  1  0
  5  2  1  0
  6  5  2  0
  8  7  1  6
  8  9  1  0
  8 10  1  0
 10 11  1  6
 11  5  1  0
 12 10  1  0
 12 22  1  0
 13 12  2  0
 15 16  2  0
 15 14  1  0
 17 15  1  0
 18 17  1  0
 19 18  1  0
 20 19  1  0
 21 20  1  1
 21 22  1  0
 21 23  1  0
 23 25  1  0
 24 23  2  0
M  END
$$$$
