CVR.pdb
     RDKit          3D

 25 24  0  0  1  0  0  0  0  0999 V2000
    7.7749  -13.0513   20.2483 N   0  0  0  0  0  0  0  0  0  0  0  0
    7.1816  -13.8806   21.2704 C   0  0  1  0  0  0  0  0  0  0  0  0
    7.1468  -15.3106   20.7995 C   0  0  0  0  0  0  0  0  0  0  0  0
    6.5016  -16.4247   22.0610 S   0  0  0  0  0  0  0  0  0  0  0  0
    7.8443  -13.7273   22.5812 C   0  0  0  0  0  0  0  0  0  0  0  0
    9.1094  -13.6382   22.5640 O   0  0  0  0  0  0  0  0  0  0  0  0
    5.7816  -13.2935   26.3521 C   0  0  0  0  0  0  0  0  0  0  0  0
    7.1019  -12.7168   25.9741 C   0  0  2  0  0  0  0  0  0  0  0  0
    6.8960  -11.2923   25.4400 C   0  0  0  0  0  0  0  0  0  0  0  0
    7.9443  -13.5300   25.0613 C   0  0  2  0  0  0  0  0  0  0  0  0
    7.1760  -13.6754   23.8126 N   0  0  0  0  0  0  0  0  0  0  0  0
    8.3674  -14.8458   25.5627 C   0  0  0  0  0  0  0  0  0  0  0  0
    7.5294  -15.8116   25.4552 O   0  0  0  0  0  0  0  0  0  0  0  0
   12.6915  -19.5342   21.9407 N   0  0  0  0  0  0  0  0  0  0  0  0
   12.4903  -20.5185   22.9354 C   0  0  0  0  0  0  0  0  0  0  0  0
   12.3121  -21.7480   22.5821 N   0  0  0  0  0  0  0  0  0  0  0  0
   12.4736  -20.2161   24.3186 N   0  0  0  0  0  0  0  0  0  0  0  0
   12.5198  -18.8840   24.8371 C   0  0  0  0  0  0  0  0  0  0  0  0
   11.2355  -18.4096   25.4706 C   0  0  0  0  0  0  0  0  0  0  0  0
   11.2366  -16.9796   25.8825 C   0  0  0  0  0  0  0  0  0  0  0  0
    9.9256  -16.5429   26.4973 C   0  0  2  0  0  0  0  0  0  0  0  0
    9.6030  -15.1705   26.1533 N   0  0  0  0  0  0  0  0  0  0  0  0
    9.9358  -16.7573   27.9618 C   0  0  0  0  0  0  0  0  0  0  0  0
    9.9556  -15.7528   28.7073 O   0  0  0  0  0  0  0  0  0  0  0  0
    9.9251  -18.0098   28.5438 O   0  0  0  0  0  0  0  0  0  0  0  0
  2  1  1  6
  2  3  1  0
  3  4  1  0
  5  2  1  0
  6  5  2  0
  8  7  1  6
  8  9  1  0
  8 10  1  0
 10 11  1  6
 11  5  1  0
 12 10  1  0
 12 22  1  0
 13 12  2  0
 15 16  2  0
 15 14  1  0
 17 15  1  0
 18 17  1  0
 19 18  1  0
 20 19  1  0
 21 20  1  1
 21 22  1  0
 21 23  1  0
 23 25  1  0
 24 23  2  0
M  END
$$$$
