CVR.pdb
     RDKit          3D

 25 24  0  0  1  0  0  0  0  0999 V2000
    6.5121  -14.8871   20.7203 N   0  0  0  0  0  0  0  0  0  0  0  0
    6.0258  -15.1999   22.0433 C   0  0  1  0  0  0  0  0  0  0  0  0
    5.6835  -16.6644   22.1194 C   0  0  0  0  0  0  0  0  0  0  0  0
    5.1762  -17.1572   23.7774 S   0  0  0  0  0  0  0  0  0  0  0  0
    6.9595  -14.7759   23.1061 C   0  0  0  0  0  0  0  0  0  0  0  0
    8.1943  -14.9372   22.8661 O   0  0  0  0  0  0  0  0  0  0  0  0
    6.5035  -11.5414   25.5773 C   0  0  0  0  0  0  0  0  0  0  0  0
    6.9417  -12.8196   26.2043 C   0  0  2  0  0  0  0  0  0  0  0  0
    7.8045  -12.5079   27.4352 C   0  0  0  0  0  0  0  0  0  0  0  0
    7.5961  -13.8073   25.3098 C   0  0  2  0  0  0  0  0  0  0  0  0
    6.5726  -14.2197   24.3336 N   0  0  0  0  0  0  0  0  0  0  0  0
    8.1914  -14.9835   25.9609 C   0  0  0  0  0  0  0  0  0  0  0  0
    7.3855  -15.8437   26.4681 O   0  0  0  0  0  0  0  0  0  0  0  0
   14.0878  -19.7380   22.0711 N   0  0  0  0  0  0  0  0  0  0  0  0
   14.5275  -19.4473   23.3830 C   0  0  0  0  0  0  0  0  0  0  0  0
   15.7862  -19.5291   23.6611 N   0  0  0  0  0  0  0  0  0  0  0  0
   13.6418  -19.0669   24.4201 N   0  0  0  0  0  0  0  0  0  0  0  0
   12.2184  -19.0600   24.2811 C   0  0  0  0  0  0  0  0  0  0  0  0
   11.4734  -18.4774   25.4564 C   0  0  0  0  0  0  0  0  0  0  0  0
   11.0097  -17.0762   25.2660 C   0  0  0  0  0  0  0  0  0  0  0  0
   10.0128  -16.6381   26.3156 C   0  0  2  0  0  0  0  0  0  0  0  0
    9.5616  -15.2773   26.0914 N   0  0  0  0  0  0  0  0  0  0  0  0
   10.5694  -16.8184   27.6752 C   0  0  0  0  0  0  0  0  0  0  0  0
   10.9182  -17.9679   28.0249 O   0  0  0  0  0  0  0  0  0  0  0  0
   10.7216  -15.7813   28.5747 O   0  0  0  0  0  0  0  0  0  0  0  0
  2  1  1  6
  2  3  1  0
  3  4  1  0
  5  2  1  0
  6  5  2  0
  8  7  1  6
  8  9  1  0
  8 10  1  0
 10 11  1  6
 11  5  1  0
 12 10  1  0
 12 22  1  0
 13 12  2  0
 15 16  2  0
 15 14  1  0
 17 15  1  0
 18 17  1  0
 19 18  1  0
 20 19  1  0
 21 20  1  6
 21 22  1  0
 21 23  1  0
 23 25  1  0
 24 23  2  0
M  END
$$$$
