CVR.pdb
     RDKit          3D

 25 24  0  0  1  0  0  0  0  0999 V2000
    7.1978  -15.7650   20.8311 N   0  0  0  0  0  0  0  0  0  0  0  0
    6.7130  -15.8896   22.1854 C   0  0  1  0  0  0  0  0  0  0  0  0
    6.5604  -17.3472   22.5321 C   0  0  0  0  0  0  0  0  0  0  0  0
    6.0142  -17.5861   24.2331 S   0  0  0  0  0  0  0  0  0  0  0  0
    7.5488  -15.1562   23.1571 C   0  0  0  0  0  0  0  0  0  0  0  0
    8.8022  -15.2048   22.9695 O   0  0  0  0  0  0  0  0  0  0  0  0
    8.1025  -11.8272   26.7432 C   0  0  0  0  0  0  0  0  0  0  0  0
    7.3060  -12.6607   25.8000 C   0  0  2  0  0  0  0  0  0  0  0  0
    5.9667  -13.0248   26.4560 C   0  0  0  0  0  0  0  0  0  0  0  0
    7.9839  -13.8543   25.2345 C   0  0  2  0  0  0  0  0  0  0  0  0
    7.0526  -14.4274   24.2473 N   0  0  0  0  0  0  0  0  0  0  0  0
    8.4100  -14.8803   26.1977 C   0  0  0  0  0  0  0  0  0  0  0  0
    7.5399  -15.7580   26.5430 O   0  0  0  0  0  0  0  0  0  0  0  0
   12.1531  -21.6754   24.7103 N   0  0  0  0  0  0  0  0  0  0  0  0
   12.4921  -21.5351   26.0756 C   0  0  0  0  0  0  0  0  0  0  0  0
   13.4340  -22.2665   26.5721 N   0  0  0  0  0  0  0  0  0  0  0  0
   11.8389  -20.6197   26.9359 N   0  0  0  0  0  0  0  0  0  0  0  0
   11.2075  -19.4199   26.4808 C   0  0  0  0  0  0  0  0  0  0  0  0
   11.7675  -18.1500   27.0717 C   0  0  0  0  0  0  0  0  0  0  0  0
   11.2185  -16.8968   26.4862 C   0  0  0  0  0  0  0  0  0  0  0  0
   10.1220  -16.2842   27.3288 C   0  0  2  0  0  0  0  0  0  0  0  0
    9.6799  -15.0113   26.7902 N   0  0  0  0  0  0  0  0  0  0  0  0
   10.5490  -16.1678   28.7412 C   0  0  0  0  0  0  0  0  0  0  0  0
   10.7387  -15.0235   29.2102 O   0  0  0  0  0  0  0  0  0  0  0  0
   10.7481  -17.2587   29.5644 O   0  0  0  0  0  0  0  0  0  0  0  0
  2  1  1  6
  2  3  1  0
  3  4  1  0
  5  2  1  0
  6  5  2  0
  8  7  1  1
  8  9  1  0
  8 10  1  0
 10 11  1  6
 11  5  1  0
 12 10  1  0
 12 22  1  0
 13 12  2  0
 15 16  2  0
 15 14  1  0
 17 15  1  0
 18 17  1  0
 19 18  1  0
 20 19  1  0
 21 20  1  6
 21 22  1  0
 21 23  1  0
 23 25  1  0
 24 23  2  0
M  END
$$$$
