CVR.pdb
     RDKit          3D

 25 24  0  0  1  0  0  0  0  0999 V2000
    8.4675  -12.8337   17.2242 N   0  0  0  0  0  0  0  0  0  0  0  0
    8.3442  -14.0985   17.9095 C   0  0  1  0  0  0  0  0  0  0  0  0
    8.9990  -15.1795   17.0905 C   0  0  0  0  0  0  0  0  0  0  0  0
    8.0434  -15.5874   15.6177 S   0  0  0  0  0  0  0  0  0  0  0  0
    8.8524  -14.0451   19.2950 C   0  0  0  0  0  0  0  0  0  0  0  0
    9.9637  -13.4576   19.4635 O   0  0  0  0  0  0  0  0  0  0  0  0
    6.6157  -14.8447   22.8496 C   0  0  0  0  0  0  0  0  0  0  0  0
    7.8844  -14.0794   22.6960 C   0  0  2  0  0  0  0  0  0  0  0  0
    7.5544  -12.6052   22.4232 C   0  0  0  0  0  0  0  0  0  0  0  0
    8.8670  -14.6129   21.7194 C   0  0  2  0  0  0  0  0  0  0  0  0
    8.1967  -14.5911   20.4076 N   0  0  0  0  0  0  0  0  0  0  0  0
    9.4059  -15.9516   22.0009 C   0  0  0  0  0  0  0  0  0  0  0  0
    9.2290  -16.8550   21.1069 O   0  0  0  0  0  0  0  0  0  0  0  0
   13.6281  -15.9879   17.1327 N   0  0  0  0  0  0  0  0  0  0  0  0
   14.2548  -15.2996   18.1968 C   0  0  0  0  0  0  0  0  0  0  0  0
   14.9490  -14.2402   17.9432 N   0  0  0  0  0  0  0  0  0  0  0  0
   14.1571  -15.7226   19.5444 N   0  0  0  0  0  0  0  0  0  0  0  0
   13.4133  -16.8711   19.9605 C   0  0  0  0  0  0  0  0  0  0  0  0
   12.1538  -16.5610   20.7307 C   0  0  0  0  0  0  0  0  0  0  0  0
   12.3570  -16.3261   22.1861 C   0  0  0  0  0  0  0  0  0  0  0  0
   11.3629  -17.0725   23.0474 C   0  0  2  0  0  0  0  0  0  0  0  0
   10.1035  -16.3593   23.1533 N   0  0  0  0  0  0  0  0  0  0  0  0
   11.9413  -17.3719   24.3766 C   0  0  0  0  0  0  0  0  0  0  0  0
   12.2293  -18.5598   24.6433 O   0  0  0  0  0  0  0  0  0  0  0  0
   12.1774  -16.4055   25.3347 O   0  0  0  0  0  0  0  0  0  0  0  0
  2  1  1  6
  2  3  1  0
  3  4  1  0
  5  2  1  0
  6  5  2  0
  8  7  1  6
  8  9  1  0
  8 10  1  0
 10 11  1  6
 11  5  1  0
 12 10  1  0
 12 22  1  0
 13 12  2  0
 15 16  2  0
 15 14  1  0
 17 15  1  0
 18 17  1  0
 19 18  1  0
 20 19  1  0
 21 20  1  6
 21 22  1  0
 21 23  1  0
 23 25  1  0
 24 23  2  0
M  END
$$$$
