CVR.pdb
     RDKit          3D

 25 24  0  0  1  0  0  0  0  0999 V2000
    8.2902  -17.7545   16.1318 N   0  0  0  0  0  0  0  0  0  0  0  0
    7.4800  -17.3981   17.2724 C   0  0  1  0  0  0  0  0  0  0  0  0
    6.9313  -18.6479   17.9089 C   0  0  0  0  0  0  0  0  0  0  0  0
    5.3524  -19.1378   17.1907 S   0  0  0  0  0  0  0  0  0  0  0  0
    8.1992  -16.5370   18.2327 C   0  0  0  0  0  0  0  0  0  0  0  0
    9.4391  -16.7643   18.3717 O   0  0  0  0  0  0  0  0  0  0  0  0
    8.3868  -12.4069   20.9492 C   0  0  0  0  0  0  0  0  0  0  0  0
    7.7100  -13.4283   20.1022 C   0  0  2  0  0  0  0  0  0  0  0  0
    6.2799  -13.6435   20.6172 C   0  0  0  0  0  0  0  0  0  0  0  0
    8.4264  -14.7150   19.9145 C   0  0  2  0  0  0  0  0  0  0  0  0
    7.6086  -15.5090   18.9811 N   0  0  0  0  0  0  0  0  0  0  0  0
    8.7132  -15.4860   21.1331 C   0  0  0  0  0  0  0  0  0  0  0  0
    7.8391  -16.3512   21.4991 O   0  0  0  0  0  0  0  0  0  0  0  0
   14.3955  -21.5599   21.1670 N   0  0  0  0  0  0  0  0  0  0  0  0
   13.2265  -21.8349   21.9130 C   0  0  0  0  0  0  0  0  0  0  0  0
   12.8365  -23.0586   22.0498 N   0  0  0  0  0  0  0  0  0  0  0  0
   12.4525  -20.8191   22.5245 N   0  0  0  0  0  0  0  0  0  0  0  0
   12.7245  -19.4225   22.3792 C   0  0  0  0  0  0  0  0  0  0  0  0
   11.6966  -18.5122   23.0037 C   0  0  0  0  0  0  0  0  0  0  0  0
   11.2575  -17.3839   22.1383 C   0  0  0  0  0  0  0  0  0  0  0  0
   10.2513  -16.4799   22.8148 C   0  0  2  0  0  0  0  0  0  0  0  0
    9.8524  -15.3824   21.9532 N   0  0  0  0  0  0  0  0  0  0  0  0
   10.7687  -16.0003   24.1160 C   0  0  0  0  0  0  0  0  0  0  0  0
   11.0204  -14.7811   24.2403 O   0  0  0  0  0  0  0  0  0  0  0  0
   10.9869  -16.8318   25.1969 O   0  0  0  0  0  0  0  0  0  0  0  0
  2  1  1  6
  2  3  1  0
  3  4  1  0
  5  2  1  0
  6  5  2  0
  8  7  1  1
  8  9  1  0
  8 10  1  0
 10 11  1  6
 11  5  1  0
 12 10  1  0
 12 22  1  0
 13 12  2  0
 15 16  2  0
 15 14  1  0
 17 15  1  0
 18 17  1  0
 19 18  1  0
 20 19  1  0
 21 20  1  6
 21 22  1  0
 21 23  1  0
 23 25  1  0
 24 23  2  0
M  END
$$$$
