CVR.pdb
     RDKit          3D

 25 24  0  0  1  0  0  0  0  0999 V2000
   13.5738  -16.2170   15.7701 N   0  0  0  0  0  0  0  0  0  0  0  0
   13.7419  -15.9775   17.1839 C   0  0  1  0  0  0  0  0  0  0  0  0
   13.5760  -14.5079   17.4677 C   0  0  0  0  0  0  0  0  0  0  0  0
   13.7702  -14.1291   19.2192 S   0  0  0  0  0  0  0  0  0  0  0  0
   12.8575  -16.8221   18.0117 C   0  0  0  0  0  0  0  0  0  0  0  0
   12.3078  -17.8033   17.4254 O   0  0  0  0  0  0  0  0  0  0  0  0
   11.3685  -19.9406   20.6007 C   0  0  0  0  0  0  0  0  0  0  0  0
   12.1928  -18.8553   19.9993 C   0  0  2  0  0  0  0  0  0  0  0  0
   13.6179  -18.9319   20.5648 C   0  0  0  0  0  0  0  0  0  0  0  0
   11.6412  -17.4795   20.0826 C   0  0  2  0  0  0  0  0  0  0  0  0
   12.5954  -16.6100   19.3726 N   0  0  0  0  0  0  0  0  0  0  0  0
   11.3789  -16.9623   21.4337 C   0  0  0  0  0  0  0  0  0  0  0  0
   12.3971  -16.6990   22.1689 O   0  0  0  0  0  0  0  0  0  0  0  0
    8.5671  -13.6981   18.3777 N   0  0  0  0  0  0  0  0  0  0  0  0
    8.2388  -12.7228   19.3472 C   0  0  0  0  0  0  0  0  0  0  0  0
    7.6860  -11.6178   18.9708 N   0  0  0  0  0  0  0  0  0  0  0  0
    8.4914  -12.9020   20.7288 N   0  0  0  0  0  0  0  0  0  0  0  0
    8.4634  -14.1756   21.3788 C   0  0  0  0  0  0  0  0  0  0  0  0
    8.6042  -14.1202   22.8797 C   0  0  0  0  0  0  0  0  0  0  0  0
    8.6843  -15.4484   23.5461 C   0  0  0  0  0  0  0  0  0  0  0  0
   10.0185  -16.1305   23.3413 C   0  0  2  0  0  0  0  0  0  0  0  0
   10.1222  -16.7190   22.0188 N   0  0  0  0  0  0  0  0  0  0  0  0
   10.2690  -17.1244   24.4091 C   0  0  0  0  0  0  0  0  0  0  0  0
    9.9822  -18.3211   24.1835 O   0  0  0  0  0  0  0  0  0  0  0  0
   10.8022  -16.7953   25.6399 O   0  0  0  0  0  0  0  0  0  0  0  0
  2  1  1  6
  2  3  1  0
  3  4  1  0
  5  2  1  0
  6  5  2  0
  8  7  1  1
  8  9  1  0
  8 10  1  0
 10 11  1  1
 11  5  1  0
 12 10  1  0
 12 22  1  0
 13 12  2  0
 15 16  2  0
 15 14  1  0
 17 15  1  0
 18 17  1  0
 19 18  1  0
 20 19  1  0
 21 20  1  1
 21 22  1  0
 21 23  1  0
 23 25  1  0
 24 23  2  0
M  END
$$$$
