CVR.pdb
     RDKit          3D

 25 24  0  0  1  0  0  0  0  0999 V2000
    4.9146  -18.6551   19.5672 N   0  0  0  0  0  0  0  0  0  0  0  0
    4.7071  -17.3293   20.0999 C   0  0  1  0  0  0  0  0  0  0  0  0
    3.7893  -17.4047   21.2915 C   0  0  0  0  0  0  0  0  0  0  0  0
    4.4311  -18.4967   22.5739 S   0  0  0  0  0  0  0  0  0  0  0  0
    5.9746  -16.6329   20.3988 C   0  0  0  0  0  0  0  0  0  0  0  0
    7.0258  -17.3419   20.3683 O   0  0  0  0  0  0  0  0  0  0  0  0
    7.1683  -13.0692   19.1868 C   0  0  0  0  0  0  0  0  0  0  0  0
    7.3839  -13.2944   20.6434 C   0  0  2  0  0  0  0  0  0  0  0  0
    8.6515  -12.5505   21.0867 C   0  0  0  0  0  0  0  0  0  0  0  0
    7.3853  -14.7059   21.1034 C   0  0  2  0  0  0  0  0  0  0  0  0
    6.0832  -15.2693   20.7063 N   0  0  0  0  0  0  0  0  0  0  0  0
    7.6262  -14.9248   22.5372 C   0  0  0  0  0  0  0  0  0  0  0  0
    6.6080  -14.8788   23.3168 O   0  0  0  0  0  0  0  0  0  0  0  0
    5.6516  -21.9116   24.8333 N   0  0  0  0  0  0  0  0  0  0  0  0
    6.9660  -21.9762   25.3499 C   0  0  0  0  0  0  0  0  0  0  0  0
    7.3215  -23.0028   26.0486 N   0  0  0  0  0  0  0  0  0  0  0  0
    7.9233  -20.9552   25.1356 N   0  0  0  0  0  0  0  0  0  0  0  0
    7.6065  -19.6810   24.5685 C   0  0  0  0  0  0  0  0  0  0  0  0
    8.7753  -18.7343   24.4539 C   0  0  0  0  0  0  0  0  0  0  0  0
    8.5595  -17.5890   23.5284 C   0  0  0  0  0  0  0  0  0  0  0  0
    9.0020  -16.2669   24.1144 C   0  0  2  0  0  0  0  0  0  0  0  0
    8.8620  -15.1835   23.1591 N   0  0  0  0  0  0  0  0  0  0  0  0
   10.3814  -16.3626   24.6425 C   0  0  0  0  0  0  0  0  0  0  0  0
   11.3316  -16.1276   23.8633 O   0  0  0  0  0  0  0  0  0  0  0  0
   10.6697  -16.6986   25.9508 O   0  0  0  0  0  0  0  0  0  0  0  0
  2  1  1  1
  2  3  1  0
  3  4  1  0
  5  2  1  0
  6  5  2  0
  8  7  1  6
  8  9  1  0
  8 10  1  0
 10 11  1  1
 11  5  1  0
 12 10  1  0
 12 22  1  0
 13 12  2  0
 15 16  2  0
 15 14  1  0
 17 15  1  0
 18 17  1  0
 19 18  1  0
 20 19  1  0
 21 20  1  6
 21 22  1  0
 21 23  1  0
 23 25  1  0
 24 23  2  0
M  END
$$$$
