YQW.pdb
     RDKit          3D

 36 38  0  0  1  0  0  0  0  0999 V2000
    4.7589  -23.7712   26.9240 O   0  0  0  0  0  0  0  0  0  0  0  0
    5.3128  -22.7245   26.1913 C   0  0  0  0  0  0  0  0  0  0  0  0
    4.6150  -22.0856   25.1867 C   0  0  0  0  0  0  0  0  0  0  0  0
    5.2071  -21.0548   24.4904 C   0  0  0  0  0  0  0  0  0  0  0  0
    6.4873  -20.6124   24.7437 C   0  0  0  0  0  0  0  0  0  0  0  0
    7.1217  -19.5179   23.9979 C   0  0  0  0  0  0  0  0  0  0  0  0
    7.0813  -19.6634   22.5077 C   0  0  2  0  0  0  0  0  0  0  0  0
    7.6909  -20.9635   22.2052 N   0  0  0  0  0  0  0  0  0  0  0  0
    7.8783  -18.6224   21.8294 C   0  0  0  0  0  0  0  0  0  0  0  0
    9.0331  -18.8771   21.3982 O   0  0  0  0  0  0  0  0  0  0  0  0
    7.1780  -21.2699   25.7631 C   0  0  0  0  0  0  0  0  0  0  0  0
    6.5974  -22.3009   26.4660 C   0  0  0  0  0  0  0  0  0  0  0  0
    6.3568  -13.8632   18.1924 N   0  0  0  0  0  0  0  0  0  0  0  0
    7.6787  -13.5215   18.5686 C   0  0  0  0  0  0  0  0  0  0  0  0
    8.3331  -12.7221   17.8664 O   0  0  0  0  0  0  0  0  0  0  0  0
    8.3017  -14.0887   19.7817 C   0  0  0  0  0  0  0  0  0  0  0  0
    7.4751  -15.0807   20.5074 C   0  0  0  0  0  0  0  0  0  0  0  0
    8.1579  -16.2682   21.0735 C   0  0  2  0  0  0  0  0  0  0  0  0
    7.3707  -17.2990   21.6403 N   0  0  0  0  0  0  0  0  0  0  0  0
    9.1787  -15.8575   22.0869 C   0  0  0  0  0  0  0  0  0  0  0  0
   10.0753  -15.0217   21.8173 O   0  0  0  0  0  0  0  0  0  0  0  0
    9.1446  -16.4140   23.3815 N   0  0  0  0  0  0  0  0  0  0  0  0
    9.9744  -15.8304   24.4283 C   0  0  1  0  0  0  0  0  0  0  0  0
    9.5154  -14.4010   24.5380 C   0  0  0  0  0  0  0  0  0  0  0  0
    8.2172  -14.2854   25.2139 C   0  0  0  0  0  0  0  0  0  0  0  0
    7.2527  -15.3041   25.2915 C   0  0  0  0  0  0  0  0  0  0  0  0
    6.1814  -14.8530   25.9454 N   0  0  0  0  0  0  0  0  0  0  0  0
    6.3591  -13.5726   26.3241 C   0  0  0  0  0  0  0  0  0  0  0  0
    5.5564  -12.6988   27.0257 C   0  0  0  0  0  0  0  0  0  0  0  0
    6.0032  -11.4200   27.3017 C   0  0  0  0  0  0  0  0  0  0  0  0
    7.2611  -11.0740   26.8501 C   0  0  0  0  0  0  0  0  0  0  0  0
    8.0630  -11.9470   26.1485 C   0  0  0  0  0  0  0  0  0  0  0  0
    7.6244  -13.2248   25.8680 C   0  0  0  0  0  0  0  0  0  0  0  0
    9.9452  -16.6129   25.6597 C   0  0  0  0  0  0  0  0  0  0  0  0
   10.7568  -16.3982   26.7525 O   0  0  0  0  0  0  0  0  0  0  0  0
    9.1266  -17.5738   25.7633 O   0  0  0  0  0  0  0  0  0  0  0  0
  2  1  1  0
  3  2  2  0
  4  3  1  0
  5 11  1  0
  5  4  2  0
  6  5  1  0
  7  8  1  1
  7  6  1  0
  9  7  1  0
  9 10  2  0
 11 12  2  0
 12  2  1  0
 14 13  1  0
 15 14  2  0
 16 14  1  0
 16 17  1  0
 18 17  1  1
 18 19  1  0
 18 20  1  0
 19  9  1  0
 20 21  2  0
 20 22  1  0
 22 23  1  0
 23 34  1  0
 24 25  1  0
 23 24  1  1
 25 33  1  0
 25 26  2  0
 26 27  1  0
 28 27  1  0
 28 29  2  0
 30 29  1  0
 31 30  2  0
 32 31  1  0
 32 33  2  0
 33 28  1  0
 34 36  2  0
 34 35  1  0
M  END
$$$$
