YQW.pdb
     RDKit          3D

 36 38  0  0  1  0  0  0  0  0999 V2000
    8.0974  -12.3144   15.7692 O   0  0  0  0  0  0  0  0  0  0  0  0
    7.9861  -13.0526   16.9448 C   0  0  0  0  0  0  0  0  0  0  0  0
    8.3211  -14.3901   17.0028 C   0  0  0  0  0  0  0  0  0  0  0  0
    8.1934  -15.0770   18.1901 C   0  0  0  0  0  0  0  0  0  0  0  0
    7.7394  -14.4934   19.3529 C   0  0  0  0  0  0  0  0  0  0  0  0
    7.5970  -15.2262   20.6175 C   0  0  0  0  0  0  0  0  0  0  0  0
    7.9819  -16.6725   20.5554 C   0  0  2  0  0  0  0  0  0  0  0  0
    6.9531  -17.3370   19.7471 N   0  0  0  0  0  0  0  0  0  0  0  0
    7.9829  -17.3016   21.8908 C   0  0  0  0  0  0  0  0  0  0  0  0
    6.9271  -17.7905   22.3710 O   0  0  0  0  0  0  0  0  0  0  0  0
    7.4055  -13.1402   19.2757 C   0  0  0  0  0  0  0  0  0  0  0  0
    7.5288  -12.4430   18.0956 C   0  0  0  0  0  0  0  0  0  0  0  0
   11.2317  -21.8572   24.0884 N   0  0  0  0  0  0  0  0  0  0  0  0
   11.9420  -20.7312   23.6051 C   0  0  0  0  0  0  0  0  0  0  0  0
   13.1147  -20.8696   23.1978 O   0  0  0  0  0  0  0  0  0  0  0  0
   11.3216  -19.3914   23.5676 C   0  0  0  0  0  0  0  0  0  0  0  0
    9.9151  -19.3371   24.0290 C   0  0  0  0  0  0  0  0  0  0  0  0
    9.2041  -18.0404   23.9290 C   0  0  2  0  0  0  0  0  0  0  0  0
    9.1735  -17.3766   22.6793 N   0  0  0  0  0  0  0  0  0  0  0  0
    9.7178  -17.0762   24.9508 C   0  0  0  0  0  0  0  0  0  0  0  0
   10.0587  -15.9085   24.6419 O   0  0  0  0  0  0  0  0  0  0  0  0
    9.8262  -17.4747   26.2985 N   0  0  0  0  0  0  0  0  0  0  0  0
   10.2706  -16.5057   27.2928 C   0  0  1  0  0  0  0  0  0  0  0  0
    9.0515  -16.2158   28.1267 C   0  0  0  0  0  0  0  0  0  0  0  0
    8.0618  -15.4099   27.4011 C   0  0  0  0  0  0  0  0  0  0  0  0
    6.9498  -15.9229   26.7125 C   0  0  0  0  0  0  0  0  0  0  0  0
    6.2808  -14.9212   26.1398 N   0  0  0  0  0  0  0  0  0  0  0  0
    6.8760  -13.7412   26.3998 C   0  0  0  0  0  0  0  0  0  0  0  0
    6.5539  -12.4483   26.0462 C   0  0  0  0  0  0  0  0  0  0  0  0
    7.3431  -11.3976   26.4754 C   0  0  0  0  0  0  0  0  0  0  0  0
    8.4406  -11.7031   27.2554 C   0  0  0  0  0  0  0  0  0  0  0  0
    8.7629  -12.9951   27.6082 C   0  0  0  0  0  0  0  0  0  0  0  0
    7.9810  -14.0497   27.1833 C   0  0  0  0  0  0  0  0  0  0  0  0
   11.4542  -16.9576   28.0170 C   0  0  0  0  0  0  0  0  0  0  0  0
   12.1902  -16.1855   28.8893 O   0  0  0  0  0  0  0  0  0  0  0  0
   11.8669  -18.1434   27.8500 O   0  0  0  0  0  0  0  0  0  0  0  0
  2  1  1  0
  3  2  2  0
  4  3  1  0
  5 11  1  0
  5  4  2  0
  6  5  1  0
  7  8  1  6
  7  6  1  0
  9  7  1  0
  9 10  2  0
 11 12  2  0
 12  2  1  0
 14 13  1  0
 15 14  2  0
 16 14  1  0
 16 17  1  0
 18 17  1  6
 18 19  1  0
 18 20  1  0
 19  9  1  0
 20 21  2  0
 20 22  1  0
 22 23  1  0
 23 34  1  0
 24 25  1  0
 23 24  1  1
 25 33  1  0
 25 26  2  0
 26 27  1  0
 28 27  1  0
 28 29  2  0
 30 29  1  0
 31 30  2  0
 32 31  1  0
 32 33  2  0
 33 28  1  0
 34 36  2  0
 34 35  1  0
M  END
$$$$
