YQW.pdb
     RDKit          3D

 36 38  0  0  1  0  0  0  0  0999 V2000
    8.6550  -13.3334   15.2510 O   0  0  0  0  0  0  0  0  0  0  0  0
    8.1855  -13.8190   16.4687 C   0  0  0  0  0  0  0  0  0  0  0  0
    8.4907  -13.2063   17.6670 C   0  0  0  0  0  0  0  0  0  0  0  0
    8.0017  -13.7254   18.8456 C   0  0  0  0  0  0  0  0  0  0  0  0
    7.2057  -14.8490   18.9008 C   0  0  0  0  0  0  0  0  0  0  0  0
    6.6891  -15.4069   20.1571 C   0  0  0  0  0  0  0  0  0  0  0  0
    7.6922  -16.1661   20.9701 C   0  0  2  0  0  0  0  0  0  0  0  0
    8.2313  -17.2081   20.0886 N   0  0  0  0  0  0  0  0  0  0  0  0
    7.0710  -16.8337   22.1308 C   0  0  0  0  0  0  0  0  0  0  0  0
    5.9579  -17.4109   22.0196 O   0  0  0  0  0  0  0  0  0  0  0  0
    6.9072  -15.4555   17.6796 C   0  0  0  0  0  0  0  0  0  0  0  0
    7.3896  -14.9464   16.4954 C   0  0  0  0  0  0  0  0  0  0  0  0
    6.1282  -21.7316   23.9000 N   0  0  0  0  0  0  0  0  0  0  0  0
    5.9425  -21.1647   25.1844 C   0  0  0  0  0  0  0  0  0  0  0  0
    5.4870  -21.8691   26.1100 O   0  0  0  0  0  0  0  0  0  0  0  0
    6.2820  -19.7531   25.4560 C   0  0  0  0  0  0  0  0  0  0  0  0
    6.7947  -18.9949   24.2914 C   0  0  0  0  0  0  0  0  0  0  0  0
    7.1780  -17.5788   24.5025 C   0  0  2  0  0  0  0  0  0  0  0  0
    7.7065  -16.8478   23.4117 N   0  0  0  0  0  0  0  0  0  0  0  0
    8.1337  -17.4552   25.6466 C   0  0  0  0  0  0  0  0  0  0  0  0
    7.7557  -17.5789   26.8370 O   0  0  0  0  0  0  0  0  0  0  0  0
    9.4962  -17.1943   25.3968 N   0  0  0  0  0  0  0  0  0  0  0  0
   10.0103  -15.8451   25.5981 C   0  0  1  0  0  0  0  0  0  0  0  0
    9.5720  -15.4641   26.9868 C   0  0  0  0  0  0  0  0  0  0  0  0
    8.2518  -14.8220   26.9953 C   0  0  0  0  0  0  0  0  0  0  0  0
    7.0296  -15.4838   26.7901 C   0  0  0  0  0  0  0  0  0  0  0  0
    6.0327  -14.5987   26.8293 N   0  0  0  0  0  0  0  0  0  0  0  0
    6.5065  -13.3577   27.0525 C   0  0  0  0  0  0  0  0  0  0  0  0
    5.8745  -12.1403   27.1895 C   0  0  0  0  0  0  0  0  0  0  0  0
    6.6163  -11.0011   27.4407 C   0  0  0  0  0  0  0  0  0  0  0  0
    7.9857  -11.1433   27.5443 C   0  0  0  0  0  0  0  0  0  0  0  0
    8.6173  -12.3597   27.4068 C   0  0  0  0  0  0  0  0  0  0  0  0
    7.8845  -13.5015   27.1551 C   0  0  0  0  0  0  0  0  0  0  0  0
   11.4407  -15.7504   25.3250 C   0  0  0  0  0  0  0  0  0  0  0  0
   12.1711  -14.5819   25.3307 O   0  0  0  0  0  0  0  0  0  0  0  0
   12.0900  -16.8033   25.0531 O   0  0  0  0  0  0  0  0  0  0  0  0
  2  1  1  0
  3  2  2  0
  4  3  1  0
  5 11  1  0
  5  4  2  0
  6  5  1  0
  7  8  1  6
  7  6  1  0
  9  7  1  0
  9 10  2  0
 11 12  2  0
 12  2  1  0
 14 13  1  0
 15 14  2  0
 16 14  1  0
 16 17  1  0
 18 17  1  6
 18 19  1  0
 18 20  1  0
 19  9  1  0
 20 21  2  0
 20 22  1  0
 22 23  1  0
 23 34  1  0
 24 25  1  0
 23 24  1  1
 25 33  1  0
 25 26  2  0
 26 27  1  0
 28 27  1  0
 28 29  2  0
 30 29  1  0
 31 30  2  0
 32 31  1  0
 32 33  2  0
 33 28  1  0
 34 36  2  0
 34 35  1  0
M  END
$$$$
