YQW.pdb
     RDKit          3D

 36 38  0  0  1  0  0  0  0  0999 V2000
    8.4348  -12.6425   16.7428 O   0  0  0  0  0  0  0  0  0  0  0  0
    8.1384  -13.2010   17.9835 C   0  0  0  0  0  0  0  0  0  0  0  0
    7.8319  -12.4228   19.0812 C   0  0  0  0  0  0  0  0  0  0  0  0
    7.5456  -13.0231   20.2877 C   0  0  0  0  0  0  0  0  0  0  0  0
    7.5472  -14.3893   20.4684 C   0  0  0  0  0  0  0  0  0  0  0  0
    7.2483  -15.0300   21.7554 C   0  0  0  0  0  0  0  0  0  0  0  0
    7.2629  -16.5277   21.7332 C   0  0  2  0  0  0  0  0  0  0  0  0
    6.0995  -16.9615   22.5153 N   0  0  0  0  0  0  0  0  0  0  0  0
    8.4712  -17.0778   22.3785 C   0  0  0  0  0  0  0  0  0  0  0  0
    8.3750  -17.8649   23.3561 O   0  0  0  0  0  0  0  0  0  0  0  0
    7.8592  -15.1605   19.3475 C   0  0  0  0  0  0  0  0  0  0  0  0
    8.1468  -14.5727   18.1368 C   0  0  0  0  0  0  0  0  0  0  0  0
   13.6029  -15.2862   20.4190 N   0  0  0  0  0  0  0  0  0  0  0  0
   12.7815  -16.0816   19.5833 C   0  0  0  0  0  0  0  0  0  0  0  0
   12.7279  -15.8389   18.3592 O   0  0  0  0  0  0  0  0  0  0  0  0
   11.9867  -17.2003   20.1295 C   0  0  0  0  0  0  0  0  0  0  0  0
   12.1514  -17.4374   21.5823 C   0  0  0  0  0  0  0  0  0  0  0  0
   10.9423  -17.3633   22.4365 C   0  0  2  0  0  0  0  0  0  0  0  0
    9.7823  -16.7384   21.9197 N   0  0  0  0  0  0  0  0  0  0  0  0
   11.2627  -16.7257   23.7512 C   0  0  0  0  0  0  0  0  0  0  0  0
   12.2765  -16.0016   23.9025 O   0  0  0  0  0  0  0  0  0  0  0  0
   10.4131  -16.9337   24.8566 N   0  0  0  0  0  0  0  0  0  0  0  0
   10.8374  -16.4787   26.1749 C   0  0  1  0  0  0  0  0  0  0  0  0
   10.3060  -15.0752   26.2926 C   0  0  0  0  0  0  0  0  0  0  0  0
    8.8388  -15.0389   26.3309 C   0  0  0  0  0  0  0  0  0  0  0  0
    7.9975  -16.1483   26.1430 C   0  0  0  0  0  0  0  0  0  0  0  0
    6.7243  -15.7567   26.2081 N   0  0  0  0  0  0  0  0  0  0  0  0
    6.6449  -14.4309   26.4326 C   0  0  0  0  0  0  0  0  0  0  0  0
    5.5677  -13.5855   26.5914 C   0  0  0  0  0  0  0  0  0  0  0  0
    5.7750  -12.2412   26.8381 C   0  0  0  0  0  0  0  0  0  0  0  0
    7.0816  -11.8022   26.9151 C   0  0  0  0  0  0  0  0  0  0  0  0
    8.1581  -12.6469   26.7557 C   0  0  0  0  0  0  0  0  0  0  0  0
    7.9601  -13.9898   26.5083 C   0  0  0  0  0  0  0  0  0  0  0  0
   10.4489  -17.4056   27.2329 C   0  0  0  0  0  0  0  0  0  0  0  0
    9.7391  -18.5712   27.0417 O   0  0  0  0  0  0  0  0  0  0  0  0
   10.7681  -17.1466   28.4309 O   0  0  0  0  0  0  0  0  0  0  0  0
  2  1  1  0
  3  2  2  0
  4  3  1  0
  5 11  1  0
  5  4  2  0
  6  5  1  0
  7  8  1  1
  7  6  1  0
  9  7  1  0
  9 10  2  0
 11 12  2  0
 12  2  1  0
 14 13  1  0
 15 14  2  0
 16 14  1  0
 16 17  1  0
 18 17  1  6
 18 19  1  0
 18 20  1  0
 19  9  1  0
 20 21  2  0
 20 22  1  0
 22 23  1  0
 23 34  1  0
 24 25  1  0
 23 24  1  1
 25 33  1  0
 25 26  2  0
 26 27  1  0
 28 27  1  0
 28 29  2  0
 30 29  1  0
 31 30  2  0
 32 31  1  0
 32 33  2  0
 33 28  1  0
 34 36  2  0
 34 35  1  0
M  END
$$$$
