YQW.pdb
     RDKit          3D

 36 38  0  0  1  0  0  0  0  0999 V2000
    7.0896  -11.5860   16.9331 O   0  0  0  0  0  0  0  0  0  0  0  0
    7.3626  -12.5137   17.9352 C   0  0  0  0  0  0  0  0  0  0  0  0
    8.3915  -12.3341   18.8372 C   0  0  0  0  0  0  0  0  0  0  0  0
    8.6215  -13.2812   19.8110 C   0  0  0  0  0  0  0  0  0  0  0  0
    7.8662  -14.4264   19.9412 C   0  0  0  0  0  0  0  0  0  0  0  0
    8.1144  -15.4395   20.9748 C   0  0  0  0  0  0  0  0  0  0  0  0
    8.8176  -16.6718   20.4945 C   0  0  2  0  0  0  0  0  0  0  0  0
    7.9704  -17.2443   19.4419 N   0  0  0  0  0  0  0  0  0  0  0  0
    8.9545  -17.6814   21.5627 C   0  0  0  0  0  0  0  0  0  0  0  0
    8.4882  -18.8410   21.4137 O   0  0  0  0  0  0  0  0  0  0  0  0
    6.8300  -14.5913   19.0205 C   0  0  0  0  0  0  0  0  0  0  0  0
    6.5901  -13.6524   18.0433 C   0  0  0  0  0  0  0  0  0  0  0  0
   12.8768  -14.6831   19.8477 N   0  0  0  0  0  0  0  0  0  0  0  0
   13.6879  -15.2336   20.8698 C   0  0  0  0  0  0  0  0  0  0  0  0
   14.9101  -14.9769   20.8933 O   0  0  0  0  0  0  0  0  0  0  0  0
   13.1165  -16.1052   21.9164 C   0  0  0  0  0  0  0  0  0  0  0  0
   11.6477  -16.2849   21.8514 C   0  0  0  0  0  0  0  0  0  0  0  0
   11.0134  -17.1653   22.8613 C   0  0  2  0  0  0  0  0  0  0  0  0
    9.6159  -17.3797   22.7941 N   0  0  0  0  0  0  0  0  0  0  0  0
   11.3431  -16.7043   24.2456 C   0  0  0  0  0  0  0  0  0  0  0  0
   12.5279  -16.5066   24.6093 O   0  0  0  0  0  0  0  0  0  0  0  0
   10.3075  -16.4814   25.1754 N   0  0  0  0  0  0  0  0  0  0  0  0
   10.6485  -16.1523   26.5540 C   0  0  1  0  0  0  0  0  0  0  0  0
   10.1345  -14.7525   26.7593 C   0  0  0  0  0  0  0  0  0  0  0  0
    8.6891  -14.6520   26.5225 C   0  0  0  0  0  0  0  0  0  0  0  0
    7.8410  -15.7328   26.2285 C   0  0  0  0  0  0  0  0  0  0  0  0
    6.5992  -15.2847   26.0389 N   0  0  0  0  0  0  0  0  0  0  0  0
    6.5479  -13.9469   26.1884 C   0  0  0  0  0  0  0  0  0  0  0  0
    5.5047  -13.0495   26.1080 C   0  0  0  0  0  0  0  0  0  0  0  0
    5.7316  -11.7044   26.3318 C   0  0  0  0  0  0  0  0  0  0  0  0
    7.0226  -11.3179   26.6318 C   0  0  0  0  0  0  0  0  0  0  0  0
    8.0653  -12.2146   26.7115 C   0  0  0  0  0  0  0  0  0  0  0  0
    7.8476  -13.5589   26.4887 C   0  0  0  0  0  0  0  0  0  0  0  0
   10.1729  -17.1584   27.4980 C   0  0  0  0  0  0  0  0  0  0  0  0
   10.3872  -17.1297   28.8590 O   0  0  0  0  0  0  0  0  0  0  0  0
    9.5139  -18.1501   27.0661 O   0  0  0  0  0  0  0  0  0  0  0  0
  2  1  1  0
  3  2  2  0
  4  3  1  0
  5 11  1  0
  5  4  2  0
  6  5  1  0
  7  8  1  6
  7  6  1  0
  9  7  1  0
  9 10  2  0
 11 12  2  0
 12  2  1  0
 14 13  1  0
 15 14  2  0
 16 14  1  0
 16 17  1  0
 18 17  1  6
 18 19  1  0
 18 20  1  0
 19  9  1  0
 20 21  2  0
 20 22  1  0
 22 23  1  0
 23 34  1  0
 24 25  1  0
 23 24  1  1
 25 33  1  0
 25 26  2  0
 26 27  1  0
 28 27  1  0
 28 29  2  0
 30 29  1  0
 31 30  2  0
 32 31  1  0
 32 33  2  0
 33 28  1  0
 34 36  2  0
 34 35  1  0
M  END
$$$$
