YQW.pdb
     RDKit          3D

 36 38  0  0  1  0  0  0  0  0999 V2000
    5.9927  -12.5268   17.3762 O   0  0  0  0  0  0  0  0  0  0  0  0
    6.9168  -13.0047   18.3019 C   0  0  0  0  0  0  0  0  0  0  0  0
    6.6565  -14.1045   19.0938 C   0  0  0  0  0  0  0  0  0  0  0  0
    7.6037  -14.5388   19.9951 C   0  0  0  0  0  0  0  0  0  0  0  0
    8.8266  -13.9247   20.1572 C   0  0  0  0  0  0  0  0  0  0  0  0
    9.8343  -14.3830   21.1220 C   0  0  0  0  0  0  0  0  0  0  0  0
   10.2865  -15.7991   20.9375 C   0  0  2  0  0  0  0  0  0  0  0  0
    9.7414  -16.2396   19.6482 N   0  0  0  0  0  0  0  0  0  0  0  0
    9.7488  -16.6912   21.9834 C   0  0  0  0  0  0  0  0  0  0  0  0
    8.9130  -17.5873   21.6955 O   0  0  0  0  0  0  0  0  0  0  0  0
    9.0726  -12.8142   19.3480 C   0  0  0  0  0  0  0  0  0  0  0  0
    8.1346  -12.3707   18.4438 C   0  0  0  0  0  0  0  0  0  0  0  0
   11.6973  -21.4873   23.1704 N   0  0  0  0  0  0  0  0  0  0  0  0
   11.0112  -21.3704   24.4038 C   0  0  0  0  0  0  0  0  0  0  0  0
   10.9193  -22.3639   25.1554 O   0  0  0  0  0  0  0  0  0  0  0  0
   10.4032  -20.0920   24.8251 C   0  0  0  0  0  0  0  0  0  0  0  0
   10.5810  -18.9688   23.8760 C   0  0  0  0  0  0  0  0  0  0  0  0
   10.0410  -17.6440   24.2635 C   0  0  2  0  0  0  0  0  0  0  0  0
   10.1552  -16.5696   23.3490 N   0  0  0  0  0  0  0  0  0  0  0  0
   10.6174  -17.2002   25.5705 C   0  0  0  0  0  0  0  0  0  0  0  0
   11.8524  -17.0387   25.7249 O   0  0  0  0  0  0  0  0  0  0  0  0
    9.7643  -16.9526   26.6649 N   0  0  0  0  0  0  0  0  0  0  0  0
   10.3408  -16.5217   27.9325 C   0  0  1  0  0  0  0  0  0  0  0  0
    9.2815  -15.6639   28.5711 C   0  0  0  0  0  0  0  0  0  0  0  0
    8.2212  -15.2952   27.6247 C   0  0  0  0  0  0  0  0  0  0  0  0
    7.3091  -16.1918   27.0433 C   0  0  0  0  0  0  0  0  0  0  0  0
    6.5065  -15.5303   26.2084 N   0  0  0  0  0  0  0  0  0  0  0  0
    6.8192  -14.2203   26.1853 C   0  0  0  0  0  0  0  0  0  0  0  0
    6.2737  -13.1541   25.5028 C   0  0  0  0  0  0  0  0  0  0  0  0
    6.7858  -11.8828   25.6840 C   0  0  0  0  0  0  0  0  0  0  0  0
    7.8430  -11.7415   26.5605 C   0  0  0  0  0  0  0  0  0  0  0  0
    8.3886  -12.8070   27.2420 C   0  0  0  0  0  0  0  0  0  0  0  0
    7.8840  -14.0793   27.0663 C   0  0  0  0  0  0  0  0  0  0  0  0
   10.8289  -17.6427   28.7291 C   0  0  0  0  0  0  0  0  0  0  0  0
   10.6979  -18.9715   28.3880 O   0  0  0  0  0  0  0  0  0  0  0  0
   11.4182  -17.4124   29.8263 O   0  0  0  0  0  0  0  0  0  0  0  0
  2  1  1  0
  3  2  2  0
  4  3  1  0
  5 11  1  0
  5  4  2  0
  6  5  1  0
  7  8  1  6
  7  6  1  0
  9  7  1  0
  9 10  2  0
 11 12  2  0
 12  2  1  0
 14 13  1  0
 15 14  2  0
 16 14  1  0
 16 17  1  0
 18 17  1  6
 18 19  1  0
 18 20  1  0
 19  9  1  0
 20 21  2  0
 20 22  1  0
 22 23  1  0
 23 34  1  0
 24 25  1  0
 23 24  1  1
 25 33  1  0
 25 26  2  0
 26 27  1  0
 28 27  1  0
 28 29  2  0
 30 29  1  0
 31 30  2  0
 32 31  1  0
 32 33  2  0
 33 28  1  0
 34 36  2  0
 34 35  1  0
M  END
$$$$
