YQW.pdb
     RDKit          3D

 36 38  0  0  1  0  0  0  0  0999 V2000
    7.6172  -12.4761   15.4103 O   0  0  0  0  0  0  0  0  0  0  0  0
    7.7382  -13.0157   16.6883 C   0  0  0  0  0  0  0  0  0  0  0  0
    8.4411  -14.1789   16.9274 C   0  0  0  0  0  0  0  0  0  0  0  0
    8.5319  -14.6727   18.2103 C   0  0  0  0  0  0  0  0  0  0  0  0
    7.9476  -14.0587   19.2968 C   0  0  0  0  0  0  0  0  0  0  0  0
    8.0385  -14.5875   20.6638 C   0  0  0  0  0  0  0  0  0  0  0  0
    8.8695  -15.8255   20.8075 C   0  0  2  0  0  0  0  0  0  0  0  0
    8.4006  -16.7571   19.7752 N   0  0  0  0  0  0  0  0  0  0  0  0
    8.6755  -16.4715   22.1204 C   0  0  0  0  0  0  0  0  0  0  0  0
    8.4199  -15.7835   23.1430 O   0  0  0  0  0  0  0  0  0  0  0  0
    7.2408  -12.8835   19.0364 C   0  0  0  0  0  0  0  0  0  0  0  0
    7.1430  -12.3800   17.7592 C   0  0  0  0  0  0  0  0  0  0  0  0
   10.6208  -22.4100   23.0905 N   0  0  0  0  0  0  0  0  0  0  0  0
   10.9416  -21.7480   24.3007 C   0  0  0  0  0  0  0  0  0  0  0  0
   11.3103  -22.4152   25.2902 O   0  0  0  0  0  0  0  0  0  0  0  0
   10.8539  -20.2782   24.4173 C   0  0  0  0  0  0  0  0  0  0  0  0
   10.3427  -19.5818   23.2142 C   0  0  0  0  0  0  0  0  0  0  0  0
    9.3703  -18.4810   23.4131 C   0  0  2  0  0  0  0  0  0  0  0  0
    8.7706  -17.8899   22.2754 N   0  0  0  0  0  0  0  0  0  0  0  0
    9.9717  -17.3875   24.2379 C   0  0  0  0  0  0  0  0  0  0  0  0
   10.8877  -16.6542   23.7924 O   0  0  0  0  0  0  0  0  0  0  0  0
    9.5075  -17.1627   25.5497 N   0  0  0  0  0  0  0  0  0  0  0  0
   10.4643  -16.8123   26.5921 C   0  0  1  0  0  0  0  0  0  0  0  0
   10.1367  -15.3899   26.9598 C   0  0  0  0  0  0  0  0  0  0  0  0
    8.7270  -15.0633   26.7116 C   0  0  0  0  0  0  0  0  0  0  0  0
    7.6924  -16.0031   26.5694 C   0  0  0  0  0  0  0  0  0  0  0  0
    6.5463  -15.3682   26.3201 N   0  0  0  0  0  0  0  0  0  0  0  0
    6.7386  -14.0354   26.2839 C   0  0  0  0  0  0  0  0  0  0  0  0
    5.8707  -12.9839   26.0810 C   0  0  0  0  0  0  0  0  0  0  0  0
    6.3398  -11.6840   26.1174 C   0  0  0  0  0  0  0  0  0  0  0  0
    7.6861  -11.4998   26.3612 C   0  0  0  0  0  0  0  0  0  0  0  0
    8.5535  -12.5506   26.5634 C   0  0  0  0  0  0  0  0  0  0  0  0
    8.0937  -13.8511   26.5278 C   0  0  0  0  0  0  0  0  0  0  0  0
   10.4686  -17.7764   27.6875 C   0  0  0  0  0  0  0  0  0  0  0  0
   11.3504  -17.7663   28.7465 O   0  0  0  0  0  0  0  0  0  0  0  0
    9.6129  -18.7103   27.6937 O   0  0  0  0  0  0  0  0  0  0  0  0
  2  1  1  0
  3  2  2  0
  4  3  1  0
  5 11  1  0
  5  4  2  0
  6  5  1  0
  7  8  1  6
  7  6  1  0
  9  7  1  0
  9 10  2  0
 11 12  2  0
 12  2  1  0
 14 13  1  0
 15 14  2  0
 16 14  1  0
 16 17  1  0
 18 17  1  6
 18 19  1  0
 18 20  1  0
 19  9  1  0
 20 21  2  0
 20 22  1  0
 22 23  1  0
 23 34  1  0
 24 25  1  0
 23 24  1  1
 25 33  1  0
 25 26  2  0
 26 27  1  0
 28 27  1  0
 28 29  2  0
 30 29  1  0
 31 30  2  0
 32 31  1  0
 32 33  2  0
 33 28  1  0
 34 36  2  0
 34 35  1  0
M  END
$$$$
