YQW.pdb
     RDKit          3D

 36 38  0  0  1  0  0  0  0  0999 V2000
    7.4334  -11.5178   17.2457 O   0  0  0  0  0  0  0  0  0  0  0  0
    7.6226  -12.4157   18.2931 C   0  0  0  0  0  0  0  0  0  0  0  0
    8.8246  -12.5139   18.9639 C   0  0  0  0  0  0  0  0  0  0  0  0
    8.9620  -13.4183   19.9940 C   0  0  0  0  0  0  0  0  0  0  0  0
    7.9447  -14.2522   20.4049 C   0  0  0  0  0  0  0  0  0  0  0  0
    8.0920  -15.2210   21.4986 C   0  0  0  0  0  0  0  0  0  0  0  0
    8.8414  -16.4676   21.1407 C   0  0  2  0  0  0  0  0  0  0  0  0
    7.9598  -17.2369   20.2550 N   0  0  0  0  0  0  0  0  0  0  0  0
    9.1278  -17.2994   22.3260 C   0  0  0  0  0  0  0  0  0  0  0  0
    8.4760  -18.3542   22.5428 O   0  0  0  0  0  0  0  0  0  0  0  0
    6.7363  -14.1391   19.7153 C   0  0  0  0  0  0  0  0  0  0  0  0
    6.5866  -13.2394   18.6847 C   0  0  0  0  0  0  0  0  0  0  0  0
   13.2905  -21.0866   23.5091 N   0  0  0  0  0  0  0  0  0  0  0  0
   12.9981  -20.7134   24.8437 C   0  0  0  0  0  0  0  0  0  0  0  0
   13.6656  -21.1998   25.7808 O   0  0  0  0  0  0  0  0  0  0  0  0
   11.9191  -19.7534   25.1527 C   0  0  0  0  0  0  0  0  0  0  0  0
   11.6116  -18.7855   24.0745 C   0  0  0  0  0  0  0  0  0  0  0  0
   10.5328  -17.7986   24.3181 C   0  0  2  0  0  0  0  0  0  0  0  0
   10.1470  -16.9388   23.2620 N   0  0  0  0  0  0  0  0  0  0  0  0
   10.8509  -16.9516   25.5093 C   0  0  0  0  0  0  0  0  0  0  0  0
   11.6904  -16.0206   25.4504 O   0  0  0  0  0  0  0  0  0  0  0  0
   10.1984  -17.1929   26.7352 N   0  0  0  0  0  0  0  0  0  0  0  0
   10.5068  -16.3488   27.8830 C   0  0  1  0  0  0  0  0  0  0  0  0
    9.1770  -16.0709   28.5312 C   0  0  0  0  0  0  0  0  0  0  0  0
    8.1714  -15.6178   27.5623 C   0  0  0  0  0  0  0  0  0  0  0  0
    7.2465  -16.4492   26.9085 C   0  0  0  0  0  0  0  0  0  0  0  0
    6.5058  -15.7195   26.0732 N   0  0  0  0  0  0  0  0  0  0  0  0
    6.8734  -14.4244   26.1185 C   0  0  0  0  0  0  0  0  0  0  0  0
    6.4003  -13.3082   25.4625 C   0  0  0  0  0  0  0  0  0  0  0  0
    6.9572  -12.0689   25.7176 C   0  0  0  0  0  0  0  0  0  0  0  0
    7.9838  -12.0099   26.6388 C   0  0  0  0  0  0  0  0  0  0  0  0
    8.4571  -13.1255   27.2939 C   0  0  0  0  0  0  0  0  0  0  0  0
    7.9074  -14.3663   27.0445 C   0  0  0  0  0  0  0  0  0  0  0  0
   11.5325  -16.9329   28.7411 C   0  0  0  0  0  0  0  0  0  0  0  0
   12.1559  -18.1414   28.5180 O   0  0  0  0  0  0  0  0  0  0  0  0
   11.8974  -16.3100   29.7818 O   0  0  0  0  0  0  0  0  0  0  0  0
  2  1  1  0
  3  2  2  0
  4  3  1  0
  5 11  1  0
  5  4  2  0
  6  5  1  0
  7  8  1  6
  7  6  1  0
  9  7  1  0
  9 10  2  0
 11 12  2  0
 12  2  1  0
 14 13  1  0
 15 14  2  0
 16 14  1  0
 16 17  1  0
 18 17  1  6
 18 19  1  0
 18 20  1  0
 19  9  1  0
 20 21  2  0
 20 22  1  0
 22 23  1  0
 23 34  1  0
 24 25  1  0
 23 24  1  1
 25 33  1  0
 25 26  2  0
 26 27  1  0
 28 27  1  0
 28 29  2  0
 30 29  1  0
 31 30  2  0
 32 31  1  0
 32 33  2  0
 33 28  1  0
 34 36  2  0
 34 35  1  0
M  END
$$$$
