YQW.pdb
     RDKit          3D

 36 38  0  0  1  0  0  0  0  0999 V2000
    6.9473  -11.5167   17.4284 O   0  0  0  0  0  0  0  0  0  0  0  0
    7.1531  -12.5262   18.3653 C   0  0  0  0  0  0  0  0  0  0  0  0
    6.3071  -13.6116   18.4684 C   0  0  0  0  0  0  0  0  0  0  0  0
    6.5535  -14.5846   19.4121 C   0  0  0  0  0  0  0  0  0  0  0  0
    7.6216  -14.5374   20.2815 C   0  0  0  0  0  0  0  0  0  0  0  0
    7.8816  -15.5708   21.2919 C   0  0  0  0  0  0  0  0  0  0  0  0
    8.8463  -16.6365   20.8707 C   0  0  2  0  0  0  0  0  0  0  0  0
    8.2306  -17.3191   19.7269 N   0  0  0  0  0  0  0  0  0  0  0  0
    9.0601  -17.6390   21.9330 C   0  0  0  0  0  0  0  0  0  0  0  0
    8.8847  -18.8642   21.7041 O   0  0  0  0  0  0  0  0  0  0  0  0
    8.4667  -13.4327   20.1628 C   0  0  0  0  0  0  0  0  0  0  0  0
    8.2313  -12.4542   19.2241 C   0  0  0  0  0  0  0  0  0  0  0  0
   14.9569  -15.5406   22.4443 N   0  0  0  0  0  0  0  0  0  0  0  0
   13.6335  -15.6137   21.9452 C   0  0  0  0  0  0  0  0  0  0  0  0
   13.4290  -15.4941   20.7188 O   0  0  0  0  0  0  0  0  0  0  0  0
   12.4848  -15.8340   22.8472 C   0  0  0  0  0  0  0  0  0  0  0  0
   11.9278  -17.2064   22.8313 C   0  0  0  0  0  0  0  0  0  0  0  0
   10.7813  -17.4978   23.7244 C   0  0  2  0  0  0  0  0  0  0  0  0
    9.4704  -17.2563   23.2483 N   0  0  0  0  0  0  0  0  0  0  0  0
   10.9355  -16.7864   25.0312 C   0  0  0  0  0  0  0  0  0  0  0  0
   11.9399  -16.0762   25.2800 O   0  0  0  0  0  0  0  0  0  0  0  0
    9.9353  -16.9067   26.0171 N   0  0  0  0  0  0  0  0  0  0  0  0
   10.1798  -16.3641   27.3478 C   0  0  1  0  0  0  0  0  0  0  0  0
    8.8260  -15.9398   27.8506 C   0  0  0  0  0  0  0  0  0  0  0  0
    7.9774  -15.4074   26.7774 C   0  0  0  0  0  0  0  0  0  0  0  0
    7.1417  -16.1768   25.9506 C   0  0  0  0  0  0  0  0  0  0  0  0
    6.5408  -15.3826   25.0635 N   0  0  0  0  0  0  0  0  0  0  0  0
    6.9200  -14.1018   25.2376 C   0  0  0  0  0  0  0  0  0  0  0  0
    6.5648  -12.9387   24.5887 C   0  0  0  0  0  0  0  0  0  0  0  0
    7.1003  -11.7303   24.9936 C   0  0  0  0  0  0  0  0  0  0  0  0
    7.9853  -11.7495   26.0532 C   0  0  0  0  0  0  0  0  0  0  0  0
    8.3408  -12.9119   26.7012 C   0  0  0  0  0  0  0  0  0  0  0  0
    7.8116  -14.1223   26.3028 C   0  0  0  0  0  0  0  0  0  0  0  0
   10.9213  -17.2909   28.1968 C   0  0  0  0  0  0  0  0  0  0  0  0
   11.2943  -18.5676   27.8365 O   0  0  0  0  0  0  0  0  0  0  0  0
   11.2590  -16.9278   29.3623 O   0  0  0  0  0  0  0  0  0  0  0  0
  2  1  1  0
  3  2  2  0
  4  3  1  0
  5 11  1  0
  5  4  2  0
  6  5  1  0
  7  8  1  6
  7  6  1  0
  9  7  1  0
  9 10  2  0
 11 12  2  0
 12  2  1  0
 14 13  1  0
 15 14  2  0
 16 14  1  0
 16 17  1  0
 18 17  1  6
 18 19  1  0
 18 20  1  0
 19  9  1  0
 20 21  2  0
 20 22  1  0
 22 23  1  0
 23 34  1  0
 24 25  1  0
 23 24  1  1
 25 33  1  0
 25 26  2  0
 26 27  1  0
 28 27  1  0
 28 29  2  0
 30 29  1  0
 31 30  2  0
 32 31  1  0
 32 33  2  0
 33 28  1  0
 34 36  2  0
 34 35  1  0
M  END
$$$$
