YQW.pdb
     RDKit          3D

 36 38  0  0  1  0  0  0  0  0999 V2000
    7.3149  -11.4634   17.3086 O   0  0  0  0  0  0  0  0  0  0  0  0
    7.5895  -12.4215   18.2811 C   0  0  0  0  0  0  0  0  0  0  0  0
    8.8540  -12.5869   18.8082 C   0  0  0  0  0  0  0  0  0  0  0  0
    9.0749  -13.5492   19.7691 C   0  0  0  0  0  0  0  0  0  0  0  0
    8.0831  -14.3778   20.2472 C   0  0  0  0  0  0  0  0  0  0  0  0
    8.3188  -15.4081   21.2667 C   0  0  0  0  0  0  0  0  0  0  0  0
    8.9781  -16.6551   20.7629 C   0  0  2  0  0  0  0  0  0  0  0  0
    8.0167  -17.2896   19.8538 N   0  0  0  0  0  0  0  0  0  0  0  0
    9.2644  -17.6077   21.8536 C   0  0  0  0  0  0  0  0  0  0  0  0
    8.3965  -18.4416   22.2220 O   0  0  0  0  0  0  0  0  0  0  0  0
    6.8105  -14.1964   19.7029 C   0  0  0  0  0  0  0  0  0  0  0  0
    6.5771  -13.2384   18.7427 C   0  0  0  0  0  0  0  0  0  0  0  0
   13.7658  -21.6006   23.3283 N   0  0  0  0  0  0  0  0  0  0  0  0
   14.1000  -20.3027   22.8707 C   0  0  0  0  0  0  0  0  0  0  0  0
   15.2430  -20.0836   22.4171 O   0  0  0  0  0  0  0  0  0  0  0  0
   13.1201  -19.1984   22.9137 C   0  0  0  0  0  0  0  0  0  0  0  0
   11.7853  -19.5631   23.4423 C   0  0  0  0  0  0  0  0  0  0  0  0
   10.7902  -18.4783   23.6158 C   0  0  2  0  0  0  0  0  0  0  0  0
   10.5272  -17.6163   22.5244 N   0  0  0  0  0  0  0  0  0  0  0  0
   11.1332  -17.6314   24.8001 C   0  0  0  0  0  0  0  0  0  0  0  0
   12.2599  -17.0916   24.9198 O   0  0  0  0  0  0  0  0  0  0  0  0
   10.1767  -17.4247   25.8146 N   0  0  0  0  0  0  0  0  0  0  0  0
   10.5774  -16.7484   27.0423 C   0  0  1  0  0  0  0  0  0  0  0  0
   10.3779  -15.2828   26.7630 C   0  0  0  0  0  0  0  0  0  0  0  0
    8.9610  -14.9384   26.5923 C   0  0  0  0  0  0  0  0  0  0  0  0
    7.9378  -15.8522   26.2889 C   0  0  0  0  0  0  0  0  0  0  0  0
    6.7801  -15.2004   26.1715 N   0  0  0  0  0  0  0  0  0  0  0  0
    6.9535  -13.8809   26.3797 C   0  0  0  0  0  0  0  0  0  0  0  0
    6.0688  -12.8238   26.3820 C   0  0  0  0  0  0  0  0  0  0  0  0
    6.5203  -11.5456   26.6530 C   0  0  0  0  0  0  0  0  0  0  0  0
    7.8668  -11.3881   26.9141 C   0  0  0  0  0  0  0  0  0  0  0  0
    8.7510  -12.4444   26.9111 C   0  0  0  0  0  0  0  0  0  0  0  0
    8.3088  -13.7232   26.6408 C   0  0  0  0  0  0  0  0  0  0  0  0
    9.8929  -17.2796   28.2166 C   0  0  0  0  0  0  0  0  0  0  0  0
   10.1254  -16.8811   29.5151 O   0  0  0  0  0  0  0  0  0  0  0  0
    9.0159  -18.1810   28.0669 O   0  0  0  0  0  0  0  0  0  0  0  0
  2  1  1  0
  3  2  2  0
  4  3  1  0
  5 11  1  0
  5  4  2  0
  6  5  1  0
  7  8  1  6
  7  6  1  0
  9  7  1  0
  9 10  2  0
 11 12  2  0
 12  2  1  0
 14 13  1  0
 15 14  2  0
 16 14  1  0
 16 17  1  0
 18 17  1  6
 18 19  1  0
 18 20  1  0
 19  9  1  0
 20 21  2  0
 20 22  1  0
 22 23  1  0
 23 34  1  0
 24 25  1  0
 23 24  1  6
 25 33  1  0
 25 26  2  0
 26 27  1  0
 28 27  1  0
 28 29  2  0
 30 29  1  0
 31 30  2  0
 32 31  1  0
 32 33  2  0
 33 28  1  0
 34 36  2  0
 34 35  1  0
M  END
$$$$
