YQW.pdb
     RDKit          3D

 36 38  0  0  1  0  0  0  0  0999 V2000
    8.5002  -12.3733   16.5038 O   0  0  0  0  0  0  0  0  0  0  0  0
    8.1945  -13.0807   17.6636 C   0  0  0  0  0  0  0  0  0  0  0  0
    7.8122  -12.4461   18.8279 C   0  0  0  0  0  0  0  0  0  0  0  0
    7.5200  -13.1908   19.9495 C   0  0  0  0  0  0  0  0  0  0  0  0
    7.5886  -14.5667   19.9789 C   0  0  0  0  0  0  0  0  0  0  0  0
    7.2833  -15.3611   21.1757 C   0  0  0  0  0  0  0  0  0  0  0  0
    7.3774  -16.8444   20.9894 C   0  0  2  0  0  0  0  0  0  0  0  0
    5.9993  -17.3293   20.8509 N   0  0  0  0  0  0  0  0  0  0  0  0
    7.9749  -17.5116   22.1627 C   0  0  0  0  0  0  0  0  0  0  0  0
    7.2676  -17.8124   23.1596 O   0  0  0  0  0  0  0  0  0  0  0  0
    7.9768  -15.1917   18.7926 C   0  0  0  0  0  0  0  0  0  0  0  0
    8.2712  -14.4588   17.6655 C   0  0  0  0  0  0  0  0  0  0  0  0
   13.0065  -20.8536   21.6549 N   0  0  0  0  0  0  0  0  0  0  0  0
   11.6727  -21.3155   21.5388 C   0  0  0  0  0  0  0  0  0  0  0  0
   11.4155  -22.2743   20.7807 O   0  0  0  0  0  0  0  0  0  0  0  0
   10.5747  -20.6882   22.3020 C   0  0  0  0  0  0  0  0  0  0  0  0
   10.9670  -19.5170   23.1196 C   0  0  0  0  0  0  0  0  0  0  0  0
    9.9557  -18.4551   23.3365 C   0  0  2  0  0  0  0  0  0  0  0  0
    9.3667  -17.8368   22.2077 N   0  0  0  0  0  0  0  0  0  0  0  0
   10.5016  -17.3783   24.2197 C   0  0  0  0  0  0  0  0  0  0  0  0
   11.2480  -16.4743   23.7718 O   0  0  0  0  0  0  0  0  0  0  0  0
   10.1771  -17.3653   25.5914 N   0  0  0  0  0  0  0  0  0  0  0  0
   10.7019  -16.2993   26.4359 C   0  0  1  0  0  0  0  0  0  0  0  0
   10.1854  -15.0256   25.8222 C   0  0  0  0  0  0  0  0  0  0  0  0
    8.7295  -14.8945   25.9588 C   0  0  0  0  0  0  0  0  0  0  0  0
    7.8021  -15.9305   25.7572 C   0  0  0  0  0  0  0  0  0  0  0  0
    6.5660  -15.4605   25.9300 N   0  0  0  0  0  0  0  0  0  0  0  0
    6.5942  -14.1504   26.2419 C   0  0  0  0  0  0  0  0  0  0  0  0
    5.5911  -13.2479   26.5235 C   0  0  0  0  0  0  0  0  0  0  0  0
    5.9073  -11.9398   26.8399 C   0  0  0  0  0  0  0  0  0  0  0  0
    7.2439  -11.5947   26.8585 C   0  0  0  0  0  0  0  0  0  0  0  0
    8.2464  -12.4965   26.5764 C   0  0  0  0  0  0  0  0  0  0  0  0
    7.9394  -13.8037   26.2588 C   0  0  0  0  0  0  0  0  0  0  0  0
   10.3923  -16.5066   27.8468 C   0  0  0  0  0  0  0  0  0  0  0  0
   10.8981  -17.5243   28.6262 O   0  0  0  0  0  0  0  0  0  0  0  0
    9.5971  -15.7114   28.4295 O   0  0  0  0  0  0  0  0  0  0  0  0
  2  1  1  0
  3  2  2  0
  4  3  1  0
  5 11  1  0
  5  4  2  0
  6  5  1  0
  7  8  1  1
  7  6  1  0
  9  7  1  0
  9 10  2  0
 11 12  2  0
 12  2  1  0
 14 13  1  0
 15 14  2  0
 16 14  1  0
 16 17  1  0
 18 17  1  6
 18 19  1  0
 18 20  1  0
 19  9  1  0
 20 21  2  0
 20 22  1  0
 22 23  1  0
 23 34  1  0
 24 25  1  0
 23 24  1  6
 25 33  1  0
 25 26  2  0
 26 27  1  0
 28 27  1  0
 28 29  2  0
 30 29  1  0
 31 30  2  0
 32 31  1  0
 32 33  2  0
 33 28  1  0
 34 36  2  0
 34 35  1  0
M  END
$$$$
