YQW.pdb
     RDKit          3D

 36 38  0  0  1  0  0  0  0  0999 V2000
    7.2955  -11.7247   16.8902 O   0  0  0  0  0  0  0  0  0  0  0  0
    7.5665  -12.5998   17.9389 C   0  0  0  0  0  0  0  0  0  0  0  0
    6.6067  -13.4510   18.4475 C   0  0  0  0  0  0  0  0  0  0  0  0
    6.9242  -14.2986   19.4862 C   0  0  0  0  0  0  0  0  0  0  0  0
    8.1750  -14.3482   20.0624 C   0  0  0  0  0  0  0  0  0  0  0  0
    8.5128  -15.2467   21.1736 C   0  0  0  0  0  0  0  0  0  0  0  0
    9.3753  -16.4136   20.8018 C   0  0  2  0  0  0  0  0  0  0  0  0
    8.5764  -17.2411   19.8906 N   0  0  0  0  0  0  0  0  0  0  0  0
    9.7224  -17.2397   21.9748 C   0  0  0  0  0  0  0  0  0  0  0  0
    8.9530  -18.1564   22.3648 O   0  0  0  0  0  0  0  0  0  0  0  0
    9.1331  -13.4805   19.5353 C   0  0  0  0  0  0  0  0  0  0  0  0
    8.8282  -12.6292   18.4978 C   0  0  0  0  0  0  0  0  0  0  0  0
   13.2250  -21.4146   23.3025 N   0  0  0  0  0  0  0  0  0  0  0  0
   13.2653  -20.5606   22.1734 C   0  0  0  0  0  0  0  0  0  0  0  0
   13.5722  -21.0283   21.0565 O   0  0  0  0  0  0  0  0  0  0  0  0
   12.9462  -19.1231   22.2874 C   0  0  0  0  0  0  0  0  0  0  0  0
   12.5580  -18.6713   23.6435 C   0  0  0  0  0  0  0  0  0  0  0  0
   11.3195  -17.8679   23.7766 C   0  0  2  0  0  0  0  0  0  0  0  0
   10.9348  -17.0292   22.7033 N   0  0  0  0  0  0  0  0  0  0  0  0
   11.3600  -17.0367   25.0196 C   0  0  0  0  0  0  0  0  0  0  0  0
   12.0839  -16.0151   25.1056 O   0  0  0  0  0  0  0  0  0  0  0  0
   10.5700  -17.3971   26.1299 N   0  0  0  0  0  0  0  0  0  0  0  0
   10.7571  -16.6949   27.3936 C   0  0  1  0  0  0  0  0  0  0  0  0
   10.3861  -15.2652   27.1038 C   0  0  0  0  0  0  0  0  0  0  0  0
    8.9338  -15.0522   27.1322 C   0  0  0  0  0  0  0  0  0  0  0  0
    7.9665  -16.0443   26.8993 C   0  0  0  0  0  0  0  0  0  0  0  0
    6.7494  -15.5033   26.9683 N   0  0  0  0  0  0  0  0  0  0  0  0
    6.8286  -14.1860   27.2382 C   0  0  0  0  0  0  0  0  0  0  0  0
    5.8599  -13.2219   27.4181 C   0  0  0  0  0  0  0  0  0  0  0  0
    6.2256  -11.9217   27.7131 C   0  0  0  0  0  0  0  0  0  0  0  0
    7.5748  -11.6476   27.8153 C   0  0  0  0  0  0  0  0  0  0  0  0
    8.5428  -12.6109   27.6349 C   0  0  0  0  0  0  0  0  0  0  0  0
    8.1865  -13.9108   27.3393 C   0  0  0  0  0  0  0  0  0  0  0  0
   10.0445  -17.3352   28.4944 C   0  0  0  0  0  0  0  0  0  0  0  0
    9.2066  -18.4219   28.3682 O   0  0  0  0  0  0  0  0  0  0  0  0
   10.1801  -16.8791   29.6682 O   0  0  0  0  0  0  0  0  0  0  0  0
  2  1  1  0
  3  2  2  0
  4  3  1  0
  5 11  1  0
  5  4  2  0
  6  5  1  0
  7  8  1  6
  7  6  1  0
  9  7  1  0
  9 10  2  0
 11 12  2  0
 12  2  1  0
 14 13  1  0
 15 14  2  0
 16 14  1  0
 16 17  1  0
 18 17  1  6
 18 19  1  0
 18 20  1  0
 19  9  1  0
 20 21  2  0
 20 22  1  0
 22 23  1  0
 23 34  1  0
 24 25  1  0
 23 24  1  6
 25 33  1  0
 25 26  2  0
 26 27  1  0
 28 27  1  0
 28 29  2  0
 30 29  1  0
 31 30  2  0
 32 31  1  0
 32 33  2  0
 33 28  1  0
 34 36  2  0
 34 35  1  0
M  END
$$$$
