YQW.pdb
     RDKit          3D

 36 38  0  0  1  0  0  0  0  0999 V2000
    7.5629  -12.0984   16.6782 O   0  0  0  0  0  0  0  0  0  0  0  0
    7.7764  -12.8575   17.8260 C   0  0  0  0  0  0  0  0  0  0  0  0
    8.9950  -13.4454   18.0976 C   0  0  0  0  0  0  0  0  0  0  0  0
    9.1563  -14.1872   19.2472 C   0  0  0  0  0  0  0  0  0  0  0  0
    8.1475  -14.3822   20.1655 C   0  0  0  0  0  0  0  0  0  0  0  0
    8.3165  -15.1779   21.3881 C   0  0  0  0  0  0  0  0  0  0  0  0
    8.8059  -16.5764   21.1682 C   0  0  2  0  0  0  0  0  0  0  0  0
    7.6938  -17.3086   20.5514 N   0  0  0  0  0  0  0  0  0  0  0  0
    9.1411  -17.2504   22.4380 C   0  0  0  0  0  0  0  0  0  0  0  0
    8.2641  -17.8879   23.0774 O   0  0  0  0  0  0  0  0  0  0  0  0
    6.9221  -13.7803   19.8746 C   0  0  0  0  0  0  0  0  0  0  0  0
    6.7485  -13.0367   18.7296 C   0  0  0  0  0  0  0  0  0  0  0  0
   12.6225  -21.9516   25.4874 N   0  0  0  0  0  0  0  0  0  0  0  0
   13.1864  -20.7103   25.1039 C   0  0  0  0  0  0  0  0  0  0  0  0
   14.3032  -20.6863   24.5448 O   0  0  0  0  0  0  0  0  0  0  0  0
   12.4772  -19.4379   25.3474 C   0  0  0  0  0  0  0  0  0  0  0  0
   12.1119  -18.6790   24.1290 C   0  0  0  0  0  0  0  0  0  0  0  0
   10.8264  -17.9410   24.1333 C   0  0  2  0  0  0  0  0  0  0  0  0
   10.4627  -17.2027   22.9818 N   0  0  0  0  0  0  0  0  0  0  0  0
   10.7475  -17.0244   25.3127 C   0  0  0  0  0  0  0  0  0  0  0  0
   11.4287  -15.9722   25.3760 O   0  0  0  0  0  0  0  0  0  0  0  0
    9.8902  -17.3367   26.3871 N   0  0  0  0  0  0  0  0  0  0  0  0
    9.9824  -16.5621   27.6186 C   0  0  1  0  0  0  0  0  0  0  0  0
    8.5561  -16.3069   28.0264 C   0  0  0  0  0  0  0  0  0  0  0  0
    7.8489  -15.4515   27.0653 C   0  0  0  0  0  0  0  0  0  0  0  0
    6.9886  -15.9113   26.0542 C   0  0  0  0  0  0  0  0  0  0  0  0
    6.5443  -14.8743   25.3429 N   0  0  0  0  0  0  0  0  0  0  0  0
    7.0552  -13.7203   25.8139 C   0  0  0  0  0  0  0  0  0  0  0  0
    6.8804  -12.4088   25.4269 C   0  0  0  0  0  0  0  0  0  0  0  0
    7.5223  -11.3946   26.1129 C   0  0  0  0  0  0  0  0  0  0  0  0
    8.3253  -11.7548   27.1767 C   0  0  0  0  0  0  0  0  0  0  0  0
    8.5004  -13.0654   27.5630 C   0  0  0  0  0  0  0  0  0  0  0  0
    7.8642  -14.0838   26.8832 C   0  0  0  0  0  0  0  0  0  0  0  0
   10.8325  -17.2049   28.6155 C   0  0  0  0  0  0  0  0  0  0  0  0
   11.4924  -18.4016   28.4386 O   0  0  0  0  0  0  0  0  0  0  0  0
   10.9935  -16.6497   29.7424 O   0  0  0  0  0  0  0  0  0  0  0  0
  2  1  1  0
  3  2  2  0
  4  3  1  0
  5 11  1  0
  5  4  2  0
  6  5  1  0
  7  8  1  1
  7  6  1  0
  9  7  1  0
  9 10  2  0
 11 12  2  0
 12  2  1  0
 14 13  1  0
 15 14  2  0
 16 14  1  0
 16 17  1  0
 18 17  1  6
 18 19  1  0
 18 20  1  0
 19  9  1  0
 20 21  2  0
 20 22  1  0
 22 23  1  0
 23 34  1  0
 24 25  1  0
 23 24  1  1
 25 33  1  0
 25 26  2  0
 26 27  1  0
 28 27  1  0
 28 29  2  0
 30 29  1  0
 31 30  2  0
 32 31  1  0
 32 33  2  0
 33 28  1  0
 34 36  2  0
 34 35  1  0
M  END
$$$$
