YQW.pdb
     RDKit          3D

 36 38  0  0  1  0  0  0  0  0999 V2000
   10.2588  -23.7073   21.2609 O   0  0  0  0  0  0  0  0  0  0  0  0
    9.3757  -22.6334   21.3378 C   0  0  0  0  0  0  0  0  0  0  0  0
    8.2293  -22.5731   20.5721 C   0  0  0  0  0  0  0  0  0  0  0  0
    7.3869  -21.4888   20.6845 C   0  0  0  0  0  0  0  0  0  0  0  0
    7.6271  -20.4337   21.5377 C   0  0  0  0  0  0  0  0  0  0  0  0
    6.7332  -19.2744   21.6537 C   0  0  0  0  0  0  0  0  0  0  0  0
    6.6185  -18.4396   20.4153 C   0  0  2  0  0  0  0  0  0  0  0  0
    6.8090  -19.3546   19.2840 N   0  0  0  0  0  0  0  0  0  0  0  0
    7.6726  -17.4087   20.3446 C   0  0  0  0  0  0  0  0  0  0  0  0
    8.7562  -17.6384   19.7467 O   0  0  0  0  0  0  0  0  0  0  0  0
    8.7910  -20.5115   22.3044 C   0  0  0  0  0  0  0  0  0  0  0  0
    9.6404  -21.5895   22.2012 C   0  0  0  0  0  0  0  0  0  0  0  0
    9.7397  -13.5598   18.2670 N   0  0  0  0  0  0  0  0  0  0  0  0
    8.3386  -13.4313   18.1056 C   0  0  0  0  0  0  0  0  0  0  0  0
    7.8596  -13.2904   16.9606 O   0  0  0  0  0  0  0  0  0  0  0  0
    7.4266  -13.4653   19.2669 C   0  0  0  0  0  0  0  0  0  0  0  0
    8.0788  -13.7281   20.5706 C   0  0  0  0  0  0  0  0  0  0  0  0
    8.4952  -15.1193   20.8675 C   0  0  2  0  0  0  0  0  0  0  0  0
    7.5012  -16.1237   20.9481 N   0  0  0  0  0  0  0  0  0  0  0  0
    9.3062  -15.1713   22.1234 C   0  0  0  0  0  0  0  0  0  0  0  0
   10.3730  -14.5218   22.2460 O   0  0  0  0  0  0  0  0  0  0  0  0
    8.8731  -15.9646   23.2050 N   0  0  0  0  0  0  0  0  0  0  0  0
    9.7455  -16.1273   24.3616 C   0  0  1  0  0  0  0  0  0  0  0  0
    9.7162  -14.7954   25.0623 C   0  0  0  0  0  0  0  0  0  0  0  0
    8.3717  -14.4490   25.5395 C   0  0  0  0  0  0  0  0  0  0  0  0
    7.2677  -15.3180   25.5470 C   0  0  0  0  0  0  0  0  0  0  0  0
    6.1973  -14.6728   26.0125 N   0  0  0  0  0  0  0  0  0  0  0  0
    6.5081  -13.4005   26.3277 C   0  0  0  0  0  0  0  0  0  0  0  0
    5.7563  -12.3702   26.8504 C   0  0  0  0  0  0  0  0  0  0  0  0
    6.3442  -11.1446   27.1022 C   0  0  0  0  0  0  0  0  0  0  0  0
    7.6870  -11.0109   26.8107 C   0  0  0  0  0  0  0  0  0  0  0  0
    8.4382  -12.0404   26.2877 C   0  0  0  0  0  0  0  0  0  0  0  0
    7.8590  -13.2665   26.0326 C   0  0  0  0  0  0  0  0  0  0  0  0
    9.3852  -17.2883   25.1689 C   0  0  0  0  0  0  0  0  0  0  0  0
    8.3599  -18.1633   24.8823 O   0  0  0  0  0  0  0  0  0  0  0  0
   10.0414  -17.5369   26.2233 O   0  0  0  0  0  0  0  0  0  0  0  0
  2  1  1  0
  3  2  2  0
  4  3  1  0
  5 11  1  0
  5  4  2  0
  6  5  1  0
  7  8  1  6
  7  6  1  0
  9  7  1  0
  9 10  2  0
 11 12  2  0
 12  2  1  0
 14 13  1  0
 15 14  2  0
 16 14  1  0
 16 17  1  0
 18 17  1  1
 18 19  1  0
 18 20  1  0
 19  9  1  0
 20 21  2  0
 20 22  1  0
 22 23  1  0
 23 34  1  0
 24 25  1  0
 23 24  1  1
 25 33  1  0
 25 26  2  0
 26 27  1  0
 28 27  1  0
 28 29  2  0
 30 29  1  0
 31 30  2  0
 32 31  1  0
 32 33  2  0
 33 28  1  0
 34 36  2  0
 34 35  1  0
M  END
$$$$
