LSF.pdb
     RDKit          3D

 26 26  0  0  1  0  0  0  0  0999 V2000
   20.5483  -12.2721  -21.8801 C   0  0  0  0  0  0  0  0  0  0  0  0
   20.3845  -12.5589  -20.4098 C   0  0  1  0  0  0  0  0  0  0  0  0
   21.6492  -13.0594  -19.7859 C   0  0  0  0  0  0  0  0  0  0  0  0
   19.8687  -11.3278  -19.7018 C   0  0  0  0  0  0  0  0  0  0  0  0
   19.6999  -11.5601  -18.2216 C   0  0  2  0  0  0  0  0  0  0  0  0
   18.6169  -12.4590  -17.9313 N   0  0  0  0  0  0  0  0  0  0  0  0
   19.4747  -10.2421  -17.5725 C   0  0  0  0  0  0  0  0  0  0  0  0
   18.5371   -9.4907  -17.9256 O   0  0  0  0  0  0  0  0  0  0  0  0
   20.2751   -9.3862  -13.5679 O   0  0  0  0  0  0  0  0  0  0  0  0
   19.4684   -8.6999  -14.4573 C   0  0  0  0  0  0  0  0  0  0  0  0
   20.0918   -8.5404  -15.8124 C   0  0  2  0  0  0  0  0  0  0  0  0
   20.2995   -9.7526  -16.5194 N   0  0  0  0  0  0  0  0  0  0  0  0
   21.3508   -7.7610  -15.7438 C   0  0  0  0  0  0  0  0  0  0  0  0
   22.4414   -8.3139  -16.0353 O   0  0  0  0  0  0  0  0  0  0  0  0
   21.3956   -6.3937  -15.3586 N   0  0  0  0  0  0  0  0  0  0  0  0
   22.6181   -5.6147  -15.2951 C   0  0  1  0  0  0  0  0  0  0  0  0
   23.2620   -5.6498  -16.6508 C   0  0  0  0  0  0  0  0  0  0  0  0
   24.3984   -4.7183  -16.8057 C   0  0  0  0  0  0  0  0  0  0  0  0
   25.6839   -5.0653  -16.4152 C   0  0  0  0  0  0  0  0  0  0  0  0
   26.7565   -4.2107  -16.5548 C   0  0  0  0  0  0  0  0  0  0  0  0
   26.4843   -2.9762  -17.1097 C   0  0  0  0  0  0  0  0  0  0  0  0
   25.2134   -2.6109  -17.5048 C   0  0  0  0  0  0  0  0  0  0  0  0
   24.1622   -3.4812  -17.3548 C   0  0  0  0  0  0  0  0  0  0  0  0
   22.2886   -4.2813  -14.7942 C   0  0  0  0  0  0  0  0  0  0  0  0
   23.1355   -3.4907  -14.0367 O   0  0  0  0  0  0  0  0  0  0  0  0
   21.1555   -3.8058  -15.0643 O   0  0  0  0  0  0  0  0  0  0  0  0
  2  1  1  6
  2  4  1  0
  3  2  1  0
  5  4  1  0
  5  6  1  6
  7  5  1  0
  7  8  2  0
  9 10  1  0
 11 10  1  1
 11 12  1  0
 11 13  1  0
 12  7  1  0
 13 15  1  0
 14 13  2  0
 15 16  1  0
 16 24  1  0
 17 18  1  0
 16 17  1  6
 18 19  2  0
 19 20  1  0
 21 20  2  0
 22 21  1  0
 23 22  2  0
 23 18  1  0
 24 26  2  0
 24 25  1  0
M  END
$$$$
