LSF.pdb
     RDKit          3D

 26 26  0  0  1  0  0  0  0  0999 V2000
   20.1523  -22.1175  -15.1190 C   0  0  0  0  0  0  0  0  0  0  0  0
   20.0683  -20.9961  -14.1159 C   0  0  1  0  0  0  0  0  0  0  0  0
   18.6689  -20.4958  -13.9412 C   0  0  0  0  0  0  0  0  0  0  0  0
   20.6648  -21.4394  -12.8004 C   0  0  0  0  0  0  0  0  0  0  0  0
   21.5898  -20.3979  -12.2234 C   0  0  2  0  0  0  0  0  0  0  0  0
   21.9087  -19.3669  -13.1724 N   0  0  0  0  0  0  0  0  0  0  0  0
   22.8244  -21.0849  -11.7619 C   0  0  0  0  0  0  0  0  0  0  0  0
   22.7736  -22.1002  -11.0307 O   0  0  0  0  0  0  0  0  0  0  0  0
   26.7942  -20.1912  -13.3289 O   0  0  0  0  0  0  0  0  0  0  0  0
   26.3439  -21.4123  -12.8609 C   0  0  0  0  0  0  0  0  0  0  0  0
   25.3414  -21.2826  -11.7524 C   0  0  2  0  0  0  0  0  0  0  0  0
   24.1303  -20.6397  -12.1162 N   0  0  0  0  0  0  0  0  0  0  0  0
   25.9318  -20.6326  -10.5582 C   0  0  0  0  0  0  0  0  0  0  0  0
   25.3877  -19.6077  -10.0748 O   0  0  0  0  0  0  0  0  0  0  0  0
   27.1042  -21.1133   -9.9145 N   0  0  0  0  0  0  0  0  0  0  0  0
   27.7842  -20.4049   -8.8463 C   0  0  1  0  0  0  0  0  0  0  0  0
   26.9195  -20.4717   -7.6209 C   0  0  0  0  0  0  0  0  0  0  0  0
   27.5832  -20.0071   -6.3853 C   0  0  0  0  0  0  0  0  0  0  0  0
   28.0417  -20.8976   -5.4251 C   0  0  0  0  0  0  0  0  0  0  0  0
   28.6658  -20.4827   -4.2680 C   0  0  0  0  0  0  0  0  0  0  0  0
   28.8136  -19.1192   -4.1102 C   0  0  0  0  0  0  0  0  0  0  0  0
   28.3650  -18.2163   -5.0527 C   0  0  0  0  0  0  0  0  0  0  0  0
   27.7466  -18.6560   -6.1969 C   0  0  0  0  0  0  0  0  0  0  0  0
   29.1234  -20.9722   -8.6976 C   0  0  0  0  0  0  0  0  0  0  0  0
   30.1874  -20.3346   -8.0828 O   0  0  0  0  0  0  0  0  0  0  0  0
   29.3382  -22.1234   -9.1576 O   0  0  0  0  0  0  0  0  0  0  0  0
  2  1  1  6
  2  4  1  0
  3  2  1  0
  5  4  1  0
  5  6  1  6
  7  5  1  0
  7  8  2  0
  9 10  1  0
 11 10  1  6
 11 12  1  0
 11 13  1  0
 12  7  1  0
 13 15  1  0
 14 13  2  0
 15 16  1  0
 16 24  1  0
 17 18  1  0
 16 17  1  1
 18 19  2  0
 19 20  1  0
 21 20  2  0
 22 21  1  0
 23 22  2  0
 23 18  1  0
 24 26  2  0
 24 25  1  0
M  END
$$$$
