LSF.pdb
     RDKit          3D

 26 26  0  0  1  0  0  0  0  0999 V2000
   19.6203  -13.0866    3.6847 C   0  0  0  0  0  0  0  0  0  0  0  0
   19.0931  -12.4201    4.9292 C   0  0  1  0  0  0  0  0  0  0  0  0
   17.6841  -12.8216    5.2334 C   0  0  0  0  0  0  0  0  0  0  0  0
   20.0130  -12.7069    6.0930 C   0  0  0  0  0  0  0  0  0  0  0  0
   19.5789  -11.9849    7.3435 C   0  0  2  0  0  0  0  0  0  0  0  0
   19.8120  -10.5691    7.2637 N   0  0  0  0  0  0  0  0  0  0  0  0
   20.3158  -12.5729    8.4926 C   0  0  0  0  0  0  0  0  0  0  0  0
   21.4855  -12.2210    8.7686 O   0  0  0  0  0  0  0  0  0  0  0  0
   18.8142  -15.9383   10.7975 O   0  0  0  0  0  0  0  0  0  0  0  0
   19.4971  -14.8958   11.3972 C   0  0  0  0  0  0  0  0  0  0  0  0
   20.4023  -14.1652   10.4500 C   0  0  2  0  0  0  0  0  0  0  0  0
   19.7478  -13.5626    9.3450 N   0  0  0  0  0  0  0  0  0  0  0  0
   21.5127  -15.0292    9.9832 C   0  0  0  0  0  0  0  0  0  0  0  0
   21.4455  -15.5714    8.8511 O   0  0  0  0  0  0  0  0  0  0  0  0
   22.6748  -15.2850   10.7604 N   0  0  0  0  0  0  0  0  0  0  0  0
   23.7457  -16.1694   10.3405 C   0  0  1  0  0  0  0  0  0  0  0  0
   25.0425  -15.5933   10.8306 C   0  0  0  0  0  0  0  0  0  0  0  0
   26.2261  -16.4258   10.5322 C   0  0  0  0  0  0  0  0  0  0  0  0
   26.8384  -16.4027    9.2871 C   0  0  0  0  0  0  0  0  0  0  0  0
   27.9448  -17.1700    8.9915 C   0  0  0  0  0  0  0  0  0  0  0  0
   28.4195  -17.9731   10.0093 C   0  0  0  0  0  0  0  0  0  0  0  0
   27.8258  -18.0112   11.2546 C   0  0  0  0  0  0  0  0  0  0  0  0
   26.7244  -17.2366   11.5231 C   0  0  0  0  0  0  0  0  0  0  0  0
   23.4418  -17.5181   10.8160 C   0  0  0  0  0  0  0  0  0  0  0  0
   22.4150  -17.8351   11.6886 O   0  0  0  0  0  0  0  0  0  0  0  0
   24.1583  -18.4693   10.4103 O   0  0  0  0  0  0  0  0  0  0  0  0
  2  1  1  6
  2  4  1  0
  3  2  1  0
  5  4  1  0
  5  6  1  6
  7  5  1  0
  7  8  2  0
  9 10  1  0
 11 10  1  6
 11 12  1  0
 11 13  1  0
 12  7  1  0
 13 15  1  0
 14 13  2  0
 15 16  1  0
 16 24  1  0
 17 18  1  0
 16 17  1  1
 18 19  2  0
 19 20  1  0
 21 20  2  0
 22 21  1  0
 23 22  2  0
 23 18  1  0
 24 26  2  0
 24 25  1  0
M  END
$$$$
