LSF.pdb
     RDKit          3D

 26 26  0  0  1  0  0  0  0  0999 V2000
   28.1733  -17.2053  -15.5797 C   0  0  0  0  0  0  0  0  0  0  0  0
   27.9283  -18.2349  -16.6525 C   0  0  1  0  0  0  0  0  0  0  0  0
   29.0478  -19.2226  -16.7561 C   0  0  0  0  0  0  0  0  0  0  0  0
   26.6052  -18.9229  -16.4101 C   0  0  0  0  0  0  0  0  0  0  0  0
   26.4068  -20.1000  -17.3311 C   0  0  2  0  0  0  0  0  0  0  0  0
   26.1759  -19.6952  -18.6905 N   0  0  0  0  0  0  0  0  0  0  0  0
   25.2600  -20.8953  -16.8197 C   0  0  0  0  0  0  0  0  0  0  0  0
   24.0958  -20.4340  -16.8120 O   0  0  0  0  0  0  0  0  0  0  0  0
   25.8429  -24.7928  -15.1268 O   0  0  0  0  0  0  0  0  0  0  0  0
   24.6335  -24.4764  -15.7184 C   0  0  0  0  0  0  0  0  0  0  0  0
   24.3648  -23.0009  -15.7521 C   0  0  2  0  0  0  0  0  0  0  0  0
   25.4072  -22.2177  -16.3112 N   0  0  0  0  0  0  0  0  0  0  0  0
   23.9933  -22.4848  -14.4131 C   0  0  0  0  0  0  0  0  0  0  0  0
   24.6052  -22.8975  -13.3955 O   0  0  0  0  0  0  0  0  0  0  0  0
   22.9615  -21.5288  -14.2100 N   0  0  0  0  0  0  0  0  0  0  0  0
   22.5198  -21.0864  -12.9006 C   0  0  1  0  0  0  0  0  0  0  0  0
   23.3207  -19.8731  -12.5260 C   0  0  0  0  0  0  0  0  0  0  0  0
   24.6921  -20.1716  -12.0643 C   0  0  0  0  0  0  0  0  0  0  0  0
   25.8076  -19.7687  -12.7845 C   0  0  0  0  0  0  0  0  0  0  0  0
   27.0943  -20.0356  -12.3678 C   0  0  0  0  0  0  0  0  0  0  0  0
   27.2192  -20.7328  -11.1828 C   0  0  0  0  0  0  0  0  0  0  0  0
   26.1233  -21.1428  -10.4510 C   0  0  0  0  0  0  0  0  0  0  0  0
   24.8521  -20.8640  -10.8884 C   0  0  0  0  0  0  0  0  0  0  0  0
   21.0718  -20.8900  -12.9455 C   0  0  0  0  0  0  0  0  0  0  0  0
   20.2884  -20.5394  -11.8593 O   0  0  0  0  0  0  0  0  0  0  0  0
   20.4821  -21.0479  -14.0455 O   0  0  0  0  0  0  0  0  0  0  0  0
  2  1  1  1
  2  4  1  0
  3  2  1  0
  5  4  1  0
  5  6  1  6
  7  5  1  0
  7  8  2  0
  9 10  1  0
 11 10  1  1
 11 12  1  0
 11 13  1  0
 12  7  1  0
 13 15  1  0
 14 13  2  0
 15 16  1  0
 16 24  1  0
 17 18  1  0
 16 17  1  6
 18 19  2  0
 19 20  1  0
 21 20  2  0
 22 21  1  0
 23 22  2  0
 23 18  1  0
 24 26  2  0
 24 25  1  0
M  END
$$$$
