LSF.pdb
     RDKit          3D

 26 26  0  0  1  0  0  0  0  0999 V2000
   26.6530  -20.8711  -17.5947 C   0  0  0  0  0  0  0  0  0  0  0  0
   25.7997  -21.4662  -16.5045 C   0  0  1  0  0  0  0  0  0  0  0  0
   26.3305  -22.7799  -16.0231 C   0  0  0  0  0  0  0  0  0  0  0  0
   25.6559  -20.4791  -15.3697 C   0  0  0  0  0  0  0  0  0  0  0  0
   25.0271  -21.1093  -14.1529 C   0  0  2  0  0  0  0  0  0  0  0  0
   23.6004  -21.2286  -14.2770 N   0  0  0  0  0  0  0  0  0  0  0  0
   25.3824  -20.2810  -12.9710 C   0  0  0  0  0  0  0  0  0  0  0  0
   25.5093  -19.0382  -13.0576 O   0  0  0  0  0  0  0  0  0  0  0  0
   23.1670  -20.5846   -9.8829 O   0  0  0  0  0  0  0  0  0  0  0  0
   24.0883  -19.5983  -10.1848 C   0  0  0  0  0  0  0  0  0  0  0  0
   25.4617  -20.1397  -10.4514 C   0  0  2  0  0  0  0  0  0  0  0  0
   25.5992  -20.8385  -11.6783 N   0  0  0  0  0  0  0  0  0  0  0  0
   25.9456  -20.9739   -9.3257 C   0  0  0  0  0  0  0  0  0  0  0  0
   25.6195  -22.1863   -9.2647 O   0  0  0  0  0  0  0  0  0  0  0  0
   26.7759  -20.4693   -8.2884 N   0  0  0  0  0  0  0  0  0  0  0  0
   27.2328  -21.2644   -7.1640 C   0  0  1  0  0  0  0  0  0  0  0  0
   28.6513  -20.8739   -6.8653 C   0  0  0  0  0  0  0  0  0  0  0  0
   28.7893  -19.8710   -5.7890 C   0  0  0  0  0  0  0  0  0  0  0  0
   28.6224  -18.5148   -6.0306 C   0  0  0  0  0  0  0  0  0  0  0  0
   28.7443  -17.5652   -5.0387 C   0  0  0  0  0  0  0  0  0  0  0  0
   29.0448  -18.0371   -3.7766 C   0  0  0  0  0  0  0  0  0  0  0  0
   29.2148  -19.3814   -3.5145 C   0  0  0  0  0  0  0  0  0  0  0  0
   29.0878  -20.3068   -4.5207 C   0  0  0  0  0  0  0  0  0  0  0  0
   26.2901  -21.0861   -6.0609 C   0  0  0  0  0  0  0  0  0  0  0  0
   26.2609  -21.8606   -4.9139 O   0  0  0  0  0  0  0  0  0  0  0  0
   25.4376  -20.1648   -6.1476 O   0  0  0  0  0  0  0  0  0  0  0  0
  2  1  1  6
  2  4  1  0
  3  2  1  0
  5  4  1  0
  5  6  1  6
  7  5  1  0
  7  8  2  0
  9 10  1  0
 11 10  1  1
 11 12  1  0
 11 13  1  0
 12  7  1  0
 13 15  1  0
 14 13  2  0
 15 16  1  0
 16 24  1  0
 17 18  1  0
 16 17  1  1
 18 19  2  0
 19 20  1  0
 21 20  2  0
 22 21  1  0
 23 22  2  0
 23 18  1  0
 24 26  2  0
 24 25  1  0
M  END
$$$$
