LSF.pdb
     RDKit          3D

 26 26  0  0  1  0  0  0  0  0999 V2000
   27.0309  -12.7638  -16.3718 C   0  0  0  0  0  0  0  0  0  0  0  0
   26.8092  -13.0236  -17.8395 C   0  0  1  0  0  0  0  0  0  0  0  0
   27.9780  -13.7070  -18.4768 C   0  0  0  0  0  0  0  0  0  0  0  0
   25.5349  -13.8118  -18.0338 C   0  0  0  0  0  0  0  0  0  0  0  0
   24.3314  -13.0737  -17.5046 C   0  0  2  0  0  0  0  0  0  0  0  0
   23.1346  -13.8666  -17.5687 N   0  0  0  0  0  0  0  0  0  0  0  0
   24.1747  -11.8244  -18.2945 C   0  0  0  0  0  0  0  0  0  0  0  0
   24.5590  -11.7502  -19.4840 O   0  0  0  0  0  0  0  0  0  0  0  0
   22.0299   -8.5757  -20.3669 O   0  0  0  0  0  0  0  0  0  0  0  0
   22.3967   -9.7370  -19.7115 C   0  0  0  0  0  0  0  0  0  0  0  0
   23.2491   -9.4848  -18.5031 C   0  0  2  0  0  0  0  0  0  0  0  0
   23.5848  -10.6442  -17.7578 N   0  0  0  0  0  0  0  0  0  0  0  0
   22.6481   -8.4588  -17.6180 C   0  0  0  0  0  0  0  0  0  0  0  0
   21.6611   -8.7581  -16.8993 O   0  0  0  0  0  0  0  0  0  0  0  0
   23.1353   -7.1263  -17.5340 N   0  0  0  0  0  0  0  0  0  0  0  0
   22.5253   -6.0961  -16.7143 C   0  0  1  0  0  0  0  0  0  0  0  0
   23.5939   -5.5037  -15.8421 C   0  0  0  0  0  0  0  0  0  0  0  0
   23.1582   -4.3229  -15.0681 C   0  0  0  0  0  0  0  0  0  0  0  0
   22.4156   -4.4487  -13.9026 C   0  0  0  0  0  0  0  0  0  0  0  0
   22.0030   -3.3590  -13.1660 C   0  0  0  0  0  0  0  0  0  0  0  0
   22.3701   -2.1201  -13.6521 C   0  0  0  0  0  0  0  0  0  0  0  0
   23.1083   -1.9725  -14.8089 C   0  0  0  0  0  0  0  0  0  0  0  0
   23.5069   -3.0746  -15.5240 C   0  0  0  0  0  0  0  0  0  0  0  0
   21.8430   -5.1504  -17.5961 C   0  0  0  0  0  0  0  0  0  0  0  0
   22.2656   -4.8129  -18.8705 O   0  0  0  0  0  0  0  0  0  0  0  0
   20.7939   -4.5955  -17.1785 O   0  0  0  0  0  0  0  0  0  0  0  0
  2  1  1  1
  2  4  1  0
  3  2  1  0
  5  4  1  0
  5  6  1  6
  7  5  1  0
  7  8  2  0
  9 10  1  0
 11 10  1  6
 11 12  1  0
 11 13  1  0
 12  7  1  0
 13 15  1  0
 14 13  2  0
 15 16  1  0
 16 24  1  0
 17 18  1  0
 16 17  1  6
 18 19  2  0
 19 20  1  0
 21 20  2  0
 22 21  1  0
 23 22  2  0
 23 18  1  0
 24 26  2  0
 24 25  1  0
M  END
$$$$
