LSF.pdb
     RDKit          3D

 26 26  0  0  1  0  0  0  0  0999 V2000
   11.0049  -17.4092   -2.3478 C   0  0  0  0  0  0  0  0  0  0  0  0
   11.2877  -18.7479   -1.7161 C   0  0  1  0  0  0  0  0  0  0  0  0
   12.4231  -19.4599   -2.3819 C   0  0  0  0  0  0  0  0  0  0  0  0
   11.5365  -18.5739   -0.2361 C   0  0  0  0  0  0  0  0  0  0  0  0
   11.7643  -19.8947    0.4545 C   0  0  2  0  0  0  0  0  0  0  0  0
   10.5695  -20.6909    0.5151 N   0  0  0  0  0  0  0  0  0  0  0  0
   12.2776  -19.6160    1.8214 C   0  0  0  0  0  0  0  0  0  0  0  0
   11.5488  -19.1045    2.7020 O   0  0  0  0  0  0  0  0  0  0  0  0
   15.5073  -21.6442    3.6640 O   0  0  0  0  0  0  0  0  0  0  0  0
   14.5318  -20.8815    4.2799 C   0  0  0  0  0  0  0  0  0  0  0  0
   14.1649  -19.6550    3.4979 C   0  0  2  0  0  0  0  0  0  0  0  0
   13.6149  -19.9083    2.2150 N   0  0  0  0  0  0  0  0  0  0  0  0
   15.3061  -18.7148    3.3934 C   0  0  0  0  0  0  0  0  0  0  0  0
   16.1936  -18.9079    2.5243 O   0  0  0  0  0  0  0  0  0  0  0  0
   15.4572  -17.5825    4.2389 N   0  0  0  0  0  0  0  0  0  0  0  0
   16.6421  -16.7453    4.2596 C   0  0  1  0  0  0  0  0  0  0  0  0
   16.3244  -15.4731    3.5286 C   0  0  0  0  0  0  0  0  0  0  0  0
   17.4516  -14.5208    3.4526 C   0  0  0  0  0  0  0  0  0  0  0  0
   18.5214  -14.7246    2.5926 C   0  0  0  0  0  0  0  0  0  0  0  0
   19.5800  -13.8458    2.5061 C   0  0  0  0  0  0  0  0  0  0  0  0
   19.5218  -12.7384    3.3284 C   0  0  0  0  0  0  0  0  0  0  0  0
   18.4674  -12.5165    4.1908 C   0  0  0  0  0  0  0  0  0  0  0  0
   17.4252  -13.4077    4.2576 C   0  0  0  0  0  0  0  0  0  0  0  0
   17.0636  -16.5787    5.6495 C   0  0  0  0  0  0  0  0  0  0  0  0
   18.3718  -16.3887    6.0607 O   0  0  0  0  0  0  0  0  0  0  0  0
   16.1831  -16.6083    6.5476 O   0  0  0  0  0  0  0  0  0  0  0  0
  2  1  1  6
  2  4  1  0
  3  2  1  0
  5  4  1  0
  5  6  1  1
  7  5  1  0
  7  8  2  0
  9 10  1  0
 11 10  1  6
 11 12  1  0
 11 13  1  0
 12  7  1  0
 13 15  1  0
 14 13  2  0
 15 16  1  0
 16 24  1  0
 17 18  1  0
 16 17  1  1
 18 19  2  0
 19 20  1  0
 21 20  2  0
 22 21  1  0
 23 22  2  0
 23 18  1  0
 24 26  2  0
 24 25  1  0
M  END
$$$$
