LSF.pdb
     RDKit          3D

 26 26  0  0  1  0  0  0  0  0999 V2000
   17.0183  -12.4153  -19.7465 C   0  0  0  0  0  0  0  0  0  0  0  0
   18.4438  -12.3497  -19.2620 C   0  0  1  0  0  0  0  0  0  0  0  0
   19.3801  -11.8585  -20.3209 C   0  0  0  0  0  0  0  0  0  0  0  0
   18.5231  -11.4985  -18.0162 C   0  0  0  0  0  0  0  0  0  0  0  0
   19.9338  -11.3965  -17.4941 C   0  0  2  0  0  0  0  0  0  0  0  0
   20.4206  -12.6516  -16.9911 N   0  0  0  0  0  0  0  0  0  0  0  0
   19.9553  -10.3614  -16.4277 C   0  0  0  0  0  0  0  0  0  0  0  0
   18.9219  -10.0597  -15.7881 O   0  0  0  0  0  0  0  0  0  0  0  0
   23.3682   -9.6267  -14.2263 O   0  0  0  0  0  0  0  0  0  0  0  0
   22.0943   -9.2559  -13.8360 C   0  0  0  0  0  0  0  0  0  0  0  0
   21.2538   -8.7567  -14.9739 C   0  0  2  0  0  0  0  0  0  0  0  0
   21.1374   -9.6531  -16.0672 N   0  0  0  0  0  0  0  0  0  0  0  0
   21.7089   -7.4265  -15.4437 C   0  0  0  0  0  0  0  0  0  0  0  0
   22.3455   -7.3325  -16.5236 O   0  0  0  0  0  0  0  0  0  0  0  0
   21.4608   -6.2249  -14.7265 N   0  0  0  0  0  0  0  0  0  0  0  0
   21.9071   -4.9168  -15.1682 C   0  0  1  0  0  0  0  0  0  0  0  0
   21.3783   -4.6896  -16.5547 C   0  0  0  0  0  0  0  0  0  0  0  0
   21.6188   -3.3293  -17.0791 C   0  0  0  0  0  0  0  0  0  0  0  0
   20.5835   -2.4224  -17.2552 C   0  0  0  0  0  0  0  0  0  0  0  0
   20.7892   -1.1485  -17.7403 C   0  0  0  0  0  0  0  0  0  0  0  0
   22.0937   -0.8158  -18.0461 C   0  0  0  0  0  0  0  0  0  0  0  0
   23.1381   -1.7024  -17.8786 C   0  0  0  0  0  0  0  0  0  0  0  0
   22.9059   -2.9656  -17.3935 C   0  0  0  0  0  0  0  0  0  0  0  0
   21.4942   -3.9293  -14.1724 C   0  0  0  0  0  0  0  0  0  0  0  0
   22.2187   -2.7996  -13.8327 O   0  0  0  0  0  0  0  0  0  0  0  0
   20.4024   -4.1071  -13.5729 O   0  0  0  0  0  0  0  0  0  0  0  0
  2  1  1  6
  2  4  1  0
  3  2  1  0
  5  4  1  0
  5  6  1  1
  7  5  1  0
  7  8  2  0
  9 10  1  0
 11 10  1  1
 11 12  1  0
 11 13  1  0
 12  7  1  0
 13 15  1  0
 14 13  2  0
 15 16  1  0
 16 24  1  0
 17 18  1  0
 16 17  1  6
 18 19  2  0
 19 20  1  0
 21 20  2  0
 22 21  1  0
 23 22  2  0
 23 18  1  0
 24 26  2  0
 24 25  1  0
M  END
$$$$
