LSF.pdb
     RDKit          3D

 26 26  0  0  1  0  0  0  0  0999 V2000
   33.0871  -29.5310  -22.3624 C   0  0  0  0  0  0  0  0  0  0  0  0
   33.4650  -29.0497  -20.9853 C   0  0  1  0  0  0  0  0  0  0  0  0
   33.7871  -27.5885  -20.9644 C   0  0  0  0  0  0  0  0  0  0  0  0
   32.3661  -29.3873  -20.0048 C   0  0  0  0  0  0  0  0  0  0  0  0
   32.7347  -29.0046  -18.5938 C   0  0  2  0  0  0  0  0  0  0  0  0
   33.7512  -29.8597  -18.0454 N   0  0  0  0  0  0  0  0  0  0  0  0
   31.5015  -29.0595  -17.7659 C   0  0  0  0  0  0  0  0  0  0  0  0
   31.2478  -30.0442  -17.0350 O   0  0  0  0  0  0  0  0  0  0  0  0
   29.5208  -25.6902  -16.3125 O   0  0  0  0  0  0  0  0  0  0  0  0
   28.6912  -26.6571  -16.8505 C   0  0  0  0  0  0  0  0  0  0  0  0
   29.3533  -27.9979  -16.9706 C   0  0  2  0  0  0  0  0  0  0  0  0
   30.5392  -28.0095  -17.7491 N   0  0  0  0  0  0  0  0  0  0  0  0
   28.4071  -29.0303  -17.4566 C   0  0  0  0  0  0  0  0  0  0  0  0
   28.4027  -29.3468  -18.6732 O   0  0  0  0  0  0  0  0  0  0  0  0
   27.4842  -29.6973  -16.6063 N   0  0  0  0  0  0  0  0  0  0  0  0
   26.4933  -30.6456  -17.0797 C   0  0  1  0  0  0  0  0  0  0  0  0
   25.9047  -31.3376  -15.8845 C   0  0  0  0  0  0  0  0  0  0  0  0
   24.8450  -32.3140  -16.2112 C   0  0  0  0  0  0  0  0  0  0  0  0
   23.5000  -32.0069  -16.0628 C   0  0  0  0  0  0  0  0  0  0  0  0
   22.4977  -32.9039  -16.3653 C   0  0  0  0  0  0  0  0  0  0  0  0
   22.9044  -34.1390  -16.8291 C   0  0  0  0  0  0  0  0  0  0  0  0
   24.2365  -34.4650  -16.9841 C   0  0  0  0  0  0  0  0  0  0  0  0
   25.2152  -33.5529  -16.6755 C   0  0  0  0  0  0  0  0  0  0  0  0
   25.5361  -29.9293  -17.9212 C   0  0  0  0  0  0  0  0  0  0  0  0
   25.0098  -30.4133  -19.1066 O   0  0  0  0  0  0  0  0  0  0  0  0
   25.1544  -28.7885  -17.5526 O   0  0  0  0  0  0  0  0  0  0  0  0
  2  1  1  6
  2  4  1  0
  3  2  1  0
  5  4  1  0
  5  6  1  1
  7  5  1  0
  7  8  2  0
  9 10  1  0
 11 10  1  6
 11 12  1  0
 11 13  1  0
 12  7  1  0
 13 15  1  0
 14 13  2  0
 15 16  1  0
 16 24  1  0
 17 18  1  0
 16 17  1  1
 18 19  2  0
 19 20  1  0
 21 20  2  0
 22 21  1  0
 23 22  2  0
 23 18  1  0
 24 26  2  0
 24 25  1  0
M  END
$$$$
