LSF.pdb
     RDKit          3D

 26 26  0  0  1  0  0  0  0  0999 V2000
   18.9060  -13.5439  -21.1190 C   0  0  0  0  0  0  0  0  0  0  0  0
   19.8457  -13.3328  -19.9600 C   0  0  1  0  0  0  0  0  0  0  0  0
   21.2673  -13.6281  -20.3222 C   0  0  0  0  0  0  0  0  0  0  0  0
   19.6922  -11.9282  -19.4249 C   0  0  0  0  0  0  0  0  0  0  0  0
   20.5544  -11.6920  -18.2108 C   0  0  2  0  0  0  0  0  0  0  0  0
   20.3705  -12.7038  -17.2070 N   0  0  0  0  0  0  0  0  0  0  0  0
   20.2240  -10.3488  -17.6670 C   0  0  0  0  0  0  0  0  0  0  0  0
   20.3098   -9.3181  -18.3730 O   0  0  0  0  0  0  0  0  0  0  0  0
   18.9005   -9.6971  -13.5532 O   0  0  0  0  0  0  0  0  0  0  0  0
   18.5204   -8.9075  -14.6231 C   0  0  0  0  0  0  0  0  0  0  0  0
   19.5359   -8.8866  -15.7271 C   0  0  2  0  0  0  0  0  0  0  0  0
   19.7934  -10.1474  -16.3243 N   0  0  0  0  0  0  0  0  0  0  0  0
   20.8032   -8.2550  -15.2887 C   0  0  0  0  0  0  0  0  0  0  0  0
   21.7979   -8.9759  -15.0222 O   0  0  0  0  0  0  0  0  0  0  0  0
   20.9609   -6.8495  -15.1494 N   0  0  0  0  0  0  0  0  0  0  0  0
   22.2032   -6.2140  -14.7519 C   0  0  1  0  0  0  0  0  0  0  0  0
   22.9005   -5.7402  -15.9941 C   0  0  0  0  0  0  0  0  0  0  0  0
   22.1972   -4.6531  -16.7060 C   0  0  0  0  0  0  0  0  0  0  0  0
   22.3607   -3.3224  -16.3484 C   0  0  0  0  0  0  0  0  0  0  0  0
   21.7153   -2.2949  -17.0028 C   0  0  0  0  0  0  0  0  0  0  0  0
   20.8873   -2.6609  -18.0452 C   0  0  0  0  0  0  0  0  0  0  0  0
   20.7105   -3.9781  -18.4172 C   0  0  0  0  0  0  0  0  0  0  0  0
   21.3655   -4.9826  -17.7487 C   0  0  0  0  0  0  0  0  0  0  0  0
   21.8949   -5.1730  -13.7728 C   0  0  0  0  0  0  0  0  0  0  0  0
   20.6169   -4.7941  -13.3989 O   0  0  0  0  0  0  0  0  0  0  0  0
   22.8517   -4.5695  -13.2222 O   0  0  0  0  0  0  0  0  0  0  0  0
  2  1  1  6
  2  4  1  0
  3  2  1  0
  5  4  1  0
  5  6  1  1
  7  5  1  0
  7  8  2  0
  9 10  1  0
 11 10  1  1
 11 12  1  0
 11 13  1  0
 12  7  1  0
 13 15  1  0
 14 13  2  0
 15 16  1  0
 16 24  1  0
 17 18  1  0
 16 17  1  6
 18 19  2  0
 19 20  1  0
 21 20  2  0
 22 21  1  0
 23 22  2  0
 23 18  1  0
 24 26  2  0
 24 25  1  0
M  END
$$$$
