LSF.pdb
     RDKit          3D

 26 26  0  0  1  0  0  0  0  0999 V2000
   28.4589  -19.1698  -20.1344 C   0  0  0  0  0  0  0  0  0  0  0  0
   26.9703  -19.1133  -19.9066 C   0  0  1  0  0  0  0  0  0  0  0  0
   26.3514  -20.4751  -19.8648 C   0  0  0  0  0  0  0  0  0  0  0  0
   26.6737  -18.3327  -18.6475 C   0  0  0  0  0  0  0  0  0  0  0  0
   25.2035  -18.3429  -18.3131 C   0  0  2  0  0  0  0  0  0  0  0  0
   24.4541  -17.4232  -19.1240 N   0  0  0  0  0  0  0  0  0  0  0  0
   25.0578  -18.0092  -16.8720 C   0  0  0  0  0  0  0  0  0  0  0  0
   25.1553  -16.8305  -16.4605 O   0  0  0  0  0  0  0  0  0  0  0  0
   21.9999  -18.6121  -14.9203 O   0  0  0  0  0  0  0  0  0  0  0  0
   23.1065  -17.9327  -14.4442 C   0  0  0  0  0  0  0  0  0  0  0  0
   24.3741  -18.7279  -14.5503 C   0  0  2  0  0  0  0  0  0  0  0  0
   24.8010  -18.9951  -15.8766 N   0  0  0  0  0  0  0  0  0  0  0  0
   24.2938  -19.9863  -13.7710 C   0  0  0  0  0  0  0  0  0  0  0  0
   23.8997  -21.0406  -14.3307 O   0  0  0  0  0  0  0  0  0  0  0  0
   24.6449  -20.0701  -12.3964 N   0  0  0  0  0  0  0  0  0  0  0  0
   24.5891  -21.2974  -11.6244 C   0  0  1  0  0  0  0  0  0  0  0  0
   25.9485  -21.5363  -11.0337 C   0  0  0  0  0  0  0  0  0  0  0  0
   26.2180  -20.7645   -9.8029 C   0  0  0  0  0  0  0  0  0  0  0  0
   26.0876  -21.3320   -8.5434 C   0  0  0  0  0  0  0  0  0  0  0  0
   26.3376  -20.6284   -7.3846 C   0  0  0  0  0  0  0  0  0  0  0  0
   26.7292  -19.3139   -7.5418 C   0  0  0  0  0  0  0  0  0  0  0  0
   26.8651  -18.7301   -8.7849 C   0  0  0  0  0  0  0  0  0  0  0  0
   26.6099  -19.4532   -9.9237 C   0  0  0  0  0  0  0  0  0  0  0  0
   23.4988  -21.1836  -10.6572 C   0  0  0  0  0  0  0  0  0  0  0  0
   23.0123  -22.2274   -9.8890 O   0  0  0  0  0  0  0  0  0  0  0  0
   22.9538  -20.0603  -10.5019 O   0  0  0  0  0  0  0  0  0  0  0  0
  2  1  1  1
  2  4  1  0
  3  2  1  0
  5  4  1  0
  5  6  1  6
  7  5  1  0
  7  8  2  0
  9 10  1  0
 11 10  1  6
 11 12  1  0
 11 13  1  0
 12  7  1  0
 13 15  1  0
 14 13  2  0
 15 16  1  0
 16 24  1  0
 17 18  1  0
 16 17  1  1
 18 19  2  0
 19 20  1  0
 21 20  2  0
 22 21  1  0
 23 22  2  0
 23 18  1  0
 24 26  2  0
 24 25  1  0
M  END
$$$$
