LSF.pdb
     RDKit          3D

 26 26  0  0  1  0  0  0  0  0999 V2000
   29.2188  -16.1770  -17.2777 C   0  0  0  0  0  0  0  0  0  0  0  0
   27.9361  -16.7456  -17.8276 C   0  0  1  0  0  0  0  0  0  0  0  0
   28.1649  -17.9891  -18.6280 C   0  0  0  0  0  0  0  0  0  0  0  0
   26.9575  -16.9854  -16.7017 C   0  0  0  0  0  0  0  0  0  0  0  0
   25.7222  -17.7086  -17.1753 C   0  0  2  0  0  0  0  0  0  0  0  0
   25.0136  -16.9722  -18.1856 N   0  0  0  0  0  0  0  0  0  0  0  0
   24.8509  -17.9506  -15.9957 C   0  0  0  0  0  0  0  0  0  0  0  0
   25.3015  -18.4561  -14.9424 O   0  0  0  0  0  0  0  0  0  0  0  0
   20.5681  -17.3257  -16.0849 O   0  0  0  0  0  0  0  0  0  0  0  0
   21.3136  -17.0048  -14.9651 C   0  0  0  0  0  0  0  0  0  0  0  0
   22.5963  -17.7772  -14.8728 C   0  0  2  0  0  0  0  0  0  0  0  0
   23.4636  -17.6277  -15.9853 N   0  0  0  0  0  0  0  0  0  0  0  0
   22.3483  -19.2132  -14.6015 C   0  0  0  0  0  0  0  0  0  0  0  0
   22.2948  -20.0269  -15.5582 O   0  0  0  0  0  0  0  0  0  0  0  0
   22.1634  -19.7338  -13.2920 N   0  0  0  0  0  0  0  0  0  0  0  0
   21.8159  -21.1152  -13.0163 C   0  0  1  0  0  0  0  0  0  0  0  0
   23.0599  -21.8263  -12.5682 C   0  0  0  0  0  0  0  0  0  0  0  0
   23.6368  -21.3039  -11.3122 C   0  0  0  0  0  0  0  0  0  0  0  0
   22.9458  -21.3681  -10.1106 C   0  0  0  0  0  0  0  0  0  0  0  0
   23.4691  -20.8887   -8.9287 C   0  0  0  0  0  0  0  0  0  0  0  0
   24.7314  -20.3345   -9.0013 C   0  0  0  0  0  0  0  0  0  0  0  0
   25.4360  -20.2608  -10.1858 C   0  0  0  0  0  0  0  0  0  0  0  0
   24.8917  -20.7458  -11.3491 C   0  0  0  0  0  0  0  0  0  0  0  0
   20.7095  -21.1295  -12.0607 C   0  0  0  0  0  0  0  0  0  0  0  0
   19.9583  -22.2469  -11.7389 O   0  0  0  0  0  0  0  0  0  0  0  0
   20.4076  -20.0543  -11.4815 O   0  0  0  0  0  0  0  0  0  0  0  0
  2  1  1  1
  2  4  1  0
  3  2  1  0
  5  4  1  0
  5  6  1  6
  7  5  1  0
  7  8  2  0
  9 10  1  0
 11 10  1  6
 11 12  1  0
 11 13  1  0
 12  7  1  0
 13 15  1  0
 14 13  2  0
 15 16  1  0
 16 24  1  0
 17 18  1  0
 16 17  1  1
 18 19  2  0
 19 20  1  0
 21 20  2  0
 22 21  1  0
 23 22  2  0
 23 18  1  0
 24 26  2  0
 24 25  1  0
M  END
$$$$
