SMF.pdb
     RDKit          3D

 26 26  0  0  1  0  0  0  0  0999 V2000
    6.6090  -19.4486   24.0379 O   0  0  0  0  0  0  0  0  0  0  0  0
    5.7880  -18.9884   23.0389 C   0  0  0  0  0  0  0  0  0  0  0  0
    6.4186  -18.9469   21.6842 C   0  0  2  0  0  0  0  0  0  0  0  0
    6.6657  -20.2611   21.1894 N   0  0  0  0  0  0  0  0  0  0  0  0
    7.6130  -18.0747   21.7056 C   0  0  0  0  0  0  0  0  0  0  0  0
    8.7342  -18.6434   21.6028 O   0  0  0  0  0  0  0  0  0  0  0  0
    8.6224  -11.8927   20.1642 C   0  0  0  0  0  0  0  0  0  0  0  0
    7.0289  -12.7517   19.9879 S   0  0  0  0  0  0  0  0  0  0  0  0
    7.2464  -14.5035   20.5082 C   0  0  0  0  0  0  0  0  0  0  0  0
    8.4807  -14.5407   21.3380 C   0  0  0  0  0  0  0  0  0  0  0  0
    8.8508  -15.8970   21.8887 C   0  0  2  0  0  0  0  0  0  0  0  0
    7.5879  -16.6781   21.8305 N   0  0  0  0  0  0  0  0  0  0  0  0
    9.2600  -15.7531   23.2993 C   0  0  0  0  0  0  0  0  0  0  0  0
   10.3415  -15.1415   23.5482 O   0  0  0  0  0  0  0  0  0  0  0  0
    8.5247  -16.2468   24.3906 N   0  0  0  0  0  0  0  0  0  0  0  0
    9.0602  -16.1053   25.7270 C   0  0  1  0  0  0  0  0  0  0  0  0
    7.8624  -15.8028   26.6282 C   0  0  0  0  0  0  0  0  0  0  0  0
    7.4452  -14.3949   26.5043 C   0  0  0  0  0  0  0  0  0  0  0  0
    8.3448  -13.3487   26.6742 C   0  0  0  0  0  0  0  0  0  0  0  0
    7.9717  -12.0249   26.5467 C   0  0  0  0  0  0  0  0  0  0  0  0
    6.6510  -11.7381   26.2381 C   0  0  0  0  0  0  0  0  0  0  0  0
    5.7382  -12.7418   26.0638 C   0  0  0  0  0  0  0  0  0  0  0  0
    6.1512  -14.0524   26.1998 C   0  0  0  0  0  0  0  0  0  0  0  0
    9.7348  -17.3471   26.1373 C   0  0  0  0  0  0  0  0  0  0  0  0
    9.7558  -18.3780   25.4227 O   0  0  0  0  0  0  0  0  0  0  0  0
   10.4005  -17.4300   27.3754 O   0  0  0  0  0  0  0  0  0  0  0  0
  1  2  1  0
  2  3  1  0
  3  5  1  0
  3  4  1  1
  5  6  2  0
  7  8  1  0
  8  9  1  0
  9 10  1  0
 11 10  1  1
 11 13  1  0
 12 11  1  0
 12  5  1  0
 13 14  2  0
 15 13  1  0
 15 16  1  0
 16 24  1  0
 16 17  1  1
 18 17  1  0
 18 19  2  0
 20 19  1  0
 21 20  2  0
 22 23  2  0
 22 21  1  0
 23 18  1  0
 24 25  2  0
 24 26  1  0
M  END
$$$$
