SMF.pdb
     RDKit          3D

 26 26  0  0  1  0  0  0  0  0999 V2000
    8.8078  -19.0769   21.3572 O   0  0  0  0  0  0  0  0  0  0  0  0
    9.0884  -18.5767   20.1102 C   0  0  0  0  0  0  0  0  0  0  0  0
    8.7022  -17.1464   19.9114 C   0  0  2  0  0  0  0  0  0  0  0  0
    9.1533  -16.6606   18.6491 N   0  0  0  0  0  0  0  0  0  0  0  0
    9.1464  -16.3345   21.0652 C   0  0  0  0  0  0  0  0  0  0  0  0
   10.3425  -15.9340   21.0518 O   0  0  0  0  0  0  0  0  0  0  0  0
    6.4925  -11.6398   26.7745 C   0  0  0  0  0  0  0  0  0  0  0  0
    6.2478  -12.8975   25.4835 S   0  0  0  0  0  0  0  0  0  0  0  0
    7.8930  -13.5553   24.9864 C   0  0  0  0  0  0  0  0  0  0  0  0
    7.6379  -14.5293   23.8910 C   0  0  0  0  0  0  0  0  0  0  0  0
    8.8703  -15.1122   23.2419 C   0  0  2  0  0  0  0  0  0  0  0  0
    8.3426  -15.9828   22.1593 N   0  0  0  0  0  0  0  0  0  0  0  0
    9.5859  -15.9499   24.2237 C   0  0  0  0  0  0  0  0  0  0  0  0
    9.0576  -17.0484   24.5695 O   0  0  0  0  0  0  0  0  0  0  0  0
   10.8224  -15.6117   24.8000 N   0  0  0  0  0  0  0  0  0  0  0  0
   11.4697  -16.5516   25.6890 C   0  0  1  0  0  0  0  0  0  0  0  0
   10.4584  -16.8429   26.7985 C   0  0  0  0  0  0  0  0  0  0  0  0
   10.2094  -15.6450   27.6198 C   0  0  0  0  0  0  0  0  0  0  0  0
   11.2517  -14.8816   28.1333 C   0  0  0  0  0  0  0  0  0  0  0  0
   11.0337  -13.7482   28.8922 C   0  0  0  0  0  0  0  0  0  0  0  0
    9.7259  -13.3653   29.1462 C   0  0  0  0  0  0  0  0  0  0  0  0
    8.6754  -14.0921   28.6571 C   0  0  0  0  0  0  0  0  0  0  0  0
    8.9354  -15.2190   27.9025 C   0  0  0  0  0  0  0  0  0  0  0  0
   11.8262  -17.7782   24.9584 C   0  0  0  0  0  0  0  0  0  0  0  0
   12.3432  -18.7761   25.5158 O   0  0  0  0  0  0  0  0  0  0  0  0
   11.5947  -17.8848   23.5735 O   0  0  0  0  0  0  0  0  0  0  0  0
  1  2  1  0
  2  3  1  0
  3  5  1  0
  3  4  1  6
  5  6  2  0
  7  8  1  0
  8  9  1  0
  9 10  1  0
 11 10  1  1
 11 13  1  0
 12 11  1  0
 12  5  1  0
 13 14  2  0
 15 13  1  0
 15 16  1  0
 16 24  1  0
 16 17  1  1
 18 17  1  0
 18 19  2  0
 20 19  1  0
 21 20  2  0
 22 23  2  0
 22 21  1  0
 23 18  1  0
 24 25  2  0
 24 26  1  0
M  END
$$$$
