SMF.pdb
     RDKit          3D

 26 26  0  0  1  0  0  0  0  0999 V2000
   10.4319  -18.7482   20.5354 O   0  0  0  0  0  0  0  0  0  0  0  0
    9.1617  -18.5005   20.0782 C   0  0  0  0  0  0  0  0  0  0  0  0
    8.8014  -17.0522   19.9940 C   0  0  2  0  0  0  0  0  0  0  0  0
    9.5004  -16.4072   18.9317 N   0  0  0  0  0  0  0  0  0  0  0  0
    8.9778  -16.4067   21.3131 C   0  0  0  0  0  0  0  0  0  0  0  0
   10.0363  -15.7422   21.4839 O   0  0  0  0  0  0  0  0  0  0  0  0
    6.5038  -11.7477   25.4685 C   0  0  0  0  0  0  0  0  0  0  0  0
    7.3245  -13.3700   25.4144 S   0  0  0  0  0  0  0  0  0  0  0  0
    6.2802  -14.5229   24.4311 C   0  0  0  0  0  0  0  0  0  0  0  0
    7.0138  -15.8167   24.3904 C   0  0  0  0  0  0  0  0  0  0  0  0
    8.3358  -15.7896   23.6616 C   0  0  2  0  0  0  0  0  0  0  0  0
    8.0635  -16.4800   22.3740 N   0  0  0  0  0  0  0  0  0  0  0  0
    9.3268  -16.5730   24.4245 C   0  0  0  0  0  0  0  0  0  0  0  0
    9.3482  -17.8295   24.2621 O   0  0  0  0  0  0  0  0  0  0  0  0
   10.2562  -16.0158   25.3195 N   0  0  0  0  0  0  0  0  0  0  0  0
   11.3288  -16.8410   25.8309 C   0  0  1  0  0  0  0  0  0  0  0  0
   12.1800  -15.9238   26.7100 C   0  0  0  0  0  0  0  0  0  0  0  0
   11.4062  -15.4185   27.8578 C   0  0  0  0  0  0  0  0  0  0  0  0
   11.4855  -16.0141   29.1116 C   0  0  0  0  0  0  0  0  0  0  0  0
   10.7776  -15.5427   30.2000 C   0  0  0  0  0  0  0  0  0  0  0  0
    9.9612  -14.4357   30.0274 C   0  0  0  0  0  0  0  0  0  0  0  0
    9.8586  -13.8240   28.8083 C   0  0  0  0  0  0  0  0  0  0  0  0
   10.5828  -14.3259   27.7450 C   0  0  0  0  0  0  0  0  0  0  0  0
   10.7792  -17.9633   26.6080 C   0  0  0  0  0  0  0  0  0  0  0  0
    9.5596  -18.0678   26.8826 O   0  0  0  0  0  0  0  0  0  0  0  0
   11.6183  -18.9892   27.0839 O   0  0  0  0  0  0  0  0  0  0  0  0
  1  2  1  0
  2  3  1  0
  3  5  1  0
  3  4  1  6
  5  6  2  0
  7  8  1  0
  8  9  1  0
  9 10  1  0
 11 10  1  1
 11 13  1  0
 12 11  1  0
 12  5  1  0
 13 14  2  0
 15 13  1  0
 15 16  1  0
 16 24  1  0
 16 17  1  1
 18 17  1  0
 18 19  2  0
 20 19  1  0
 21 20  2  0
 22 23  2  0
 22 21  1  0
 23 18  1  0
 24 25  2  0
 24 26  1  0
M  END
$$$$
