SMF.pdb
     RDKit          3D

 26 26  0  0  1  0  0  0  0  0999 V2000
    9.2933  -18.9619   21.0358 O   0  0  0  0  0  0  0  0  0  0  0  0
    8.6324  -18.5539   19.9042 C   0  0  0  0  0  0  0  0  0  0  0  0
    8.3237  -17.0921   19.8561 C   0  0  2  0  0  0  0  0  0  0  0  0
    8.8817  -16.4846   18.6931 N   0  0  0  0  0  0  0  0  0  0  0  0
    8.7223  -16.4461   21.1256 C   0  0  0  0  0  0  0  0  0  0  0  0
    9.9051  -16.0135   21.1966 O   0  0  0  0  0  0  0  0  0  0  0  0
    6.4770  -11.6693   25.5278 C   0  0  0  0  0  0  0  0  0  0  0  0
    5.8669  -13.3740   25.7018 S   0  0  0  0  0  0  0  0  0  0  0  0
    7.2867  -14.5279   25.5038 C   0  0  0  0  0  0  0  0  0  0  0  0
    7.0902  -15.2087   24.1955 C   0  0  0  0  0  0  0  0  0  0  0  0
    8.3544  -15.5259   23.4335 C   0  0  2  0  0  0  0  0  0  0  0  0
    7.8892  -16.2824   22.2419 N   0  0  0  0  0  0  0  0  0  0  0  0
    9.2087  -16.4052   24.2551 C   0  0  0  0  0  0  0  0  0  0  0  0
    8.9866  -17.6523   24.2243 O   0  0  0  0  0  0  0  0  0  0  0  0
   10.2602  -15.9506   25.0693 N   0  0  0  0  0  0  0  0  0  0  0  0
   11.1297  -16.9152   25.7067 C   0  0  1  0  0  0  0  0  0  0  0  0
   12.1131  -16.1007   26.5482 C   0  0  0  0  0  0  0  0  0  0  0  0
   11.4180  -15.3773   27.6275 C   0  0  0  0  0  0  0  0  0  0  0  0
   10.8032  -14.1500   27.4067 C   0  0  0  0  0  0  0  0  0  0  0  0
   10.1356  -13.4674   28.4049 C   0  0  0  0  0  0  0  0  0  0  0  0
   10.0814  -14.0334   29.6691 C   0  0  0  0  0  0  0  0  0  0  0  0
   10.6747  -15.2393   29.9231 C   0  0  0  0  0  0  0  0  0  0  0  0
   11.3325  -15.8902   28.8980 C   0  0  0  0  0  0  0  0  0  0  0  0
   10.3419  -17.8312   26.5469 C   0  0  0  0  0  0  0  0  0  0  0  0
    9.1164  -17.6719   26.7628 O   0  0  0  0  0  0  0  0  0  0  0  0
   10.9445  -18.9494   27.1547 O   0  0  0  0  0  0  0  0  0  0  0  0
  1  2  1  0
  2  3  1  0
  3  5  1  0
  3  4  1  6
  5  6  2  0
  7  8  1  0
  8  9  1  0
  9 10  1  0
 11 10  1  1
 11 13  1  0
 12 11  1  0
 12  5  1  0
 13 14  2  0
 15 13  1  0
 15 16  1  0
 16 24  1  0
 16 17  1  1
 18 17  1  0
 18 19  2  0
 20 19  1  0
 21 20  2  0
 22 23  2  0
 22 21  1  0
 23 18  1  0
 24 25  2  0
 24 26  1  0
M  END
$$$$
