SMF.pdb
     RDKit          3D

 26 26  0  0  1  0  0  0  0  0999 V2000
    6.6026  -18.9552   24.0311 O   0  0  0  0  0  0  0  0  0  0  0  0
    5.7768  -19.2156   22.9662 C   0  0  0  0  0  0  0  0  0  0  0  0
    6.3899  -18.9636   21.6264 C   0  0  2  0  0  0  0  0  0  0  0  0
    6.6499  -20.1857   20.9395 N   0  0  0  0  0  0  0  0  0  0  0  0
    7.5717  -18.0850   21.7650 C   0  0  0  0  0  0  0  0  0  0  0  0
    8.7031  -18.6373   21.6865 O   0  0  0  0  0  0  0  0  0  0  0  0
    8.7967  -12.1236   19.5777 C   0  0  0  0  0  0  0  0  0  0  0  0
    7.1739  -12.6931   20.1699 S   0  0  0  0  0  0  0  0  0  0  0  0
    7.3166  -14.4606   20.6619 C   0  0  0  0  0  0  0  0  0  0  0  0
    8.4127  -14.5258   21.6659 C   0  0  0  0  0  0  0  0  0  0  0  0
    8.7741  -15.9124   22.1419 C   0  0  2  0  0  0  0  0  0  0  0  0
    7.5245  -16.6992   21.9749 N   0  0  0  0  0  0  0  0  0  0  0  0
    9.1179  -15.8590   23.5761 C   0  0  0  0  0  0  0  0  0  0  0  0
   10.1468  -15.2042   23.9198 O   0  0  0  0  0  0  0  0  0  0  0  0
    8.3744  -16.4845   24.5916 N   0  0  0  0  0  0  0  0  0  0  0  0
    8.7940  -16.3385   25.9684 C   0  0  1  0  0  0  0  0  0  0  0  0
    7.5252  -16.0233   26.7617 C   0  0  0  0  0  0  0  0  0  0  0  0
    7.1130  -14.6214   26.5713 C   0  0  0  0  0  0  0  0  0  0  0  0
    7.9794  -13.5641   26.8250 C   0  0  0  0  0  0  0  0  0  0  0  0
    7.6119  -12.2459   26.6372 C   0  0  0  0  0  0  0  0  0  0  0  0
    6.3317  -11.9763   26.1790 C   0  0  0  0  0  0  0  0  0  0  0  0
    5.4524  -12.9912   25.9188 C   0  0  0  0  0  0  0  0  0  0  0  0
    5.8583  -14.2958   26.1194 C   0  0  0  0  0  0  0  0  0  0  0  0
    9.4226  -17.5820   26.4418 C   0  0  0  0  0  0  0  0  0  0  0  0
    9.4920  -18.6192   25.7395 O   0  0  0  0  0  0  0  0  0  0  0  0
    9.9856  -17.6595   27.7301 O   0  0  0  0  0  0  0  0  0  0  0  0
  1  2  1  0
  2  3  1  0
  3  5  1  0
  3  4  1  1
  5  6  2  0
  7  8  1  0
  8  9  1  0
  9 10  1  0
 11 10  1  1
 11 13  1  0
 12 11  1  0
 12  5  1  0
 13 14  2  0
 15 13  1  0
 15 16  1  0
 16 24  1  0
 16 17  1  1
 18 17  1  0
 18 19  2  0
 20 19  1  0
 21 20  2  0
 22 23  2  0
 22 21  1  0
 23 18  1  0
 24 25  2  0
 24 26  1  0
M  END
$$$$
