SMF.pdb
     RDKit          3D

 26 26  0  0  1  0  0  0  0  0999 V2000
    8.8197  -18.6314   20.6844 O   0  0  0  0  0  0  0  0  0  0  0  0
    8.9305  -17.7579   19.6315 C   0  0  0  0  0  0  0  0  0  0  0  0
    8.2134  -16.4601   19.8209 C   0  0  2  0  0  0  0  0  0  0  0  0
    8.4188  -15.5900   18.7100 N   0  0  0  0  0  0  0  0  0  0  0  0
    8.5719  -15.8668   21.1275 C   0  0  0  0  0  0  0  0  0  0  0  0
    9.6911  -15.2898   21.2021 O   0  0  0  0  0  0  0  0  0  0  0  0
    7.2862  -11.5412   25.4615 C   0  0  0  0  0  0  0  0  0  0  0  0
    6.1597  -12.9415   25.7420 S   0  0  0  0  0  0  0  0  0  0  0  0
    7.1388  -14.4991   25.7001 C   0  0  0  0  0  0  0  0  0  0  0  0
    6.9537  -15.0703   24.3388 C   0  0  0  0  0  0  0  0  0  0  0  0
    8.2204  -15.2688   23.5414 C   0  0  2  0  0  0  0  0  0  0  0  0
    7.7662  -15.8999   22.2749 N   0  0  0  0  0  0  0  0  0  0  0  0
    9.1016  -16.2120   24.2569 C   0  0  0  0  0  0  0  0  0  0  0  0
    8.8762  -17.4525   24.1314 O   0  0  0  0  0  0  0  0  0  0  0  0
   10.1822  -15.8249   25.0680 N   0  0  0  0  0  0  0  0  0  0  0  0
   11.0692  -16.8383   25.5963 C   0  0  1  0  0  0  0  0  0  0  0  0
   12.1681  -16.0835   26.3455 C   0  0  0  0  0  0  0  0  0  0  0  0
   11.6132  -15.3215   27.4781 C   0  0  0  0  0  0  0  0  0  0  0  0
   10.9994  -14.0872   27.2976 C   0  0  0  0  0  0  0  0  0  0  0  0
   10.4618  -13.3683   28.3475 C   0  0  0  0  0  0  0  0  0  0  0  0
   10.5414  -13.9040   29.6235 C   0  0  0  0  0  0  0  0  0  0  0  0
   11.1381  -15.1159   29.8388 C   0  0  0  0  0  0  0  0  0  0  0  0
   11.6634  -15.8034   28.7625 C   0  0  0  0  0  0  0  0  0  0  0  0
   10.3320  -17.7380   26.4977 C   0  0  0  0  0  0  0  0  0  0  0  0
    9.1303  -17.5549   26.8080 O   0  0  0  0  0  0  0  0  0  0  0  0
   10.9587  -18.8668   27.0596 O   0  0  0  0  0  0  0  0  0  0  0  0
  1  2  1  0
  2  3  1  0
  3  5  1  0
  3  4  1  6
  5  6  2  0
  7  8  1  0
  8  9  1  0
  9 10  1  0
 11 10  1  1
 11 13  1  0
 12 11  1  0
 12  5  1  0
 13 14  2  0
 15 13  1  0
 15 16  1  0
 16 24  1  0
 16 17  1  1
 18 17  1  0
 18 19  2  0
 20 19  1  0
 21 20  2  0
 22 23  2  0
 22 21  1  0
 23 18  1  0
 24 25  2  0
 24 26  1  0
M  END
$$$$
