SMF.pdb
     RDKit          3D

 26 26  0  0  1  0  0  0  0  0999 V2000
   10.2837  -18.9019   20.2806 O   0  0  0  0  0  0  0  0  0  0  0  0
   10.3041  -17.9042   19.3383 C   0  0  0  0  0  0  0  0  0  0  0  0
    9.3390  -16.7907   19.5891 C   0  0  2  0  0  0  0  0  0  0  0  0
    9.4581  -15.7715   18.5990 N   0  0  0  0  0  0  0  0  0  0  0  0
    9.4756  -16.3024   20.9785 C   0  0  0  0  0  0  0  0  0  0  0  0
   10.4974  -15.6105   21.2401 O   0  0  0  0  0  0  0  0  0  0  0  0
    6.3608  -12.2759   26.1146 C   0  0  0  0  0  0  0  0  0  0  0  0
    6.8681  -13.9955   25.8077 S   0  0  0  0  0  0  0  0  0  0  0  0
    6.7713  -14.3214   23.9991 C   0  0  0  0  0  0  0  0  0  0  0  0
    7.2535  -15.7149   23.8011 C   0  0  0  0  0  0  0  0  0  0  0  0
    8.6772  -15.8453   23.3156 C   0  0  2  0  0  0  0  0  0  0  0  0
    8.5616  -16.5508   22.0127 N   0  0  0  0  0  0  0  0  0  0  0  0
    9.4344  -16.6954   24.2546 C   0  0  0  0  0  0  0  0  0  0  0  0
    9.3313  -17.9529   24.1383 O   0  0  0  0  0  0  0  0  0  0  0  0
   10.2701  -16.2015   25.2711 N   0  0  0  0  0  0  0  0  0  0  0  0
   11.1316  -17.1174   25.9865 C   0  0  1  0  0  0  0  0  0  0  0  0
   12.1293  -16.2446   26.7490 C   0  0  0  0  0  0  0  0  0  0  0  0
   11.4410  -15.3659   27.7111 C   0  0  0  0  0  0  0  0  0  0  0  0
   10.8778  -14.1558   27.3221 C   0  0  0  0  0  0  0  0  0  0  0  0
   10.2170  -13.3288   28.2094 C   0  0  0  0  0  0  0  0  0  0  0  0
   10.1164  -13.7271   29.5333 C   0  0  0  0  0  0  0  0  0  0  0  0
   10.6583  -14.9112   29.9520 C   0  0  0  0  0  0  0  0  0  0  0  0
   11.3109  -15.7098   29.0337 C   0  0  0  0  0  0  0  0  0  0  0  0
   10.3376  -17.9467   26.9070 C   0  0  0  0  0  0  0  0  0  0  0  0
   10.8391  -18.8642   27.6002 O   0  0  0  0  0  0  0  0  0  0  0  0
    8.9525  -17.7383   27.0517 O   0  0  0  0  0  0  0  0  0  0  0  0
  1  2  1  0
  2  3  1  0
  3  5  1  0
  3  4  1  6
  5  6  2  0
  7  8  1  0
  8  9  1  0
  9 10  1  0
 11 10  1  1
 11 13  1  0
 12 11  1  0
 12  5  1  0
 13 14  2  0
 15 13  1  0
 15 16  1  0
 16 24  1  0
 16 17  1  1
 18 17  1  0
 18 19  2  0
 20 19  1  0
 21 20  2  0
 22 23  2  0
 22 21  1  0
 23 18  1  0
 24 25  2  0
 24 26  1  0
M  END
$$$$
