SMF.pdb
     RDKit          3D

 26 26  0  0  1  0  0  0  0  0999 V2000
   10.0339  -18.6969   20.2303 O   0  0  0  0  0  0  0  0  0  0  0  0
    9.4008  -17.6636   19.5860 C   0  0  0  0  0  0  0  0  0  0  0  0
   10.0555  -16.3303   19.7541 C   0  0  2  0  0  0  0  0  0  0  0  0
   11.4264  -16.3757   19.3647 N   0  0  0  0  0  0  0  0  0  0  0  0
    9.8333  -15.8239   21.1260 C   0  0  0  0  0  0  0  0  0  0  0  0
   10.8515  -15.7106   21.8620 O   0  0  0  0  0  0  0  0  0  0  0  0
    7.0106  -12.0284   26.5511 C   0  0  0  0  0  0  0  0  0  0  0  0
    7.5369  -12.6775   24.9354 S   0  0  0  0  0  0  0  0  0  0  0  0
    6.5983  -14.2223   24.5902 C   0  0  0  0  0  0  0  0  0  0  0  0
    7.0054  -14.6607   23.2279 C   0  0  0  0  0  0  0  0  0  0  0  0
    8.4675  -15.0013   23.0665 C   0  0  2  0  0  0  0  0  0  0  0  0
    8.5871  -15.4655   21.6599 N   0  0  0  0  0  0  0  0  0  0  0  0
    8.8085  -16.1176   23.9695 C   0  0  0  0  0  0  0  0  0  0  0  0
    8.3153  -17.2582   23.7220 O   0  0  0  0  0  0  0  0  0  0  0  0
    9.6515  -16.0011   25.0881 N   0  0  0  0  0  0  0  0  0  0  0  0
   10.0825  -17.1979   25.7772 C   0  0  1  0  0  0  0  0  0  0  0  0
   11.2867  -16.7830   26.6235 C   0  0  0  0  0  0  0  0  0  0  0  0
   10.8909  -15.8446   27.6885 C   0  0  0  0  0  0  0  0  0  0  0  0
   10.8391  -16.2330   29.0224 C   0  0  0  0  0  0  0  0  0  0  0  0
   10.4842  -15.3609   30.0331 C   0  0  0  0  0  0  0  0  0  0  0  0
   10.1699  -14.0534   29.6966 C   0  0  0  0  0  0  0  0  0  0  0  0
   10.2102  -13.6358   28.3947 C   0  0  0  0  0  0  0  0  0  0  0  0
   10.5700  -14.5385   27.4135 C   0  0  0  0  0  0  0  0  0  0  0  0
    8.9939  -17.7182   26.6197 C   0  0  0  0  0  0  0  0  0  0  0  0
    7.8736  -17.1601   26.7048 O   0  0  0  0  0  0  0  0  0  0  0  0
    9.1687  -18.8905   27.3800 O   0  0  0  0  0  0  0  0  0  0  0  0
  1  2  1  0
  2  3  1  0
  3  5  1  0
  3  4  1  1
  5  6  2  0
  7  8  1  0
  8  9  1  0
  9 10  1  0
 11 10  1  1
 11 13  1  0
 12 11  1  0
 12  5  1  0
 13 14  2  0
 15 13  1  0
 15 16  1  0
 16 24  1  0
 16 17  1  1
 18 17  1  0
 18 19  2  0
 20 19  1  0
 21 20  2  0
 22 23  2  0
 22 21  1  0
 23 18  1  0
 24 25  2  0
 24 26  1  0
M  END
$$$$
