SMF.pdb
     RDKit          3D

 26 26  0  0  1  0  0  0  0  0999 V2000
    6.7199  -19.4424   24.9403 O   0  0  0  0  0  0  0  0  0  0  0  0
    5.6876  -19.3792   24.0380 C   0  0  0  0  0  0  0  0  0  0  0  0
    6.1136  -19.3440   22.6056 C   0  0  2  0  0  0  0  0  0  0  0  0
    6.4555  -20.6464   22.1366 N   0  0  0  0  0  0  0  0  0  0  0  0
    7.1781  -18.3347   22.4162 C   0  0  0  0  0  0  0  0  0  0  0  0
    8.3501  -18.7695   22.2470 O   0  0  0  0  0  0  0  0  0  0  0  0
    7.0370  -11.7048   19.6454 C   0  0  0  0  0  0  0  0  0  0  0  0
    8.1051  -13.1760   19.7034 S   0  0  0  0  0  0  0  0  0  0  0  0
    8.4120  -13.6085   21.4656 C   0  0  0  0  0  0  0  0  0  0  0  0
    7.4719  -14.7143   21.7924 C   0  0  0  0  0  0  0  0  0  0  0  0
    8.1191  -16.0161   22.2000 C   0  0  2  0  0  0  0  0  0  0  0  0
    6.9797  -16.9465   22.4116 N   0  0  0  0  0  0  0  0  0  0  0  0
    8.8263  -15.8264   23.4813 C   0  0  0  0  0  0  0  0  0  0  0  0
    9.8959  -15.1472   23.4785 O   0  0  0  0  0  0  0  0  0  0  0  0
    8.3883  -16.3468   24.7113 N   0  0  0  0  0  0  0  0  0  0  0  0
    9.1407  -16.0545   25.9117 C   0  0  1  0  0  0  0  0  0  0  0  0
    8.1243  -15.5257   26.9246 C   0  0  0  0  0  0  0  0  0  0  0  0
    7.6475  -14.1830   26.5487 C   0  0  0  0  0  0  0  0  0  0  0  0
    6.3535  -13.9698   26.0872 C   0  0  0  0  0  0  0  0  0  0  0  0
    5.8879  -12.7152   25.7451 C   0  0  0  0  0  0  0  0  0  0  0  0
    6.7482  -11.6353   25.8695 C   0  0  0  0  0  0  0  0  0  0  0  0
    8.0281  -11.8073   26.3203 C   0  0  0  0  0  0  0  0  0  0  0  0
    8.4553  -13.0779   26.6521 C   0  0  0  0  0  0  0  0  0  0  0  0
    9.8005  -17.2733   26.4065 C   0  0  0  0  0  0  0  0  0  0  0  0
    9.6854  -18.3867   25.8400 O   0  0  0  0  0  0  0  0  0  0  0  0
   10.6070  -17.2382   27.5602 O   0  0  0  0  0  0  0  0  0  0  0  0
  1  2  1  0
  2  3  1  0
  3  5  1  0
  3  4  1  1
  5  6  2  0
  7  8  1  0
  8  9  1  0
  9 10  1  0
 11 10  1  1
 11 13  1  0
 12 11  1  0
 12  5  1  0
 13 14  2  0
 15 13  1  0
 15 16  1  0
 16 24  1  0
 16 17  1  1
 18 17  1  0
 18 19  2  0
 20 19  1  0
 21 20  2  0
 22 23  2  0
 22 21  1  0
 23 18  1  0
 24 25  2  0
 24 26  1  0
M  END
$$$$
