SMF.pdb
     RDKit          3D

 26 26  0  0  1  0  0  0  0  0999 V2000
    8.8844  -18.9365   20.1131 O   0  0  0  0  0  0  0  0  0  0  0  0
    7.8429  -18.1627   19.6655 C   0  0  0  0  0  0  0  0  0  0  0  0
    8.1830  -16.7226   19.4536 C   0  0  2  0  0  0  0  0  0  0  0  0
    9.0110  -16.5512   18.3055 N   0  0  0  0  0  0  0  0  0  0  0  0
    8.7433  -16.1444   20.6945 C   0  0  0  0  0  0  0  0  0  0  0  0
    9.9835  -15.9146   20.7051 O   0  0  0  0  0  0  0  0  0  0  0  0
    6.4425  -11.6374   26.0364 C   0  0  0  0  0  0  0  0  0  0  0  0
    6.3358  -13.4484   25.9055 S   0  0  0  0  0  0  0  0  0  0  0  0
    7.8947  -14.0749   25.1546 C   0  0  0  0  0  0  0  0  0  0  0  0
    7.5218  -14.6339   23.8272 C   0  0  0  0  0  0  0  0  0  0  0  0
    8.6591  -15.2278   23.0313 C   0  0  2  0  0  0  0  0  0  0  0  0
    8.0031  -15.8376   21.8454 N   0  0  0  0  0  0  0  0  0  0  0  0
    9.3014  -16.2941   23.8240 C   0  0  0  0  0  0  0  0  0  0  0  0
    8.5840  -17.2627   24.2146 O   0  0  0  0  0  0  0  0  0  0  0  0
   10.6630  -16.3100   24.1722 N   0  0  0  0  0  0  0  0  0  0  0  0
   11.0359  -16.4085   25.5665 C   0  0  1  0  0  0  0  0  0  0  0  0
   10.8344  -15.0109   26.1536 C   0  0  0  0  0  0  0  0  0  0  0  0
   10.8760  -15.0412   27.6262 C   0  0  0  0  0  0  0  0  0  0  0  0
   10.3669  -13.9993   28.3932 C   0  0  0  0  0  0  0  0  0  0  0  0
   10.3856  -14.0202   29.7742 C   0  0  0  0  0  0  0  0  0  0  0  0
   10.9335  -15.1234   30.4102 C   0  0  0  0  0  0  0  0  0  0  0  0
   11.4436  -16.1670   29.6881 C   0  0  0  0  0  0  0  0  0  0  0  0
   11.4059  -16.1077   28.3090 C   0  0  0  0  0  0  0  0  0  0  0  0
   10.1893  -17.3998   26.2493 C   0  0  0  0  0  0  0  0  0  0  0  0
   10.6260  -18.5044   26.6529 O   0  0  0  0  0  0  0  0  0  0  0  0
    8.8250  -17.1423   26.4841 O   0  0  0  0  0  0  0  0  0  0  0  0
  1  2  1  0
  2  3  1  0
  3  5  1  0
  3  4  1  6
  5  6  2  0
  7  8  1  0
  8  9  1  0
  9 10  1  0
 11 10  1  1
 11 13  1  0
 12 11  1  0
 12  5  1  0
 13 14  2  0
 15 13  1  0
 15 16  1  0
 16 24  1  0
 16 17  1  1
 18 17  1  0
 18 19  2  0
 20 19  1  0
 21 20  2  0
 22 23  2  0
 22 21  1  0
 23 18  1  0
 24 25  2  0
 24 26  1  0
M  END
$$$$
