WKE.pdb
     RDKit          3D

 33 34  0  0  1  0  0  0  0  0999 V2000
   24.9117  -19.3245  -11.9372 N   0  0  0  0  0  0  0  0  0  0  0  0
   26.0216  -20.2188  -12.0247 C   0  0  1  0  0  0  0  0  0  0  0  0
   25.9735  -21.3252  -10.9790 C   0  0  0  0  0  0  0  0  0  0  0  0
   26.1257  -20.7405   -9.6068 C   0  0  0  0  0  0  0  0  0  0  0  0
   25.1193  -20.4410   -8.7326 C   0  0  0  0  0  0  0  0  0  0  0  0
   25.6870  -19.9298   -7.6077 N   0  0  0  0  0  0  0  0  0  0  0  0
   27.0182  -19.8999   -7.7502 C   0  0  0  0  0  0  0  0  0  0  0  0
   28.0548  -19.4913   -6.9455 C   0  0  0  0  0  0  0  0  0  0  0  0
   29.3781  -19.5780   -7.3656 C   0  0  0  0  0  0  0  0  0  0  0  0
   29.6474  -20.0834   -8.6119 C   0  0  0  0  0  0  0  0  0  0  0  0
   28.5991  -20.4995   -9.4321 C   0  0  0  0  0  0  0  0  0  0  0  0
   27.3017  -20.4017   -8.9897 C   0  0  0  0  0  0  0  0  0  0  0  0
   26.0625  -20.8223  -13.3732 C   0  0  0  0  0  0  0  0  0  0  0  0
   25.0041  -21.2248  -13.9409 O   0  0  0  0  0  0  0  0  0  0  0  0
   27.2707  -20.9832  -14.0968 N   0  0  0  0  0  0  0  0  0  0  0  0
   27.2430  -21.4671  -15.4775 C   0  0  1  0  0  0  0  0  0  0  0  0
   28.6293  -21.3800  -16.0551 C   0  0  0  0  0  0  0  0  0  0  0  0
   28.6329  -21.8264  -17.4943 C   0  0  0  0  0  0  0  0  0  0  0  0
   30.0079  -21.7109  -18.1058 C   0  0  0  0  0  0  0  0  0  0  0  0
   30.0272  -22.0121  -19.5804 C   0  0  0  0  0  0  0  0  0  0  0  0
   29.7815  -23.4567  -19.7080 N   0  0  0  0  0  0  0  0  0  0  0  0
   26.7966  -22.8860  -15.5050 C   0  0  0  0  0  0  0  0  0  0  0  0
   27.3462  -23.7155  -14.7237 O   0  0  0  0  0  0  0  0  0  0  0  0
   25.7885  -23.3817  -16.3518 N   0  0  0  0  0  0  0  0  0  0  0  0
   25.2858  -24.7660  -16.2803 C   0  0  1  0  0  0  0  0  0  0  0  0
   24.0852  -24.8639  -17.1755 C   0  0  0  0  0  0  0  0  0  0  0  0
   23.5341  -26.2539  -17.2489 C   0  0  0  0  0  0  0  0  0  0  0  0
   22.4656  -26.3877  -18.2570 C   0  0  0  0  0  0  0  0  0  0  0  0
   22.0372  -25.4388  -18.9444 O   0  0  0  0  0  0  0  0  0  0  0  0
   26.3891  -25.6736  -16.6784 C   0  0  0  0  0  0  0  0  0  0  0  0
   26.6289  -26.8069  -15.9294 O   0  0  0  0  0  0  0  0  0  0  0  0
   21.8852  -27.6304  -18.4738 O   0  0  0  0  0  0  0  0  0  0  0  0
   27.1219  -25.4684  -17.6638 O   0  0  0  0  0  0  0  0  0  0  0  0
  2  1  1  6
  3  2  1  0
  4  5  2  0
  4  3  1  0
  6  5  1  0
  7 12  2  0
  7  6  1  0
  8  7  1  0
  9 10  1  0
  9  8  2  0
 10 11  2  0
 11 12  1  0
 12  4  1  0
 13 14  2  0
 13  2  1  0
 15 13  1  0
 16 15  1  0
 16 17  1  1
 18 17  1  0
 19 18  1  0
 20 19  1  0
 20 21  1  0
 22 16  1  0
 23 22  2  0
 24 22  1  0
 25 30  1  0
 25 24  1  0
 25 26  1  6
 27 26  1  0
 28 27  1  0
 29 28  2  0
 30 31  1  0
 32 28  1  0
 33 30  2  0
M  END
$$$$
