WKE.pdb
     RDKit          3D

 33 34  0  0  1  0  0  0  0  0999 V2000
   27.3907  -18.9513   -9.5742 N   0  0  0  0  0  0  0  0  0  0  0  0
   26.9251  -20.2993   -9.5010 C   0  0  1  0  0  0  0  0  0  0  0  0
   26.3095  -20.6399   -8.1501 C   0  0  0  0  0  0  0  0  0  0  0  0
   26.9589  -19.8261   -7.0712 C   0  0  0  0  0  0  0  0  0  0  0  0
   26.6626  -18.5357   -6.7339 C   0  0  0  0  0  0  0  0  0  0  0  0
   27.4820  -18.1773   -5.7096 N   0  0  0  0  0  0  0  0  0  0  0  0
   28.2825  -19.2035   -5.3947 C   0  0  0  0  0  0  0  0  0  0  0  0
   29.2754  -19.3877   -4.4624 C   0  0  0  0  0  0  0  0  0  0  0  0
   29.9595  -20.5945   -4.3585 C   0  0  0  0  0  0  0  0  0  0  0  0
   29.6308  -21.6194   -5.2087 C   0  0  0  0  0  0  0  0  0  0  0  0
   28.6240  -21.4375   -6.1564 C   0  0  0  0  0  0  0  0  0  0  0  0
   27.9656  -20.2339   -6.2353 C   0  0  0  0  0  0  0  0  0  0  0  0
   25.9274  -20.5341  -10.5658 C   0  0  0  0  0  0  0  0  0  0  0  0
   24.6882  -20.5614  -10.3051 O   0  0  0  0  0  0  0  0  0  0  0  0
   26.2954  -20.7398  -11.9193 N   0  0  0  0  0  0  0  0  0  0  0  0
   25.3927  -20.3346  -12.9973 C   0  0  1  0  0  0  0  0  0  0  0  0
   26.1253  -20.4210  -14.3083 C   0  0  0  0  0  0  0  0  0  0  0  0
   27.0146  -21.6371  -14.3393 C   0  0  0  0  0  0  0  0  0  0  0  0
   27.6843  -21.7985  -15.6822 C   0  0  0  0  0  0  0  0  0  0  0  0
   28.5678  -23.0145  -15.7609 C   0  0  0  0  0  0  0  0  0  0  0  0
   29.2595  -22.9369  -17.0566 N   0  0  0  0  0  0  0  0  0  0  0  0
   24.2178  -21.2463  -13.0396 C   0  0  0  0  0  0  0  0  0  0  0  0
   24.3812  -22.4685  -12.7559 O   0  0  0  0  0  0  0  0  0  0  0  0
   22.9137  -20.8409  -13.3776 N   0  0  0  0  0  0  0  0  0  0  0  0
   21.7410  -21.7277  -13.2670 C   0  0  1  0  0  0  0  0  0  0  0  0
   20.6037  -20.9164  -12.7184 C   0  0  0  0  0  0  0  0  0  0  0  0
   19.2866  -21.2881  -13.3252 C   0  0  0  0  0  0  0  0  0  0  0  0
   18.1688  -20.4910  -12.7860 C   0  0  0  0  0  0  0  0  0  0  0  0
   16.9794  -20.6408  -13.1316 O   0  0  0  0  0  0  0  0  0  0  0  0
   21.4649  -22.2896  -14.6114 C   0  0  0  0  0  0  0  0  0  0  0  0
   20.6974  -23.4309  -14.7169 O   0  0  0  0  0  0  0  0  0  0  0  0
   18.4267  -19.5102  -11.8375 O   0  0  0  0  0  0  0  0  0  0  0  0
   21.8923  -21.7831  -15.6655 O   0  0  0  0  0  0  0  0  0  0  0  0
  2  1  1  1
  3  2  1  0
  4  5  2  0
  4  3  1  0
  6  5  1  0
  7 12  2  0
  7  6  1  0
  8  7  1  0
  9 10  1  0
  9  8  2  0
 10 11  2  0
 11 12  1  0
 12  4  1  0
 13 14  2  0
 13  2  1  0
 15 13  1  0
 16 15  1  0
 16 17  1  6
 18 17  1  0
 19 18  1  0
 20 19  1  0
 20 21  1  0
 22 16  1  0
 23 22  2  0
 24 22  1  0
 25 30  1  0
 25 24  1  0
 25 26  1  6
 27 26  1  0
 28 27  1  0
 29 28  2  0
 30 31  1  0
 32 28  1  0
 33 30  2  0
M  END
$$$$
