WKE.pdb
     RDKit          3D

 33 34  0  0  1  0  0  0  0  0999 V2000
   23.6475  -15.6570  -18.5984 N   0  0  0  0  0  0  0  0  0  0  0  0
   24.6308  -16.0163  -17.6271 C   0  0  1  0  0  0  0  0  0  0  0  0
   24.5694  -15.1510  -16.3752 C   0  0  0  0  0  0  0  0  0  0  0  0
   25.1197  -13.7872  -16.6674 C   0  0  0  0  0  0  0  0  0  0  0  0
   24.3988  -12.6580  -16.9356 C   0  0  0  0  0  0  0  0  0  0  0  0
   25.2805  -11.6442  -17.1445 N   0  0  0  0  0  0  0  0  0  0  0  0
   26.5318  -12.1035  -17.0154 C   0  0  0  0  0  0  0  0  0  0  0  0
   27.7751  -11.5269  -17.1191 C   0  0  0  0  0  0  0  0  0  0  0  0
   28.9373  -12.2673  -16.9292 C   0  0  0  0  0  0  0  0  0  0  0  0
   28.8330  -13.6024  -16.6323 C   0  0  0  0  0  0  0  0  0  0  0  0
   27.5737  -14.1920  -16.5258 C   0  0  0  0  0  0  0  0  0  0  0  0
   26.4433  -13.4349  -16.7187 C   0  0  0  0  0  0  0  0  0  0  0  0
   24.4552  -17.4345  -17.2500 C   0  0  0  0  0  0  0  0  0  0  0  0
   23.3029  -17.9161  -17.0384 O   0  0  0  0  0  0  0  0  0  0  0  0
   25.5503  -18.3230  -17.1053 N   0  0  0  0  0  0  0  0  0  0  0  0
   25.3167  -19.7383  -16.8161 C   0  0  1  0  0  0  0  0  0  0  0  0
   26.6193  -20.4825  -16.9271 C   0  0  0  0  0  0  0  0  0  0  0  0
   26.3891  -21.9692  -16.8423 C   0  0  0  0  0  0  0  0  0  0  0  0
   27.6837  -22.7368  -16.9571 C   0  0  0  0  0  0  0  0  0  0  0  0
   27.4812  -24.2219  -17.0949 C   0  0  0  0  0  0  0  0  0  0  0  0
   28.8252  -24.8145  -17.1715 N   0  0  0  0  0  0  0  0  0  0  0  0
   24.7905  -19.8894  -15.4327 C   0  0  0  0  0  0  0  0  0  0  0  0
   25.3678  -19.2767  -14.4882 O   0  0  0  0  0  0  0  0  0  0  0  0
   23.6765  -20.6781  -15.0920 N   0  0  0  0  0  0  0  0  0  0  0  0
   23.1099  -20.7257  -13.7315 C   0  0  1  0  0  0  0  0  0  0  0  0
   21.6190  -20.6024  -13.8520 C   0  0  0  0  0  0  0  0  0  0  0  0
   20.9232  -20.7228  -12.5320 C   0  0  0  0  0  0  0  0  0  0  0  0
   19.4606  -20.5690  -12.6458 C   0  0  0  0  0  0  0  0  0  0  0  0
   18.6389  -21.2461  -11.9957 O   0  0  0  0  0  0  0  0  0  0  0  0
   23.5436  -21.9958  -13.1004 C   0  0  0  0  0  0  0  0  0  0  0  0
   23.6422  -22.0627  -11.7262 O   0  0  0  0  0  0  0  0  0  0  0  0
   18.9410  -19.6234  -13.5199 O   0  0  0  0  0  0  0  0  0  0  0  0
   23.8280  -23.0198  -13.7492 O   0  0  0  0  0  0  0  0  0  0  0  0
  2  1  1  6
  3  2  1  0
  4  5  2  0
  4  3  1  0
  6  5  1  0
  7 12  2  0
  7  6  1  0
  8  7  1  0
  9 10  1  0
  9  8  2  0
 10 11  2  0
 11 12  1  0
 12  4  1  0
 13 14  2  0
 13  2  1  0
 15 13  1  0
 16 15  1  0
 16 17  1  1
 18 17  1  0
 19 18  1  0
 20 19  1  0
 20 21  1  0
 22 16  1  0
 23 22  2  0
 24 22  1  0
 25 30  1  0
 25 24  1  0
 25 26  1  6
 27 26  1  0
 28 27  1  0
 29 28  2  0
 30 31  1  0
 32 28  1  0
 33 30  2  0
M  END
$$$$
