WKE.pdb
     RDKit          3D

 33 34  0  0  1  0  0  0  0  0999 V2000
   26.4716  -18.3937   -8.9613 N   0  0  0  0  0  0  0  0  0  0  0  0
   26.7139  -19.7936   -9.1052 C   0  0  1  0  0  0  0  0  0  0  0  0
   26.2699  -20.5986   -7.8907 C   0  0  0  0  0  0  0  0  0  0  0  0
   26.9597  -20.0916   -6.6598 C   0  0  0  0  0  0  0  0  0  0  0  0
   26.4490  -19.2195   -5.7404 C   0  0  0  0  0  0  0  0  0  0  0  0
   27.3973  -19.0224   -4.7859 N   0  0  0  0  0  0  0  0  0  0  0  0
   28.4865  -19.7443   -5.0791 C   0  0  0  0  0  0  0  0  0  0  0  0
   29.7085  -19.9160   -4.4739 C   0  0  0  0  0  0  0  0  0  0  0  0
   30.6779  -20.7517   -5.0189 C   0  0  0  0  0  0  0  0  0  0  0  0
   30.4016  -21.4160   -6.1867 C   0  0  0  0  0  0  0  0  0  0  0  0
   29.1630  -21.2452   -6.8045 C   0  0  0  0  0  0  0  0  0  0  0  0
   28.2251  -20.4129   -6.2424 C   0  0  0  0  0  0  0  0  0  0  0  0
   26.0124  -20.2938  -10.3061 C   0  0  0  0  0  0  0  0  0  0  0  0
   24.7794  -20.0654  -10.4848 O   0  0  0  0  0  0  0  0  0  0  0  0
   26.6700  -21.0471  -11.3109 N   0  0  0  0  0  0  0  0  0  0  0  0
   26.2793  -20.9022  -12.7136 C   0  0  1  0  0  0  0  0  0  0  0  0
   27.3748  -21.4508  -13.5865 C   0  0  0  0  0  0  0  0  0  0  0  0
   26.9742  -21.3946  -15.0380 C   0  0  0  0  0  0  0  0  0  0  0  0
   27.3722  -20.0837  -15.6713 C   0  0  0  0  0  0  0  0  0  0  0  0
   27.0252  -20.0031  -17.1337 C   0  0  0  0  0  0  0  0  0  0  0  0
   27.5328  -18.7058  -17.6057 N   0  0  0  0  0  0  0  0  0  0  0  0
   25.0291  -21.6668  -12.9697 C   0  0  0  0  0  0  0  0  0  0  0  0
   25.0001  -22.9017  -12.6957 O   0  0  0  0  0  0  0  0  0  0  0  0
   23.8544  -21.1063  -13.5037 N   0  0  0  0  0  0  0  0  0  0  0  0
   22.6000  -21.8650  -13.6612 C   0  0  1  0  0  0  0  0  0  0  0  0
   21.4602  -20.9246  -13.3985 C   0  0  0  0  0  0  0  0  0  0  0  0
   20.1241  -21.5783  -13.5682 C   0  0  0  0  0  0  0  0  0  0  0  0
   19.0038  -20.6482  -13.3331 C   0  0  0  0  0  0  0  0  0  0  0  0
   18.5895  -19.8323  -14.1811 O   0  0  0  0  0  0  0  0  0  0  0  0
   22.5824  -22.4395  -15.0283 C   0  0  0  0  0  0  0  0  0  0  0  0
   22.0480  -23.6966  -15.2210 O   0  0  0  0  0  0  0  0  0  0  0  0
   18.3546  -20.6598  -12.1057 O   0  0  0  0  0  0  0  0  0  0  0  0
   23.0286  -21.8439  -16.0265 O   0  0  0  0  0  0  0  0  0  0  0  0
  2  1  1  1
  3  2  1  0
  4  5  2  0
  4  3  1  0
  6  5  1  0
  7 12  2  0
  7  6  1  0
  8  7  1  0
  9 10  1  0
  9  8  2  0
 10 11  2  0
 11 12  1  0
 12  4  1  0
 13 14  2  0
 13  2  1  0
 15 13  1  0
 16 15  1  0
 16 17  1  6
 18 17  1  0
 19 18  1  0
 20 19  1  0
 20 21  1  0
 22 16  1  0
 23 22  2  0
 24 22  1  0
 25 30  1  0
 25 24  1  0
 25 26  1  6
 27 26  1  0
 28 27  1  0
 29 28  2  0
 30 31  1  0
 32 28  1  0
 33 30  2  0
M  END
$$$$
