WKE.pdb
     RDKit          3D

 33 34  0  0  1  0  0  0  0  0999 V2000
   25.3904  -21.9362   -9.1171 N   0  0  0  0  0  0  0  0  0  0  0  0
   25.6561  -20.5441   -9.2925 C   0  0  1  0  0  0  0  0  0  0  0  0
   27.0646  -20.1524   -8.8650 C   0  0  0  0  0  0  0  0  0  0  0  0
   27.2470  -20.4142   -7.4001 C   0  0  0  0  0  0  0  0  0  0  0  0
   26.5943  -21.3535   -6.6528 C   0  0  0  0  0  0  0  0  0  0  0  0
   27.0512  -21.2566   -5.3757 N   0  0  0  0  0  0  0  0  0  0  0  0
   27.9701  -20.2855   -5.2999 C   0  0  0  0  0  0  0  0  0  0  0  0
   28.7356  -19.7740   -4.2793 C   0  0  0  0  0  0  0  0  0  0  0  0
   29.6335  -18.7339   -4.4959 C   0  0  0  0  0  0  0  0  0  0  0  0
   29.7525  -18.2115   -5.7585 C   0  0  0  0  0  0  0  0  0  0  0  0
   28.9781  -18.7271   -6.7974 C   0  0  0  0  0  0  0  0  0  0  0  0
   28.0996  -19.7551   -6.5531 C   0  0  0  0  0  0  0  0  0  0  0  0
   25.4567  -20.1797  -10.7108 C   0  0  0  0  0  0  0  0  0  0  0  0
   25.6397  -18.9922  -11.1119 O   0  0  0  0  0  0  0  0  0  0  0  0
   25.0546  -21.1243  -11.6883 N   0  0  0  0  0  0  0  0  0  0  0  0
   24.7019  -20.6823  -13.0379 C   0  0  1  0  0  0  0  0  0  0  0  0
   25.3240  -21.6180  -14.0381 C   0  0  0  0  0  0  0  0  0  0  0  0
   26.7293  -21.1847  -14.3667 C   0  0  0  0  0  0  0  0  0  0  0  0
   27.3674  -22.1007  -15.3824 C   0  0  0  0  0  0  0  0  0  0  0  0
   28.7801  -21.7112  -15.7260 C   0  0  0  0  0  0  0  0  0  0  0  0
   29.2858  -22.7550  -16.6306 N   0  0  0  0  0  0  0  0  0  0  0  0
   23.2240  -20.7084  -13.2062 C   0  0  0  0  0  0  0  0  0  0  0  0
   22.5718  -21.6852  -12.7357 O   0  0  0  0  0  0  0  0  0  0  0  0
   22.4847  -19.7071  -13.8619 N   0  0  0  0  0  0  0  0  0  0  0  0
   21.0266  -19.7864  -14.0661 C   0  0  1  0  0  0  0  0  0  0  0  0
   20.5897  -18.5205  -14.7435 C   0  0  0  0  0  0  0  0  0  0  0  0
   21.3156  -18.2763  -16.0299 C   0  0  0  0  0  0  0  0  0  0  0  0
   20.5948  -17.3468  -16.9201 C   0  0  0  0  0  0  0  0  0  0  0  0
   21.0377  -16.9535  -18.0180 O   0  0  0  0  0  0  0  0  0  0  0  0
   20.7425  -21.0051  -14.8621 C   0  0  0  0  0  0  0  0  0  0  0  0
   21.6105  -21.3640  -15.8723 O   0  0  0  0  0  0  0  0  0  0  0  0
   19.3492  -16.8661  -16.5385 O   0  0  0  0  0  0  0  0  0  0  0  0
   19.7514  -21.7332  -14.6681 O   0  0  0  0  0  0  0  0  0  0  0  0
  2  1  1  6
  3  2  1  0
  4  5  2  0
  4  3  1  0
  6  5  1  0
  7 12  2  0
  7  6  1  0
  8  7  1  0
  9 10  1  0
  9  8  2  0
 10 11  2  0
 11 12  1  0
 12  4  1  0
 13 14  2  0
 13  2  1  0
 15 13  1  0
 16 15  1  0
 16 17  1  6
 18 17  1  0
 19 18  1  0
 20 19  1  0
 20 21  1  0
 22 16  1  0
 23 22  2  0
 24 22  1  0
 25 30  1  0
 25 24  1  0
 25 26  1  6
 27 26  1  0
 28 27  1  0
 29 28  2  0
 30 31  1  0
 32 28  1  0
 33 30  2  0
M  END
$$$$
