WKE.pdb
     RDKit          3D

 33 34  0  0  1  0  0  0  0  0999 V2000
   27.2550  -19.3406  -11.1816 N   0  0  0  0  0  0  0  0  0  0  0  0
   26.6414  -20.6003  -10.9062 C   0  0  1  0  0  0  0  0  0  0  0  0
   26.0376  -20.6714   -9.5097 C   0  0  0  0  0  0  0  0  0  0  0  0
   27.0811  -20.3475   -8.4830 C   0  0  0  0  0  0  0  0  0  0  0  0
   26.9859  -19.4125   -7.4913 C   0  0  0  0  0  0  0  0  0  0  0  0
   28.1481  -19.4377   -6.7860 N   0  0  0  0  0  0  0  0  0  0  0  0
   28.9687  -20.3599   -7.3052 C   0  0  0  0  0  0  0  0  0  0  0  0
   30.2352  -20.7934   -6.9940 C   0  0  0  0  0  0  0  0  0  0  0  0
   30.8606  -21.7962   -7.7279 C   0  0  0  0  0  0  0  0  0  0  0  0
   30.1926  -22.3604   -8.7847 C   0  0  0  0  0  0  0  0  0  0  0  0
   28.9072  -21.9240   -9.1044 C   0  0  0  0  0  0  0  0  0  0  0  0
   28.3151  -20.9315   -8.3610 C   0  0  0  0  0  0  0  0  0  0  0  0
   25.5876  -20.8643  -11.9083 C   0  0  0  0  0  0  0  0  0  0  0  0
   24.7622  -19.9629  -12.2409 O   0  0  0  0  0  0  0  0  0  0  0  0
   25.4426  -22.1229  -12.5441 N   0  0  0  0  0  0  0  0  0  0  0  0
   24.4215  -22.3136  -13.5748 C   0  0  1  0  0  0  0  0  0  0  0  0
   24.6132  -23.6635  -14.2105 C   0  0  0  0  0  0  0  0  0  0  0  0
   23.6711  -23.8403  -15.3732 C   0  0  0  0  0  0  0  0  0  0  0  0
   23.7674  -25.2289  -15.9569 C   0  0  0  0  0  0  0  0  0  0  0  0
   22.8723  -25.4331  -17.1496 C   0  0  0  0  0  0  0  0  0  0  0  0
   23.1095  -26.8096  -17.6105 N   0  0  0  0  0  0  0  0  0  0  0  0
   23.0682  -22.2574  -12.9593 C   0  0  0  0  0  0  0  0  0  0  0  0
   22.8570  -22.8938  -11.8865 O   0  0  0  0  0  0  0  0  0  0  0  0
   21.9860  -21.5339  -13.4930 N   0  0  0  0  0  0  0  0  0  0  0  0
   20.6720  -21.4451  -12.8300 C   0  0  1  0  0  0  0  0  0  0  0  0
   20.0291  -20.1585  -13.2585 C   0  0  0  0  0  0  0  0  0  0  0  0
   19.5193  -20.2106  -14.6652 C   0  0  0  0  0  0  0  0  0  0  0  0
   18.1653  -19.6411  -14.7990 C   0  0  0  0  0  0  0  0  0  0  0  0
   17.5088  -19.1798  -13.8437 O   0  0  0  0  0  0  0  0  0  0  0  0
   19.8880  -22.6461  -13.2074 C   0  0  0  0  0  0  0  0  0  0  0  0
   20.2202  -23.3297  -14.3585 O   0  0  0  0  0  0  0  0  0  0  0  0
   17.5623  -19.6038  -16.0493 O   0  0  0  0  0  0  0  0  0  0  0  0
   18.9334  -23.0789  -12.5352 O   0  0  0  0  0  0  0  0  0  0  0  0
  2  1  1  6
  3  2  1  0
  4  5  2  0
  4  3  1  0
  6  5  1  0
  7 12  2  0
  7  6  1  0
  8  7  1  0
  9 10  1  0
  9  8  2  0
 10 11  2  0
 11 12  1  0
 12  4  1  0
 13 14  2  0
 13  2  1  0
 15 13  1  0
 16 15  1  0
 16 17  1  1
 18 17  1  0
 19 18  1  0
 20 19  1  0
 20 21  1  0
 22 16  1  0
 23 22  2  0
 24 22  1  0
 25 30  1  0
 25 24  1  0
 25 26  1  6
 27 26  1  0
 28 27  1  0
 29 28  2  0
 30 31  1  0
 32 28  1  0
 33 30  2  0
M  END
$$$$
