WKE.pdb
     RDKit          3D

 33 34  0  0  1  0  0  0  0  0999 V2000
   25.7016  -18.7902   -8.6483 N   0  0  0  0  0  0  0  0  0  0  0  0
   26.4307  -19.8605   -9.2500 C   0  0  1  0  0  0  0  0  0  0  0  0
   26.2994  -21.1701   -8.4834 C   0  0  0  0  0  0  0  0  0  0  0  0
   26.6180  -20.9502   -7.0349 C   0  0  0  0  0  0  0  0  0  0  0  0
   25.7953  -21.1992   -5.9729 C   0  0  0  0  0  0  0  0  0  0  0  0
   26.4677  -20.8605   -4.8405 N   0  0  0  0  0  0  0  0  0  0  0  0
   27.6863  -20.4069   -5.1605 C   0  0  0  0  0  0  0  0  0  0  0  0
   28.7531  -19.9411   -4.4297 C   0  0  0  0  0  0  0  0  0  0  0  0
   29.9286  -19.5238   -5.0455 C   0  0  0  0  0  0  0  0  0  0  0  0
   30.0183  -19.5810   -6.4129 C   0  0  0  0  0  0  0  0  0  0  0  0
   28.9387  -20.0530   -7.1589 C   0  0  0  0  0  0  0  0  0  0  0  0
   27.7902  -20.4585   -6.5225 C   0  0  0  0  0  0  0  0  0  0  0  0
   25.9612  -20.0572  -10.6375 C   0  0  0  0  0  0  0  0  0  0  0  0
   24.7434  -19.8921  -10.9445 O   0  0  0  0  0  0  0  0  0  0  0  0
   26.8341  -20.4369  -11.6879 N   0  0  0  0  0  0  0  0  0  0  0  0
   26.5241  -20.0724  -13.0708 C   0  0  1  0  0  0  0  0  0  0  0  0
   27.7814  -20.1541  -13.8926 C   0  0  0  0  0  0  0  0  0  0  0  0
   27.5300  -19.6658  -15.2958 C   0  0  0  0  0  0  0  0  0  0  0  0
   28.7747  -19.7571  -16.1446 C   0  0  0  0  0  0  0  0  0  0  0  0
   28.6030  -19.1560  -17.5138 C   0  0  0  0  0  0  0  0  0  0  0  0
   29.9207  -19.2298  -18.1632 N   0  0  0  0  0  0  0  0  0  0  0  0
   25.5204  -21.0188  -13.6280 C   0  0  0  0  0  0  0  0  0  0  0  0
   25.7889  -22.2551  -13.6454 O   0  0  0  0  0  0  0  0  0  0  0  0
   24.2710  -20.6320  -14.1462 N   0  0  0  0  0  0  0  0  0  0  0  0
   23.2554  -21.5982  -14.6038 C   0  0  1  0  0  0  0  0  0  0  0  0
   21.9082  -20.9567  -14.4430 C   0  0  0  0  0  0  0  0  0  0  0  0
   20.7947  -21.8240  -14.9420 C   0  0  0  0  0  0  0  0  0  0  0  0
   19.8264  -22.1684  -13.8840 C   0  0  0  0  0  0  0  0  0  0  0  0
   19.0096  -21.3588  -13.4005 O   0  0  0  0  0  0  0  0  0  0  0  0
   23.5686  -21.9594  -16.0076 C   0  0  0  0  0  0  0  0  0  0  0  0
   23.2959  -23.2379  -16.4482 O   0  0  0  0  0  0  0  0  0  0  0  0
   19.8008  -23.4614  -13.3785 O   0  0  0  0  0  0  0  0  0  0  0  0
   24.0707  -21.1637  -16.8230 O   0  0  0  0  0  0  0  0  0  0  0  0
  2  1  1  1
  3  2  1  0
  4  5  2  0
  4  3  1  0
  6  5  1  0
  7 12  2  0
  7  6  1  0
  8  7  1  0
  9 10  1  0
  9  8  2  0
 10 11  2  0
 11 12  1  0
 12  4  1  0
 13 14  2  0
 13  2  1  0
 15 13  1  0
 16 15  1  0
 16 17  1  6
 18 17  1  0
 19 18  1  0
 20 19  1  0
 20 21  1  0
 22 16  1  0
 23 22  2  0
 24 22  1  0
 25 30  1  0
 25 24  1  0
 25 26  1  6
 27 26  1  0
 28 27  1  0
 29 28  2  0
 30 31  1  0
 32 28  1  0
 33 30  2  0
M  END
$$$$
