WKE.pdb
     RDKit          3D

 33 34  0  0  1  0  0  0  0  0999 V2000
   21.5112  -14.2135  -19.2233 N   0  0  0  0  0  0  0  0  0  0  0  0
   20.7269  -13.2506  -18.5182 C   0  0  1  0  0  0  0  0  0  0  0  0
   20.9497  -13.2948  -17.0121 C   0  0  0  0  0  0  0  0  0  0  0  0
   20.8450  -14.7071  -16.5198 C   0  0  0  0  0  0  0  0  0  0  0  0
   19.7525  -15.5226  -16.6101 C   0  0  0  0  0  0  0  0  0  0  0  0
   20.0779  -16.7145  -16.0421 N   0  0  0  0  0  0  0  0  0  0  0  0
   21.3407  -16.6708  -15.5987 C   0  0  0  0  0  0  0  0  0  0  0  0
   22.1593  -17.5716  -14.9603 C   0  0  0  0  0  0  0  0  0  0  0  0
   23.4646  -17.2440  -14.6080 C   0  0  0  0  0  0  0  0  0  0  0  0
   23.9389  -15.9923  -14.9071 C   0  0  0  0  0  0  0  0  0  0  0  0
   23.1122  -15.0747  -15.5549 C   0  0  0  0  0  0  0  0  0  0  0  0
   21.8271  -15.4271  -15.8907 C   0  0  0  0  0  0  0  0  0  0  0  0
   21.0425  -11.8965  -19.0193 C   0  0  0  0  0  0  0  0  0  0  0  0
   22.2422  -11.5158  -19.1613 O   0  0  0  0  0  0  0  0  0  0  0  0
   20.0352  -10.9604  -19.3637 N   0  0  0  0  0  0  0  0  0  0  0  0
   20.4008   -9.6542  -19.9127 C   0  0  1  0  0  0  0  0  0  0  0  0
   19.2819   -9.1603  -20.7886 C   0  0  0  0  0  0  0  0  0  0  0  0
   19.2246   -9.9498  -22.0708 C   0  0  0  0  0  0  0  0  0  0  0  0
   20.4713   -9.7520  -22.8983 C   0  0  0  0  0  0  0  0  0  0  0  0
   20.3772  -10.3697  -24.2677 C   0  0  0  0  0  0  0  0  0  0  0  0
   21.6869  -10.1609  -24.9036 N   0  0  0  0  0  0  0  0  0  0  0  0
   20.6115   -8.6835  -18.8051 C   0  0  0  0  0  0  0  0  0  0  0  0
   20.9014   -7.4851  -19.0887 O   0  0  0  0  0  0  0  0  0  0  0  0
   20.5093   -9.0071  -17.4398 N   0  0  0  0  0  0  0  0  0  0  0  0
   20.7415   -8.0288  -16.3612 C   0  0  1  0  0  0  0  0  0  0  0  0
   22.0304   -8.3921  -15.6835 C   0  0  0  0  0  0  0  0  0  0  0  0
   22.3537   -7.4843  -14.5378 C   0  0  0  0  0  0  0  0  0  0  0  0
   21.6387   -7.8544  -13.3019 C   0  0  0  0  0  0  0  0  0  0  0  0
   20.7055   -7.1860  -12.8133 O   0  0  0  0  0  0  0  0  0  0  0  0
   20.7597   -6.6757  -16.9681 C   0  0  0  0  0  0  0  0  0  0  0  0
   20.2322   -5.6158  -16.2603 O   0  0  0  0  0  0  0  0  0  0  0  0
   22.0050   -9.0086  -12.6224 O   0  0  0  0  0  0  0  0  0  0  0  0
   21.2306   -6.4382  -18.0960 O   0  0  0  0  0  0  0  0  0  0  0  0
  2  1  1  6
  3  2  1  0
  4  5  2  0
  4  3  1  0
  6  5  1  0
  7 12  2  0
  7  6  1  0
  8  7  1  0
  9 10  1  0
  9  8  2  0
 10 11  2  0
 11 12  1  0
 12  4  1  0
 13 14  2  0
 13  2  1  0
 15 13  1  0
 16 15  1  0
 16 17  1  6
 18 17  1  0
 19 18  1  0
 20 19  1  0
 20 21  1  0
 22 16  1  0
 23 22  2  0
 24 22  1  0
 25 30  1  0
 25 24  1  0
 25 26  1  6
 27 26  1  0
 28 27  1  0
 29 28  2  0
 30 31  1  0
 32 28  1  0
 33 30  2  0
M  END
$$$$
