WKE.pdb
     RDKit          3D

 33 34  0  0  1  0  0  0  0  0999 V2000
   26.2101  -18.5802   -8.6584 N   0  0  0  0  0  0  0  0  0  0  0  0
   26.6084  -19.8918   -9.0587 C   0  0  1  0  0  0  0  0  0  0  0  0
   26.2603  -20.9565   -8.0267 C   0  0  0  0  0  0  0  0  0  0  0  0
   26.7792  -20.5530   -6.6791 C   0  0  0  0  0  0  0  0  0  0  0  0
   26.0583  -19.9924   -5.6628 C   0  0  0  0  0  0  0  0  0  0  0  0
   26.9067  -19.7812   -4.6214 N   0  0  0  0  0  0  0  0  0  0  0  0
   28.1370  -20.1923   -4.9539 C   0  0  0  0  0  0  0  0  0  0  0  0
   29.3452  -20.2135   -4.2991 C   0  0  0  0  0  0  0  0  0  0  0  0
   30.4925  -20.7124   -4.9074 C   0  0  0  0  0  0  0  0  0  0  0  0
   30.4090  -21.1922   -6.1896 C   0  0  0  0  0  0  0  0  0  0  0  0
   29.1853  -21.1730   -6.8583 C   0  0  0  0  0  0  0  0  0  0  0  0
   28.0689  -20.6740   -6.2314 C   0  0  0  0  0  0  0  0  0  0  0  0
   25.9656  -20.2302  -10.3458 C   0  0  0  0  0  0  0  0  0  0  0  0
   24.7347  -20.0034  -10.5407 O   0  0  0  0  0  0  0  0  0  0  0  0
   26.6794  -20.8199  -11.4193 N   0  0  0  0  0  0  0  0  0  0  0  0
   26.3486  -20.4730  -12.8019 C   0  0  1  0  0  0  0  0  0  0  0  0
   27.6004  -20.5304  -13.6342 C   0  0  0  0  0  0  0  0  0  0  0  0
   27.3154  -20.1008  -15.0502 C   0  0  0  0  0  0  0  0  0  0  0  0
   28.5416  -20.2209  -15.9220 C   0  0  0  0  0  0  0  0  0  0  0  0
   28.3212  -19.7236  -17.3255 C   0  0  0  0  0  0  0  0  0  0  0  0
   29.5310  -20.0797  -18.0824 N   0  0  0  0  0  0  0  0  0  0  0  0
   25.3633  -21.4473  -13.3435 C   0  0  0  0  0  0  0  0  0  0  0  0
   25.6409  -22.6812  -13.3094 O   0  0  0  0  0  0  0  0  0  0  0  0
   24.1220  -21.0899  -13.9007 N   0  0  0  0  0  0  0  0  0  0  0  0
   23.0122  -22.0453  -14.0732 C   0  0  1  0  0  0  0  0  0  0  0  0
   21.7283  -21.2700  -14.0191 C   0  0  0  0  0  0  0  0  0  0  0  0
   20.5295  -22.1221  -14.2986 C   0  0  0  0  0  0  0  0  0  0  0  0
   19.2771  -21.3437  -14.3372 C   0  0  0  0  0  0  0  0  0  0  0  0
   19.2355  -20.0997  -14.4213 O   0  0  0  0  0  0  0  0  0  0  0  0
   23.2152  -22.7535  -15.3603 C   0  0  0  0  0  0  0  0  0  0  0  0
   23.5753  -22.0271  -16.4763 O   0  0  0  0  0  0  0  0  0  0  0  0
   18.0596  -22.0086  -14.2779 O   0  0  0  0  0  0  0  0  0  0  0  0
   23.0773  -23.9838  -15.4933 O   0  0  0  0  0  0  0  0  0  0  0  0
  2  1  1  1
  3  2  1  0
  4  5  2  0
  4  3  1  0
  6  5  1  0
  7 12  2  0
  7  6  1  0
  8  7  1  0
  9 10  1  0
  9  8  2  0
 10 11  2  0
 11 12  1  0
 12  4  1  0
 13 14  2  0
 13  2  1  0
 15 13  1  0
 16 15  1  0
 16 17  1  6
 18 17  1  0
 19 18  1  0
 20 19  1  0
 20 21  1  0
 22 16  1  0
 23 22  2  0
 24 22  1  0
 25 30  1  0
 25 24  1  0
 25 26  1  6
 27 26  1  0
 28 27  1  0
 29 28  2  0
 30 31  1  0
 32 28  1  0
 33 30  2  0
M  END
$$$$
