WKE.pdb
     RDKit          3D

 33 34  0  0  1  0  0  0  0  0999 V2000
   26.3559  -19.1491  -11.8122 N   0  0  0  0  0  0  0  0  0  0  0  0
   26.2774  -20.5747  -11.7829 C   0  0  1  0  0  0  0  0  0  0  0  0
   25.5531  -21.1019  -10.5511 C   0  0  0  0  0  0  0  0  0  0  0  0
   26.1650  -20.5241   -9.3103 C   0  0  0  0  0  0  0  0  0  0  0  0
   25.5044  -19.8957   -8.2926 C   0  0  0  0  0  0  0  0  0  0  0  0
   26.4285  -19.5242   -7.3668 N   0  0  0  0  0  0  0  0  0  0  0  0
   27.6477  -19.9005   -7.7731 C   0  0  0  0  0  0  0  0  0  0  0  0
   28.9093  -19.7823   -7.2408 C   0  0  0  0  0  0  0  0  0  0  0  0
   30.0267  -20.2808   -7.9028 C   0  0  0  0  0  0  0  0  0  0  0  0
   29.8585  -20.9030   -9.1135 C   0  0  0  0  0  0  0  0  0  0  0  0
   28.5803  -21.0256   -9.6578 C   0  0  0  0  0  0  0  0  0  0  0  0
   27.4953  -20.5232   -8.9805 C   0  0  0  0  0  0  0  0  0  0  0  0
   25.5873  -21.0549  -12.9984 C   0  0  0  0  0  0  0  0  0  0  0  0
   24.6707  -20.3705  -13.5424 O   0  0  0  0  0  0  0  0  0  0  0  0
   25.9070  -22.2906  -13.6151 N   0  0  0  0  0  0  0  0  0  0  0  0
   25.3336  -22.6338  -14.9168 C   0  0  1  0  0  0  0  0  0  0  0  0
   26.0525  -23.8351  -15.4675 C   0  0  0  0  0  0  0  0  0  0  0  0
   25.6345  -24.0962  -16.8914 C   0  0  0  0  0  0  0  0  0  0  0  0
   26.4200  -25.2329  -17.4989 C   0  0  0  0  0  0  0  0  0  0  0  0
   26.1215  -25.4450  -18.9589 C   0  0  0  0  0  0  0  0  0  0  0  0
   27.0784  -26.4573  -19.4311 N   0  0  0  0  0  0  0  0  0  0  0  0
   23.8913  -22.9637  -14.7606 C   0  0  0  0  0  0  0  0  0  0  0  0
   23.5453  -23.7849  -13.8624 O   0  0  0  0  0  0  0  0  0  0  0  0
   22.8649  -22.4185  -15.5532 N   0  0  0  0  0  0  0  0  0  0  0  0
   21.4409  -22.7532  -15.3680 C   0  0  1  0  0  0  0  0  0  0  0  0
   20.6654  -21.4682  -15.3642 C   0  0  0  0  0  0  0  0  0  0  0  0
   19.1884  -21.6879  -15.2569 C   0  0  0  0  0  0  0  0  0  0  0  0
   18.7406  -21.8592  -13.8620 C   0  0  0  0  0  0  0  0  0  0  0  0
   19.2171  -21.2276  -12.8975 O   0  0  0  0  0  0  0  0  0  0  0  0
   21.0426  -23.6747  -16.4596 C   0  0  0  0  0  0  0  0  0  0  0  0
   20.1414  -24.6837  -16.1904 O   0  0  0  0  0  0  0  0  0  0  0  0
   17.7316  -22.7698  -13.5774 O   0  0  0  0  0  0  0  0  0  0  0  0
   21.4814  -23.5887  -17.6216 O   0  0  0  0  0  0  0  0  0  0  0  0
  2  1  1  1
  3  2  1  0
  4  5  2  0
  4  3  1  0
  6  5  1  0
  7 12  2  0
  7  6  1  0
  8  7  1  0
  9 10  1  0
  9  8  2  0
 10 11  2  0
 11 12  1  0
 12  4  1  0
 13 14  2  0
 13  2  1  0
 15 13  1  0
 16 15  1  0
 16 17  1  1
 18 17  1  0
 19 18  1  0
 20 19  1  0
 20 21  1  0
 22 16  1  0
 23 22  2  0
 24 22  1  0
 25 30  1  0
 25 24  1  0
 25 26  1  6
 27 26  1  0
 28 27  1  0
 29 28  2  0
 30 31  1  0
 32 28  1  0
 33 30  2  0
M  END
$$$$
