WKE.pdb
     RDKit          3D

 33 34  0  0  1  0  0  0  0  0999 V2000
   28.8585  -20.8285   -9.8329 N   0  0  0  0  0  0  0  0  0  0  0  0
   27.4701  -20.6721   -9.5375 C   0  0  1  0  0  0  0  0  0  0  0  0
   27.1688  -19.3888   -8.7743 C   0  0  0  0  0  0  0  0  0  0  0  0
   28.0519  -19.2914   -7.5666 C   0  0  0  0  0  0  0  0  0  0  0  0
   29.2765  -18.6893   -7.4991 C   0  0  0  0  0  0  0  0  0  0  0  0
   29.7362  -18.8281   -6.2269 N   0  0  0  0  0  0  0  0  0  0  0  0
   28.8372  -19.4987   -5.4952 C   0  0  0  0  0  0  0  0  0  0  0  0
   28.7885  -19.9076   -4.1840 C   0  0  0  0  0  0  0  0  0  0  0  0
   27.6972  -20.6091   -3.6819 C   0  0  0  0  0  0  0  0  0  0  0  0
   26.6498  -20.8961   -4.5198 C   0  0  0  0  0  0  0  0  0  0  0  0
   26.6944  -20.4832   -5.8511 C   0  0  0  0  0  0  0  0  0  0  0  0
   27.7860  -19.7916   -6.3185 C   0  0  0  0  0  0  0  0  0  0  0  0
   26.6944  -20.6862  -10.7954 C   0  0  0  0  0  0  0  0  0  0  0  0
   26.9539  -19.8738  -11.7319 O   0  0  0  0  0  0  0  0  0  0  0  0
   25.6310  -21.5960  -11.0216 N   0  0  0  0  0  0  0  0  0  0  0  0
   24.9744  -21.6506  -12.3281 C   0  0  1  0  0  0  0  0  0  0  0  0
   24.8381  -23.0887  -12.7481 C   0  0  0  0  0  0  0  0  0  0  0  0
   24.1974  -23.1851  -14.1085 C   0  0  0  0  0  0  0  0  0  0  0  0
   24.0832  -24.6189  -14.5658 C   0  0  0  0  0  0  0  0  0  0  0  0
   24.1900  -24.7744  -16.0592 C   0  0  0  0  0  0  0  0  0  0  0  0
   24.1987  -26.2215  -16.3221 N   0  0  0  0  0  0  0  0  0  0  0  0
   23.6192  -21.0437  -12.2364 C   0  0  0  0  0  0  0  0  0  0  0  0
   22.9107  -21.2803  -11.2153 O   0  0  0  0  0  0  0  0  0  0  0  0
   23.0579  -20.2097  -13.2205 N   0  0  0  0  0  0  0  0  0  0  0  0
   21.7011  -19.6418  -13.1160 C   0  0  1  0  0  0  0  0  0  0  0  0
   21.4909  -18.7385  -14.2959 C   0  0  0  0  0  0  0  0  0  0  0  0
   20.1455  -18.0818  -14.2852 C   0  0  0  0  0  0  0  0  0  0  0  0
   19.9398  -17.1917  -15.4432 C   0  0  0  0  0  0  0  0  0  0  0  0
   20.3512  -17.4434  -16.5938 O   0  0  0  0  0  0  0  0  0  0  0  0
   20.7377  -20.7680  -13.0612 C   0  0  0  0  0  0  0  0  0  0  0  0
   20.9435  -21.8669  -13.8692 O   0  0  0  0  0  0  0  0  0  0  0  0
   19.2520  -15.9978  -15.2712 O   0  0  0  0  0  0  0  0  0  0  0  0
   19.7394  -20.7787  -12.3172 O   0  0  0  0  0  0  0  0  0  0  0  0
  2  1  1  6
  3  2  1  0
  4  5  2  0
  4  3  1  0
  6  5  1  0
  7 12  2  0
  7  6  1  0
  8  7  1  0
  9 10  1  0
  9  8  2  0
 10 11  2  0
 11 12  1  0
 12  4  1  0
 13 14  2  0
 13  2  1  0
 15 13  1  0
 16 15  1  0
 16 17  1  1
 18 17  1  0
 19 18  1  0
 20 19  1  0
 20 21  1  0
 22 16  1  0
 23 22  2  0
 24 22  1  0
 25 30  1  0
 25 24  1  0
 25 26  1  6
 27 26  1  0
 28 27  1  0
 29 28  2  0
 30 31  1  0
 32 28  1  0
 33 30  2  0
M  END
$$$$
