WKE.pdb
     RDKit          3D

 33 34  0  0  1  0  0  0  0  0999 V2000
   26.5087  -18.3026   -8.2893 N   0  0  0  0  0  0  0  0  0  0  0  0
   27.1067  -19.5399   -8.6773 C   0  0  1  0  0  0  0  0  0  0  0  0
   27.0528  -20.5932   -7.5784 C   0  0  0  0  0  0  0  0  0  0  0  0
   27.7340  -20.0817   -6.3445 C   0  0  0  0  0  0  0  0  0  0  0  0
   27.1691  -19.3274   -5.3553 C   0  0  0  0  0  0  0  0  0  0  0  0
   28.1296  -19.0779   -4.4256 N   0  0  0  0  0  0  0  0  0  0  0  0
   29.2789  -19.6529   -4.8020 C   0  0  0  0  0  0  0  0  0  0  0  0
   30.5374  -19.7182   -4.2533 C   0  0  0  0  0  0  0  0  0  0  0  0
   31.5698  -20.4054   -4.8834 C   0  0  0  0  0  0  0  0  0  0  0  0
   31.3194  -21.0293   -6.0789 C   0  0  0  0  0  0  0  0  0  0  0  0
   30.0441  -20.9661   -6.6397 C   0  0  0  0  0  0  0  0  0  0  0  0
   29.0441  -20.2797   -5.9939 C   0  0  0  0  0  0  0  0  0  0  0  0
   26.4283  -20.0576   -9.8840 C   0  0  0  0  0  0  0  0  0  0  0  0
   25.1664  -20.0247   -9.9886 O   0  0  0  0  0  0  0  0  0  0  0  0
   27.1409  -20.6128  -10.9765 N   0  0  0  0  0  0  0  0  0  0  0  0
   26.6064  -20.5061  -12.3345 C   0  0  1  0  0  0  0  0  0  0  0  0
   27.6875  -20.8671  -13.3163 C   0  0  0  0  0  0  0  0  0  0  0  0
   27.1666  -20.7949  -14.7284 C   0  0  0  0  0  0  0  0  0  0  0  0
   28.2193  -21.2081  -15.7281 C   0  0  0  0  0  0  0  0  0  0  0  0
   27.7704  -21.0578  -17.1568 C   0  0  0  0  0  0  0  0  0  0  0  0
   28.9344  -21.3938  -17.9909 N   0  0  0  0  0  0  0  0  0  0  0  0
   25.4671  -21.4480  -12.5026 C   0  0  0  0  0  0  0  0  0  0  0  0
   25.5482  -22.6034  -11.9934 O   0  0  0  0  0  0  0  0  0  0  0  0
   24.2837  -21.1417  -13.1990 N   0  0  0  0  0  0  0  0  0  0  0  0
   23.1080  -22.0313  -13.2186 C   0  0  1  0  0  0  0  0  0  0  0  0
   21.8814  -21.1679  -13.2651 C   0  0  0  0  0  0  0  0  0  0  0  0
   20.6197  -21.9661  -13.3761 C   0  0  0  0  0  0  0  0  0  0  0  0
   19.4256  -21.1180  -13.5502 C   0  0  0  0  0  0  0  0  0  0  0  0
   18.8448  -20.5361  -12.6119 O   0  0  0  0  0  0  0  0  0  0  0  0
   23.2359  -22.9314  -14.3903 C   0  0  0  0  0  0  0  0  0  0  0  0
   22.8519  -24.2506  -14.2680 O   0  0  0  0  0  0  0  0  0  0  0  0
   18.8960  -20.9397  -14.8214 O   0  0  0  0  0  0  0  0  0  0  0  0
   23.6762  -22.5593  -15.4939 O   0  0  0  0  0  0  0  0  0  0  0  0
  2  1  1  1
  3  2  1  0
  4  5  2  0
  4  3  1  0
  6  5  1  0
  7 12  2  0
  7  6  1  0
  8  7  1  0
  9 10  1  0
  9  8  2  0
 10 11  2  0
 11 12  1  0
 12  4  1  0
 13 14  2  0
 13  2  1  0
 15 13  1  0
 16 15  1  0
 16 17  1  6
 18 17  1  0
 19 18  1  0
 20 19  1  0
 20 21  1  0
 22 16  1  0
 23 22  2  0
 24 22  1  0
 25 30  1  0
 25 24  1  0
 25 26  1  6
 27 26  1  0
 28 27  1  0
 29 28  2  0
 30 31  1  0
 32 28  1  0
 33 30  2  0
M  END
$$$$
