WKE.pdb
     RDKit          3D

 33 34  0  0  1  0  0  0  0  0999 V2000
   23.8282  -19.8777  -10.0247 N   0  0  0  0  0  0  0  0  0  0  0  0
   23.7005  -20.9464   -9.0863 C   0  0  1  0  0  0  0  0  0  0  0  0
   24.4354  -20.6772   -7.7796 C   0  0  0  0  0  0  0  0  0  0  0  0
   25.9158  -20.6690   -8.0166 C   0  0  0  0  0  0  0  0  0  0  0  0
   26.5620  -21.0774   -9.1491 C   0  0  0  0  0  0  0  0  0  0  0  0
   27.8960  -20.9066   -8.9486 N   0  0  0  0  0  0  0  0  0  0  0  0
   28.1056  -20.4037   -7.7253 C   0  0  0  0  0  0  0  0  0  0  0  0
   29.2301  -20.0462   -7.0206 C   0  0  0  0  0  0  0  0  0  0  0  0
   29.1465  -19.5364   -5.7290 C   0  0  0  0  0  0  0  0  0  0  0  0
   27.9110  -19.3900   -5.1517 C   0  0  0  0  0  0  0  0  0  0  0  0
   26.7669  -19.7512   -5.8627 C   0  0  0  0  0  0  0  0  0  0  0  0
   26.8809  -20.2520   -7.1372 C   0  0  0  0  0  0  0  0  0  0  0  0
   22.2696  -21.1839   -8.8022 C   0  0  0  0  0  0  0  0  0  0  0  0
   21.4887  -20.2231   -8.5349 O   0  0  0  0  0  0  0  0  0  0  0  0
   21.6986  -22.4813   -8.8121 N   0  0  0  0  0  0  0  0  0  0  0  0
   20.2541  -22.6510   -8.6516 C   0  0  1  0  0  0  0  0  0  0  0  0
   19.7390  -23.5344   -9.7549 C   0  0  0  0  0  0  0  0  0  0  0  0
   18.3702  -23.0860  -10.1975 C   0  0  0  0  0  0  0  0  0  0  0  0
   17.8041  -24.0006  -11.2563 C   0  0  0  0  0  0  0  0  0  0  0  0
   16.4099  -23.6238  -11.6803 C   0  0  0  0  0  0  0  0  0  0  0  0
   16.0291  -24.5767  -12.7340 N   0  0  0  0  0  0  0  0  0  0  0  0
   19.9652  -23.2955   -7.3422 C   0  0  0  0  0  0  0  0  0  0  0  0
   20.9026  -23.8855   -6.7306 O   0  0  0  0  0  0  0  0  0  0  0  0
   18.7022  -23.2961   -6.7224 N   0  0  0  0  0  0  0  0  0  0  0  0
   18.4405  -23.9544   -5.4293 C   0  0  1  0  0  0  0  0  0  0  0  0
   17.0996  -23.4889   -4.9417 C   0  0  0  0  0  0  0  0  0  0  0  0
   16.6991  -24.1372   -3.6531 C   0  0  0  0  0  0  0  0  0  0  0  0
   15.4085  -23.6366   -3.1437 C   0  0  0  0  0  0  0  0  0  0  0  0
   14.7087  -22.7916   -3.7374 O   0  0  0  0  0  0  0  0  0  0  0  0
   18.5103  -25.4207   -5.6408 C   0  0  0  0  0  0  0  0  0  0  0  0
   19.0499  -26.2163   -4.6516 O   0  0  0  0  0  0  0  0  0  0  0  0
   14.9206  -24.1166   -1.9355 O   0  0  0  0  0  0  0  0  0  0  0  0
   18.1040  -25.9827   -6.6749 O   0  0  0  0  0  0  0  0  0  0  0  0
  2  1  1  6
  3  2  1  0
  4  5  2  0
  4  3  1  0
  6  5  1  0
  7 12  2  0
  7  6  1  0
  8  7  1  0
  9 10  1  0
  9  8  2  0
 10 11  2  0
 11 12  1  0
 12  4  1  0
 13 14  2  0
 13  2  1  0
 15 13  1  0
 16 15  1  0
 16 17  1  6
 18 17  1  0
 19 18  1  0
 20 19  1  0
 20 21  1  0
 22 16  1  0
 23 22  2  0
 24 22  1  0
 25 30  1  0
 25 24  1  0
 25 26  1  6
 27 26  1  0
 28 27  1  0
 29 28  2  0
 30 31  1  0
 32 28  1  0
 33 30  2  0
M  END
$$$$
