WFY.pdb
     RDKit          3D

 38 41  0  0  1  0  0  0  0  0999 V2000
    7.6232  -17.4792   18.9690 N   0  0  0  0  0  0  0  0  0  0  0  0
    7.4096  -17.7304   20.3664 C   0  0  1  0  0  0  0  0  0  0  0  0
    7.7273  -19.1482   20.7705 C   0  0  0  0  0  0  0  0  0  0  0  0
    7.4273  -19.2995   22.2166 C   0  0  0  0  0  0  0  0  0  0  0  0
    6.1570  -19.1700   22.7894 C   0  0  0  0  0  0  0  0  0  0  0  0
    6.2207  -19.3949   24.1132 N   0  0  0  0  0  0  0  0  0  0  0  0
    7.4968  -19.6694   24.4351 C   0  0  0  0  0  0  0  0  0  0  0  0
    8.0785  -19.9610   25.6493 C   0  0  0  0  0  0  0  0  0  0  0  0
    9.4350  -20.1942   25.6738 C   0  0  0  0  0  0  0  0  0  0  0  0
   10.2210  -20.1475   24.5475 C   0  0  0  0  0  0  0  0  0  0  0  0
    9.6171  -19.8515   23.3274 C   0  0  0  0  0  0  0  0  0  0  0  0
    8.2601  -19.6139   23.2688 C   0  0  0  0  0  0  0  0  0  0  0  0
    8.1142  -16.7355   21.2182 C   0  0  0  0  0  0  0  0  0  0  0  0
    9.1203  -16.1515   20.7767 O   0  0  0  0  0  0  0  0  0  0  0  0
    7.5975  -16.4927   22.5189 N   0  0  0  0  0  0  0  0  0  0  0  0
    7.8267  -15.1946   23.1095 C   0  0  1  0  0  0  0  0  0  0  0  0
    6.6990  -14.8936   24.1155 C   0  0  0  0  0  0  0  0  0  0  0  0
    7.0421  -13.7172   24.9422 C   0  0  0  0  0  0  0  0  0  0  0  0
    6.9623  -12.4387   24.4386 C   0  0  0  0  0  0  0  0  0  0  0  0
    7.2857  -11.3363   25.2232 C   0  0  0  0  0  0  0  0  0  0  0  0
    7.6966  -11.4817   26.5296 C   0  0  0  0  0  0  0  0  0  0  0  0
    7.7784  -12.7639   27.0401 C   0  0  0  0  0  0  0  0  0  0  0  0
    7.4521  -13.8662   26.2465 C   0  0  0  0  0  0  0  0  0  0  0  0
    9.0554  -15.2549   23.9314 C   0  0  0  0  0  0  0  0  0  0  0  0
    9.3565  -14.2539   24.6185 O   0  0  0  0  0  0  0  0  0  0  0  0
    9.6437  -14.8169   30.6630 O   0  0  0  0  0  0  0  0  0  0  0  0
    9.9881  -15.4686   29.4785 C   0  0  0  0  0  0  0  0  0  0  0  0
   11.2109  -15.2780   28.8718 C   0  0  0  0  0  0  0  0  0  0  0  0
   11.4756  -15.9582   27.7036 C   0  0  0  0  0  0  0  0  0  0  0  0
   10.5453  -16.8144   27.1432 C   0  0  0  0  0  0  0  0  0  0  0  0
   10.9410  -17.5073   25.8680 C   0  0  0  0  0  0  0  0  0  0  0  0
   11.0849  -16.5096   24.7503 C   0  0  2  0  0  0  0  0  0  0  0  0
    9.8812  -16.4130   23.9490 N   0  0  0  0  0  0  0  0  0  0  0  0
   12.2129  -16.8510   23.8519 C   0  0  0  0  0  0  0  0  0  0  0  0
   13.3991  -16.9266   24.2619 O   0  0  0  0  0  0  0  0  0  0  0  0
    9.3391  -17.0011   27.7435 C   0  0  0  0  0  0  0  0  0  0  0  0
    9.0550  -16.3328   28.9084 C   0  0  0  0  0  0  0  0  0  0  0  0
   12.0133  -17.1091   22.4883 O   0  0  0  0  0  0  0  0  0  0  0  0
  2  1  1  6
  2  3  1  0
  4  3  1  0
  4  5  2  0
  6  5  1  0
  7  6  1  0
  8  7  2  0
  9  8  1  0
 10  9  2  0
 10 11  1  0
 11 12  2  0
 12  7  1  0
 12  4  1  0
 13  2  1  0
 13 14  2  0
 15 13  1  0
 16 17  1  1
 16 15  1  0
 18 17  1  0
 18 23  1  0
 19 18  2  0
 20 19  1  0
 20 21  2  0
 21 22  1  0
 22 23  2  0
 24 16  1  0
 25 24  2  0
 27 26  1  0
 27 28  2  0
 29 28  1  0
 30 29  2  0
 32 31  1  1
 31 30  1  0
 32 33  1  0
 33 24  1  0
 34 38  1  0
 34 32  1  0
 35 34  2  0
 36 37  2  0
 36 30  1  0
 37 27  1  0
M  END
$$$$
