WFY.pdb
     RDKit          3D

 38 41  0  0  1  0  0  0  0  0999 V2000
    5.3741  -20.1213   22.9234 N   0  0  0  0  0  0  0  0  0  0  0  0
    6.2825  -19.5225   23.8604 C   0  0  1  0  0  0  0  0  0  0  0  0
    7.6118  -20.2308   23.9346 C   0  0  0  0  0  0  0  0  0  0  0  0
    7.7001  -20.9208   25.2461 C   0  0  0  0  0  0  0  0  0  0  0  0
    7.1976  -22.1992   25.5146 C   0  0  0  0  0  0  0  0  0  0  0  0
    7.4656  -22.5446   26.7858 N   0  0  0  0  0  0  0  0  0  0  0  0
    8.1310  -21.5321   27.3685 C   0  0  0  0  0  0  0  0  0  0  0  0
    8.6202  -21.3921   28.6486 C   0  0  0  0  0  0  0  0  0  0  0  0
    9.2636  -20.2173   28.9669 C   0  0  0  0  0  0  0  0  0  0  0  0
    9.4339  -19.1921   28.0678 C   0  0  0  0  0  0  0  0  0  0  0  0
    8.9333  -19.3498   26.7773 C   0  0  0  0  0  0  0  0  0  0  0  0
    8.2847  -20.5149   26.4263 C   0  0  0  0  0  0  0  0  0  0  0  0
    6.4395  -18.0635   23.6187 C   0  0  0  0  0  0  0  0  0  0  0  0
    6.3880  -17.6242   22.4557 O   0  0  0  0  0  0  0  0  0  0  0  0
    6.6442  -17.2235   24.7457 N   0  0  0  0  0  0  0  0  0  0  0  0
    6.8321  -15.8102   24.5144 C   0  0  1  0  0  0  0  0  0  0  0  0
    6.3181  -15.0276   25.7383 C   0  0  0  0  0  0  0  0  0  0  0  0
    6.6794  -13.5984   25.6289 C   0  0  0  0  0  0  0  0  0  0  0  0
    7.0681  -12.8705   26.7305 C   0  0  0  0  0  0  0  0  0  0  0  0
    7.4080  -11.5260   26.6195 C   0  0  0  0  0  0  0  0  0  0  0  0
    7.3686  -10.8742   25.4069 C   0  0  0  0  0  0  0  0  0  0  0  0
    6.9787  -11.6010   24.2974 C   0  0  0  0  0  0  0  0  0  0  0  0
    6.6389  -12.9507   24.4164 C   0  0  0  0  0  0  0  0  0  0  0  0
    8.2827  -15.5230   24.4686 C   0  0  0  0  0  0  0  0  0  0  0  0
    8.6506  -14.4041   24.0473 O   0  0  0  0  0  0  0  0  0  0  0  0
    8.9876  -14.5968   30.7200 O   0  0  0  0  0  0  0  0  0  0  0  0
    9.5830  -15.1089   29.5669 C   0  0  0  0  0  0  0  0  0  0  0  0
   10.2669  -14.3036   28.6817 C   0  0  0  0  0  0  0  0  0  0  0  0
   10.8270  -14.8850   27.5656 C   0  0  0  0  0  0  0  0  0  0  0  0
   10.7128  -16.2426   27.3278 C   0  0  0  0  0  0  0  0  0  0  0  0
   11.3655  -16.7712   26.0798 C   0  0  0  0  0  0  0  0  0  0  0  0
   10.6712  -16.2360   24.8562 C   0  0  2  0  0  0  0  0  0  0  0  0
    9.2437  -16.4839   24.8887 N   0  0  0  0  0  0  0  0  0  0  0  0
   11.2159  -16.8295   23.6125 C   0  0  0  0  0  0  0  0  0  0  0  0
   12.4293  -16.7327   23.2973 O   0  0  0  0  0  0  0  0  0  0  0  0
   10.0375  -17.0356   28.2025 C   0  0  0  0  0  0  0  0  0  0  0  0
    9.4717  -16.4763   29.3211 C   0  0  0  0  0  0  0  0  0  0  0  0
   10.3997  -17.5348   22.7168 O   0  0  0  0  0  0  0  0  0  0  0  0
  2  1  1  6
  2  3  1  0
  4  3  1  0
  4  5  2  0
  6  5  1  0
  7  6  1  0
  8  7  2  0
  9  8  1  0
 10  9  2  0
 10 11  1  0
 11 12  2  0
 12  7  1  0
 12  4  1  0
 13  2  1  0
 13 14  2  0
 15 13  1  0
 16 17  1  1
 16 15  1  0
 18 17  1  0
 18 23  1  0
 19 18  2  0
 20 19  1  0
 20 21  2  0
 21 22  1  0
 22 23  2  0
 24 16  1  0
 25 24  2  0
 27 26  1  0
 27 28  2  0
 29 28  1  0
 30 29  2  0
 32 31  1  1
 31 30  1  0
 32 33  1  0
 33 24  1  0
 34 38  1  0
 34 32  1  0
 35 34  2  0
 36 37  2  0
 36 30  1  0
 37 27  1  0
M  END
$$$$
