WFY.pdb
     RDKit          3D

 38 41  0  0  1  0  0  0  0  0999 V2000
   10.6856  -16.7574   19.9235 N   0  0  0  0  0  0  0  0  0  0  0  0
   10.0246  -17.1328   21.1415 C   0  0  1  0  0  0  0  0  0  0  0  0
   10.6051  -18.3722   21.7749 C   0  0  0  0  0  0  0  0  0  0  0  0
   10.4946  -19.4885   20.8023 C   0  0  0  0  0  0  0  0  0  0  0  0
   11.3495  -19.6895   19.7126 C   0  0  0  0  0  0  0  0  0  0  0  0
   10.9977  -20.8034   19.0473 N   0  0  0  0  0  0  0  0  0  0  0  0
    9.9338  -21.3468   19.6639 C   0  0  0  0  0  0  0  0  0  0  0  0
    9.2025  -22.4774   19.3733 C   0  0  0  0  0  0  0  0  0  0  0  0
    8.1409  -22.7859   20.1938 C   0  0  0  0  0  0  0  0  0  0  0  0
    7.7874  -22.0186   21.2776 C   0  0  0  0  0  0  0  0  0  0  0  0
    8.5375  -20.8786   21.5578 C   0  0  0  0  0  0  0  0  0  0  0  0
    9.6077  -20.5423   20.7560 C   0  0  0  0  0  0  0  0  0  0  0  0
    9.9508  -15.9979   22.0998 C   0  0  0  0  0  0  0  0  0  0  0  0
   10.9977  -15.4334   22.4656 O   0  0  0  0  0  0  0  0  0  0  0  0
    8.6669  -15.6028   22.5614 N   0  0  0  0  0  0  0  0  0  0  0  0
    8.5950  -14.7720   23.7408 C   0  0  1  0  0  0  0  0  0  0  0  0
    7.2019  -14.1172   23.8105 C   0  0  0  0  0  0  0  0  0  0  0  0
    7.0612  -13.3288   25.0529 C   0  0  0  0  0  0  0  0  0  0  0  0
    7.7308  -12.1390   25.2272 C   0  0  0  0  0  0  0  0  0  0  0  0
    7.5924  -11.4019   26.3990 C   0  0  0  0  0  0  0  0  0  0  0  0
    6.7825  -11.8332   27.4260 C   0  0  0  0  0  0  0  0  0  0  0  0
    6.1077  -13.0278   27.2558 C   0  0  0  0  0  0  0  0  0  0  0  0
    6.2515  -13.7626   26.0765 C   0  0  0  0  0  0  0  0  0  0  0  0
    8.6623  -15.6375   24.9388 C   0  0  0  0  0  0  0  0  0  0  0  0
    7.8897  -16.6193   25.0027 O   0  0  0  0  0  0  0  0  0  0  0  0
   15.1046  -17.6170   24.1278 O   0  0  0  0  0  0  0  0  0  0  0  0
   13.8740  -17.6369   24.7849 C   0  0  0  0  0  0  0  0  0  0  0  0
   12.9885  -18.6831   24.6402 C   0  0  0  0  0  0  0  0  0  0  0  0
   11.7932  -18.6286   25.3226 C   0  0  0  0  0  0  0  0  0  0  0  0
   11.4778  -17.5558   26.1364 C   0  0  0  0  0  0  0  0  0  0  0  0
   10.1470  -17.6017   26.8362 C   0  0  0  0  0  0  0  0  0  0  0  0
    9.6821  -16.2105   27.1738 C   0  0  2  0  0  0  0  0  0  0  0  0
    9.5756  -15.3721   25.9966 N   0  0  0  0  0  0  0  0  0  0  0  0
   10.5933  -15.5456   28.1348 C   0  0  0  0  0  0  0  0  0  0  0  0
   10.9815  -16.1067   29.1909 O   0  0  0  0  0  0  0  0  0  0  0  0
   12.3531  -16.5243   26.2779 C   0  0  0  0  0  0  0  0  0  0  0  0
   13.5499  -16.5588   25.6065 C   0  0  0  0  0  0  0  0  0  0  0  0
   11.0727  -14.2467   27.9136 O   0  0  0  0  0  0  0  0  0  0  0  0
  2  1  1  6
  2  3  1  0
  4  3  1  0
  4  5  2  0
  6  5  1  0
  7  6  1  0
  8  7  2  0
  9  8  1  0
 10  9  2  0
 10 11  1  0
 11 12  2  0
 12  7  1  0
 12  4  1  0
 13  2  1  0
 13 14  2  0
 15 13  1  0
 16 17  1  6
 16 15  1  0
 18 17  1  0
 18 23  1  0
 19 18  2  0
 20 19  1  0
 20 21  2  0
 21 22  1  0
 22 23  2  0
 24 16  1  0
 25 24  2  0
 27 26  1  0
 27 28  2  0
 29 28  1  0
 30 29  2  0
 32 31  1  6
 31 30  1  0
 32 33  1  0
 33 24  1  0
 34 38  1  0
 34 32  1  0
 35 34  2  0
 36 37  2  0
 36 30  1  0
 37 27  1  0
M  END
$$$$
