WFY.pdb
     RDKit          3D

 38 41  0  0  1  0  0  0  0  0999 V2000
    8.8016  -16.2740   24.7936 N   0  0  0  0  0  0  0  0  0  0  0  0
    7.8778  -16.8598   23.8635 C   0  0  1  0  0  0  0  0  0  0  0  0
    6.7656  -15.9238   23.4616 C   0  0  0  0  0  0  0  0  0  0  0  0
    6.3769  -15.1238   24.6502 C   0  0  0  0  0  0  0  0  0  0  0  0
    5.5508  -15.5762   25.6855 C   0  0  0  0  0  0  0  0  0  0  0  0
    5.4187  -14.6220   26.6231 N   0  0  0  0  0  0  0  0  0  0  0  0
    6.1329  -13.5495   26.2395 C   0  0  0  0  0  0  0  0  0  0  0  0
    6.3164  -12.3247   26.8426 C   0  0  0  0  0  0  0  0  0  0  0  0
    7.1101  -11.4025   26.1986 C   0  0  0  0  0  0  0  0  0  0  0  0
    7.7184  -11.6540   24.9923 C   0  0  0  0  0  0  0  0  0  0  0  0
    7.5228  -12.8977   24.3958 C   0  0  0  0  0  0  0  0  0  0  0  0
    6.7342  -13.8439   25.0156 C   0  0  0  0  0  0  0  0  0  0  0  0
    8.5761  -17.4367   22.6840 C   0  0  0  0  0  0  0  0  0  0  0  0
    7.9144  -17.9966   21.7912 O   0  0  0  0  0  0  0  0  0  0  0  0
    9.9907  -17.3200   22.6289 N   0  0  0  0  0  0  0  0  0  0  0  0
   10.5586  -16.3735   21.6973 C   0  0  1  0  0  0  0  0  0  0  0  0
   10.2233  -14.9442   22.1654 C   0  0  0  0  0  0  0  0  0  0  0  0
    9.2153  -14.3303   21.2754 C   0  0  0  0  0  0  0  0  0  0  0  0
    8.6012  -15.0552   20.2794 C   0  0  0  0  0  0  0  0  0  0  0  0
    7.6525  -14.4708   19.4464 C   0  0  0  0  0  0  0  0  0  0  0  0
    7.2926  -13.1488   19.5862 C   0  0  0  0  0  0  0  0  0  0  0  0
    7.9066  -12.4164   20.5852 C   0  0  0  0  0  0  0  0  0  0  0  0
    8.8583  -13.0098   21.4178 C   0  0  0  0  0  0  0  0  0  0  0  0
   12.0338  -16.4560   21.7733 C   0  0  0  0  0  0  0  0  0  0  0  0
   12.7050  -15.8418   20.9148 O   0  0  0  0  0  0  0  0  0  0  0  0
   10.5549  -15.2440   29.9726 O   0  0  0  0  0  0  0  0  0  0  0  0
   10.7005  -15.5167   28.6122 C   0  0  0  0  0  0  0  0  0  0  0  0
   11.4482  -14.7081   27.7836 C   0  0  0  0  0  0  0  0  0  0  0  0
   11.5436  -15.0449   26.4513 C   0  0  0  0  0  0  0  0  0  0  0  0
   10.9091  -16.1649   25.9454 C   0  0  0  0  0  0  0  0  0  0  0  0
   11.0834  -16.4393   24.4767 C   0  0  0  0  0  0  0  0  0  0  0  0
   12.4600  -16.9832   24.2031 C   0  0  2  0  0  0  0  0  0  0  0  0
   12.6843  -17.2096   22.7894 N   0  0  0  0  0  0  0  0  0  0  0  0
   12.6986  -18.2581   24.9197 C   0  0  0  0  0  0  0  0  0  0  0  0
   12.3716  -19.3718   24.4363 O   0  0  0  0  0  0  0  0  0  0  0  0
   10.1716  -16.9616   26.7648 C   0  0  0  0  0  0  0  0  0  0  0  0
   10.0636  -16.6438   28.0958 C   0  0  0  0  0  0  0  0  0  0  0  0
   13.3061  -18.2878   26.1830 O   0  0  0  0  0  0  0  0  0  0  0  0
  2  1  1  1
  2  3  1  0
  4  3  1  0
  4  5  2  0
  6  5  1  0
  7  6  1  0
  8  7  2  0
  9  8  1  0
 10  9  2  0
 10 11  1  0
 11 12  2  0
 12  7  1  0
 12  4  1  0
 13  2  1  0
 13 14  2  0
 15 13  1  0
 16 17  1  1
 16 15  1  0
 18 17  1  0
 18 23  1  0
 19 18  2  0
 20 19  1  0
 20 21  2  0
 21 22  1  0
 22 23  2  0
 24 16  1  0
 25 24  2  0
 27 26  1  0
 27 28  2  0
 29 28  1  0
 30 29  2  0
 32 31  1  6
 31 30  1  0
 32 33  1  0
 33 24  1  0
 34 38  1  0
 34 32  1  0
 35 34  2  0
 36 37  2  0
 36 30  1  0
 37 27  1  0
M  END
$$$$
