WFY.pdb
     RDKit          3D

 38 41  0  0  1  0  0  0  0  0999 V2000
    6.2575  -17.8676   23.6114 N   0  0  0  0  0  0  0  0  0  0  0  0
    7.2865  -16.8864   23.4119 C   0  0  1  0  0  0  0  0  0  0  0  0
    8.0089  -16.5162   24.6829 C   0  0  0  0  0  0  0  0  0  0  0  0
    7.1299  -15.6193   25.4747 C   0  0  0  0  0  0  0  0  0  0  0  0
    5.8444  -15.9464   25.9208 C   0  0  0  0  0  0  0  0  0  0  0  0
    5.3290  -14.9300   26.6338 N   0  0  0  0  0  0  0  0  0  0  0  0
    6.2353  -13.9378   26.6731 C   0  0  0  0  0  0  0  0  0  0  0  0
    6.1882  -12.6954   27.2661 C   0  0  0  0  0  0  0  0  0  0  0  0
    7.2846  -11.8744   27.1286 C   0  0  0  0  0  0  0  0  0  0  0  0
    8.4100  -12.2424   26.4311 C   0  0  0  0  0  0  0  0  0  0  0  0
    8.4417  -13.5024   25.8375 C   0  0  0  0  0  0  0  0  0  0  0  0
    7.3600  -14.3491   25.9575 C   0  0  0  0  0  0  0  0  0  0  0  0
    8.2265  -17.2869   22.3313 C   0  0  0  0  0  0  0  0  0  0  0  0
    8.3330  -18.4878   22.0232 O   0  0  0  0  0  0  0  0  0  0  0  0
    8.9724  -16.2630   21.6887 N   0  0  0  0  0  0  0  0  0  0  0  0
    9.7617  -16.6207   20.5332 C   0  0  1  0  0  0  0  0  0  0  0  0
    9.6292  -15.5124   19.4709 C   0  0  0  0  0  0  0  0  0  0  0  0
    8.5100  -14.6061   19.8041 C   0  0  0  0  0  0  0  0  0  0  0  0
    7.1996  -14.9934   19.6384 C   0  0  0  0  0  0  0  0  0  0  0  0
    6.1515  -14.1352   19.9554 C   0  0  0  0  0  0  0  0  0  0  0  0
    6.3843  -12.8694   20.4455 C   0  0  0  0  0  0  0  0  0  0  0  0
    7.6989  -12.4756   20.6137 C   0  0  0  0  0  0  0  0  0  0  0  0
    8.7462  -13.3426   20.2933 C   0  0  0  0  0  0  0  0  0  0  0  0
   11.1923  -16.6087   20.9104 C   0  0  0  0  0  0  0  0  0  0  0  0
   12.0374  -16.3840   20.0160 O   0  0  0  0  0  0  0  0  0  0  0  0
   16.0698  -16.0776   17.1440 O   0  0  0  0  0  0  0  0  0  0  0  0
   15.4545  -15.8931   18.3824 C   0  0  0  0  0  0  0  0  0  0  0  0
   14.7728  -14.7357   18.6914 C   0  0  0  0  0  0  0  0  0  0  0  0
   14.1922  -14.6299   19.9360 C   0  0  0  0  0  0  0  0  0  0  0  0
   14.2839  -15.6532   20.8619 C   0  0  0  0  0  0  0  0  0  0  0  0
   13.6100  -15.4318   22.1884 C   0  0  0  0  0  0  0  0  0  0  0  0
   12.9862  -16.7101   22.6810 C   0  0  2  0  0  0  0  0  0  0  0  0
   11.6092  -16.8447   22.2498 N   0  0  0  0  0  0  0  0  0  0  0  0
   13.0194  -16.8026   24.1596 C   0  0  0  0  0  0  0  0  0  0  0  0
   13.7750  -17.6042   24.7657 O   0  0  0  0  0  0  0  0  0  0  0  0
   14.9570  -16.7946   20.5550 C   0  0  0  0  0  0  0  0  0  0  0  0
   15.5431  -16.9204   19.3201 C   0  0  0  0  0  0  0  0  0  0  0  0
   12.2036  -15.9947   24.9643 O   0  0  0  0  0  0  0  0  0  0  0  0
  2  1  1  1
  2  3  1  0
  4  3  1  0
  4  5  2  0
  6  5  1  0
  7  6  1  0
  8  7  2  0
  9  8  1  0
 10  9  2  0
 10 11  1  0
 11 12  2  0
 12  7  1  0
 12  4  1  0
 13  2  1  0
 13 14  2  0
 15 13  1  0
 16 17  1  6
 16 15  1  0
 18 17  1  0
 18 23  1  0
 19 18  2  0
 20 19  1  0
 20 21  2  0
 21 22  1  0
 22 23  2  0
 24 16  1  0
 25 24  2  0
 27 26  1  0
 27 28  2  0
 29 28  1  0
 30 29  2  0
 32 31  1  1
 31 30  1  0
 32 33  1  0
 33 24  1  0
 34 38  1  0
 34 32  1  0
 35 34  2  0
 36 37  2  0
 36 30  1  0
 37 27  1  0
M  END
$$$$
