WFY.pdb
     RDKit          3D

 38 41  0  0  1  0  0  0  0  0999 V2000
    7.4839  -18.6373   20.7312 N   0  0  0  0  0  0  0  0  0  0  0  0
    8.6073  -17.7640   20.5399 C   0  0  1  0  0  0  0  0  0  0  0  0
    8.9653  -17.5658   19.0883 C   0  0  0  0  0  0  0  0  0  0  0  0
    9.0866  -18.9012   18.4513 C   0  0  0  0  0  0  0  0  0  0  0  0
    8.0934  -19.5138   17.6786 C   0  0  0  0  0  0  0  0  0  0  0  0
    8.5272  -20.7023   17.2243 N   0  0  0  0  0  0  0  0  0  0  0  0
    9.7793  -20.8961   17.6738 C   0  0  0  0  0  0  0  0  0  0  0  0
   10.6499  -21.9484   17.4941 C   0  0  0  0  0  0  0  0  0  0  0  0
   11.8868  -21.8702   18.0935 C   0  0  0  0  0  0  0  0  0  0  0  0
   12.2810  -20.7960   18.8545 C   0  0  0  0  0  0  0  0  0  0  0  0
   11.3887  -19.7399   19.0262 C   0  0  0  0  0  0  0  0  0  0  0  0
   10.1424  -19.7870   18.4382 C   0  0  0  0  0  0  0  0  0  0  0  0
    8.4266  -16.4711   21.2523 C   0  0  0  0  0  0  0  0  0  0  0  0
    7.5851  -15.6535   20.8380 O   0  0  0  0  0  0  0  0  0  0  0  0
    9.2364  -16.2243   22.3930 N   0  0  0  0  0  0  0  0  0  0  0  0
    8.9944  -15.0181   23.1498 C   0  0  1  0  0  0  0  0  0  0  0  0
    7.5520  -15.0451   23.6913 C   0  0  0  0  0  0  0  0  0  0  0  0
    7.3327  -13.9310   24.6378 C   0  0  0  0  0  0  0  0  0  0  0  0
    7.3148  -12.6219   24.2131 C   0  0  0  0  0  0  0  0  0  0  0  0
    7.1065  -11.5787   25.1098 C   0  0  0  0  0  0  0  0  0  0  0  0
    6.9108  -11.8155   26.4523 C   0  0  0  0  0  0  0  0  0  0  0  0
    6.9280  -13.1288   26.8839 C   0  0  0  0  0  0  0  0  0  0  0  0
    7.1376  -14.1711   25.9779 C   0  0  0  0  0  0  0  0  0  0  0  0
    9.8483  -15.0336   24.3579 C   0  0  0  0  0  0  0  0  0  0  0  0
    9.9399  -13.9829   25.0304 O   0  0  0  0  0  0  0  0  0  0  0  0
    9.2293  -14.3298   30.4816 O   0  0  0  0  0  0  0  0  0  0  0  0
    9.9744  -14.9377   29.4709 C   0  0  0  0  0  0  0  0  0  0  0  0
   10.7636  -14.2074   28.6088 C   0  0  0  0  0  0  0  0  0  0  0  0
   11.4693  -14.8814   27.6366 C   0  0  0  0  0  0  0  0  0  0  0  0
   11.3961  -16.2574   27.5183 C   0  0  0  0  0  0  0  0  0  0  0  0
   12.2106  -16.8897   26.4231 C   0  0  0  0  0  0  0  0  0  0  0  0
   11.9563  -16.1963   25.1115 C   0  0  2  0  0  0  0  0  0  0  0  0
   10.5516  -16.2045   24.7553 N   0  0  0  0  0  0  0  0  0  0  0  0
   12.7183  -16.8200   24.0042 C   0  0  0  0  0  0  0  0  0  0  0  0
   12.1569  -17.2762   22.9758 O   0  0  0  0  0  0  0  0  0  0  0  0
   10.6165  -16.9764   28.3701 C   0  0  0  0  0  0  0  0  0  0  0  0
    9.9050  -16.3241   29.3461 C   0  0  0  0  0  0  0  0  0  0  0  0
   14.1151  -16.9342   24.0472 O   0  0  0  0  0  0  0  0  0  0  0  0
  2  1  1  6
  2  3  1  0
  4  3  1  0
  4  5  2  0
  6  5  1  0
  7  6  1  0
  8  7  2  0
  9  8  1  0
 10  9  2  0
 10 11  1  0
 11 12  2  0
 12  7  1  0
 12  4  1  0
 13  2  1  0
 13 14  2  0
 15 13  1  0
 16 17  1  1
 16 15  1  0
 18 17  1  0
 18 23  1  0
 19 18  2  0
 20 19  1  0
 20 21  2  0
 21 22  1  0
 22 23  2  0
 24 16  1  0
 25 24  2  0
 27 26  1  0
 27 28  2  0
 29 28  1  0
 30 29  2  0
 32 31  1  1
 31 30  1  0
 32 33  1  0
 33 24  1  0
 34 38  1  0
 34 32  1  0
 35 34  2  0
 36 37  2  0
 36 30  1  0
 37 27  1  0
M  END
$$$$
