WFY.pdb
     RDKit          3D

 38 41  0  0  1  0  0  0  0  0999 V2000
    9.8115  -16.8681   17.9421 N   0  0  0  0  0  0  0  0  0  0  0  0
    9.6807  -17.4855   19.2317 C   0  0  1  0  0  0  0  0  0  0  0  0
   10.6685  -18.6023   19.4586 C   0  0  0  0  0  0  0  0  0  0  0  0
   10.0903  -19.8550   18.9105 C   0  0  0  0  0  0  0  0  0  0  0  0
    9.9680  -20.1524   17.5484 C   0  0  0  0  0  0  0  0  0  0  0  0
    9.4325  -21.3749   17.3875 N   0  0  0  0  0  0  0  0  0  0  0  0
    9.1954  -21.8968   18.6036 C   0  0  0  0  0  0  0  0  0  0  0  0
    8.6550  -23.1079   18.9761 C   0  0  0  0  0  0  0  0  0  0  0  0
    8.5244  -23.3678   20.3217 C   0  0  0  0  0  0  0  0  0  0  0  0
    8.9074  -22.4765   21.2949 C   0  0  0  0  0  0  0  0  0  0  0  0
    9.4523  -21.2562   20.9013 C   0  0  0  0  0  0  0  0  0  0  0  0
    9.5977  -20.9655   19.5613 C   0  0  0  0  0  0  0  0  0  0  0  0
    9.7113  -16.4812   20.3281 C   0  0  0  0  0  0  0  0  0  0  0  0
   10.7553  -15.8398   20.5450 O   0  0  0  0  0  0  0  0  0  0  0  0
    8.5271  -16.2963   21.0906 N   0  0  0  0  0  0  0  0  0  0  0  0
    8.5900  -15.4282   22.2432 C   0  0  1  0  0  0  0  0  0  0  0  0
    7.1929  -14.8308   22.4996 C   0  0  0  0  0  0  0  0  0  0  0  0
    7.1735  -14.0871   23.7770 C   0  0  0  0  0  0  0  0  0  0  0  0
    7.7774  -12.8564   23.8998 C   0  0  0  0  0  0  0  0  0  0  0  0
    7.7539  -12.1619   25.1050 C   0  0  0  0  0  0  0  0  0  0  0  0
    7.1274  -12.6777   26.2178 C   0  0  0  0  0  0  0  0  0  0  0  0
    6.5194  -13.9137   26.0996 C   0  0  0  0  0  0  0  0  0  0  0  0
    6.5470  -14.6053   24.8862 C   0  0  0  0  0  0  0  0  0  0  0  0
    8.8728  -16.2473   23.4424 C   0  0  0  0  0  0  0  0  0  0  0  0
    7.9046  -16.7327   24.0683 O   0  0  0  0  0  0  0  0  0  0  0  0
   10.7894  -15.2891   31.4612 O   0  0  0  0  0  0  0  0  0  0  0  0
   10.6781  -15.2474   30.0712 C   0  0  0  0  0  0  0  0  0  0  0  0
   10.8421  -16.3735   29.2936 C   0  0  0  0  0  0  0  0  0  0  0  0
   10.7165  -16.2502   27.9275 C   0  0  0  0  0  0  0  0  0  0  0  0
   10.4328  -15.0316   27.3383 C   0  0  0  0  0  0  0  0  0  0  0  0
   10.3148  -15.0127   25.8388 C   0  0  0  0  0  0  0  0  0  0  0  0
   10.6054  -16.3762   25.2713 C   0  0  2  0  0  0  0  0  0  0  0  0
   10.2044  -16.4842   23.8829 N   0  0  0  0  0  0  0  0  0  0  0  0
    9.9211  -17.4457   26.0353 C   0  0  0  0  0  0  0  0  0  0  0  0
    8.7111  -17.7338   25.8512 O   0  0  0  0  0  0  0  0  0  0  0  0
   10.2713  -13.9214   28.1074 C   0  0  0  0  0  0  0  0  0  0  0  0
   10.3924  -14.0224   29.4710 C   0  0  0  0  0  0  0  0  0  0  0  0
   10.5933  -18.1969   27.0099 O   0  0  0  0  0  0  0  0  0  0  0  0
  2  1  1  6
  2  3  1  0
  4  3  1  0
  4  5  2  0
  6  5  1  0
  7  6  1  0
  8  7  2  0
  9  8  1  0
 10  9  2  0
 10 11  1  0
 11 12  2  0
 12  7  1  0
 12  4  1  0
 13  2  1  0
 13 14  2  0
 15 13  1  0
 16 17  1  1
 16 15  1  0
 18 17  1  0
 18 23  1  0
 19 18  2  0
 20 19  1  0
 20 21  2  0
 21 22  1  0
 22 23  2  0
 24 16  1  0
 25 24  2  0
 27 26  1  0
 27 28  2  0
 29 28  1  0
 30 29  2  0
 32 31  1  1
 31 30  1  0
 32 33  1  0
 33 24  1  0
 34 38  1  0
 34 32  1  0
 35 34  2  0
 36 37  2  0
 36 30  1  0
 37 27  1  0
M  END
$$$$
