WFY.pdb
     RDKit          3D

 38 41  0  0  1  0  0  0  0  0999 V2000
    5.8024  -19.8541   22.6462 N   0  0  0  0  0  0  0  0  0  0  0  0
    6.3258  -18.7985   23.4666 C   0  0  1  0  0  0  0  0  0  0  0  0
    6.8164  -19.2777   24.8098 C   0  0  0  0  0  0  0  0  0  0  0  0
    7.1045  -18.0896   25.6521 C   0  0  0  0  0  0  0  0  0  0  0  0
    6.1742  -17.0982   25.9844 C   0  0  0  0  0  0  0  0  0  0  0  0
    6.7430  -16.1784   26.7830 N   0  0  0  0  0  0  0  0  0  0  0  0
    8.0238  -16.5308   26.9896 C   0  0  0  0  0  0  0  0  0  0  0  0
    9.0200  -15.9235   27.7219 C   0  0  0  0  0  0  0  0  0  0  0  0
   10.2593  -16.5224   27.7436 C   0  0  0  0  0  0  0  0  0  0  0  0
   10.5370  -17.6881   27.0709 C   0  0  0  0  0  0  0  0  0  0  0  0
    9.5184  -18.2897   26.3352 C   0  0  0  0  0  0  0  0  0  0  0  0
    8.2654  -17.7156   26.2938 C   0  0  0  0  0  0  0  0  0  0  0  0
    7.3553  -18.0018   22.7475 C   0  0  0  0  0  0  0  0  0  0  0  0
    8.1925  -18.5817   22.0326 O   0  0  0  0  0  0  0  0  0  0  0  0
    7.3354  -16.5910   22.9118 N   0  0  0  0  0  0  0  0  0  0  0  0
    7.9254  -15.7778   21.8741 C   0  0  1  0  0  0  0  0  0  0  0  0
    7.1820  -14.4297   21.8077 C   0  0  0  0  0  0  0  0  0  0  0  0
    7.1782  -13.7740   23.1325 C   0  0  0  0  0  0  0  0  0  0  0  0
    8.0809  -12.7831   23.4450 C   0  0  0  0  0  0  0  0  0  0  0  0
    8.0704  -12.1697   24.6936 C   0  0  0  0  0  0  0  0  0  0  0  0
    7.1591  -12.5294   25.6616 C   0  0  0  0  0  0  0  0  0  0  0  0
    6.2503  -13.5243   25.3526 C   0  0  0  0  0  0  0  0  0  0  0  0
    6.2668  -14.1358   24.0968 C   0  0  0  0  0  0  0  0  0  0  0  0
    9.3061  -15.4248   22.2717 C   0  0  0  0  0  0  0  0  0  0  0  0
    9.7704  -14.3293   21.8859 O   0  0  0  0  0  0  0  0  0  0  0  0
   10.5758  -15.8209   29.7340 O   0  0  0  0  0  0  0  0  0  0  0  0
   10.8147  -15.5631   28.3838 C   0  0  0  0  0  0  0  0  0  0  0  0
   11.4982  -16.4524   27.5829 C   0  0  0  0  0  0  0  0  0  0  0  0
   11.6936  -16.1252   26.2592 C   0  0  0  0  0  0  0  0  0  0  0  0
   11.2203  -14.9362   25.7347 C   0  0  0  0  0  0  0  0  0  0  0  0
   11.4878  -14.6825   24.2763 C   0  0  0  0  0  0  0  0  0  0  0  0
   11.4400  -15.9718   23.5010 C   0  0  2  0  0  0  0  0  0  0  0  0
   10.0952  -16.2981   23.0707 N   0  0  0  0  0  0  0  0  0  0  0  0
   11.9607  -17.1093   24.2951 C   0  0  0  0  0  0  0  0  0  0  0  0
   13.1314  -17.1285   24.7535 O   0  0  0  0  0  0  0  0  0  0  0  0
   10.5460  -14.0599   26.5269 C   0  0  0  0  0  0  0  0  0  0  0  0
   10.3404  -14.3667   27.8490 C   0  0  0  0  0  0  0  0  0  0  0  0
   11.1684  -18.2310   24.5781 O   0  0  0  0  0  0  0  0  0  0  0  0
  2  1  1  6
  2  3  1  0
  4  3  1  0
  4  5  2  0
  6  5  1  0
  7  6  1  0
  8  7  2  0
  9  8  1  0
 10  9  2  0
 10 11  1  0
 11 12  2  0
 12  7  1  0
 12  4  1  0
 13  2  1  0
 13 14  2  0
 15 13  1  0
 16 17  1  1
 16 15  1  0
 18 17  1  0
 18 23  1  0
 19 18  2  0
 20 19  1  0
 20 21  2  0
 21 22  1  0
 22 23  2  0
 24 16  1  0
 25 24  2  0
 27 26  1  0
 27 28  2  0
 29 28  1  0
 30 29  2  0
 32 31  1  1
 31 30  1  0
 32 33  1  0
 33 24  1  0
 34 38  1  0
 34 32  1  0
 35 34  2  0
 36 37  2  0
 36 30  1  0
 37 27  1  0
M  END
$$$$
