WFY.pdb
     RDKit          3D

 38 41  0  0  1  0  0  0  0  0999 V2000
    6.6410  -20.7783   21.2235 N   0  0  0  0  0  0  0  0  0  0  0  0
    6.4644  -19.3612   21.0749 C   0  0  1  0  0  0  0  0  0  0  0  0
    5.8368  -18.7110   22.2823 C   0  0  0  0  0  0  0  0  0  0  0  0
    4.4922  -19.3062   22.4866 C   0  0  0  0  0  0  0  0  0  0  0  0
    4.0644  -19.9356   23.6612 C   0  0  0  0  0  0  0  0  0  0  0  0
    2.7883  -20.3382   23.5326 N   0  0  0  0  0  0  0  0  0  0  0  0
    2.3574  -19.9946   22.3064 C   0  0  0  0  0  0  0  0  0  0  0  0
    1.1397  -20.1857   21.6913 C   0  0  0  0  0  0  0  0  0  0  0  0
    0.9899  -19.7247   20.4028 C   0  0  0  0  0  0  0  0  0  0  0  0
    1.9961  -19.0893   19.7155 C   0  0  0  0  0  0  0  0  0  0  0  0
    3.2213  -18.9037   20.3520 C   0  0  0  0  0  0  0  0  0  0  0  0
    3.4035  -19.3530   21.6429 C   0  0  0  0  0  0  0  0  0  0  0  0
    7.7280  -18.6886   20.6716 C   0  0  0  0  0  0  0  0  0  0  0  0
    8.8089  -19.2954   20.7801 O   0  0  0  0  0  0  0  0  0  0  0  0
    7.6421  -17.3617   20.1720 N   0  0  0  0  0  0  0  0  0  0  0  0
    8.8622  -16.7147   19.7491 C   0  0  1  0  0  0  0  0  0  0  0  0
    8.5087  -15.4176   18.9961 C   0  0  0  0  0  0  0  0  0  0  0  0
    7.9737  -14.4049   19.9306 C   0  0  0  0  0  0  0  0  0  0  0  0
    6.8277  -14.6342   20.6576 C   0  0  0  0  0  0  0  0  0  0  0  0
    6.3309  -13.6767   21.5362 C   0  0  0  0  0  0  0  0  0  0  0  0
    6.9650  -12.4667   21.7115 C   0  0  0  0  0  0  0  0  0  0  0  0
    8.1165  -12.2316   20.9834 C   0  0  0  0  0  0  0  0  0  0  0  0
    8.6095  -13.1976   20.1031 C   0  0  0  0  0  0  0  0  0  0  0  0
    9.6022  -16.2620   20.9476 C   0  0  0  0  0  0  0  0  0  0  0  0
   10.2181  -15.1750   20.8863 O   0  0  0  0  0  0  0  0  0  0  0  0
    9.5168  -13.3329   28.9196 O   0  0  0  0  0  0  0  0  0  0  0  0
    9.3515  -13.8444   27.6321 C   0  0  0  0  0  0  0  0  0  0  0  0
   10.2676  -14.7059   27.0680 C   0  0  0  0  0  0  0  0  0  0  0  0
   10.0330  -15.1674   25.7915 C   0  0  0  0  0  0  0  0  0  0  0  0
    8.9093  -14.7830   25.0829 C   0  0  0  0  0  0  0  0  0  0  0  0
    8.7520  -15.3499   23.6984 C   0  0  0  0  0  0  0  0  0  0  0  0
    9.7617  -16.4402   23.4589 C   0  0  2  0  0  0  0  0  0  0  0  0
    9.6213  -17.0321   22.1435 N   0  0  0  0  0  0  0  0  0  0  0  0
    9.6519  -17.5209   24.4669 C   0  0  0  0  0  0  0  0  0  0  0  0
    9.7971  -17.3088   25.6977 O   0  0  0  0  0  0  0  0  0  0  0  0
    8.0064  -13.9327   25.6414 C   0  0  0  0  0  0  0  0  0  0  0  0
    8.2212  -13.4610   26.9125 C   0  0  0  0  0  0  0  0  0  0  0  0
    9.3783  -18.8453   24.0966 O   0  0  0  0  0  0  0  0  0  0  0  0
  2  1  1  1
  2  3  1  0
  4  3  1  0
  4  5  2  0
  6  5  1  0
  7  6  1  0
  8  7  2  0
  9  8  1  0
 10  9  2  0
 10 11  1  0
 11 12  2  0
 12  7  1  0
 12  4  1  0
 13  2  1  0
 13 14  2  0
 15 13  1  0
 16 17  1  6
 16 15  1  0
 18 17  1  0
 18 23  1  0
 19 18  2  0
 20 19  1  0
 20 21  2  0
 21 22  1  0
 22 23  2  0
 24 16  1  0
 25 24  2  0
 27 26  1  0
 27 28  2  0
 29 28  1  0
 30 29  2  0
 32 31  1  1
 31 30  1  0
 32 33  1  0
 33 24  1  0
 34 38  1  0
 34 32  1  0
 35 34  2  0
 36 37  2  0
 36 30  1  0
 37 27  1  0
M  END
$$$$
