WFY.pdb
     RDKit          3D

 38 41  0  0  1  0  0  0  0  0999 V2000
   10.5856  -16.5012   20.1417 N   0  0  0  0  0  0  0  0  0  0  0  0
    9.5542  -16.0042   21.0082 C   0  0  1  0  0  0  0  0  0  0  0  0
    8.1696  -16.4292   20.5882 C   0  0  0  0  0  0  0  0  0  0  0  0
    7.7023  -15.5082   19.5217 C   0  0  0  0  0  0  0  0  0  0  0  0
    7.2787  -15.9056   18.2484 C   0  0  0  0  0  0  0  0  0  0  0  0
    6.8927  -14.8347   17.5335 N   0  0  0  0  0  0  0  0  0  0  0  0
    7.0484  -13.7382   18.2956 C   0  0  0  0  0  0  0  0  0  0  0  0
    6.8034  -12.4097   18.0263 C   0  0  0  0  0  0  0  0  0  0  0  0
    7.0713  -11.4919   19.0168 C   0  0  0  0  0  0  0  0  0  0  0  0
    7.5678  -11.8461   20.2482 C   0  0  0  0  0  0  0  0  0  0  0  0
    7.8098  -13.1939   20.5047 C   0  0  0  0  0  0  0  0  0  0  0  0
    7.5510  -14.1384   19.5339 C   0  0  0  0  0  0  0  0  0  0  0  0
    9.8298  -16.3277   22.4334 C   0  0  0  0  0  0  0  0  0  0  0  0
   10.9796  -16.6559   22.7779 O   0  0  0  0  0  0  0  0  0  0  0  0
    8.7497  -16.2456   23.3523 N   0  0  0  0  0  0  0  0  0  0  0  0
    9.0430  -16.3857   24.7596 C   0  0  1  0  0  0  0  0  0  0  0  0
    7.7606  -16.1147   25.5700 C   0  0  0  0  0  0  0  0  0  0  0  0
    7.4646  -14.6668   25.6031 C   0  0  0  0  0  0  0  0  0  0  0  0
    8.1943  -13.8032   26.3880 C   0  0  0  0  0  0  0  0  0  0  0  0
    7.9105  -12.4415   26.4130 C   0  0  0  0  0  0  0  0  0  0  0  0
    6.8918  -11.9073   25.6555 C   0  0  0  0  0  0  0  0  0  0  0  0
    6.1558  -12.7707   24.8654 C   0  0  0  0  0  0  0  0  0  0  0  0
    6.4465  -14.1369   24.8454 C   0  0  0  0  0  0  0  0  0  0  0  0
    9.3709  -17.8009   25.0399 C   0  0  0  0  0  0  0  0  0  0  0  0
    8.4463  -18.6422   24.9933 O   0  0  0  0  0  0  0  0  0  0  0  0
   11.9672  -15.9691   32.5790 O   0  0  0  0  0  0  0  0  0  0  0  0
   11.8302  -16.1229   31.1992 C   0  0  0  0  0  0  0  0  0  0  0  0
   12.4141  -17.1720   30.5222 C   0  0  0  0  0  0  0  0  0  0  0  0
   12.2322  -17.2542   29.1593 C   0  0  0  0  0  0  0  0  0  0  0  0
   11.4841  -16.3133   28.4753 C   0  0  0  0  0  0  0  0  0  0  0  0
   11.3487  -16.5024   26.9891 C   0  0  0  0  0  0  0  0  0  0  0  0
   11.3081  -17.9676   26.6470 C   0  0  2  0  0  0  0  0  0  0  0  0
   10.6970  -18.2077   25.3551 N   0  0  0  0  0  0  0  0  0  0  0  0
   10.5639  -18.7480   27.6633 C   0  0  0  0  0  0  0  0  0  0  0  0
   11.1124  -19.6398   28.3597 O   0  0  0  0  0  0  0  0  0  0  0  0
   10.9088  -15.2788   29.1453 C   0  0  0  0  0  0  0  0  0  0  0  0
   11.0777  -15.1781   30.5038 C   0  0  0  0  0  0  0  0  0  0  0  0
    9.1996  -18.5301   27.9022 O   0  0  0  0  0  0  0  0  0  0  0  0
  2  1  1  6
  2  3  1  0
  4  3  1  0
  4  5  2  0
  6  5  1  0
  7  6  1  0
  8  7  2  0
  9  8  1  0
 10  9  2  0
 10 11  1  0
 11 12  2  0
 12  7  1  0
 12  4  1  0
 13  2  1  0
 13 14  2  0
 15 13  1  0
 16 17  1  1
 16 15  1  0
 18 17  1  0
 18 23  1  0
 19 18  2  0
 20 19  1  0
 20 21  2  0
 21 22  1  0
 22 23  2  0
 24 16  1  0
 25 24  2  0
 27 26  1  0
 27 28  2  0
 29 28  1  0
 30 29  2  0
 32 31  1  1
 31 30  1  0
 32 33  1  0
 33 24  1  0
 34 38  1  0
 34 32  1  0
 35 34  2  0
 36 37  2  0
 36 30  1  0
 37 27  1  0
M  END
$$$$
