WFY.pdb
     RDKit          3D

 38 41  0  0  1  0  0  0  0  0999 V2000
   11.0752  -16.9270   19.3765 N   0  0  0  0  0  0  0  0  0  0  0  0
   10.0737  -16.5934   20.3497 C   0  0  1  0  0  0  0  0  0  0  0  0
    8.6661  -16.7735   19.8392 C   0  0  0  0  0  0  0  0  0  0  0  0
    8.2733  -15.5417   19.1096 C   0  0  0  0  0  0  0  0  0  0  0  0
    8.1014  -15.4516   17.7236 C   0  0  0  0  0  0  0  0  0  0  0  0
    7.7166  -14.2090   17.3844 N   0  0  0  0  0  0  0  0  0  0  0  0
    7.6288  -13.4721   18.5053 C   0  0  0  0  0  0  0  0  0  0  0  0
    7.2840  -12.1516   18.6925 C   0  0  0  0  0  0  0  0  0  0  0  0
    7.2902  -11.6608   19.9787 C   0  0  0  0  0  0  0  0  0  0  0  0
    7.6232  -12.4281   21.0690 C   0  0  0  0  0  0  0  0  0  0  0  0
    7.9692  -13.7617   20.8625 C   0  0  0  0  0  0  0  0  0  0  0  0
    7.9718  -14.2843   19.5865 C   0  0  0  0  0  0  0  0  0  0  0  0
   10.2971  -17.3061   21.6357 C   0  0  0  0  0  0  0  0  0  0  0  0
   11.4543  -17.6124   21.9755 O   0  0  0  0  0  0  0  0  0  0  0  0
    9.1602  -17.6096   22.4313 N   0  0  0  0  0  0  0  0  0  0  0  0
    8.9233  -16.8099   23.6106 C   0  0  1  0  0  0  0  0  0  0  0  0
    8.0257  -15.6148   23.2358 C   0  0  0  0  0  0  0  0  0  0  0  0
    7.6926  -14.8199   24.4367 C   0  0  0  0  0  0  0  0  0  0  0  0
    6.5486  -15.0622   25.1626 C   0  0  0  0  0  0  0  0  0  0  0  0
    6.2424  -14.3106   26.2927 C   0  0  0  0  0  0  0  0  0  0  0  0
    7.0698  -13.2987   26.7266 C   0  0  0  0  0  0  0  0  0  0  0  0
    8.2201  -13.0514   26.0007 C   0  0  0  0  0  0  0  0  0  0  0  0
    8.5211  -13.8101   24.8672 C   0  0  0  0  0  0  0  0  0  0  0  0
    8.1163  -17.5987   24.5675 C   0  0  0  0  0  0  0  0  0  0  0  0
    6.8761  -17.4357   24.5696 O   0  0  0  0  0  0  0  0  0  0  0  0
   11.6555  -15.5063   31.9451 O   0  0  0  0  0  0  0  0  0  0  0  0
   11.2299  -15.8504   30.6619 C   0  0  0  0  0  0  0  0  0  0  0  0
   11.1396  -17.1633   30.2525 C   0  0  0  0  0  0  0  0  0  0  0  0
   10.7107  -17.4213   28.9692 C   0  0  0  0  0  0  0  0  0  0  0  0
   10.3758  -16.3964   28.1030 C   0  0  0  0  0  0  0  0  0  0  0  0
    9.9171  -16.7927   26.7263 C   0  0  0  0  0  0  0  0  0  0  0  0
    9.2330  -18.1329   26.7655 C   0  0  2  0  0  0  0  0  0  0  0  0
    8.7213  -18.5205   25.4662 N   0  0  0  0  0  0  0  0  0  0  0  0
    8.1074  -18.1464   27.7292 C   0  0  0  0  0  0  0  0  0  0  0  0
    7.9961  -19.0268   28.6198 O   0  0  0  0  0  0  0  0  0  0  0  0
   10.4656  -15.1013   28.5090 C   0  0  0  0  0  0  0  0  0  0  0  0
   10.8910  -14.8223   29.7839 C   0  0  0  0  0  0  0  0  0  0  0  0
    7.1012  -17.1704   27.6967 O   0  0  0  0  0  0  0  0  0  0  0  0
  2  1  1  6
  2  3  1  0
  4  3  1  0
  4  5  2  0
  6  5  1  0
  7  6  1  0
  8  7  2  0
  9  8  1  0
 10  9  2  0
 10 11  1  0
 11 12  2  0
 12  7  1  0
 12  4  1  0
 13  2  1  0
 13 14  2  0
 15 13  1  0
 16 17  1  6
 16 15  1  0
 18 17  1  0
 18 23  1  0
 19 18  2  0
 20 19  1  0
 20 21  2  0
 21 22  1  0
 22 23  2  0
 24 16  1  0
 25 24  2  0
 27 26  1  0
 27 28  2  0
 29 28  1  0
 30 29  2  0
 32 31  1  6
 31 30  1  0
 32 33  1  0
 33 24  1  0
 34 38  1  0
 34 32  1  0
 35 34  2  0
 36 37  2  0
 36 30  1  0
 37 27  1  0
M  END
$$$$
