GVQ.pdb
     RDKit          3D

 21 20  0  0  1  0  0  0  0  0999 V2000
   20.6740  -14.9354  -18.1837 N   0  0  0  0  0  0  0  0  0  0  0  0
   21.1434  -13.9429  -17.2423 C   0  0  0  0  0  0  0  0  0  0  0  0
   20.3333  -12.6988  -17.3035 C   0  0  0  0  0  0  0  0  0  0  0  0
   20.0455  -12.2479  -18.4410 O   0  0  0  0  0  0  0  0  0  0  0  0
   16.8909  -11.9561  -16.2783 C   0  0  0  0  0  0  0  0  0  0  0  0
   17.7540  -10.9937  -15.5275 C   0  0  2  0  0  0  0  0  0  0  0  0
   17.0885   -9.6554  -15.3113 C   0  0  0  0  0  0  0  0  0  0  0  0
   19.1150  -10.8132  -16.1632 C   0  0  2  0  0  0  0  0  0  0  0  0
   19.8933  -12.0326  -16.1268 N   0  0  0  0  0  0  0  0  0  0  0  0
   19.8524   -9.7357  -15.4403 C   0  0  0  0  0  0  0  0  0  0  0  0
   20.2046   -9.9711  -14.2629 O   0  0  0  0  0  0  0  0  0  0  0  0
   22.0787   -4.2439  -17.9751 N   0  0  0  0  0  0  0  0  0  0  0  0
   22.4883   -4.1904  -16.6159 C   0  0  0  0  0  0  0  0  0  0  0  0
   23.1594   -3.2095  -16.2287 O   0  0  0  0  0  0  0  0  0  0  0  0
   22.1106   -5.2892  -15.7127 C   0  0  0  0  0  0  0  0  0  0  0  0
   21.2472   -6.3446  -16.2992 C   0  0  0  0  0  0  0  0  0  0  0  0
   20.9675   -7.4735  -15.3764 C   0  0  2  0  0  0  0  0  0  0  0  0
   20.1481   -8.4903  -16.0529 N   0  0  0  0  0  0  0  0  0  0  0  0
   20.2731   -7.0596  -14.1560 C   0  0  0  0  0  0  0  0  0  0  0  0
   20.8974   -7.0084  -13.0678 O   0  0  0  0  0  0  0  0  0  0  0  0
   18.9352   -6.7073  -14.1115 O   0  0  0  0  0  0  0  0  0  0  0  0
  1  2  1  0
  3  2  1  0
  3  4  2  0
  6  5  1  6
  6  8  1  0
  7  6  1  0
  8  9  1  1
  8 10  1  0
  9  3  1  0
 10 11  2  0
 13 14  2  0
 13 12  1  0
 15 13  1  0
 16 15  1  0
 17 16  1  6
 18 10  1  0
 18 17  1  0
 19 21  1  0
 19 17  1  0
 20 19  2  0
M  END
$$$$
