GVQ.pdb
     RDKit          3D

 21 20  0  0  1  0  0  0  0  0999 V2000
   28.3953  -21.9486  -15.7722 N   0  0  0  0  0  0  0  0  0  0  0  0
   27.8352  -20.8965  -14.9531 C   0  0  0  0  0  0  0  0  0  0  0  0
   26.7605  -21.4051  -14.0619 C   0  0  0  0  0  0  0  0  0  0  0  0
   26.2139  -22.4934  -14.3730 O   0  0  0  0  0  0  0  0  0  0  0  0
   26.7113  -20.9768   -9.9803 C   0  0  0  0  0  0  0  0  0  0  0  0
   25.4195  -20.6009  -10.6322 C   0  0  2  0  0  0  0  0  0  0  0  0
   24.2143  -20.9714   -9.8011 C   0  0  0  0  0  0  0  0  0  0  0  0
   25.2901  -21.1576  -12.0330 C   0  0  2  0  0  0  0  0  0  0  0  0
   26.3555  -20.6971  -12.8970 N   0  0  0  0  0  0  0  0  0  0  0  0
   23.9762  -20.7401  -12.6046 C   0  0  0  0  0  0  0  0  0  0  0  0
   23.8090  -19.5206  -12.8293 O   0  0  0  0  0  0  0  0  0  0  0  0
   20.3855  -24.2416  -16.3952 N   0  0  0  0  0  0  0  0  0  0  0  0
   19.6856  -23.0070  -16.3305 C   0  0  0  0  0  0  0  0  0  0  0  0
   18.6827  -22.8460  -17.0589 O   0  0  0  0  0  0  0  0  0  0  0  0
   20.1646  -21.9623  -15.4114 C   0  0  0  0  0  0  0  0  0  0  0  0
   21.3791  -22.2952  -14.6255 C   0  0  0  0  0  0  0  0  0  0  0  0
   21.7187  -21.2881  -13.5889 C   0  0  2  0  0  0  0  0  0  0  0  0
   22.9501  -21.6792  -12.8863 N   0  0  0  0  0  0  0  0  0  0  0  0
   20.6592  -21.1065  -12.5952 C   0  0  0  0  0  0  0  0  0  0  0  0
   20.6144  -21.8515  -11.5855 O   0  0  0  0  0  0  0  0  0  0  0  0
   19.6713  -20.1416  -12.6885 O   0  0  0  0  0  0  0  0  0  0  0  0
  1  2  1  0
  3  2  1  0
  3  4  2  0
  6  5  1  1
  6  8  1  0
  7  6  1  0
  8  9  1  6
  8 10  1  0
  9  3  1  0
 10 11  2  0
 13 14  2  0
 13 12  1  0
 15 13  1  0
 16 15  1  0
 17 16  1  6
 18 10  1  0
 18 17  1  0
 19 21  1  0
 19 17  1  0
 20 19  2  0
M  END
$$$$
