GVQ.pdb
     RDKit          3D

 21 20  0  0  1  0  0  0  0  0999 V2000
   23.9309  -20.6571   -8.4658 N   0  0  0  0  0  0  0  0  0  0  0  0
   24.9011  -21.3016   -9.3230 C   0  0  0  0  0  0  0  0  0  0  0  0
   25.2443  -20.4589  -10.4977 C   0  0  0  0  0  0  0  0  0  0  0  0
   24.7634  -19.2984  -10.5411 O   0  0  0  0  0  0  0  0  0  0  0  0
   28.8771  -20.2738  -12.1021 C   0  0  0  0  0  0  0  0  0  0  0  0
   27.8457  -20.4326  -13.1726 C   0  0  2  0  0  0  0  0  0  0  0  0
   28.1616  -19.6324  -14.4138 C   0  0  0  0  0  0  0  0  0  0  0  0
   26.4471  -20.1252  -12.6844 C   0  0  2  0  0  0  0  0  0  0  0  0
   26.0846  -20.9351  -11.5415 N   0  0  0  0  0  0  0  0  0  0  0  0
   25.4780  -20.3734  -13.7920 C   0  0  0  0  0  0  0  0  0  0  0  0
   25.2442  -21.5648  -14.0945 O   0  0  0  0  0  0  0  0  0  0  0  0
   19.6319  -20.4676  -16.1358 N   0  0  0  0  0  0  0  0  0  0  0  0
   20.2231  -19.3098  -15.5629 C   0  0  0  0  0  0  0  0  0  0  0  0
   19.6508  -18.7573  -14.5989 O   0  0  0  0  0  0  0  0  0  0  0  0
   21.4852  -18.8013  -16.1233 C   0  0  0  0  0  0  0  0  0  0  0  0
   22.6097  -18.6561  -15.1653 C   0  0  0  0  0  0  0  0  0  0  0  0
   23.7580  -19.5543  -15.4461 C   0  0  2  0  0  0  0  0  0  0  0  0
   24.8411  -19.3092  -14.4818 N   0  0  0  0  0  0  0  0  0  0  0  0
   24.2983  -19.3912  -16.7968 C   0  0  0  0  0  0  0  0  0  0  0  0
   25.1712  -18.5167  -17.0200 O   0  0  0  0  0  0  0  0  0  0  0  0
   23.9062  -20.1558  -17.8820 O   0  0  0  0  0  0  0  0  0  0  0  0
  1  2  1  0
  3  2  1  0
  3  4  2  0
  6  5  1  1
  6  8  1  0
  7  6  1  0
  8  9  1  1
  8 10  1  0
  9  3  1  0
 10 11  2  0
 13 14  2  0
 13 12  1  0
 15 13  1  0
 16 15  1  0
 17 16  1  1
 18 10  1  0
 18 17  1  0
 19 21  1  0
 19 17  1  0
 20 19  2  0
M  END
$$$$
