GVQ.pdb
     RDKit          3D

 21 20  0  0  1  0  0  0  0  0999 V2000
   28.4214  -21.5784  -14.9713 N   0  0  0  0  0  0  0  0  0  0  0  0
   27.8615  -20.8084  -16.0600 C   0  0  0  0  0  0  0  0  0  0  0  0
   27.1323  -19.6103  -15.5695 C   0  0  0  0  0  0  0  0  0  0  0  0
   27.0440  -19.4523  -14.3256 O   0  0  0  0  0  0  0  0  0  0  0  0
   27.5825  -15.8843  -16.5101 C   0  0  0  0  0  0  0  0  0  0  0  0
   26.1532  -16.2638  -16.7297 C   0  0  2  0  0  0  0  0  0  0  0  0
   25.1920  -15.1513  -16.3849 C   0  0  0  0  0  0  0  0  0  0  0  0
   25.7713  -17.5380  -16.0087 C   0  0  2  0  0  0  0  0  0  0  0  0
   26.5508  -18.6692  -16.4630 N   0  0  0  0  0  0  0  0  0  0  0  0
   24.3225  -17.8132  -16.2384 C   0  0  0  0  0  0  0  0  0  0  0  0
   23.9840  -18.1913  -17.3821 O   0  0  0  0  0  0  0  0  0  0  0  0
   20.3065  -19.6741  -11.7500 N   0  0  0  0  0  0  0  0  0  0  0  0
   19.4615  -19.5576  -12.8860 C   0  0  0  0  0  0  0  0  0  0  0  0
   18.2567  -19.8706  -12.7734 O   0  0  0  0  0  0  0  0  0  0  0  0
   20.0322  -19.0747  -14.1536 C   0  0  0  0  0  0  0  0  0  0  0  0
   21.4770  -18.7352  -14.1281 C   0  0  0  0  0  0  0  0  0  0  0  0
   21.9684  -18.1053  -15.3795 C   0  0  2  0  0  0  0  0  0  0  0  0
   23.3584  -17.6560  -15.2091 N   0  0  0  0  0  0  0  0  0  0  0  0
   21.1619  -16.9585  -15.8007 C   0  0  0  0  0  0  0  0  0  0  0  0
   21.5052  -15.7970  -15.4693 O   0  0  0  0  0  0  0  0  0  0  0  0
   20.0118  -17.0629  -16.5637 O   0  0  0  0  0  0  0  0  0  0  0  0
  1  2  1  0
  3  2  1  0
  3  4  2  0
  6  5  1  1
  6  8  1  0
  7  6  1  0
  8  9  1  6
  8 10  1  0
  9  3  1  0
 10 11  2  0
 13 14  2  0
 13 12  1  0
 15 13  1  0
 16 15  1  0
 17 16  1  1
 18 10  1  0
 18 17  1  0
 19 21  1  0
 19 17  1  0
 20 19  2  0
M  END
$$$$
