GVQ.pdb
     RDKit          3D

 21 20  0  0  1  0  0  0  0  0999 V2000
   21.1242  -11.3792  -21.1541 N   0  0  0  0  0  0  0  0  0  0  0  0
   20.3729  -10.4228  -20.3714 C   0  0  0  0  0  0  0  0  0  0  0  0
   21.2582   -9.4079  -19.7436 C   0  0  0  0  0  0  0  0  0  0  0  0
   22.2566   -9.8239  -19.1032 O   0  0  0  0  0  0  0  0  0  0  0  0
   22.8592   -6.2749  -21.4208 C   0  0  0  0  0  0  0  0  0  0  0  0
   22.1117   -5.8564  -20.1957 C   0  0  2  0  0  0  0  0  0  0  0  0
   22.7781   -4.7158  -19.4638 C   0  0  0  0  0  0  0  0  0  0  0  0
   21.8462   -7.0094  -19.2528 C   0  0  2  0  0  0  0  0  0  0  0  0
   20.9974   -8.0145  -19.8554 N   0  0  0  0  0  0  0  0  0  0  0  0
   21.1922   -6.4882  -18.0166 C   0  0  0  0  0  0  0  0  0  0  0  0
   20.0016   -6.1151  -18.1103 O   0  0  0  0  0  0  0  0  0  0  0  0
   19.4423   -9.3305  -13.4521 N   0  0  0  0  0  0  0  0  0  0  0  0
   19.5109   -8.0732  -12.7941 C   0  0  0  0  0  0  0  0  0  0  0  0
   19.0893   -7.9854  -11.6207 O   0  0  0  0  0  0  0  0  0  0  0  0
   20.0734   -6.9201  -13.5149 C   0  0  0  0  0  0  0  0  0  0  0  0
   20.6248   -7.2030  -14.8637 C   0  0  0  0  0  0  0  0  0  0  0  0
   21.2013   -6.0130  -15.5388 C   0  0  2  0  0  0  0  0  0  0  0  0
   21.8826   -6.4141  -16.7790 N   0  0  0  0  0  0  0  0  0  0  0  0
   22.1573   -5.2849  -14.7028 C   0  0  0  0  0  0  0  0  0  0  0  0
   23.3881   -5.3805  -14.9318 O   0  0  0  0  0  0  0  0  0  0  0  0
   21.7928   -4.4707  -13.6444 O   0  0  0  0  0  0  0  0  0  0  0  0
  1  2  1  0
  3  2  1  0
  3  4  2  0
  6  5  1  6
  6  8  1  0
  7  6  1  0
  8  9  1  6
  8 10  1  0
  9  3  1  0
 10 11  2  0
 13 14  2  0
 13 12  1  0
 15 13  1  0
 16 15  1  0
 17 16  1  1
 18 10  1  0
 18 17  1  0
 19 21  1  0
 19 17  1  0
 20 19  2  0
M  END
$$$$
