GVQ.pdb
     RDKit          3D

 21 20  0  0  1  0  0  0  0  0999 V2000
   24.8053  -16.0107  -17.6398 N   0  0  0  0  0  0  0  0  0  0  0  0
   25.5399  -16.1017  -16.3973 C   0  0  0  0  0  0  0  0  0  0  0  0
   25.6579  -17.5067  -15.9286 C   0  0  0  0  0  0  0  0  0  0  0  0
   24.9181  -18.3651  -16.4726 O   0  0  0  0  0  0  0  0  0  0  0  0
   29.0418  -19.4230  -15.3798 C   0  0  0  0  0  0  0  0  0  0  0  0
   28.1702  -19.5909  -14.1769 C   0  0  2  0  0  0  0  0  0  0  0  0
   28.2801  -20.9654  -13.5611 C   0  0  0  0  0  0  0  0  0  0  0  0
   26.7230  -19.2471  -14.4533 C   0  0  2  0  0  0  0  0  0  0  0  0
   26.5698  -17.8805  -14.9034 N   0  0  0  0  0  0  0  0  0  0  0  0
   25.9270  -19.4480  -13.2069 C   0  0  0  0  0  0  0  0  0  0  0  0
   26.1483  -18.6699  -12.2524 O   0  0  0  0  0  0  0  0  0  0  0  0
   20.3080  -20.0966  -12.3885 N   0  0  0  0  0  0  0  0  0  0  0  0
   20.6489  -20.7322  -11.1645 C   0  0  0  0  0  0  0  0  0  0  0  0
   19.8465  -20.6646  -10.2085 O   0  0  0  0  0  0  0  0  0  0  0  0
   21.9322  -21.4454  -11.0638 C   0  0  0  0  0  0  0  0  0  0  0  0
   22.8504  -21.2972  -12.2206 C   0  0  0  0  0  0  0  0  0  0  0  0
   24.1380  -20.6387  -11.8851 C   0  0  2  0  0  0  0  0  0  0  0  0
   24.9555  -20.4766  -13.0970 N   0  0  0  0  0  0  0  0  0  0  0  0
   24.9223  -21.3803  -10.8963 C   0  0  0  0  0  0  0  0  0  0  0  0
   25.6465  -22.3382  -11.2631 O   0  0  0  0  0  0  0  0  0  0  0  0
   24.9260  -21.0936   -9.5422 O   0  0  0  0  0  0  0  0  0  0  0  0
  1  2  1  0
  3  2  1  0
  3  4  2  0
  6  5  1  6
  6  8  1  0
  7  6  1  0
  8  9  1  1
  8 10  1  0
  9  3  1  0
 10 11  2  0
 13 14  2  0
 13 12  1  0
 15 13  1  0
 16 15  1  0
 17 16  1  6
 18 10  1  0
 18 17  1  0
 19 21  1  0
 19 17  1  0
 20 19  2  0
M  END
$$$$
