GVQ.pdb
     RDKit          3D

 21 20  0  0  1  0  0  0  0  0999 V2000
   23.7266  -14.6562  -19.7628 N   0  0  0  0  0  0  0  0  0  0  0  0
   23.7079  -13.2189  -19.9232 C   0  0  0  0  0  0  0  0  0  0  0  0
   23.6940  -12.5185  -18.6128 C   0  0  0  0  0  0  0  0  0  0  0  0
   22.8737  -12.9185  -17.7485 O   0  0  0  0  0  0  0  0  0  0  0  0
   26.8432  -11.7000  -16.4797 C   0  0  0  0  0  0  0  0  0  0  0  0
   26.0087  -10.4654  -16.5990 C   0  0  2  0  0  0  0  0  0  0  0  0
   25.9974   -9.6413  -15.3336 C   0  0  0  0  0  0  0  0  0  0  0  0
   24.5959  -10.7587  -17.0541 C   0  0  2  0  0  0  0  0  0  0  0  0
   24.5708  -11.4343  -18.3334 N   0  0  0  0  0  0  0  0  0  0  0  0
   23.8407   -9.4758  -17.1590 C   0  0  0  0  0  0  0  0  0  0  0  0
   24.1158   -8.7242  -18.1207 O   0  0  0  0  0  0  0  0  0  0  0  0
   18.0157   -8.5953  -17.5865 N   0  0  0  0  0  0  0  0  0  0  0  0
   18.4325   -7.2538  -17.3742 C   0  0  0  0  0  0  0  0  0  0  0  0
   17.6185   -6.3303  -17.5903 O   0  0  0  0  0  0  0  0  0  0  0  0
   19.8052   -6.9980  -16.9095 C   0  0  0  0  0  0  0  0  0  0  0  0
   20.6812   -8.1897  -16.7832 C   0  0  0  0  0  0  0  0  0  0  0  0
   22.0662   -7.8742  -16.3517 C   0  0  2  0  0  0  0  0  0  0  0  0
   22.8482   -9.1120  -16.2121 N   0  0  0  0  0  0  0  0  0  0  0  0
   22.1213   -7.1489  -15.0814 C   0  0  0  0  0  0  0  0  0  0  0  0
   22.3040   -7.7772  -14.0097 O   0  0  0  0  0  0  0  0  0  0  0  0
   21.9837   -5.7760  -14.9703 O   0  0  0  0  0  0  0  0  0  0  0  0
  1  2  1  0
  3  2  1  0
  3  4  2  0
  6  5  1  1
  6  8  1  0
  7  6  1  0
  8  9  1  6
  8 10  1  0
  9  3  1  0
 10 11  2  0
 13 14  2  0
 13 12  1  0
 15 13  1  0
 16 15  1  0
 17 16  1  1
 18 10  1  0
 18 17  1  0
 19 21  1  0
 19 17  1  0
 20 19  2  0
M  END
$$$$
