GVQ.pdb
     RDKit          3D

 21 20  0  0  1  0  0  0  0  0999 V2000
   19.5264  -14.6498  -17.5119 N   0  0  0  0  0  0  0  0  0  0  0  0
   19.1547  -13.9778  -16.2864 C   0  0  0  0  0  0  0  0  0  0  0  0
   18.6449  -12.6059  -16.5431 C   0  0  0  0  0  0  0  0  0  0  0  0
   18.9903  -12.0485  -17.6155 O   0  0  0  0  0  0  0  0  0  0  0  0
   15.1442  -11.3833  -16.9337 C   0  0  0  0  0  0  0  0  0  0  0  0
   15.7568  -10.5909  -15.8238 C   0  0  2  0  0  0  0  0  0  0  0  0
   15.2468   -9.1706  -15.7672 C   0  0  0  0  0  0  0  0  0  0  0  0
   17.2692  -10.6109  -15.8594 C   0  0  2  0  0  0  0  0  0  0  0  0
   17.7968  -11.9366  -15.6184 N   0  0  0  0  0  0  0  0  0  0  0  0
   17.7942   -9.6751  -14.8222 C   0  0  0  0  0  0  0  0  0  0  0  0
   17.6547  -10.0084  -13.6243 O   0  0  0  0  0  0  0  0  0  0  0  0
   22.5945   -5.6259  -15.4681 N   0  0  0  0  0  0  0  0  0  0  0  0
   22.0530   -5.2616  -14.2062 C   0  0  0  0  0  0  0  0  0  0  0  0
   22.6321   -4.3798  -13.5358 O   0  0  0  0  0  0  0  0  0  0  0  0
   20.8327   -5.9338  -13.7322 C   0  0  0  0  0  0  0  0  0  0  0  0
   20.2628   -6.9613  -14.6392 C   0  0  0  0  0  0  0  0  0  0  0  0
   18.9992   -7.5643  -14.1454 C   0  0  2  0  0  0  0  0  0  0  0  0
   18.4280   -8.4535  -15.1683 N   0  0  0  0  0  0  0  0  0  0  0  0
   17.9891   -6.5677  -13.7855 C   0  0  0  0  0  0  0  0  0  0  0  0
   17.2308   -6.0983  -14.6693 O   0  0  0  0  0  0  0  0  0  0  0  0
   17.8008   -6.0897  -12.5002 O   0  0  0  0  0  0  0  0  0  0  0  0
  1  2  1  0
  3  2  1  0
  3  4  2  0
  6  5  1  6
  6  8  1  0
  7  6  1  0
  8  9  1  1
  8 10  1  0
  9  3  1  0
 10 11  2  0
 13 14  2  0
 13 12  1  0
 15 13  1  0
 16 15  1  0
 17 16  1  6
 18 10  1  0
 18 17  1  0
 19 21  1  0
 19 17  1  0
 20 19  2  0
M  END
$$$$
