GVQ.pdb
     RDKit          3D

 21 20  0  0  1  0  0  0  0  0999 V2000
   18.3887  -15.8476  -16.0575 N   0  0  0  0  0  0  0  0  0  0  0  0
   17.5106  -14.9463  -15.3445 C   0  0  0  0  0  0  0  0  0  0  0  0
   17.3304  -13.6629  -16.0712 C   0  0  0  0  0  0  0  0  0  0  0  0
   18.0536  -13.4589  -17.0789 O   0  0  0  0  0  0  0  0  0  0  0  0
   14.2662  -12.1081  -17.7186 C   0  0  0  0  0  0  0  0  0  0  0  0
   14.7796  -11.1502  -16.6920 C   0  0  2  0  0  0  0  0  0  0  0  0
   14.5942   -9.7063  -17.0935 C   0  0  0  0  0  0  0  0  0  0  0  0
   16.2208  -11.4160  -16.3162 C   0  0  2  0  0  0  0  0  0  0  0  0
   16.3787  -12.6925  -15.6532 N   0  0  0  0  0  0  0  0  0  0  0  0
   16.6979  -10.3285  -15.4123 C   0  0  0  0  0  0  0  0  0  0  0  0
   16.2551  -10.3185  -14.2421 O   0  0  0  0  0  0  0  0  0  0  0  0
   22.3328   -7.5644  -15.5690 N   0  0  0  0  0  0  0  0  0  0  0  0
   21.6538   -6.8220  -14.5659 C   0  0  0  0  0  0  0  0  0  0  0  0
   22.2919   -5.9654  -13.9169 O   0  0  0  0  0  0  0  0  0  0  0  0
   20.2264   -7.0871  -14.3250 C   0  0  0  0  0  0  0  0  0  0  0  0
   19.6078   -8.1352  -15.1748 C   0  0  0  0  0  0  0  0  0  0  0  0
   18.1557   -8.3262  -14.9317 C   0  0  2  0  0  0  0  0  0  0  0  0
   17.6167   -9.3399  -15.8509 N   0  0  0  0  0  0  0  0  0  0  0  0
   17.3790   -7.0962  -15.0956 C   0  0  0  0  0  0  0  0  0  0  0  0
   16.9311   -6.7853  -16.2267 O   0  0  0  0  0  0  0  0  0  0  0  0
   17.0909   -6.2223  -14.0616 O   0  0  0  0  0  0  0  0  0  0  0  0
  1  2  1  0
  3  2  1  0
  3  4  2  0
  6  5  1  6
  6  8  1  0
  7  6  1  0
  8  9  1  1
  8 10  1  0
  9  3  1  0
 10 11  2  0
 13 14  2  0
 13 12  1  0
 15 13  1  0
 16 15  1  0
 17 16  1  6
 18 10  1  0
 18 17  1  0
 19 21  1  0
 19 17  1  0
 20 19  2  0
M  END
$$$$
