GVQ.pdb
     RDKit          3D

 21 20  0  0  1  0  0  0  0  0999 V2000
   18.6890  -15.1123  -17.2520 N   0  0  0  0  0  0  0  0  0  0  0  0
   18.7895  -13.7090  -17.5874 C   0  0  0  0  0  0  0  0  0  0  0  0
   19.5911  -12.9592  -16.5859 C   0  0  0  0  0  0  0  0  0  0  0  0
   19.0714  -12.7559  -15.4596 O   0  0  0  0  0  0  0  0  0  0  0  0
   23.6147  -13.2687  -15.9986 C   0  0  0  0  0  0  0  0  0  0  0  0
   23.1586  -11.8543  -16.1609 C   0  0  2  0  0  0  0  0  0  0  0  0
   23.9293  -10.8872  -15.2941 C   0  0  0  0  0  0  0  0  0  0  0  0
   21.6703  -11.6932  -15.9423 C   0  0  2  0  0  0  0  0  0  0  0  0
   20.8992  -12.4835  -16.8774 N   0  0  0  0  0  0  0  0  0  0  0  0
   21.3073  -10.2538  -16.0963 C   0  0  0  0  0  0  0  0  0  0  0  0
   21.2683   -9.7925  -17.2587 O   0  0  0  0  0  0  0  0  0  0  0  0
   16.3718   -7.5210  -15.4952 N   0  0  0  0  0  0  0  0  0  0  0  0
   17.1949   -6.3631  -15.5067 C   0  0  0  0  0  0  0  0  0  0  0  0
   16.6542   -5.2426  -15.6274 O   0  0  0  0  0  0  0  0  0  0  0  0
   18.6522   -6.5219  -15.3777 C   0  0  0  0  0  0  0  0  0  0  0  0
   19.1467   -7.9174  -15.2704 C   0  0  0  0  0  0  0  0  0  0  0  0
   20.6214   -8.0236  -15.1364 C   0  0  2  0  0  0  0  0  0  0  0  0
   21.0160   -9.4315  -14.9770 N   0  0  0  0  0  0  0  0  0  0  0  0
   21.1515   -7.2654  -14.0019 C   0  0  0  0  0  0  0  0  0  0  0  0
   21.4405   -7.8584  -12.9335 O   0  0  0  0  0  0  0  0  0  0  0  0
   21.3662   -5.8981  -14.0207 O   0  0  0  0  0  0  0  0  0  0  0  0
  1  2  1  0
  3  2  1  0
  3  4  2  0
  6  5  1  1
  6  8  1  0
  7  6  1  0
  8  9  1  6
  8 10  1  0
  9  3  1  0
 10 11  2  0
 13 14  2  0
 13 12  1  0
 15 13  1  0
 16 15  1  0
 17 16  1  1
 18 10  1  0
 18 17  1  0
 19 21  1  0
 19 17  1  0
 20 19  2  0
M  END
$$$$
