GVQ.pdb
     RDKit          3D

 21 20  0  0  1  0  0  0  0  0999 V2000
   19.3852  -16.8855  -12.9846 N   0  0  0  0  0  0  0  0  0  0  0  0
   20.2189  -18.0629  -12.8827 C   0  0  0  0  0  0  0  0  0  0  0  0
   19.4458  -19.3082  -13.1265 C   0  0  0  0  0  0  0  0  0  0  0  0
   18.1926  -19.2370  -13.0596 O   0  0  0  0  0  0  0  0  0  0  0  0
   19.2456  -21.3257  -16.2028 C   0  0  0  0  0  0  0  0  0  0  0  0
   19.6786  -22.2642  -15.1227 C   0  0  2  0  0  0  0  0  0  0  0  0
   19.1370  -23.6616  -15.3091 C   0  0  0  0  0  0  0  0  0  0  0  0
   19.3532  -21.7490  -13.7380 C   0  0  2  0  0  0  0  0  0  0  0  0
   20.0872  -20.5417  -13.4255 N   0  0  0  0  0  0  0  0  0  0  0  0
   19.6864  -22.8023  -12.7345 C   0  0  0  0  0  0  0  0  0  0  0  0
   20.8082  -22.7371  -12.1842 O   0  0  0  0  0  0  0  0  0  0  0  0
   19.1237  -24.2885   -7.2259 N   0  0  0  0  0  0  0  0  0  0  0  0
   17.9236  -23.8951   -7.8767 C   0  0  0  0  0  0  0  0  0  0  0  0
   16.9306  -23.5985   -7.1780 O   0  0  0  0  0  0  0  0  0  0  0  0
   17.8905  -23.8514   -9.3473 C   0  0  0  0  0  0  0  0  0  0  0  0
   19.1847  -24.0905  -10.0338 C   0  0  0  0  0  0  0  0  0  0  0  0
   19.0545  -24.8012  -11.3307 C   0  0  2  0  0  0  0  0  0  0  0  0
   18.7757  -23.8410  -12.4093 N   0  0  0  0  0  0  0  0  0  0  0  0
   17.9954  -25.8117  -11.3285 C   0  0  0  0  0  0  0  0  0  0  0  0
   16.8772  -25.5470  -11.8347 O   0  0  0  0  0  0  0  0  0  0  0  0
   18.1404  -27.0800  -10.7933 O   0  0  0  0  0  0  0  0  0  0  0  0
  1  2  1  0
  3  2  1  0
  3  4  2  0
  6  5  1  6
  6  8  1  0
  7  6  1  0
  8  9  1  1
  8 10  1  0
  9  3  1  0
 10 11  2  0
 13 14  2  0
 13 12  1  0
 15 13  1  0
 16 15  1  0
 17 16  1  1
 18 10  1  0
 18 17  1  0
 19 21  1  0
 19 17  1  0
 20 19  2  0
M  END
$$$$
