GVQ.pdb
     RDKit          3D

 21 20  0  0  1  0  0  0  0  0999 V2000
   22.7618  -20.5212  -15.1962 N   0  0  0  0  0  0  0  0  0  0  0  0
   22.6745  -19.4856  -16.2020 C   0  0  0  0  0  0  0  0  0  0  0  0
   22.9784  -18.1443  -15.6395 C   0  0  0  0  0  0  0  0  0  0  0  0
   22.2988  -17.7592  -14.6547 O   0  0  0  0  0  0  0  0  0  0  0  0
   26.5386  -16.6199  -14.8194 C   0  0  0  0  0  0  0  0  0  0  0  0
   25.7591  -15.6844  -15.6866 C   0  0  2  0  0  0  0  0  0  0  0  0
   26.0033  -14.2326  -15.3499 C   0  0  0  0  0  0  0  0  0  0  0  0
   24.2768  -15.9875  -15.6857 C   0  0  2  0  0  0  0  0  0  0  0  0
   23.9978  -17.3165  -16.1853 N   0  0  0  0  0  0  0  0  0  0  0  0
   23.5727  -14.9831  -16.5359 C   0  0  0  0  0  0  0  0  0  0  0  0
   23.7986  -15.0128  -17.7663 O   0  0  0  0  0  0  0  0  0  0  0  0
   18.6223  -11.3036  -14.7822 N   0  0  0  0  0  0  0  0  0  0  0  0
   18.9128  -10.8673  -16.1026 C   0  0  0  0  0  0  0  0  0  0  0  0
   18.2101   -9.9641  -16.6053 O   0  0  0  0  0  0  0  0  0  0  0  0
   20.0275  -11.4928  -16.8320 C   0  0  0  0  0  0  0  0  0  0  0  0
   20.7416  -12.5810  -16.1184 C   0  0  0  0  0  0  0  0  0  0  0  0
   21.9454  -13.0778  -16.8311 C   0  0  2  0  0  0  0  0  0  0  0  0
   22.6808  -14.0279  -15.9828 N   0  0  0  0  0  0  0  0  0  0  0  0
   22.8625  -12.0071  -17.2255 C   0  0  0  0  0  0  0  0  0  0  0  0
   23.7360  -11.6031  -16.4190 O   0  0  0  0  0  0  0  0  0  0  0  0
   22.8383  -11.3876  -18.4630 O   0  0  0  0  0  0  0  0  0  0  0  0
  1  2  1  0
  3  2  1  0
  3  4  2  0
  6  5  1  1
  6  8  1  0
  7  6  1  0
  8  9  1  6
  8 10  1  0
  9  3  1  0
 10 11  2  0
 13 14  2  0
 13 12  1  0
 15 13  1  0
 16 15  1  0
 17 16  1  1
 18 10  1  0
 18 17  1  0
 19 21  1  0
 19 17  1  0
 20 19  2  0
M  END
$$$$
