ANS.pdb
     RDKit          3D

 20 19  0  0  1  0  0  0  0  0999 V2000
    7.5150  -18.3830   17.1176 C   0  0  0  0  0  0  0  0  0  0  0  0
    8.2892  -18.2498   18.4091 C   0  0  2  0  0  0  0  0  0  0  0  0
    7.3681  -18.5365   19.4800 N   0  0  0  0  0  0  0  0  0  0  0  0
    8.8844  -16.9246   18.5880 C   0  0  0  0  0  0  0  0  0  0  0  0
    9.8772  -16.5875   17.8680 O   0  0  0  0  0  0  0  0  0  0  0  0
    7.2012  -15.0656   21.7220 N   0  0  0  0  0  0  0  0  0  0  0  0
    7.2366  -13.8365   21.0134 C   0  0  0  0  0  0  0  0  0  0  0  0
    6.4099  -12.9446   21.3556 O   0  0  0  0  0  0  0  0  0  0  0  0
    8.1737  -13.5520   19.9225 C   0  0  0  0  0  0  0  0  0  0  0  0
    9.1572  -14.6800   19.6900 C   0  0  2  0  0  0  0  0  0  0  0  0
    8.4534  -15.9332   19.5170 N   0  0  0  0  0  0  0  0  0  0  0  0
   10.1395  -14.7437   20.7988 C   0  0  0  0  0  0  0  0  0  0  0  0
   10.5622  -13.6760   21.3095 O   0  0  0  0  0  0  0  0  0  0  0  0
   10.5131  -15.8971   24.9370 O   0  0  0  0  0  0  0  0  0  0  0  0
   10.0270  -15.7690   23.6354 C   0  0  0  0  0  0  0  0  0  0  0  0
   11.1415  -16.1323   22.6730 C   0  0  2  0  0  0  0  0  0  0  0  0
   10.6401  -15.9653   21.3251 N   0  0  0  0  0  0  0  0  0  0  0  0
   11.6056  -17.5165   22.8698 C   0  0  0  0  0  0  0  0  0  0  0  0
   11.1123  -18.4318   22.1899 O   0  0  0  0  0  0  0  0  0  0  0  0
   12.5798  -17.7809   23.8031 O   0  0  0  0  0  0  0  0  0  0  0  0
  2  1  1  6
  2  4  1  0
  2  3  1  0
  4  5  2  0
  6  7  1  0
  7  9  1  0
  8  7  2  0
 10  9  1  1
 11  4  1  0
 11 10  1  0
 12 10  1  0
 12 13  2  0
 14 15  1  0
 16 15  1  1
 16 17  1  0
 16 18  1  0
 17 12  1  0
 18 20  1  0
 19 18  2  0
M  END
$$$$
