ANS.pdb
     RDKit          3D

 20 19  0  0  1  0  0  0  0  0999 V2000
    8.0241  -12.3528   19.5440 C   0  0  0  0  0  0  0  0  0  0  0  0
    8.4052  -13.6067   18.7908 C   0  0  2  0  0  0  0  0  0  0  0  0
    7.2495  -14.0021   18.0255 N   0  0  0  0  0  0  0  0  0  0  0  0
    8.8338  -14.6965   19.6689 C   0  0  0  0  0  0  0  0  0  0  0  0
    7.9543  -15.4101   20.2475 O   0  0  0  0  0  0  0  0  0  0  0  0
   10.6936  -17.6682   18.3958 N   0  0  0  0  0  0  0  0  0  0  0  0
   11.7445  -17.6926   19.3494 C   0  0  0  0  0  0  0  0  0  0  0  0
   12.6334  -18.5796   19.2118 O   0  0  0  0  0  0  0  0  0  0  0  0
   11.8512  -16.7509   20.4679 C   0  0  0  0  0  0  0  0  0  0  0  0
   10.5164  -16.1460   20.8499 C   0  0  2  0  0  0  0  0  0  0  0  0
   10.1826  -15.0584   19.9548 N   0  0  0  0  0  0  0  0  0  0  0  0
   10.5344  -15.7122   22.2677 C   0  0  0  0  0  0  0  0  0  0  0  0
   11.0463  -14.6041   22.5665 O   0  0  0  0  0  0  0  0  0  0  0  0
    7.5672  -16.2674   24.5819 O   0  0  0  0  0  0  0  0  0  0  0  0
    8.5819  -15.3640   24.8994 C   0  0  0  0  0  0  0  0  0  0  0  0
    9.9160  -16.0588   24.7054 C   0  0  2  0  0  0  0  0  0  0  0  0
    9.9973  -16.4932   23.3267 N   0  0  0  0  0  0  0  0  0  0  0  0
   10.0684  -17.2136   25.6072 C   0  0  0  0  0  0  0  0  0  0  0  0
   10.1189  -18.3606   25.1325 O   0  0  0  0  0  0  0  0  0  0  0  0
   10.1535  -17.0102   26.9642 O   0  0  0  0  0  0  0  0  0  0  0  0
  2  1  1  1
  2  4  1  0
  2  3  1  0
  4  5  2  0
  6  7  1  0
  7  9  1  0
  8  7  2  0
 10  9  1  6
 11  4  1  0
 11 10  1  0
 12 10  1  0
 12 13  2  0
 14 15  1  0
 16 15  1  6
 16 17  1  0
 16 18  1  0
 17 12  1  0
 18 20  1  0
 19 18  2  0
M  END
$$$$
