ANS.pdb
     RDKit          3D

 20 19  0  0  1  0  0  0  0  0999 V2000
    2.3150  -18.5940   21.3138 C   0  0  0  0  0  0  0  0  0  0  0  0
    3.6496  -19.3016   21.3682 C   0  0  2  0  0  0  0  0  0  0  0  0
    3.4486  -20.5158   22.1186 N   0  0  0  0  0  0  0  0  0  0  0  0
    4.7047  -18.4919   21.9795 C   0  0  0  0  0  0  0  0  0  0  0  0
    4.6302  -17.2238   21.9152 O   0  0  0  0  0  0  0  0  0  0  0  0
    6.8397  -16.0487   26.4512 N   0  0  0  0  0  0  0  0  0  0  0  0
    6.9482  -16.3360   25.0656 C   0  0  0  0  0  0  0  0  0  0  0  0
    7.8783  -15.7689   24.4258 O   0  0  0  0  0  0  0  0  0  0  0  0
    6.0508  -17.2482   24.3503 C   0  0  0  0  0  0  0  0  0  0  0  0
    6.7813  -18.1183   23.3488 C   0  0  2  0  0  0  0  0  0  0  0  0
    5.8494  -18.9911   22.6667 N   0  0  0  0  0  0  0  0  0  0  0  0
    7.8639  -18.8778   24.0195 C   0  0  0  0  0  0  0  0  0  0  0  0
    7.6962  -19.2780   25.1989 O   0  0  0  0  0  0  0  0  0  0  0  0
   11.7943  -17.6790   22.8456 O   0  0  0  0  0  0  0  0  0  0  0  0
   10.9288  -17.7268   23.9388 C   0  0  0  0  0  0  0  0  0  0  0  0
   10.3888  -19.1391   24.0572 C   0  0  2  0  0  0  0  0  0  0  0  0
    9.1028  -19.1830   23.3935 N   0  0  0  0  0  0  0  0  0  0  0  0
   10.2443  -19.5542   25.4632 C   0  0  0  0  0  0  0  0  0  0  0  0
    9.2908  -19.1258   26.1348 O   0  0  0  0  0  0  0  0  0  0  0  0
   11.1653  -20.4113   26.0174 O   0  0  0  0  0  0  0  0  0  0  0  0
  2  1  1  1
  2  4  1  0
  2  3  1  0
  4  5  2  0
  6  7  1  0
  7  9  1  0
  8  7  2  0
 10  9  1  1
 11  4  1  0
 11 10  1  0
 12 10  1  0
 12 13  2  0
 14 15  1  0
 16 15  1  1
 16 17  1  0
 16 18  1  0
 17 12  1  0
 18 20  1  0
 19 18  2  0
M  END
$$$$
