ANS.pdb
     RDKit          3D

 20 19  0  0  1  0  0  0  0  0999 V2000
   10.3869  -18.0154   15.1859 C   0  0  0  0  0  0  0  0  0  0  0  0
    9.2339  -18.0402   16.1631 C   0  0  2  0  0  0  0  0  0  0  0  0
    8.1719  -17.2622   15.5763 N   0  0  0  0  0  0  0  0  0  0  0  0
    9.5866  -17.5111   17.4814 C   0  0  0  0  0  0  0  0  0  0  0  0
    9.1036  -16.3943   17.8518 O   0  0  0  0  0  0  0  0  0  0  0  0
   10.6456  -18.5194   23.2374 N   0  0  0  0  0  0  0  0  0  0  0  0
   10.2030  -17.7297   22.1444 C   0  0  0  0  0  0  0  0  0  0  0  0
   10.0356  -16.4945   22.3504 O   0  0  0  0  0  0  0  0  0  0  0  0
    9.9382  -18.2665   20.8062 C   0  0  0  0  0  0  0  0  0  0  0  0
   10.7220  -17.5512   19.7257 C   0  0  2  0  0  0  0  0  0  0  0  0
   10.4448  -18.1377   18.4315 N   0  0  0  0  0  0  0  0  0  0  0  0
   12.1702  -17.5674   20.0436 C   0  0  0  0  0  0  0  0  0  0  0  0
   12.9413  -18.2934   19.3672 O   0  0  0  0  0  0  0  0  0  0  0  0
   14.8669  -14.2006   19.7361 O   0  0  0  0  0  0  0  0  0  0  0  0
   13.7217  -14.9894   19.8499 C   0  0  0  0  0  0  0  0  0  0  0  0
   13.9492  -16.0026   20.9554 C   0  0  2  0  0  0  0  0  0  0  0  0
   12.7454  -16.7957   21.0893 N   0  0  0  0  0  0  0  0  0  0  0  0
   14.2688  -15.3517   22.2376 C   0  0  0  0  0  0  0  0  0  0  0  0
   13.3638  -15.1450   23.0634 O   0  0  0  0  0  0  0  0  0  0  0  0
   15.5647  -14.9803   22.5074 O   0  0  0  0  0  0  0  0  0  0  0  0
  2  1  1  6
  2  4  1  0
  2  3  1  0
  4  5  2  0
  6  7  1  0
  7  9  1  0
  8  7  2  0
 10  9  1  1
 11  4  1  0
 11 10  1  0
 12 10  1  0
 12 13  2  0
 14 15  1  0
 16 15  1  6
 16 17  1  0
 16 18  1  0
 17 12  1  0
 18 20  1  0
 19 18  2  0
M  END
$$$$
