ANS.pdb
     RDKit          3D

 20 19  0  0  1  0  0  0  0  0999 V2000
    8.3323  -12.3710   20.0485 C   0  0  0  0  0  0  0  0  0  0  0  0
    8.0912  -13.8624   20.0003 C   0  0  2  0  0  0  0  0  0  0  0  0
    7.0931  -14.0919   18.9860 N   0  0  0  0  0  0  0  0  0  0  0  0
    7.6530  -14.4153   21.2828 C   0  0  0  0  0  0  0  0  0  0  0  0
    6.4085  -14.4865   21.5354 O   0  0  0  0  0  0  0  0  0  0  0  0
    6.8379  -16.8040   25.7789 N   0  0  0  0  0  0  0  0  0  0  0  0
    7.1710  -17.5415   24.6129 C   0  0  0  0  0  0  0  0  0  0  0  0
    6.9583  -18.7866   24.6326 O   0  0  0  0  0  0  0  0  0  0  0  0
    7.7375  -16.9391   23.4024 C   0  0  0  0  0  0  0  0  0  0  0  0
    7.9816  -15.4519   23.5509 C   0  0  2  0  0  0  0  0  0  0  0  0
    8.5037  -14.9023   22.3176 N   0  0  0  0  0  0  0  0  0  0  0  0
    8.8814  -15.1899   24.7000 C   0  0  0  0  0  0  0  0  0  0  0  0
   10.0608  -15.6230   24.6702 O   0  0  0  0  0  0  0  0  0  0  0  0
    7.4813  -12.9122   27.7639 O   0  0  0  0  0  0  0  0  0  0  0  0
    8.8328  -12.7287   27.4699 C   0  0  0  0  0  0  0  0  0  0  0  0
    9.3765  -14.0251   26.9006 C   0  0  2  0  0  0  0  0  0  0  0  0
    8.4781  -14.4652   25.8541 N   0  0  0  0  0  0  0  0  0  0  0  0
    9.4967  -15.0689   27.9332 C   0  0  0  0  0  0  0  0  0  0  0  0
    8.8632  -16.1304   27.8095 O   0  0  0  0  0  0  0  0  0  0  0  0
   10.3085  -14.8577   29.0224 O   0  0  0  0  0  0  0  0  0  0  0  0
  2  1  1  1
  2  4  1  0
  2  3  1  0
  4  5  2  0
  6  7  1  0
  7  9  1  0
  8  7  2  0
 10  9  1  6
 11  4  1  0
 11 10  1  0
 12 10  1  0
 12 13  2  0
 14 15  1  0
 16 15  1  1
 16 17  1  0
 16 18  1  0
 17 12  1  0
 18 20  1  0
 19 18  2  0
M  END
$$$$
