ANS.pdb
     RDKit          3D

 20 19  0  0  1  0  0  0  0  0999 V2000
    8.2273  -12.1753   19.1581 C   0  0  0  0  0  0  0  0  0  0  0  0
    8.0396  -13.5791   18.6298 C   0  0  2  0  0  0  0  0  0  0  0  0
    6.6330  -13.7390   18.3587 N   0  0  0  0  0  0  0  0  0  0  0  0
    8.5009  -14.6098   19.5610 C   0  0  0  0  0  0  0  0  0  0  0  0
    7.6950  -15.0633   20.4343 O   0  0  0  0  0  0  0  0  0  0  0  0
   10.6120  -18.9426   21.4984 N   0  0  0  0  0  0  0  0  0  0  0  0
   11.5331  -18.3445   20.5995 C   0  0  0  0  0  0  0  0  0  0  0  0
   12.6509  -18.9136   20.4489 O   0  0  0  0  0  0  0  0  0  0  0  0
   11.2551  -17.1191   19.8442 C   0  0  0  0  0  0  0  0  0  0  0  0
   10.1358  -16.3005   20.4531 C   0  0  2  0  0  0  0  0  0  0  0  0
    9.8057  -15.1828   19.5944 N   0  0  0  0  0  0  0  0  0  0  0  0
   10.5047  -15.8601   21.8201 C   0  0  0  0  0  0  0  0  0  0  0  0
   11.3364  -14.9290   21.9639 O   0  0  0  0  0  0  0  0  0  0  0  0
    7.9004  -15.9742   24.8281 O   0  0  0  0  0  0  0  0  0  0  0  0
    9.0128  -15.1341   24.7691 C   0  0  0  0  0  0  0  0  0  0  0  0
   10.2106  -15.9595   24.3397 C   0  0  2  0  0  0  0  0  0  0  0  0
    9.9624  -16.4426   22.9976 N   0  0  0  0  0  0  0  0  0  0  0  0
   10.4473  -17.0949   25.2479 C   0  0  0  0  0  0  0  0  0  0  0  0
   10.7673  -16.8799   26.4289 O   0  0  0  0  0  0  0  0  0  0  0  0
   10.3113  -18.3803   24.7795 O   0  0  0  0  0  0  0  0  0  0  0  0
  2  1  1  1
  2  4  1  0
  2  3  1  0
  4  5  2  0
  6  7  1  0
  7  9  1  0
  8  7  2  0
 10  9  1  6
 11  4  1  0
 11 10  1  0
 12 10  1  0
 12 13  2  0
 14 15  1  0
 16 15  1  1
 16 17  1  0
 16 18  1  0
 17 12  1  0
 18 20  1  0
 19 18  2  0
M  END
$$$$
