ANS.pdb
     RDKit          3D

 20 19  0  0  1  0  0  0  0  0999 V2000
 -275.7569  -88.0827 -211.9979 C   0  0  0  0  0  0  0  0  0  0  0  0
 -275.9731  -89.2393 -211.0490 C   0  0  2  0  0  0  0  0  0  0  0  0
 -277.3911  -89.3185 -210.8029 N   0  0  0  0  0  0  0  0  0  0  0  0
 -275.2433  -89.0926 -209.7888 C   0  0  0  0  0  0  0  0  0  0  0  0
 -275.8905  -89.0819 -208.6940 O   0  0  0  0  0  0  0  0  0  0  0  0
 -272.9824  -85.6908 -213.2400 N   0  0  0  0  0  0  0  0  0  0  0  0
 -272.6997  -86.3766 -212.0301 C   0  0  0  0  0  0  0  0  0  0  0  0
 -271.5251  -86.2892 -211.5735 O   0  0  0  0  0  0  0  0  0  0  0  0
 -273.6892  -87.1669 -211.2916 C   0  0  0  0  0  0  0  0  0  0  0  0
 -273.1356  -87.7362 -210.0020 C   0  0  2  0  0  0  0  0  0  0  0  0
 -273.8309  -88.9567 -209.6516 N   0  0  0  0  0  0  0  0  0  0  0  0
 -273.2087  -86.7255 -208.9196 C   0  0  0  0  0  0  0  0  0  0  0  0
 -273.1601  -85.5044 -209.2126 O   0  0  0  0  0  0  0  0  0  0  0  0
 -271.0706  -89.2079 -205.7103 O   0  0  0  0  0  0  0  0  0  0  0  0
 -272.1559  -88.8921 -206.5282 C   0  0  0  0  0  0  0  0  0  0  0  0
 -272.2171  -87.3840 -206.6773 C   0  0  2  0  0  0  0  0  0  0  0  0
 -273.3314  -87.0656 -207.5451 N   0  0  0  0  0  0  0  0  0  0  0  0
 -270.9693  -86.8381 -207.2389 C   0  0  0  0  0  0  0  0  0  0  0  0
 -270.3563  -85.9500 -206.6235 O   0  0  0  0  0  0  0  0  0  0  0  0
 -270.4962  -87.3174 -208.4375 O   0  0  0  0  0  0  0  0  0  0  0  0
  2  1  1  6
  2  4  1  0
  2  3  1  0
  4  5  2  0
  6  7  1  0
  7  9  1  0
  8  7  2  0
 10  9  1  6
 11  4  1  0
 11 10  1  0
 12 10  1  0
 12 13  2  0
 14 15  1  0
 16 15  1  6
 16 17  1  0
 16 18  1  0
 17 12  1  0
 18 20  1  0
 19 18  2  0
M  END
$$$$
