ANS.pdb
     RDKit          3D

 20 19  0  0  1  0  0  0  0  0999 V2000
    8.1914  -12.2143   19.4968 C   0  0  0  0  0  0  0  0  0  0  0  0
    8.6686  -13.1798   18.4361 C   0  0  2  0  0  0  0  0  0  0  0  0
    7.4929  -13.7854   17.8629 N   0  0  0  0  0  0  0  0  0  0  0  0
    9.5698  -14.2079   18.9587 C   0  0  0  0  0  0  0  0  0  0  0  0
    9.0882  -15.3244   19.3317 O   0  0  0  0  0  0  0  0  0  0  0  0
   12.8233  -16.8136   17.1252 N   0  0  0  0  0  0  0  0  0  0  0  0
   13.1540  -15.5136   17.5889 C   0  0  0  0  0  0  0  0  0  0  0  0
   13.4400  -14.6422   16.7201 O   0  0  0  0  0  0  0  0  0  0  0  0
   13.1759  -15.1352   19.0051 C   0  0  0  0  0  0  0  0  0  0  0  0
   11.7990  -15.1565   19.6354 C   0  0  2  0  0  0  0  0  0  0  0  0
   10.9833  -14.0880   19.0983 N   0  0  0  0  0  0  0  0  0  0  0  0
   11.9076  -15.0830   21.1124 C   0  0  0  0  0  0  0  0  0  0  0  0
   12.0253  -13.9611   21.6664 O   0  0  0  0  0  0  0  0  0  0  0  0
    9.2362  -16.7390   23.2200 O   0  0  0  0  0  0  0  0  0  0  0  0
   10.1159  -15.6864   23.4746 C   0  0  0  0  0  0  0  0  0  0  0  0
   11.5338  -16.2113   23.3556 C   0  0  2  0  0  0  0  0  0  0  0  0
   11.8871  -16.2297   21.9517 N   0  0  0  0  0  0  0  0  0  0  0  0
   11.6673  -17.5628   23.9263 C   0  0  0  0  0  0  0  0  0  0  0  0
   11.7698  -18.5418   23.1683 O   0  0  0  0  0  0  0  0  0  0  0  0
   11.6775  -17.7266   25.2913 O   0  0  0  0  0  0  0  0  0  0  0  0
  2  1  1  1
  2  4  1  0
  2  3  1  0
  4  5  2  0
  6  7  1  0
  7  9  1  0
  8  7  2  0
 10  9  1  6
 11  4  1  0
 11 10  1  0
 12 10  1  0
 12 13  2  0
 14 15  1  0
 16 15  1  6
 16 17  1  0
 16 18  1  0
 17 12  1  0
 18 20  1  0
 19 18  2  0
M  END
$$$$
