ANS.pdb
     RDKit          3D

 20 19  0  0  1  0  0  0  0  0999 V2000
    8.2558  -12.3168   19.7953 C   0  0  0  0  0  0  0  0  0  0  0  0
    8.7396  -13.2606   18.7182 C   0  0  2  0  0  0  0  0  0  0  0  0
    7.5674  -13.8541   18.1253 N   0  0  0  0  0  0  0  0  0  0  0  0
    9.6372  -14.2995   19.2255 C   0  0  0  0  0  0  0  0  0  0  0  0
    9.1534  -15.4240   19.5705 O   0  0  0  0  0  0  0  0  0  0  0  0
   13.9047  -14.3168   17.1574 N   0  0  0  0  0  0  0  0  0  0  0  0
   13.4159  -15.3151   18.0399 C   0  0  0  0  0  0  0  0  0  0  0  0
   13.0806  -16.4234   17.5347 O   0  0  0  0  0  0  0  0  0  0  0  0
   13.2864  -15.1292   19.4883 C   0  0  0  0  0  0  0  0  0  0  0  0
   11.8524  -15.2352   19.9636 C   0  0  2  0  0  0  0  0  0  0  0  0
   11.0495  -14.1821   19.3788 N   0  0  0  0  0  0  0  0  0  0  0  0
   11.7982  -15.2166   21.4452 C   0  0  0  0  0  0  0  0  0  0  0  0
   12.5156  -14.4014   22.0778 O   0  0  0  0  0  0  0  0  0  0  0  0
    8.6269  -16.6990   23.3844 O   0  0  0  0  0  0  0  0  0  0  0  0
    9.4596  -15.7963   24.0467 C   0  0  0  0  0  0  0  0  0  0  0  0
   10.8933  -16.0916   23.6499 C   0  0  2  0  0  0  0  0  0  0  0  0
   10.9672  -16.0848   22.2039 N   0  0  0  0  0  0  0  0  0  0  0  0
   11.3493  -17.3917   24.1713 C   0  0  0  0  0  0  0  0  0  0  0  0
   11.4036  -17.5758   25.3988 O   0  0  0  0  0  0  0  0  0  0  0  0
   11.7094  -18.3876   23.2947 O   0  0  0  0  0  0  0  0  0  0  0  0
  2  1  1  1
  2  4  1  0
  2  3  1  0
  4  5  2  0
  6  7  1  0
  7  9  1  0
  8  7  2  0
 10  9  1  1
 11  4  1  0
 11 10  1  0
 12 10  1  0
 12 13  2  0
 14 15  1  0
 16 15  1  6
 16 17  1  0
 16 18  1  0
 17 12  1  0
 18 20  1  0
 19 18  2  0
M  END
$$$$
