ANS.pdb
     RDKit          3D

 20 19  0  0  1  0  0  0  0  0999 V2000
    7.9037  -12.8824   17.0503 C   0  0  0  0  0  0  0  0  0  0  0  0
    8.4270  -14.0043   16.1829 C   0  0  2  0  0  0  0  0  0  0  0  0
    7.2962  -14.5441   15.4705 N   0  0  0  0  0  0  0  0  0  0  0  0
    9.0988  -15.0561   16.9475 C   0  0  0  0  0  0  0  0  0  0  0  0
    8.4269  -16.0601   17.3453 O   0  0  0  0  0  0  0  0  0  0  0  0
   14.2192  -18.2592   17.7673 N   0  0  0  0  0  0  0  0  0  0  0  0
   12.8350  -17.9468   17.7407 C   0  0  0  0  0  0  0  0  0  0  0  0
   12.0364  -18.8065   18.2087 O   0  0  0  0  0  0  0  0  0  0  0  0
   12.2933  -16.6926   17.2090 C   0  0  0  0  0  0  0  0  0  0  0  0
   11.0829  -16.2076   17.9794 C   0  0  2  0  0  0  0  0  0  0  0  0
   10.4781  -15.0775   17.3065 N   0  0  0  0  0  0  0  0  0  0  0  0
   11.4573  -15.8857   19.3775 C   0  0  0  0  0  0  0  0  0  0  0  0
   12.2010  -14.8984   19.6044 O   0  0  0  0  0  0  0  0  0  0  0  0
    9.1685  -16.8538   22.6039 O   0  0  0  0  0  0  0  0  0  0  0  0
   10.1102  -15.8254   22.5592 C   0  0  0  0  0  0  0  0  0  0  0  0
   11.3560  -16.3499   21.8713 C   0  0  2  0  0  0  0  0  0  0  0  0
   11.0160  -16.6446   20.4952 N   0  0  0  0  0  0  0  0  0  0  0  0
   11.8780  -17.5591   22.5312 C   0  0  0  0  0  0  0  0  0  0  0  0
   11.7586  -18.6628   21.9734 O   0  0  0  0  0  0  0  0  0  0  0  0
   12.4921  -17.4537   23.7566 O   0  0  0  0  0  0  0  0  0  0  0  0
  2  1  1  1
  2  4  1  0
  2  3  1  0
  4  5  2  0
  6  7  1  0
  7  9  1  0
  8  7  2  0
 10  9  1  6
 11  4  1  0
 11 10  1  0
 12 10  1  0
 12 13  2  0
 14 15  1  0
 16 15  1  1
 16 17  1  0
 16 18  1  0
 17 12  1  0
 18 20  1  0
 19 18  2  0
M  END
$$$$
