ANS.pdb
     RDKit          3D

 20 19  0  0  1  0  0  0  0  0999 V2000
    8.0426  -18.7492   19.1779 C   0  0  0  0  0  0  0  0  0  0  0  0
    7.7703  -17.2680   19.3068 C   0  0  2  0  0  0  0  0  0  0  0  0
    8.1356  -16.6649   18.0496 N   0  0  0  0  0  0  0  0  0  0  0  0
    8.5060  -16.6422   20.4066 C   0  0  0  0  0  0  0  0  0  0  0  0
    9.5843  -16.0162   20.1554 O   0  0  0  0  0  0  0  0  0  0  0  0
    6.8610  -16.9918   25.6607 N   0  0  0  0  0  0  0  0  0  0  0  0
    7.0115  -16.5568   24.3182 C   0  0  0  0  0  0  0  0  0  0  0  0
    6.3040  -17.1265   23.4402 O   0  0  0  0  0  0  0  0  0  0  0  0
    7.9305  -15.4919   23.9053 C   0  0  0  0  0  0  0  0  0  0  0  0
    8.8607  -15.9242   22.7911 C   0  0  2  0  0  0  0  0  0  0  0  0
    8.1283  -16.6583   21.7810 N   0  0  0  0  0  0  0  0  0  0  0  0
    9.9905  -16.7122   23.3399 C   0  0  0  0  0  0  0  0  0  0  0  0
    9.8869  -17.9618   23.4234 O   0  0  0  0  0  0  0  0  0  0  0  0
   14.7352  -16.3195   23.0370 O   0  0  0  0  0  0  0  0  0  0  0  0
   13.4653  -15.7432   23.0811 C   0  0  0  0  0  0  0  0  0  0  0  0
   12.5055  -16.7512   23.6835 C   0  0  2  0  0  0  0  0  0  0  0  0
   11.2048  -16.1237   23.7861 N   0  0  0  0  0  0  0  0  0  0  0  0
   12.9514  -17.2061   25.0118 C   0  0  0  0  0  0  0  0  0  0  0  0
   14.0337  -17.8058   25.1238 O   0  0  0  0  0  0  0  0  0  0  0  0
   12.1657  -16.9621   26.1133 O   0  0  0  0  0  0  0  0  0  0  0  0
  2  1  1  6
  2  4  1  0
  2  3  1  0
  4  5  2  0
  6  7  1  0
  7  9  1  0
  8  7  2  0
 10  9  1  1
 11  4  1  0
 11 10  1  0
 12 10  1  0
 12 13  2  0
 14 15  1  0
 16 15  1  1
 16 17  1  0
 16 18  1  0
 17 12  1  0
 18 20  1  0
 19 18  2  0
M  END
$$$$
