ANS.pdb
     RDKit          3D

 20 19  0  0  1  0  0  0  0  0999 V2000
    6.8884  -13.1388   19.1889 C   0  0  0  0  0  0  0  0  0  0  0  0
    8.2262  -13.1550   19.8924 C   0  0  2  0  0  0  0  0  0  0  0  0
    9.1569  -13.8071   19.0057 N   0  0  0  0  0  0  0  0  0  0  0  0
    8.1872  -13.8397   21.1855 C   0  0  0  0  0  0  0  0  0  0  0  0
    7.3257  -13.4836   22.0508 O   0  0  0  0  0  0  0  0  0  0  0  0
   10.4884  -18.3883   24.6752 N   0  0  0  0  0  0  0  0  0  0  0  0
    9.4142  -17.7195   24.0324 C   0  0  0  0  0  0  0  0  0  0  0  0
    8.2770  -17.7883   24.5784 O   0  0  0  0  0  0  0  0  0  0  0  0
    9.5566  -16.9599   22.7866 C   0  0  0  0  0  0  0  0  0  0  0  0
    8.8372  -15.6279   22.8307 C   0  0  2  0  0  0  0  0  0  0  0  0
    9.0426  -14.9042   21.5939 N   0  0  0  0  0  0  0  0  0  0  0  0
    9.2752  -14.8448   24.0112 C   0  0  0  0  0  0  0  0  0  0  0  0
   10.4157  -14.3171   24.0118 O   0  0  0  0  0  0  0  0  0  0  0  0
    6.5693  -13.2174   26.6295 O   0  0  0  0  0  0  0  0  0  0  0  0
    7.8312  -12.6818   26.3698 C   0  0  0  0  0  0  0  0  0  0  0  0
    8.8263  -13.8238   26.2917 C   0  0  2  0  0  0  0  0  0  0  0  0
    8.4645  -14.6553   25.1630 N   0  0  0  0  0  0  0  0  0  0  0  0
    8.8361  -14.6271   27.5265 C   0  0  0  0  0  0  0  0  0  0  0  0
    8.4607  -15.8109   27.4916 O   0  0  0  0  0  0  0  0  0  0  0  0
    9.2609  -14.0589   28.7041 O   0  0  0  0  0  0  0  0  0  0  0  0
  2  1  1  6
  2  4  1  0
  2  3  1  0
  4  5  2  0
  6  7  1  0
  7  9  1  0
  8  7  2  0
 10  9  1  6
 11  4  1  0
 11 10  1  0
 12 10  1  0
 12 13  2  0
 14 15  1  0
 16 15  1  1
 16 17  1  0
 16 18  1  0
 17 12  1  0
 18 20  1  0
 19 18  2  0
M  END
$$$$
