ANS.pdb
     RDKit          3D

 20 19  0  0  1  0  0  0  0  0999 V2000
   10.2910  -18.7599   16.9984 C   0  0  0  0  0  0  0  0  0  0  0  0
   10.3668  -17.2665   16.7774 C   0  0  2  0  0  0  0  0  0  0  0  0
   11.5549  -17.0188   15.9999 N   0  0  0  0  0  0  0  0  0  0  0  0
   10.4041  -16.5023   18.0252 C   0  0  0  0  0  0  0  0  0  0  0  0
   11.5165  -16.3371   18.6191 O   0  0  0  0  0  0  0  0  0  0  0  0
    9.1459  -12.7875   18.5549 N   0  0  0  0  0  0  0  0  0  0  0  0
    8.1155  -13.1887   19.4446 C   0  0  0  0  0  0  0  0  0  0  0  0
    7.1083  -12.4329   19.5457 O   0  0  0  0  0  0  0  0  0  0  0  0
    8.1585  -14.4208   20.2378 C   0  0  0  0  0  0  0  0  0  0  0  0
    9.3945  -15.2505   19.9593 C   0  0  2  0  0  0  0  0  0  0  0  0
    9.2849  -15.8990   18.6697 N   0  0  0  0  0  0  0  0  0  0  0  0
    9.6176  -16.2257   21.0538 C   0  0  0  0  0  0  0  0  0  0  0  0
    8.7405  -17.0930   21.2943 O   0  0  0  0  0  0  0  0  0  0  0  0
   13.3390  -17.1712   22.2410 O   0  0  0  0  0  0  0  0  0  0  0  0
   12.2619  -18.0368   22.4339 C   0  0  0  0  0  0  0  0  0  0  0  0
   11.0679  -17.2179   22.8859 C   0  0  2  0  0  0  0  0  0  0  0  0
   10.7870  -16.2343   21.8614 N   0  0  0  0  0  0  0  0  0  0  0  0
   11.3197  -16.5469   24.1729 C   0  0  0  0  0  0  0  0  0  0  0  0
   11.5435  -17.2286   25.1872 O   0  0  0  0  0  0  0  0  0  0  0  0
   11.3047  -15.1737   24.2382 O   0  0  0  0  0  0  0  0  0  0  0  0
  2  1  1  1
  2  4  1  0
  2  3  1  0
  4  5  2  0
  6  7  1  0
  7  9  1  0
  8  7  2  0
 10  9  1  1
 11  4  1  0
 11 10  1  0
 12 10  1  0
 12 13  2  0
 14 15  1  0
 16 15  1  6
 16 17  1  0
 16 18  1  0
 17 12  1  0
 18 20  1  0
 19 18  2  0
M  END
$$$$
