ANS.pdb
     RDKit          3D

 20 19  0  0  1  0  0  0  0  0999 V2000
    7.8918  -19.6674   19.8112 C   0  0  0  0  0  0  0  0  0  0  0  0
    7.7788  -18.4607   18.9080 C   0  0  2  0  0  0  0  0  0  0  0  0
    8.2560  -18.8646   17.6092 N   0  0  0  0  0  0  0  0  0  0  0  0
    8.5359  -17.3062   19.3942 C   0  0  0  0  0  0  0  0  0  0  0  0
    9.8070  -17.3501   19.3883 O   0  0  0  0  0  0  0  0  0  0  0  0
    6.3052  -12.9090   18.6808 N   0  0  0  0  0  0  0  0  0  0  0  0
    7.6160  -13.3507   18.9990 C   0  0  0  0  0  0  0  0  0  0  0  0
    8.4467  -13.4349   18.0510 O   0  0  0  0  0  0  0  0  0  0  0  0
    8.0495  -13.7050   20.3538 C   0  0  0  0  0  0  0  0  0  0  0  0
    8.8059  -15.0163   20.3994 C   0  0  2  0  0  0  0  0  0  0  0  0
    7.9803  -16.0912   19.8909 N   0  0  0  0  0  0  0  0  0  0  0  0
    9.2838  -15.2876   21.7766 C   0  0  0  0  0  0  0  0  0  0  0  0
    8.4595  -15.2915   22.7252 O   0  0  0  0  0  0  0  0  0  0  0  0
   10.8401  -18.2281   22.9089 O   0  0  0  0  0  0  0  0  0  0  0  0
   10.4287  -17.2262   23.7884 C   0  0  0  0  0  0  0  0  0  0  0  0
   11.1249  -15.9360   23.3998 C   0  0  2  0  0  0  0  0  0  0  0  0
   10.6456  -15.5464   22.0903 N   0  0  0  0  0  0  0  0  0  0  0  0
   12.5897  -16.0903   23.3745 C   0  0  0  0  0  0  0  0  0  0  0  0
   13.2008  -15.9738   22.2991 O   0  0  0  0  0  0  0  0  0  0  0  0
   13.2652  -16.3609   24.5409 O   0  0  0  0  0  0  0  0  0  0  0  0
  2  1  1  1
  2  4  1  0
  2  3  1  0
  4  5  2  0
  6  7  1  0
  7  9  1  0
  8  7  2  0
 10  9  1  1
 11  4  1  0
 11 10  1  0
 12 10  1  0
 12 13  2  0
 14 15  1  0
 16 15  1  6
 16 17  1  0
 16 18  1  0
 17 12  1  0
 18 20  1  0
 19 18  2  0
M  END
$$$$
