CKM.pdb
     RDKit          3D

 24 23  0  0  1  0  0  0  0  0999 V2000
   14.9320  -11.9810  -10.0600 N   0  0  0  0  0  0  0  0  0  0  0  0
   14.0767  -10.9366  -10.6109 C   0  0  1  0  0  0  0  0  0  0  0  0
   12.8258  -10.7895   -9.7892 C   0  0  0  0  0  0  0  0  0  0  0  0
   11.9077  -12.3517   -9.9262 S   0  0  0  0  0  0  0  0  0  0  0  0
   14.8986   -9.6770  -10.6012 C   0  0  0  0  0  0  0  0  0  0  0  0
   15.3698   -9.3513   -9.4568 O   0  0  0  0  0  0  0  0  0  0  0  0
   15.1348   -8.9139  -11.7498 N   0  0  0  0  0  0  0  0  0  0  0  0
   15.9246   -7.6944  -11.6445 C   0  0  1  0  0  0  0  0  0  0  0  0
   16.5941   -7.3894  -12.9393 C   0  0  0  0  0  0  0  0  0  0  0  0
   17.7201   -8.3289  -13.2330 C   0  0  0  0  0  0  0  0  0  0  0  0
   18.4356   -7.8866  -14.5189 C   0  0  0  0  0  0  0  0  0  0  0  0
   19.5370   -8.8933  -14.7704 C   0  0  0  0  0  0  0  0  0  0  0  0
   20.2655   -8.4546  -15.9452 N   0  0  0  0  0  0  0  0  0  0  0  0
   15.1281   -6.5718  -11.1716 C   0  0  0  0  0  0  0  0  0  0  0  0
   14.0535   -6.2581  -11.6993 O   0  0  0  0  0  0  0  0  0  0  0  0
   12.1819   -2.8181   -5.2740 C   0  0  0  0  0  0  0  0  0  0  0  0
   12.9705   -4.2897   -6.0091 S   0  0  0  0  0  0  0  0  0  0  0  0
   13.6809   -3.7719   -7.6108 C   0  0  0  0  0  0  0  0  0  0  0  0
   14.3107   -4.9836   -8.2463 C   0  0  0  0  0  0  0  0  0  0  0  0
   14.8894   -4.6158   -9.5711 C   0  0  2  0  0  0  0  0  0  0  0  0
   15.6072   -5.8043  -10.0562 N   0  0  0  0  0  0  0  0  0  0  0  0
   15.8503   -3.5006   -9.5544 C   0  0  0  0  0  0  0  0  0  0  0  0
   15.5057   -2.1724   -9.4712 O   0  0  0  0  0  0  0  0  0  0  0  0
   17.1042   -3.7341   -9.6213 O   0  0  0  0  0  0  0  0  0  0  0  0
  2  1  1  1
  3  2  1  0
  4  3  1  0
  5  6  2  0
  5  2  1  0
  7  5  1  0
  8  7  1  0
  8  9  1  6
  9 10  1  0
 11 10  1  0
 12 11  1  0
 12 13  1  0
 14  8  1  0
 15 14  2  0
 17 16  1  0
 18 17  1  0
 19 18  1  0
 20 19  1  1
 20 22  1  0
 20 21  1  0
 21 14  1  0
 22 23  1  0
 24 22  2  0
M  END
$$$$
