CKM.pdb
     RDKit          3D

 24 23  0  0  1  0  0  0  0  0999 V2000
   17.0750  -12.8616  -15.9803 N   0  0  0  0  0  0  0  0  0  0  0  0
   17.8851  -12.0486  -15.0810 C   0  0  1  0  0  0  0  0  0  0  0  0
   19.0361  -11.4270  -15.8227 C   0  0  0  0  0  0  0  0  0  0  0  0
   19.9942  -10.4641  -14.6155 S   0  0  0  0  0  0  0  0  0  0  0  0
   16.9605  -11.0055  -14.5160 C   0  0  0  0  0  0  0  0  0  0  0  0
   16.3533  -10.2950  -15.3901 O   0  0  0  0  0  0  0  0  0  0  0  0
   16.7728  -10.8193  -13.1421 N   0  0  0  0  0  0  0  0  0  0  0  0
   15.9640   -9.6996  -12.6792 C   0  0  1  0  0  0  0  0  0  0  0  0
   15.1017  -10.1118  -11.5372 C   0  0  0  0  0  0  0  0  0  0  0  0
   14.1539   -9.0324  -11.1211 C   0  0  0  0  0  0  0  0  0  0  0  0
   13.3386   -9.5049   -9.9073 C   0  0  0  0  0  0  0  0  0  0  0  0
   12.3313   -8.4153   -9.6109 C   0  0  0  0  0  0  0  0  0  0  0  0
   11.4331   -8.9210   -8.5906 N   0  0  0  0  0  0  0  0  0  0  0  0
   16.7807   -8.5414  -12.3479 C   0  0  0  0  0  0  0  0  0  0  0  0
   17.7354   -8.6113  -11.5635 O   0  0  0  0  0  0  0  0  0  0  0  0
   22.4715   -4.7400  -13.9744 C   0  0  0  0  0  0  0  0  0  0  0  0
   21.2932   -6.1327  -13.9670 S   0  0  0  0  0  0  0  0  0  0  0  0
   19.6872   -5.4713  -13.3994 C   0  0  0  0  0  0  0  0  0  0  0  0
   18.7065   -6.6140  -13.3670 C   0  0  0  0  0  0  0  0  0  0  0  0
   17.3854   -6.1316  -12.8698 C   0  0  2  0  0  0  0  0  0  0  0  0
   16.4662   -7.2769  -12.9520 N   0  0  0  0  0  0  0  0  0  0  0  0
   16.7829   -5.0309  -13.6396 C   0  0  0  0  0  0  0  0  0  0  0  0
   17.0264   -3.6962  -13.4175 O   0  0  0  0  0  0  0  0  0  0  0  0
   15.9687   -5.2843  -14.5905 O   0  0  0  0  0  0  0  0  0  0  0  0
  2  1  1  6
  3  2  1  0
  4  3  1  0
  5  6  2  0
  5  2  1  0
  7  5  1  0
  8  7  1  0
  8  9  1  1
  9 10  1  0
 11 10  1  0
 12 11  1  0
 12 13  1  0
 14  8  1  0
 15 14  2  0
 17 16  1  0
 18 17  1  0
 19 18  1  0
 20 19  1  6
 20 22  1  0
 20 21  1  0
 21 14  1  0
 22 23  1  0
 24 22  2  0
M  END
$$$$
