CKM.pdb
     RDKit          3D

 24 23  0  0  1  0  0  0  0  0999 V2000
   27.7350  -20.6381  -10.5515 N   0  0  0  0  0  0  0  0  0  0  0  0
   26.3171  -20.8802  -10.3134 C   0  0  1  0  0  0  0  0  0  0  0  0
   25.7954  -19.9584   -9.2459 C   0  0  0  0  0  0  0  0  0  0  0  0
   26.7420  -20.3003   -7.7329 S   0  0  0  0  0  0  0  0  0  0  0  0
   25.6285  -20.6503  -11.6306 C   0  0  0  0  0  0  0  0  0  0  0  0
   25.6958  -19.4503  -12.0702 O   0  0  0  0  0  0  0  0  0  0  0  0
   24.9631  -21.6641  -12.3283 N   0  0  0  0  0  0  0  0  0  0  0  0
   24.3208  -21.3516  -13.5978 C   0  0  1  0  0  0  0  0  0  0  0  0
   24.8839  -22.1909  -14.6915 C   0  0  0  0  0  0  0  0  0  0  0  0
   26.2641  -21.7669  -15.0812 C   0  0  0  0  0  0  0  0  0  0  0  0
   26.1858  -20.7853  -16.2609 C   0  0  0  0  0  0  0  0  0  0  0  0
   27.6114  -20.4428  -16.6352 C   0  0  0  0  0  0  0  0  0  0  0  0
   27.5559  -19.4460  -17.6873 N   0  0  0  0  0  0  0  0  0  0  0  0
   22.8726  -21.4719  -13.5168 C   0  0  0  0  0  0  0  0  0  0  0  0
   22.3193  -22.4948  -13.0936 O   0  0  0  0  0  0  0  0  0  0  0  0
   19.7332  -16.2422  -12.9145 C   0  0  0  0  0  0  0  0  0  0  0  0
   18.2326  -17.2687  -12.7651 S   0  0  0  0  0  0  0  0  0  0  0  0
   18.6764  -18.9497  -13.3272 C   0  0  0  0  0  0  0  0  0  0  0  0
   20.1772  -19.0156  -13.4356 C   0  0  0  0  0  0  0  0  0  0  0  0
   20.5953  -20.3933  -13.8258 C   0  0  2  0  0  0  0  0  0  0  0  0
   22.0612  -20.3661  -13.9428 N   0  0  0  0  0  0  0  0  0  0  0  0
   20.0627  -20.8764  -15.1104 C   0  0  0  0  0  0  0  0  0  0  0  0
   18.8811  -21.5634  -15.2585 O   0  0  0  0  0  0  0  0  0  0  0  0
   20.7096  -20.6674  -16.1916 O   0  0  0  0  0  0  0  0  0  0  0  0
  2  1  1  6
  3  2  1  0
  4  3  1  0
  5  6  2  0
  5  2  1  0
  7  5  1  0
  8  7  1  0
  8  9  1  6
  9 10  1  0
 11 10  1  0
 12 11  1  0
 12 13  1  0
 14  8  1  0
 15 14  2  0
 17 16  1  0
 18 17  1  0
 19 18  1  0
 20 19  1  6
 20 22  1  0
 20 21  1  0
 21 14  1  0
 22 23  1  0
 24 22  2  0
M  END
$$$$
