CKM.pdb
     RDKit          3D

 24 23  0  0  1  0  0  0  0  0999 V2000
   21.9711  -29.5749  -10.7608 N   0  0  0  0  0  0  0  0  0  0  0  0
   20.6177  -29.2600  -11.2025 C   0  0  1  0  0  0  0  0  0  0  0  0
   19.6608  -30.3434  -10.7881 C   0  0  0  0  0  0  0  0  0  0  0  0
   20.1355  -30.8663   -9.1137 S   0  0  0  0  0  0  0  0  0  0  0  0
   20.2699  -27.9403  -10.5703 C   0  0  0  0  0  0  0  0  0  0  0  0
   20.9339  -27.6591   -9.5130 O   0  0  0  0  0  0  0  0  0  0  0  0
   19.2969  -27.0804  -11.0909 N   0  0  0  0  0  0  0  0  0  0  0  0
   19.0731  -25.7895  -10.4540 C   0  0  1  0  0  0  0  0  0  0  0  0
   18.6356  -24.7786  -11.4562 C   0  0  0  0  0  0  0  0  0  0  0  0
   18.3603  -23.4454  -10.8371 C   0  0  0  0  0  0  0  0  0  0  0  0
   17.8560  -22.4731  -11.9149 C   0  0  0  0  0  0  0  0  0  0  0  0
   17.6692  -21.1333  -11.2369 C   0  0  0  0  0  0  0  0  0  0  0  0
   17.1110  -20.2242  -12.2195 N   0  0  0  0  0  0  0  0  0  0  0  0
   18.1376  -25.8879   -9.3434 C   0  0  0  0  0  0  0  0  0  0  0  0
   17.0356  -26.4394   -9.4574 O   0  0  0  0  0  0  0  0  0  0  0  0
   17.1224  -26.9837   -2.1046 C   0  0  0  0  0  0  0  0  0  0  0  0
   18.2824  -26.7321   -3.4899 S   0  0  0  0  0  0  0  0  0  0  0  0
   17.6669  -25.3048   -4.4504 C   0  0  0  0  0  0  0  0  0  0  0  0
   18.4944  -25.2053   -5.7050 C   0  0  0  0  0  0  0  0  0  0  0  0
   17.6286  -25.4251   -6.8997 C   0  0  2  0  0  0  0  0  0  0  0  0
   18.5075  -25.3254   -8.0748 N   0  0  0  0  0  0  0  0  0  0  0  0
   16.5418  -24.4490   -7.0820 C   0  0  0  0  0  0  0  0  0  0  0  0
   15.2722  -24.5879   -6.5733 O   0  0  0  0  0  0  0  0  0  0  0  0
   16.7446  -23.3821   -7.7543 O   0  0  0  0  0  0  0  0  0  0  0  0
  2  1  1  1
  3  2  1  0
  4  3  1  0
  5  6  2  0
  5  2  1  0
  7  5  1  0
  8  7  1  0
  8  9  1  6
  9 10  1  0
 11 10  1  0
 12 11  1  0
 12 13  1  0
 14  8  1  0
 15 14  2  0
 17 16  1  0
 18 17  1  0
 19 18  1  0
 20 19  1  1
 20 22  1  0
 20 21  1  0
 21 14  1  0
 22 23  1  0
 24 22  2  0
M  END
$$$$
