CKM.pdb
     RDKit          3D

 24 23  0  0  1  0  0  0  0  0999 V2000
   26.8098  -21.6437  -10.5114 N   0  0  0  0  0  0  0  0  0  0  0  0
   25.3843  -21.5814  -10.8111 C   0  0  1  0  0  0  0  0  0  0  0  0
   24.6833  -20.6552   -9.8562 C   0  0  0  0  0  0  0  0  0  0  0  0
   24.3679  -21.5943   -8.3328 S   0  0  0  0  0  0  0  0  0  0  0  0
   25.2782  -21.0986  -12.2316 C   0  0  0  0  0  0  0  0  0  0  0  0
   26.0749  -20.1444  -12.5360 O   0  0  0  0  0  0  0  0  0  0  0  0
   24.3806  -21.6444  -13.1556 N   0  0  0  0  0  0  0  0  0  0  0  0
   24.4400  -21.2139  -14.5459 C   0  0  1  0  0  0  0  0  0  0  0  0
   23.8016  -22.2232  -15.4356 C   0  0  0  0  0  0  0  0  0  0  0  0
   24.6619  -23.4298  -15.6368 C   0  0  0  0  0  0  0  0  0  0  0  0
   23.9538  -24.4135  -16.5814 C   0  0  0  0  0  0  0  0  0  0  0  0
   24.8635  -25.6150  -16.7174 C   0  0  0  0  0  0  0  0  0  0  0  0
   24.6973  -26.4221  -15.5239 N   0  0  0  0  0  0  0  0  0  0  0  0
   23.8618  -19.8909  -14.7290 C   0  0  0  0  0  0  0  0  0  0  0  0
   22.8114  -19.5483  -14.1713 O   0  0  0  0  0  0  0  0  0  0  0  0
   25.8488  -12.5582  -16.5323 C   0  0  0  0  0  0  0  0  0  0  0  0
   26.3602  -14.3049  -16.4069 S   0  0  0  0  0  0  0  0  0  0  0  0
   24.8439  -15.2880  -16.1372 C   0  0  0  0  0  0  0  0  0  0  0  0
   25.2584  -16.7194  -15.9185 C   0  0  0  0  0  0  0  0  0  0  0  0
   24.0483  -17.5761  -15.7545 C   0  0  2  0  0  0  0  0  0  0  0  0
   24.5336  -18.9542  -15.5856 N   0  0  0  0  0  0  0  0  0  0  0  0
   23.1147  -17.5774  -16.8928 C   0  0  0  0  0  0  0  0  0  0  0  0
   23.1980  -18.4250  -17.9719 O   0  0  0  0  0  0  0  0  0  0  0  0
   22.1429  -16.7491  -16.9255 O   0  0  0  0  0  0  0  0  0  0  0  0
  2  1  1  1
  3  2  1  0
  4  3  1  0
  5  6  2  0
  5  2  1  0
  7  5  1  0
  8  7  1  0
  8  9  1  6
  9 10  1  0
 11 10  1  0
 12 11  1  0
 12 13  1  0
 14  8  1  0
 15 14  2  0
 17 16  1  0
 18 17  1  0
 19 18  1  0
 20 19  1  6
 20 22  1  0
 20 21  1  0
 21 14  1  0
 22 23  1  0
 24 22  2  0
M  END
$$$$
