CKM.pdb
     RDKit          3D

 24 23  0  0  1  0  0  0  0  0999 V2000
   16.9243  -13.7413  -16.9707 N   0  0  0  0  0  0  0  0  0  0  0  0
   16.7723  -12.7607  -15.9025 C   0  0  1  0  0  0  0  0  0  0  0  0
   17.2687  -13.3193  -14.5975 C   0  0  0  0  0  0  0  0  0  0  0  0
   15.9741  -14.4239  -13.9602 S   0  0  0  0  0  0  0  0  0  0  0  0
   17.5649  -11.5553  -16.3278 C   0  0  0  0  0  0  0  0  0  0  0  0
   18.7032  -11.8174  -16.8506 O   0  0  0  0  0  0  0  0  0  0  0  0
   17.1014  -10.2450  -16.1679 N   0  0  0  0  0  0  0  0  0  0  0  0
   17.9290   -9.1363  -16.6237 C   0  0  1  0  0  0  0  0  0  0  0  0
   17.0976   -7.9239  -16.8616 C   0  0  0  0  0  0  0  0  0  0  0  0
   17.8922   -6.7912  -17.4293 C   0  0  0  0  0  0  0  0  0  0  0  0
   16.9569   -5.6117  -17.7376 C   0  0  0  0  0  0  0  0  0  0  0  0
   17.8121   -4.5331  -18.3662 C   0  0  0  0  0  0  0  0  0  0  0  0
   18.6497   -3.9791  -17.3197 N   0  0  0  0  0  0  0  0  0  0  0  0
   19.0264   -8.8662  -15.7066 C   0  0  0  0  0  0  0  0  0  0  0  0
   18.8639   -8.8196  -14.4806 O   0  0  0  0  0  0  0  0  0  0  0  0
   26.2196  -10.9619  -14.3608 C   0  0  0  0  0  0  0  0  0  0  0  0
   24.7973  -10.9308  -15.5028 S   0  0  0  0  0  0  0  0  0  0  0  0
   23.7166   -9.5558  -14.9736 C   0  0  0  0  0  0  0  0  0  0  0  0
   22.4685   -9.6034  -15.8155 C   0  0  0  0  0  0  0  0  0  0  0  0
   21.5219   -8.5376  -15.3760 C   0  0  2  0  0  0  0  0  0  0  0  0
   20.3399   -8.6466  -16.2444 N   0  0  0  0  0  0  0  0  0  0  0  0
   22.0239   -7.1585  -15.4912 C   0  0  0  0  0  0  0  0  0  0  0  0
   22.7032   -6.4881  -14.5018 O   0  0  0  0  0  0  0  0  0  0  0  0
   21.8380   -6.4966  -16.5677 O   0  0  0  0  0  0  0  0  0  0  0  0
  2  1  1  6
  3  2  1  0
  4  3  1  0
  5  6  2  0
  5  2  1  0
  7  5  1  0
  8  7  1  0
  8  9  1  1
  9 10  1  0
 11 10  1  0
 12 11  1  0
 12 13  1  0
 14  8  1  0
 15 14  2  0
 17 16  1  0
 18 17  1  0
 19 18  1  0
 20 19  1  6
 20 22  1  0
 20 21  1  0
 21 14  1  0
 22 23  1  0
 24 22  2  0
M  END
$$$$
