CKM.pdb
     RDKit          3D

 24 23  0  0  1  0  0  0  0  0999 V2000
   26.9802  -17.4769  -17.3601 N   0  0  0  0  0  0  0  0  0  0  0  0
   26.2341  -17.3783  -16.1114 C   0  0  1  0  0  0  0  0  0  0  0  0
   25.6768  -15.9926  -15.9364 C   0  0  0  0  0  0  0  0  0  0  0  0
   27.0494  -14.9258  -15.4070 S   0  0  0  0  0  0  0  0  0  0  0  0
   25.1422  -18.4091  -16.1962 C   0  0  0  0  0  0  0  0  0  0  0  0
   24.3122  -18.2356  -17.1548 O   0  0  0  0  0  0  0  0  0  0  0  0
   25.0343  -19.4785  -15.3005 N   0  0  0  0  0  0  0  0  0  0  0  0
   23.9453  -20.4330  -15.4589 C   0  0  1  0  0  0  0  0  0  0  0  0
   24.3184  -21.7551  -14.8840 C   0  0  0  0  0  0  0  0  0  0  0  0
   23.3004  -22.8108  -15.1768 C   0  0  0  0  0  0  0  0  0  0  0  0
   23.7353  -24.1362  -14.5322 C   0  0  0  0  0  0  0  0  0  0  0  0
   22.7336  -25.1815  -14.9722 C   0  0  0  0  0  0  0  0  0  0  0  0
   23.0379  -26.4036  -14.2529 N   0  0  0  0  0  0  0  0  0  0  0  0
   22.6997  -19.9325  -14.8966 C   0  0  0  0  0  0  0  0  0  0  0  0
   22.6447  -19.4168  -13.7729 O   0  0  0  0  0  0  0  0  0  0  0  0
   19.3586  -15.7489  -17.1774 C   0  0  0  0  0  0  0  0  0  0  0  0
   17.8556  -16.7079  -16.7909 S   0  0  0  0  0  0  0  0  0  0  0  0
   18.3553  -18.0520  -15.6585 C   0  0  0  0  0  0  0  0  0  0  0  0
   19.7442  -18.4863  -16.0472 C   0  0  0  0  0  0  0  0  0  0  0  0
   20.1972  -19.5902  -15.1519 C   0  0  2  0  0  0  0  0  0  0  0  0
   21.4963  -20.0421  -15.6728 N   0  0  0  0  0  0  0  0  0  0  0  0
   19.3133  -20.7663  -15.1002 C   0  0  0  0  0  0  0  0  0  0  0  0
   18.2598  -20.9154  -14.2297 O   0  0  0  0  0  0  0  0  0  0  0  0
   19.4999  -21.7439  -15.9007 O   0  0  0  0  0  0  0  0  0  0  0  0
  2  1  1  6
  3  2  1  0
  4  3  1  0
  5  6  2  0
  5  2  1  0
  7  5  1  0
  8  7  1  0
  8  9  1  1
  9 10  1  0
 11 10  1  0
 12 11  1  0
 12 13  1  0
 14  8  1  0
 15 14  2  0
 17 16  1  0
 18 17  1  0
 19 18  1  0
 20 19  1  6
 20 22  1  0
 20 21  1  0
 21 14  1  0
 22 23  1  0
 24 22  2  0
M  END
$$$$
