CKM.pdb
     RDKit          3D

 24 23  0  0  1  0  0  0  0  0999 V2000
   27.2887  -15.5998  -18.6753 N   0  0  0  0  0  0  0  0  0  0  0  0
   26.4969  -14.6374  -17.9186 C   0  0  1  0  0  0  0  0  0  0  0  0
   26.8160  -14.7271  -16.4518 C   0  0  0  0  0  0  0  0  0  0  0  0
   26.0639  -16.2609  -15.8323 S   0  0  0  0  0  0  0  0  0  0  0  0
   26.8386  -13.2843  -18.4794 C   0  0  0  0  0  0  0  0  0  0  0  0
   28.0394  -13.1668  -18.9061 O   0  0  0  0  0  0  0  0  0  0  0  0
   25.9209  -12.2297  -18.5342 N   0  0  0  0  0  0  0  0  0  0  0  0
   26.2989  -10.9907  -19.2005 C   0  0  1  0  0  0  0  0  0  0  0  0
   25.0901  -10.2025  -19.5680 C   0  0  0  0  0  0  0  0  0  0  0  0
   24.5062  -10.6323  -20.8761 C   0  0  0  0  0  0  0  0  0  0  0  0
   23.4927  -11.7628  -20.6393 C   0  0  0  0  0  0  0  0  0  0  0  0
   22.9070  -12.1100  -21.9906 C   0  0  0  0  0  0  0  0  0  0  0  0
   22.0214  -13.2429  -21.8011 N   0  0  0  0  0  0  0  0  0  0  0  0
   27.2309  -10.2083  -18.4021 C   0  0  0  0  0  0  0  0  0  0  0  0
   27.0359   -9.9751  -17.2025 O   0  0  0  0  0  0  0  0  0  0  0  0
   33.3664  -11.0597  -18.3051 C   0  0  0  0  0  0  0  0  0  0  0  0
   32.9343  -10.1389  -16.7907 S   0  0  0  0  0  0  0  0  0  0  0  0
   31.5943   -8.9787  -17.2343 C   0  0  0  0  0  0  0  0  0  0  0  0
   30.5233   -9.7649  -17.9438 C   0  0  0  0  0  0  0  0  0  0  0  0
   29.3834   -8.8670  -18.2900 C   0  0  2  0  0  0  0  0  0  0  0  0
   28.4146   -9.6904  -19.0293 N   0  0  0  0  0  0  0  0  0  0  0  0
   29.7209   -7.7160  -19.1435 C   0  0  0  0  0  0  0  0  0  0  0  0
   29.7151   -7.7332  -20.5181 O   0  0  0  0  0  0  0  0  0  0  0  0
   30.0501   -6.6009  -18.6149 O   0  0  0  0  0  0  0  0  0  0  0  0
  2  1  1  6
  3  2  1  0
  4  3  1  0
  5  6  2  0
  5  2  1  0
  7  5  1  0
  8  7  1  0
  8  9  1  1
  9 10  1  0
 11 10  1  0
 12 11  1  0
 12 13  1  0
 14  8  1  0
 15 14  2  0
 17 16  1  0
 18 17  1  0
 19 18  1  0
 20 19  1  6
 20 22  1  0
 20 21  1  0
 21 14  1  0
 22 23  1  0
 24 22  2  0
M  END
$$$$
