CKM.pdb
     RDKit          3D

 24 23  0  0  1  0  0  0  0  0999 V2000
   27.8034  -17.5929  -17.2638 N   0  0  0  0  0  0  0  0  0  0  0  0
   26.8701  -16.5831  -16.7789 C   0  0  1  0  0  0  0  0  0  0  0  0
   27.1025  -16.3058  -15.3193 C   0  0  0  0  0  0  0  0  0  0  0  0
   26.7159  -17.8340  -14.4152 S   0  0  0  0  0  0  0  0  0  0  0  0
   27.1060  -15.3594  -17.6209 C   0  0  0  0  0  0  0  0  0  0  0  0
   28.3262  -15.1619  -17.9525 O   0  0  0  0  0  0  0  0  0  0  0  0
   26.0768  -14.4978  -18.0158 N   0  0  0  0  0  0  0  0  0  0  0  0
   26.3895  -13.3588  -18.8683 C   0  0  1  0  0  0  0  0  0  0  0  0
   25.1845  -12.9261  -19.6290 C   0  0  0  0  0  0  0  0  0  0  0  0
   25.4789  -11.8017  -20.5700 C   0  0  0  0  0  0  0  0  0  0  0  0
   24.2018  -11.4276  -21.3384 C   0  0  0  0  0  0  0  0  0  0  0  0
   24.5916  -10.3534  -22.3303 C   0  0  0  0  0  0  0  0  0  0  0  0
   23.4125  -10.0384  -23.1140 N   0  0  0  0  0  0  0  0  0  0  0  0
   26.9737  -12.2604  -18.1129 C   0  0  0  0  0  0  0  0  0  0  0  0
   26.5528  -11.9317  -16.9965 O   0  0  0  0  0  0  0  0  0  0  0  0
   33.5777   -8.7832  -16.3056 C   0  0  0  0  0  0  0  0  0  0  0  0
   32.6794  -10.1602  -17.0960 S   0  0  0  0  0  0  0  0  0  0  0  0
   30.9166   -9.6835  -17.1576 C   0  0  0  0  0  0  0  0  0  0  0  0
   30.1634  -10.7986  -17.8342 C   0  0  0  0  0  0  0  0  0  0  0  0
   28.7246  -10.4280  -17.9676 C   0  0  2  0  0  0  0  0  0  0  0  0
   28.0741  -11.5355  -18.6841 N   0  0  0  0  0  0  0  0  0  0  0  0
   28.4561   -9.1968  -18.7286 C   0  0  0  0  0  0  0  0  0  0  0  0
   28.4030   -7.9360  -18.1832 O   0  0  0  0  0  0  0  0  0  0  0  0
   28.2504   -9.2537  -19.9879 O   0  0  0  0  0  0  0  0  0  0  0  0
  2  1  1  6
  3  2  1  0
  4  3  1  0
  5  6  2  0
  5  2  1  0
  7  5  1  0
  8  7  1  0
  8  9  1  1
  9 10  1  0
 11 10  1  0
 12 11  1  0
 12 13  1  0
 14  8  1  0
 15 14  2  0
 17 16  1  0
 18 17  1  0
 19 18  1  0
 20 19  1  6
 20 22  1  0
 20 21  1  0
 21 14  1  0
 22 23  1  0
 24 22  2  0
M  END
$$$$
