CKM.pdb
     RDKit          3D

 24 23  0  0  1  0  0  0  0  0999 V2000
   15.4762  -13.2078  -12.2321 N   0  0  0  0  0  0  0  0  0  0  0  0
   14.7743  -11.9871  -12.6105 C   0  0  1  0  0  0  0  0  0  0  0  0
   13.4120  -11.9421  -11.9755 C   0  0  0  0  0  0  0  0  0  0  0  0
   12.4031  -13.2218  -12.7797 S   0  0  0  0  0  0  0  0  0  0  0  0
   15.6406  -10.8481  -12.1475 C   0  0  0  0  0  0  0  0  0  0  0  0
   15.9196  -10.8580  -10.8986 O   0  0  0  0  0  0  0  0  0  0  0  0
   16.1095   -9.8501  -13.0087 N   0  0  0  0  0  0  0  0  0  0  0  0
   16.8299   -8.7119  -12.4543 C   0  0  1  0  0  0  0  0  0  0  0  0
   17.7113   -8.0962  -13.4847 C   0  0  0  0  0  0  0  0  0  0  0  0
   18.8098   -9.0145  -13.9165 C   0  0  0  0  0  0  0  0  0  0  0  0
   19.6668   -8.3220  -14.9875 C   0  0  0  0  0  0  0  0  0  0  0  0
   20.7625   -9.2959  -15.3625 C   0  0  0  0  0  0  0  0  0  0  0  0
   21.5350   -8.6896  -16.4299 N   0  0  0  0  0  0  0  0  0  0  0  0
   15.9275   -7.7350  -11.8629 C   0  0  0  0  0  0  0  0  0  0  0  0
   14.9012   -7.3529  -12.4394 O   0  0  0  0  0  0  0  0  0  0  0  0
   12.8847   -5.1296   -5.2774 C   0  0  0  0  0  0  0  0  0  0  0  0
   13.8728   -6.3768   -6.1696 S   0  0  0  0  0  0  0  0  0  0  0  0
   14.2708   -5.6719   -7.8076 C   0  0  0  0  0  0  0  0  0  0  0  0
   15.0492   -6.7077   -8.5757 C   0  0  0  0  0  0  0  0  0  0  0  0
   15.3930   -6.1807   -9.9282 C   0  0  2  0  0  0  0  0  0  0  0  0
   16.2407   -7.1981  -10.5682 N   0  0  0  0  0  0  0  0  0  0  0  0
   16.1433   -4.9142   -9.9421 C   0  0  0  0  0  0  0  0  0  0  0  0
   17.4950   -4.8082  -10.1690 O   0  0  0  0  0  0  0  0  0  0  0  0
   15.5387   -3.8088   -9.7322 O   0  0  0  0  0  0  0  0  0  0  0  0
  2  1  1  1
  3  2  1  0
  4  3  1  0
  5  6  2  0
  5  2  1  0
  7  5  1  0
  8  7  1  0
  8  9  1  6
  9 10  1  0
 11 10  1  0
 12 11  1  0
 12 13  1  0
 14  8  1  0
 15 14  2  0
 17 16  1  0
 18 17  1  0
 19 18  1  0
 20 19  1  1
 20 22  1  0
 20 21  1  0
 21 14  1  0
 22 23  1  0
 24 22  2  0
M  END
$$$$
