CKM.pdb
     RDKit          3D

 24 23  0  0  1  0  0  0  0  0999 V2000
   17.4979  -10.8712  -14.1770 N   0  0  0  0  0  0  0  0  0  0  0  0
   17.4497  -10.4074  -15.5585 C   0  0  1  0  0  0  0  0  0  0  0  0
   16.2845   -9.4793  -15.7642 C   0  0  0  0  0  0  0  0  0  0  0  0
   14.7742  -10.4850  -15.6655 S   0  0  0  0  0  0  0  0  0  0  0  0
   18.7613   -9.7164  -15.8118 C   0  0  0  0  0  0  0  0  0  0  0  0
   19.2523   -9.1070  -14.7992 O   0  0  0  0  0  0  0  0  0  0  0  0
   19.4023   -9.7333  -17.0553 N   0  0  0  0  0  0  0  0  0  0  0  0
   20.7394   -9.1678  -17.1749 C   0  0  1  0  0  0  0  0  0  0  0  0
   21.4840   -9.8125  -18.2919 C   0  0  0  0  0  0  0  0  0  0  0  0
   22.3914  -10.9023  -17.8168 C   0  0  0  0  0  0  0  0  0  0  0  0
   21.6634  -12.2525  -17.9075 C   0  0  0  0  0  0  0  0  0  0  0  0
   22.6279  -13.3002  -17.3958 C   0  0  0  0  0  0  0  0  0  0  0  0
   21.9124  -14.5609  -17.3461 N   0  0  0  0  0  0  0  0  0  0  0  0
   20.7050   -7.7195  -17.3147 C   0  0  0  0  0  0  0  0  0  0  0  0
   19.9766   -7.1547  -18.1406 O   0  0  0  0  0  0  0  0  0  0  0  0
   22.1266   -1.0643  -13.4854 C   0  0  0  0  0  0  0  0  0  0  0  0
   22.0639   -2.8872  -13.4550 S   0  0  0  0  0  0  0  0  0  0  0  0
   21.7981   -3.4419  -15.1755 C   0  0  0  0  0  0  0  0  0  0  0  0
   21.6996   -4.9449  -15.1626 C   0  0  0  0  0  0  0  0  0  0  0  0
   21.5657   -5.4541  -16.5583 C   0  0  2  0  0  0  0  0  0  0  0  0
   21.5450   -6.9218  -16.4658 N   0  0  0  0  0  0  0  0  0  0  0  0
   22.6596   -5.0886  -17.4731 C   0  0  0  0  0  0  0  0  0  0  0  0
   22.6503   -3.9950  -18.3060 O   0  0  0  0  0  0  0  0  0  0  0  0
   23.7124   -5.8093  -17.5334 O   0  0  0  0  0  0  0  0  0  0  0  0
  2  1  1  1
  3  2  1  0
  4  3  1  0
  5  6  2  0
  5  2  1  0
  7  5  1  0
  8  7  1  0
  8  9  1  6
  9 10  1  0
 11 10  1  0
 12 11  1  0
 12 13  1  0
 14  8  1  0
 15 14  2  0
 17 16  1  0
 18 17  1  0
 19 18  1  0
 20 19  1  1
 20 22  1  0
 20 21  1  0
 21 14  1  0
 22 23  1  0
 24 22  2  0
M  END
$$$$
