CKM.pdb
     RDKit          3D

 24 23  0  0  1  0  0  0  0  0999 V2000
   18.1793  -14.0781  -17.3728 N   0  0  0  0  0  0  0  0  0  0  0  0
   18.4208  -13.6067  -16.0144 C   0  0  1  0  0  0  0  0  0  0  0  0
   19.5881  -14.3312  -15.4030 C   0  0  0  0  0  0  0  0  0  0  0  0
   18.9554  -15.8968  -14.7317 S   0  0  0  0  0  0  0  0  0  0  0  0
   18.6809  -12.1296  -16.1264 C   0  0  0  0  0  0  0  0  0  0  0  0
   19.4141  -11.7864  -17.1176 O   0  0  0  0  0  0  0  0  0  0  0  0
   18.1654  -11.1956  -15.2212 N   0  0  0  0  0  0  0  0  0  0  0  0
   18.4532   -9.7810  -15.4163 C   0  0  1  0  0  0  0  0  0  0  0  0
   17.3374   -8.9421  -14.8975 C   0  0  0  0  0  0  0  0  0  0  0  0
   16.0695   -9.1437  -15.6644 C   0  0  0  0  0  0  0  0  0  0  0  0
   14.9598   -8.2685  -15.0612 C   0  0  0  0  0  0  0  0  0  0  0  0
   13.6818   -8.6269  -15.7877 C   0  0  0  0  0  0  0  0  0  0  0  0
   12.6095   -7.8603  -15.1828 N   0  0  0  0  0  0  0  0  0  0  0  0
   19.7305   -9.4018  -14.8306 C   0  0  0  0  0  0  0  0  0  0  0  0
   20.1647   -9.9298  -13.7990 O   0  0  0  0  0  0  0  0  0  0  0  0
   26.6736  -10.6341  -14.7977 C   0  0  0  0  0  0  0  0  0  0  0  0
   24.9627  -10.7906  -15.4112 S   0  0  0  0  0  0  0  0  0  0  0  0
   24.0987   -9.2372  -14.9879 C   0  0  0  0  0  0  0  0  0  0  0  0
   22.6464   -9.4071  -15.3493 C   0  0  0  0  0  0  0  0  0  0  0  0
   21.9121   -8.1324  -15.1024 C   0  0  2  0  0  0  0  0  0  0  0  0
   20.5105   -8.3809  -15.4726 N   0  0  0  0  0  0  0  0  0  0  0  0
   22.3729   -6.9745  -15.8860 C   0  0  0  0  0  0  0  0  0  0  0  0
   23.2308   -6.0064  -15.4205 O   0  0  0  0  0  0  0  0  0  0  0  0
   21.9733   -6.8145  -17.0886 O   0  0  0  0  0  0  0  0  0  0  0  0
  2  1  1  6
  3  2  1  0
  4  3  1  0
  5  6  2  0
  5  2  1  0
  7  5  1  0
  8  7  1  0
  8  9  1  1
  9 10  1  0
 11 10  1  0
 12 11  1  0
 12 13  1  0
 14  8  1  0
 15 14  2  0
 17 16  1  0
 18 17  1  0
 19 18  1  0
 20 19  1  6
 20 22  1  0
 20 21  1  0
 21 14  1  0
 22 23  1  0
 24 22  2  0
M  END
$$$$
