CKM.pdb
     RDKit          3D

 24 23  0  0  1  0  0  0  0  0999 V2000
   18.9074  -14.0528  -17.8303 N   0  0  0  0  0  0  0  0  0  0  0  0
   19.0153  -13.4364  -16.5134 C   0  0  1  0  0  0  0  0  0  0  0  0
   20.1322  -14.0639  -15.7259 C   0  0  0  0  0  0  0  0  0  0  0  0
   19.4750  -15.5872  -14.9843 S   0  0  0  0  0  0  0  0  0  0  0  0
   19.2623  -11.9730  -16.7576 C   0  0  0  0  0  0  0  0  0  0  0  0
   20.0840  -11.7171  -17.7048 O   0  0  0  0  0  0  0  0  0  0  0  0
   18.6458  -10.9626  -16.0116 N   0  0  0  0  0  0  0  0  0  0  0  0
   18.7563   -9.5802  -16.4571 C   0  0  1  0  0  0  0  0  0  0  0  0
   17.4663   -8.8617  -16.2636 C   0  0  0  0  0  0  0  0  0  0  0  0
   17.4856   -7.4881  -16.8549 C   0  0  0  0  0  0  0  0  0  0  0  0
   16.1171   -6.8207  -16.6476 C   0  0  0  0  0  0  0  0  0  0  0  0
   16.1543   -5.5111  -17.4046 C   0  0  0  0  0  0  0  0  0  0  0  0
   14.8436   -4.9021  -17.2823 N   0  0  0  0  0  0  0  0  0  0  0  0
   19.8613   -8.8887  -15.8097 C   0  0  0  0  0  0  0  0  0  0  0  0
   20.1422   -9.0673  -14.6178 O   0  0  0  0  0  0  0  0  0  0  0  0
   26.3019   -4.6618  -17.3856 C   0  0  0  0  0  0  0  0  0  0  0  0
   24.8727   -5.5884  -18.0387 S   0  0  0  0  0  0  0  0  0  0  0  0
   23.7980   -5.9867  -16.6157 C   0  0  0  0  0  0  0  0  0  0  0  0
   22.6206   -6.7693  -17.1352 C   0  0  0  0  0  0  0  0  0  0  0  0
   21.7858   -7.2433  -15.9934 C   0  0  2  0  0  0  0  0  0  0  0  0
   20.6497   -7.9691  -16.5814 N   0  0  0  0  0  0  0  0  0  0  0  0
   21.2312   -6.1854  -15.1329 C   0  0  0  0  0  0  0  0  0  0  0  0
   20.0042   -5.5925  -15.3143 O   0  0  0  0  0  0  0  0  0  0  0  0
   21.9015   -5.7539  -14.1349 O   0  0  0  0  0  0  0  0  0  0  0  0
  2  1  1  6
  3  2  1  0
  4  3  1  0
  5  6  2  0
  5  2  1  0
  7  5  1  0
  8  7  1  0
  8  9  1  1
  9 10  1  0
 11 10  1  0
 12 11  1  0
 12 13  1  0
 14  8  1  0
 15 14  2  0
 17 16  1  0
 18 17  1  0
 19 18  1  0
 20 19  1  6
 20 22  1  0
 20 21  1  0
 21 14  1  0
 22 23  1  0
 24 22  2  0
M  END
$$$$
