CKM.pdb
     RDKit          3D

 24 23  0  0  1  0  0  0  0  0999 V2000
   26.4555  -15.6257  -17.6670 N   0  0  0  0  0  0  0  0  0  0  0  0
   26.4279  -16.1003  -16.2886 C   0  0  1  0  0  0  0  0  0  0  0  0
   25.6527  -15.1504  -15.4179 C   0  0  0  0  0  0  0  0  0  0  0  0
   26.7850  -13.8093  -14.9471 S   0  0  0  0  0  0  0  0  0  0  0  0
   25.7903  -17.4618  -16.3297 C   0  0  0  0  0  0  0  0  0  0  0  0
   24.7576  -17.5495  -17.0804 O   0  0  0  0  0  0  0  0  0  0  0  0
   26.2814  -18.5540  -15.6062 N   0  0  0  0  0  0  0  0  0  0  0  0
   25.6267  -19.8485  -15.7387 C   0  0  1  0  0  0  0  0  0  0  0  0
   26.5770  -20.9517  -15.4264 C   0  0  0  0  0  0  0  0  0  0  0  0
   27.4292  -21.3182  -16.5994 C   0  0  0  0  0  0  0  0  0  0  0  0
   28.3388  -22.4985  -16.2245 C   0  0  0  0  0  0  0  0  0  0  0  0
   29.3024  -22.6861  -17.3760 C   0  0  0  0  0  0  0  0  0  0  0  0
   30.1982  -23.7697  -17.0197 N   0  0  0  0  0  0  0  0  0  0  0  0
   24.4198  -19.9309  -14.9296 C   0  0  0  0  0  0  0  0  0  0  0  0
   24.4047  -19.6089  -13.7347 O   0  0  0  0  0  0  0  0  0  0  0  0
   18.9222  -19.1957  -17.6010 C   0  0  0  0  0  0  0  0  0  0  0  0
   18.3137  -19.1684  -15.8814 S   0  0  0  0  0  0  0  0  0  0  0  0
   19.5745  -20.0019  -14.8547 C   0  0  0  0  0  0  0  0  0  0  0  0
   20.9107  -19.8088  -15.5228 C   0  0  0  0  0  0  0  0  0  0  0  0
   21.9633  -20.5515  -14.7707 C   0  0  2  0  0  0  0  0  0  0  0  0
   23.2080  -20.4021  -15.5398 N   0  0  0  0  0  0  0  0  0  0  0  0
   21.7227  -21.9942  -14.6034 C   0  0  0  0  0  0  0  0  0  0  0  0
   20.9656  -22.5497  -13.5994 O   0  0  0  0  0  0  0  0  0  0  0  0
   22.2342  -22.8287  -15.4242 O   0  0  0  0  0  0  0  0  0  0  0  0
  2  1  1  6
  3  2  1  0
  4  3  1  0
  5  6  2  0
  5  2  1  0
  7  5  1  0
  8  7  1  0
  8  9  1  1
  9 10  1  0
 11 10  1  0
 12 11  1  0
 12 13  1  0
 14  8  1  0
 15 14  2  0
 17 16  1  0
 18 17  1  0
 19 18  1  0
 20 19  1  6
 20 22  1  0
 20 21  1  0
 21 14  1  0
 22 23  1  0
 24 22  2  0
M  END
$$$$
