TTF.pdb
     RDKit          3D

 26 26  0  0  1  0  0  0  0  0999 V2000
   23.0086  -25.8490  -14.5797 C   0  0  0  0  0  0  0  0  0  0  0  0
   23.9265  -24.8401  -13.9882 C   0  0  1  0  0  0  0  0  0  0  0  0
   24.9304  -25.4909  -13.2764 O   0  0  0  0  0  0  0  0  0  0  0  0
   24.6028  -23.9564  -15.0152 C   0  0  2  0  0  0  0  0  0  0  0  0
   25.4020  -24.7325  -15.9423 N   0  0  0  0  0  0  0  0  0  0  0  0
   25.4657  -22.9848  -14.3007 C   0  0  0  0  0  0  0  0  0  0  0  0
   26.6474  -22.7276  -14.6664 O   0  0  0  0  0  0  0  0  0  0  0  0
   25.8314  -18.7221  -12.3409 C   0  0  0  0  0  0  0  0  0  0  0  0
   25.0322  -19.8484  -12.9623 C   0  0  1  0  0  0  0  0  0  0  0  0
   25.0350  -19.6539  -14.3266 O   0  0  0  0  0  0  0  0  0  0  0  0
   25.6512  -21.1737  -12.5685 C   0  0  2  0  0  0  0  0  0  0  0  0
   24.9840  -22.2933  -13.1548 N   0  0  0  0  0  0  0  0  0  0  0  0
   25.7874  -21.2976  -11.0986 C   0  0  0  0  0  0  0  0  0  0  0  0
   24.9031  -21.8537  -10.4295 O   0  0  0  0  0  0  0  0  0  0  0  0
   26.9285  -20.7830  -10.4397 N   0  0  0  0  0  0  0  0  0  0  0  0
   27.0381  -20.7062   -8.9822 C   0  0  1  0  0  0  0  0  0  0  0  0
   28.2616  -19.9557   -8.5676 C   0  0  0  0  0  0  0  0  0  0  0  0
   28.4244  -19.9027   -7.1214 C   0  0  0  0  0  0  0  0  0  0  0  0
   27.9163  -18.8353   -6.3733 C   0  0  0  0  0  0  0  0  0  0  0  0
   28.0535  -18.7882   -5.0048 C   0  0  0  0  0  0  0  0  0  0  0  0
   28.6954  -19.7879   -4.3173 C   0  0  0  0  0  0  0  0  0  0  0  0
   29.2127  -20.8648   -5.0324 C   0  0  0  0  0  0  0  0  0  0  0  0
   29.0646  -20.8931   -6.4031 C   0  0  0  0  0  0  0  0  0  0  0  0
   25.8245  -20.1556   -8.3758 C   0  0  0  0  0  0  0  0  0  0  0  0
   25.1420  -19.0281   -8.7616 O   0  0  0  0  0  0  0  0  0  0  0  0
   25.3380  -20.7867   -7.3728 O   0  0  0  0  0  0  0  0  0  0  0  0
  2  1  1  6
  2  3  1  0
  2  4  1  0
  4  6  1  0
  4  5  1  6
  6  7  2  0
  9 11  1  0
  9  8  1  1
 10  9  1  0
 11 12  1  1
 12  6  1  0
 13 14  2  0
 13 11  1  0
 15 13  1  0
 16 24  1  0
 16 15  1  0
 16 17  1  6
 18 17  1  0
 19 18  2  0
 20 19  1  0
 21 20  2  0
 21 22  1  0
 22 23  2  0
 23 18  1  0
 24 25  1  0
 26 24  2  0
M  END
$$$$
