TTF.pdb
     RDKit          3D

 26 26  0  0  1  0  0  0  0  0999 V2000
   16.8409  -11.9627  -15.7288 C   0  0  0  0  0  0  0  0  0  0  0  0
   17.6175  -13.0267  -16.4179 C   0  0  1  0  0  0  0  0  0  0  0  0
   16.8083  -14.1450  -16.5984 O   0  0  0  0  0  0  0  0  0  0  0  0
   18.1320  -12.6181  -17.7822 C   0  0  2  0  0  0  0  0  0  0  0  0
   18.8076  -13.7145  -18.4472 N   0  0  0  0  0  0  0  0  0  0  0  0
   19.0701  -11.4829  -17.6078 C   0  0  0  0  0  0  0  0  0  0  0  0
   20.2735  -11.6428  -17.2578 O   0  0  0  0  0  0  0  0  0  0  0  0
   19.6213   -8.6588  -20.1107 C   0  0  0  0  0  0  0  0  0  0  0  0
   19.3250   -7.9912  -18.7842 C   0  0  1  0  0  0  0  0  0  0  0  0
   18.0445   -7.4861  -18.8522 O   0  0  0  0  0  0  0  0  0  0  0  0
   19.4853   -9.0052  -17.6703 C   0  0  2  0  0  0  0  0  0  0  0  0
   18.6398  -10.1459  -17.8329 N   0  0  0  0  0  0  0  0  0  0  0  0
   19.3446   -8.3775  -16.3358 C   0  0  0  0  0  0  0  0  0  0  0  0
   18.2940   -8.5048  -15.6884 O   0  0  0  0  0  0  0  0  0  0  0  0
   20.4073   -7.6249  -15.7833 N   0  0  0  0  0  0  0  0  0  0  0  0
   20.3554   -7.0419  -14.4418 C   0  0  1  0  0  0  0  0  0  0  0  0
   21.6124   -7.3142  -13.6816 C   0  0  0  0  0  0  0  0  0  0  0  0
   22.8108   -7.0122  -14.4519 C   0  0  0  0  0  0  0  0  0  0  0  0
   23.5583   -8.0277  -15.0578 C   0  0  0  0  0  0  0  0  0  0  0  0
   24.6826   -7.7463  -15.7999 C   0  0  0  0  0  0  0  0  0  0  0  0
   25.1167   -6.4562  -15.9760 C   0  0  0  0  0  0  0  0  0  0  0  0
   24.3950   -5.4220  -15.3859 C   0  0  0  0  0  0  0  0  0  0  0  0
   23.2713   -5.7250  -14.6463 C   0  0  0  0  0  0  0  0  0  0  0  0
   20.0378   -5.6132  -14.4838 C   0  0  0  0  0  0  0  0  0  0  0  0
   19.6607   -4.8155  -13.4315 O   0  0  0  0  0  0  0  0  0  0  0  0
   20.1159   -5.0336  -15.6236 O   0  0  0  0  0  0  0  0  0  0  0  0
  2  1  1  6
  2  3  1  0
  2  4  1  0
  4  6  1  0
  4  5  1  1
  6  7  2  0
  9 11  1  0
  9  8  1  6
 10  9  1  0
 11 12  1  6
 12  6  1  0
 13 14  2  0
 13 11  1  0
 15 13  1  0
 16 24  1  0
 16 15  1  0
 16 17  1  6
 18 17  1  0
 19 18  2  0
 20 19  1  0
 21 20  2  0
 21 22  1  0
 22 23  2  0
 23 18  1  0
 24 25  1  0
 26 24  2  0
M  END
$$$$
