TTF.pdb
     RDKit          3D

 26 26  0  0  1  0  0  0  0  0999 V2000
   28.1600  -18.7454  -13.9339 C   0  0  0  0  0  0  0  0  0  0  0  0
   27.1086  -19.4229  -14.7374 C   0  0  1  0  0  0  0  0  0  0  0  0
   27.0572  -18.8512  -16.0057 O   0  0  0  0  0  0  0  0  0  0  0  0
   27.3450  -20.9071  -14.9215 C   0  0  2  0  0  0  0  0  0  0  0  0
   28.4847  -21.1627  -15.7797 N   0  0  0  0  0  0  0  0  0  0  0  0
   26.1253  -21.5050  -15.5163 C   0  0  0  0  0  0  0  0  0  0  0  0
   26.0557  -21.8395  -16.7327 O   0  0  0  0  0  0  0  0  0  0  0  0
   24.5786  -24.6287  -15.0350 C   0  0  0  0  0  0  0  0  0  0  0  0
   23.4735  -23.6726  -14.6379 C   0  0  1  0  0  0  0  0  0  0  0  0
   23.4226  -23.6481  -13.2609 O   0  0  0  0  0  0  0  0  0  0  0  0
   23.7613  -22.3073  -15.2276 C   0  0  2  0  0  0  0  0  0  0  0  0
   24.9662  -21.7279  -14.7225 N   0  0  0  0  0  0  0  0  0  0  0  0
   22.5966  -21.4008  -15.1006 C   0  0  0  0  0  0  0  0  0  0  0  0
   22.3985  -20.7748  -14.0480 O   0  0  0  0  0  0  0  0  0  0  0  0
   21.6954  -21.2379  -16.1788 N   0  0  0  0  0  0  0  0  0  0  0  0
   20.5302  -20.3546  -16.1148 C   0  0  1  0  0  0  0  0  0  0  0  0
   20.0619  -19.9724  -17.4811 C   0  0  0  0  0  0  0  0  0  0  0  0
   18.8999  -19.0950  -17.4511 C   0  0  0  0  0  0  0  0  0  0  0  0
   19.0424  -17.7034  -17.4411 C   0  0  0  0  0  0  0  0  0  0  0  0
   17.9475  -16.8697  -17.4287 C   0  0  0  0  0  0  0  0  0  0  0  0
   16.6696  -17.3704  -17.4257 C   0  0  0  0  0  0  0  0  0  0  0  0
   16.4931  -18.7515  -17.4355 C   0  0  0  0  0  0  0  0  0  0  0  0
   17.6032  -19.5696  -17.4479 C   0  0  0  0  0  0  0  0  0  0  0  0
   19.4546  -20.9342  -15.3080 C   0  0  0  0  0  0  0  0  0  0  0  0
   18.6659  -20.2872  -14.3886 O   0  0  0  0  0  0  0  0  0  0  0  0
   19.2153  -22.1824  -15.4686 O   0  0  0  0  0  0  0  0  0  0  0  0
  2  1  1  1
  2  3  1  0
  2  4  1  0
  4  6  1  0
  4  5  1  6
  6  7  2  0
  9 11  1  0
  9  8  1  1
 10  9  1  0
 11 12  1  1
 12  6  1  0
 13 14  2  0
 13 11  1  0
 15 13  1  0
 16 24  1  0
 16 15  1  0
 16 17  1  6
 18 17  1  0
 19 18  2  0
 20 19  1  0
 21 20  2  0
 21 22  1  0
 22 23  2  0
 23 18  1  0
 24 25  1  0
 26 24  2  0
M  END
$$$$
