TTF.pdb
     RDKit          3D

 26 26  0  0  1  0  0  0  0  0999 V2000
   24.2671  -22.1468  -16.7122 C   0  0  0  0  0  0  0  0  0  0  0  0
   25.3487  -22.6656  -17.5905 C   0  0  1  0  0  0  0  0  0  0  0  0
   24.8760  -22.7624  -18.8963 O   0  0  0  0  0  0  0  0  0  0  0  0
   26.5815  -21.7870  -17.6217 C   0  0  2  0  0  0  0  0  0  0  0  0
   27.6225  -22.3589  -18.4522 N   0  0  0  0  0  0  0  0  0  0  0  0
   27.0781  -21.6281  -16.2334 C   0  0  0  0  0  0  0  0  0  0  0  0
   27.9749  -22.3706  -15.7429 O   0  0  0  0  0  0  0  0  0  0  0  0
   28.7241  -18.7663  -14.7515 C   0  0  0  0  0  0  0  0  0  0  0  0
   27.5377  -18.9878  -13.8368 C   0  0  1  0  0  0  0  0  0  0  0  0
   26.6028  -18.0185  -14.1297 O   0  0  0  0  0  0  0  0  0  0  0  0
   27.0007  -20.3882  -14.0489 C   0  0  2  0  0  0  0  0  0  0  0  0
   26.5519  -20.6132  -15.3871 N   0  0  0  0  0  0  0  0  0  0  0  0
   25.9764  -20.7394  -13.0380 C   0  0  0  0  0  0  0  0  0  0  0  0
   24.7838  -20.8475  -13.3621 O   0  0  0  0  0  0  0  0  0  0  0  0
   26.3461  -20.9559  -11.6899 N   0  0  0  0  0  0  0  0  0  0  0  0
   25.3923  -21.3723  -10.6608 C   0  0  1  0  0  0  0  0  0  0  0  0
   26.0869  -22.0079   -9.5008 C   0  0  0  0  0  0  0  0  0  0  0  0
   26.7815  -21.0398   -8.6634 C   0  0  0  0  0  0  0  0  0  0  0  0
   28.1780  -20.9561   -8.6576 C   0  0  0  0  0  0  0  0  0  0  0  0
   28.8387  -20.0326   -7.8802 C   0  0  0  0  0  0  0  0  0  0  0  0
   28.1534  -19.1549   -7.0778 C   0  0  0  0  0  0  0  0  0  0  0  0
   26.7623  -19.2120   -7.0605 C   0  0  0  0  0  0  0  0  0  0  0  0
   26.1193  -20.1446   -7.8468 C   0  0  0  0  0  0  0  0  0  0  0  0
   24.5276  -20.2666  -10.2442 C   0  0  0  0  0  0  0  0  0  0  0  0
   23.2616  -20.3553   -9.7195 O   0  0  0  0  0  0  0  0  0  0  0  0
   24.9933  -19.0811  -10.3811 O   0  0  0  0  0  0  0  0  0  0  0  0
  2  1  1  1
  2  3  1  0
  2  4  1  0
  4  6  1  0
  4  5  1  6
  6  7  2  0
  9 11  1  0
  9  8  1  6
 10  9  1  0
 11 12  1  6
 12  6  1  0
 13 14  2  0
 13 11  1  0
 15 13  1  0
 16 24  1  0
 16 15  1  0
 16 17  1  1
 18 17  1  0
 19 18  2  0
 20 19  1  0
 21 20  2  0
 21 22  1  0
 22 23  2  0
 23 18  1  0
 24 25  1  0
 26 24  2  0
M  END
$$$$
