TTF.pdb
     RDKit          3D

 26 26  0  0  1  0  0  0  0  0999 V2000
   12.5988  -11.9538  -15.0377 C   0  0  0  0  0  0  0  0  0  0  0  0
   13.9661  -11.7961  -14.4760 C   0  0  1  0  0  0  0  0  0  0  0  0
   13.8758  -11.4955  -13.1197 O   0  0  0  0  0  0  0  0  0  0  0  0
   14.8246  -13.0366  -14.6063 C   0  0  2  0  0  0  0  0  0  0  0  0
   14.8387  -13.8062  -13.3782 N   0  0  0  0  0  0  0  0  0  0  0  0
   16.2045  -12.6166  -14.9508 C   0  0  0  0  0  0  0  0  0  0  0  0
   17.1581  -12.6704  -14.1238 O   0  0  0  0  0  0  0  0  0  0  0  0
   19.4994  -11.7424  -18.4965 C   0  0  0  0  0  0  0  0  0  0  0  0
   18.0506  -12.0241  -18.1574 C   0  0  1  0  0  0  0  0  0  0  0  0
   17.7855  -13.3258  -18.5242 O   0  0  0  0  0  0  0  0  0  0  0  0
   17.8309  -11.7870  -16.6775 C   0  0  2  0  0  0  0  0  0  0  0  0
   16.5101  -12.1284  -16.2514 N   0  0  0  0  0  0  0  0  0  0  0  0
   18.2203  -10.4139  -16.2806 C   0  0  0  0  0  0  0  0  0  0  0  0
   17.4140   -9.4768  -16.3833 O   0  0  0  0  0  0  0  0  0  0  0  0
   19.5175  -10.1546  -15.7793 N   0  0  0  0  0  0  0  0  0  0  0  0
   19.9989   -8.8054  -15.4791 C   0  0  1  0  0  0  0  0  0  0  0  0
   21.1306   -8.8363  -14.5043 C   0  0  0  0  0  0  0  0  0  0  0  0
   21.6953   -7.5167  -14.2578 C   0  0  0  0  0  0  0  0  0  0  0  0
   22.6937   -6.9895  -15.0838 C   0  0  0  0  0  0  0  0  0  0  0  0
   23.2194   -5.7367  -14.8648 C   0  0  0  0  0  0  0  0  0  0  0  0
   22.7849   -4.9525  -13.8255 C   0  0  0  0  0  0  0  0  0  0  0  0
   21.7918   -5.4478  -12.9845 C   0  0  0  0  0  0  0  0  0  0  0  0
   21.2781   -6.7055  -13.2212 C   0  0  0  0  0  0  0  0  0  0  0  0
   20.3435   -8.0695  -16.6971 C   0  0  0  0  0  0  0  0  0  0  0  0
   20.0696   -6.7533  -16.9771 O   0  0  0  0  0  0  0  0  0  0  0  0
   20.9686   -8.7159  -17.6096 O   0  0  0  0  0  0  0  0  0  0  0  0
  2  1  1  1
  2  3  1  0
  2  4  1  0
  4  6  1  0
  4  5  1  1
  6  7  2  0
  9 11  1  0
  9  8  1  1
 10  9  1  0
 11 12  1  6
 12  6  1  0
 13 14  2  0
 13 11  1  0
 15 13  1  0
 16 24  1  0
 16 15  1  0
 16 17  1  1
 18 17  1  0
 19 18  2  0
 20 19  1  0
 21 20  2  0
 21 22  1  0
 22 23  2  0
 23 18  1  0
 24 25  1  0
 26 24  2  0
M  END
$$$$
