TTF.pdb
     RDKit          3D

 26 26  0  0  1  0  0  0  0  0999 V2000
   28.9954  -18.4654  -14.3511 C   0  0  0  0  0  0  0  0  0  0  0  0
   27.9988  -18.3879  -15.4514 C   0  0  1  0  0  0  0  0  0  0  0  0
   28.6459  -18.5549  -16.6726 O   0  0  0  0  0  0  0  0  0  0  0  0
   26.9160  -19.4431  -15.3674 C   0  0  2  0  0  0  0  0  0  0  0  0
   25.9794  -19.3342  -16.4681 N   0  0  0  0  0  0  0  0  0  0  0  0
   26.1988  -19.2761  -14.0802 C   0  0  0  0  0  0  0  0  0  0  0  0
   25.5855  -18.2141  -13.7763 O   0  0  0  0  0  0  0  0  0  0  0  0
   23.2436  -20.4566  -13.0535 C   0  0  0  0  0  0  0  0  0  0  0  0
   24.1294  -21.0585  -11.9829 C   0  0  1  0  0  0  0  0  0  0  0  0
   24.3375  -22.3803  -12.3131 O   0  0  0  0  0  0  0  0  0  0  0  0
   25.4227  -20.2735  -11.9081 C   0  0  2  0  0  0  0  0  0  0  0  0
   26.1750  -20.3271  -13.1221 N   0  0  0  0  0  0  0  0  0  0  0  0
   26.2257  -20.6553  -10.7232 C   0  0  0  0  0  0  0  0  0  0  0  0
   27.0622  -21.5683  -10.7978 O   0  0  0  0  0  0  0  0  0  0  0  0
   26.0481  -19.9828   -9.4914 N   0  0  0  0  0  0  0  0  0  0  0  0
   26.7555  -20.3639   -8.2681 C   0  0  1  0  0  0  0  0  0  0  0  0
   27.4600  -19.1948   -7.6607 C   0  0  0  0  0  0  0  0  0  0  0  0
   28.0971  -19.5205   -6.3923 C   0  0  0  0  0  0  0  0  0  0  0  0
   27.5364  -19.1190   -5.1751 C   0  0  0  0  0  0  0  0  0  0  0  0
   28.1260  -19.4378   -3.9732 C   0  0  0  0  0  0  0  0  0  0  0  0
   29.2897  -20.1635   -3.9197 C   0  0  0  0  0  0  0  0  0  0  0  0
   29.8737  -20.5786   -5.1136 C   0  0  0  0  0  0  0  0  0  0  0  0
   29.2671  -20.2490   -6.3073 C   0  0  0  0  0  0  0  0  0  0  0  0
   25.8663  -21.0264   -7.3119 C   0  0  0  0  0  0  0  0  0  0  0  0
   26.2169  -21.9379   -6.3464 O   0  0  0  0  0  0  0  0  0  0  0  0
   24.6213  -20.7313   -7.3751 O   0  0  0  0  0  0  0  0  0  0  0  0
  2  1  1  1
  2  3  1  0
  2  4  1  0
  4  6  1  0
  4  5  1  6
  6  7  2  0
  9 11  1  0
  9  8  1  6
 10  9  1  0
 11 12  1  6
 12  6  1  0
 13 14  2  0
 13 11  1  0
 15 13  1  0
 16 24  1  0
 16 15  1  0
 16 17  1  1
 18 17  1  0
 19 18  2  0
 20 19  1  0
 21 20  2  0
 21 22  1  0
 22 23  2  0
 23 18  1  0
 24 25  1  0
 26 24  2  0
M  END
$$$$
