TTF.pdb
     RDKit          3D

 26 26  0  0  1  0  0  0  0  0999 V2000
   23.4159  -13.7253  -15.5733 C   0  0  0  0  0  0  0  0  0  0  0  0
   23.3007  -12.3889  -16.2145 C   0  0  1  0  0  0  0  0  0  0  0  0
   24.3887  -12.1871  -17.0591 O   0  0  0  0  0  0  0  0  0  0  0  0
   22.0470  -12.2190  -17.0465 C   0  0  2  0  0  0  0  0  0  0  0  0
   22.1425  -12.9307  -18.3055 N   0  0  0  0  0  0  0  0  0  0  0  0
   21.8476  -10.7720  -17.3022 C   0  0  0  0  0  0  0  0  0  0  0  0
   22.2830  -10.1987  -18.3405 O   0  0  0  0  0  0  0  0  0  0  0  0
   19.1074   -9.0322  -18.2649 C   0  0  0  0  0  0  0  0  0  0  0  0
   19.4095   -8.3302  -16.9575 C   0  0  1  0  0  0  0  0  0  0  0  0
   18.5329   -8.8193  -16.0132 O   0  0  0  0  0  0  0  0  0  0  0  0
   20.8562   -8.5778  -16.5828 C   0  0  2  0  0  0  0  0  0  0  0  0
   21.1446   -9.9611  -16.3687 N   0  0  0  0  0  0  0  0  0  0  0  0
   21.2800   -7.7253  -15.4478 C   0  0  0  0  0  0  0  0  0  0  0  0
   21.3649   -8.1975  -14.3038 O   0  0  0  0  0  0  0  0  0  0  0  0
   21.5932   -6.3614  -15.6550 N   0  0  0  0  0  0  0  0  0  0  0  0
   22.2207   -5.5252  -14.6308 C   0  0  1  0  0  0  0  0  0  0  0  0
   23.6813   -5.8158  -14.5114 C   0  0  0  0  0  0  0  0  0  0  0  0
   24.3976   -5.6155  -15.7635 C   0  0  0  0  0  0  0  0  0  0  0  0
   24.7480   -6.6967  -16.5792 C   0  0  0  0  0  0  0  0  0  0  0  0
   25.4108   -6.5117  -17.7710 C   0  0  0  0  0  0  0  0  0  0  0  0
   25.7557   -5.2572  -18.2081 C   0  0  0  0  0  0  0  0  0  0  0  0
   25.4215   -4.1595  -17.4195 C   0  0  0  0  0  0  0  0  0  0  0  0
   24.7572   -4.3662  -16.2289 C   0  0  0  0  0  0  0  0  0  0  0  0
   21.9609   -4.1024  -14.8591 C   0  0  0  0  0  0  0  0  0  0  0  0
   22.2637   -3.0584  -14.0198 O   0  0  0  0  0  0  0  0  0  0  0  0
   21.3869   -3.7855  -15.9596 O   0  0  0  0  0  0  0  0  0  0  0  0
  2  1  1  6
  2  3  1  0
  2  4  1  0
  4  6  1  0
  4  5  1  6
  6  7  2  0
  9 11  1  0
  9  8  1  6
 10  9  1  0
 11 12  1  1
 12  6  1  0
 13 14  2  0
 13 11  1  0
 15 13  1  0
 16 24  1  0
 16 15  1  0
 16 17  1  6
 18 17  1  0
 19 18  2  0
 20 19  1  0
 21 20  2  0
 21 22  1  0
 22 23  2  0
 23 18  1  0
 24 25  1  0
 26 24  2  0
M  END
$$$$
