TTF.pdb
     RDKit          3D

 26 26  0  0  1  0  0  0  0  0999 V2000
   24.7119  -33.3878  -15.2609 C   0  0  0  0  0  0  0  0  0  0  0  0
   26.0205  -32.6879  -15.1717 C   0  0  1  0  0  0  0  0  0  0  0  0
   26.3121  -32.4233  -13.8364 O   0  0  0  0  0  0  0  0  0  0  0  0
   27.1772  -33.4858  -15.7359 C   0  0  2  0  0  0  0  0  0  0  0  0
   27.5099  -34.6138  -14.8887 N   0  0  0  0  0  0  0  0  0  0  0  0
   28.3504  -32.5869  -15.8577 C   0  0  0  0  0  0  0  0  0  0  0  0
   29.3888  -32.7247  -15.1513 O   0  0  0  0  0  0  0  0  0  0  0  0
   30.7603  -32.8442  -17.8063 C   0  0  0  0  0  0  0  0  0  0  0  0
   30.2914  -31.4882  -18.2906 C   0  0  1  0  0  0  0  0  0  0  0  0
   29.5166  -31.6945  -19.4116 O   0  0  0  0  0  0  0  0  0  0  0  0
   29.5246  -30.8011  -17.1795 C   0  0  2  0  0  0  0  0  0  0  0  0
   28.3486  -31.5155  -16.7933 N   0  0  0  0  0  0  0  0  0  0  0  0
   29.2484  -29.3821  -17.5030 C   0  0  0  0  0  0  0  0  0  0  0  0
   28.0808  -28.9769  -17.6094 O   0  0  0  0  0  0  0  0  0  0  0  0
   30.3137  -28.4712  -17.6945 N   0  0  0  0  0  0  0  0  0  0  0  0
   30.1044  -27.0473  -17.9604 C   0  0  1  0  0  0  0  0  0  0  0  0
   31.2622  -26.2299  -17.4876 C   0  0  0  0  0  0  0  0  0  0  0  0
   32.4920  -26.5295  -18.2077 C   0  0  0  0  0  0  0  0  0  0  0  0
   32.8769  -25.7835  -19.3268 C   0  0  0  0  0  0  0  0  0  0  0  0
   34.0460  -26.0523  -20.0014 C   0  0  0  0  0  0  0  0  0  0  0  0
   34.8828  -27.0646  -19.6031 C   0  0  0  0  0  0  0  0  0  0  0  0
   34.5287  -27.8262  -18.4925 C   0  0  0  0  0  0  0  0  0  0  0  0
   33.3533  -27.5408  -17.8305 C   0  0  0  0  0  0  0  0  0  0  0  0
   29.7963  -26.7988  -19.3700 C   0  0  0  0  0  0  0  0  0  0  0  0
   29.2543  -25.6597  -19.9129 O   0  0  0  0  0  0  0  0  0  0  0  0
   30.0557  -27.7423  -20.1968 O   0  0  0  0  0  0  0  0  0  0  0  0
  2  1  1  1
  2  3  1  0
  2  4  1  0
  4  6  1  0
  4  5  1  1
  6  7  2  0
  9 11  1  0
  9  8  1  1
 10  9  1  0
 11 12  1  6
 12  6  1  0
 13 14  2  0
 13 11  1  0
 15 13  1  0
 16 24  1  0
 16 15  1  0
 16 17  1  6
 18 17  1  0
 19 18  2  0
 20 19  1  0
 21 20  2  0
 21 22  1  0
 22 23  2  0
 23 18  1  0
 24 25  1  0
 26 24  2  0
M  END
$$$$
