TTF.pdb
     RDKit          3D

 26 26  0  0  1  0  0  0  0  0999 V2000
   19.7443  -18.2130  -13.8198 C   0  0  0  0  0  0  0  0  0  0  0  0
   20.4720  -19.2482  -13.0395 C   0  0  1  0  0  0  0  0  0  0  0  0
   19.5952  -19.8498  -12.1409 O   0  0  0  0  0  0  0  0  0  0  0  0
   21.0668  -20.3481  -13.8934 C   0  0  2  0  0  0  0  0  0  0  0  0
   20.0387  -21.2014  -14.4552 N   0  0  0  0  0  0  0  0  0  0  0  0
   21.9810  -21.1540  -13.0485 C   0  0  0  0  0  0  0  0  0  0  0  0
   21.6308  -22.2454  -12.5171 O   0  0  0  0  0  0  0  0  0  0  0  0
   24.5532  -23.1134  -13.8034 C   0  0  0  0  0  0  0  0  0  0  0  0
   25.2716  -22.1933  -12.8387 C   0  0  1  0  0  0  0  0  0  0  0  0
   26.0577  -21.3429  -13.5858 O   0  0  0  0  0  0  0  0  0  0  0  0
   24.2485  -21.4488  -12.0060 C   0  0  2  0  0  0  0  0  0  0  0  0
   23.3122  -20.7181  -12.8010 N   0  0  0  0  0  0  0  0  0  0  0  0
   24.8938  -20.6090  -10.9703 C   0  0  0  0  0  0  0  0  0  0  0  0
   24.8858  -19.3724  -11.0683 O   0  0  0  0  0  0  0  0  0  0  0  0
   25.5275  -21.2075   -9.8561 N   0  0  0  0  0  0  0  0  0  0  0  0
   26.3608  -20.4558   -8.9166 C   0  0  1  0  0  0  0  0  0  0  0  0
   26.8323  -21.3222   -7.7945 C   0  0  0  0  0  0  0  0  0  0  0  0
   27.6191  -20.5896   -6.8122 C   0  0  0  0  0  0  0  0  0  0  0  0
   27.0322  -20.0746   -5.6514 C   0  0  0  0  0  0  0  0  0  0  0  0
   27.7743  -19.3953   -4.7123 C   0  0  0  0  0  0  0  0  0  0  0  0
   29.1222  -19.1951   -4.8768 C   0  0  0  0  0  0  0  0  0  0  0  0
   29.7371  -19.6951   -6.0216 C   0  0  0  0  0  0  0  0  0  0  0  0
   28.9759  -20.3730   -6.9503 C   0  0  0  0  0  0  0  0  0  0  0  0
   27.4708  -19.7836   -9.5949 C   0  0  0  0  0  0  0  0  0  0  0  0
   27.8446  -18.4680   -9.4710 O   0  0  0  0  0  0  0  0  0  0  0  0
   28.1769  -20.4915  -10.3957 O   0  0  0  0  0  0  0  0  0  0  0  0
  2  1  1  6
  2  3  1  0
  2  4  1  0
  4  6  1  0
  4  5  1  1
  6  7  2  0
  9 11  1  0
  9  8  1  6
 10  9  1  0
 11 12  1  6
 12  6  1  0
 13 14  2  0
 13 11  1  0
 15 13  1  0
 16 24  1  0
 16 15  1  0
 16 17  1  1
 18 17  1  0
 19 18  2  0
 20 19  1  0
 21 20  2  0
 21 22  1  0
 22 23  2  0
 23 18  1  0
 24 25  1  0
 26 24  2  0
M  END
$$$$
