TTF.pdb
     RDKit          3D

 26 26  0  0  1  0  0  0  0  0999 V2000
   27.0696  -17.6201  -14.4436 C   0  0  0  0  0  0  0  0  0  0  0  0
   27.7389  -18.4934  -15.4433 C   0  0  1  0  0  0  0  0  0  0  0  0
   28.9583  -18.9292  -14.9322 O   0  0  0  0  0  0  0  0  0  0  0  0
   26.9377  -19.7251  -15.8091 C   0  0  2  0  0  0  0  0  0  0  0  0
   27.6401  -20.5515  -16.7705 N   0  0  0  0  0  0  0  0  0  0  0  0
   25.6399  -19.2874  -16.3775 C   0  0  0  0  0  0  0  0  0  0  0  0
   25.5177  -18.8991  -17.5735 O   0  0  0  0  0  0  0  0  0  0  0  0
   23.9052  -19.6049  -18.3366 C   0  0  0  0  0  0  0  0  0  0  0  0
   22.7861  -19.7082  -17.3216 C   0  0  1  0  0  0  0  0  0  0  0  0
   22.5838  -21.0469  -17.0638 O   0  0  0  0  0  0  0  0  0  0  0  0
   23.1700  -18.9340  -16.0775 C   0  0  2  0  0  0  0  0  0  0  0  0
   24.4620  -19.2890  -15.5801 N   0  0  0  0  0  0  0  0  0  0  0  0
   22.1177  -19.0143  -15.0379 C   0  0  0  0  0  0  0  0  0  0  0  0
   22.3221  -19.6331  -13.9823 O   0  0  0  0  0  0  0  0  0  0  0  0
   20.8661  -18.3856  -15.2365 N   0  0  0  0  0  0  0  0  0  0  0  0
   19.8532  -18.2807  -14.1852 C   0  0  1  0  0  0  0  0  0  0  0  0
   19.1598  -16.9581  -14.2282 C   0  0  0  0  0  0  0  0  0  0  0  0
   18.4036  -16.7604  -15.4569 C   0  0  0  0  0  0  0  0  0  0  0  0
   19.0105  -16.2437  -16.6066 C   0  0  0  0  0  0  0  0  0  0  0  0
   18.3042  -16.0699  -17.7749 C   0  0  0  0  0  0  0  0  0  0  0  0
   16.9738  -16.3967  -17.8596 C   0  0  0  0  0  0  0  0  0  0  0  0
   16.3397  -16.9135  -16.7329 C   0  0  0  0  0  0  0  0  0  0  0  0
   17.0652  -17.0801  -15.5720 C   0  0  0  0  0  0  0  0  0  0  0  0
   18.9077  -19.3978  -14.2303 C   0  0  0  0  0  0  0  0  0  0  0  0
   18.0282  -19.7809  -13.2477 O   0  0  0  0  0  0  0  0  0  0  0  0
   18.8920  -20.1033  -15.2995 O   0  0  0  0  0  0  0  0  0  0  0  0
  2  1  1  1
  2  3  1  0
  2  4  1  0
  4  6  1  0
  4  5  1  6
  6  7  2  0
  9 11  1  0
  9  8  1  6
 10  9  1  0
 11 12  1  1
 12  6  1  0
 13 14  2  0
 13 11  1  0
 15 13  1  0
 16 24  1  0
 16 15  1  0
 16 17  1  6
 18 17  1  0
 19 18  2  0
 20 19  1  0
 21 20  2  0
 21 22  1  0
 22 23  2  0
 23 18  1  0
 24 25  1  0
 26 24  2  0
M  END
$$$$
