LYW.pdb
     RDKit          3D

 35 37  0  0  1  0  0  0  0  0999 V2000
   30.4132  -16.2944  -17.9197 C   0  0  0  0  0  0  0  0  0  0  0  0
   29.6711  -17.5948  -17.7109 C   0  0  1  0  0  0  0  0  0  0  0  0
   30.6512  -18.7035  -17.3759 C   0  0  0  0  0  0  0  0  0  0  0  0
   28.5893  -17.5008  -16.6655 C   0  0  0  0  0  0  0  0  0  0  0  0
   27.9786  -18.8518  -16.4570 C   0  0  2  0  0  0  0  0  0  0  0  0
   27.4550  -19.4035  -17.6637 N   0  0  0  0  0  0  0  0  0  0  0  0
   26.9590  -18.8785  -15.3964 C   0  0  0  0  0  0  0  0  0  0  0  0
   26.1769  -17.9004  -15.2994 O   0  0  0  0  0  0  0  0  0  0  0  0
   19.6092  -21.4836  -11.6659 O   0  0  0  0  0  0  0  0  0  0  0  0
   20.8347  -21.3204  -12.3181 C   0  0  0  0  0  0  0  0  0  0  0  0
   21.1595  -20.1090  -12.8556 C   0  0  0  0  0  0  0  0  0  0  0  0
   22.3758  -19.9352  -13.5065 C   0  0  0  0  0  0  0  0  0  0  0  0
   23.2869  -20.9565  -13.6346 C   0  0  0  0  0  0  0  0  0  0  0  0
   24.5542  -20.7521  -14.3147 C   0  0  0  0  0  0  0  0  0  0  0  0
   25.6132  -19.9934  -13.5745 C   0  0  2  0  0  0  0  0  0  0  0  0
   26.7983  -19.9336  -14.4749 N   0  0  0  0  0  0  0  0  0  0  0  0
   26.0940  -20.5883  -12.3309 C   0  0  0  0  0  0  0  0  0  0  0  0
   26.5880  -21.7741  -12.3269 O   0  0  0  0  0  0  0  0  0  0  0  0
   22.9291  -22.1871  -13.0751 C   0  0  0  0  0  0  0  0  0  0  0  0
   21.7228  -22.3664  -12.4274 C   0  0  0  0  0  0  0  0  0  0  0  0
   26.0883  -19.9779  -11.0397 N   0  0  0  0  0  0  0  0  0  0  0  0
   26.1142  -20.7645   -9.8235 C   0  0  1  0  0  0  0  0  0  0  0  0
   27.4028  -20.4285   -9.0935 C   0  0  0  0  0  0  0  0  0  0  0  0
   27.2414  -20.5107   -7.6249 C   0  0  0  0  0  0  0  0  0  0  0  0
   26.3496  -21.2646   -6.9102 C   0  0  0  0  0  0  0  0  0  0  0  0
   26.5319  -21.0487   -5.6063 N   0  0  0  0  0  0  0  0  0  0  0  0
   27.5299  -20.1643   -5.4510 C   0  0  0  0  0  0  0  0  0  0  0  0
   28.1007  -19.6130   -4.2924 C   0  0  0  0  0  0  0  0  0  0  0  0
   29.1335  -18.7083   -4.3722 C   0  0  0  0  0  0  0  0  0  0  0  0
   29.5827  -18.3665   -5.6237 C   0  0  0  0  0  0  0  0  0  0  0  0
   29.0274  -18.9034   -6.7622 C   0  0  0  0  0  0  0  0  0  0  0  0
   27.9761  -19.8246   -6.6886 C   0  0  0  0  0  0  0  0  0  0  0  0
   24.9329  -20.6543   -8.9826 C   0  0  0  0  0  0  0  0  0  0  0  0
   24.7096  -21.3558   -7.9630 O   0  0  0  0  0  0  0  0  0  0  0  0
   23.9498  -19.7238   -9.2808 O   0  0  0  0  0  0  0  0  0  0  0  0
  2  3  1  1
  2  1  1  0
  4  2  1  0
  5  4  1  0
  5  6  1  6
  7  8  2  0
  7  5  1  0
  9 10  1  0
 10 11  2  0
 11 12  1  0
 13 12  2  0
 13 14  1  0
 15 14  1  6
 15 16  1  0
 16  7  1  0
 17 15  1  0
 17 18  2  0
 19 13  1  0
 20 10  1  0
 20 19  2  0
 21 17  1  0
 22 21  1  0
 22 23  1  1
 24 23  1  0
 24 25  2  0
 26 25  1  0
 27 26  1  0
 28 27  2  0
 29 28  1  0
 30 29  2  0
 30 31  1  0
 31 32  2  0
 32 27  1  0
 32 24  1  0
 33 22  1  0
 34 33  2  0
 35 33  1  0
M  END
$$$$
