LYW.pdb
     RDKit          3D

 35 37  0  0  1  0  0  0  0  0999 V2000
   28.6493  -16.1090  -16.3751 C   0  0  0  0  0  0  0  0  0  0  0  0
   27.8620  -17.3993  -16.4006 C   0  0  1  0  0  0  0  0  0  0  0  0
   28.7684  -18.5671  -16.0589 C   0  0  0  0  0  0  0  0  0  0  0  0
   26.6536  -17.3764  -15.5000 C   0  0  0  0  0  0  0  0  0  0  0  0
   26.1283  -18.7686  -15.3348 C   0  0  2  0  0  0  0  0  0  0  0  0
   25.3931  -19.2108  -16.4744 N   0  0  0  0  0  0  0  0  0  0  0  0
   25.3358  -18.9562  -14.1092 C   0  0  0  0  0  0  0  0  0  0  0  0
   24.7691  -17.9531  -13.6089 O   0  0  0  0  0  0  0  0  0  0  0  0
   18.9106  -19.0610  -15.6135 O   0  0  0  0  0  0  0  0  0  0  0  0
   19.9741  -19.6041  -14.8871 C   0  0  0  0  0  0  0  0  0  0  0  0
   20.0330  -19.4235  -13.5359 C   0  0  0  0  0  0  0  0  0  0  0  0
   21.0863  -19.9594  -12.8032 C   0  0  0  0  0  0  0  0  0  0  0  0
   22.0949  -20.6807  -13.3965 C   0  0  0  0  0  0  0  0  0  0  0  0
   23.1838  -21.2358  -12.6114 C   0  0  0  0  0  0  0  0  0  0  0  0
   24.3040  -20.3106  -12.2452 C   0  0  2  0  0  0  0  0  0  0  0  0
   25.1677  -20.1930  -13.4531 N   0  0  0  0  0  0  0  0  0  0  0  0
   25.1890  -20.7501  -11.1705 C   0  0  0  0  0  0  0  0  0  0  0  0
   25.8026  -21.8756  -11.2540 O   0  0  0  0  0  0  0  0  0  0  0  0
   22.0102  -20.8507  -14.7818 C   0  0  0  0  0  0  0  0  0  0  0  0
   20.9670  -20.3211  -15.5155 C   0  0  0  0  0  0  0  0  0  0  0  0
   25.4801  -20.0399   -9.9660 N   0  0  0  0  0  0  0  0  0  0  0  0
   26.1304  -20.6798   -8.8408 C   0  0  1  0  0  0  0  0  0  0  0  0
   27.0045  -19.6358   -8.1684 C   0  0  0  0  0  0  0  0  0  0  0  0
   27.6638  -20.1678   -6.9552 C   0  0  0  0  0  0  0  0  0  0  0  0
   27.8578  -21.4754   -6.5992 C   0  0  0  0  0  0  0  0  0  0  0  0
   28.4923  -21.5260   -5.4267 N   0  0  0  0  0  0  0  0  0  0  0  0
   28.7192  -20.2719   -5.0047 C   0  0  0  0  0  0  0  0  0  0  0  0
   29.3465  -19.7892   -3.8447 C   0  0  0  0  0  0  0  0  0  0  0  0
   29.4697  -18.4389   -3.6148 C   0  0  0  0  0  0  0  0  0  0  0  0
   28.9575  -17.5847   -4.5598 C   0  0  0  0  0  0  0  0  0  0  0  0
   28.3421  -18.0518   -5.6981 C   0  0  0  0  0  0  0  0  0  0  0  0
   28.2131  -19.4248   -5.9386 C   0  0  0  0  0  0  0  0  0  0  0  0
   25.2445  -21.3684   -7.9156 C   0  0  0  0  0  0  0  0  0  0  0  0
   24.0439  -21.0579   -7.7060 O   0  0  0  0  0  0  0  0  0  0  0  0
   25.7054  -22.4532   -7.1864 O   0  0  0  0  0  0  0  0  0  0  0  0
  2  3  1  1
  2  1  1  0
  4  2  1  0
  5  4  1  0
  5  6  1  6
  7  8  2  0
  7  5  1  0
  9 10  1  0
 10 11  2  0
 11 12  1  0
 13 12  2  0
 13 14  1  0
 15 14  1  6
 15 16  1  0
 16  7  1  0
 17 15  1  0
 17 18  2  0
 19 13  1  0
 20 10  1  0
 20 19  2  0
 21 17  1  0
 22 21  1  0
 22 23  1  1
 24 23  1  0
 24 25  2  0
 26 25  1  0
 27 26  1  0
 28 27  2  0
 29 28  1  0
 30 29  2  0
 30 31  1  0
 31 32  2  0
 32 27  1  0
 32 24  1  0
 33 22  1  0
 34 33  2  0
 35 33  1  0
M  END
$$$$
