LYW.pdb
     RDKit          3D

 35 37  0  0  1  0  0  0  0  0999 V2000
   30.4537  -22.0181  -16.2429 C   0  0  0  0  0  0  0  0  0  0  0  0
   29.3770  -21.0404  -15.8300 C   0  0  1  0  0  0  0  0  0  0  0  0
   28.5151  -20.6820  -17.0261 C   0  0  0  0  0  0  0  0  0  0  0  0
   28.5291  -21.5374  -14.6872 C   0  0  0  0  0  0  0  0  0  0  0  0
   27.4769  -20.5213  -14.3683 C   0  0  2  0  0  0  0  0  0  0  0  0
   28.0323  -19.2536  -14.0233 N   0  0  0  0  0  0  0  0  0  0  0  0
   26.5271  -20.9632  -13.3348 C   0  0  0  0  0  0  0  0  0  0  0  0
   26.1949  -22.1744  -13.3121 O   0  0  0  0  0  0  0  0  0  0  0  0
   29.7384  -20.8545   -7.0942 O   0  0  0  0  0  0  0  0  0  0  0  0
   28.5858  -20.5864   -7.8379 C   0  0  0  0  0  0  0  0  0  0  0  0
   28.3406  -21.2874   -8.9827 C   0  0  0  0  0  0  0  0  0  0  0  0
   27.1971  -21.0292   -9.7304 C   0  0  0  0  0  0  0  0  0  0  0  0
   26.2811  -20.0750   -9.3564 C   0  0  0  0  0  0  0  0  0  0  0  0
   25.0904  -19.8244  -10.1500 C   0  0  0  0  0  0  0  0  0  0  0  0
   24.9294  -20.6175  -11.4110 C   0  0  2  0  0  0  0  0  0  0  0  0
   25.9602  -20.1149  -12.3615 N   0  0  0  0  0  0  0  0  0  0  0  0
   23.6536  -20.4836  -12.1080 C   0  0  0  0  0  0  0  0  0  0  0  0
   23.4839  -19.5548  -12.9791 O   0  0  0  0  0  0  0  0  0  0  0  0
   26.5566  -19.3714   -8.1798 C   0  0  0  0  0  0  0  0  0  0  0  0
   27.6903  -19.6228   -7.4325 C   0  0  0  0  0  0  0  0  0  0  0  0
   22.5012  -21.3097  -11.9360 N   0  0  0  0  0  0  0  0  0  0  0  0
   21.3025  -21.1219  -12.7276 C   0  0  1  0  0  0  0  0  0  0  0  0
   21.6608  -21.4250  -14.1719 C   0  0  0  0  0  0  0  0  0  0  0  0
   21.9812  -22.8557  -14.3713 C   0  0  0  0  0  0  0  0  0  0  0  0
   21.1658  -23.9408  -14.1919 C   0  0  0  0  0  0  0  0  0  0  0  0
   21.8417  -25.0550  -14.4780 N   0  0  0  0  0  0  0  0  0  0  0  0
   23.0896  -24.7207  -14.8431 C   0  0  0  0  0  0  0  0  0  0  0  0
   24.1789  -25.5152  -15.2361 C   0  0  0  0  0  0  0  0  0  0  0  0
   25.3855  -24.9476  -15.5728 C   0  0  0  0  0  0  0  0  0  0  0  0
   25.4832  -23.5796  -15.5097 C   0  0  0  0  0  0  0  0  0  0  0  0
   24.4195  -22.7963  -15.1255 C   0  0  0  0  0  0  0  0  0  0  0  0
   23.1885  -23.3670  -14.7815 C   0  0  0  0  0  0  0  0  0  0  0  0
   20.1281  -21.8436  -12.2642 C   0  0  0  0  0  0  0  0  0  0  0  0
   20.1329  -22.7167  -11.3590 O   0  0  0  0  0  0  0  0  0  0  0  0
   18.8871  -21.5891  -12.8266 O   0  0  0  0  0  0  0  0  0  0  0  0
  2  3  1  6
  2  1  1  0
  4  2  1  0
  5  4  1  0
  5  6  1  1
  7  8  2  0
  7  5  1  0
  9 10  1  0
 10 11  2  0
 11 12  1  0
 13 12  2  0
 13 14  1  0
 15 14  1  1
 15 16  1  0
 16  7  1  0
 17 15  1  0
 17 18  2  0
 19 13  1  0
 20 10  1  0
 20 19  2  0
 21 17  1  0
 22 21  1  0
 22 23  1  6
 24 23  1  0
 24 25  2  0
 26 25  1  0
 27 26  1  0
 28 27  2  0
 29 28  1  0
 30 29  2  0
 30 31  1  0
 31 32  2  0
 32 27  1  0
 32 24  1  0
 33 22  1  0
 34 33  2  0
 35 33  1  0
M  END
$$$$
