LYW.pdb
     RDKit          3D

 35 37  0  0  1  0  0  0  0  0999 V2000
   28.7653  -17.4407  -16.8210 C   0  0  0  0  0  0  0  0  0  0  0  0
   28.3340  -18.6258  -17.6546 C   0  0  1  0  0  0  0  0  0  0  0  0
   29.5271  -19.5161  -17.9474 C   0  0  0  0  0  0  0  0  0  0  0  0
   27.2145  -19.4173  -17.0285 C   0  0  0  0  0  0  0  0  0  0  0  0
   27.7880  -20.4542  -16.1135 C   0  0  2  0  0  0  0  0  0  0  0  0
   28.3358  -21.5631  -16.8243 N   0  0  0  0  0  0  0  0  0  0  0  0
   26.8421  -20.9201  -15.0870 C   0  0  0  0  0  0  0  0  0  0  0  0
   26.1164  -21.9102  -15.3534 O   0  0  0  0  0  0  0  0  0  0  0  0
   22.5653  -21.3439   -7.1876 O   0  0  0  0  0  0  0  0  0  0  0  0
   23.4201  -21.0743   -8.2602 C   0  0  0  0  0  0  0  0  0  0  0  0
   24.6172  -21.7228   -8.3512 C   0  0  0  0  0  0  0  0  0  0  0  0
   25.4753  -21.4626   -9.4139 C   0  0  0  0  0  0  0  0  0  0  0  0
   25.1614  -20.5582  -10.4003 C   0  0  0  0  0  0  0  0  0  0  0  0
   26.0707  -20.3047  -11.5045 C   0  0  0  0  0  0  0  0  0  0  0  0
   25.6718  -20.8240  -12.8521 C   0  0  2  0  0  0  0  0  0  0  0  0
   26.6931  -20.3276  -13.8161 N   0  0  0  0  0  0  0  0  0  0  0  0
   24.3860  -20.3690  -13.3728 C   0  0  0  0  0  0  0  0  0  0  0  0
   24.2741  -19.2015  -13.8969 O   0  0  0  0  0  0  0  0  0  0  0  0
   23.9291  -19.9077  -10.2827 C   0  0  0  0  0  0  0  0  0  0  0  0
   23.0722  -20.1615   -9.2299 C   0  0  0  0  0  0  0  0  0  0  0  0
   23.1627  -21.1063  -13.3774 N   0  0  0  0  0  0  0  0  0  0  0  0
   21.9411  -20.5545  -13.9269 C   0  0  1  0  0  0  0  0  0  0  0  0
   22.2190  -20.1907  -15.3748 C   0  0  0  0  0  0  0  0  0  0  0  0
   21.0388  -19.5797  -16.0255 C   0  0  0  0  0  0  0  0  0  0  0  0
   20.4313  -18.3880  -15.7339 C   0  0  0  0  0  0  0  0  0  0  0  0
   19.3953  -18.2062  -16.5548 N   0  0  0  0  0  0  0  0  0  0  0  0
   19.3110  -19.2598  -17.3826 C   0  0  0  0  0  0  0  0  0  0  0  0
   18.4069  -19.5485  -18.4177 C   0  0  0  0  0  0  0  0  0  0  0  0
   18.5123  -20.7090  -19.1480 C   0  0  0  0  0  0  0  0  0  0  0  0
   19.5316  -21.5709  -18.8268 C   0  0  0  0  0  0  0  0  0  0  0  0
   20.4202  -21.2934  -17.8139 C   0  0  0  0  0  0  0  0  0  0  0  0
   20.3190  -20.1142  -17.0664 C   0  0  0  0  0  0  0  0  0  0  0  0
   20.7533  -21.3767  -13.7596 C   0  0  0  0  0  0  0  0  0  0  0  0
   19.5805  -20.9328  -13.6650 O   0  0  0  0  0  0  0  0  0  0  0  0
   20.8649  -22.7568  -13.6943 O   0  0  0  0  0  0  0  0  0  0  0  0
  2  3  1  1
  2  1  1  0
  4  2  1  0
  5  4  1  0
  5  6  1  6
  7  8  2  0
  7  5  1  0
  9 10  1  0
 10 11  2  0
 11 12  1  0
 13 12  2  0
 13 14  1  0
 15 14  1  1
 15 16  1  0
 16  7  1  0
 17 15  1  0
 17 18  2  0
 19 13  1  0
 20 10  1  0
 20 19  2  0
 21 17  1  0
 22 21  1  0
 22 23  1  6
 24 23  1  0
 24 25  2  0
 26 25  1  0
 27 26  1  0
 28 27  2  0
 29 28  1  0
 30 29  2  0
 30 31  1  0
 31 32  2  0
 32 27  1  0
 32 24  1  0
 33 22  1  0
 34 33  2  0
 35 33  1  0
M  END
$$$$
