LYW.pdb
     RDKit          3D

 35 37  0  0  1  0  0  0  0  0999 V2000
   25.5043  -13.0446  -17.3775 C   0  0  0  0  0  0  0  0  0  0  0  0
   25.2017  -14.1441  -16.3850 C   0  0  1  0  0  0  0  0  0  0  0  0
   23.7010  -14.3194  -16.2463 C   0  0  0  0  0  0  0  0  0  0  0  0
   25.8656  -15.4533  -16.7272 C   0  0  0  0  0  0  0  0  0  0  0  0
   25.4405  -16.4998  -15.7446 C   0  0  2  0  0  0  0  0  0  0  0  0
   25.7657  -16.1479  -14.4011 N   0  0  0  0  0  0  0  0  0  0  0  0
   25.9500  -17.8438  -16.0601 C   0  0  0  0  0  0  0  0  0  0  0  0
   25.6702  -18.3372  -17.1809 O   0  0  0  0  0  0  0  0  0  0  0  0
   31.2894  -17.0803  -19.8668 O   0  0  0  0  0  0  0  0  0  0  0  0
   30.6717  -17.7619  -18.8143 C   0  0  0  0  0  0  0  0  0  0  0  0
   30.5559  -17.1615  -17.5945 C   0  0  0  0  0  0  0  0  0  0  0  0
   29.9433  -17.8301  -16.5405 C   0  0  0  0  0  0  0  0  0  0  0  0
   29.4372  -19.1006  -16.6784 C   0  0  0  0  0  0  0  0  0  0  0  0
   28.7967  -19.7794  -15.5651 C   0  0  0  0  0  0  0  0  0  0  0  0
   27.3066  -19.9269  -15.6197 C   0  0  2  0  0  0  0  0  0  0  0  0
   26.7360  -18.6214  -15.1850 N   0  0  0  0  0  0  0  0  0  0  0  0
   26.7167  -20.9276  -14.7354 C   0  0  0  0  0  0  0  0  0  0  0  0
   26.8978  -22.1795  -14.9593 O   0  0  0  0  0  0  0  0  0  0  0  0
   29.5691  -19.6926  -17.9384 C   0  0  0  0  0  0  0  0  0  0  0  0
   30.1764  -19.0342  -18.9894 C   0  0  0  0  0  0  0  0  0  0  0  0
   25.9186  -20.6737  -13.5784 N   0  0  0  0  0  0  0  0  0  0  0  0
   25.1984  -21.7323  -12.9008 C   0  0  1  0  0  0  0  0  0  0  0  0
   26.1122  -22.2826  -11.8199 C   0  0  0  0  0  0  0  0  0  0  0  0
   26.2388  -21.3500  -10.6781 C   0  0  0  0  0  0  0  0  0  0  0  0
   25.2489  -20.6558  -10.0359 C   0  0  0  0  0  0  0  0  0  0  0  0
   25.7845  -19.9226   -9.0583 N   0  0  0  0  0  0  0  0  0  0  0  0
   27.1119  -20.1230   -9.0468 C   0  0  0  0  0  0  0  0  0  0  0  0
   28.1169  -19.5920   -8.2220 C   0  0  0  0  0  0  0  0  0  0  0  0
   29.4350  -19.9447   -8.3938 C   0  0  0  0  0  0  0  0  0  0  0  0
   29.7288  -20.8325   -9.3991 C   0  0  0  0  0  0  0  0  0  0  0  0
   28.7485  -21.3559  -10.2101 C   0  0  0  0  0  0  0  0  0  0  0  0
   27.4049  -21.0014  -10.0410 C   0  0  0  0  0  0  0  0  0  0  0  0
   23.8780  -21.3738  -12.4080 C   0  0  0  0  0  0  0  0  0  0  0  0
   23.4373  -20.1988  -12.3253 O   0  0  0  0  0  0  0  0  0  0  0  0
   23.0002  -22.3601  -11.9862 O   0  0  0  0  0  0  0  0  0  0  0  0
  2  3  1  6
  2  1  1  0
  4  2  1  0
  5  4  1  0
  5  6  1  1
  7  8  2  0
  7  5  1  0
  9 10  1  0
 10 11  2  0
 11 12  1  0
 13 12  2  0
 13 14  1  0
 15 14  1  1
 15 16  1  0
 16  7  1  0
 17 15  1  0
 17 18  2  0
 19 13  1  0
 20 10  1  0
 20 19  2  0
 21 17  1  0
 22 21  1  0
 22 23  1  1
 24 23  1  0
 24 25  2  0
 26 25  1  0
 27 26  1  0
 28 27  2  0
 29 28  1  0
 30 29  2  0
 30 31  1  0
 31 32  2  0
 32 27  1  0
 32 24  1  0
 33 22  1  0
 34 33  2  0
 35 33  1  0
M  END
$$$$
