LYW.pdb
     RDKit          3D

 35 37  0  0  1  0  0  0  0  0999 V2000
   29.3948  -15.7428  -16.5702 C   0  0  0  0  0  0  0  0  0  0  0  0
   28.5437  -16.9890  -16.6588 C   0  0  1  0  0  0  0  0  0  0  0  0
   29.4279  -18.2104  -16.8271 C   0  0  0  0  0  0  0  0  0  0  0  0
   27.6127  -17.1580  -15.4855 C   0  0  0  0  0  0  0  0  0  0  0  0
   26.9830  -18.5151  -15.5399 C   0  0  2  0  0  0  0  0  0  0  0  0
   26.2518  -18.7269  -16.7462 N   0  0  0  0  0  0  0  0  0  0  0  0
   26.1430  -18.8206  -14.3709 C   0  0  0  0  0  0  0  0  0  0  0  0
   25.3476  -17.9377  -13.9640 O   0  0  0  0  0  0  0  0  0  0  0  0
   20.3950  -20.1771  -16.9932 O   0  0  0  0  0  0  0  0  0  0  0  0
   21.3542  -20.4909  -16.0262 C   0  0  0  0  0  0  0  0  0  0  0  0
   22.5287  -21.0747  -16.4023 C   0  0  0  0  0  0  0  0  0  0  0  0
   23.4901  -21.3912  -15.4489 C   0  0  0  0  0  0  0  0  0  0  0  0
   23.3030  -21.1348  -14.1115 C   0  0  0  0  0  0  0  0  0  0  0  0
   24.3226  -21.4694  -13.1323 C   0  0  0  0  0  0  0  0  0  0  0  0
   25.1664  -20.3458  -12.6121 C   0  0  2  0  0  0  0  0  0  0  0  0
   26.1696  -20.0445  -13.6712 N   0  0  0  0  0  0  0  0  0  0  0  0
   25.9398  -20.6155  -11.4036 C   0  0  0  0  0  0  0  0  0  0  0  0
   26.9924  -21.3501  -11.4567 O   0  0  0  0  0  0  0  0  0  0  0  0
   22.0910  -20.5364  -13.7533 C   0  0  0  0  0  0  0  0  0  0  0  0
   21.1320  -20.2195  -14.6951 C   0  0  0  0  0  0  0  0  0  0  0  0
   25.6586  -20.1313  -10.0896 N   0  0  0  0  0  0  0  0  0  0  0  0
   26.1464  -20.8091   -8.9058 C   0  0  1  0  0  0  0  0  0  0  0  0
   27.2386  -19.9420   -8.3046 C   0  0  0  0  0  0  0  0  0  0  0  0
   27.3222  -20.1010   -6.8359 C   0  0  0  0  0  0  0  0  0  0  0  0
   26.4700  -20.7787   -6.0059 C   0  0  0  0  0  0  0  0  0  0  0  0
   26.9021  -20.6765   -4.7478 N   0  0  0  0  0  0  0  0  0  0  0  0
   28.0257  -19.9418   -4.7361 C   0  0  0  0  0  0  0  0  0  0  0  0
   28.8586  -19.5486   -3.6760 C   0  0  0  0  0  0  0  0  0  0  0  0
   29.9786  -18.7826   -3.9008 C   0  0  0  0  0  0  0  0  0  0  0  0
   30.2493  -18.4189   -5.1967 C   0  0  0  0  0  0  0  0  0  0  0  0
   29.4370  -18.8012   -6.2391 C   0  0  0  0  0  0  0  0  0  0  0  0
   28.2956  -19.5807   -6.0178 C   0  0  0  0  0  0  0  0  0  0  0  0
   25.1275  -21.1977   -7.9437 C   0  0  0  0  0  0  0  0  0  0  0  0
   23.9484  -20.7603   -7.9307 O   0  0  0  0  0  0  0  0  0  0  0  0
   25.4238  -22.1143   -6.9471 O   0  0  0  0  0  0  0  0  0  0  0  0
  2  3  1  1
  2  1  1  0
  4  2  1  0
  5  4  1  0
  5  6  1  6
  7  8  2  0
  7  5  1  0
  9 10  1  0
 10 11  2  0
 11 12  1  0
 13 12  2  0
 13 14  1  0
 15 14  1  6
 15 16  1  0
 16  7  1  0
 17 15  1  0
 17 18  2  0
 19 13  1  0
 20 10  1  0
 20 19  2  0
 21 17  1  0
 22 21  1  0
 22 23  1  1
 24 23  1  0
 24 25  2  0
 26 25  1  0
 27 26  1  0
 28 27  2  0
 29 28  1  0
 30 29  2  0
 30 31  1  0
 31 32  2  0
 32 27  1  0
 32 24  1  0
 33 22  1  0
 34 33  2  0
 35 33  1  0
M  END
$$$$
