LYW.pdb
     RDKit          3D

 35 37  0  0  1  0  0  0  0  0999 V2000
   29.0926  -15.8625  -18.7250 C   0  0  0  0  0  0  0  0  0  0  0  0
   29.1474  -17.1992  -18.0210 C   0  0  1  0  0  0  0  0  0  0  0  0
   30.5814  -17.5357  -17.6573 C   0  0  0  0  0  0  0  0  0  0  0  0
   28.2555  -17.2693  -16.8079 C   0  0  0  0  0  0  0  0  0  0  0  0
   28.5650  -18.5120  -16.0325 C   0  0  2  0  0  0  0  0  0  0  0  0
   28.4899  -19.6874  -16.8371 N   0  0  0  0  0  0  0  0  0  0  0  0
   27.7459  -18.6676  -14.8200 C   0  0  0  0  0  0  0  0  0  0  0  0
   27.6322  -17.6821  -14.0494 O   0  0  0  0  0  0  0  0  0  0  0  0
   20.3310  -21.2840  -10.6522 O   0  0  0  0  0  0  0  0  0  0  0  0
   21.4304  -21.0569  -11.4850 C   0  0  0  0  0  0  0  0  0  0  0  0
   22.2418  -22.0971  -11.8337 C   0  0  0  0  0  0  0  0  0  0  0  0
   23.3381  -21.8828  -12.6616 C   0  0  0  0  0  0  0  0  0  0  0  0
   23.6468  -20.6377  -13.1555 C   0  0  0  0  0  0  0  0  0  0  0  0
   24.7946  -20.4367  -14.0229 C   0  0  0  0  0  0  0  0  0  0  0  0
   26.0279  -19.8552  -13.4017 C   0  0  2  0  0  0  0  0  0  0  0  0
   27.0752  -19.8548  -14.4609 N   0  0  0  0  0  0  0  0  0  0  0  0
   26.6035  -20.5916  -12.2802 C   0  0  0  0  0  0  0  0  0  0  0  0
   27.2271  -21.6967  -12.4806 O   0  0  0  0  0  0  0  0  0  0  0  0
   22.7994  -19.5897  -12.7826 C   0  0  0  0  0  0  0  0  0  0  0  0
   21.7089  -19.7956  -11.9608 C   0  0  0  0  0  0  0  0  0  0  0  0
   26.5621  -20.2117  -10.9040 N   0  0  0  0  0  0  0  0  0  0  0  0
   26.5290  -21.1957   -9.8413 C   0  0  1  0  0  0  0  0  0  0  0  0
   27.8508  -21.1059   -9.0989 C   0  0  0  0  0  0  0  0  0  0  0  0
   27.8024  -20.1088   -8.0067 C   0  0  0  0  0  0  0  0  0  0  0  0
   27.1355  -18.9135   -7.9779 C   0  0  0  0  0  0  0  0  0  0  0  0
   27.3532  -18.3127   -6.8067 N   0  0  0  0  0  0  0  0  0  0  0  0
   28.1534  -19.0936   -6.0636 C   0  0  0  0  0  0  0  0  0  0  0  0
   28.6709  -18.9167   -4.7702 C   0  0  0  0  0  0  0  0  0  0  0  0
   29.4851  -19.8650   -4.1964 C   0  0  0  0  0  0  0  0  0  0  0  0
   29.7711  -20.9868   -4.9346 C   0  0  0  0  0  0  0  0  0  0  0  0
   29.2669  -21.1655   -6.2021 C   0  0  0  0  0  0  0  0  0  0  0  0
   28.4376  -20.2045   -6.7924 C   0  0  0  0  0  0  0  0  0  0  0  0
   25.3719  -21.1283   -8.9629 C   0  0  0  0  0  0  0  0  0  0  0  0
   24.5056  -20.2169   -8.9857 O   0  0  0  0  0  0  0  0  0  0  0  0
   25.1597  -22.1153   -8.0132 O   0  0  0  0  0  0  0  0  0  0  0  0
  2  3  1  1
  2  1  1  0
  4  2  1  0
  5  4  1  0
  5  6  1  6
  7  8  2  0
  7  5  1  0
  9 10  1  0
 10 11  2  0
 11 12  1  0
 13 12  2  0
 13 14  1  0
 15 14  1  6
 15 16  1  0
 16  7  1  0
 17 15  1  0
 17 18  2  0
 19 13  1  0
 20 10  1  0
 20 19  2  0
 21 17  1  0
 22 21  1  0
 22 23  1  1
 24 23  1  0
 24 25  2  0
 26 25  1  0
 27 26  1  0
 28 27  2  0
 29 28  1  0
 30 29  2  0
 30 31  1  0
 31 32  2  0
 32 27  1  0
 32 24  1  0
 33 22  1  0
 34 33  2  0
 35 33  1  0
M  END
$$$$
