LYW.pdb
     RDKit          3D

 35 37  0  0  1  0  0  0  0  0999 V2000
   23.6782  -17.4952  -19.4695 C   0  0  0  0  0  0  0  0  0  0  0  0
   24.1176  -18.6513  -18.6000 C   0  0  1  0  0  0  0  0  0  0  0  0
   25.5187  -19.0874  -18.9856 C   0  0  0  0  0  0  0  0  0  0  0  0
   24.0357  -18.3508  -17.1253 C   0  0  0  0  0  0  0  0  0  0  0  0
   24.4907  -19.5460  -16.3468 C   0  0  2  0  0  0  0  0  0  0  0  0
   23.9700  -20.7662  -16.8708 N   0  0  0  0  0  0  0  0  0  0  0  0
   24.2145  -19.4481  -14.9048 C   0  0  0  0  0  0  0  0  0  0  0  0
   24.0683  -18.3054  -14.4041 O   0  0  0  0  0  0  0  0  0  0  0  0
   18.2427  -17.7146  -15.0089 O   0  0  0  0  0  0  0  0  0  0  0  0
   19.2339  -18.5074  -14.4234 C   0  0  0  0  0  0  0  0  0  0  0  0
   19.5311  -18.3525  -13.1007 C   0  0  0  0  0  0  0  0  0  0  0  0
   20.5151  -19.1357  -12.5078 C   0  0  0  0  0  0  0  0  0  0  0  0
   21.2182  -20.0822  -13.2145 C   0  0  0  0  0  0  0  0  0  0  0  0
   22.2393  -20.8932  -12.5743 C   0  0  0  0  0  0  0  0  0  0  0  0
   23.6489  -20.3885  -12.6311 C   0  0  2  0  0  0  0  0  0  0  0  0
   24.1020  -20.5563  -14.0402 N   0  0  0  0  0  0  0  0  0  0  0  0
   24.6300  -21.0984  -11.8157 C   0  0  0  0  0  0  0  0  0  0  0  0
   25.7848  -21.3905  -12.2968 O   0  0  0  0  0  0  0  0  0  0  0  0
   20.8940  -20.2203  -14.5677 C   0  0  0  0  0  0  0  0  0  0  0  0
   19.9178  -19.4457  -15.1628 C   0  0  0  0  0  0  0  0  0  0  0  0
   24.4583  -21.5311  -10.4655 N   0  0  0  0  0  0  0  0  0  0  0  0
   25.5183  -21.4120   -9.4852 C   0  0  1  0  0  0  0  0  0  0  0  0
   26.4995  -20.3746  -10.0021 C   0  0  0  0  0  0  0  0  0  0  0  0
   27.7860  -20.4215   -9.2727 C   0  0  0  0  0  0  0  0  0  0  0  0
   28.9657  -20.9921   -9.6690 C   0  0  0  0  0  0  0  0  0  0  0  0
   29.8848  -20.8154   -8.7182 N   0  0  0  0  0  0  0  0  0  0  0  0
   29.3288  -20.1374   -7.7016 C   0  0  0  0  0  0  0  0  0  0  0  0
   29.8668  -19.7053   -6.4785 C   0  0  0  0  0  0  0  0  0  0  0  0
   29.0991  -19.0135   -5.5711 C   0  0  0  0  0  0  0  0  0  0  0  0
   27.7915  -18.7630   -5.9062 C   0  0  0  0  0  0  0  0  0  0  0  0
   27.2590  -19.1838   -7.1029 C   0  0  0  0  0  0  0  0  0  0  0  0
   28.0344  -19.8884   -8.0312 C   0  0  0  0  0  0  0  0  0  0  0  0
   25.0824  -21.1598   -8.1209 C   0  0  0  0  0  0  0  0  0  0  0  0
   24.3083  -20.2311   -7.7748 O   0  0  0  0  0  0  0  0  0  0  0  0
   25.5217  -21.9726   -7.0876 O   0  0  0  0  0  0  0  0  0  0  0  0
  2  3  1  6
  2  1  1  0
  4  2  1  0
  5  4  1  0
  5  6  1  6
  7  8  2  0
  7  5  1  0
  9 10  1  0
 10 11  2  0
 11 12  1  0
 13 12  2  0
 13 14  1  0
 15 14  1  6
 15 16  1  0
 16  7  1  0
 17 15  1  0
 17 18  2  0
 19 13  1  0
 20 10  1  0
 20 19  2  0
 21 17  1  0
 22 21  1  0
 22 23  1  6
 24 23  1  0
 24 25  2  0
 26 25  1  0
 27 26  1  0
 28 27  2  0
 29 28  1  0
 30 29  2  0
 30 31  1  0
 31 32  2  0
 32 27  1  0
 32 24  1  0
 33 22  1  0
 34 33  2  0
 35 33  1  0
M  END
$$$$
