LYW.pdb
     RDKit          3D

 35 37  0  0  1  0  0  0  0  0999 V2000
   30.1643  -15.1247  -19.9903 C   0  0  0  0  0  0  0  0  0  0  0  0
   29.6778  -16.4614  -19.4786 C   0  0  1  0  0  0  0  0  0  0  0  0
   30.6481  -17.5559  -19.8819 C   0  0  0  0  0  0  0  0  0  0  0  0
   29.4393  -16.4773  -17.9904 C   0  0  0  0  0  0  0  0  0  0  0  0
   28.9912  -17.8431  -17.5717 C   0  0  2  0  0  0  0  0  0  0  0  0
   28.1051  -18.4381  -18.5181 N   0  0  0  0  0  0  0  0  0  0  0  0
   28.4021  -17.8808  -16.2238 C   0  0  0  0  0  0  0  0  0  0  0  0
   29.0468  -17.3618  -15.2789 O   0  0  0  0  0  0  0  0  0  0  0  0
   21.1394  -19.7645  -17.8128 O   0  0  0  0  0  0  0  0  0  0  0  0
   22.1749  -19.1938  -17.0673 C   0  0  0  0  0  0  0  0  0  0  0  0
   22.3114  -19.5087  -15.7467 C   0  0  0  0  0  0  0  0  0  0  0  0
   23.3378  -18.9472  -14.9955 C   0  0  0  0  0  0  0  0  0  0  0  0
   24.2427  -18.0670  -15.5397 C   0  0  0  0  0  0  0  0  0  0  0  0
   25.3105  -17.4953  -14.7378 C   0  0  0  0  0  0  0  0  0  0  0  0
   26.5508  -18.3178  -14.5638 C   0  0  2  0  0  0  0  0  0  0  0  0
   27.1551  -18.4636  -15.9175 N   0  0  0  0  0  0  0  0  0  0  0  0
   26.3677  -19.6782  -14.0666 C   0  0  0  0  0  0  0  0  0  0  0  0
   26.1541  -20.6453  -14.8847 O   0  0  0  0  0  0  0  0  0  0  0  0
   24.0799  -17.7614  -16.8945 C   0  0  0  0  0  0  0  0  0  0  0  0
   23.0628  -18.3156  -17.6463 C   0  0  0  0  0  0  0  0  0  0  0  0
   26.4033  -20.0952  -12.7010 N   0  0  0  0  0  0  0  0  0  0  0  0
   26.2318  -21.4830  -12.3221 C   0  0  1  0  0  0  0  0  0  0  0  0
   27.1198  -21.7368  -11.1166 C   0  0  0  0  0  0  0  0  0  0  0  0
   26.6695  -20.9752   -9.9306 C   0  0  0  0  0  0  0  0  0  0  0  0
   25.4327  -20.4426   -9.6837 C   0  0  0  0  0  0  0  0  0  0  0  0
   25.4428  -19.8295   -8.4987 N   0  0  0  0  0  0  0  0  0  0  0  0
   26.6671  -19.9500   -7.9613 C   0  0  0  0  0  0  0  0  0  0  0  0
   27.1882  -19.4865   -6.7424 C   0  0  0  0  0  0  0  0  0  0  0  0
   28.4951  -19.7312   -6.3910 C   0  0  0  0  0  0  0  0  0  0  0  0
   29.2674  -20.4434   -7.2750 C   0  0  0  0  0  0  0  0  0  0  0  0
   28.7624  -20.9000   -8.4705 C   0  0  0  0  0  0  0  0  0  0  0  0
   27.4332  -20.6547   -8.8346 C   0  0  0  0  0  0  0  0  0  0  0  0
   24.8564  -21.9108  -12.1219 C   0  0  0  0  0  0  0  0  0  0  0  0
   24.4832  -23.1083  -12.0310 O   0  0  0  0  0  0  0  0  0  0  0  0
   23.8430  -20.9712  -12.0159 O   0  0  0  0  0  0  0  0  0  0  0  0
  2  3  1  1
  2  1  1  0
  4  2  1  0
  5  4  1  0
  5  6  1  6
  7  8  2  0
  7  5  1  0
  9 10  1  0
 10 11  2  0
 11 12  1  0
 13 12  2  0
 13 14  1  0
 15 14  1  6
 15 16  1  0
 16  7  1  0
 17 15  1  0
 17 18  2  0
 19 13  1  0
 20 10  1  0
 20 19  2  0
 21 17  1  0
 22 21  1  0
 22 23  1  1
 24 23  1  0
 24 25  2  0
 26 25  1  0
 27 26  1  0
 28 27  2  0
 29 28  1  0
 30 29  2  0
 30 31  1  0
 31 32  2  0
 32 27  1  0
 32 24  1  0
 33 22  1  0
 34 33  2  0
 35 33  1  0
M  END
$$$$
