LYW.pdb
     RDKit          3D

 35 37  0  0  1  0  0  0  0  0999 V2000
   22.5057  -20.1963  -18.0252 C   0  0  0  0  0  0  0  0  0  0  0  0
   23.6593  -19.2233  -17.9356 C   0  0  1  0  0  0  0  0  0  0  0  0
   23.5189  -18.1523  -19.0011 C   0  0  0  0  0  0  0  0  0  0  0  0
   23.8107  -18.6047  -16.5695 C   0  0  0  0  0  0  0  0  0  0  0  0
   24.6045  -19.5218  -15.6920 C   0  0  2  0  0  0  0  0  0  0  0  0
   24.5718  -20.8732  -16.1475 N   0  0  0  0  0  0  0  0  0  0  0  0
   24.2257  -19.4503  -14.2718 C   0  0  0  0  0  0  0  0  0  0  0  0
   24.0804  -18.3160  -13.7522 O   0  0  0  0  0  0  0  0  0  0  0  0
   17.4779  -18.9878  -13.8025 O   0  0  0  0  0  0  0  0  0  0  0  0
   18.6675  -19.5402  -13.3193 C   0  0  0  0  0  0  0  0  0  0  0  0
   19.4219  -20.3375  -14.1299 C   0  0  0  0  0  0  0  0  0  0  0  0
   20.6070  -20.8922  -13.6599 C   0  0  0  0  0  0  0  0  0  0  0  0
   21.0619  -20.6662  -12.3826 C   0  0  0  0  0  0  0  0  0  0  0  0
   22.3055  -21.2521  -11.9131 C   0  0  0  0  0  0  0  0  0  0  0  0
   23.5452  -20.4206  -12.0427 C   0  0  2  0  0  0  0  0  0  0  0  0
   24.0133  -20.5751  -13.4484 N   0  0  0  0  0  0  0  0  0  0  0  0
   24.6790  -20.8040  -11.2066 C   0  0  0  0  0  0  0  0  0  0  0  0
   25.2451  -21.9464  -11.3643 O   0  0  0  0  0  0  0  0  0  0  0  0
   20.2699  -19.8461  -11.5730 C   0  0  0  0  0  0  0  0  0  0  0  0
   19.0918  -19.2919  -12.0336 C   0  0  0  0  0  0  0  0  0  0  0  0
   25.2778  -20.0181  -10.1753 N   0  0  0  0  0  0  0  0  0  0  0  0
   26.2665  -20.5701   -9.2717 C   0  0  1  0  0  0  0  0  0  0  0  0
   27.2787  -19.4753   -8.9835 C   0  0  0  0  0  0  0  0  0  0  0  0
   28.3286  -19.9291   -8.0447 C   0  0  0  0  0  0  0  0  0  0  0  0
   29.3452  -20.8170   -8.2735 C   0  0  0  0  0  0  0  0  0  0  0  0
   30.0728  -20.9533   -7.1635 N   0  0  0  0  0  0  0  0  0  0  0  0
   29.5511  -20.1689   -6.2070 C   0  0  0  0  0  0  0  0  0  0  0  0
   29.9429  -19.9547   -4.8756 C   0  0  0  0  0  0  0  0  0  0  0  0
   29.2482  -19.0902   -4.0623 C   0  0  0  0  0  0  0  0  0  0  0  0
   28.1610  -18.4475   -4.6008 C   0  0  0  0  0  0  0  0  0  0  0  0
   27.7725  -18.6534   -5.9044 C   0  0  0  0  0  0  0  0  0  0  0  0
   28.4748  -19.5318   -6.7378 C   0  0  0  0  0  0  0  0  0  0  0  0
   25.7359  -21.1919   -8.0689 C   0  0  0  0  0  0  0  0  0  0  0  0
   26.3210  -22.0853   -7.4048 O   0  0  0  0  0  0  0  0  0  0  0  0
   24.4992  -20.8088   -7.5741 O   0  0  0  0  0  0  0  0  0  0  0  0
  2  3  1  6
  2  1  1  0
  4  2  1  0
  5  4  1  0
  5  6  1  6
  7  8  2  0
  7  5  1  0
  9 10  1  0
 10 11  2  0
 11 12  1  0
 13 12  2  0
 13 14  1  0
 15 14  1  6
 15 16  1  0
 16  7  1  0
 17 15  1  0
 17 18  2  0
 19 13  1  0
 20 10  1  0
 20 19  2  0
 21 17  1  0
 22 21  1  0
 22 23  1  1
 24 23  1  0
 24 25  2  0
 26 25  1  0
 27 26  1  0
 28 27  2  0
 29 28  1  0
 30 29  2  0
 30 31  1  0
 31 32  2  0
 32 27  1  0
 32 24  1  0
 33 22  1  0
 34 33  2  0
 35 33  1  0
M  END
$$$$
