LYW.pdb
     RDKit          3D

 35 37  0  0  1  0  0  0  0  0999 V2000
   28.9030  -16.8182  -18.3499 C   0  0  0  0  0  0  0  0  0  0  0  0
   29.1276  -17.9125  -17.3313 C   0  0  1  0  0  0  0  0  0  0  0  0
   30.5862  -17.9424  -16.9146 C   0  0  0  0  0  0  0  0  0  0  0  0
   28.2278  -17.7980  -16.1274 C   0  0  0  0  0  0  0  0  0  0  0  0
   28.5587  -18.8849  -15.1524 C   0  0  2  0  0  0  0  0  0  0  0  0
   29.1380  -20.0246  -15.7850 N   0  0  0  0  0  0  0  0  0  0  0  0
   27.4193  -19.2884  -14.3131 C   0  0  0  0  0  0  0  0  0  0  0  0
   26.7192  -18.3870  -13.7887 O   0  0  0  0  0  0  0  0  0  0  0  0
   19.9852  -23.6392  -12.4331 O   0  0  0  0  0  0  0  0  0  0  0  0
   21.2857  -23.2911  -12.8090 C   0  0  0  0  0  0  0  0  0  0  0  0
   21.5147  -22.0967  -13.4277 C   0  0  0  0  0  0  0  0  0  0  0  0
   22.8043  -21.7401  -13.8058 C   0  0  0  0  0  0  0  0  0  0  0  0
   23.8843  -22.5592  -13.5774 C   0  0  0  0  0  0  0  0  0  0  0  0
   25.2242  -22.1651  -13.9766 C   0  0  0  0  0  0  0  0  0  0  0  0
   25.8073  -20.9545  -13.3136 C   0  0  2  0  0  0  0  0  0  0  0  0
   27.0568  -20.6265  -14.0552 N   0  0  0  0  0  0  0  0  0  0  0  0
   26.2066  -21.1035  -11.9173 C   0  0  0  0  0  0  0  0  0  0  0  0
   26.9348  -22.0970  -11.5526 O   0  0  0  0  0  0  0  0  0  0  0  0
   23.6217  -23.7770  -12.9422 C   0  0  0  0  0  0  0  0  0  0  0  0
   22.3434  -24.1373  -12.5640 C   0  0  0  0  0  0  0  0  0  0  0  0
   25.8729  -20.2267  -10.8403 N   0  0  0  0  0  0  0  0  0  0  0  0
   25.5349  -20.7287   -9.5241 C   0  0  1  0  0  0  0  0  0  0  0  0
   26.1629  -19.7925   -8.5067 C   0  0  0  0  0  0  0  0  0  0  0  0
   27.4914  -20.2709   -8.0642 C   0  0  0  0  0  0  0  0  0  0  0  0
   28.4029  -21.0130   -8.7661 C   0  0  0  0  0  0  0  0  0  0  0  0
   29.4749  -21.2349   -8.0036 N   0  0  0  0  0  0  0  0  0  0  0  0
   29.2837  -20.6504   -6.8102 C   0  0  0  0  0  0  0  0  0  0  0  0
   30.1028  -20.5915   -5.6710 C   0  0  0  0  0  0  0  0  0  0  0  0
   29.6964  -19.9246   -4.5391 C   0  0  0  0  0  0  0  0  0  0  0  0
   28.4635  -19.3210   -4.5661 C   0  0  0  0  0  0  0  0  0  0  0  0
   27.6568  -19.3753   -5.6792 C   0  0  0  0  0  0  0  0  0  0  0  0
   28.0639  -20.0523   -6.8348 C   0  0  0  0  0  0  0  0  0  0  0  0
   24.1191  -20.9645   -9.2897 C   0  0  0  0  0  0  0  0  0  0  0  0
   23.1844  -20.3416   -9.8555 O   0  0  0  0  0  0  0  0  0  0  0  0
   23.7146  -21.9356   -8.3873 O   0  0  0  0  0  0  0  0  0  0  0  0
  2  3  1  1
  2  1  1  0
  4  2  1  0
  5  4  1  0
  5  6  1  6
  7  8  2  0
  7  5  1  0
  9 10  1  0
 10 11  2  0
 11 12  1  0
 13 12  2  0
 13 14  1  0
 15 14  1  6
 15 16  1  0
 16  7  1  0
 17 15  1  0
 17 18  2  0
 19 13  1  0
 20 10  1  0
 20 19  2  0
 21 17  1  0
 22 21  1  0
 22 23  1  1
 24 23  1  0
 24 25  2  0
 26 25  1  0
 27 26  1  0
 28 27  2  0
 29 28  1  0
 30 29  2  0
 30 31  1  0
 31 32  2  0
 32 27  1  0
 32 24  1  0
 33 22  1  0
 34 33  2  0
 35 33  1  0
M  END
$$$$
