LYW.pdb
     RDKit          3D

 35 37  0  0  1  0  0  0  0  0999 V2000
   27.8267  -20.7013  -18.4403 C   0  0  0  0  0  0  0  0  0  0  0  0
   28.3639  -20.8111  -17.0315 C   0  0  1  0  0  0  0  0  0  0  0  0
   29.8363  -20.4455  -17.0076 C   0  0  0  0  0  0  0  0  0  0  0  0
   27.5902  -19.9875  -16.0341 C   0  0  0  0  0  0  0  0  0  0  0  0
   26.1976  -20.5246  -15.9173 C   0  0  2  0  0  0  0  0  0  0  0  0
   25.3744  -20.1446  -17.0184 N   0  0  0  0  0  0  0  0  0  0  0  0
   25.5412  -20.1842  -14.6450 C   0  0  0  0  0  0  0  0  0  0  0  0
   25.2448  -18.9821  -14.4325 O   0  0  0  0  0  0  0  0  0  0  0  0
   19.6117  -18.5299  -16.1022 O   0  0  0  0  0  0  0  0  0  0  0  0
   20.4755  -19.2125  -15.2409 C   0  0  0  0  0  0  0  0  0  0  0  0
   20.6194  -18.7897  -13.9516 C   0  0  0  0  0  0  0  0  0  0  0  0
   21.4757  -19.4611  -13.0860 C   0  0  0  0  0  0  0  0  0  0  0  0
   22.2009  -20.5590  -13.4836 C   0  0  0  0  0  0  0  0  0  0  0  0
   23.0867  -21.2486  -12.5616 C   0  0  0  0  0  0  0  0  0  0  0  0
   24.4773  -20.7099  -12.4167 C   0  0  2  0  0  0  0  0  0  0  0  0
   25.2198  -21.1206  -13.6410 N   0  0  0  0  0  0  0  0  0  0  0  0
   25.2603  -21.2169  -11.2936 C   0  0  0  0  0  0  0  0  0  0  0  0
   26.2195  -22.0477  -11.4934 O   0  0  0  0  0  0  0  0  0  0  0  0
   22.0351  -20.9709  -14.8095 C   0  0  0  0  0  0  0  0  0  0  0  0
   21.1862  -20.3087  -15.6743 C   0  0  0  0  0  0  0  0  0  0  0  0
   25.0862  -20.8807   -9.9165 N   0  0  0  0  0  0  0  0  0  0  0  0
   26.0826  -21.2113   -8.9183 C   0  0  1  0  0  0  0  0  0  0  0  0
   27.3044  -20.3531   -9.1957 C   0  0  0  0  0  0  0  0  0  0  0  0
   28.4053  -20.6400   -8.2495 C   0  0  0  0  0  0  0  0  0  0  0  0
   29.4483  -21.5138   -8.4011 C   0  0  0  0  0  0  0  0  0  0  0  0
   30.2206  -21.4749   -7.3139 N   0  0  0  0  0  0  0  0  0  0  0  0
   29.7025  -20.5890   -6.4484 C   0  0  0  0  0  0  0  0  0  0  0  0
   30.1333  -20.1853   -5.1742 C   0  0  0  0  0  0  0  0  0  0  0  0
   29.4340  -19.2452   -4.4541 C   0  0  0  0  0  0  0  0  0  0  0  0
   28.3026  -18.7192   -5.0271 C   0  0  0  0  0  0  0  0  0  0  0  0
   27.8758  -19.1108   -6.2750 C   0  0  0  0  0  0  0  0  0  0  0  0
   28.5826  -20.0670   -7.0136 C   0  0  0  0  0  0  0  0  0  0  0  0
   25.6320  -21.1387   -7.5374 C   0  0  0  0  0  0  0  0  0  0  0  0
   24.7613  -20.3394   -7.1076 O   0  0  0  0  0  0  0  0  0  0  0  0
   26.1679  -21.9902   -6.5841 O   0  0  0  0  0  0  0  0  0  0  0  0
  2  3  1  6
  2  1  1  0
  4  2  1  0
  5  4  1  0
  5  6  1  6
  7  8  2  0
  7  5  1  0
  9 10  1  0
 10 11  2  0
 11 12  1  0
 13 12  2  0
 13 14  1  0
 15 14  1  6
 15 16  1  0
 16  7  1  0
 17 15  1  0
 17 18  2  0
 19 13  1  0
 20 10  1  0
 20 19  2  0
 21 17  1  0
 22 21  1  0
 22 23  1  1
 24 23  1  0
 24 25  2  0
 26 25  1  0
 27 26  1  0
 28 27  2  0
 29 28  1  0
 30 29  2  0
 30 31  1  0
 31 32  2  0
 32 27  1  0
 32 24  1  0
 33 22  1  0
 34 33  2  0
 35 33  1  0
M  END
$$$$
