LYW.pdb
     RDKit          3D

 35 37  0  0  1  0  0  0  0  0999 V2000
   29.1757  -26.4623  -16.7685 C   0  0  0  0  0  0  0  0  0  0  0  0
   28.1678  -25.3496  -16.9459 C   0  0  1  0  0  0  0  0  0  0  0  0
   27.0419  -25.8091  -17.8532 C   0  0  0  0  0  0  0  0  0  0  0  0
   27.6255  -24.8250  -15.6411 C   0  0  0  0  0  0  0  0  0  0  0  0
   26.7470  -23.6420  -15.9059 C   0  0  2  0  0  0  0  0  0  0  0  0
   27.3700  -22.6822  -16.7576 N   0  0  0  0  0  0  0  0  0  0  0  0
   26.2487  -22.9943  -14.6821 C   0  0  0  0  0  0  0  0  0  0  0  0
   25.5995  -23.6913  -13.8632 O   0  0  0  0  0  0  0  0  0  0  0  0
   27.5254  -20.5533   -6.8563 O   0  0  0  0  0  0  0  0  0  0  0  0
   27.4135  -20.4926   -8.2483 C   0  0  0  0  0  0  0  0  0  0  0  0
   26.3619  -19.8330   -8.8147 C   0  0  0  0  0  0  0  0  0  0  0  0
   26.2405  -19.7662  -10.1981 C   0  0  0  0  0  0  0  0  0  0  0  0
   27.1569  -20.3505  -11.0398 C   0  0  0  0  0  0  0  0  0  0  0  0
   27.0135  -20.2647  -12.4828 C   0  0  0  0  0  0  0  0  0  0  0  0
   25.9020  -21.0514  -13.1077 C   0  0  2  0  0  0  0  0  0  0  0  0
   26.4510  -21.6357  -14.3631 N   0  0  0  0  0  0  0  0  0  0  0  0
   24.7162  -20.3004  -13.5096 C   0  0  0  0  0  0  0  0  0  0  0  0
   24.0699  -19.5985  -12.6495 O   0  0  0  0  0  0  0  0  0  0  0  0
   28.2243  -21.0200  -10.4335 C   0  0  0  0  0  0  0  0  0  0  0  0
   28.3509  -21.0901   -9.0601 C   0  0  0  0  0  0  0  0  0  0  0  0
   24.1529  -20.2405  -14.8207 N   0  0  0  0  0  0  0  0  0  0  0  0
   22.9900  -19.4283  -15.1153 C   0  0  1  0  0  0  0  0  0  0  0  0
   23.2941  -18.6423  -16.3785 C   0  0  0  0  0  0  0  0  0  0  0  0
   24.5626  -17.8886  -16.2664 C   0  0  0  0  0  0  0  0  0  0  0  0
   25.8294  -18.3099  -16.5695 C   0  0  0  0  0  0  0  0  0  0  0  0
   26.6947  -17.3244  -16.3239 N   0  0  0  0  0  0  0  0  0  0  0  0
   26.0174  -16.2606  -15.8636 C   0  0  0  0  0  0  0  0  0  0  0  0
   26.4595  -14.9886  -15.4650 C   0  0  0  0  0  0  0  0  0  0  0  0
   25.5722  -14.0370  -15.0195 C   0  0  0  0  0  0  0  0  0  0  0  0
   24.2428  -14.3777  -14.9797 C   0  0  0  0  0  0  0  0  0  0  0  0
   23.8039  -15.6221  -15.3690 C   0  0  0  0  0  0  0  0  0  0  0  0
   24.7013  -16.5956  -15.8234 C   0  0  0  0  0  0  0  0  0  0  0  0
   21.7261  -20.1452  -15.1759 C   0  0  0  0  0  0  0  0  0  0  0  0
   21.6076  -21.3963  -15.1286 O   0  0  0  0  0  0  0  0  0  0  0  0
   20.5343  -19.4474  -15.2939 O   0  0  0  0  0  0  0  0  0  0  0  0
  2  3  1  6
  2  1  1  0
  4  2  1  0
  5  4  1  0
  5  6  1  1
  7  8  2  0
  7  5  1  0
  9 10  1  0
 10 11  2  0
 11 12  1  0
 13 12  2  0
 13 14  1  0
 15 14  1  6
 15 16  1  0
 16  7  1  0
 17 15  1  0
 17 18  2  0
 19 13  1  0
 20 10  1  0
 20 19  2  0
 21 17  1  0
 22 21  1  0
 22 23  1  6
 24 23  1  0
 24 25  2  0
 26 25  1  0
 27 26  1  0
 28 27  2  0
 29 28  1  0
 30 29  2  0
 30 31  1  0
 31 32  2  0
 32 27  1  0
 32 24  1  0
 33 22  1  0
 34 33  2  0
 35 33  1  0
M  END
$$$$
