MQG.pdb
     RDKit          3D

 22 21  0  0  1  0  0  0  0  0999 V2000
    5.8512  -11.0495   27.0574 C   0  0  0  0  0  0  0  0  0  0  0  0
    6.7019  -12.6281   27.2244 S   0  0  0  0  0  0  0  0  0  0  0  0
    6.4871  -13.6472   25.7226 C   0  0  0  0  0  0  0  0  0  0  0  0
    7.2790  -14.9186   25.9304 C   0  0  0  0  0  0  0  0  0  0  0  0
    7.2100  -15.7060   24.6397 C   0  0  2  0  0  0  0  0  0  0  0  0
    5.9972  -16.4965   24.6004 N   0  0  0  0  0  0  0  0  0  0  0  0
    8.3828  -16.5585   24.4217 C   0  0  0  0  0  0  0  0  0  0  0  0
    8.2925  -17.7910   24.6324 O   0  0  0  0  0  0  0  0  0  0  0  0
   12.0499  -18.0498   20.8130 N   0  0  0  0  0  0  0  0  0  0  0  0
   11.2687  -16.9192   20.4868 C   0  0  0  0  0  0  0  0  0  0  0  0
   10.7842  -16.7951   19.3468 O   0  0  0  0  0  0  0  0  0  0  0  0
   11.0307  -15.8853   21.5078 C   0  0  0  0  0  0  0  0  0  0  0  0
   11.7258  -16.2664   22.7746 C   0  0  0  0  0  0  0  0  0  0  0  0
   10.7960  -16.9308   23.7714 C   0  0  2  0  0  0  0  0  0  0  0  0
    9.6442  -16.0765   23.9785 N   0  0  0  0  0  0  0  0  0  0  0  0
   11.5116  -17.2129   25.0387 C   0  0  0  0  0  0  0  0  0  0  0  0
   12.5651  -17.8951   25.0205 O   0  0  0  0  0  0  0  0  0  0  0  0
   10.9987  -16.7105   26.2499 N   0  0  0  0  0  0  0  0  0  0  0  0
   11.7001  -16.8364   27.5214 C   0  0  0  0  0  0  0  0  0  0  0  0
   11.3821  -18.1192   28.1711 C   0  0  0  0  0  0  0  0  0  0  0  0
   11.7294  -18.2854   29.3688 O   0  0  0  0  0  0  0  0  0  0  0  0
   10.7283  -19.1535   27.5556 O   0  0  0  0  0  0  0  0  0  0  0  0
  1  2  1  0
  3  4  1  0
  3  2  1  0
  5  7  1  0
  5  6  1  1
  5  4  1  0
  7  8  2  0
  9 10  1  0
 10 12  1  0
 11 10  2  0
 12 13  1  0
 14 13  1  6
 14 16  1  0
 15 14  1  0
 15  7  1  0
 16 17  2  0
 16 18  1  0
 18 19  1  0
 19 20  1  0
 20 21  2  0
 20 22  1  0
M  END
$$$$
