MQG.pdb
     RDKit          3D

 22 21  0  0  1  0  0  0  0  0999 V2000
    8.2508  -11.6492   20.2725 C   0  0  0  0  0  0  0  0  0  0  0  0
    7.0593  -12.9062   19.7786 S   0  0  0  0  0  0  0  0  0  0  0  0
    7.4956  -14.5332   20.4876 C   0  0  0  0  0  0  0  0  0  0  0  0
    8.0825  -14.2786   21.8579 C   0  0  0  0  0  0  0  0  0  0  0  0
    8.5607  -15.6102   22.3955 C   0  0  2  0  0  0  0  0  0  0  0  0
    7.4473  -16.5276   22.5212 N   0  0  0  0  0  0  0  0  0  0  0  0
    9.2735  -15.4936   23.6715 C   0  0  0  0  0  0  0  0  0  0  0  0
    8.7612  -14.8264   24.6011 O   0  0  0  0  0  0  0  0  0  0  0  0
    9.7325  -14.8502   27.7637 N   0  0  0  0  0  0  0  0  0  0  0  0
   10.7999  -15.5912   28.3173 C   0  0  0  0  0  0  0  0  0  0  0  0
   11.2392  -15.3152   29.4490 O   0  0  0  0  0  0  0  0  0  0  0  0
   11.3911  -16.6961   27.5442 C   0  0  0  0  0  0  0  0  0  0  0  0
   10.6859  -16.8198   26.2324 C   0  0  0  0  0  0  0  0  0  0  0  0
   11.2650  -15.9039   25.1717 C   0  0  2  0  0  0  0  0  0  0  0  0
   10.5327  -16.0968   23.9363 N   0  0  0  0  0  0  0  0  0  0  0  0
   12.7152  -16.1600   25.0019 C   0  0  0  0  0  0  0  0  0  0  0  0
   13.1509  -17.3358   25.0599 O   0  0  0  0  0  0  0  0  0  0  0  0
   13.5876  -15.0780   24.7772 N   0  0  0  0  0  0  0  0  0  0  0  0
   15.0278  -15.2392   24.6211 C   0  0  0  0  0  0  0  0  0  0  0  0
   15.3407  -16.0091   23.4054 C   0  0  0  0  0  0  0  0  0  0  0  0
   15.3831  -17.2639   23.4863 O   0  0  0  0  0  0  0  0  0  0  0  0
   15.5911  -15.4482   22.1812 O   0  0  0  0  0  0  0  0  0  0  0  0
  1  2  1  0
  3  4  1  0
  3  2  1  0
  5  7  1  0
  5  6  1  1
  5  4  1  0
  7  8  2  0
  9 10  1  0
 10 12  1  0
 11 10  2  0
 12 13  1  0
 14 13  1  1
 14 16  1  0
 15 14  1  0
 15  7  1  0
 16 17  2  0
 16 18  1  0
 18 19  1  0
 19 20  1  0
 20 21  2  0
 20 22  1  0
M  END
$$$$
