MQG.pdb
     RDKit          3D

 22 21  0  0  1  0  0  0  0  0999 V2000
    6.3436  -10.9614   26.5572 C   0  0  0  0  0  0  0  0  0  0  0  0
    5.0820  -12.2341   26.3782 S   0  0  0  0  0  0  0  0  0  0  0  0
    5.8149  -13.8013   25.7891 C   0  0  0  0  0  0  0  0  0  0  0  0
    6.7902  -13.4502   24.6879 C   0  0  0  0  0  0  0  0  0  0  0  0
    7.4582  -14.7370   24.2534 C   0  0  2  0  0  0  0  0  0  0  0  0
    6.7283  -15.8775   24.7671 N   0  0  0  0  0  0  0  0  0  0  0  0
    8.8689  -14.8143   24.6455 C   0  0  0  0  0  0  0  0  0  0  0  0
    9.6752  -13.9613   24.2051 O   0  0  0  0  0  0  0  0  0  0  0  0
   11.0717  -17.6710   29.6770 N   0  0  0  0  0  0  0  0  0  0  0  0
   12.2868  -17.2106   29.1235 C   0  0  0  0  0  0  0  0  0  0  0  0
   13.3573  -17.3580   29.7416 O   0  0  0  0  0  0  0  0  0  0  0  0
   12.2785  -16.5531   27.8061 C   0  0  0  0  0  0  0  0  0  0  0  0
   10.8730  -16.4520   27.3084 C   0  0  0  0  0  0  0  0  0  0  0  0
   10.7896  -15.8515   25.9184 C   0  0  2  0  0  0  0  0  0  0  0  0
    9.4003  -15.8101   25.5091 N   0  0  0  0  0  0  0  0  0  0  0  0
   11.6242  -16.6256   24.9688 C   0  0  0  0  0  0  0  0  0  0  0  0
   11.2790  -17.7868   24.6400 O   0  0  0  0  0  0  0  0  0  0  0  0
   12.7966  -16.0467   24.4467 N   0  0  0  0  0  0  0  0  0  0  0  0
   13.5846  -16.6671   23.3890 C   0  0  0  0  0  0  0  0  0  0  0  0
   15.0156  -16.3599   23.5520 C   0  0  0  0  0  0  0  0  0  0  0  0
   15.3685  -15.6573   24.5342 O   0  0  0  0  0  0  0  0  0  0  0  0
   15.9981  -16.7903   22.7002 O   0  0  0  0  0  0  0  0  0  0  0  0
  1  2  1  0
  3  4  1  0
  3  2  1  0
  5  7  1  0
  5  6  1  1
  5  4  1  0
  7  8  2  0
  9 10  1  0
 10 12  1  0
 11 10  2  0
 12 13  1  0
 14 13  1  1
 14 16  1  0
 15 14  1  0
 15  7  1  0
 16 17  2  0
 16 18  1  0
 18 19  1  0
 19 20  1  0
 20 21  2  0
 20 22  1  0
M  END
$$$$
