MQG.pdb
     RDKit          3D

 22 21  0  0  1  0  0  0  0  0999 V2000
    8.4790  -11.5905   19.9203 C   0  0  0  0  0  0  0  0  0  0  0  0
    7.3078  -12.7558   19.2033 S   0  0  0  0  0  0  0  0  0  0  0  0
    7.2489  -14.3027   20.1749 C   0  0  0  0  0  0  0  0  0  0  0  0
    8.3306  -14.2087   21.2274 C   0  0  0  0  0  0  0  0  0  0  0  0
    8.4091  -15.5565   21.9115 C   0  0  2  0  0  0  0  0  0  0  0  0
    7.1409  -15.8761   22.5335 N   0  0  0  0  0  0  0  0  0  0  0  0
    9.4954  -15.6419   22.8926 C   0  0  0  0  0  0  0  0  0  0  0  0
    9.3473  -15.1116   24.0189 O   0  0  0  0  0  0  0  0  0  0  0  0
   12.3591  -18.8262   26.6123 N   0  0  0  0  0  0  0  0  0  0  0  0
   11.6145  -19.4293   25.5747 C   0  0  0  0  0  0  0  0  0  0  0  0
   11.4900  -20.6670   25.5250 O   0  0  0  0  0  0  0  0  0  0  0  0
   10.9846  -18.5813   24.5490 C   0  0  0  0  0  0  0  0  0  0  0  0
   11.2679  -17.1446   24.8474 C   0  0  0  0  0  0  0  0  0  0  0  0
   11.7901  -16.3913   23.6393 C   0  0  2  0  0  0  0  0  0  0  0  0
   10.7329  -16.2982   22.6528 N   0  0  0  0  0  0  0  0  0  0  0  0
   12.9979  -17.0573   23.0960 C   0  0  0  0  0  0  0  0  0  0  0  0
   12.8742  -18.0613   22.3528 O   0  0  0  0  0  0  0  0  0  0  0  0
   14.2717  -16.5537   23.4215 N   0  0  0  0  0  0  0  0  0  0  0  0
   15.2451  -16.1476   22.4155 C   0  0  0  0  0  0  0  0  0  0  0  0
   16.5101  -15.7345   23.0463 C   0  0  0  0  0  0  0  0  0  0  0  0
   16.5547  -15.6542   24.3010 O   0  0  0  0  0  0  0  0  0  0  0  0
   17.6522  -15.4287   22.3547 O   0  0  0  0  0  0  0  0  0  0  0  0
  1  2  1  0
  3  4  1  0
  3  2  1  0
  5  7  1  0
  5  6  1  1
  5  4  1  0
  7  8  2  0
  9 10  1  0
 10 12  1  0
 11 10  2  0
 12 13  1  0
 14 13  1  1
 14 16  1  0
 15 14  1  0
 15  7  1  0
 16 17  2  0
 16 18  1  0
 18 19  1  0
 19 20  1  0
 20 21  2  0
 20 22  1  0
M  END
$$$$
