MQG.pdb
     RDKit          3D

 22 21  0  0  1  0  0  0  0  0999 V2000
    8.3209  -11.6845   21.0613 C   0  0  0  0  0  0  0  0  0  0  0  0
    7.9728  -12.2871   19.4002 S   0  0  0  0  0  0  0  0  0  0  0  0
    7.6522  -14.0863   19.4127 C   0  0  0  0  0  0  0  0  0  0  0  0
    7.0754  -14.4262   20.7687 C   0  0  0  0  0  0  0  0  0  0  0  0
    8.0236  -15.4053   21.4268 C   0  0  2  0  0  0  0  0  0  0  0  0
    8.2007  -16.5715   20.5865 N   0  0  0  0  0  0  0  0  0  0  0  0
    7.5972  -15.8045   22.7717 C   0  0  0  0  0  0  0  0  0  0  0  0
    7.2353  -14.9235   23.5868 O   0  0  0  0  0  0  0  0  0  0  0  0
    5.7330  -21.4346   24.6133 N   0  0  0  0  0  0  0  0  0  0  0  0
    5.8574  -20.8141   25.8760 C   0  0  0  0  0  0  0  0  0  0  0  0
    5.5340  -21.4231   26.9126 O   0  0  0  0  0  0  0  0  0  0  0  0
    6.3740  -19.4378   25.9581 C   0  0  0  0  0  0  0  0  0  0  0  0
    6.6583  -18.9292   24.5818 C   0  0  0  0  0  0  0  0  0  0  0  0
    7.2251  -17.5227   24.5867 C   0  0  2  0  0  0  0  0  0  0  0  0
    7.5639  -17.1500   23.2281 N   0  0  0  0  0  0  0  0  0  0  0  0
    8.3957  -17.4392   25.4924 C   0  0  0  0  0  0  0  0  0  0  0  0
    9.5390  -17.7259   25.0604 O   0  0  0  0  0  0  0  0  0  0  0  0
    8.2095  -17.0383   26.8291 N   0  0  0  0  0  0  0  0  0  0  0  0
    9.3166  -16.7719   27.7390 C   0  0  0  0  0  0  0  0  0  0  0  0
    9.7762  -18.0136   28.3838 C   0  0  0  0  0  0  0  0  0  0  0  0
    9.2923  -19.1063   27.9906 O   0  0  0  0  0  0  0  0  0  0  0  0
   10.7027  -18.0614   29.3914 O   0  0  0  0  0  0  0  0  0  0  0  0
  1  2  1  0
  3  4  1  0
  3  2  1  0
  5  7  1  0
  5  6  1  6
  5  4  1  0
  7  8  2  0
  9 10  1  0
 10 12  1  0
 11 10  2  0
 12 13  1  0
 14 13  1  6
 14 16  1  0
 15 14  1  0
 15  7  1  0
 16 17  2  0
 16 18  1  0
 18 19  1  0
 19 20  1  0
 20 21  2  0
 20 22  1  0
M  END
$$$$
