MQG.pdb
     RDKit          3D

 22 21  0  0  1  0  0  0  0  0999 V2000
    6.8740  -10.8348   26.1953 C   0  0  0  0  0  0  0  0  0  0  0  0
    6.2191  -12.3921   26.8195 S   0  0  0  0  0  0  0  0  0  0  0  0
    5.9479  -13.5790   25.4565 C   0  0  0  0  0  0  0  0  0  0  0  0
    6.9739  -13.2723   24.3886 C   0  0  0  0  0  0  0  0  0  0  0  0
    7.5288  -14.5955   23.9067 C   0  0  2  0  0  0  0  0  0  0  0  0
    6.4968  -15.6110   23.9361 N   0  0  0  0  0  0  0  0  0  0  0  0
    8.7030  -15.0380   24.6652 C   0  0  0  0  0  0  0  0  0  0  0  0
    9.6721  -14.2554   24.8066 O   0  0  0  0  0  0  0  0  0  0  0  0
    9.0360  -20.2826   28.0777 N   0  0  0  0  0  0  0  0  0  0  0  0
   10.2615  -19.6762   28.4317 C   0  0  0  0  0  0  0  0  0  0  0  0
   11.0086  -20.2085   29.2734 O   0  0  0  0  0  0  0  0  0  0  0  0
   10.6505  -18.4062   27.7963 C   0  0  0  0  0  0  0  0  0  0  0  0
    9.6060  -18.0038   26.8061 C   0  0  0  0  0  0  0  0  0  0  0  0
    9.9486  -16.7107   26.0919 C   0  0  2  0  0  0  0  0  0  0  0  0
    8.8241  -16.3204   25.2656 N   0  0  0  0  0  0  0  0  0  0  0  0
   11.1903  -16.8708   25.2981 C   0  0  0  0  0  0  0  0  0  0  0  0
   12.3034  -16.8794   25.8782 O   0  0  0  0  0  0  0  0  0  0  0  0
   11.1047  -17.0114   23.8998 N   0  0  0  0  0  0  0  0  0  0  0  0
   12.2748  -17.0269   23.0309 C   0  0  0  0  0  0  0  0  0  0  0  0
   13.0811  -18.2380   23.2583 C   0  0  0  0  0  0  0  0  0  0  0  0
   12.6786  -19.0739   24.1081 O   0  0  0  0  0  0  0  0  0  0  0  0
   14.2500  -18.5200   22.6024 O   0  0  0  0  0  0  0  0  0  0  0  0
  1  2  1  0
  3  4  1  0
  3  2  1  0
  5  7  1  0
  5  6  1  1
  5  4  1  0
  7  8  2  0
  9 10  1  0
 10 12  1  0
 11 10  2  0
 12 13  1  0
 14 13  1  6
 14 16  1  0
 15 14  1  0
 15  7  1  0
 16 17  2  0
 16 18  1  0
 18 19  1  0
 19 20  1  0
 20 21  2  0
 20 22  1  0
M  END
$$$$
