MQG.pdb
     RDKit          3D

 22 21  0  0  1  0  0  0  0  0999 V2000
    6.2545  -11.2732   25.8798 C   0  0  0  0  0  0  0  0  0  0  0  0
    5.7955  -12.6687   26.9217 S   0  0  0  0  0  0  0  0  0  0  0  0
    6.1349  -14.2533   26.0766 C   0  0  0  0  0  0  0  0  0  0  0  0
    6.5024  -13.9254   24.6468 C   0  0  0  0  0  0  0  0  0  0  0  0
    7.3420  -15.0717   24.1254 C   0  0  2  0  0  0  0  0  0  0  0  0
    6.8350  -16.3318   24.6279 N   0  0  0  0  0  0  0  0  0  0  0  0
    8.7670  -14.9319   24.4410 C   0  0  0  0  0  0  0  0  0  0  0  0
    9.4223  -14.0001   23.9176 O   0  0  0  0  0  0  0  0  0  0  0  0
   11.5063  -16.6939   29.6098 N   0  0  0  0  0  0  0  0  0  0  0  0
   10.9307  -15.4246   29.3810 C   0  0  0  0  0  0  0  0  0  0  0  0
   10.6351  -14.6845   30.3375 O   0  0  0  0  0  0  0  0  0  0  0  0
   10.6819  -14.9814   27.9991 C   0  0  0  0  0  0  0  0  0  0  0  0
   11.1404  -16.0378   27.0467 C   0  0  0  0  0  0  0  0  0  0  0  0
   10.8906  -15.6639   25.5985 C   0  0  2  0  0  0  0  0  0  0  0  0
    9.4752  -15.7972   25.3182 N   0  0  0  0  0  0  0  0  0  0  0  0
   11.7154  -16.5033   24.6971 C   0  0  0  0  0  0  0  0  0  0  0  0
   11.5625  -17.7492   24.6934 O   0  0  0  0  0  0  0  0  0  0  0  0
   12.6624  -15.8905   23.8545 N   0  0  0  0  0  0  0  0  0  0  0  0
   13.5137  -16.6410   22.9398 C   0  0  0  0  0  0  0  0  0  0  0  0
   14.9306  -16.2901   23.1349 C   0  0  0  0  0  0  0  0  0  0  0  0
   15.2320  -15.5257   24.0877 O   0  0  0  0  0  0  0  0  0  0  0  0
   15.9526  -16.7427   22.3432 O   0  0  0  0  0  0  0  0  0  0  0  0
  1  2  1  0
  3  4  1  0
  3  2  1  0
  5  7  1  0
  5  6  1  1
  5  4  1  0
  7  8  2  0
  9 10  1  0
 10 12  1  0
 11 10  2  0
 12 13  1  0
 14 13  1  1
 14 16  1  0
 15 14  1  0
 15  7  1  0
 16 17  2  0
 16 18  1  0
 18 19  1  0
 19 20  1  0
 20 21  2  0
 20 22  1  0
M  END
$$$$
