MQG.pdb
     RDKit          3D

 22 21  0  0  1  0  0  0  0  0999 V2000
    6.9180  -11.8973   20.3679 C   0  0  0  0  0  0  0  0  0  0  0  0
    7.4485  -12.6108   18.8017 S   0  0  0  0  0  0  0  0  0  0  0  0
    9.0360  -13.4961   18.9924 C   0  0  0  0  0  0  0  0  0  0  0  0
    9.1230  -13.9487   20.4327 C   0  0  0  0  0  0  0  0  0  0  0  0
   10.4345  -14.6871   20.5924 C   0  0  2  0  0  0  0  0  0  0  0  0
   10.6604  -15.5564   19.4563 N   0  0  0  0  0  0  0  0  0  0  0  0
   10.5184  -15.4480   21.8428 C   0  0  0  0  0  0  0  0  0  0  0  0
   10.0940  -14.9325   22.9039 O   0  0  0  0  0  0  0  0  0  0  0  0
   10.0582  -21.4025   22.8276 N   0  0  0  0  0  0  0  0  0  0  0  0
   10.0277  -20.6576   21.6280 C   0  0  0  0  0  0  0  0  0  0  0  0
    9.9033  -21.2333   20.5312 O   0  0  0  0  0  0  0  0  0  0  0  0
   10.1444  -19.1909   21.6839 C   0  0  0  0  0  0  0  0  0  0  0  0
   10.3769  -18.7629   23.0968 C   0  0  0  0  0  0  0  0  0  0  0  0
   11.1797  -17.4799   23.1916 C   0  0  2  0  0  0  0  0  0  0  0  0
   11.0590  -16.7588   21.9407 N   0  0  0  0  0  0  0  0  0  0  0  0
   12.5931  -17.7768   23.5258 C   0  0  0  0  0  0  0  0  0  0  0  0
   12.8842  -18.2191   24.6639 O   0  0  0  0  0  0  0  0  0  0  0  0
   13.5935  -17.5583   22.5595 N   0  0  0  0  0  0  0  0  0  0  0  0
   14.3616  -16.3221   22.4784 C   0  0  0  0  0  0  0  0  0  0  0  0
   15.5838  -16.4094   23.2953 C   0  0  0  0  0  0  0  0  0  0  0  0
   15.8084  -17.4759   23.9238 O   0  0  0  0  0  0  0  0  0  0  0  0
   16.5015  -15.4002   23.4193 O   0  0  0  0  0  0  0  0  0  0  0  0
  1  2  1  0
  3  4  1  0
  3  2  1  0
  5  7  1  0
  5  6  1  6
  5  4  1  0
  7  8  2  0
  9 10  1  0
 10 12  1  0
 11 10  2  0
 12 13  1  0
 14 13  1  6
 14 16  1  0
 15 14  1  0
 15  7  1  0
 16 17  2  0
 16 18  1  0
 18 19  1  0
 19 20  1  0
 20 21  2  0
 20 22  1  0
M  END
$$$$
