MQG.pdb
     RDKit          3D

 22 21  0  0  1  0  0  0  0  0999 V2000
    7.1281  -11.7704   26.6125 C   0  0  0  0  0  0  0  0  0  0  0  0
    6.0876  -13.0745   25.9341 S   0  0  0  0  0  0  0  0  0  0  0  0
    7.0646  -14.2112   24.8884 C   0  0  0  0  0  0  0  0  0  0  0  0
    7.8196  -13.3607   23.8916 C   0  0  0  0  0  0  0  0  0  0  0  0
    8.4812  -14.3026   22.9087 C   0  0  2  0  0  0  0  0  0  0  0  0
    7.4848  -14.9145   22.0544 N   0  0  0  0  0  0  0  0  0  0  0  0
    9.2988  -15.3317   23.5585 C   0  0  0  0  0  0  0  0  0  0  0  0
    9.3834  -16.4680   23.0357 O   0  0  0  0  0  0  0  0  0  0  0  0
   12.1853  -14.9683   29.1526 N   0  0  0  0  0  0  0  0  0  0  0  0
   10.8016  -14.8444   28.8980 C   0  0  0  0  0  0  0  0  0  0  0  0
   10.0342  -14.4150   29.7791 O   0  0  0  0  0  0  0  0  0  0  0  0
   10.2716  -15.2280   27.5789 C   0  0  0  0  0  0  0  0  0  0  0  0
   11.4015  -15.6181   26.6819 C   0  0  0  0  0  0  0  0  0  0  0  0
   10.9268  -16.1089   25.3279 C   0  0  2  0  0  0  0  0  0  0  0  0
   10.0191  -15.1287   24.7667 N   0  0  0  0  0  0  0  0  0  0  0  0
   10.2929  -17.4430   25.4536 C   0  0  0  0  0  0  0  0  0  0  0  0
    9.1908  -17.5557   26.0438 O   0  0  0  0  0  0  0  0  0  0  0  0
   10.9371  -18.5697   24.9077 N   0  0  0  0  0  0  0  0  0  0  0  0
   11.6176  -19.5674   25.7239 C   0  0  0  0  0  0  0  0  0  0  0  0
   10.6465  -20.4596   26.3795 C   0  0  0  0  0  0  0  0  0  0  0  0
   10.0832  -21.3444   25.6849 O   0  0  0  0  0  0  0  0  0  0  0  0
   10.3113  -20.3920   27.7058 O   0  0  0  0  0  0  0  0  0  0  0  0
  1  2  1  0
  3  4  1  0
  3  2  1  0
  5  7  1  0
  5  6  1  1
  5  4  1  0
  7  8  2  0
  9 10  1  0
 10 12  1  0
 11 10  2  0
 12 13  1  0
 14 13  1  1
 14 16  1  0
 15 14  1  0
 15  7  1  0
 16 17  2  0
 16 18  1  0
 18 19  1  0
 19 20  1  0
 20 21  2  0
 20 22  1  0
M  END
$$$$
