MQG.pdb
     RDKit          3D

 22 21  0  0  1  0  0  0  0  0999 V2000
    7.0694  -10.9522   26.7832 C   0  0  0  0  0  0  0  0  0  0  0  0
    7.0255  -12.5220   27.6650 S   0  0  0  0  0  0  0  0  0  0  0  0
    6.2668  -13.8277   26.6357 C   0  0  0  0  0  0  0  0  0  0  0  0
    7.3601  -14.3935   25.7573 C   0  0  0  0  0  0  0  0  0  0  0  0
    6.7072  -15.3662   24.7990 C   0  0  2  0  0  0  0  0  0  0  0  0
    6.1546  -16.4900   25.5264 N   0  0  0  0  0  0  0  0  0  0  0  0
    7.6146  -15.8348   23.7469 C   0  0  0  0  0  0  0  0  0  0  0  0
    7.8945  -17.0548   23.6774 O   0  0  0  0  0  0  0  0  0  0  0  0
    8.9822  -12.8929   18.3857 N   0  0  0  0  0  0  0  0  0  0  0  0
    7.7380  -13.4667   18.7286 C   0  0  0  0  0  0  0  0  0  0  0  0
    6.7312  -13.2550   18.0276 O   0  0  0  0  0  0  0  0  0  0  0  0
    7.6399  -14.3197   19.9248 C   0  0  0  0  0  0  0  0  0  0  0  0
    8.9878  -14.4484   20.5571 C   0  0  0  0  0  0  0  0  0  0  0  0
    9.0117  -15.4758   21.6723 C   0  0  2  0  0  0  0  0  0  0  0  0
    8.2135  -14.9854   22.7777 N   0  0  0  0  0  0  0  0  0  0  0  0
   10.4072  -15.7637   22.0814 C   0  0  0  0  0  0  0  0  0  0  0  0
   11.1890  -16.3254   21.2758 O   0  0  0  0  0  0  0  0  0  0  0  0
   10.8387  -15.4023   23.3719 N   0  0  0  0  0  0  0  0  0  0  0  0
   11.9310  -16.0778   24.0613 C   0  0  0  0  0  0  0  0  0  0  0  0
   13.1781  -15.9873   23.2831 C   0  0  0  0  0  0  0  0  0  0  0  0
   14.0824  -15.2130   23.6901 O   0  0  0  0  0  0  0  0  0  0  0  0
   13.4237  -16.6944   22.1361 O   0  0  0  0  0  0  0  0  0  0  0  0
  1  2  1  0
  3  4  1  0
  3  2  1  0
  5  7  1  0
  5  6  1  1
  5  4  1  0
  7  8  2  0
  9 10  1  0
 10 12  1  0
 11 10  2  0
 12 13  1  0
 14 13  1  6
 14 16  1  0
 15 14  1  0
 15  7  1  0
 16 17  2  0
 16 18  1  0
 18 19  1  0
 19 20  1  0
 20 21  2  0
 20 22  1  0
M  END
$$$$
