MQG.pdb
     RDKit          3D

 22 21  0  0  1  0  0  0  0  0999 V2000
    7.3654  -11.1359   26.6691 C   0  0  0  0  0  0  0  0  0  0  0  0
    6.5405  -12.4530   27.5794 S   0  0  0  0  0  0  0  0  0  0  0  0
    6.0265  -13.7998   26.4560 C   0  0  0  0  0  0  0  0  0  0  0  0
    7.2590  -14.2438   25.7005 C   0  0  0  0  0  0  0  0  0  0  0  0
    6.8304  -15.3383   24.7469 C   0  0  2  0  0  0  0  0  0  0  0  0
    6.3645  -16.4924   25.4873 N   0  0  0  0  0  0  0  0  0  0  0  0
    7.8848  -15.7269   23.8050 C   0  0  0  0  0  0  0  0  0  0  0  0
    8.5373  -16.7767   24.0144 O   0  0  0  0  0  0  0  0  0  0  0  0
    8.5588  -12.8144   18.5279 N   0  0  0  0  0  0  0  0  0  0  0  0
    7.5652  -13.7899   18.7645 C   0  0  0  0  0  0  0  0  0  0  0  0
    6.5106  -13.7892   18.1029 O   0  0  0  0  0  0  0  0  0  0  0  0
    7.7861  -14.8107   19.8023 C   0  0  0  0  0  0  0  0  0  0  0  0
    9.1214  -14.5947   20.4378 C   0  0  0  0  0  0  0  0  0  0  0  0
    9.2829  -15.3704   21.7307 C   0  0  2  0  0  0  0  0  0  0  0  0
    8.2281  -14.9815   22.6448 N   0  0  0  0  0  0  0  0  0  0  0  0
   10.6289  -15.1406   22.3078 C   0  0  0  0  0  0  0  0  0  0  0  0
   11.2465  -14.0800   22.0445 O   0  0  0  0  0  0  0  0  0  0  0  0
   11.1987  -16.1177   23.1462 N   0  0  0  0  0  0  0  0  0  0  0  0
   12.5453  -16.0067   23.6928 C   0  0  0  0  0  0  0  0  0  0  0  0
   12.8953  -17.2058   24.4728 C   0  0  0  0  0  0  0  0  0  0  0  0
   14.0360  -17.2644   25.0003 O   0  0  0  0  0  0  0  0  0  0  0  0
   12.0569  -18.2716   24.6655 O   0  0  0  0  0  0  0  0  0  0  0  0
  1  2  1  0
  3  4  1  0
  3  2  1  0
  5  7  1  0
  5  6  1  1
  5  4  1  0
  7  8  2  0
  9 10  1  0
 10 12  1  0
 11 10  2  0
 12 13  1  0
 14 13  1  6
 14 16  1  0
 15 14  1  0
 15  7  1  0
 16 17  2  0
 16 18  1  0
 18 19  1  0
 19 20  1  0
 20 21  2  0
 20 22  1  0
M  END
$$$$
