MQG.pdb
     RDKit          3D

 22 21  0  0  1  0  0  0  0  0999 V2000
    7.7395  -11.6186   27.6851 C   0  0  0  0  0  0  0  0  0  0  0  0
    5.9961  -11.7480   27.2518 S   0  0  0  0  0  0  0  0  0  0  0  0
    5.5885  -13.4366   26.6838 C   0  0  0  0  0  0  0  0  0  0  0  0
    6.8714  -14.0582   26.1792 C   0  0  0  0  0  0  0  0  0  0  0  0
    6.5031  -15.3633   25.5069 C   0  0  2  0  0  0  0  0  0  0  0  0
    6.4917  -16.4393   26.4763 N   0  0  0  0  0  0  0  0  0  0  0  0
    7.3807  -15.6990   24.3813 C   0  0  0  0  0  0  0  0  0  0  0  0
    8.1387  -16.6936   24.4703 O   0  0  0  0  0  0  0  0  0  0  0  0
    7.5448  -12.7286   18.8496 N   0  0  0  0  0  0  0  0  0  0  0  0
    8.4711  -13.7657   18.6026 C   0  0  0  0  0  0  0  0  0  0  0  0
    8.9811  -13.9004   17.4749 O   0  0  0  0  0  0  0  0  0  0  0  0
    8.8305  -14.6894   19.6915 C   0  0  0  0  0  0  0  0  0  0  0  0
    8.0335  -14.3563   20.9110 C   0  0  0  0  0  0  0  0  0  0  0  0
    8.2904  -15.3182   22.0548 C   0  0  2  0  0  0  0  0  0  0  0  0
    7.4350  -14.9604   23.1683 N   0  0  0  0  0  0  0  0  0  0  0  0
    9.7243  -15.3044   22.4309 C   0  0  0  0  0  0  0  0  0  0  0  0
   10.1948  -14.3225   23.0555 O   0  0  0  0  0  0  0  0  0  0  0  0
   10.5420  -16.3960   22.0816 N   0  0  0  0  0  0  0  0  0  0  0  0
   11.8511  -16.6295   22.6784 C   0  0  0  0  0  0  0  0  0  0  0  0
   12.9258  -16.1744   21.7803 C   0  0  0  0  0  0  0  0  0  0  0  0
   14.1155  -16.2570   22.1810 O   0  0  0  0  0  0  0  0  0  0  0  0
   12.7176  -15.6626   20.5270 O   0  0  0  0  0  0  0  0  0  0  0  0
  1  2  1  0
  3  4  1  0
  3  2  1  0
  5  7  1  0
  5  6  1  1
  5  4  1  0
  7  8  2  0
  9 10  1  0
 10 12  1  0
 11 10  2  0
 12 13  1  0
 14 13  1  6
 14 16  1  0
 15 14  1  0
 15  7  1  0
 16 17  2  0
 16 18  1  0
 18 19  1  0
 19 20  1  0
 20 21  2  0
 20 22  1  0
M  END
$$$$
