MQG.pdb
     RDKit          3D

 22 21  0  0  1  0  0  0  0  0999 V2000
    6.1179  -11.3160   26.5623 C   0  0  0  0  0  0  0  0  0  0  0  0
    6.3892  -13.0468   26.1446 S   0  0  0  0  0  0  0  0  0  0  0  0
    7.7796  -13.7400   27.1070 C   0  0  0  0  0  0  0  0  0  0  0  0
    7.8610  -15.2129   26.7737 C   0  0  0  0  0  0  0  0  0  0  0  0
    6.9172  -15.4638   25.6174 C   0  0  2  0  0  0  0  0  0  0  0  0
    5.9349  -16.4636   25.9816 N   0  0  0  0  0  0  0  0  0  0  0  0
    7.6083  -15.8521   24.3839 C   0  0  0  0  0  0  0  0  0  0  0  0
    8.1448  -16.9829   24.3117 O   0  0  0  0  0  0  0  0  0  0  0  0
    7.4724  -12.7858   18.9229 N   0  0  0  0  0  0  0  0  0  0  0  0
    8.2645  -13.9017   18.5734 C   0  0  0  0  0  0  0  0  0  0  0  0
    8.5739  -14.1083   17.3853 O   0  0  0  0  0  0  0  0  0  0  0  0
    8.7233  -14.8219   19.6273 C   0  0  0  0  0  0  0  0  0  0  0  0
    8.1163  -14.4253   20.9341 C   0  0  0  0  0  0  0  0  0  0  0  0
    8.4687  -15.3846   22.0545 C   0  0  2  0  0  0  0  0  0  0  0  0
    7.7162  -15.0190   23.2375 N   0  0  0  0  0  0  0  0  0  0  0  0
    9.9301  -15.3764   22.3028 C   0  0  0  0  0  0  0  0  0  0  0  0
   10.4522  -14.4135   22.9159 O   0  0  0  0  0  0  0  0  0  0  0  0
   10.7158  -16.4519   21.8465 N   0  0  0  0  0  0  0  0  0  0  0  0
   12.1520  -16.5399   22.0791 C   0  0  0  0  0  0  0  0  0  0  0  0
   12.7193  -17.7256   21.4148 C   0  0  0  0  0  0  0  0  0  0  0  0
   12.0840  -18.8095   21.4807 O   0  0  0  0  0  0  0  0  0  0  0  0
   13.9019  -17.7297   20.7237 O   0  0  0  0  0  0  0  0  0  0  0  0
  1  2  1  0
  3  4  1  0
  3  2  1  0
  5  7  1  0
  5  6  1  1
  5  4  1  0
  7  8  2  0
  9 10  1  0
 10 12  1  0
 11 10  2  0
 12 13  1  0
 14 13  1  6
 14 16  1  0
 15 14  1  0
 15  7  1  0
 16 17  2  0
 16 18  1  0
 18 19  1  0
 19 20  1  0
 20 21  2  0
 20 22  1  0
M  END
$$$$
