GYD.pdb
     RDKit          3D

 25 25  0  0  1  0  0  0  0  0999 V2000
   14.4307  -14.0270   39.6652 N   0  0  0  0  0  0  0  0  0  0  0  0
   14.2295  -14.2363   38.2673 C   0  0  0  0  0  0  0  0  0  0  0  0
   13.0265  -15.1042   38.0028 C   0  0  0  0  0  0  0  0  0  0  0  0
   12.6360  -15.9350   38.8556 O   0  0  0  0  0  0  0  0  0  0  0  0
    8.2164  -12.7586   41.2988 O   0  0  0  0  0  0  0  0  0  0  0  0
    8.6338  -13.3123   40.0760 C   0  0  0  0  0  0  0  0  0  0  0  0
    8.4017  -14.6313   39.8179 C   0  0  0  0  0  0  0  0  0  0  0  0
    8.8104  -15.1804   38.6174 C   0  0  0  0  0  0  0  0  0  0  0  0
    9.4540  -14.4337   37.6549 C   0  0  0  0  0  0  0  0  0  0  0  0
    9.8929  -14.9968   36.3843 C   0  0  0  0  0  0  0  0  0  0  0  0
   11.1524  -15.8021   36.4319 C   0  0  2  0  0  0  0  0  0  0  0  0
   12.3053  -15.0061   36.7874 N   0  0  0  0  0  0  0  0  0  0  0  0
   11.3826  -16.3798   35.0728 C   0  0  0  0  0  0  0  0  0  0  0  0
   11.8653  -15.6696   34.1571 O   0  0  0  0  0  0  0  0  0  0  0  0
    9.6830  -13.1026   37.9267 C   0  0  0  0  0  0  0  0  0  0  0  0
    9.2734  -12.5386   39.1386 C   0  0  0  0  0  0  0  0  0  0  0  0
   11.0740  -17.7280   34.7600 N   0  0  0  0  0  0  0  0  0  0  0  0
   11.3034  -18.2282   33.4363 C   0  0  1  0  0  0  0  0  0  0  0  0
   12.4524  -19.2116   33.3784 C   0  0  0  0  0  0  0  0  0  0  0  0
   13.7053  -18.4347   33.2740 C   0  0  0  0  0  0  0  0  0  0  0  0
   13.8145  -17.4710   32.4888 O   0  0  0  0  0  0  0  0  0  0  0  0
   10.0657  -18.8181   32.8778 C   0  0  0  0  0  0  0  0  0  0  0  0
    9.9277  -18.9129   31.6388 O   0  0  0  0  0  0  0  0  0  0  0  0
   14.7807  -18.7832   34.0641 O   0  0  0  0  0  0  0  0  0  0  0  0
    9.0858  -19.2517   33.7466 O   0  0  0  0  0  0  0  0  0  0  0  0
  1  2  1  0
  3  4  2  0
  3  2  1  0
  6  5  1  0
  7  6  2  0
  8  7  1  0
  9  8  2  0
  9 15  1  0
 11 10  1  6
 10  9  1  0
 11 12  1  0
 12  3  1  0
 13 17  1  0
 13 11  1  0
 14 13  2  0
 15 16  2  0
 16  6  1  0
 18 22  1  0
 18 17  1  0
 18 19  1  1
 19 20  1  0
 20 21  2  0
 22 25  1  0
 23 22  2  0
 24 20  1  0
M  END
$$$$
