GYD.pdb
     RDKit          3D

 25 25  0  0  1  0  0  0  0  0999 V2000
    5.8204  -19.0093   25.0569 N   0  0  0  0  0  0  0  0  0  0  0  0
    6.7614  -18.0169   25.4671 C   0  0  0  0  0  0  0  0  0  0  0  0
    7.1529  -17.1162   24.3243 C   0  0  0  0  0  0  0  0  0  0  0  0
    6.6575  -17.2754   23.1845 O   0  0  0  0  0  0  0  0  0  0  0  0
    5.4409  -11.7056   27.9151 O   0  0  0  0  0  0  0  0  0  0  0  0
    6.3041  -12.2321   26.9386 C   0  0  0  0  0  0  0  0  0  0  0  0
    7.4606  -12.8463   27.3202 C   0  0  0  0  0  0  0  0  0  0  0  0
    8.3127  -13.3653   26.3642 C   0  0  0  0  0  0  0  0  0  0  0  0
    8.0340  -13.2849   25.0173 C   0  0  0  0  0  0  0  0  0  0  0  0
    8.9219  -13.8254   23.9957 C   0  0  0  0  0  0  0  0  0  0  0  0
    8.5574  -15.1768   23.4682 C   0  0  2  0  0  0  0  0  0  0  0  0
    8.0884  -16.0678   24.5051 N   0  0  0  0  0  0  0  0  0  0  0  0
    9.7797  -15.7769   22.8519 C   0  0  0  0  0  0  0  0  0  0  0  0
   10.2364  -15.3174   21.7767 O   0  0  0  0  0  0  0  0  0  0  0  0
    6.8631  -12.6624   24.6436 C   0  0  0  0  0  0  0  0  0  0  0  0
    5.9951  -12.1341   25.6039 C   0  0  0  0  0  0  0  0  0  0  0  0
   10.4668  -16.8691   23.4398 N   0  0  0  0  0  0  0  0  0  0  0  0
   11.5547  -17.4910   22.7436 C   0  0  1  0  0  0  0  0  0  0  0  0
   12.8519  -17.4296   23.5209 C   0  0  0  0  0  0  0  0  0  0  0  0
   13.6336  -16.2873   23.0029 C   0  0  0  0  0  0  0  0  0  0  0  0
   13.5601  -15.9313   21.8091 O   0  0  0  0  0  0  0  0  0  0  0  0
   11.2146  -18.8852   22.3797 C   0  0  0  0  0  0  0  0  0  0  0  0
   10.1068  -19.3605   22.7116 O   0  0  0  0  0  0  0  0  0  0  0  0
   14.4648  -15.5971   23.8602 O   0  0  0  0  0  0  0  0  0  0  0  0
   12.1374  -19.6324   21.6776 O   0  0  0  0  0  0  0  0  0  0  0  0
  1  2  1  0
  3  4  2  0
  3  2  1  0
  6  5  1  0
  7  6  2  0
  8  7  1  0
  9  8  2  0
  9 15  1  0
 11 10  1  1
 10  9  1  0
 11 12  1  0
 12  3  1  0
 13 17  1  0
 13 11  1  0
 14 13  2  0
 15 16  2  0
 16  6  1  0
 18 22  1  0
 18 17  1  0
 18 19  1  1
 19 20  1  0
 20 21  2  0
 22 25  1  0
 23 22  2  0
 24 20  1  0
M  END
$$$$
