GYD.pdb
     RDKit          3D

 25 25  0  0  1  0  0  0  0  0999 V2000
    7.9540  -13.1350   19.1439 N   0  0  0  0  0  0  0  0  0  0  0  0
    7.4585  -14.1326   20.0371 C   0  0  0  0  0  0  0  0  0  0  0  0
    8.3332  -14.2707   21.2563 C   0  0  0  0  0  0  0  0  0  0  0  0
    9.4633  -13.7312   21.2984 O   0  0  0  0  0  0  0  0  0  0  0  0
    6.0208  -10.2220   26.9867 O   0  0  0  0  0  0  0  0  0  0  0  0
    6.4287  -11.4535   26.4453 C   0  0  0  0  0  0  0  0  0  0  0  0
    7.5815  -12.0354   26.8844 C   0  0  0  0  0  0  0  0  0  0  0  0
    7.9869  -13.2458   26.3551 C   0  0  0  0  0  0  0  0  0  0  0  0
    7.2586  -13.8985   25.3846 C   0  0  0  0  0  0  0  0  0  0  0  0
    7.6721  -15.1746   24.8147 C   0  0  0  0  0  0  0  0  0  0  0  0
    8.6039  -15.0926   23.6476 C   0  0  2  0  0  0  0  0  0  0  0  0
    7.9045  -15.0114   22.3853 N   0  0  0  0  0  0  0  0  0  0  0  0
    9.4438  -16.3290   23.6396 C   0  0  0  0  0  0  0  0  0  0  0  0
    8.9849  -17.4021   23.1774 O   0  0  0  0  0  0  0  0  0  0  0  0
    6.0960  -13.3013   24.9489 C   0  0  0  0  0  0  0  0  0  0  0  0
    5.6783  -12.0767   25.4784 C   0  0  0  0  0  0  0  0  0  0  0  0
   10.7696  -16.3480   24.1421 N   0  0  0  0  0  0  0  0  0  0  0  0
   11.5077  -17.5765   24.1729 C   0  0  1  0  0  0  0  0  0  0  0  0
   13.0041  -17.3560   24.1189 C   0  0  0  0  0  0  0  0  0  0  0  0
   13.3283  -16.7897   22.7928 C   0  0  0  0  0  0  0  0  0  0  0  0
   12.6799  -17.0992   21.7726 O   0  0  0  0  0  0  0  0  0  0  0  0
   11.1284  -18.3856   25.3532 C   0  0  0  0  0  0  0  0  0  0  0  0
   11.3789  -19.6104   25.3724 O   0  0  0  0  0  0  0  0  0  0  0  0
   14.3734  -15.8969   22.6799 O   0  0  0  0  0  0  0  0  0  0  0  0
   10.5015  -17.7624   26.4122 O   0  0  0  0  0  0  0  0  0  0  0  0
  1  2  1  0
  3  4  2  0
  3  2  1  0
  6  5  1  0
  7  6  2  0
  8  7  1  0
  9  8  2  0
  9 15  1  0
 11 10  1  1
 10  9  1  0
 11 12  1  0
 12  3  1  0
 13 17  1  0
 13 11  1  0
 14 13  2  0
 15 16  2  0
 16  6  1  0
 18 22  1  0
 18 17  1  0
 18 19  1  1
 19 20  1  0
 20 21  2  0
 22 25  1  0
 23 22  2  0
 24 20  1  0
M  END
$$$$
