GYD.pdb
     RDKit          3D

 25 25  0  0  1  0  0  0  0  0999 V2000
    5.0987  -18.9054   23.5528 N   0  0  0  0  0  0  0  0  0  0  0  0
    6.0209  -18.3608   24.4970 C   0  0  0  0  0  0  0  0  0  0  0  0
    6.9263  -17.3371   23.8625 C   0  0  0  0  0  0  0  0  0  0  0  0
    6.8977  -17.1352   22.6262 O   0  0  0  0  0  0  0  0  0  0  0  0
    4.6848  -11.3138   27.1082 O   0  0  0  0  0  0  0  0  0  0  0  0
    5.7508  -12.1020   26.6409 C   0  0  0  0  0  0  0  0  0  0  0  0
    5.7969  -13.4289   26.9534 C   0  0  0  0  0  0  0  0  0  0  0  0
    6.8428  -14.2080   26.4967 C   0  0  0  0  0  0  0  0  0  0  0  0
    7.8579  -13.6870   25.7244 C   0  0  0  0  0  0  0  0  0  0  0  0
    8.9689  -14.4938   25.2356 C   0  0  0  0  0  0  0  0  0  0  0  0
    8.6333  -15.4754   24.1580 C   0  0  2  0  0  0  0  0  0  0  0  0
    7.8322  -16.5767   24.6424 N   0  0  0  0  0  0  0  0  0  0  0  0
    9.9142  -16.0278   23.6214 C   0  0  0  0  0  0  0  0  0  0  0  0
   10.6304  -15.3358   22.8572 O   0  0  0  0  0  0  0  0  0  0  0  0
    7.8007  -12.3457   25.4151 C   0  0  0  0  0  0  0  0  0  0  0  0
    6.7466  -11.5497   25.8730 C   0  0  0  0  0  0  0  0  0  0  0  0
   10.3716  -17.3308   23.9434 N   0  0  0  0  0  0  0  0  0  0  0  0
   11.6722  -17.7598   23.5198 C   0  0  1  0  0  0  0  0  0  0  0  0
   12.5517  -16.6063   23.0877 C   0  0  0  0  0  0  0  0  0  0  0  0
   13.8066  -17.1732   22.5510 C   0  0  0  0  0  0  0  0  0  0  0  0
   13.8149  -17.9029   21.5387 O   0  0  0  0  0  0  0  0  0  0  0  0
   12.3269  -18.5658   24.5749 C   0  0  0  0  0  0  0  0  0  0  0  0
   11.9707  -18.4354   25.7662 O   0  0  0  0  0  0  0  0  0  0  0  0
   14.9982  -16.8887   23.1844 O   0  0  0  0  0  0  0  0  0  0  0  0
   13.3238  -19.4485   24.2141 O   0  0  0  0  0  0  0  0  0  0  0  0
  1  2  1  0
  3  4  2  0
  3  2  1  0
  6  5  1  0
  7  6  2  0
  8  7  1  0
  9  8  2  0
  9 15  1  0
 11 10  1  1
 10  9  1  0
 11 12  1  0
 12  3  1  0
 13 17  1  0
 13 11  1  0
 14 13  2  0
 15 16  2  0
 16  6  1  0
 18 22  1  0
 18 17  1  0
 18 19  1  1
 19 20  1  0
 20 21  2  0
 22 25  1  0
 23 22  2  0
 24 20  1  0
M  END
$$$$
