GYD.pdb
     RDKit          3D

 25 25  0  0  1  0  0  0  0  0999 V2000
    7.3131  -14.7413   19.4738 N   0  0  0  0  0  0  0  0  0  0  0  0
    6.8584  -15.2093   20.7437 C   0  0  0  0  0  0  0  0  0  0  0  0
    7.8691  -14.9420   21.8288 C   0  0  0  0  0  0  0  0  0  0  0  0
    9.0181  -14.5298   21.5466 O   0  0  0  0  0  0  0  0  0  0  0  0
   10.9644  -14.5819   30.2309 O   0  0  0  0  0  0  0  0  0  0  0  0
   10.1610  -14.6158   29.0779 C   0  0  0  0  0  0  0  0  0  0  0  0
    9.9571  -13.4722   28.3632 C   0  0  0  0  0  0  0  0  0  0  0  0
    9.1679  -13.5002   27.2292 C   0  0  0  0  0  0  0  0  0  0  0  0
    8.5692  -14.6590   26.7852 C   0  0  0  0  0  0  0  0  0  0  0  0
    7.7330  -14.7063   25.5924 C   0  0  0  0  0  0  0  0  0  0  0  0
    8.4536  -14.9457   24.3038 C   0  0  2  0  0  0  0  0  0  0  0  0
    7.5504  -15.1484   23.1937 N   0  0  0  0  0  0  0  0  0  0  0  0
    9.2856  -16.1773   24.4621 C   0  0  0  0  0  0  0  0  0  0  0  0
    8.7509  -17.3121   24.4148 O   0  0  0  0  0  0  0  0  0  0  0  0
    8.7823  -15.8079   27.5150 C   0  0  0  0  0  0  0  0  0  0  0  0
    9.5789  -15.7889   28.6638 C   0  0  0  0  0  0  0  0  0  0  0  0
   10.6875  -16.1237   24.6681 N   0  0  0  0  0  0  0  0  0  0  0  0
   11.4615  -17.3302   24.6538 C   0  0  1  0  0  0  0  0  0  0  0  0
   12.7700  -17.1715   23.9099 C   0  0  0  0  0  0  0  0  0  0  0  0
   12.4817  -17.2766   22.4642 C   0  0  0  0  0  0  0  0  0  0  0  0
   11.6150  -18.0595   22.0247 O   0  0  0  0  0  0  0  0  0  0  0  0
   11.6856  -17.8247   26.0311 C   0  0  0  0  0  0  0  0  0  0  0  0
   11.3434  -17.1211   27.0063 O   0  0  0  0  0  0  0  0  0  0  0  0
   13.1879  -16.4897   21.5786 O   0  0  0  0  0  0  0  0  0  0  0  0
   12.2728  -19.0606   26.2058 O   0  0  0  0  0  0  0  0  0  0  0  0
  1  2  1  0
  3  4  2  0
  3  2  1  0
  6  5  1  0
  7  6  2  0
  8  7  1  0
  9  8  2  0
  9 15  1  0
 11 10  1  1
 10  9  1  0
 11 12  1  0
 12  3  1  0
 13 17  1  0
 13 11  1  0
 14 13  2  0
 15 16  2  0
 16  6  1  0
 18 22  1  0
 18 17  1  0
 18 19  1  1
 19 20  1  0
 20 21  2  0
 22 25  1  0
 23 22  2  0
 24 20  1  0
M  END
$$$$
