GYD.pdb
     RDKit          3D

 25 25  0  0  1  0  0  0  0  0999 V2000
    6.0703  -19.5753   19.9527 N   0  0  0  0  0  0  0  0  0  0  0  0
    5.9433  -18.8753   21.1905 C   0  0  0  0  0  0  0  0  0  0  0  0
    7.2066  -18.1325   21.5410 C   0  0  0  0  0  0  0  0  0  0  0  0
    8.2669  -18.3364   20.9053 O   0  0  0  0  0  0  0  0  0  0  0  0
    7.7083  -12.0753   18.3615 O   0  0  0  0  0  0  0  0  0  0  0  0
    7.8121  -12.8004   19.5613 C   0  0  0  0  0  0  0  0  0  0  0  0
    9.0427  -13.0590   20.0896 C   0  0  0  0  0  0  0  0  0  0  0  0
    9.1500  -13.7716   21.2687 C   0  0  0  0  0  0  0  0  0  0  0  0
    8.0428  -14.2385   21.9426 C   0  0  0  0  0  0  0  0  0  0  0  0
    8.1378  -14.9927   23.1862 C   0  0  0  0  0  0  0  0  0  0  0  0
    8.3988  -16.4580   23.0382 C   0  0  2  0  0  0  0  0  0  0  0  0
    7.2316  -17.1863   22.5951 N   0  0  0  0  0  0  0  0  0  0  0  0
    8.8053  -16.9917   24.3738 C   0  0  0  0  0  0  0  0  0  0  0  0
    7.9816  -17.0204   25.3207 O   0  0  0  0  0  0  0  0  0  0  0  0
    6.8051  -13.9713   21.3996 C   0  0  0  0  0  0  0  0  0  0  0  0
    6.6869  -13.2514   20.2070 C   0  0  0  0  0  0  0  0  0  0  0  0
   10.1116  -17.4806   24.6291 N   0  0  0  0  0  0  0  0  0  0  0  0
   10.4528  -17.9694   25.9328 C   0  0  1  0  0  0  0  0  0  0  0  0
   11.1050  -19.3344   25.8885 C   0  0  0  0  0  0  0  0  0  0  0  0
   10.0473  -20.3303   25.6173 C   0  0  0  0  0  0  0  0  0  0  0  0
    9.8872  -20.8224   24.4817 O   0  0  0  0  0  0  0  0  0  0  0  0
   11.3027  -16.9934   26.6519 C   0  0  0  0  0  0  0  0  0  0  0  0
   11.4539  -17.0952   27.8888 O   0  0  0  0  0  0  0  0  0  0  0  0
    9.2166  -20.7260   26.6446 O   0  0  0  0  0  0  0  0  0  0  0  0
   11.9116  -15.9861   25.9326 O   0  0  0  0  0  0  0  0  0  0  0  0
  1  2  1  0
  3  4  2  0
  3  2  1  0
  6  5  1  0
  7  6  2  0
  8  7  1  0
  9  8  2  0
  9 15  1  0
 11 10  1  1
 10  9  1  0
 11 12  1  0
 12  3  1  0
 13 17  1  0
 13 11  1  0
 14 13  2  0
 15 16  2  0
 16  6  1  0
 18 22  1  0
 18 17  1  0
 18 19  1  6
 19 20  1  0
 20 21  2  0
 22 25  1  0
 23 22  2  0
 24 20  1  0
M  END
$$$$
