GYD.pdb
     RDKit          3D

 25 25  0  0  1  0  0  0  0  0999 V2000
   -3.6065  -25.0019   25.8454 N   0  0  0  0  0  0  0  0  0  0  0  0
   -4.5958  -25.6289   26.6618 C   0  0  0  0  0  0  0  0  0  0  0  0
   -5.0540  -24.7221   27.7746 C   0  0  0  0  0  0  0  0  0  0  0  0
   -4.3536  -23.7486   28.1372 O   0  0  0  0  0  0  0  0  0  0  0  0
   -9.5036  -21.0087   24.5764 O   0  0  0  0  0  0  0  0  0  0  0  0
   -9.1929  -21.7059   25.7568 C   0  0  0  0  0  0  0  0  0  0  0  0
   -9.5532  -21.1837   26.9641 C   0  0  0  0  0  0  0  0  0  0  0  0
   -9.2498  -21.8651   28.1274 C   0  0  0  0  0  0  0  0  0  0  0  0
   -8.5863  -23.0724   28.1140 C   0  0  0  0  0  0  0  0  0  0  0  0
   -8.2572  -23.8037   29.3311 C   0  0  0  0  0  0  0  0  0  0  0  0
   -6.8108  -24.1361   29.5174 C   0  0  2  0  0  0  0  0  0  0  0  0
   -6.2850  -24.9435   28.4400 N   0  0  0  0  0  0  0  0  0  0  0  0
   -6.6746  -24.9071   30.7906 C   0  0  0  0  0  0  0  0  0  0  0  0
   -6.9347  -24.3618   31.8910 O   0  0  0  0  0  0  0  0  0  0  0  0
   -8.2274  -23.5902   26.8888 C   0  0  0  0  0  0  0  0  0  0  0  0
   -8.5299  -22.9077   25.7068 C   0  0  0  0  0  0  0  0  0  0  0  0
   -6.2549  -26.2613   30.8154 N   0  0  0  0  0  0  0  0  0  0  0  0
   -6.1479  -26.9566   32.0645 C   0  0  1  0  0  0  0  0  0  0  0  0
   -5.0873  -26.3660   32.9685 C   0  0  0  0  0  0  0  0  0  0  0  0
   -4.9080  -27.2846   34.1122 C   0  0  0  0  0  0  0  0  0  0  0  0
   -4.5383  -28.4656   33.9516 O   0  0  0  0  0  0  0  0  0  0  0  0
   -7.4609  -27.0132   32.7461 C   0  0  0  0  0  0  0  0  0  0  0  0
   -8.1039  -25.9591   32.9428 O   0  0  0  0  0  0  0  0  0  0  0  0
   -5.1552  -26.8254   35.3890 O   0  0  0  0  0  0  0  0  0  0  0  0
   -7.9464  -28.2389   33.1519 O   0  0  0  0  0  0  0  0  0  0  0  0
  1  2  1  0
  3  4  2  0
  3  2  1  0
  6  5  1  0
  7  6  2  0
  8  7  1  0
  9  8  2  0
  9 15  1  0
 11 10  1  6
 10  9  1  0
 11 12  1  0
 12  3  1  0
 13 17  1  0
 13 11  1  0
 14 13  2  0
 15 16  2  0
 16  6  1  0
 18 22  1  0
 18 17  1  0
 18 19  1  1
 19 20  1  0
 20 21  2  0
 22 25  1  0
 23 22  2  0
 24 20  1  0
M  END
$$$$
