GYD.pdb
     RDKit          3D

 25 25  0  0  1  0  0  0  0  0999 V2000
   -6.9292  -28.2267   30.3241 N   0  0  0  0  0  0  0  0  0  0  0  0
   -7.9164  -28.3591   29.3012 C   0  0  0  0  0  0  0  0  0  0  0  0
   -8.0851  -27.0799   28.5229 C   0  0  0  0  0  0  0  0  0  0  0  0
   -8.6993  -27.0707   27.4308 O   0  0  0  0  0  0  0  0  0  0  0  0
  -14.1111  -24.0327   28.7572 O   0  0  0  0  0  0  0  0  0  0  0  0
  -12.7135  -23.9284   28.8657 C   0  0  0  0  0  0  0  0  0  0  0  0
  -12.0904  -22.7779   28.4805 C   0  0  0  0  0  0  0  0  0  0  0  0
  -10.7167  -22.6705   28.5850 C   0  0  0  0  0  0  0  0  0  0  0  0
   -9.9392  -23.6984   29.0718 C   0  0  0  0  0  0  0  0  0  0  0  0
   -8.4895  -23.6027   29.1875 C   0  0  0  0  0  0  0  0  0  0  0  0
   -7.7070  -24.5705   28.3580 C   0  0  2  0  0  0  0  0  0  0  0  0
   -7.5562  -25.8559   29.0016 N   0  0  0  0  0  0  0  0  0  0  0  0
   -6.3457  -23.9942   28.1373 C   0  0  0  0  0  0  0  0  0  0  0  0
   -5.3943  -24.3123   28.8920 O   0  0  0  0  0  0  0  0  0  0  0  0
  -10.5795  -24.8556   29.4579 C   0  0  0  0  0  0  0  0  0  0  0  0
  -11.9688  -24.9734   29.3555 C   0  0  0  0  0  0  0  0  0  0  0  0
   -6.0700  -23.0813   27.0879 N   0  0  0  0  0  0  0  0  0  0  0  0
   -4.7313  -22.6144   26.8761 C   0  0  1  0  0  0  0  0  0  0  0  0
   -4.3277  -22.6510   25.4179 C   0  0  0  0  0  0  0  0  0  0  0  0
   -2.9244  -22.1963   25.3275 C   0  0  0  0  0  0  0  0  0  0  0  0
   -2.1511  -22.2609   26.3047 O   0  0  0  0  0  0  0  0  0  0  0  0
   -4.5530  -21.2599   27.4467 C   0  0  0  0  0  0  0  0  0  0  0  0
   -5.4704  -20.4169   27.3423 O   0  0  0  0  0  0  0  0  0  0  0  0
   -2.4576  -21.6881   24.1333 O   0  0  0  0  0  0  0  0  0  0  0  0
   -3.3677  -20.9587   28.0847 O   0  0  0  0  0  0  0  0  0  0  0  0
  1  2  1  0
  3  4  2  0
  3  2  1  0
  6  5  1  0
  7  6  2  0
  8  7  1  0
  9  8  2  0
  9 15  1  0
 11 10  1  1
 10  9  1  0
 11 12  1  0
 12  3  1  0
 13 17  1  0
 13 11  1  0
 14 13  2  0
 15 16  2  0
 16  6  1  0
 18 22  1  0
 18 17  1  0
 18 19  1  6
 19 20  1  0
 20 21  2  0
 22 25  1  0
 23 22  2  0
 24 20  1  0
M  END
$$$$
