GYD.pdb
     RDKit          3D

 25 25  0  0  1  0  0  0  0  0999 V2000
   10.0373  -16.8820   18.4803 N   0  0  0  0  0  0  0  0  0  0  0  0
    8.8339  -16.7265   19.2327 C   0  0  0  0  0  0  0  0  0  0  0  0
    9.0872  -16.0410   20.5505 C   0  0  0  0  0  0  0  0  0  0  0  0
   10.2539  -15.8978   20.9843 O   0  0  0  0  0  0  0  0  0  0  0  0
    7.0495  -11.8288   28.1780 O   0  0  0  0  0  0  0  0  0  0  0  0
    7.0067  -12.4310   26.9085 C   0  0  0  0  0  0  0  0  0  0  0  0
    6.5143  -13.6962   26.7777 C   0  0  0  0  0  0  0  0  0  0  0  0
    6.4703  -14.2927   25.5320 C   0  0  0  0  0  0  0  0  0  0  0  0
    6.9120  -13.6472   24.3978 C   0  0  0  0  0  0  0  0  0  0  0  0
    6.8742  -14.2617   23.0767 C   0  0  0  0  0  0  0  0  0  0  0  0
    8.1542  -14.8805   22.6120 C   0  0  2  0  0  0  0  0  0  0  0  0
    8.0177  -15.5407   21.3334 N   0  0  0  0  0  0  0  0  0  0  0  0
    8.5685  -15.8994   23.6239 C   0  0  0  0  0  0  0  0  0  0  0  0
    8.0519  -17.0435   23.6175 O   0  0  0  0  0  0  0  0  0  0  0  0
    7.4072  -12.3697   24.5421 C   0  0  0  0  0  0  0  0  0  0  0  0
    7.4559  -11.7584   25.7984 C   0  0  0  0  0  0  0  0  0  0  0  0
    9.5436  -15.6284   24.6171 N   0  0  0  0  0  0  0  0  0  0  0  0
   10.1319  -16.7055   25.3579 C   0  0  1  0  0  0  0  0  0  0  0  0
   11.5477  -17.0082   24.9166 C   0  0  0  0  0  0  0  0  0  0  0  0
   11.6168  -18.4455   24.5796 C   0  0  0  0  0  0  0  0  0  0  0  0
   10.6270  -19.1952   24.7033 O   0  0  0  0  0  0  0  0  0  0  0  0
   10.0711  -16.4352   26.8122 C   0  0  0  0  0  0  0  0  0  0  0  0
   10.4376  -17.3140   27.6225 O   0  0  0  0  0  0  0  0  0  0  0  0
   12.8048  -18.9714   24.1167 O   0  0  0  0  0  0  0  0  0  0  0  0
    9.6064  -15.2092   27.2411 O   0  0  0  0  0  0  0  0  0  0  0  0
  1  2  1  0
  3  4  2  0
  3  2  1  0
  6  5  1  0
  7  6  2  0
  8  7  1  0
  9  8  2  0
  9 15  1  0
 11 10  1  1
 10  9  1  0
 11 12  1  0
 12  3  1  0
 13 17  1  0
 13 11  1  0
 14 13  2  0
 15 16  2  0
 16  6  1  0
 18 22  1  0
 18 17  1  0
 18 19  1  6
 19 20  1  0
 20 21  2  0
 22 25  1  0
 23 22  2  0
 24 20  1  0
M  END
$$$$
