GYD.pdb
     RDKit          3D

 25 25  0  0  1  0  0  0  0  0999 V2000
    8.5116  -18.8136   17.4842 N   0  0  0  0  0  0  0  0  0  0  0  0
    8.1489  -18.6406   18.8542 C   0  0  0  0  0  0  0  0  0  0  0  0
    9.2018  -17.8776   19.6157 C   0  0  0  0  0  0  0  0  0  0  0  0
   10.2965  -17.5878   19.0793 O   0  0  0  0  0  0  0  0  0  0  0  0
    6.7901  -11.8962   18.4876 O   0  0  0  0  0  0  0  0  0  0  0  0
    7.3608  -12.7703   19.4290 C   0  0  0  0  0  0  0  0  0  0  0  0
    8.7059  -12.7374   19.6523 C   0  0  0  0  0  0  0  0  0  0  0  0
    9.2718  -13.5949   20.5765 C   0  0  0  0  0  0  0  0  0  0  0  0
    8.5164  -14.4969   21.2933 C   0  0  0  0  0  0  0  0  0  0  0  0
    9.0968  -15.4092   22.2705 C   0  0  0  0  0  0  0  0  0  0  0  0
    9.8406  -16.5776   21.7058 C   0  0  2  0  0  0  0  0  0  0  0  0
    8.9851  -17.4678   20.9544 N   0  0  0  0  0  0  0  0  0  0  0  0
   10.4295  -17.3445   22.8456 C   0  0  0  0  0  0  0  0  0  0  0  0
    9.7283  -18.1675   23.4835 O   0  0  0  0  0  0  0  0  0  0  0  0
    7.1589  -14.5212   21.0594 C   0  0  0  0  0  0  0  0  0  0  0  0
    6.5777  -13.6576   20.1261 C   0  0  0  0  0  0  0  0  0  0  0  0
   11.7786  -17.1829   23.2512 N   0  0  0  0  0  0  0  0  0  0  0  0
   12.3167  -18.0031   24.2966 C   0  0  1  0  0  0  0  0  0  0  0  0
   13.8279  -18.0767   24.2569 C   0  0  0  0  0  0  0  0  0  0  0  0
   14.2251  -18.4385   22.8801 C   0  0  0  0  0  0  0  0  0  0  0  0
   14.9049  -17.6687   22.1712 O   0  0  0  0  0  0  0  0  0  0  0  0
   11.8380  -17.5447   25.6204 C   0  0  0  0  0  0  0  0  0  0  0  0
   11.1678  -16.4928   25.7077 O   0  0  0  0  0  0  0  0  0  0  0  0
   13.8350  -19.6573   22.3658 O   0  0  0  0  0  0  0  0  0  0  0  0
   12.1469  -18.2961   26.7352 O   0  0  0  0  0  0  0  0  0  0  0  0
  1  2  1  0
  3  4  2  0
  3  2  1  0
  6  5  1  0
  7  6  2  0
  8  7  1  0
  9  8  2  0
  9 15  1  0
 11 10  1  1
 10  9  1  0
 11 12  1  0
 12  3  1  0
 13 17  1  0
 13 11  1  0
 14 13  2  0
 15 16  2  0
 16  6  1  0
 18 22  1  0
 18 17  1  0
 18 19  1  1
 19 20  1  0
 20 21  2  0
 22 25  1  0
 23 22  2  0
 24 20  1  0
M  END
$$$$
