GYD.pdb
     RDKit          3D

 25 25  0  0  1  0  0  0  0  0999 V2000
    7.1129  -14.3523   19.7058 N   0  0  0  0  0  0  0  0  0  0  0  0
    6.7942  -15.1259   20.8627 C   0  0  0  0  0  0  0  0  0  0  0  0
    7.8476  -14.9875   21.9312 C   0  0  0  0  0  0  0  0  0  0  0  0
    8.9366  -14.4180   21.6872 O   0  0  0  0  0  0  0  0  0  0  0  0
    6.1582   -9.9635   26.9923 O   0  0  0  0  0  0  0  0  0  0  0  0
    6.5746  -11.2643   26.6600 C   0  0  0  0  0  0  0  0  0  0  0  0
    5.6539  -12.2672   26.5761 C   0  0  0  0  0  0  0  0  0  0  0  0
    6.0582  -13.5477   26.2500 C   0  0  0  0  0  0  0  0  0  0  0  0
    7.3780  -13.8554   26.0019 C   0  0  0  0  0  0  0  0  0  0  0  0
    7.8219  -15.2004   25.6581 C   0  0  0  0  0  0  0  0  0  0  0  0
    8.5412  -15.3326   24.3533 C   0  0  2  0  0  0  0  0  0  0  0  0
    7.6376  -15.4953   23.2370 N   0  0  0  0  0  0  0  0  0  0  0  0
    9.4156  -16.5424   24.4288 C   0  0  0  0  0  0  0  0  0  0  0  0
    8.9246  -17.6880   24.2786 O   0  0  0  0  0  0  0  0  0  0  0  0
    8.2990  -12.8345   26.0895 C   0  0  0  0  0  0  0  0  0  0  0  0
    7.8992  -11.5360   26.4191 C   0  0  0  0  0  0  0  0  0  0  0  0
   10.8106  -16.4558   24.6679 N   0  0  0  0  0  0  0  0  0  0  0  0
   11.6009  -17.6492   24.7449 C   0  0  1  0  0  0  0  0  0  0  0  0
   13.0709  -17.3890   24.4955 C   0  0  0  0  0  0  0  0  0  0  0  0
   13.2145  -16.9156   23.1028 C   0  0  0  0  0  0  0  0  0  0  0  0
   12.3782  -17.2059   22.2232 O   0  0  0  0  0  0  0  0  0  0  0  0
   11.3911  -18.3332   26.0410 C   0  0  0  0  0  0  0  0  0  0  0  0
   11.7595  -19.5194   26.1835 O   0  0  0  0  0  0  0  0  0  0  0  0
   14.2995  -16.1333   22.7668 O   0  0  0  0  0  0  0  0  0  0  0  0
   10.7879  -17.6383   27.0688 O   0  0  0  0  0  0  0  0  0  0  0  0
  1  2  1  0
  3  4  2  0
  3  2  1  0
  6  5  1  0
  7  6  2  0
  8  7  1  0
  9  8  2  0
  9 15  1  0
 11 10  1  1
 10  9  1  0
 11 12  1  0
 12  3  1  0
 13 17  1  0
 13 11  1  0
 14 13  2  0
 15 16  2  0
 16  6  1  0
 18 22  1  0
 18 17  1  0
 18 19  1  1
 19 20  1  0
 20 21  2  0
 22 25  1  0
 23 22  2  0
 24 20  1  0
M  END
$$$$
