GYD.pdb
     RDKit          3D

 25 25  0  0  1  0  0  0  0  0999 V2000
    6.8789  -17.0986   20.4801 N   0  0  0  0  0  0  0  0  0  0  0  0
    6.2547  -17.1672   21.7624 C   0  0  0  0  0  0  0  0  0  0  0  0
    7.1931  -16.7388   22.8608 C   0  0  0  0  0  0  0  0  0  0  0  0
    8.3859  -16.4503   22.6080 O   0  0  0  0  0  0  0  0  0  0  0  0
    6.8438   -9.6784   25.5255 O   0  0  0  0  0  0  0  0  0  0  0  0
    6.8022  -11.0720   25.7044 C   0  0  0  0  0  0  0  0  0  0  0  0
    7.2808  -11.8929   24.7260 C   0  0  0  0  0  0  0  0  0  0  0  0
    7.2420  -13.2636   24.8970 C   0  0  0  0  0  0  0  0  0  0  0  0
    6.7297  -13.8425   26.0374 C   0  0  0  0  0  0  0  0  0  0  0  0
    6.6797  -15.2859   26.2337 C   0  0  0  0  0  0  0  0  0  0  0  0
    7.5203  -16.0973   25.2997 C   0  0  2  0  0  0  0  0  0  0  0  0
    6.7554  -16.6506   24.2053 N   0  0  0  0  0  0  0  0  0  0  0  0
    8.1131  -17.2283   26.0764 C   0  0  0  0  0  0  0  0  0  0  0  0
    8.8456  -16.9981   27.0696 O   0  0  0  0  0  0  0  0  0  0  0  0
    6.2492  -13.0035   27.0189 C   0  0  0  0  0  0  0  0  0  0  0  0
    6.2841  -11.6156   26.8545 C   0  0  0  0  0  0  0  0  0  0  0  0
    7.8809  -18.5852   25.7364 N   0  0  0  0  0  0  0  0  0  0  0  0
    8.9442  -19.5416   25.8344 C   0  0  1  0  0  0  0  0  0  0  0  0
    9.1600  -20.3038   24.5447 C   0  0  0  0  0  0  0  0  0  0  0  0
   10.2222  -21.3030   24.7844 C   0  0  0  0  0  0  0  0  0  0  0  0
   10.0007  -22.5279   24.6961 O   0  0  0  0  0  0  0  0  0  0  0  0
   10.1943  -18.8899   26.2863 C   0  0  0  0  0  0  0  0  0  0  0  0
   10.7069  -17.9837   25.5941 O   0  0  0  0  0  0  0  0  0  0  0  0
   11.4899  -20.8712   25.1138 O   0  0  0  0  0  0  0  0  0  0  0  0
   10.7683  -19.3033   27.4706 O   0  0  0  0  0  0  0  0  0  0  0  0
  1  2  1  0
  3  4  2  0
  3  2  1  0
  6  5  1  0
  7  6  2  0
  8  7  1  0
  9  8  2  0
  9 15  1  0
 11 10  1  1
 10  9  1  0
 11 12  1  0
 12  3  1  0
 13 17  1  0
 13 11  1  0
 14 13  2  0
 15 16  2  0
 16  6  1  0
 18 22  1  0
 18 17  1  0
 18 19  1  6
 19 20  1  0
 20 21  2  0
 22 25  1  0
 23 22  2  0
 24 20  1  0
M  END
$$$$
