DFC.pdb
     RDKit          3D

 26 26  0  0  1  0  0  0  0  0999 V2000
   27.9991  -22.1653  -17.4776 N   0  0  0  0  0  0  0  0  0  0  0  0
   27.7106  -20.8888  -16.7891 C   0  0  1  0  0  0  0  0  0  0  0  0
   26.8843  -20.0719  -17.7575 C   0  0  0  0  0  0  0  0  0  0  0  0
   27.6844  -19.2020  -18.6211 C   0  0  0  0  0  0  0  0  0  0  0  0
   28.6999  -19.6762  -19.1740 O   0  0  0  0  0  0  0  0  0  0  0  0
   26.8268  -21.2746  -15.6538 C   0  0  0  0  0  0  0  0  0  0  0  0
   26.1702  -22.3455  -15.7883 O   0  0  0  0  0  0  0  0  0  0  0  0
   27.3713  -17.8801  -18.8524 O   0  0  0  0  0  0  0  0  0  0  0  0
   26.6800  -20.5343  -14.4621 N   0  0  0  0  0  0  0  0  0  0  0  0
   25.8060  -20.9304  -13.3508 C   0  0  1  0  0  0  0  0  0  0  0  0
   26.2835  -20.3820  -12.0703 C   0  0  0  0  0  0  0  0  0  0  0  0
   25.4565  -20.5840  -10.8748 C   0  0  0  0  0  0  0  0  0  0  0  0
   24.2024  -19.9897  -10.7400 C   0  0  0  0  0  0  0  0  0  0  0  0
   23.4107  -20.2042   -9.6580 C   0  0  0  0  0  0  0  0  0  0  0  0
   23.8437  -21.0429   -8.6339 C   0  0  0  0  0  0  0  0  0  0  0  0
   25.0829  -21.6366   -8.7565 C   0  0  0  0  0  0  0  0  0  0  0  0
   25.8524  -21.4037   -9.8492 C   0  0  0  0  0  0  0  0  0  0  0  0
   24.4052  -20.7234  -13.7033 C   0  0  0  0  0  0  0  0  0  0  0  0
   24.1071  -19.5763  -14.2052 O   0  0  0  0  0  0  0  0  0  0  0  0
   23.3217  -21.6052  -13.5805 N   0  0  0  0  0  0  0  0  0  0  0  0
   21.9561  -21.2201  -13.9366 C   0  0  1  0  0  0  0  0  0  0  0  0
   21.5038  -21.9550  -15.1852 C   0  0  0  0  0  0  0  0  0  0  0  0
   21.7215  -23.7297  -14.8773 S   0  0  0  0  0  0  0  0  0  0  0  0
   21.0329  -21.5488  -12.8461 C   0  0  0  0  0  0  0  0  0  0  0  0
   19.6947  -21.1175  -12.8529 O   0  0  0  0  0  0  0  0  0  0  0  0
   21.4060  -22.2244  -11.8727 O   0  0  0  0  0  0  0  0  0  0  0  0
  2  1  1  6
  2  6  1  0
  2  3  1  0
  3  4  1  0
  4  5  2  0
  6  7  2  0
  8  4  1  0
  9 10  1  0
  9  6  1  0
 10 18  1  0
 11 12  1  0
 10 11  1  1
 12 17  2  0
 13 14  2  0
 13 12  1  0
 14 15  1  0
 15 16  2  0
 17 16  1  0
 18 19  2  0
 20 21  1  0
 20 18  1  0
 21 24  1  0
 21 22  1  6
 23 22  1  0
 24 26  2  0
 24 25  1  0
M  END
$$$$
