DFC.pdb
     RDKit          3D

 26 26  0  0  1  0  0  0  0  0999 V2000
   18.5961   -8.0657  -17.3329 N   0  0  0  0  0  0  0  0  0  0  0  0
   18.7106   -6.7311  -16.7062 C   0  0  1  0  0  0  0  0  0  0  0  0
   17.4233   -6.0071  -17.0323 C   0  0  0  0  0  0  0  0  0  0  0  0
   17.5156   -5.1536  -18.2180 C   0  0  0  0  0  0  0  0  0  0  0  0
   17.4878   -5.6901  -19.3463 O   0  0  0  0  0  0  0  0  0  0  0  0
   18.7143   -7.0108  -15.2431 C   0  0  0  0  0  0  0  0  0  0  0  0
   18.1575   -8.0823  -14.8719 O   0  0  0  0  0  0  0  0  0  0  0  0
   17.6341   -3.7825  -18.1488 O   0  0  0  0  0  0  0  0  0  0  0  0
   19.2888   -6.1713  -14.2659 N   0  0  0  0  0  0  0  0  0  0  0  0
   19.4077   -6.5246  -12.8458 C   0  0  1  0  0  0  0  0  0  0  0  0
   20.8174   -6.5969  -12.4265 C   0  0  0  0  0  0  0  0  0  0  0  0
   21.6734   -7.6213  -13.0363 C   0  0  0  0  0  0  0  0  0  0  0  0
   21.7278   -8.9235  -12.5407 C   0  0  0  0  0  0  0  0  0  0  0  0
   22.4828   -9.8901  -13.1230 C   0  0  0  0  0  0  0  0  0  0  0  0
   23.2380   -9.5958  -14.2554 C   0  0  0  0  0  0  0  0  0  0  0  0
   23.1920   -8.3105  -14.7548 C   0  0  0  0  0  0  0  0  0  0  0  0
   22.4285   -7.3651  -14.1519 C   0  0  0  0  0  0  0  0  0  0  0  0
   18.4953   -5.7192  -12.0406 C   0  0  0  0  0  0  0  0  0  0  0  0
   18.6967   -4.4481  -12.0505 O   0  0  0  0  0  0  0  0  0  0  0  0
   17.4115   -6.1315  -11.2517 N   0  0  0  0  0  0  0  0  0  0  0  0
   16.5908   -5.1859  -10.4953 C   0  0  1  0  0  0  0  0  0  0  0  0
   15.1156   -5.4512  -10.7340 C   0  0  0  0  0  0  0  0  0  0  0  0
   14.8068   -7.1929  -10.3300 S   0  0  0  0  0  0  0  0  0  0  0  0
   16.8578   -5.3141   -9.0593 C   0  0  0  0  0  0  0  0  0  0  0  0
   17.7176   -6.3036   -8.5512 O   0  0  0  0  0  0  0  0  0  0  0  0
   16.3286   -4.5464   -8.2384 O   0  0  0  0  0  0  0  0  0  0  0  0
  2  1  1  6
  2  6  1  0
  2  3  1  0
  3  4  1  0
  4  5  2  0
  6  7  2  0
  8  4  1  0
  9 10  1  0
  9  6  1  0
 10 18  1  0
 11 12  1  0
 10 11  1  1
 12 17  2  0
 13 14  2  0
 13 12  1  0
 14 15  1  0
 15 16  2  0
 17 16  1  0
 18 19  2  0
 20 21  1  0
 20 18  1  0
 21 24  1  0
 21 22  1  1
 23 22  1  0
 24 26  2  0
 24 25  1  0
M  END
$$$$
