DFC.pdb
     RDKit          3D

 26 26  0  0  1  0  0  0  0  0999 V2000
   16.9708  -11.9384  -18.3576 N   0  0  0  0  0  0  0  0  0  0  0  0
   17.6745  -10.7766  -18.9423 C   0  0  1  0  0  0  0  0  0  0  0  0
   16.6625  -10.0783  -19.8234 C   0  0  0  0  0  0  0  0  0  0  0  0
   16.4280  -10.7583  -21.0983 C   0  0  0  0  0  0  0  0  0  0  0  0
   15.5206  -10.3342  -21.8457 O   0  0  0  0  0  0  0  0  0  0  0  0
   17.9496   -9.8890  -17.7781 C   0  0  0  0  0  0  0  0  0  0  0  0
   17.1001   -9.9049  -16.8431 O   0  0  0  0  0  0  0  0  0  0  0  0
   17.1610  -11.8486  -21.5139 O   0  0  0  0  0  0  0  0  0  0  0  0
   19.0762   -9.0490  -17.6566 N   0  0  0  0  0  0  0  0  0  0  0  0
   19.3543   -8.2115  -16.4831 C   0  0  1  0  0  0  0  0  0  0  0  0
   20.7084   -8.4550  -15.9583 C   0  0  0  0  0  0  0  0  0  0  0  0
   21.2048   -7.5877  -14.8834 C   0  0  0  0  0  0  0  0  0  0  0  0
   21.8784   -6.3968  -15.1520 C   0  0  0  0  0  0  0  0  0  0  0  0
   22.3036   -5.5659  -14.1661 C   0  0  0  0  0  0  0  0  0  0  0  0
   22.0711   -5.8919  -12.8323 C   0  0  0  0  0  0  0  0  0  0  0  0
   21.4054   -7.0679  -12.5544 C   0  0  0  0  0  0  0  0  0  0  0  0
   20.9922   -7.8789  -13.5603 C   0  0  0  0  0  0  0  0  0  0  0  0
   18.9568   -6.8302  -16.7350 C   0  0  0  0  0  0  0  0  0  0  0  0
   19.3726   -6.3091  -17.8360 O   0  0  0  0  0  0  0  0  0  0  0  0
   18.1715   -5.9770  -15.9464 N   0  0  0  0  0  0  0  0  0  0  0  0
   17.9454   -4.5752  -16.2979 C   0  0  1  0  0  0  0  0  0  0  0  0
   16.4819   -4.2119  -16.1249 C   0  0  0  0  0  0  0  0  0  0  0  0
   15.5213   -5.3054  -17.2082 S   0  0  0  0  0  0  0  0  0  0  0  0
   18.7449   -3.6982  -15.4369 C   0  0  0  0  0  0  0  0  0  0  0  0
   18.7769   -2.3051  -15.6239 O   0  0  0  0  0  0  0  0  0  0  0  0
   19.4257   -4.1614  -14.5067 O   0  0  0  0  0  0  0  0  0  0  0  0
  2  1  1  1
  2  6  1  0
  2  3  1  0
  3  4  1  0
  4  5  2  0
  6  7  2  0
  8  4  1  0
  9 10  1  0
  9  6  1  0
 10 18  1  0
 11 12  1  0
 10 11  1  6
 12 17  2  0
 13 14  2  0
 13 12  1  0
 14 15  1  0
 15 16  2  0
 17 16  1  0
 18 19  2  0
 20 21  1  0
 20 18  1  0
 21 24  1  0
 21 22  1  1
 23 22  1  0
 24 26  2  0
 24 25  1  0
M  END
$$$$
