DFC.pdb
     RDKit          3D

 26 26  0  0  1  0  0  0  0  0999 V2000
   19.3729   -9.8790  -17.0320 N   0  0  0  0  0  0  0  0  0  0  0  0
   19.8870   -8.5293  -16.7147 C   0  0  1  0  0  0  0  0  0  0  0  0
   18.8673   -7.5566  -17.2643 C   0  0  0  0  0  0  0  0  0  0  0  0
   18.9111   -7.4233  -18.7214 C   0  0  0  0  0  0  0  0  0  0  0  0
   19.8435   -6.7692  -19.2356 O   0  0  0  0  0  0  0  0  0  0  0  0
   19.8291   -8.4535  -15.2282 C   0  0  0  0  0  0  0  0  0  0  0  0
   19.0317   -9.2470  -14.6532 O   0  0  0  0  0  0  0  0  0  0  0  0
   17.9688   -7.9848  -19.5554 O   0  0  0  0  0  0  0  0  0  0  0  0
   20.5933   -7.5694  -14.4382 N   0  0  0  0  0  0  0  0  0  0  0  0
   20.6460   -7.6140  -12.9715 C   0  0  1  0  0  0  0  0  0  0  0  0
   22.0350   -7.6663  -12.4855 C   0  0  0  0  0  0  0  0  0  0  0  0
   22.2656   -7.6698  -11.0360 C   0  0  0  0  0  0  0  0  0  0  0  0
   22.3055   -6.4890  -10.2955 C   0  0  0  0  0  0  0  0  0  0  0  0
   22.4750   -6.4832   -8.9484 C   0  0  0  0  0  0  0  0  0  0  0  0
   22.6161   -7.6851   -8.2593 C   0  0  0  0  0  0  0  0  0  0  0  0
   22.5782   -8.8599   -8.9816 C   0  0  0  0  0  0  0  0  0  0  0  0
   22.4076   -8.8350  -10.3273 C   0  0  0  0  0  0  0  0  0  0  0  0
   19.7580   -6.6085  -12.3973 C   0  0  0  0  0  0  0  0  0  0  0  0
   19.8489   -5.4215  -12.8866 O   0  0  0  0  0  0  0  0  0  0  0  0
   18.8017   -6.7484  -11.3812 N   0  0  0  0  0  0  0  0  0  0  0  0
   18.0217   -5.6167  -10.8805 C   0  0  1  0  0  0  0  0  0  0  0  0
   16.6189   -5.6388  -11.4597 C   0  0  0  0  0  0  0  0  0  0  0  0
   15.9161   -7.2752  -11.1129 S   0  0  0  0  0  0  0  0  0  0  0  0
   17.9200   -5.6743   -9.4190 C   0  0  0  0  0  0  0  0  0  0  0  0
   17.2957   -4.6547   -8.6791 O   0  0  0  0  0  0  0  0  0  0  0  0
   18.3860   -6.6335   -8.7818 O   0  0  0  0  0  0  0  0  0  0  0  0
  2  1  1  1
  2  6  1  0
  2  3  1  0
  3  4  1  0
  4  5  2  0
  6  7  2  0
  8  4  1  0
  9 10  1  0
  9  6  1  0
 10 18  1  0
 11 12  1  0
 10 11  1  6
 12 17  2  0
 13 14  2  0
 13 12  1  0
 14 15  1  0
 15 16  2  0
 17 16  1  0
 18 19  2  0
 20 21  1  0
 20 18  1  0
 21 24  1  0
 21 22  1  6
 23 22  1  0
 24 26  2  0
 24 25  1  0
M  END
$$$$
