DFC.pdb
     RDKit          3D

 26 26  0  0  1  0  0  0  0  0999 V2000
   21.4911  -13.1644  -18.7268 N   0  0  0  0  0  0  0  0  0  0  0  0
   20.4471  -12.1925  -19.1169 C   0  0  1  0  0  0  0  0  0  0  0  0
   19.1926  -13.0034  -19.3546 C   0  0  0  0  0  0  0  0  0  0  0  0
   19.2457  -13.8227  -20.5665 C   0  0  0  0  0  0  0  0  0  0  0  0
   19.9032  -13.4052  -21.5439 O   0  0  0  0  0  0  0  0  0  0  0  0
   20.2308  -11.3731  -17.8918 C   0  0  0  0  0  0  0  0  0  0  0  0
   19.1990  -11.6360  -17.2119 O   0  0  0  0  0  0  0  0  0  0  0  0
   18.6013  -15.0352  -20.6820 O   0  0  0  0  0  0  0  0  0  0  0  0
   21.0884  -10.3432  -17.4521 N   0  0  0  0  0  0  0  0  0  0  0  0
   20.8599   -9.5438  -16.2419 C   0  0  1  0  0  0  0  0  0  0  0  0
   22.1220   -9.2633  -15.5373 C   0  0  0  0  0  0  0  0  0  0  0  0
   22.1124   -8.2629  -14.4635 C   0  0  0  0  0  0  0  0  0  0  0  0
   21.8605   -8.6111  -13.1371 C   0  0  0  0  0  0  0  0  0  0  0  0
   21.8918   -7.7010  -12.1299 C   0  0  0  0  0  0  0  0  0  0  0  0
   22.1830   -6.3674  -12.4055 C   0  0  0  0  0  0  0  0  0  0  0  0
   22.4340   -6.0112  -13.7145 C   0  0  0  0  0  0  0  0  0  0  0  0
   22.3957   -6.9422  -14.7004 C   0  0  0  0  0  0  0  0  0  0  0  0
   19.9738   -8.4209  -16.5307 C   0  0  0  0  0  0  0  0  0  0  0  0
   20.2190   -7.7643  -17.6102 O   0  0  0  0  0  0  0  0  0  0  0  0
   18.8747   -7.9492  -15.7985 N   0  0  0  0  0  0  0  0  0  0  0  0
   18.1484   -6.7359  -16.1730 C   0  0  1  0  0  0  0  0  0  0  0  0
   16.6512   -6.9853  -16.1578 C   0  0  0  0  0  0  0  0  0  0  0  0
   15.8342   -5.3906  -16.4434 S   0  0  0  0  0  0  0  0  0  0  0  0
   18.4467   -5.6520  -15.2319 C   0  0  0  0  0  0  0  0  0  0  0  0
   18.8449   -4.3774  -15.6720 O   0  0  0  0  0  0  0  0  0  0  0  0
   18.3567   -5.8260  -14.0052 O   0  0  0  0  0  0  0  0  0  0  0  0
  2  1  1  1
  2  6  1  0
  2  3  1  0
  3  4  1  0
  4  5  2  0
  6  7  2  0
  8  4  1  0
  9 10  1  0
  9  6  1  0
 10 18  1  0
 11 12  1  0
 10 11  1  6
 12 17  2  0
 13 14  2  0
 13 12  1  0
 14 15  1  0
 15 16  2  0
 17 16  1  0
 18 19  2  0
 20 21  1  0
 20 18  1  0
 21 24  1  0
 21 22  1  1
 23 22  1  0
 24 26  2  0
 24 25  1  0
M  END
$$$$
