DFC.pdb
     RDKit          3D

 26 26  0  0  1  0  0  0  0  0999 V2000
   17.0083  -12.9408  -17.0274 N   0  0  0  0  0  0  0  0  0  0  0  0
   17.9885  -13.1373  -18.1171 C   0  0  1  0  0  0  0  0  0  0  0  0
   17.1805  -13.5097  -19.3404 C   0  0  0  0  0  0  0  0  0  0  0  0
   16.3277  -14.6831  -19.1442 C   0  0  0  0  0  0  0  0  0  0  0  0
   16.7501  -15.7996  -19.5142 O   0  0  0  0  0  0  0  0  0  0  0  0
   18.5594  -11.7809  -18.3476 C   0  0  0  0  0  0  0  0  0  0  0  0
   18.5166  -11.3444  -19.5324 O   0  0  0  0  0  0  0  0  0  0  0  0
   15.0766  -14.6147  -18.5709 O   0  0  0  0  0  0  0  0  0  0  0  0
   19.1331  -10.9697  -17.3464 N   0  0  0  0  0  0  0  0  0  0  0  0
   19.6575   -9.6189  -17.5833 C   0  0  1  0  0  0  0  0  0  0  0  0
   18.7085   -8.8027  -18.3588 C   0  0  0  0  0  0  0  0  0  0  0  0
   19.0156   -7.3819  -18.5610 C   0  0  0  0  0  0  0  0  0  0  0  0
   18.4720   -6.3894  -17.7463 C   0  0  0  0  0  0  0  0  0  0  0  0
   18.7831   -5.0764  -17.8971 C   0  0  0  0  0  0  0  0  0  0  0  0
   19.6733   -4.6817  -18.8926 C   0  0  0  0  0  0  0  0  0  0  0  0
   20.2175   -5.6551  -19.7049 C   0  0  0  0  0  0  0  0  0  0  0  0
   19.8882   -6.9596  -19.5310 C   0  0  0  0  0  0  0  0  0  0  0  0
   20.1944   -9.0553  -16.3490 C   0  0  0  0  0  0  0  0  0  0  0  0
   19.3947   -9.0246  -15.3410 O   0  0  0  0  0  0  0  0  0  0  0  0
   21.4739   -8.5412  -16.0937 N   0  0  0  0  0  0  0  0  0  0  0  0
   21.8699   -8.0495  -14.7740 C   0  0  1  0  0  0  0  0  0  0  0  0
   23.2718   -8.5183  -14.4295 C   0  0  0  0  0  0  0  0  0  0  0  0
   23.1969  -10.3146  -14.1853 S   0  0  0  0  0  0  0  0  0  0  0  0
   21.8530   -6.5837  -14.7498 C   0  0  0  0  0  0  0  0  0  0  0  0
   21.6324   -5.8261  -15.9135 O   0  0  0  0  0  0  0  0  0  0  0  0
   22.0345   -5.9584  -13.6918 O   0  0  0  0  0  0  0  0  0  0  0  0
  2  1  1  1
  2  6  1  0
  2  3  1  0
  3  4  1  0
  4  5  2  0
  6  7  2  0
  8  4  1  0
  9 10  1  0
  9  6  1  0
 10 18  1  0
 11 12  1  0
 10 11  1  1
 12 17  2  0
 13 14  2  0
 13 12  1  0
 14 15  1  0
 15 16  2  0
 17 16  1  0
 18 19  2  0
 20 21  1  0
 20 18  1  0
 21 24  1  0
 21 22  1  6
 23 22  1  0
 24 26  2  0
 24 25  1  0
M  END
$$$$
