DFC.pdb
     RDKit          3D

 26 26  0  0  1  0  0  0  0  0999 V2000
   40.4099   -6.9335  -11.4159 N   0  0  0  0  0  0  0  0  0  0  0  0
   40.5249   -6.9587   -9.9419 C   0  0  1  0  0  0  0  0  0  0  0  0
   41.9170   -6.4590   -9.6252 C   0  0  0  0  0  0  0  0  0  0  0  0
   42.9704   -7.4299   -9.9262 C   0  0  0  0  0  0  0  0  0  0  0  0
   42.9627   -8.5273   -9.3283 O   0  0  0  0  0  0  0  0  0  0  0  0
   39.5572   -5.9250   -9.4795 C   0  0  0  0  0  0  0  0  0  0  0  0
   39.3709   -4.9414  -10.2502 O   0  0  0  0  0  0  0  0  0  0  0  0
   43.9744   -7.1898  -10.8389 O   0  0  0  0  0  0  0  0  0  0  0  0
   38.8499   -5.9745   -8.2601 N   0  0  0  0  0  0  0  0  0  0  0  0
   37.9954   -4.8899   -7.7609 C   0  0  1  0  0  0  0  0  0  0  0  0
   36.8440   -5.4162   -7.0088 C   0  0  0  0  0  0  0  0  0  0  0  0
   35.9467   -4.4596   -6.3502 C   0  0  0  0  0  0  0  0  0  0  0  0
   36.0006   -4.2276   -4.9764 C   0  0  0  0  0  0  0  0  0  0  0  0
   35.2051   -3.3138   -4.3635 C   0  0  0  0  0  0  0  0  0  0  0  0
   34.2956   -2.5699   -5.1109 C   0  0  0  0  0  0  0  0  0  0  0  0
   34.2334   -2.7909   -6.4713 C   0  0  0  0  0  0  0  0  0  0  0  0
   35.0408   -3.7107   -7.0565 C   0  0  0  0  0  0  0  0  0  0  0  0
   38.8040   -3.8496   -7.1337 C   0  0  0  0  0  0  0  0  0  0  0  0
   39.6248   -4.2378   -6.2215 O   0  0  0  0  0  0  0  0  0  0  0  0
   38.8237   -2.4704   -7.3868 N   0  0  0  0  0  0  0  0  0  0  0  0
   39.6518   -1.5453   -6.6133 C   0  0  1  0  0  0  0  0  0  0  0  0
   41.0785   -1.5468   -7.1315 C   0  0  0  0  0  0  0  0  0  0  0  0
   41.9428   -2.9276   -6.3326 S   0  0  0  0  0  0  0  0  0  0  0  0
   39.1239   -0.1813   -6.7150 C   0  0  0  0  0  0  0  0  0  0  0  0
   39.7479    0.9043   -6.0755 O   0  0  0  0  0  0  0  0  0  0  0  0
   38.0997    0.0615   -7.3748 O   0  0  0  0  0  0  0  0  0  0  0  0
  2  1  1  6
  2  6  1  0
  2  3  1  0
  3  4  1  0
  4  5  2  0
  6  7  2  0
  8  4  1  0
  9 10  1  0
  9  6  1  0
 10 18  1  0
 11 12  1  0
 10 11  1  1
 12 17  2  0
 13 14  2  0
 13 12  1  0
 14 15  1  0
 15 16  2  0
 17 16  1  0
 18 19  2  0
 20 21  1  0
 20 18  1  0
 21 24  1  0
 21 22  1  6
 23 22  1  0
 24 26  2  0
 24 25  1  0
M  END
$$$$
