DFC.pdb
     RDKit          3D

 26 26  0  0  1  0  0  0  0  0999 V2000
   20.9638  -11.1180  -17.2408 N   0  0  0  0  0  0  0  0  0  0  0  0
   19.5294  -10.7587  -17.2400 C   0  0  1  0  0  0  0  0  0  0  0  0
   18.7947  -11.9829  -16.7404 C   0  0  0  0  0  0  0  0  0  0  0  0
   18.7391  -13.0718  -17.7171 C   0  0  0  0  0  0  0  0  0  0  0  0
   19.2888  -12.9094  -18.8276 O   0  0  0  0  0  0  0  0  0  0  0  0
   19.4148   -9.7042  -16.1942 C   0  0  0  0  0  0  0  0  0  0  0  0
   18.8570  -10.0409  -15.1119 O   0  0  0  0  0  0  0  0  0  0  0  0
   18.1056  -14.2703  -17.4702 O   0  0  0  0  0  0  0  0  0  0  0  0
   19.8807   -8.3801  -16.3337 N   0  0  0  0  0  0  0  0  0  0  0  0
   19.7743   -7.3566  -15.2863 C   0  0  1  0  0  0  0  0  0  0  0  0
   21.0806   -7.0900  -14.6612 C   0  0  0  0  0  0  0  0  0  0  0  0
   21.6365   -8.0997  -13.7526 C   0  0  0  0  0  0  0  0  0  0  0  0
   21.1508   -8.2690  -12.4567 C   0  0  0  0  0  0  0  0  0  0  0  0
   21.6282   -9.2283  -11.6228 C   0  0  0  0  0  0  0  0  0  0  0  0
   22.6379  -10.0853  -12.0533 C   0  0  0  0  0  0  0  0  0  0  0  0
   23.1263   -9.9272  -13.3339 C   0  0  0  0  0  0  0  0  0  0  0  0
   22.6300   -8.9596  -14.1450 C   0  0  0  0  0  0  0  0  0  0  0  0
   18.9989   -6.2160  -15.7631 C   0  0  0  0  0  0  0  0  0  0  0  0
   19.4825   -5.5797  -16.7720 O   0  0  0  0  0  0  0  0  0  0  0  0
   17.7838   -5.7080  -15.2815 N   0  0  0  0  0  0  0  0  0  0  0  0
   17.0943   -4.5894  -15.9245 C   0  0  1  0  0  0  0  0  0  0  0  0
   15.7116   -5.0111  -16.3873 C   0  0  0  0  0  0  0  0  0  0  0  0
   14.9218   -5.8839  -15.0066 S   0  0  0  0  0  0  0  0  0  0  0  0
   16.9478   -3.4731  -14.9854 C   0  0  0  0  0  0  0  0  0  0  0  0
   17.3360   -3.5822  -13.6386 O   0  0  0  0  0  0  0  0  0  0  0  0
   16.4719   -2.3858  -15.3523 O   0  0  0  0  0  0  0  0  0  0  0  0
  2  1  1  1
  2  6  1  0
  2  3  1  0
  3  4  1  0
  4  5  2  0
  6  7  2  0
  8  4  1  0
  9 10  1  0
  9  6  1  0
 10 18  1  0
 11 12  1  0
 10 11  1  6
 12 17  2  0
 13 14  2  0
 13 12  1  0
 14 15  1  0
 15 16  2  0
 17 16  1  0
 18 19  2  0
 20 21  1  0
 20 18  1  0
 21 24  1  0
 21 22  1  1
 23 22  1  0
 24 26  2  0
 24 25  1  0
M  END
$$$$
