DFC.pdb
     RDKit          3D

 26 26  0  0  1  0  0  0  0  0999 V2000
   27.4131  -23.5137  -17.3896 N   0  0  0  0  0  0  0  0  0  0  0  0
   27.2353  -22.0822  -17.0643 C   0  0  1  0  0  0  0  0  0  0  0  0
   26.2957  -21.5313  -18.1138 C   0  0  0  0  0  0  0  0  0  0  0  0
   25.9347  -20.1291  -17.8986 C   0  0  0  0  0  0  0  0  0  0  0  0
   26.8452  -19.3039  -17.6711 O   0  0  0  0  0  0  0  0  0  0  0  0
   26.5081  -22.0879  -15.7642 C   0  0  0  0  0  0  0  0  0  0  0  0
   25.5784  -22.9343  -15.6413 O   0  0  0  0  0  0  0  0  0  0  0  0
   24.6343  -19.6747  -17.9329 O   0  0  0  0  0  0  0  0  0  0  0  0
   26.7869  -21.2251  -14.6838 N   0  0  0  0  0  0  0  0  0  0  0  0
   26.0788  -21.2624  -13.3981 C   0  0  1  0  0  0  0  0  0  0  0  0
   26.9696  -20.8987  -12.2835 C   0  0  0  0  0  0  0  0  0  0  0  0
   26.3758  -20.6875  -10.9581 C   0  0  0  0  0  0  0  0  0  0  0  0
   26.0211  -19.4172  -10.5058 C   0  0  0  0  0  0  0  0  0  0  0  0
   25.4316  -19.2153   -9.2995 C   0  0  0  0  0  0  0  0  0  0  0  0
   25.1614  -20.2983   -8.4667 C   0  0  0  0  0  0  0  0  0  0  0  0
   25.5079  -21.5601   -8.9038 C   0  0  0  0  0  0  0  0  0  0  0  0
   26.0960  -21.7316  -10.1142 C   0  0  0  0  0  0  0  0  0  0  0  0
   24.7961  -20.5742  -13.5008 C   0  0  0  0  0  0  0  0  0  0  0  0
   24.8009  -19.4502  -14.1279 O   0  0  0  0  0  0  0  0  0  0  0  0
   23.5398  -20.9659  -13.0161 N   0  0  0  0  0  0  0  0  0  0  0  0
   22.3311  -20.1752  -13.2479 C   0  0  1  0  0  0  0  0  0  0  0  0
   22.0363  -20.0760  -14.7335 C   0  0  0  0  0  0  0  0  0  0  0  0
   20.4701  -19.1782  -14.9155 S   0  0  0  0  0  0  0  0  0  0  0  0
   21.1797  -20.7985  -12.5880 C   0  0  0  0  0  0  0  0  0  0  0  0
   20.1424  -20.0321  -12.0282 O   0  0  0  0  0  0  0  0  0  0  0  0
   21.0826  -22.0339  -12.5014 O   0  0  0  0  0  0  0  0  0  0  0  0
  2  1  1  6
  2  6  1  0
  2  3  1  0
  3  4  1  0
  4  5  2  0
  6  7  2  0
  8  4  1  0
  9 10  1  0
  9  6  1  0
 10 18  1  0
 11 12  1  0
 10 11  1  1
 12 17  2  0
 13 14  2  0
 13 12  1  0
 14 15  1  0
 15 16  2  0
 17 16  1  0
 18 19  2  0
 20 21  1  0
 20 18  1  0
 21 24  1  0
 21 22  1  6
 23 22  1  0
 24 26  2  0
 24 25  1  0
M  END
$$$$
