DFC.pdb
     RDKit          3D

 26 26  0  0  1  0  0  0  0  0999 V2000
   22.9987  -14.2208  -17.2649 N   0  0  0  0  0  0  0  0  0  0  0  0
   21.9457  -13.2765  -17.6965 C   0  0  1  0  0  0  0  0  0  0  0  0
   20.6306  -13.9874  -17.4664 C   0  0  0  0  0  0  0  0  0  0  0  0
   19.4804  -13.2942  -18.0489 C   0  0  0  0  0  0  0  0  0  0  0  0
   19.5519  -12.9065  -19.2348 O   0  0  0  0  0  0  0  0  0  0  0  0
   22.0320  -12.1567  -16.7180 C   0  0  0  0  0  0  0  0  0  0  0  0
   22.1772  -12.4774  -15.5047 O   0  0  0  0  0  0  0  0  0  0  0  0
   18.3196  -13.0463  -17.3490 O   0  0  0  0  0  0  0  0  0  0  0  0
   21.9633  -10.7886  -17.0542 N   0  0  0  0  0  0  0  0  0  0  0  0
   22.1039   -9.6956  -16.0840 C   0  0  1  0  0  0  0  0  0  0  0  0
   23.3869   -8.9922  -16.2496 C   0  0  0  0  0  0  0  0  0  0  0  0
   24.6134   -9.6689  -15.8117 C   0  0  0  0  0  0  0  0  0  0  0  0
   24.5786  -10.7864  -14.9786 C   0  0  0  0  0  0  0  0  0  0  0  0
   25.7043  -11.4459  -14.6025 C   0  0  0  0  0  0  0  0  0  0  0  0
   26.9488  -11.0108  -15.0511 C   0  0  0  0  0  0  0  0  0  0  0  0
   26.9955   -9.9060  -15.8760 C   0  0  0  0  0  0  0  0  0  0  0  0
   25.8541   -9.2668  -16.2353 C   0  0  0  0  0  0  0  0  0  0  0  0
   20.8856   -8.8937  -16.0372 C   0  0  0  0  0  0  0  0  0  0  0  0
   20.3935   -8.5377  -17.1719 O   0  0  0  0  0  0  0  0  0  0  0  0
   20.1578   -8.4534  -14.9223 N   0  0  0  0  0  0  0  0  0  0  0  0
   18.9707   -7.6079  -15.0478 C   0  0  1  0  0  0  0  0  0  0  0  0
   17.8784   -8.0799  -14.1055 C   0  0  0  0  0  0  0  0  0  0  0  0
   18.6300   -8.2884  -12.4673 S   0  0  0  0  0  0  0  0  0  0  0  0
   19.2979   -6.2174  -14.7176 C   0  0  0  0  0  0  0  0  0  0  0  0
   18.3467   -5.1874  -14.8229 O   0  0  0  0  0  0  0  0  0  0  0  0
   20.4354   -5.9015  -14.3310 O   0  0  0  0  0  0  0  0  0  0  0  0
  2  1  1  1
  2  6  1  0
  2  3  1  0
  3  4  1  0
  4  5  2  0
  6  7  2  0
  8  4  1  0
  9 10  1  0
  9  6  1  0
 10 18  1  0
 11 12  1  0
 10 11  1  6
 12 17  2  0
 13 14  2  0
 13 12  1  0
 14 15  1  0
 15 16  2  0
 17 16  1  0
 18 19  2  0
 20 21  1  0
 20 18  1  0
 21 24  1  0
 21 22  1  1
 23 22  1  0
 24 26  2  0
 24 25  1  0
M  END
$$$$
