DFC.pdb
     RDKit          3D

 26 26  0  0  1  0  0  0  0  0999 V2000
   27.1254  -20.5823  -18.5903 N   0  0  0  0  0  0  0  0  0  0  0  0
   27.1939  -19.5362  -17.5473 C   0  0  1  0  0  0  0  0  0  0  0  0
   26.2297  -18.4542  -17.9802 C   0  0  0  0  0  0  0  0  0  0  0  0
   26.7386  -17.6172  -19.0680 C   0  0  0  0  0  0  0  0  0  0  0  0
   25.9271  -17.1538  -19.8977 O   0  0  0  0  0  0  0  0  0  0  0  0
   26.6270  -20.1885  -16.3341 C   0  0  0  0  0  0  0  0  0  0  0  0
   25.7563  -21.0828  -16.5289 O   0  0  0  0  0  0  0  0  0  0  0  0
   28.0745  -17.3167  -19.2223 O   0  0  0  0  0  0  0  0  0  0  0  0
   26.9939  -19.8766  -15.0083 N   0  0  0  0  0  0  0  0  0  0  0  0
   26.3534  -20.4550  -13.8204 C   0  0  1  0  0  0  0  0  0  0  0  0
   27.1625  -20.2302  -12.6109 C   0  0  0  0  0  0  0  0  0  0  0  0
   26.5459  -20.4851  -11.3036 C   0  0  0  0  0  0  0  0  0  0  0  0
   25.9320  -19.4704  -10.5704 C   0  0  0  0  0  0  0  0  0  0  0  0
   25.3209  -19.7033   -9.3805 C   0  0  0  0  0  0  0  0  0  0  0  0
   25.2928  -20.9918   -8.8529 C   0  0  0  0  0  0  0  0  0  0  0  0
   25.8971  -22.0040   -9.5697 C   0  0  0  0  0  0  0  0  0  0  0  0
   26.5003  -21.7415  -10.7561 C   0  0  0  0  0  0  0  0  0  0  0  0
   24.9403  -20.0939  -13.7747 C   0  0  0  0  0  0  0  0  0  0  0  0
   24.6668  -18.8434  -13.9091 O   0  0  0  0  0  0  0  0  0  0  0  0
   23.8199  -20.9212  -13.6104 N   0  0  0  0  0  0  0  0  0  0  0  0
   22.4583  -20.3900  -13.5477 C   0  0  1  0  0  0  0  0  0  0  0  0
   21.5779  -21.0568  -14.5888 C   0  0  0  0  0  0  0  0  0  0  0  0
   21.7963  -22.8495  -14.4141 S   0  0  0  0  0  0  0  0  0  0  0  0
   21.8762  -20.6340  -12.2243 C   0  0  0  0  0  0  0  0  0  0  0  0
   20.6802  -20.0179  -11.8160 O   0  0  0  0  0  0  0  0  0  0  0  0
   22.4254  -21.3992  -11.4143 O   0  0  0  0  0  0  0  0  0  0  0  0
  2  1  1  6
  2  6  1  0
  2  3  1  0
  3  4  1  0
  4  5  2  0
  6  7  2  0
  8  4  1  0
  9 10  1  0
  9  6  1  0
 10 18  1  0
 11 12  1  0
 10 11  1  1
 12 17  2  0
 13 14  2  0
 13 12  1  0
 14 15  1  0
 15 16  2  0
 17 16  1  0
 18 19  2  0
 20 21  1  0
 20 18  1  0
 21 24  1  0
 21 22  1  6
 23 22  1  0
 24 26  2  0
 24 25  1  0
M  END
$$$$
