DFC.pdb
     RDKit          3D

 26 26  0  0  1  0  0  0  0  0999 V2000
   24.3427  -12.6703  -19.0704 N   0  0  0  0  0  0  0  0  0  0  0  0
   24.2426  -11.9799  -17.7665 C   0  0  1  0  0  0  0  0  0  0  0  0
   25.6553  -11.5873  -17.3949 C   0  0  0  0  0  0  0  0  0  0  0  0
   26.5012  -12.7237  -17.0261 C   0  0  0  0  0  0  0  0  0  0  0  0
   27.6650  -12.5005  -16.6290 O   0  0  0  0  0  0  0  0  0  0  0  0
   23.4904  -10.7303  -18.0685 C   0  0  0  0  0  0  0  0  0  0  0  0
   23.6475  -10.2419  -19.2230 O   0  0  0  0  0  0  0  0  0  0  0  0
   26.0746  -14.0319  -17.0982 O   0  0  0  0  0  0  0  0  0  0  0  0
   22.6309  -10.0714  -17.1647 N   0  0  0  0  0  0  0  0  0  0  0  0
   21.8933   -8.8416  -17.4798 C   0  0  1  0  0  0  0  0  0  0  0  0
   20.4656   -9.1164  -17.7129 C   0  0  0  0  0  0  0  0  0  0  0  0
   19.7444   -9.9332  -16.7297 C   0  0  0  0  0  0  0  0  0  0  0  0
   19.5231  -11.2956  -16.9270 C   0  0  0  0  0  0  0  0  0  0  0  0
   18.8953  -12.0695  -16.0048 C   0  0  0  0  0  0  0  0  0  0  0  0
   18.4475  -11.5065  -14.8124 C   0  0  0  0  0  0  0  0  0  0  0  0
   18.6609  -10.1591  -14.6061 C   0  0  0  0  0  0  0  0  0  0  0  0
   19.2911   -9.4106  -15.5457 C   0  0  0  0  0  0  0  0  0  0  0  0
   22.2409   -7.7817  -16.5389 C   0  0  0  0  0  0  0  0  0  0  0  0
   22.7626   -8.1577  -15.4240 O   0  0  0  0  0  0  0  0  0  0  0  0
   22.0943   -6.3937  -16.6751 N   0  0  0  0  0  0  0  0  0  0  0  0
   22.5535   -5.4549  -15.6514 C   0  0  1  0  0  0  0  0  0  0  0  0
   23.5969   -4.5122  -16.2228 C   0  0  0  0  0  0  0  0  0  0  0  0
   23.9787   -3.2866  -14.9406 S   0  0  0  0  0  0  0  0  0  0  0  0
   21.4306   -4.6550  -15.1526 C   0  0  0  0  0  0  0  0  0  0  0  0
   21.3797   -4.1968  -13.8244 O   0  0  0  0  0  0  0  0  0  0  0  0
   20.4799   -4.3538  -15.8934 O   0  0  0  0  0  0  0  0  0  0  0  0
  2  1  1  6
  2  6  1  0
  2  3  1  0
  3  4  1  0
  4  5  2  0
  6  7  2  0
  8  4  1  0
  9 10  1  0
  9  6  1  0
 10 18  1  0
 11 12  1  0
 10 11  1  1
 12 17  2  0
 13 14  2  0
 13 12  1  0
 14 15  1  0
 15 16  2  0
 17 16  1  0
 18 19  2  0
 20 21  1  0
 20 18  1  0
 21 24  1  0
 21 22  1  6
 23 22  1  0
 24 26  2  0
 24 25  1  0
M  END
$$$$
