DFC.pdb
     RDKit          3D

 26 26  0  0  1  0  0  0  0  0999 V2000
   32.6962  -37.4272   -7.4177 N   0  0  0  0  0  0  0  0  0  0  0  0
   31.4172  -37.6902   -6.7236 C   0  0  1  0  0  0  0  0  0  0  0  0
   31.4877  -39.1259   -6.2527 C   0  0  0  0  0  0  0  0  0  0  0  0
   30.6670  -40.0432   -7.0451 C   0  0  0  0  0  0  0  0  0  0  0  0
   29.7016  -40.6130   -6.4928 O   0  0  0  0  0  0  0  0  0  0  0  0
   31.4659  -36.8159   -5.5185 C   0  0  0  0  0  0  0  0  0  0  0  0
   32.5799  -36.7287   -4.9292 O   0  0  0  0  0  0  0  0  0  0  0  0
   30.9105  -40.3106   -8.3747 O   0  0  0  0  0  0  0  0  0  0  0  0
   30.3686  -36.0939   -5.0047 N   0  0  0  0  0  0  0  0  0  0  0  0
   30.4389  -35.2186   -3.8280 C   0  0  1  0  0  0  0  0  0  0  0  0
   30.5054  -33.8000   -4.2170 C   0  0  0  0  0  0  0  0  0  0  0  0
   31.6807  -33.3375   -4.9646 C   0  0  0  0  0  0  0  0  0  0  0  0
   31.6066  -33.0019   -6.3159 C   0  0  0  0  0  0  0  0  0  0  0  0
   32.6772  -32.5321   -7.0062 C   0  0  0  0  0  0  0  0  0  0  0  0
   33.9028  -32.3709   -6.3649 C   0  0  0  0  0  0  0  0  0  0  0  0
   33.9880  -32.6998   -5.0278 C   0  0  0  0  0  0  0  0  0  0  0  0
   32.9014  -33.1671   -4.3636 C   0  0  0  0  0  0  0  0  0  0  0  0
   29.4398  -35.6102   -2.8391 C   0  0  0  0  0  0  0  0  0  0  0  0
   28.3678  -36.1558   -3.2969 O   0  0  0  0  0  0  0  0  0  0  0  0
   29.4792  -35.4843   -1.4429 N   0  0  0  0  0  0  0  0  0  0  0  0
   28.3907  -35.9520   -0.5848 C   0  0  1  0  0  0  0  0  0  0  0  0
   28.2272  -37.4563   -0.7040 C   0  0  0  0  0  0  0  0  0  0  0  0
   29.8462  -38.2045   -0.3708 S   0  0  0  0  0  0  0  0  0  0  0  0
   28.6708  -35.6265    0.8171 C   0  0  0  0  0  0  0  0  0  0  0  0
   29.9083  -35.0955    1.2213 O   0  0  0  0  0  0  0  0  0  0  0  0
   27.8169  -35.8109    1.7004 O   0  0  0  0  0  0  0  0  0  0  0  0
  2  1  1  6
  2  6  1  0
  2  3  1  0
  3  4  1  0
  4  5  2  0
  6  7  2  0
  8  4  1  0
  9 10  1  0
  9  6  1  0
 10 18  1  0
 11 12  1  0
 10 11  1  6
 12 17  2  0
 13 14  2  0
 13 12  1  0
 14 15  1  0
 15 16  2  0
 17 16  1  0
 18 19  2  0
 20 21  1  0
 20 18  1  0
 21 24  1  0
 21 22  1  1
 23 22  1  0
 24 26  2  0
 24 25  1  0
M  END
$$$$
