DFC.pdb
     RDKit          3D

 26 26  0  0  1  0  0  0  0  0999 V2000
   28.8303  -22.3907  -16.8253 N   0  0  0  0  0  0  0  0  0  0  0  0
   27.9297  -21.2184  -16.7887 C   0  0  1  0  0  0  0  0  0  0  0  0
   27.0526  -21.3299  -18.0159 C   0  0  0  0  0  0  0  0  0  0  0  0
   27.6762  -20.8037  -19.2313 C   0  0  0  0  0  0  0  0  0  0  0  0
   27.2775  -21.2227  -20.3391 O   0  0  0  0  0  0  0  0  0  0  0  0
   27.0697  -21.4522  -15.5952 C   0  0  0  0  0  0  0  0  0  0  0  0
   26.8434  -22.6570  -15.2898 O   0  0  0  0  0  0  0  0  0  0  0  0
   28.6866  -19.8670  -19.2117 O   0  0  0  0  0  0  0  0  0  0  0  0
   26.5036  -20.4335  -14.8005 N   0  0  0  0  0  0  0  0  0  0  0  0
   25.7460  -20.6785  -13.5669 C   0  0  1  0  0  0  0  0  0  0  0  0
   26.3551  -19.9898  -12.4168 C   0  0  0  0  0  0  0  0  0  0  0  0
   27.6086  -20.5228  -11.8703 C   0  0  0  0  0  0  0  0  0  0  0  0
   27.6246  -21.3860  -10.7754 C   0  0  0  0  0  0  0  0  0  0  0  0
   28.7746  -21.9190  -10.2888 C   0  0  0  0  0  0  0  0  0  0  0  0
   29.9934  -21.6082  -10.8864 C   0  0  0  0  0  0  0  0  0  0  0  0
   29.9900  -20.7550  -11.9706 C   0  0  0  0  0  0  0  0  0  0  0  0
   28.8252  -20.2374  -12.4351 C   0  0  0  0  0  0  0  0  0  0  0  0
   24.3176  -20.4903  -13.7985 C   0  0  0  0  0  0  0  0  0  0  0  0
   23.9776  -19.4169  -14.4221 O   0  0  0  0  0  0  0  0  0  0  0  0
   23.2458  -21.3219  -13.4426 N   0  0  0  0  0  0  0  0  0  0  0  0
   21.8527  -20.9512  -13.6912 C   0  0  1  0  0  0  0  0  0  0  0  0
   21.1537  -22.0234  -14.5069 C   0  0  0  0  0  0  0  0  0  0  0  0
   21.4608  -23.6129  -13.6876 S   0  0  0  0  0  0  0  0  0  0  0  0
   21.1336  -20.7915  -12.4235 C   0  0  0  0  0  0  0  0  0  0  0  0
   19.7771  -20.4241  -12.3825 O   0  0  0  0  0  0  0  0  0  0  0  0
   21.7041  -20.9772  -11.3357 O   0  0  0  0  0  0  0  0  0  0  0  0
  2  1  1  6
  2  6  1  0
  2  3  1  0
  3  4  1  0
  4  5  2  0
  6  7  2  0
  8  4  1  0
  9 10  1  0
  9  6  1  0
 10 18  1  0
 11 12  1  0
 10 11  1  1
 12 17  2  0
 13 14  2  0
 13 12  1  0
 14 15  1  0
 15 16  2  0
 17 16  1  0
 18 19  2  0
 20 21  1  0
 20 18  1  0
 21 24  1  0
 21 22  1  6
 23 22  1  0
 24 26  2  0
 24 25  1  0
M  END
$$$$
