LDQ.pdb
     RDKit          3D

 26 25  0  0  1  0  0  0  0  0999 V2000
    8.0533  -12.6778   19.0161 C   0  0  0  0  0  0  0  0  0  0  0  0
    8.1681  -13.3539   20.3514 C   0  0  1  0  0  0  0  0  0  0  0  0
    7.4234  -12.5267   21.3719 C   0  0  0  0  0  0  0  0  0  0  0  0
    7.6087  -14.7464   20.3709 C   0  0  0  0  0  0  0  0  0  0  0  0
    7.8100  -15.3727   21.7281 C   0  0  2  0  0  0  0  0  0  0  0  0
    7.8531  -14.3059   22.7007 N   0  0  0  0  0  0  0  0  0  0  0  0
    9.0223  -16.1928   21.6965 C   0  0  0  0  0  0  0  0  0  0  0  0
    9.0832  -17.1756   20.9173 O   0  0  0  0  0  0  0  0  0  0  0  0
   10.1222  -15.8927   22.5309 N   0  0  0  0  0  0  0  0  0  0  0  0
   11.1012  -16.9333   22.7443 C   0  0  1  0  0  0  0  0  0  0  0  0
   12.2740  -16.6909   21.8225 C   0  0  0  0  0  0  0  0  0  0  0  0
   13.2647  -17.7868   21.8467 C   0  0  0  0  0  0  0  0  0  0  0  0
   12.8957  -18.9502   22.0536 O   0  0  0  0  0  0  0  0  0  0  0  0
   11.6197  -16.7819   24.1521 C   0  0  0  0  0  0  0  0  0  0  0  0
   12.5684  -16.0169   24.4491 O   0  0  0  0  0  0  0  0  0  0  0  0
   14.6150  -17.5461   21.6406 O   0  0  0  0  0  0  0  0  0  0  0  0
    8.7657  -14.4105   28.3805 N   0  0  0  0  0  0  0  0  0  0  0  0
    9.2709  -14.1764   27.0836 C   0  0  0  0  0  0  0  0  0  0  0  0
    8.9346  -13.1540   26.4607 O   0  0  0  0  0  0  0  0  0  0  0  0
   10.1939  -15.1462   26.4722 C   0  0  0  0  0  0  0  0  0  0  0  0
   10.4948  -16.3557   27.2891 C   0  0  0  0  0  0  0  0  0  0  0  0
   11.4370  -17.2829   26.6230 C   0  0  2  0  0  0  0  0  0  0  0  0
   11.0438  -17.5132   25.2229 N   0  0  0  0  0  0  0  0  0  0  0  0
   11.5076  -18.5703   27.3445 C   0  0  0  0  0  0  0  0  0  0  0  0
   12.0981  -18.6814   28.6188 O   0  0  0  0  0  0  0  0  0  0  0  0
   11.0501  -19.6252   26.8697 O   0  0  0  0  0  0  0  0  0  0  0  0
  2  1  1  6
  3  2  1  0
  4  2  1  0
  5  4  1  0
  5  6  1  1
  7  8  2  0
  7  5  1  0
  9  7  1  0
 10  9  1  0
 10 11  1  6
 12 16  1  0
 12 11  1  0
 13 12  2  0
 14 10  1  0
 14 15  2  0
 18 17  1  0
 19 18  2  0
 20 18  1  0
 21 20  1  0
 22 23  1  0
 22 21  1  1
 23 14  1  0
 24 22  1  0
 25 24  1  0
 26 24  2  0
M  END
$$$$
