LDQ.pdb
     RDKit          3D

 26 25  0  0  1  0  0  0  0  0999 V2000
    7.4655  -12.3046   19.8644 C   0  0  0  0  0  0  0  0  0  0  0  0
    7.8714  -13.7344   19.6540 C   0  0  1  0  0  0  0  0  0  0  0  0
    8.9869  -13.7701   18.6367 C   0  0  0  0  0  0  0  0  0  0  0  0
    8.3482  -14.4147   20.9038 C   0  0  0  0  0  0  0  0  0  0  0  0
    8.7895  -15.8240   20.5972 C   0  0  2  0  0  0  0  0  0  0  0  0
    7.6567  -16.5264   20.0411 N   0  0  0  0  0  0  0  0  0  0  0  0
    9.3193  -16.4311   21.8195 C   0  0  0  0  0  0  0  0  0  0  0  0
    8.5241  -16.8872   22.6776 O   0  0  0  0  0  0  0  0  0  0  0  0
   10.7117  -16.5095   22.0450 N   0  0  0  0  0  0  0  0  0  0  0  0
   11.1542  -17.0915   23.2908 C   0  0  1  0  0  0  0  0  0  0  0  0
   12.6404  -17.3515   23.2029 C   0  0  0  0  0  0  0  0  0  0  0  0
   12.9768  -18.4939   22.3283 C   0  0  0  0  0  0  0  0  0  0  0  0
   12.2225  -19.4739   22.2725 O   0  0  0  0  0  0  0  0  0  0  0  0
   10.9603  -16.0532   24.3669 C   0  0  0  0  0  0  0  0  0  0  0  0
   11.5695  -14.9567   24.3720 O   0  0  0  0  0  0  0  0  0  0  0  0
   14.1294  -18.4995   21.5568 O   0  0  0  0  0  0  0  0  0  0  0  0
    5.8929  -13.3539   25.8617 N   0  0  0  0  0  0  0  0  0  0  0  0
    6.8312  -12.7760   26.7435 C   0  0  0  0  0  0  0  0  0  0  0  0
    6.5902  -11.6780   27.2754 O   0  0  0  0  0  0  0  0  0  0  0  0
    8.0941  -13.4759   27.0288 C   0  0  0  0  0  0  0  0  0  0  0  0
    8.4407  -14.5884   26.0999 C   0  0  0  0  0  0  0  0  0  0  0  0
    9.7390  -15.2241   26.4188 C   0  0  2  0  0  0  0  0  0  0  0  0
   10.0611  -16.2769   25.4414 N   0  0  0  0  0  0  0  0  0  0  0  0
    9.7268  -15.7904   27.7834 C   0  0  0  0  0  0  0  0  0  0  0  0
    9.9617  -14.9972   28.9239 O   0  0  0  0  0  0  0  0  0  0  0  0
    9.5082  -16.9954   28.0019 O   0  0  0  0  0  0  0  0  0  0  0  0
  2  1  1  1
  3  2  1  0
  4  2  1  0
  5  4  1  0
  5  6  1  1
  7  8  2  0
  7  5  1  0
  9  7  1  0
 10  9  1  0
 10 11  1  6
 12 16  1  0
 12 11  1  0
 13 12  2  0
 14 10  1  0
 14 15  2  0
 18 17  1  0
 19 18  2  0
 20 18  1  0
 21 20  1  0
 22 23  1  0
 22 21  1  6
 23 14  1  0
 24 22  1  0
 25 24  1  0
 26 24  2  0
M  END
$$$$
