LDQ.pdb
     RDKit          3D

 26 25  0  0  1  0  0  0  0  0999 V2000
    8.5567  -13.0265   20.4599 C   0  0  0  0  0  0  0  0  0  0  0  0
    8.1591  -13.8991   21.6148 C   0  0  1  0  0  0  0  0  0  0  0  0
    7.5885  -13.0214   22.7032 C   0  0  0  0  0  0  0  0  0  0  0  0
    7.1364  -14.9384   21.2596 C   0  0  0  0  0  0  0  0  0  0  0  0
    7.7819  -16.0702   20.4998 C   0  0  2  0  0  0  0  0  0  0  0  0
    6.7323  -16.9654   20.0724 N   0  0  0  0  0  0  0  0  0  0  0  0
    8.7865  -16.7034   21.3558 C   0  0  0  0  0  0  0  0  0  0  0  0
    8.4154  -17.4187   22.3189 O   0  0  0  0  0  0  0  0  0  0  0  0
   10.1659  -16.5195   21.1123 N   0  0  0  0  0  0  0  0  0  0  0  0
   11.0921  -17.3063   21.8932 C   0  0  1  0  0  0  0  0  0  0  0  0
   12.4331  -17.3082   21.1964 C   0  0  0  0  0  0  0  0  0  0  0  0
   12.4536  -18.1521   19.9837 C   0  0  0  0  0  0  0  0  0  0  0  0
   11.9312  -19.2743   20.0018 O   0  0  0  0  0  0  0  0  0  0  0  0
   11.2896  -16.5954   23.2083 C   0  0  0  0  0  0  0  0  0  0  0  0
   11.9117  -15.5108   23.3086 O   0  0  0  0  0  0  0  0  0  0  0  0
   13.0490  -17.7166   18.8092 O   0  0  0  0  0  0  0  0  0  0  0  0
    7.7570  -14.0119   26.9890 N   0  0  0  0  0  0  0  0  0  0  0  0
    9.0767  -13.6395   27.3233 C   0  0  0  0  0  0  0  0  0  0  0  0
    9.2838  -12.5977   27.9699 O   0  0  0  0  0  0  0  0  0  0  0  0
   10.2043  -14.4867   26.9027 C   0  0  0  0  0  0  0  0  0  0  0  0
    9.8394  -15.7298   26.1663 C   0  0  0  0  0  0  0  0  0  0  0  0
   11.0193  -16.5042   25.7199 C   0  0  2  0  0  0  0  0  0  0  0  0
   10.7687  -17.1343   24.4130 N   0  0  0  0  0  0  0  0  0  0  0  0
   11.3799  -17.5351   26.7150 C   0  0  0  0  0  0  0  0  0  0  0  0
   12.0862  -17.2217   27.8932 O   0  0  0  0  0  0  0  0  0  0  0  0
   11.0804  -18.7337   26.5699 O   0  0  0  0  0  0  0  0  0  0  0  0
  2  1  1  6
  3  2  1  0
  4  2  1  0
  5  4  1  0
  5  6  1  1
  7  8  2  0
  7  5  1  0
  9  7  1  0
 10  9  1  0
 10 11  1  6
 12 16  1  0
 12 11  1  0
 13 12  2  0
 14 10  1  0
 14 15  2  0
 18 17  1  0
 19 18  2  0
 20 18  1  0
 21 20  1  0
 22 23  1  0
 22 21  1  1
 23 14  1  0
 24 22  1  0
 25 24  1  0
 26 24  2  0
M  END
$$$$
