LDQ.pdb
     RDKit          3D

 26 25  0  0  1  0  0  0  0  0999 V2000
    6.8528  -12.5399   20.2757 C   0  0  0  0  0  0  0  0  0  0  0  0
    7.6167  -13.6953   19.6969 C   0  0  1  0  0  0  0  0  0  0  0  0
    8.6294  -13.1553   18.7154 C   0  0  0  0  0  0  0  0  0  0  0  0
    8.3427  -14.5123   20.7253 C   0  0  0  0  0  0  0  0  0  0  0  0
    9.0577  -15.6662   20.0680 C   0  0  2  0  0  0  0  0  0  0  0  0
    8.0654  -16.4674   19.3903 N   0  0  0  0  0  0  0  0  0  0  0  0
    9.8128  -16.3980   21.0867 C   0  0  0  0  0  0  0  0  0  0  0  0
    9.3658  -17.4870   21.5237 O   0  0  0  0  0  0  0  0  0  0  0  0
   11.0357  -15.8943   21.5835 N   0  0  0  0  0  0  0  0  0  0  0  0
   11.7806  -16.7310   22.4955 C   0  0  1  0  0  0  0  0  0  0  0  0
   13.1789  -16.1740   22.6313 C   0  0  0  0  0  0  0  0  0  0  0  0
   14.0838  -17.0616   23.3905 C   0  0  0  0  0  0  0  0  0  0  0  0
   14.0628  -17.0545   24.6282 O   0  0  0  0  0  0  0  0  0  0  0  0
   11.1327  -16.6072   23.8515 C   0  0  0  0  0  0  0  0  0  0  0  0
   11.2416  -15.5822   24.5664 O   0  0  0  0  0  0  0  0  0  0  0  0
   14.9680  -17.9147   22.7471 O   0  0  0  0  0  0  0  0  0  0  0  0
    5.8339  -19.3122   25.2866 N   0  0  0  0  0  0  0  0  0  0  0  0
    6.1394  -18.1236   24.5895 C   0  0  0  0  0  0  0  0  0  0  0  0
    5.2819  -17.5907   23.8635 O   0  0  0  0  0  0  0  0  0  0  0  0
    7.4750  -17.5198   24.7238 C   0  0  0  0  0  0  0  0  0  0  0  0
    8.3810  -18.1684   25.7133 C   0  0  0  0  0  0  0  0  0  0  0  0
    9.7406  -17.5831   25.7220 C   0  0  2  0  0  0  0  0  0  0  0  0
   10.3557  -17.6667   24.3870 N   0  0  0  0  0  0  0  0  0  0  0  0
   10.5992  -18.2606   26.7154 C   0  0  0  0  0  0  0  0  0  0  0  0
   11.7453  -18.9889   26.3395 O   0  0  0  0  0  0  0  0  0  0  0  0
   10.3603  -18.2256   27.9357 O   0  0  0  0  0  0  0  0  0  0  0  0
  2  1  1  1
  3  2  1  0
  4  2  1  0
  5  4  1  0
  5  6  1  1
  7  8  2  0
  7  5  1  0
  9  7  1  0
 10  9  1  0
 10 11  1  1
 12 16  1  0
 12 11  1  0
 13 12  2  0
 14 10  1  0
 14 15  2  0
 18 17  1  0
 19 18  2  0
 20 18  1  0
 21 20  1  0
 22 23  1  0
 22 21  1  6
 23 14  1  0
 24 22  1  0
 25 24  1  0
 26 24  2  0
M  END
$$$$
