LDQ.pdb
     RDKit          3D

 26 25  0  0  1  0  0  0  0  0999 V2000
    6.7284  -13.0822   19.4541 C   0  0  0  0  0  0  0  0  0  0  0  0
    8.1046  -13.6569   19.6255 C   0  0  1  0  0  0  0  0  0  0  0  0
    9.0782  -12.5181   19.8143 C   0  0  0  0  0  0  0  0  0  0  0  0
    8.2276  -14.5846   20.7987 C   0  0  0  0  0  0  0  0  0  0  0  0
    9.6693  -14.9740   21.0096 C   0  0  2  0  0  0  0  0  0  0  0  0
   10.1874  -15.4377   19.7438 N   0  0  0  0  0  0  0  0  0  0  0  0
    9.7391  -15.9724   22.0781 C   0  0  0  0  0  0  0  0  0  0  0  0
    9.0137  -15.8412   23.0946 O   0  0  0  0  0  0  0  0  0  0  0  0
   10.6114  -17.0793   21.9798 N   0  0  0  0  0  0  0  0  0  0  0  0
   10.6556  -17.9952   23.0959 C   0  0  1  0  0  0  0  0  0  0  0  0
   11.6229  -19.1096   22.7697 C   0  0  0  0  0  0  0  0  0  0  0  0
   11.2281  -19.8875   21.5771 C   0  0  0  0  0  0  0  0  0  0  0  0
   10.0497  -20.2357   21.4276 O   0  0  0  0  0  0  0  0  0  0  0  0
   11.2375  -17.2477   24.2691 C   0  0  0  0  0  0  0  0  0  0  0  0
   11.7520  -16.1086   24.1625 O   0  0  0  0  0  0  0  0  0  0  0  0
   12.1530  -20.2429   20.6066 O   0  0  0  0  0  0  0  0  0  0  0  0
    9.3553  -13.4538   26.3768 N   0  0  0  0  0  0  0  0  0  0  0  0
    9.3492  -13.9529   27.6969 C   0  0  0  0  0  0  0  0  0  0  0  0
    9.1641  -13.1797   28.6531 O   0  0  0  0  0  0  0  0  0  0  0  0
    9.5641  -15.3891   27.9367 C   0  0  0  0  0  0  0  0  0  0  0  0
    9.7954  -16.2198   26.7213 C   0  0  0  0  0  0  0  0  0  0  0  0
   11.0613  -16.9851   26.7770 C   0  0  2  0  0  0  0  0  0  0  0  0
   11.2269  -17.8127   25.5705 N   0  0  0  0  0  0  0  0  0  0  0  0
   11.1086  -17.8376   27.9828 C   0  0  0  0  0  0  0  0  0  0  0  0
   10.8242  -19.2167   27.9345 O   0  0  0  0  0  0  0  0  0  0  0  0
   11.4024  -17.3878   29.1047 O   0  0  0  0  0  0  0  0  0  0  0  0
  2  1  1  1
  3  2  1  0
  4  2  1  0
  5  4  1  0
  5  6  1  6
  7  8  2  0
  7  5  1  0
  9  7  1  0
 10  9  1  0
 10 11  1  6
 12 16  1  0
 12 11  1  0
 13 12  2  0
 14 10  1  0
 14 15  2  0
 18 17  1  0
 19 18  2  0
 20 18  1  0
 21 20  1  0
 22 23  1  0
 22 21  1  6
 23 14  1  0
 24 22  1  0
 25 24  1  0
 26 24  2  0
M  END
$$$$
