LDQ.pdb
     RDKit          3D

 26 25  0  0  1  0  0  0  0  0999 V2000
    7.0635  -12.2566   20.0588 C   0  0  0  0  0  0  0  0  0  0  0  0
    7.6760  -13.5872   19.7302 C   0  0  1  0  0  0  0  0  0  0  0  0
    8.8381  -13.3602   18.7930 C   0  0  0  0  0  0  0  0  0  0  0  0
    8.1759  -14.3329   20.9327 C   0  0  0  0  0  0  0  0  0  0  0  0
    8.6437  -15.7111   20.5371 C   0  0  2  0  0  0  0  0  0  0  0  0
    7.5191  -16.4048   19.9542 N   0  0  0  0  0  0  0  0  0  0  0  0
    9.2035  -16.3776   21.7143 C   0  0  0  0  0  0  0  0  0  0  0  0
    8.4417  -17.0091   22.4874 O   0  0  0  0  0  0  0  0  0  0  0  0
   10.5877  -16.3185   21.9908 N   0  0  0  0  0  0  0  0  0  0  0  0
   11.0628  -17.0065   23.1688 C   0  0  1  0  0  0  0  0  0  0  0  0
   12.5408  -17.2776   23.0080 C   0  0  0  0  0  0  0  0  0  0  0  0
   13.1253  -17.9970   24.1586 C   0  0  0  0  0  0  0  0  0  0  0  0
   14.2830  -17.7490   24.5203 O   0  0  0  0  0  0  0  0  0  0  0  0
   10.9217  -16.0575   24.3321 C   0  0  0  0  0  0  0  0  0  0  0  0
   11.5757  -14.9911   24.4233 O   0  0  0  0  0  0  0  0  0  0  0  0
   12.4037  -18.9551   24.8552 O   0  0  0  0  0  0  0  0  0  0  0  0
    6.0497  -13.3395   26.4503 N   0  0  0  0  0  0  0  0  0  0  0  0
    7.0462  -12.9204   27.3577 C   0  0  0  0  0  0  0  0  0  0  0  0
    6.8373  -11.9490   28.1055 O   0  0  0  0  0  0  0  0  0  0  0  0
    8.3314  -13.6354   27.4140 C   0  0  0  0  0  0  0  0  0  0  0  0
    8.5649  -14.6315   26.3304 C   0  0  0  0  0  0  0  0  0  0  0  0
    9.8202  -15.3955   26.5087 C   0  0  2  0  0  0  0  0  0  0  0  0
   10.0238  -16.3363   25.3947 N   0  0  0  0  0  0  0  0  0  0  0  0
    9.8130  -16.1282   27.7917 C   0  0  0  0  0  0  0  0  0  0  0  0
   10.1546  -15.5067   29.0092 O   0  0  0  0  0  0  0  0  0  0  0  0
    9.5050  -17.3309   27.8695 O   0  0  0  0  0  0  0  0  0  0  0  0
  2  1  1  1
  3  2  1  0
  4  2  1  0
  5  4  1  0
  5  6  1  1
  7  8  2  0
  7  5  1  0
  9  7  1  0
 10  9  1  0
 10 11  1  6
 12 16  1  0
 12 11  1  0
 13 12  2  0
 14 10  1  0
 14 15  2  0
 18 17  1  0
 19 18  2  0
 20 18  1  0
 21 20  1  0
 22 23  1  0
 22 21  1  6
 23 14  1  0
 24 22  1  0
 25 24  1  0
 26 24  2  0
M  END
$$$$
