LDQ.pdb
     RDKit          3D

 26 25  0  0  1  0  0  0  0  0999 V2000
    7.2179  -12.0638   19.9995 C   0  0  0  0  0  0  0  0  0  0  0  0
    7.6216  -13.4498   19.5878 C   0  0  1  0  0  0  0  0  0  0  0  0
    8.7197  -13.3417   18.5568 C   0  0  0  0  0  0  0  0  0  0  0  0
    8.1201  -14.2939   20.7241 C   0  0  0  0  0  0  0  0  0  0  0  0
    8.4514  -15.6829   20.2386 C   0  0  2  0  0  0  0  0  0  0  0  0
    7.2610  -16.2300   19.6309 N   0  0  0  0  0  0  0  0  0  0  0  0
    8.9555  -16.4709   21.3647 C   0  0  0  0  0  0  0  0  0  0  0  0
    8.1593  -17.1797   22.0283 O   0  0  0  0  0  0  0  0  0  0  0  0
   10.3242  -16.4430   21.7136 N   0  0  0  0  0  0  0  0  0  0  0  0
   10.7339  -17.2069   22.8692 C   0  0  1  0  0  0  0  0  0  0  0  0
   12.2169  -17.4798   22.7682 C   0  0  0  0  0  0  0  0  0  0  0  0
   12.7228  -18.3377   23.8596 C   0  0  0  0  0  0  0  0  0  0  0  0
   11.9976  -18.5989   24.8283 O   0  0  0  0  0  0  0  0  0  0  0  0
   10.5373  -16.3312   24.0808 C   0  0  0  0  0  0  0  0  0  0  0  0
   10.7345  -15.0925   24.0641 O   0  0  0  0  0  0  0  0  0  0  0  0
   14.0046  -18.8667   23.8291 O   0  0  0  0  0  0  0  0  0  0  0  0
    6.0592  -13.7953   25.2898 N   0  0  0  0  0  0  0  0  0  0  0  0
    7.1654  -13.1188   25.8471 C   0  0  0  0  0  0  0  0  0  0  0  0
    7.1120  -11.8909   26.0369 O   0  0  0  0  0  0  0  0  0  0  0  0
    8.3803  -13.8707   26.2002 C   0  0  0  0  0  0  0  0  0  0  0  0
    8.3379  -15.3344   25.9235 C   0  0  0  0  0  0  0  0  0  0  0  0
    9.5493  -16.0458   26.3899 C   0  0  2  0  0  0  0  0  0  0  0  0
   10.1114  -16.8826   25.3167 N   0  0  0  0  0  0  0  0  0  0  0  0
    9.2483  -16.8788   27.5725 C   0  0  0  0  0  0  0  0  0  0  0  0
    9.1434  -16.3300   28.8659 O   0  0  0  0  0  0  0  0  0  0  0  0
    9.0700  -18.1073   27.4932 O   0  0  0  0  0  0  0  0  0  0  0  0
  2  1  1  1
  3  2  1  0
  4  2  1  0
  5  4  1  0
  5  6  1  1
  7  8  2  0
  7  5  1  0
  9  7  1  0
 10  9  1  0
 10 11  1  6
 12 16  1  0
 12 11  1  0
 13 12  2  0
 14 10  1  0
 14 15  2  0
 18 17  1  0
 19 18  2  0
 20 18  1  0
 21 20  1  0
 22 23  1  0
 22 21  1  6
 23 14  1  0
 24 22  1  0
 25 24  1  0
 26 24  2  0
M  END
$$$$
