LDQ.pdb
     RDKit          3D

 26 25  0  0  1  0  0  0  0  0999 V2000
    6.9619  -12.6870   19.2175 C   0  0  0  0  0  0  0  0  0  0  0  0
    8.2923  -13.3383   19.4604 C   0  0  1  0  0  0  0  0  0  0  0  0
    9.2960  -12.2629   19.8019 C   0  0  0  0  0  0  0  0  0  0  0  0
    8.2761  -14.3425   20.5756 C   0  0  0  0  0  0  0  0  0  0  0  0
    9.6728  -14.8397   20.8530 C   0  0  2  0  0  0  0  0  0  0  0  0
   10.2358  -15.2857   19.6000 N   0  0  0  0  0  0  0  0  0  0  0  0
    9.6094  -15.8838   21.8772 C   0  0  0  0  0  0  0  0  0  0  0  0
    8.7659  -15.7909   22.8028 O   0  0  0  0  0  0  0  0  0  0  0  0
   10.4844  -16.9922   21.8372 N   0  0  0  0  0  0  0  0  0  0  0  0
   10.3754  -17.9669   22.8978 C   0  0  1  0  0  0  0  0  0  0  0  0
   11.1666  -19.1948   22.5100 C   0  0  0  0  0  0  0  0  0  0  0  0
   11.1555  -20.2427   23.5516 C   0  0  0  0  0  0  0  0  0  0  0  0
   10.1108  -20.4925   24.1670 O   0  0  0  0  0  0  0  0  0  0  0  0
   11.0492  -17.3854   24.1149 C   0  0  0  0  0  0  0  0  0  0  0  0
   12.2180  -16.9304   24.0933 O   0  0  0  0  0  0  0  0  0  0  0  0
   12.2977  -20.9651   23.8633 O   0  0  0  0  0  0  0  0  0  0  0  0
    9.0634  -12.4252   27.3307 N   0  0  0  0  0  0  0  0  0  0  0  0
    9.4504  -13.6980   27.8020 C   0  0  0  0  0  0  0  0  0  0  0  0
    9.5118  -13.9160   29.0248 O   0  0  0  0  0  0  0  0  0  0  0  0
    9.7820  -14.7635   26.8423 C   0  0  0  0  0  0  0  0  0  0  0  0
   10.1293  -16.0847   27.4377 C   0  0  0  0  0  0  0  0  0  0  0  0
   11.0501  -16.8759   26.5908 C   0  0  2  0  0  0  0  0  0  0  0  0
   10.3754  -17.3264   25.3621 N   0  0  0  0  0  0  0  0  0  0  0  0
   11.5774  -18.0405   27.3316 C   0  0  0  0  0  0  0  0  0  0  0  0
   11.0123  -19.3249   27.2051 O   0  0  0  0  0  0  0  0  0  0  0  0
   12.5474  -17.9533   28.1054 O   0  0  0  0  0  0  0  0  0  0  0  0
  2  1  1  1
  3  2  1  0
  4  2  1  0
  5  4  1  0
  5  6  1  6
  7  8  2  0
  7  5  1  0
  9  7  1  0
 10  9  1  0
 10 11  1  6
 12 16  1  0
 12 11  1  0
 13 12  2  0
 14 10  1  0
 14 15  2  0
 18 17  1  0
 19 18  2  0
 20 18  1  0
 21 20  1  0
 22 23  1  0
 22 21  1  1
 23 14  1  0
 24 22  1  0
 25 24  1  0
 26 24  2  0
M  END
$$$$
