LDQ.pdb
     RDKit          3D

 26 25  0  0  1  0  0  0  0  0999 V2000
    7.0416  -12.3535   27.4313 C   0  0  0  0  0  0  0  0  0  0  0  0
    6.8363  -13.0872   26.1378 C   0  0  1  0  0  0  0  0  0  0  0  0
    7.1339  -12.1412   24.9990 C   0  0  0  0  0  0  0  0  0  0  0  0
    7.7093  -14.2986   25.9879 C   0  0  0  0  0  0  0  0  0  0  0  0
    7.3002  -15.0919   24.7722 C   0  0  2  0  0  0  0  0  0  0  0  0
    5.9783  -15.6191   25.0178 N   0  0  0  0  0  0  0  0  0  0  0  0
    8.3089  -16.1216   24.5167 C   0  0  0  0  0  0  0  0  0  0  0  0
    8.2996  -17.1777   25.1959 O   0  0  0  0  0  0  0  0  0  0  0  0
    9.2913  -15.9415   23.5175 N   0  0  0  0  0  0  0  0  0  0  0  0
   10.3257  -16.9442   23.4103 C   0  0  1  0  0  0  0  0  0  0  0  0
   11.0955  -16.7108   22.1310 C   0  0  0  0  0  0  0  0  0  0  0  0
   10.3298  -17.0744   20.9207 C   0  0  0  0  0  0  0  0  0  0  0  0
   10.5120  -16.4558   19.8640 O   0  0  0  0  0  0  0  0  0  0  0  0
   11.2930  -16.7163   24.5443 C   0  0  0  0  0  0  0  0  0  0  0  0
   12.0588  -15.7241   24.5962 O   0  0  0  0  0  0  0  0  0  0  0  0
    9.4004  -18.1038   20.9348 O   0  0  0  0  0  0  0  0  0  0  0  0
   10.1591  -13.7703   29.3862 N   0  0  0  0  0  0  0  0  0  0  0  0
   10.5436  -15.1227   29.2630 C   0  0  0  0  0  0  0  0  0  0  0  0
   10.2695  -15.9318   30.1667 O   0  0  0  0  0  0  0  0  0  0  0  0
   11.2701  -15.5700   28.0637 C   0  0  0  0  0  0  0  0  0  0  0  0
   11.5313  -17.0345   27.9750 C   0  0  0  0  0  0  0  0  0  0  0  0
   12.2884  -17.4137   26.7607 C   0  0  2  0  0  0  0  0  0  0  0  0
   11.3793  -17.6333   25.6236 N   0  0  0  0  0  0  0  0  0  0  0  0
   13.0961  -18.6272   27.0013 C   0  0  0  0  0  0  0  0  0  0  0  0
   12.8812  -19.8219   26.2859 O   0  0  0  0  0  0  0  0  0  0  0  0
   14.0092  -18.6624   27.8454 O   0  0  0  0  0  0  0  0  0  0  0  0
  2  1  1  1
  3  2  1  0
  4  2  1  0
  5  4  1  0
  5  6  1  1
  7  8  2  0
  7  5  1  0
  9  7  1  0
 10  9  1  0
 10 11  1  6
 12 16  1  0
 12 11  1  0
 13 12  2  0
 14 10  1  0
 14 15  2  0
 18 17  1  0
 19 18  2  0
 20 18  1  0
 21 20  1  0
 22 23  1  0
 22 21  1  1
 23 14  1  0
 24 22  1  0
 25 24  1  0
 26 24  2  0
M  END
$$$$
