LDQ.pdb
     RDKit          3D

 26 25  0  0  1  0  0  0  0  0999 V2000
    7.4533  -12.1647   19.5886 C   0  0  0  0  0  0  0  0  0  0  0  0
    8.0327  -13.5141   19.2776 C   0  0  1  0  0  0  0  0  0  0  0  0
    9.3242  -13.3170   18.5203 C   0  0  0  0  0  0  0  0  0  0  0  0
    8.3199  -14.3412   20.4965 C   0  0  0  0  0  0  0  0  0  0  0  0
    8.8555  -15.6935   20.0976 C   0  0  2  0  0  0  0  0  0  0  0  0
    7.8090  -16.3855   19.3823 N   0  0  0  0  0  0  0  0  0  0  0  0
    9.3140  -16.3946   21.2982 C   0  0  0  0  0  0  0  0  0  0  0  0
    8.4735  -16.9481   22.0493 O   0  0  0  0  0  0  0  0  0  0  0  0
   10.6878  -16.4554   21.6218 N   0  0  0  0  0  0  0  0  0  0  0  0
   11.0573  -17.1434   22.8370 C   0  0  1  0  0  0  0  0  0  0  0  0
   12.5349  -17.4567   22.7859 C   0  0  0  0  0  0  0  0  0  0  0  0
   12.8748  -18.4783   21.7740 C   0  0  0  0  0  0  0  0  0  0  0  0
   12.1628  -19.4828   21.6453 O   0  0  0  0  0  0  0  0  0  0  0  0
   10.8595  -16.1786   23.9788 C   0  0  0  0  0  0  0  0  0  0  0  0
   11.5920  -15.1760   24.1568 O   0  0  0  0  0  0  0  0  0  0  0  0
   13.9839  -18.3418   20.9525 O   0  0  0  0  0  0  0  0  0  0  0  0
    5.7790  -13.3806   25.7713 N   0  0  0  0  0  0  0  0  0  0  0  0
    6.7337  -12.9533   26.7188 C   0  0  0  0  0  0  0  0  0  0  0  0
    6.4987  -11.9648   27.4359 O   0  0  0  0  0  0  0  0  0  0  0  0
    8.0066  -13.6798   26.8532 C   0  0  0  0  0  0  0  0  0  0  0  0
    8.2672  -14.7232   25.8216 C   0  0  0  0  0  0  0  0  0  0  0  0
    9.5653  -15.4096   26.0093 C   0  0  2  0  0  0  0  0  0  0  0  0
    9.8141  -16.3675   24.9192 N   0  0  0  0  0  0  0  0  0  0  0  0
    9.6092  -16.1062   27.3115 C   0  0  0  0  0  0  0  0  0  0  0  0
    9.9845  -15.4475   28.4991 O   0  0  0  0  0  0  0  0  0  0  0  0
    9.3173  -17.3093   27.4328 O   0  0  0  0  0  0  0  0  0  0  0  0
  2  1  1  1
  3  2  1  0
  4  2  1  0
  5  4  1  0
  5  6  1  1
  7  8  2  0
  7  5  1  0
  9  7  1  0
 10  9  1  0
 10 11  1  6
 12 16  1  0
 12 11  1  0
 13 12  2  0
 14 10  1  0
 14 15  2  0
 18 17  1  0
 19 18  2  0
 20 18  1  0
 21 20  1  0
 22 23  1  0
 22 21  1  6
 23 14  1  0
 24 22  1  0
 25 24  1  0
 26 24  2  0
M  END
$$$$
