LHV.pdb
     RDKit          3D

 26 26  0  0  1  0  0  0  0  0999 V2000
   23.8123  -30.1637  -17.1807 C   0  0  0  0  0  0  0  0  0  0  0  0
   24.0506  -31.5968  -16.9123 C   0  0  1  0  0  0  0  0  0  0  0  0
   25.5439  -31.7906  -16.6590 C   0  0  0  0  0  0  0  0  0  0  0  0
   23.3273  -32.1583  -15.7276 C   0  0  0  0  0  0  0  0  0  0  0  0
   23.6392  -33.5959  -15.4466 C   0  0  2  0  0  0  0  0  0  0  0  0
   22.9858  -34.4040  -16.4427 N   0  0  0  0  0  0  0  0  0  0  0  0
   23.0492  -33.9447  -14.1277 C   0  0  0  0  0  0  0  0  0  0  0  0
   21.8167  -33.8028  -13.8808 O   0  0  0  0  0  0  0  0  0  0  0  0
   23.8777  -34.4524  -13.1057 N   0  0  0  0  0  0  0  0  0  0  0  0
   23.3726  -34.8581  -11.8084 C   0  0  1  0  0  0  0  0  0  0  0  0
   23.0403  -36.3373  -11.8263 C   0  0  0  0  0  0  0  0  0  0  0  0
   22.5345  -36.8026  -10.5194 C   0  0  0  0  0  0  0  0  0  0  0  0
   21.2483  -36.4974  -10.0869 C   0  0  0  0  0  0  0  0  0  0  0  0
   21.0535  -37.0420   -8.8740 N   0  0  0  0  0  0  0  0  0  0  0  0
   22.1954  -37.6670   -8.5705 C   0  0  0  0  0  0  0  0  0  0  0  0
   23.0903  -37.5283   -9.5533 N   0  0  0  0  0  0  0  0  0  0  0  0
   24.4125  -34.5657  -10.8000 C   0  0  0  0  0  0  0  0  0  0  0  0
   25.6014  -34.7920  -11.0469 O   0  0  0  0  0  0  0  0  0  0  0  0
   25.0895  -31.3498   -9.1967 C   0  0  0  0  0  0  0  0  0  0  0  0
   24.9106  -32.3103   -8.0700 C   0  0  1  0  0  0  0  0  0  0  0  0
   23.6570  -31.9926   -7.3249 C   0  0  0  0  0  0  0  0  0  0  0  0
   25.0018  -33.7551   -8.4919 C   0  0  2  0  0  0  0  0  0  0  0  0
   24.0330  -34.0164   -9.5294 N   0  0  0  0  0  0  0  0  0  0  0  0
   24.9143  -34.6916   -7.3665 C   0  0  0  0  0  0  0  0  0  0  0  0
   25.9690  -34.8172   -6.4929 O   0  0  0  0  0  0  0  0  0  0  0  0
   23.8950  -35.3824   -7.1836 O   0  0  0  0  0  0  0  0  0  0  0  0
  2  1  1  1
  2  3  1  0
  4  2  1  0
  5  6  1  6
  5  4  1  0
  7  5  1  0
  8  7  2  0
  9  7  1  0
 10  9  1  0
 11 12  1  0
 10 11  1  6
 12 16  1  0
 13 12  2  0
 13 14  1  0
 14 15  1  0
 16 15  2  0
 17 10  1  0
 17 18  2  0
 20 19  1  6
 20 22  1  0
 20 21  1  0
 22 23  1  6
 23 17  1  0
 24 22  1  0
 25 24  1  0
 26 24  2  0
M  END
$$$$
