LHV.pdb
     RDKit          3D

 26 26  0  0  1  0  0  0  0  0999 V2000
   27.2301  -14.8018  -20.5306 C   0  0  0  0  0  0  0  0  0  0  0  0
   25.8953  -14.6852  -19.9083 C   0  0  1  0  0  0  0  0  0  0  0  0
   25.6371  -15.9526  -19.0968 C   0  0  0  0  0  0  0  0  0  0  0  0
   25.7180  -13.5245  -18.9791 C   0  0  0  0  0  0  0  0  0  0  0  0
   24.3413  -13.4099  -18.4008 C   0  0  2  0  0  0  0  0  0  0  0  0
   23.3935  -13.8233  -19.4023 N   0  0  0  0  0  0  0  0  0  0  0  0
   24.0851  -11.9759  -18.1050 C   0  0  0  0  0  0  0  0  0  0  0  0
   24.8026  -11.3141  -17.3004 O   0  0  0  0  0  0  0  0  0  0  0  0
   23.0097  -11.3156  -18.7343 N   0  0  0  0  0  0  0  0  0  0  0  0
   22.6836   -9.9246  -18.4866 C   0  0  1  0  0  0  0  0  0  0  0  0
   21.9132   -9.3601  -19.6643 C   0  0  0  0  0  0  0  0  0  0  0  0
   21.6108   -7.9259  -19.4863 C   0  0  0  0  0  0  0  0  0  0  0  0
   22.0433   -7.2251  -18.3655 C   0  0  0  0  0  0  0  0  0  0  0  0
   21.6319   -5.9494  -18.4610 N   0  0  0  0  0  0  0  0  0  0  0  0
   20.9620   -5.8709  -19.6151 C   0  0  0  0  0  0  0  0  0  0  0  0
   20.9445   -7.0535  -20.2374 N   0  0  0  0  0  0  0  0  0  0  0  0
   21.8770   -9.8562  -17.2503 C   0  0  0  0  0  0  0  0  0  0  0  0
   20.9180  -10.6176  -17.0887 O   0  0  0  0  0  0  0  0  0  0  0  0
   21.5398   -9.2591  -12.5569 C   0  0  0  0  0  0  0  0  0  0  0  0
   22.2480   -9.3413  -13.8667 C   0  0  1  0  0  0  0  0  0  0  0  0
   22.7180  -10.7378  -14.1041 C   0  0  0  0  0  0  0  0  0  0  0  0
   21.4515   -8.7782  -15.0167 C   0  0  2  0  0  0  0  0  0  0  0  0
   22.2146   -8.8983  -16.2360 N   0  0  0  0  0  0  0  0  0  0  0  0
   20.9629   -7.4177  -14.7690 C   0  0  0  0  0  0  0  0  0  0  0  0
   19.7474   -7.2247  -14.1554 O   0  0  0  0  0  0  0  0  0  0  0  0
   21.6322   -6.4237  -15.1061 O   0  0  0  0  0  0  0  0  0  0  0  0
  2  1  1  1
  2  3  1  0
  4  2  1  0
  5  6  1  6
  5  4  1  0
  7  5  1  0
  8  7  2  0
  9  7  1  0
 10  9  1  0
 11 12  1  0
 10 11  1  6
 12 16  1  0
 13 12  2  0
 13 14  1  0
 14 15  1  0
 16 15  2  0
 17 10  1  0
 17 18  2  0
 20 19  1  1
 20 22  1  0
 20 21  1  0
 22 23  1  6
 23 17  1  0
 24 22  1  0
 25 24  1  0
 26 24  2  0
M  END
$$$$
