LHV.pdb
     RDKit          3D

 26 26  0  0  1  0  0  0  0  0999 V2000
   23.7626  -10.3371  -21.8467 C   0  0  0  0  0  0  0  0  0  0  0  0
   23.1012  -11.0371  -20.7265 C   0  0  1  0  0  0  0  0  0  0  0  0
   24.1853  -11.5609  -19.7874 C   0  0  0  0  0  0  0  0  0  0  0  0
   22.1732  -10.1992  -19.9025 C   0  0  0  0  0  0  0  0  0  0  0  0
   21.6906  -10.8703  -18.6537 C   0  0  2  0  0  0  0  0  0  0  0  0
   20.7174  -11.8652  -19.0214 N   0  0  0  0  0  0  0  0  0  0  0  0
   20.9985   -9.8510  -17.8223 C   0  0  0  0  0  0  0  0  0  0  0  0
   20.0252   -9.1713  -18.2592 O   0  0  0  0  0  0  0  0  0  0  0  0
   21.4289   -9.6212  -16.4993 N   0  0  0  0  0  0  0  0  0  0  0  0
   20.6794   -8.8174  -15.5535 C   0  0  1  0  0  0  0  0  0  0  0  0
   20.2043   -9.6855  -14.4048 C   0  0  0  0  0  0  0  0  0  0  0  0
   18.9743  -10.4266  -14.7482 C   0  0  0  0  0  0  0  0  0  0  0  0
   18.3720  -10.2979  -15.9953 C   0  0  0  0  0  0  0  0  0  0  0  0
   17.2783  -11.0775  -16.0360 N   0  0  0  0  0  0  0  0  0  0  0  0
   17.2123  -11.6706  -14.8399 C   0  0  0  0  0  0  0  0  0  0  0  0
   18.2271  -11.2853  -14.0603 N   0  0  0  0  0  0  0  0  0  0  0  0
   21.5645   -7.7393  -15.0656 C   0  0  0  0  0  0  0  0  0  0  0  0
   22.7305   -7.9883  -14.7428 O   0  0  0  0  0  0  0  0  0  0  0  0
   20.4439   -3.7542  -15.8568 C   0  0  0  0  0  0  0  0  0  0  0  0
   21.8321   -4.1819  -15.5193 C   0  0  1  0  0  0  0  0  0  0  0  0
   22.6471   -2.9965  -15.1218 C   0  0  0  0  0  0  0  0  0  0  0  0
   21.8873   -5.3053  -14.5149 C   0  0  2  0  0  0  0  0  0  0  0  0
   21.0613   -6.3986  -14.9686 N   0  0  0  0  0  0  0  0  0  0  0  0
   21.5788   -4.8729  -13.1478 C   0  0  0  0  0  0  0  0  0  0  0  0
   22.4844   -4.1119  -12.4464 O   0  0  0  0  0  0  0  0  0  0  0  0
   20.5033   -5.1836  -12.6032 O   0  0  0  0  0  0  0  0  0  0  0  0
  2  1  1  6
  2  3  1  0
  4  2  1  0
  5  6  1  6
  5  4  1  0
  7  5  1  0
  8  7  2  0
  9  7  1  0
 10  9  1  0
 11 12  1  0
 10 11  1  1
 12 16  1  0
 13 12  2  0
 13 14  1  0
 14 15  1  0
 16 15  2  0
 17 10  1  0
 17 18  2  0
 20 19  1  1
 20 22  1  0
 20 21  1  0
 22 23  1  6
 23 17  1  0
 24 22  1  0
 25 24  1  0
 26 24  2  0
M  END
$$$$
