LHV.pdb
     RDKit          3D

 26 26  0  0  1  0  0  0  0  0999 V2000
   25.8290  -16.4291  -18.1133 C   0  0  0  0  0  0  0  0  0  0  0  0
   26.4804  -17.4173  -17.2292 C   0  0  1  0  0  0  0  0  0  0  0  0
   27.9857  -17.3585  -17.4790 C   0  0  0  0  0  0  0  0  0  0  0  0
   26.2698  -17.2052  -15.7620 C   0  0  0  0  0  0  0  0  0  0  0  0
   26.9105  -18.2458  -14.8963 C   0  0  2  0  0  0  0  0  0  0  0  0
   27.1756  -19.4069  -15.7048 N   0  0  0  0  0  0  0  0  0  0  0  0
   25.9304  -18.6408  -13.8510 C   0  0  0  0  0  0  0  0  0  0  0  0
   25.3461  -17.7914  -13.1181 O   0  0  0  0  0  0  0  0  0  0  0  0
   25.6303  -20.0049  -13.6566 N   0  0  0  0  0  0  0  0  0  0  0  0
   24.6555  -20.4686  -12.6885 C   0  0  1  0  0  0  0  0  0  0  0  0
   23.7990  -21.5582  -13.3036 C   0  0  0  0  0  0  0  0  0  0  0  0
   22.7159  -21.0006  -14.1379 C   0  0  0  0  0  0  0  0  0  0  0  0
   21.5895  -20.4142  -13.5706 C   0  0  0  0  0  0  0  0  0  0  0  0
   20.7727  -19.9952  -14.5520 N   0  0  0  0  0  0  0  0  0  0  0  0
   21.3857  -20.3181  -15.6952 C   0  0  0  0  0  0  0  0  0  0  0  0
   22.5534  -20.9223  -15.4556 N   0  0  0  0  0  0  0  0  0  0  0  0
   25.3867  -20.9782  -11.5098 C   0  0  0  0  0  0  0  0  0  0  0  0
   26.1550  -21.9391  -11.6204 O   0  0  0  0  0  0  0  0  0  0  0  0
   26.0064  -18.5145   -8.1329 C   0  0  0  0  0  0  0  0  0  0  0  0
   26.7282  -19.7780   -8.4593 C   0  0  1  0  0  0  0  0  0  0  0  0
   27.5078  -20.2395   -7.2733 C   0  0  0  0  0  0  0  0  0  0  0  0
   25.8361  -20.8475   -9.0374 C   0  0  2  0  0  0  0  0  0  0  0  0
   25.1992  -20.3496  -10.2332 N   0  0  0  0  0  0  0  0  0  0  0  0
   24.8897  -21.3991   -8.0621 C   0  0  0  0  0  0  0  0  0  0  0  0
   25.3548  -22.0886   -6.9668 O   0  0  0  0  0  0  0  0  0  0  0  0
   23.6617  -21.2548   -8.2063 O   0  0  0  0  0  0  0  0  0  0  0  0
  2  1  1  6
  2  3  1  0
  4  2  1  0
  5  6  1  6
  5  4  1  0
  7  5  1  0
  8  7  2  0
  9  7  1  0
 10  9  1  0
 11 12  1  0
 10 11  1  6
 12 16  1  0
 13 12  2  0
 13 14  1  0
 14 15  1  0
 16 15  2  0
 17 10  1  0
 17 18  2  0
 20 19  1  1
 20 22  1  0
 20 21  1  0
 22 23  1  6
 23 17  1  0
 24 22  1  0
 25 24  1  0
 26 24  2  0
M  END
$$$$
