LHV.pdb
     RDKit          3D

 26 26  0  0  1  0  0  0  0  0999 V2000
   32.9582  -24.2702  -13.6255 C   0  0  0  0  0  0  0  0  0  0  0  0
   33.4963  -24.6896  -14.9358 C   0  0  1  0  0  0  0  0  0  0  0  0
   34.7648  -25.5032  -14.6899 C   0  0  0  0  0  0  0  0  0  0  0  0
   32.5829  -25.5391  -15.7642 C   0  0  0  0  0  0  0  0  0  0  0  0
   33.1922  -26.0227  -17.0440 C   0  0  2  0  0  0  0  0  0  0  0  0
   33.4772  -24.8790  -17.8704 N   0  0  0  0  0  0  0  0  0  0  0  0
   32.1787  -26.8472  -17.7526 C   0  0  0  0  0  0  0  0  0  0  0  0
   31.1396  -26.3432  -18.2687 O   0  0  0  0  0  0  0  0  0  0  0  0
   32.3665  -28.2405  -17.8624 N   0  0  0  0  0  0  0  0  0  0  0  0
   31.4890  -29.0969  -18.6364 C   0  0  1  0  0  0  0  0  0  0  0  0
   32.1962  -29.5504  -19.8986 C   0  0  0  0  0  0  0  0  0  0  0  0
   31.2407  -29.9659  -20.9447 C   0  0  0  0  0  0  0  0  0  0  0  0
   30.1959  -29.1396  -21.3449 C   0  0  0  0  0  0  0  0  0  0  0  0
   29.4878  -29.7618  -22.3027 N   0  0  0  0  0  0  0  0  0  0  0  0
   30.0859  -30.9432  -22.4848 C   0  0  0  0  0  0  0  0  0  0  0  0
   31.1397  -31.0740  -21.6733 N   0  0  0  0  0  0  0  0  0  0  0  0
   31.1209  -30.2553  -17.7959 C   0  0  0  0  0  0  0  0  0  0  0  0
   31.9495  -30.7584  -17.0304 O   0  0  0  0  0  0  0  0  0  0  0  0
   28.3757  -30.3517  -15.3408 C   0  0  0  0  0  0  0  0  0  0  0  0
   28.1432  -31.4996  -16.2639 C   0  0  1  0  0  0  0  0  0  0  0  0
   26.9562  -31.2264  -17.1265 C   0  0  0  0  0  0  0  0  0  0  0  0
   29.3684  -31.8984  -17.0473 C   0  0  2  0  0  0  0  0  0  0  0  0
   29.7928  -30.7939  -17.8738 N   0  0  0  0  0  0  0  0  0  0  0  0
   29.1945  -33.1490  -17.7936 C   0  0  0  0  0  0  0  0  0  0  0  0
   29.2430  -34.3553  -17.1350 O   0  0  0  0  0  0  0  0  0  0  0  0
   29.0018  -33.1414  -19.0235 O   0  0  0  0  0  0  0  0  0  0  0  0
  2  1  1  1
  2  3  1  0
  4  2  1  0
  5  6  1  6
  5  4  1  0
  7  5  1  0
  8  7  2  0
  9  7  1  0
 10  9  1  0
 11 12  1  0
 10 11  1  6
 12 16  1  0
 13 12  2  0
 13 14  1  0
 14 15  1  0
 16 15  2  0
 17 10  1  0
 17 18  2  0
 20 19  1  6
 20 22  1  0
 20 21  1  0
 22 23  1  6
 23 17  1  0
 24 22  1  0
 25 24  1  0
 26 24  2  0
M  END
$$$$
