LHV.pdb
     RDKit          3D

 26 26  0  0  1  0  0  0  0  0999 V2000
   21.9167  -13.3592  -21.1629 C   0  0  0  0  0  0  0  0  0  0  0  0
   22.3173  -12.9205  -19.8103 C   0  0  1  0  0  0  0  0  0  0  0  0
   23.8047  -12.5767  -19.8436 C   0  0  0  0  0  0  0  0  0  0  0  0
   21.5993  -11.7157  -19.2858 C   0  0  0  0  0  0  0  0  0  0  0  0
   22.0572  -11.2740  -17.9300 C   0  0  2  0  0  0  0  0  0  0  0  0
   21.8491  -12.3583  -17.0063 N   0  0  0  0  0  0  0  0  0  0  0  0
   21.1927  -10.1445  -17.4985 C   0  0  0  0  0  0  0  0  0  0  0  0
   20.4744   -9.4951  -18.3125 O   0  0  0  0  0  0  0  0  0  0  0  0
   21.1604   -9.7712  -16.1391 N   0  0  0  0  0  0  0  0  0  0  0  0
   20.2583   -8.7622  -15.6186 C   0  0  1  0  0  0  0  0  0  0  0  0
   19.2893   -9.3956  -14.6394 C   0  0  0  0  0  0  0  0  0  0  0  0
   18.1890  -10.0966  -15.3309 C   0  0  0  0  0  0  0  0  0  0  0  0
   18.0232  -11.4734  -15.2241 C   0  0  0  0  0  0  0  0  0  0  0  0
   16.9533  -11.8430  -15.9482 N   0  0  0  0  0  0  0  0  0  0  0  0
   16.4745  -10.7172  -16.4866 C   0  0  0  0  0  0  0  0  0  0  0  0
   17.2107   -9.6634  -16.1210 N   0  0  0  0  0  0  0  0  0  0  0  0
   21.0696   -7.7205  -14.9549 C   0  0  0  0  0  0  0  0  0  0  0  0
   21.9236   -8.0338  -14.1194 O   0  0  0  0  0  0  0  0  0  0  0  0
   23.4566   -5.5723  -16.3796 C   0  0  0  0  0  0  0  0  0  0  0  0
   22.5015   -4.6309  -15.7276 C   0  0  1  0  0  0  0  0  0  0  0  0
   21.7193   -3.8990  -16.7669 C   0  0  0  0  0  0  0  0  0  0  0  0
   21.6344   -5.2838  -14.6808 C   0  0  2  0  0  0  0  0  0  0  0  0
   20.8596   -6.3400  -15.2870 N   0  0  0  0  0  0  0  0  0  0  0  0
   20.8196   -4.3255  -13.9265 C   0  0  0  0  0  0  0  0  0  0  0  0
   21.4182   -3.4652  -13.0360 O   0  0  0  0  0  0  0  0  0  0  0  0
   19.5850   -4.2739  -14.0769 O   0  0  0  0  0  0  0  0  0  0  0  0
  2  1  1  6
  2  3  1  0
  4  2  1  0
  5  6  1  1
  5  4  1  0
  7  5  1  0
  8  7  2  0
  9  7  1  0
 10  9  1  0
 11 12  1  0
 10 11  1  1
 12 16  1  0
 13 12  2  0
 13 14  1  0
 14 15  1  0
 16 15  2  0
 17 10  1  0
 17 18  2  0
 20 19  1  6
 20 22  1  0
 20 21  1  0
 22 23  1  6
 23 17  1  0
 24 22  1  0
 25 24  1  0
 26 24  2  0
M  END
$$$$
