LHV.pdb
     RDKit          3D

 26 26  0  0  1  0  0  0  0  0999 V2000
   19.9146  -17.6133  -19.6760 C   0  0  0  0  0  0  0  0  0  0  0  0
   19.2926  -16.6487  -18.7459 C   0  0  1  0  0  0  0  0  0  0  0  0
   19.1708  -17.3181  -17.3789 C   0  0  0  0  0  0  0  0  0  0  0  0
   20.0475  -15.3714  -18.5441 C   0  0  0  0  0  0  0  0  0  0  0  0
   19.3996  -14.4247  -17.5813 C   0  0  2  0  0  0  0  0  0  0  0  0
   18.0140  -14.2858  -17.9459 N   0  0  0  0  0  0  0  0  0  0  0  0
   20.0419  -13.0940  -17.7429 C   0  0  0  0  0  0  0  0  0  0  0  0
   21.2926  -12.9319  -17.6453 O   0  0  0  0  0  0  0  0  0  0  0  0
   19.2443  -11.9633  -18.0148 N   0  0  0  0  0  0  0  0  0  0  0  0
   19.7842  -10.6210  -18.1113 C   0  0  1  0  0  0  0  0  0  0  0  0
   18.8704   -9.7597  -18.9610 C   0  0  0  0  0  0  0  0  0  0  0  0
   19.1340   -9.9354  -20.4031 C   0  0  0  0  0  0  0  0  0  0  0  0
   20.2065  -10.6946  -20.8591 C   0  0  0  0  0  0  0  0  0  0  0  0
   20.2094  -10.6855  -22.2029 N   0  0  0  0  0  0  0  0  0  0  0  0
   19.1616   -9.9371  -22.5618 C   0  0  0  0  0  0  0  0  0  0  0  0
   18.5102   -9.4826  -21.4870 N   0  0  0  0  0  0  0  0  0  0  0  0
   19.8991  -10.0738  -16.7434 C   0  0  0  0  0  0  0  0  0  0  0  0
   18.9558  -10.1707  -15.9520 O   0  0  0  0  0  0  0  0  0  0  0  0
   21.8534  -11.0130  -14.0018 C   0  0  0  0  0  0  0  0  0  0  0  0
   22.2471   -9.5908  -14.2162 C   0  0  1  0  0  0  0  0  0  0  0  0
   23.6390   -9.5233  -14.7506 C   0  0  0  0  0  0  0  0  0  0  0  0
   21.2550   -8.8105  -15.0412 C   0  0  2  0  0  0  0  0  0  0  0  0
   21.1152   -9.4279  -16.3383 N   0  0  0  0  0  0  0  0  0  0  0  0
   21.5616   -7.3778  -15.1100 C   0  0  0  0  0  0  0  0  0  0  0  0
   21.9181   -6.8078  -16.3097 O   0  0  0  0  0  0  0  0  0  0  0  0
   21.5054   -6.6596  -14.0948 O   0  0  0  0  0  0  0  0  0  0  0  0
  2  1  1  6
  2  3  1  0
  4  2  1  0
  5  6  1  6
  5  4  1  0
  7  5  1  0
  8  7  2  0
  9  7  1  0
 10  9  1  0
 11 12  1  0
 10 11  1  6
 12 16  1  0
 13 12  2  0
 13 14  1  0
 14 15  1  0
 16 15  2  0
 17 10  1  0
 17 18  2  0
 20 19  1  6
 20 22  1  0
 20 21  1  0
 22 23  1  6
 23 17  1  0
 24 22  1  0
 25 24  1  0
 26 24  2  0
M  END
$$$$
