LHV.pdb
     RDKit          3D

 26 26  0  0  1  0  0  0  0  0999 V2000
   28.0064  -18.1538   -6.1809 C   0  0  0  0  0  0  0  0  0  0  0  0
   28.1354  -19.6254   -6.1672 C   0  0  1  0  0  0  0  0  0  0  0  0
   27.1791  -20.1762   -5.1119 C   0  0  0  0  0  0  0  0  0  0  0  0
   27.8088  -20.3117   -7.4573 C   0  0  0  0  0  0  0  0  0  0  0  0
   26.5405  -19.8377   -8.0973 C   0  0  2  0  0  0  0  0  0  0  0  0
   25.4307  -20.3455   -7.3339 N   0  0  0  0  0  0  0  0  0  0  0  0
   26.4608  -20.4342   -9.4564 C   0  0  0  0  0  0  0  0  0  0  0  0
   27.4921  -20.6904  -10.1425 O   0  0  0  0  0  0  0  0  0  0  0  0
   25.2003  -20.7307  -10.0148 N   0  0  0  0  0  0  0  0  0  0  0  0
   25.0381  -21.3192  -11.3300 C   0  0  1  0  0  0  0  0  0  0  0  0
   23.6914  -22.0098  -11.4212 C   0  0  0  0  0  0  0  0  0  0  0  0
   23.4949  -22.6599  -12.7323 C   0  0  0  0  0  0  0  0  0  0  0  0
   24.4858  -22.6430  -13.7081 C   0  0  0  0  0  0  0  0  0  0  0  0
   24.0443  -23.3034  -14.7920 N   0  0  0  0  0  0  0  0  0  0  0  0
   22.8100  -23.7157  -14.4864 C   0  0  0  0  0  0  0  0  0  0  0  0
   22.4721  -23.3335  -13.2511 N   0  0  0  0  0  0  0  0  0  0  0  0
   25.1426  -20.2380  -12.3320 C   0  0  0  0  0  0  0  0  0  0  0  0
   24.5900  -19.1509  -12.1358 O   0  0  0  0  0  0  0  0  0  0  0  0
   28.5540  -18.8727  -13.9838 C   0  0  0  0  0  0  0  0  0  0  0  0
   27.5833  -19.4736  -14.9432 C   0  0  1  0  0  0  0  0  0  0  0  0
   28.0112  -20.8584  -15.2994 C   0  0  0  0  0  0  0  0  0  0  0  0
   26.1512  -19.3949  -14.4776 C   0  0  2  0  0  0  0  0  0  0  0  0
   25.8911  -20.4582  -13.5368 N   0  0  0  0  0  0  0  0  0  0  0  0
   25.1870  -19.3478  -15.5819 C   0  0  0  0  0  0  0  0  0  0  0  0
   24.1942  -20.2954  -15.6687 O   0  0  0  0  0  0  0  0  0  0  0  0
   25.2492  -18.4589  -16.4511 O   0  0  0  0  0  0  0  0  0  0  0  0
  2  1  1  6
  2  3  1  0
  4  2  1  0
  5  6  1  1
  5  4  1  0
  7  5  1  0
  8  7  2  0
  9  7  1  0
 10  9  1  0
 11 12  1  0
 10 11  1  1
 12 16  1  0
 13 12  2  0
 13 14  1  0
 14 15  1  0
 16 15  2  0
 17 10  1  0
 17 18  2  0
 20 19  1  1
 20 22  1  0
 20 21  1  0
 22 23  1  1
 23 17  1  0
 24 22  1  0
 25 24  1  0
 26 24  2  0
M  END
$$$$
