LHV.pdb
     RDKit          3D

 26 26  0  0  1  0  0  0  0  0999 V2000
   19.0064  -15.6001  -20.5000 C   0  0  0  0  0  0  0  0  0  0  0  0
   19.9340  -14.5417  -20.0509 C   0  0  1  0  0  0  0  0  0  0  0  0
   20.7915  -14.1243  -21.2435 C   0  0  0  0  0  0  0  0  0  0  0  0
   19.2856  -13.3008  -19.5200 C   0  0  0  0  0  0  0  0  0  0  0  0
   20.2513  -12.2177  -19.1495 C   0  0  2  0  0  0  0  0  0  0  0  0
   21.1858  -12.7517  -18.1937 N   0  0  0  0  0  0  0  0  0  0  0  0
   19.4896  -11.1339  -18.4754 C   0  0  0  0  0  0  0  0  0  0  0  0
   18.5291  -10.5332  -19.0383 O   0  0  0  0  0  0  0  0  0  0  0  0
   19.8366  -10.7498  -17.1637 N   0  0  0  0  0  0  0  0  0  0  0  0
   19.0859   -9.7696  -16.4034 C   0  0  1  0  0  0  0  0  0  0  0  0
   18.7650  -10.3222  -15.0283 C   0  0  0  0  0  0  0  0  0  0  0  0
   17.5796  -11.2021  -15.0526 C   0  0  0  0  0  0  0  0  0  0  0  0
   16.8323  -11.3836  -16.2116 C   0  0  0  0  0  0  0  0  0  0  0  0
   15.8192  -12.2273  -15.9517 N   0  0  0  0  0  0  0  0  0  0  0  0
   15.9435  -12.5552  -14.6618 C   0  0  0  0  0  0  0  0  0  0  0  0
   16.9983  -11.9439  -14.1142 N   0  0  0  0  0  0  0  0  0  0  0  0
   19.9060   -8.5447  -16.2987 C   0  0  0  0  0  0  0  0  0  0  0  0
   21.0847   -8.6130  -15.9360 O   0  0  0  0  0  0  0  0  0  0  0  0
   20.4332   -3.8674  -17.7565 C   0  0  0  0  0  0  0  0  0  0  0  0
   19.7525   -5.1943  -17.7648 C   0  0  1  0  0  0  0  0  0  0  0  0
   19.9939   -5.8816  -19.0675 C   0  0  0  0  0  0  0  0  0  0  0  0
   20.0893   -6.0498  -16.5696 C   0  0  2  0  0  0  0  0  0  0  0  0
   19.3244   -7.2728  -16.6213 N   0  0  0  0  0  0  0  0  0  0  0  0
   19.9591   -5.3369  -15.2944 C   0  0  0  0  0  0  0  0  0  0  0  0
   18.9429   -5.6608  -14.4262 O   0  0  0  0  0  0  0  0  0  0  0  0
   20.7573   -4.4355  -14.9782 O   0  0  0  0  0  0  0  0  0  0  0  0
  2  1  1  6
  2  3  1  0
  4  2  1  0
  5  6  1  1
  5  4  1  0
  7  5  1  0
  8  7  2  0
  9  7  1  0
 10  9  1  0
 11 12  1  0
 10 11  1  1
 12 16  1  0
 13 12  2  0
 13 14  1  0
 14 15  1  0
 16 15  2  0
 17 10  1  0
 17 18  2  0
 20 19  1  6
 20 22  1  0
 20 21  1  0
 22 23  1  1
 23 17  1  0
 24 22  1  0
 25 24  1  0
 26 24  2  0
M  END
$$$$
