LHV.pdb
     RDKit          3D

 26 26  0  0  1  0  0  0  0  0999 V2000
   19.0692  -13.7018  -16.6233 C   0  0  0  0  0  0  0  0  0  0  0  0
   17.8905  -12.8476  -16.3713 C   0  0  1  0  0  0  0  0  0  0  0  0
   17.6043  -12.8635  -14.8715 C   0  0  0  0  0  0  0  0  0  0  0  0
   18.0371  -11.4134  -16.7756 C   0  0  0  0  0  0  0  0  0  0  0  0
   16.9224  -10.5297  -16.3072 C   0  0  2  0  0  0  0  0  0  0  0  0
   15.7871  -10.7383  -17.1674 N   0  0  0  0  0  0  0  0  0  0  0  0
   17.3559   -9.1174  -16.4706 C   0  0  0  0  0  0  0  0  0  0  0  0
   17.6883   -8.6390  -17.5934 O   0  0  0  0  0  0  0  0  0  0  0  0
   17.4040   -8.2684  -15.3457 N   0  0  0  0  0  0  0  0  0  0  0  0
   17.7318   -6.8587  -15.4340 C   0  0  1  0  0  0  0  0  0  0  0  0
   16.4995   -6.0255  -15.1400 C   0  0  0  0  0  0  0  0  0  0  0  0
   15.5803   -5.9778  -16.2945 C   0  0  0  0  0  0  0  0  0  0  0  0
   14.3882   -6.6943  -16.3049 C   0  0  0  0  0  0  0  0  0  0  0  0
   13.7528   -6.4703  -17.4677 N   0  0  0  0  0  0  0  0  0  0  0  0
   14.5388   -5.6349  -18.1541 C   0  0  0  0  0  0  0  0  0  0  0  0
   15.6385   -5.3340  -17.4569 N   0  0  0  0  0  0  0  0  0  0  0  0
   18.8028   -6.5750  -14.4561 C   0  0  0  0  0  0  0  0  0  0  0  0
   18.6757   -6.9163  -13.2759 O   0  0  0  0  0  0  0  0  0  0  0  0
   22.7416   -6.0975  -15.8296 C   0  0  0  0  0  0  0  0  0  0  0  0
   22.3022   -6.4377  -14.4458 C   0  0  1  0  0  0  0  0  0  0  0  0
   23.4583   -6.3412  -13.5068 C   0  0  0  0  0  0  0  0  0  0  0  0
   21.0975   -5.6546  -13.9883 C   0  0  2  0  0  0  0  0  0  0  0  0
   19.9941   -5.8994  -14.8859 N   0  0  0  0  0  0  0  0  0  0  0  0
   21.3779   -4.2289  -13.7880 C   0  0  0  0  0  0  0  0  0  0  0  0
   22.0838   -3.8157  -12.6825 O   0  0  0  0  0  0  0  0  0  0  0  0
   20.9862   -3.3763  -14.6061 O   0  0  0  0  0  0  0  0  0  0  0  0
  2  1  1  1
  2  3  1  0
  4  2  1  0
  5  6  1  6
  5  4  1  0
  7  5  1  0
  8  7  2  0
  9  7  1  0
 10  9  1  0
 11 12  1  0
 10 11  1  1
 12 16  1  0
 13 12  2  0
 13 14  1  0
 14 15  1  0
 16 15  2  0
 17 10  1  0
 17 18  2  0
 20 19  1  6
 20 22  1  0
 20 21  1  0
 22 23  1  6
 23 17  1  0
 24 22  1  0
 25 24  1  0
 26 24  2  0
M  END
$$$$
