LHV.pdb
     RDKit          3D

 26 26  0  0  1  0  0  0  0  0999 V2000
   28.3096  -17.7666  -15.9555 C   0  0  0  0  0  0  0  0  0  0  0  0
   27.4924  -18.8551  -15.3814 C   0  0  1  0  0  0  0  0  0  0  0  0
   27.5020  -18.7055  -13.8618 C   0  0  0  0  0  0  0  0  0  0  0  0
   26.0583  -18.8785  -15.8117 C   0  0  0  0  0  0  0  0  0  0  0  0
   25.2287  -19.9132  -15.1160 C   0  0  2  0  0  0  0  0  0  0  0  0
   25.7072  -21.2139  -15.5052 N   0  0  0  0  0  0  0  0  0  0  0  0
   23.8305  -19.7848  -15.6034 C   0  0  0  0  0  0  0  0  0  0  0  0
   23.5477  -19.7262  -16.8349 O   0  0  0  0  0  0  0  0  0  0  0  0
   22.7711  -19.7248  -14.6745 N   0  0  0  0  0  0  0  0  0  0  0  0
   21.3800  -19.6183  -15.0693 C   0  0  1  0  0  0  0  0  0  0  0  0
   20.5489  -20.6258  -14.2991 C   0  0  0  0  0  0  0  0  0  0  0  0
   20.5745  -21.9589  -14.9336 C   0  0  0  0  0  0  0  0  0  0  0  0
   21.2427  -22.1806  -16.1331 C   0  0  0  0  0  0  0  0  0  0  0  0
   21.1044  -23.4717  -16.4791 N   0  0  0  0  0  0  0  0  0  0  0  0
   20.3677  -24.0283  -15.5126 C   0  0  0  0  0  0  0  0  0  0  0  0
   20.0450  -23.1267  -14.5803 N   0  0  0  0  0  0  0  0  0  0  0  0
   20.9279  -18.2399  -14.7876 C   0  0  0  0  0  0  0  0  0  0  0  0
   21.0666  -17.7568  -13.6593 O   0  0  0  0  0  0  0  0  0  0  0  0
   22.0016  -14.9533  -16.0619 C   0  0  0  0  0  0  0  0  0  0  0  0
   20.5845  -15.1558  -16.4797 C   0  0  1  0  0  0  0  0  0  0  0  0
   20.5265  -15.5042  -17.9298 C   0  0  0  0  0  0  0  0  0  0  0  0
   19.8329  -16.1267  -15.6043 C   0  0  2  0  0  0  0  0  0  0  0  0
   20.3255  -17.4639  -15.8340 N   0  0  0  0  0  0  0  0  0  0  0  0
   18.3764  -16.0139  -15.7354 C   0  0  0  0  0  0  0  0  0  0  0  0
   17.6481  -17.0650  -16.2414 O   0  0  0  0  0  0  0  0  0  0  0  0
   17.7795  -14.9759  -15.3948 O   0  0  0  0  0  0  0  0  0  0  0  0
  2  1  1  6
  2  3  1  0
  4  2  1  0
  5  6  1  6
  5  4  1  0
  7  5  1  0
  8  7  2  0
  9  7  1  0
 10  9  1  0
 11 12  1  0
 10 11  1  1
 12 16  1  0
 13 12  2  0
 13 14  1  0
 14 15  1  0
 16 15  2  0
 17 10  1  0
 17 18  2  0
 20 19  1  1
 20 22  1  0
 20 21  1  0
 22 23  1  6
 23 17  1  0
 24 22  1  0
 25 24  1  0
 26 24  2  0
M  END
$$$$
