LHV.pdb
     RDKit          3D

 26 26  0  0  1  0  0  0  0  0999 V2000
   32.6157  -27.8912  -18.4341 C   0  0  0  0  0  0  0  0  0  0  0  0
   31.3404  -27.1458  -18.4559 C   0  0  1  0  0  0  0  0  0  0  0  0
   30.7860  -27.1946  -19.8778 C   0  0  0  0  0  0  0  0  0  0  0  0
   30.2717  -27.6728  -17.5491 C   0  0  0  0  0  0  0  0  0  0  0  0
   29.0066  -26.8716  -17.5660 C   0  0  2  0  0  0  0  0  0  0  0  0
   29.2267  -25.6618  -16.8175 N   0  0  0  0  0  0  0  0  0  0  0  0
   27.9585  -27.6528  -16.8585 C   0  0  0  0  0  0  0  0  0  0  0  0
   27.7296  -27.5105  -15.6226 O   0  0  0  0  0  0  0  0  0  0  0  0
   27.1840  -28.5886  -17.5746 N   0  0  0  0  0  0  0  0  0  0  0  0
   25.9884  -29.2040  -17.0320 C   0  0  1  0  0  0  0  0  0  0  0  0
   24.7767  -28.7635  -17.8300 C   0  0  0  0  0  0  0  0  0  0  0  0
   24.4341  -27.3503  -17.5737 C   0  0  0  0  0  0  0  0  0  0  0  0
   23.7910  -26.9584  -16.4044 C   0  0  0  0  0  0  0  0  0  0  0  0
   23.6030  -25.6281  -16.4327 N   0  0  0  0  0  0  0  0  0  0  0  0
   24.1198  -25.2146  -17.5940 C   0  0  0  0  0  0  0  0  0  0  0  0
   24.6211  -26.2424  -18.2856 N   0  0  0  0  0  0  0  0  0  0  0  0
   26.1567  -30.6706  -17.0996 C   0  0  0  0  0  0  0  0  0  0  0  0
   26.8284  -31.1799  -18.0024 O   0  0  0  0  0  0  0  0  0  0  0  0
   25.2439  -34.8698  -14.5756 C   0  0  0  0  0  0  0  0  0  0  0  0
   25.6710  -33.4456  -14.6897 C   0  0  1  0  0  0  0  0  0  0  0  0
   26.9642  -33.2433  -13.9726 C   0  0  0  0  0  0  0  0  0  0  0  0
   25.6920  -32.9364  -16.1089 C   0  0  2  0  0  0  0  0  0  0  0  0
   25.5342  -31.5017  -16.1087 N   0  0  0  0  0  0  0  0  0  0  0  0
   24.7373  -33.6256  -16.9836 C   0  0  0  0  0  0  0  0  0  0  0  0
   23.5315  -33.0368  -17.2843 O   0  0  0  0  0  0  0  0  0  0  0  0
   24.9984  -34.7438  -17.4643 O   0  0  0  0  0  0  0  0  0  0  0  0
  2  1  1  6
  2  3  1  0
  4  2  1  0
  5  6  1  1
  5  4  1  0
  7  5  1  0
  8  7  2  0
  9  7  1  0
 10  9  1  0
 11 12  1  0
 10 11  1  6
 12 16  1  0
 13 12  2  0
 13 14  1  0
 14 15  1  0
 16 15  2  0
 17 10  1  0
 17 18  2  0
 20 19  1  6
 20 22  1  0
 20 21  1  0
 22 23  1  1
 23 17  1  0
 24 22  1  0
 25 24  1  0
 26 24  2  0
M  END
$$$$
