LHV.pdb
     RDKit          3D

 26 26  0  0  1  0  0  0  0  0999 V2000
   33.7694  -31.9982  -19.1729 C   0  0  0  0  0  0  0  0  0  0  0  0
   34.1991  -31.6322  -17.8077 C   0  0  1  0  0  0  0  0  0  0  0  0
   34.9071  -30.2812  -17.8788 C   0  0  0  0  0  0  0  0  0  0  0  0
   33.0988  -31.4993  -16.8009 C   0  0  0  0  0  0  0  0  0  0  0  0
   32.3567  -32.7729  -16.5355 C   0  0  2  0  0  0  0  0  0  0  0  0
   32.2088  -33.4788  -17.7812 N   0  0  0  0  0  0  0  0  0  0  0  0
   30.9952  -32.4197  -16.0551 C   0  0  0  0  0  0  0  0  0  0  0  0
   30.8041  -31.7623  -14.9914 O   0  0  0  0  0  0  0  0  0  0  0  0
   29.8671  -32.8236  -16.7987 N   0  0  0  0  0  0  0  0  0  0  0  0
   28.5171  -32.4047  -16.4753 C   0  0  1  0  0  0  0  0  0  0  0  0
   28.0623  -31.3383  -17.4526 C   0  0  0  0  0  0  0  0  0  0  0  0
   28.6951  -30.0333  -17.1756 C   0  0  0  0  0  0  0  0  0  0  0  0
   28.2289  -29.1990  -16.1651 C   0  0  0  0  0  0  0  0  0  0  0  0
   28.9820  -28.0865  -16.1336 N   0  0  0  0  0  0  0  0  0  0  0  0
   29.8895  -28.2364  -17.1035 C   0  0  0  0  0  0  0  0  0  0  0  0
   29.7243  -29.4030  -17.7344 N   0  0  0  0  0  0  0  0  0  0  0  0
   27.6394  -33.5913  -16.5473 C   0  0  0  0  0  0  0  0  0  0  0  0
   27.8434  -34.4671  -17.3940 O   0  0  0  0  0  0  0  0  0  0  0  0
   26.6542  -35.7045  -13.4419 C   0  0  0  0  0  0  0  0  0  0  0  0
   25.4272  -35.2965  -14.1849 C   0  0  1  0  0  0  0  0  0  0  0  0
   24.6816  -34.2635  -13.4074 C   0  0  0  0  0  0  0  0  0  0  0  0
   25.6965  -34.8878  -15.6112 C   0  0  2  0  0  0  0  0  0  0  0  0
   26.5463  -33.7212  -15.6261 N   0  0  0  0  0  0  0  0  0  0  0  0
   24.4744  -34.7262  -16.4058 C   0  0  0  0  0  0  0  0  0  0  0  0
   23.7756  -35.8338  -16.8255 O   0  0  0  0  0  0  0  0  0  0  0  0
   24.0519  -33.5958  -16.7115 O   0  0  0  0  0  0  0  0  0  0  0  0
  2  1  1  6
  2  3  1  0
  4  2  1  0
  5  6  1  6
  5  4  1  0
  7  5  1  0
  8  7  2  0
  9  7  1  0
 10  9  1  0
 11 12  1  0
 10 11  1  6
 12 16  1  0
 13 12  2  0
 13 14  1  0
 14 15  1  0
 16 15  2  0
 17 10  1  0
 17 18  2  0
 20 19  1  1
 20 22  1  0
 20 21  1  0
 22 23  1  1
 23 17  1  0
 24 22  1  0
 25 24  1  0
 26 24  2  0
M  END
$$$$
