LHV.pdb
     RDKit          3D

 26 26  0  0  1  0  0  0  0  0999 V2000
   22.6850  -25.6297  -14.1669 C   0  0  0  0  0  0  0  0  0  0  0  0
   23.5802  -24.8293  -15.0274 C   0  0  1  0  0  0  0  0  0  0  0  0
   24.4581  -23.9649  -14.1253 C   0  0  0  0  0  0  0  0  0  0  0  0
   24.4981  -25.6172  -15.9098 C   0  0  0  0  0  0  0  0  0  0  0  0
   25.4701  -24.7800  -16.6827 C   0  0  2  0  0  0  0  0  0  0  0  0
   24.7245  -23.8915  -17.5353 N   0  0  0  0  0  0  0  0  0  0  0  0
   26.2606  -25.6842  -17.5582 C   0  0  0  0  0  0  0  0  0  0  0  0
   25.7219  -26.4000  -18.4513 O   0  0  0  0  0  0  0  0  0  0  0  0
   27.6601  -25.7587  -17.4012 N   0  0  0  0  0  0  0  0  0  0  0  0
   28.5098  -26.5574  -18.2628 C   0  0  1  0  0  0  0  0  0  0  0  0
   29.8915  -25.9376  -18.3391 C   0  0  0  0  0  0  0  0  0  0  0  0
   30.7444  -26.6172  -19.3345 C   0  0  0  0  0  0  0  0  0  0  0  0
   30.2886  -27.7181  -20.0521 C   0  0  0  0  0  0  0  0  0  0  0  0
   31.2614  -28.1339  -20.8807 N   0  0  0  0  0  0  0  0  0  0  0  0
   32.2903  -27.3057  -20.6749 C   0  0  0  0  0  0  0  0  0  0  0  0
   31.9883  -26.3917  -19.7478 N   0  0  0  0  0  0  0  0  0  0  0  0
   28.5773  -27.9229  -17.7018 C   0  0  0  0  0  0  0  0  0  0  0  0
   28.7500  -28.0912  -16.4904 O   0  0  0  0  0  0  0  0  0  0  0  0
   27.2865  -29.6560  -15.9390 C   0  0  0  0  0  0  0  0  0  0  0  0
   27.2051  -30.5430  -17.1350 C   0  0  1  0  0  0  0  0  0  0  0  0
   25.8904  -30.3583  -17.8169 C   0  0  0  0  0  0  0  0  0  0  0  0
   28.3828  -30.4050  -18.0667 C   0  0  2  0  0  0  0  0  0  0  0  0
   28.4407  -29.0549  -18.5737 N   0  0  0  0  0  0  0  0  0  0  0  0
   28.4062  -31.4232  -19.1222 C   0  0  0  0  0  0  0  0  0  0  0  0
   28.2212  -31.0572  -20.4348 O   0  0  0  0  0  0  0  0  0  0  0  0
   28.5919  -32.6241  -18.8519 O   0  0  0  0  0  0  0  0  0  0  0  0
  2  1  1  1
  2  3  1  0
  4  2  1  0
  5  6  1  6
  5  4  1  0
  7  5  1  0
  8  7  2  0
  9  7  1  0
 10  9  1  0
 11 12  1  0
 10 11  1  1
 12 16  1  0
 13 12  2  0
 13 14  1  0
 14 15  1  0
 16 15  2  0
 17 10  1  0
 17 18  2  0
 20 19  1  1
 20 22  1  0
 20 21  1  0
 22 23  1  6
 23 17  1  0
 24 22  1  0
 25 24  1  0
 26 24  2  0
M  END
$$$$
