LHV.pdb
     RDKit          3D

 26 26  0  0  1  0  0  0  0  0999 V2000
   30.1318  -20.5720   -9.9939 C   0  0  0  0  0  0  0  0  0  0  0  0
   29.5020  -21.0887  -11.2263 C   0  0  1  0  0  0  0  0  0  0  0  0
   29.0756  -22.5327  -10.9723 C   0  0  0  0  0  0  0  0  0  0  0  0
   28.2863  -20.3460  -11.6875 C   0  0  0  0  0  0  0  0  0  0  0  0
   27.7032  -20.8633  -12.9662 C   0  0  2  0  0  0  0  0  0  0  0  0
   28.5936  -20.5167  -14.0429 N   0  0  0  0  0  0  0  0  0  0  0  0
   26.4166  -20.1578  -13.2029 C   0  0  0  0  0  0  0  0  0  0  0  0
   26.2151  -18.9719  -12.8114 O   0  0  0  0  0  0  0  0  0  0  0  0
   25.3745  -20.8185  -13.8857 N   0  0  0  0  0  0  0  0  0  0  0  0
   24.1165  -20.1777  -14.2164 C   0  0  1  0  0  0  0  0  0  0  0  0
   23.9122  -20.1918  -15.7187 C   0  0  0  0  0  0  0  0  0  0  0  0
   24.8169  -19.2481  -16.4052 C   0  0  0  0  0  0  0  0  0  0  0  0
   25.6297  -18.3720  -15.6937 C   0  0  0  0  0  0  0  0  0  0  0  0
   26.3433  -17.6344  -16.5611 N   0  0  0  0  0  0  0  0  0  0  0  0
   25.9756  -18.0500  -17.7772 C   0  0  0  0  0  0  0  0  0  0  0  0
   25.0591  -19.0191  -17.6927 N   0  0  0  0  0  0  0  0  0  0  0  0
   23.0333  -20.9143  -13.5324 C   0  0  0  0  0  0  0  0  0  0  0  0
   23.0517  -22.1484  -13.4855 O   0  0  0  0  0  0  0  0  0  0  0  0
   21.8683  -20.4429  -10.0124 C   0  0  0  0  0  0  0  0  0  0  0  0
   20.6698  -20.2876  -10.8861 C   0  0  1  0  0  0  0  0  0  0  0  0
   20.2246  -18.8631  -10.8906 C   0  0  0  0  0  0  0  0  0  0  0  0
   20.8573  -20.8564  -12.2700 C   0  0  2  0  0  0  0  0  0  0  0  0
   21.9574  -20.1866  -12.9215 N   0  0  0  0  0  0  0  0  0  0  0  0
   19.6250  -20.8576  -13.0654 C   0  0  0  0  0  0  0  0  0  0  0  0
   18.5823  -21.6836  -12.7166 O   0  0  0  0  0  0  0  0  0  0  0  0
   19.5019  -20.1190  -14.0599 O   0  0  0  0  0  0  0  0  0  0  0  0
  2  1  1  1
  2  3  1  0
  4  2  1  0
  5  6  1  6
  5  4  1  0
  7  5  1  0
  8  7  2  0
  9  7  1  0
 10  9  1  0
 11 12  1  0
 10 11  1  6
 12 16  1  0
 13 12  2  0
 13 14  1  0
 14 15  1  0
 16 15  2  0
 17 10  1  0
 17 18  2  0
 20 19  1  1
 20 22  1  0
 20 21  1  0
 22 23  1  6
 23 17  1  0
 24 22  1  0
 25 24  1  0
 26 24  2  0
M  END
$$$$
