TYW.pdb
     RDKit          3D

 34 36  0  0  1  0  0  0  0  0999 V2000
    9.0306  -18.7993   17.2917 C   0  0  0  0  0  0  0  0  0  0  0  0
    8.9000  -18.5191   18.7531 C   0  0  1  0  0  0  0  0  0  0  0  0
    9.1356  -17.1910   19.0816 O   0  0  0  0  0  0  0  0  0  0  0  0
    7.5455  -18.9515   19.2998 C   0  0  2  0  0  0  0  0  0  0  0  0
    6.4583  -18.3720   18.5860 N   0  0  0  0  0  0  0  0  0  0  0  0
    7.5453  -18.6889   20.7452 C   0  0  0  0  0  0  0  0  0  0  0  0
    6.9340  -17.6253   21.1076 O   0  0  0  0  0  0  0  0  0  0  0  0
    3.6562  -23.7339   23.0486 O   0  0  0  0  0  0  0  0  0  0  0  0
    4.7533  -22.8967   23.2744 C   0  0  0  0  0  0  0  0  0  0  0  0
    5.9217  -23.0171   22.5573 C   0  0  0  0  0  0  0  0  0  0  0  0
    7.0117  -22.1699   22.7961 C   0  0  0  0  0  0  0  0  0  0  0  0
    6.9211  -21.1979   23.7629 C   0  0  0  0  0  0  0  0  0  0  0  0
    8.0317  -20.2917   24.0462 C   0  0  0  0  0  0  0  0  0  0  0  0
    8.1517  -19.1368   23.0826 C   0  0  2  0  0  0  0  0  0  0  0  0
    8.1587  -19.5127   21.7171 N   0  0  0  0  0  0  0  0  0  0  0  0
    9.3315  -18.2589   23.4348 C   0  0  0  0  0  0  0  0  0  0  0  0
   10.2088  -18.0667   22.5496 O   0  0  0  0  0  0  0  0  0  0  0  0
    5.7445  -21.0955   24.4674 C   0  0  0  0  0  0  0  0  0  0  0  0
    4.6675  -21.9291   24.2345 C   0  0  0  0  0  0  0  0  0  0  0  0
    9.4477  -17.6716   24.7177 N   0  0  0  0  0  0  0  0  0  0  0  0
    9.3361  -16.2120   24.8225 C   0  0  1  0  0  0  0  0  0  0  0  0
    8.0561  -15.7376   24.2411 C   0  0  0  0  0  0  0  0  0  0  0  0
    7.9188  -14.2830   24.2963 C   0  0  0  0  0  0  0  0  0  0  0  0
    8.3379  -13.3843   23.3117 C   0  0  0  0  0  0  0  0  0  0  0  0
    8.0931  -12.1344   23.7118 N   0  0  0  0  0  0  0  0  0  0  0  0
    7.5268  -12.1744   24.9236 C   0  0  0  0  0  0  0  0  0  0  0  0
    7.0730  -11.1715   25.7482 C   0  0  0  0  0  0  0  0  0  0  0  0
    6.4892  -11.4247   26.9686 C   0  0  0  0  0  0  0  0  0  0  0  0
    6.3721  -12.7466   27.3444 C   0  0  0  0  0  0  0  0  0  0  0  0
    6.8262  -13.7397   26.5198 C   0  0  0  0  0  0  0  0  0  0  0  0
    7.4122  -13.5069   25.2988 C   0  0  0  0  0  0  0  0  0  0  0  0
    9.5674  -15.8402   26.2116 C   0  0  0  0  0  0  0  0  0  0  0  0
    8.9664  -16.3408   27.2185 O   0  0  0  0  0  0  0  0  0  0  0  0
   10.5295  -14.8485   26.4891 O   0  0  0  0  0  0  0  0  0  0  0  0
  2  1  1  6
  2  3  1  0
  4  5  1  6
  4  2  1  0
  6  7  2  0
  6  4  1  0
  8  9  1  0
  9 19  2  0
  9 10  1  0
 10 11  2  0
 11 12  1  0
 12 13  1  0
 14 13  1  1
 14 15  1  0
 15  6  1  0
 16 14  1  0
 16 20  1  0
 17 16  2  0
 18 12  2  0
 19 18  1  0
 21 20  1  0
 21 32  1  0
 21 22  1  1
 23 22  1  0
 24 23  2  0
 25 26  1  0
 25 24  1  0
 26 31  2  0
 27 26  1  0
 27 28  2  0
 28 29  1  0
 29 30  2  0
 31 23  1  0
 31 30  1  0
 32 33  2  0
 32 34  1  0
M  END
$$$$
