TYW.pdb
     RDKit          3D

 34 36  0  0  1  0  0  0  0  0999 V2000
    9.2805  -20.8349   18.6347 C   0  0  0  0  0  0  0  0  0  0  0  0
    9.8799  -19.8247   19.5575 C   0  0  1  0  0  0  0  0  0  0  0  0
   11.1680  -20.1463   19.9631 O   0  0  0  0  0  0  0  0  0  0  0  0
    9.8637  -18.4235   18.9603 C   0  0  2  0  0  0  0  0  0  0  0  0
   10.7129  -18.3046   17.8236 N   0  0  0  0  0  0  0  0  0  0  0  0
   10.1477  -17.4747   20.0453 C   0  0  0  0  0  0  0  0  0  0  0  0
   11.2768  -16.8785   19.9688 O   0  0  0  0  0  0  0  0  0  0  0  0
    7.0791  -11.8630   18.2955 O   0  0  0  0  0  0  0  0  0  0  0  0
    7.4376  -12.7270   19.3349 C   0  0  0  0  0  0  0  0  0  0  0  0
    6.7334  -13.8792   19.6005 C   0  0  0  0  0  0  0  0  0  0  0  0
    7.1061  -14.7341   20.6460 C   0  0  0  0  0  0  0  0  0  0  0  0
    8.1939  -14.4240   21.4258 C   0  0  0  0  0  0  0  0  0  0  0  0
    8.6196  -15.2857   22.5262 C   0  0  0  0  0  0  0  0  0  0  0  0
    9.6706  -16.3006   22.1490 C   0  0  2  0  0  0  0  0  0  0  0  0
    9.2777  -17.1963   21.1248 N   0  0  0  0  0  0  0  0  0  0  0  0
   10.1840  -17.0275   23.3715 C   0  0  0  0  0  0  0  0  0  0  0  0
   10.4754  -18.2487   23.2526 O   0  0  0  0  0  0  0  0  0  0  0  0
    8.8828  -13.2680   21.1428 C   0  0  0  0  0  0  0  0  0  0  0  0
    8.5183  -12.4225   20.1126 C   0  0  0  0  0  0  0  0  0  0  0  0
   10.3325  -16.3588   24.6104 N   0  0  0  0  0  0  0  0  0  0  0  0
    9.4870  -16.7848   25.7318 C   0  0  1  0  0  0  0  0  0  0  0  0
    8.2091  -16.0309   25.7453 C   0  0  0  0  0  0  0  0  0  0  0  0
    8.2786  -14.8217   26.5642 C   0  0  0  0  0  0  0  0  0  0  0  0
    9.1854  -14.5875   27.6012 C   0  0  0  0  0  0  0  0  0  0  0  0
    8.9343  -13.3999   28.1569 N   0  0  0  0  0  0  0  0  0  0  0  0
    7.8961  -12.8406   27.5246 C   0  0  0  0  0  0  0  0  0  0  0  0
    7.2695  -11.6290   27.7018 C   0  0  0  0  0  0  0  0  0  0  0  0
    6.2141  -11.2207   26.9185 C   0  0  0  0  0  0  0  0  0  0  0  0
    5.7973  -12.0861   25.9287 C   0  0  0  0  0  0  0  0  0  0  0  0
    6.4244  -13.2903   25.7581 C   0  0  0  0  0  0  0  0  0  0  0  0
    7.4787  -13.7158   26.5300 C   0  0  0  0  0  0  0  0  0  0  0  0
    9.3569  -18.2342   25.6740 C   0  0  0  0  0  0  0  0  0  0  0  0
    9.0056  -18.9024   24.6464 O   0  0  0  0  0  0  0  0  0  0  0  0
    9.6372  -18.9797   26.8367 O   0  0  0  0  0  0  0  0  0  0  0  0
  2  1  1  6
  2  3  1  0
  4  5  1  6
  4  2  1  0
  6  7  2  0
  6  4  1  0
  8  9  1  0
  9 19  2  0
  9 10  1  0
 10 11  2  0
 11 12  1  0
 12 13  1  0
 14 13  1  1
 14 15  1  0
 15  6  1  0
 16 14  1  0
 16 20  1  0
 17 16  2  0
 18 12  2  0
 19 18  1  0
 21 20  1  0
 21 32  1  0
 21 22  1  6
 23 22  1  0
 24 23  2  0
 25 26  1  0
 25 24  1  0
 26 31  2  0
 27 26  1  0
 27 28  2  0
 28 29  1  0
 29 30  2  0
 31 23  1  0
 31 30  1  0
 32 33  2  0
 32 34  1  0
M  END
$$$$
