TYW.pdb
     RDKit          3D

 34 36  0  0  1  0  0  0  0  0999 V2000
    8.6890  -20.8654   20.5739 C   0  0  0  0  0  0  0  0  0  0  0  0
    9.2313  -19.5970   21.1471 C   0  0  1  0  0  0  0  0  0  0  0  0
   10.4212  -19.7714   21.8406 O   0  0  0  0  0  0  0  0  0  0  0  0
    9.4083  -18.5191   20.0854 C   0  0  2  0  0  0  0  0  0  0  0  0
   10.3056  -18.9123   19.0523 N   0  0  0  0  0  0  0  0  0  0  0  0
    9.7674  -17.2720   20.7738 C   0  0  0  0  0  0  0  0  0  0  0  0
   10.9542  -16.8484   20.5542 O   0  0  0  0  0  0  0  0  0  0  0  0
    7.0979  -13.1394   16.5825 O   0  0  0  0  0  0  0  0  0  0  0  0
    7.4333  -13.3745   17.9196 C   0  0  0  0  0  0  0  0  0  0  0  0
    8.4332  -12.6735   18.5542 C   0  0  0  0  0  0  0  0  0  0  0  0
    8.7568  -12.9215   19.8946 C   0  0  0  0  0  0  0  0  0  0  0  0
    8.0679  -13.8811   20.5963 C   0  0  0  0  0  0  0  0  0  0  0  0
    8.3703  -14.1734   21.9955 C   0  0  0  0  0  0  0  0  0  0  0  0
    9.3330  -15.3177   22.1965 C   0  0  2  0  0  0  0  0  0  0  0  0
    8.9090  -16.5450   21.6307 N   0  0  0  0  0  0  0  0  0  0  0  0
    9.7022  -15.4639   23.6555 C   0  0  0  0  0  0  0  0  0  0  0  0
   10.3380  -14.5209   24.2005 O   0  0  0  0  0  0  0  0  0  0  0  0
    7.0730  -14.5695   19.9425 C   0  0  0  0  0  0  0  0  0  0  0  0
    6.7511  -14.3276   18.6208 C   0  0  0  0  0  0  0  0  0  0  0  0
    9.3460  -16.6227   24.3866 N   0  0  0  0  0  0  0  0  0  0  0  0
    9.7378  -16.6967   25.7990 C   0  0  1  0  0  0  0  0  0  0  0  0
    8.5447  -16.8251   26.6716 C   0  0  0  0  0  0  0  0  0  0  0  0
    7.4988  -15.8590   26.3391 C   0  0  0  0  0  0  0  0  0  0  0  0
    6.2639  -16.1587   25.7579 C   0  0  0  0  0  0  0  0  0  0  0  0
    5.5772  -15.0315   25.5573 N   0  0  0  0  0  0  0  0  0  0  0  0
    6.3124  -13.9987   25.9857 C   0  0  0  0  0  0  0  0  0  0  0  0
    6.0510  -12.6487   26.0183 C   0  0  0  0  0  0  0  0  0  0  0  0
    6.9441  -11.7346   26.5293 C   0  0  0  0  0  0  0  0  0  0  0  0
    8.1353  -12.2290   27.0181 C   0  0  0  0  0  0  0  0  0  0  0  0
    8.3896  -13.5730   26.9820 C   0  0  0  0  0  0  0  0  0  0  0  0
    7.5114  -14.5006   26.4754 C   0  0  0  0  0  0  0  0  0  0  0  0
   10.7300  -17.7539   25.9376 C   0  0  0  0  0  0  0  0  0  0  0  0
   11.1151  -18.5305   25.0025 O   0  0  0  0  0  0  0  0  0  0  0  0
   11.3265  -17.9528   27.1988 O   0  0  0  0  0  0  0  0  0  0  0  0
  2  1  1  6
  2  3  1  0
  4  5  1  6
  4  2  1  0
  6  7  2  0
  6  4  1  0
  8  9  1  0
  9 19  2  0
  9 10  1  0
 10 11  2  0
 11 12  1  0
 12 13  1  0
 14 13  1  1
 14 15  1  0
 15  6  1  0
 16 14  1  0
 16 20  1  0
 17 16  2  0
 18 12  2  0
 19 18  1  0
 21 20  1  0
 21 32  1  0
 21 22  1  1
 23 22  1  0
 24 23  2  0
 25 26  1  0
 25 24  1  0
 26 31  2  0
 27 26  1  0
 27 28  2  0
 28 29  1  0
 29 30  2  0
 31 23  1  0
 31 30  1  0
 32 33  2  0
 32 34  1  0
M  END
$$$$
