TYW.pdb
     RDKit          3D

 34 36  0  0  1  0  0  0  0  0999 V2000
    9.7268  -14.0498   16.6462 C   0  0  0  0  0  0  0  0  0  0  0  0
    9.4131  -14.5540   18.0169 C   0  0  1  0  0  0  0  0  0  0  0  0
   10.1403  -13.9208   19.0156 O   0  0  0  0  0  0  0  0  0  0  0  0
    7.9252  -14.4684   18.3314 C   0  0  2  0  0  0  0  0  0  0  0  0
    7.4291  -13.1354   18.2661 N   0  0  0  0  0  0  0  0  0  0  0  0
    7.7023  -15.1481   19.6145 C   0  0  0  0  0  0  0  0  0  0  0  0
    7.5231  -14.3761   20.6185 O   0  0  0  0  0  0  0  0  0  0  0  0
    7.5235  -20.9731   26.2182 O   0  0  0  0  0  0  0  0  0  0  0  0
    7.4255  -20.3777   24.9567 C   0  0  0  0  0  0  0  0  0  0  0  0
    6.2513  -19.8225   24.5020 C   0  0  0  0  0  0  0  0  0  0  0  0
    6.1702  -19.2297   23.2352 C   0  0  0  0  0  0  0  0  0  0  0  0
    7.2792  -19.1978   22.4248 C   0  0  0  0  0  0  0  0  0  0  0  0
    7.2417  -18.5900   21.0967 C   0  0  0  0  0  0  0  0  0  0  0  0
    7.5109  -17.1054   21.0857 C   0  0  2  0  0  0  0  0  0  0  0  0
    7.6767  -16.5506   19.7931 N   0  0  0  0  0  0  0  0  0  0  0  0
    8.6611  -16.7574   22.0036 C   0  0  0  0  0  0  0  0  0  0  0  0
    9.8299  -16.8184   21.5340 O   0  0  0  0  0  0  0  0  0  0  0  0
    8.4419  -19.7585   22.8991 C   0  0  0  0  0  0  0  0  0  0  0  0
    8.5256  -20.3438   24.1479 C   0  0  0  0  0  0  0  0  0  0  0  0
    8.4333  -16.3755   23.3476 N   0  0  0  0  0  0  0  0  0  0  0  0
    9.5816  -15.9241   24.1423 C   0  0  1  0  0  0  0  0  0  0  0  0
    9.3727  -14.5392   24.6319 C   0  0  0  0  0  0  0  0  0  0  0  0
    8.1283  -14.3910   25.3850 C   0  0  0  0  0  0  0  0  0  0  0  0
    7.2321  -15.4178   25.6934 C   0  0  0  0  0  0  0  0  0  0  0  0
    6.1859  -14.9166   26.3542 N   0  0  0  0  0  0  0  0  0  0  0  0
    6.3586  -13.5970   26.4946 C   0  0  0  0  0  0  0  0  0  0  0  0
    5.5857  -12.6397   27.1094 C   0  0  0  0  0  0  0  0  0  0  0  0
    5.9559  -11.3153   27.1670 C   0  0  0  0  0  0  0  0  0  0  0  0
    7.1537  -10.9737   26.5748 C   0  0  0  0  0  0  0  0  0  0  0  0
    7.9177  -11.9307   25.9642 C   0  0  0  0  0  0  0  0  0  0  0  0
    7.5649  -13.2571   25.8957 C   0  0  0  0  0  0  0  0  0  0  0  0
    9.8361  -16.9200   25.1740 C   0  0  0  0  0  0  0  0  0  0  0  0
    9.0579  -17.8837   25.4763 O   0  0  0  0  0  0  0  0  0  0  0  0
   11.0341  -16.8312   25.9110 O   0  0  0  0  0  0  0  0  0  0  0  0
  2  1  1  6
  2  3  1  0
  4  5  1  1
  4  2  1  0
  6  7  2  0
  6  4  1  0
  8  9  1  0
  9 19  2  0
  9 10  1  0
 10 11  2  0
 11 12  1  0
 12 13  1  0
 14 13  1  6
 14 15  1  0
 15  6  1  0
 16 14  1  0
 16 20  1  0
 17 16  2  0
 18 12  2  0
 19 18  1  0
 21 20  1  0
 21 32  1  0
 21 22  1  1
 23 22  1  0
 24 23  2  0
 25 26  1  0
 25 24  1  0
 26 31  2  0
 27 26  1  0
 27 28  2  0
 28 29  1  0
 29 30  2  0
 31 23  1  0
 31 30  1  0
 32 33  2  0
 32 34  1  0
M  END
$$$$
