TYW.pdb
     RDKit          3D

 34 36  0  0  1  0  0  0  0  0999 V2000
    8.8430  -12.5856   19.7959 C   0  0  0  0  0  0  0  0  0  0  0  0
    8.1886  -13.5995   18.9155 C   0  0  1  0  0  0  0  0  0  0  0  0
    7.3624  -13.0389   17.9509 O   0  0  0  0  0  0  0  0  0  0  0  0
    9.2036  -14.5205   18.2508 C   0  0  2  0  0  0  0  0  0  0  0  0
    8.5963  -15.4486   17.3580 N   0  0  0  0  0  0  0  0  0  0  0  0
   10.0161  -15.1272   19.3137 C   0  0  0  0  0  0  0  0  0  0  0  0
    9.6720  -16.3103   19.6572 O   0  0  0  0  0  0  0  0  0  0  0  0
   16.1119  -16.0793   16.2144 O   0  0  0  0  0  0  0  0  0  0  0  0
   15.4179  -15.7456   17.3817 C   0  0  0  0  0  0  0  0  0  0  0  0
   14.8925  -14.4898   17.5834 C   0  0  0  0  0  0  0  0  0  0  0  0
   14.1997  -14.1719   18.7589 C   0  0  0  0  0  0  0  0  0  0  0  0
   14.0372  -15.1260   19.7340 C   0  0  0  0  0  0  0  0  0  0  0  0
   13.3217  -14.8400   20.9755 C   0  0  0  0  0  0  0  0  0  0  0  0
   11.8545  -15.1902   20.9411 C   0  0  2  0  0  0  0  0  0  0  0  0
   11.1117  -14.5008   19.9517 N   0  0  0  0  0  0  0  0  0  0  0  0
   11.2337  -15.0543   22.3132 C   0  0  0  0  0  0  0  0  0  0  0  0
   11.0439  -13.8913   22.7622 O   0  0  0  0  0  0  0  0  0  0  0  0
   14.5702  -16.3740   19.5117 C   0  0  0  0  0  0  0  0  0  0  0  0
   15.2540  -16.6911   18.3536 C   0  0  0  0  0  0  0  0  0  0  0  0
   10.8770  -16.1964   23.0700 N   0  0  0  0  0  0  0  0  0  0  0  0
    9.9069  -16.0292   24.1584 C   0  0  1  0  0  0  0  0  0  0  0  0
    8.6471  -15.4285   23.6549 C   0  0  0  0  0  0  0  0  0  0  0  0
    7.7313  -15.0577   24.7325 C   0  0  0  0  0  0  0  0  0  0  0  0
    6.8664  -15.9249   25.4052 C   0  0  0  0  0  0  0  0  0  0  0  0
    6.1488  -15.2394   26.2981 N   0  0  0  0  0  0  0  0  0  0  0  0
    6.5085  -13.9517   26.2409 C   0  0  0  0  0  0  0  0  0  0  0  0
    6.0863  -12.8574   26.9592 C   0  0  0  0  0  0  0  0  0  0  0  0
    6.6063  -11.5983   26.7628 C   0  0  0  0  0  0  0  0  0  0  0  0
    7.5860  -11.4686   25.8007 C   0  0  0  0  0  0  0  0  0  0  0  0
    8.0011  -12.5611   25.0889 C   0  0  0  0  0  0  0  0  0  0  0  0
    7.4938  -13.8253   25.2700 C   0  0  0  0  0  0  0  0  0  0  0  0
    9.7615  -17.3110   24.8344 C   0  0  0  0  0  0  0  0  0  0  0  0
    9.8302  -18.4531   24.2718 O   0  0  0  0  0  0  0  0  0  0  0  0
    9.5253  -17.3135   26.2238 O   0  0  0  0  0  0  0  0  0  0  0  0
  2  1  1  6
  2  3  1  0
  4  5  1  1
  4  2  1  0
  6  7  2  0
  6  4  1  0
  8  9  1  0
  9 19  2  0
  9 10  1  0
 10 11  2  0
 11 12  1  0
 12 13  1  0
 14 13  1  1
 14 15  1  0
 15  6  1  0
 16 14  1  0
 16 20  1  0
 17 16  2  0
 18 12  2  0
 19 18  1  0
 21 20  1  0
 21 32  1  0
 21 22  1  6
 23 22  1  0
 24 23  2  0
 25 26  1  0
 25 24  1  0
 26 31  2  0
 27 26  1  0
 27 28  2  0
 28 29  1  0
 29 30  2  0
 31 23  1  0
 31 30  1  0
 32 33  2  0
 32 34  1  0
M  END
$$$$
