TYW.pdb
     RDKit          3D

 34 36  0  0  1  0  0  0  0  0999 V2000
    7.6202  -20.4402   24.2055 C   0  0  0  0  0  0  0  0  0  0  0  0
    7.9626  -21.3570   23.0768 C   0  0  1  0  0  0  0  0  0  0  0  0
    7.7289  -22.6948   23.3646 O   0  0  0  0  0  0  0  0  0  0  0  0
    7.2423  -20.9744   21.7903 C   0  0  2  0  0  0  0  0  0  0  0  0
    7.3898  -21.9559   20.7694 N   0  0  0  0  0  0  0  0  0  0  0  0
    7.6853  -19.6243   21.4176 C   0  0  0  0  0  0  0  0  0  0  0  0
    8.7937  -19.5685   20.7816 O   0  0  0  0  0  0  0  0  0  0  0  0
    8.7405  -11.1830   19.4198 O   0  0  0  0  0  0  0  0  0  0  0  0
    8.2006  -12.3751   19.9127 C   0  0  0  0  0  0  0  0  0  0  0  0
    7.9748  -12.5725   21.2558 C   0  0  0  0  0  0  0  0  0  0  0  0
    7.4331  -13.7732   21.7331 C   0  0  0  0  0  0  0  0  0  0  0  0
    7.1186  -14.7780   20.8504 C   0  0  0  0  0  0  0  0  0  0  0  0
    6.5514  -16.0464   21.3023 C   0  0  0  0  0  0  0  0  0  0  0  0
    7.5511  -17.1719   21.4048 C   0  0  2  0  0  0  0  0  0  0  0  0
    6.9832  -18.4326   21.7116 N   0  0  0  0  0  0  0  0  0  0  0  0
    8.6759  -16.8121   22.3492 C   0  0  0  0  0  0  0  0  0  0  0  0
    9.6044  -16.0809   21.9092 O   0  0  0  0  0  0  0  0  0  0  0  0
    7.3525  -14.5594   19.5130 C   0  0  0  0  0  0  0  0  0  0  0  0
    7.8865  -13.3766   19.0387 C   0  0  0  0  0  0  0  0  0  0  0  0
    8.6866  -17.2813   23.6848 N   0  0  0  0  0  0  0  0  0  0  0  0
    9.7231  -16.7696   24.5891 C   0  0  1  0  0  0  0  0  0  0  0  0
    9.5727  -15.3074   24.7906 C   0  0  0  0  0  0  0  0  0  0  0  0
    8.2683  -14.9477   25.3443 C   0  0  0  0  0  0  0  0  0  0  0  0
    7.1788  -15.8094   25.4964 C   0  0  0  0  0  0  0  0  0  0  0  0
    6.1397  -15.1351   25.9944 N   0  0  0  0  0  0  0  0  0  0  0  0
    6.5030  -13.8603   26.1779 C   0  0  0  0  0  0  0  0  0  0  0  0
    5.8121  -12.7816   26.6789 C   0  0  0  0  0  0  0  0  0  0  0  0
    6.3814  -11.5355   26.8111 C   0  0  0  0  0  0  0  0  0  0  0  0
    7.6961  -11.4025   26.4159 C   0  0  0  0  0  0  0  0  0  0  0  0
    8.3775  -12.4794   25.9176 C   0  0  0  0  0  0  0  0  0  0  0  0
    7.8266  -13.7305   25.7773 C   0  0  0  0  0  0  0  0  0  0  0  0
    9.6998  -17.5735   25.8033 C   0  0  0  0  0  0  0  0  0  0  0  0
   10.5426  -17.4933   26.7567 O   0  0  0  0  0  0  0  0  0  0  0  0
    8.6707  -18.5238   25.9589 O   0  0  0  0  0  0  0  0  0  0  0  0
  2  1  1  1
  2  3  1  0
  4  5  1  6
  4  2  1  0
  6  7  2  0
  6  4  1  0
  8  9  1  0
  9 19  2  0
  9 10  1  0
 10 11  2  0
 11 12  1  0
 12 13  1  0
 14 13  1  1
 14 15  1  0
 15  6  1  0
 16 14  1  0
 16 20  1  0
 17 16  2  0
 18 12  2  0
 19 18  1  0
 21 20  1  0
 21 32  1  0
 21 22  1  1
 23 22  1  0
 24 23  2  0
 25 26  1  0
 25 24  1  0
 26 31  2  0
 27 26  1  0
 27 28  2  0
 28 29  1  0
 29 30  2  0
 31 23  1  0
 31 30  1  0
 32 33  2  0
 32 34  1  0
M  END
$$$$
