TYW.pdb
     RDKit          3D

 34 36  0  0  1  0  0  0  0  0999 V2000
   12.2167  -19.4776   20.6485 C   0  0  0  0  0  0  0  0  0  0  0  0
   12.8829  -18.5564   19.6794 C   0  0  1  0  0  0  0  0  0  0  0  0
   13.5455  -19.2204   18.6560 O   0  0  0  0  0  0  0  0  0  0  0  0
   11.9090  -17.5445   19.0898 C   0  0  2  0  0  0  0  0  0  0  0  0
   12.4785  -16.7983   18.0192 N   0  0  0  0  0  0  0  0  0  0  0  0
   11.3853  -16.7340   20.1975 C   0  0  0  0  0  0  0  0  0  0  0  0
   12.1185  -15.7456   20.5461 O   0  0  0  0  0  0  0  0  0  0  0  0
    7.3927  -12.8894   16.7352 O   0  0  0  0  0  0  0  0  0  0  0  0
    7.5969  -13.5892   17.9286 C   0  0  0  0  0  0  0  0  0  0  0  0
    7.3509  -14.9392   18.0331 C   0  0  0  0  0  0  0  0  0  0  0  0
    7.5609  -15.6254   19.2364 C   0  0  0  0  0  0  0  0  0  0  0  0
    8.0208  -14.9453   20.3380 C   0  0  0  0  0  0  0  0  0  0  0  0
    8.2548  -15.6191   21.6132 C   0  0  0  0  0  0  0  0  0  0  0  0
    9.6825  -16.0552   21.8320 C   0  0  2  0  0  0  0  0  0  0  0  0
   10.1663  -16.9770   20.8717 N   0  0  0  0  0  0  0  0  0  0  0  0
    9.8861  -16.5507   23.2461 C   0  0  0  0  0  0  0  0  0  0  0  0
   10.4325  -17.6763   23.4038 O   0  0  0  0  0  0  0  0  0  0  0  0
    8.2598  -13.5970   20.2113 C   0  0  0  0  0  0  0  0  0  0  0  0
    8.0540  -12.9170   19.0262 C   0  0  0  0  0  0  0  0  0  0  0  0
    9.4759  -15.7761   24.3577 N   0  0  0  0  0  0  0  0  0  0  0  0
    9.7422  -16.3009   25.7022 C   0  0  1  0  0  0  0  0  0  0  0  0
    9.4171  -15.2891   26.7375 C   0  0  0  0  0  0  0  0  0  0  0  0
    8.0626  -14.7569   26.5974 C   0  0  0  0  0  0  0  0  0  0  0  0
    6.9197  -15.5002   26.2908 C   0  0  0  0  0  0  0  0  0  0  0  0
    5.8656  -14.6858   26.2013 N   0  0  0  0  0  0  0  0  0  0  0  0
    6.2698  -13.4324   26.4385 C   0  0  0  0  0  0  0  0  0  0  0  0
    5.5746  -12.2465   26.4832 C   0  0  0  0  0  0  0  0  0  0  0  0
    6.1800  -11.0447   26.7725 C   0  0  0  0  0  0  0  0  0  0  0  0
    7.5363  -11.0709   27.0215 C   0  0  0  0  0  0  0  0  0  0  0  0
    8.2223  -12.2539   26.9748 C   0  0  0  0  0  0  0  0  0  0  0  0
    7.6361  -13.4630   26.6871 C   0  0  0  0  0  0  0  0  0  0  0  0
    9.0499  -17.5754   25.8346 C   0  0  0  0  0  0  0  0  0  0  0  0
    8.1805  -18.0301   25.0203 O   0  0  0  0  0  0  0  0  0  0  0  0
    9.3497  -18.3892   26.9455 O   0  0  0  0  0  0  0  0  0  0  0  0
  2  1  1  6
  2  3  1  0
  4  5  1  6
  4  2  1  0
  6  7  2  0
  6  4  1  0
  8  9  1  0
  9 19  2  0
  9 10  1  0
 10 11  2  0
 11 12  1  0
 12 13  1  0
 14 13  1  6
 14 15  1  0
 15  6  1  0
 16 14  1  0
 16 20  1  0
 17 16  2  0
 18 12  2  0
 19 18  1  0
 21 20  1  0
 21 32  1  0
 21 22  1  1
 23 22  1  0
 24 23  2  0
 25 26  1  0
 25 24  1  0
 26 31  2  0
 27 26  1  0
 27 28  2  0
 28 29  1  0
 29 30  2  0
 31 23  1  0
 31 30  1  0
 32 33  2  0
 32 34  1  0
M  END
$$$$
