TYW.pdb
     RDKit          3D

 34 36  0  0  1  0  0  0  0  0999 V2000
    8.5169  -21.2799   22.2353 C   0  0  0  0  0  0  0  0  0  0  0  0
    9.5076  -21.7218   21.2083 C   0  0  1  0  0  0  0  0  0  0  0  0
    9.5496  -23.0994   21.0417 O   0  0  0  0  0  0  0  0  0  0  0  0
    9.2755  -21.0480   19.8621 C   0  0  2  0  0  0  0  0  0  0  0  0
   10.1173  -21.5685   18.8386 N   0  0  0  0  0  0  0  0  0  0  0  0
    9.3781  -19.5970   20.0678 C   0  0  0  0  0  0  0  0  0  0  0  0
   10.5547  -19.1621   20.3180 O   0  0  0  0  0  0  0  0  0  0  0  0
    8.5107  -10.8902   20.0873 O   0  0  0  0  0  0  0  0  0  0  0  0
    8.2207  -12.2558   20.0051 C   0  0  0  0  0  0  0  0  0  0  0  0
    7.3339  -12.8654   20.8629 C   0  0  0  0  0  0  0  0  0  0  0  0
    7.0546  -14.2350   20.7668 C   0  0  0  0  0  0  0  0  0  0  0  0
    7.6735  -14.9913   19.8011 C   0  0  0  0  0  0  0  0  0  0  0  0
    7.4129  -16.4223   19.6632 C   0  0  0  0  0  0  0  0  0  0  0  0
    8.5015  -17.3077   20.2178 C   0  0  2  0  0  0  0  0  0  0  0  0
    8.2927  -18.6927   20.0075 N   0  0  0  0  0  0  0  0  0  0  0  0
    8.7696  -16.9893   21.6715 C   0  0  0  0  0  0  0  0  0  0  0  0
    8.1288  -17.6352   22.5448 O   0  0  0  0  0  0  0  0  0  0  0  0
    8.5560  -14.3617   18.9550 C   0  0  0  0  0  0  0  0  0  0  0  0
    8.8338  -13.0113   19.0466 C   0  0  0  0  0  0  0  0  0  0  0  0
    9.7098  -15.9975   22.0407 N   0  0  0  0  0  0  0  0  0  0  0  0
    9.6338  -15.4436   23.3976 C   0  0  1  0  0  0  0  0  0  0  0  0
    8.2259  -15.3726   23.8605 C   0  0  0  0  0  0  0  0  0  0  0  0
    8.1056  -14.8306   25.2130 C   0  0  0  0  0  0  0  0  0  0  0  0
    8.5814  -15.4331   26.3806 C   0  0  0  0  0  0  0  0  0  0  0  0
    8.2606  -14.6812   27.4361 N   0  0  0  0  0  0  0  0  0  0  0  0
    7.5917  -13.6039   27.0087 C   0  0  0  0  0  0  0  0  0  0  0  0
    7.0669  -12.5305   27.6901 C   0  0  0  0  0  0  0  0  0  0  0  0
    6.4232  -11.4936   27.0540 C   0  0  0  0  0  0  0  0  0  0  0  0
    6.3202  -11.5691   25.6806 C   0  0  0  0  0  0  0  0  0  0  0  0
    6.8437  -12.6400   25.0087 C   0  0  0  0  0  0  0  0  0  0  0  0
    7.4888  -13.6847   25.6258 C   0  0  0  0  0  0  0  0  0  0  0  0
   10.5337  -16.2094   24.2489 C   0  0  0  0  0  0  0  0  0  0  0  0
   10.8414  -15.9139   25.4505 O   0  0  0  0  0  0  0  0  0  0  0  0
   11.1240  -17.3760   23.7229 O   0  0  0  0  0  0  0  0  0  0  0  0
  2  1  1  1
  2  3  1  0
  4  5  1  6
  4  2  1  0
  6  7  2  0
  6  4  1  0
  8  9  1  0
  9 19  2  0
  9 10  1  0
 10 11  2  0
 11 12  1  0
 12 13  1  0
 14 13  1  1
 14 15  1  0
 15  6  1  0
 16 14  1  0
 16 20  1  0
 17 16  2  0
 18 12  2  0
 19 18  1  0
 21 20  1  0
 21 32  1  0
 21 22  1  1
 23 22  1  0
 24 23  2  0
 25 26  1  0
 25 24  1  0
 26 31  2  0
 27 26  1  0
 27 28  2  0
 28 29  1  0
 29 30  2  0
 31 23  1  0
 31 30  1  0
 32 33  2  0
 32 34  1  0
M  END
$$$$
