TYW.pdb
     RDKit          3D

 34 36  0  0  1  0  0  0  0  0999 V2000
    7.7435  -12.1838   19.6415 C   0  0  0  0  0  0  0  0  0  0  0  0
    8.3803  -13.4029   20.2244 C   0  0  1  0  0  0  0  0  0  0  0  0
    7.4624  -14.3616   20.6314 O   0  0  0  0  0  0  0  0  0  0  0  0
    9.3916  -14.0304   19.2737 C   0  0  2  0  0  0  0  0  0  0  0  0
    8.7898  -14.5124   18.0767 N   0  0  0  0  0  0  0  0  0  0  0  0
   10.1502  -15.0347   20.0313 C   0  0  0  0  0  0  0  0  0  0  0  0
    9.9575  -16.2482   19.6758 O   0  0  0  0  0  0  0  0  0  0  0  0
   14.9180  -15.9504   16.1499 O   0  0  0  0  0  0  0  0  0  0  0  0
   14.5034  -15.9291   17.4853 C   0  0  0  0  0  0  0  0  0  0  0  0
   14.2773  -17.0853   18.1967 C   0  0  0  0  0  0  0  0  0  0  0  0
   13.8621  -17.0462   19.5343 C   0  0  0  0  0  0  0  0  0  0  0  0
   13.6745  -15.8351   20.1552 C   0  0  0  0  0  0  0  0  0  0  0  0
   13.2428  -15.7457   21.5481 C   0  0  0  0  0  0  0  0  0  0  0  0
   11.7466  -15.7893   21.7383 C   0  0  2  0  0  0  0  0  0  0  0  0
   11.0438  -14.7455   21.0884 N   0  0  0  0  0  0  0  0  0  0  0  0
   11.3904  -15.8851   23.2047 C   0  0  0  0  0  0  0  0  0  0  0  0
   12.0708  -15.2080   24.0226 O   0  0  0  0  0  0  0  0  0  0  0  0
   13.9061  -14.6926   19.4255 C   0  0  0  0  0  0  0  0  0  0  0  0
   14.3157  -14.7272   18.1064 C   0  0  0  0  0  0  0  0  0  0  0  0
   10.3269  -16.7089   23.6458 N   0  0  0  0  0  0  0  0  0  0  0  0
   10.0718  -16.7953   25.0884 C   0  0  1  0  0  0  0  0  0  0  0  0
    9.8043  -15.4519   25.6584 C   0  0  0  0  0  0  0  0  0  0  0  0
    8.3777  -15.1352   25.7055 C   0  0  0  0  0  0  0  0  0  0  0  0
    7.3334  -16.0259   25.4433 C   0  0  0  0  0  0  0  0  0  0  0  0
    6.1648  -15.3873   25.5380 N   0  0  0  0  0  0  0  0  0  0  0  0
    6.3986  -14.1082   25.8542 C   0  0  0  0  0  0  0  0  0  0  0  0
    5.5413  -13.0572   26.0822 C   0  0  0  0  0  0  0  0  0  0  0  0
    5.9864  -11.8007   26.4250 C   0  0  0  0  0  0  0  0  0  0  0  0
    7.3504  -11.6279   26.5345 C   0  0  0  0  0  0  0  0  0  0  0  0
    8.1980  -12.6775   26.3057 C   0  0  0  0  0  0  0  0  0  0  0  0
    7.7730  -13.9383   25.9619 C   0  0  0  0  0  0  0  0  0  0  0  0
    9.0251  -17.7851   25.3033 C   0  0  0  0  0  0  0  0  0  0  0  0
    8.2939  -18.2944   24.3914 O   0  0  0  0  0  0  0  0  0  0  0  0
    8.7834  -18.2309   26.6182 O   0  0  0  0  0  0  0  0  0  0  0  0
  2  1  1  6
  2  3  1  0
  4  5  1  6
  4  2  1  0
  6  7  2  0
  6  4  1  0
  8  9  1  0
  9 19  2  0
  9 10  1  0
 10 11  2  0
 11 12  1  0
 12 13  1  0
 14 13  1  1
 14 15  1  0
 15  6  1  0
 16 14  1  0
 16 20  1  0
 17 16  2  0
 18 12  2  0
 19 18  1  0
 21 20  1  0
 21 32  1  0
 21 22  1  6
 23 22  1  0
 24 23  2  0
 25 26  1  0
 25 24  1  0
 26 31  2  0
 27 26  1  0
 27 28  2  0
 28 29  1  0
 29 30  2  0
 31 23  1  0
 31 30  1  0
 32 33  2  0
 32 34  1  0
M  END
$$$$
