TYW.pdb
     RDKit          3D

 34 36  0  0  1  0  0  0  0  0999 V2000
    8.7664  -20.6802   20.2224 C   0  0  0  0  0  0  0  0  0  0  0  0
    9.2262  -19.4294   20.8974 C   0  0  1  0  0  0  0  0  0  0  0  0
   10.4189  -19.5851   21.5905 O   0  0  0  0  0  0  0  0  0  0  0  0
    9.3459  -18.2644   19.9234 C   0  0  2  0  0  0  0  0  0  0  0  0
   10.2453  -18.5371   18.8538 N   0  0  0  0  0  0  0  0  0  0  0  0
    9.6630  -17.0620   20.7055 C   0  0  0  0  0  0  0  0  0  0  0  0
   10.8332  -16.5806   20.5183 O   0  0  0  0  0  0  0  0  0  0  0  0
    7.1702  -12.8063   16.5733 O   0  0  0  0  0  0  0  0  0  0  0  0
    7.3854  -13.1477   17.9122 C   0  0  0  0  0  0  0  0  0  0  0  0
    6.7426  -14.2100   18.5058 C   0  0  0  0  0  0  0  0  0  0  0  0
    6.9697  -14.5387   19.8487 C   0  0  0  0  0  0  0  0  0  0  0  0
    7.8490  -13.7916   20.5945 C   0  0  0  0  0  0  0  0  0  0  0  0
    8.1174  -14.0975   21.9977 C   0  0  0  0  0  0  0  0  0  0  0  0
    9.1292  -15.1963   22.2110 C   0  0  2  0  0  0  0  0  0  0  0  0
    8.7824  -16.4342   21.6166 N   0  0  0  0  0  0  0  0  0  0  0  0
    9.4640  -15.3461   23.6780 C   0  0  0  0  0  0  0  0  0  0  0  0
    9.9910  -14.3629   24.2661 O   0  0  0  0  0  0  0  0  0  0  0  0
    8.4801  -12.7347   19.9813 C   0  0  0  0  0  0  0  0  0  0  0  0
    8.2588  -12.4077   18.6573 C   0  0  0  0  0  0  0  0  0  0  0  0
    9.1948  -16.5518   24.3692 N   0  0  0  0  0  0  0  0  0  0  0  0
    9.6203  -16.6555   25.7700 C   0  0  1  0  0  0  0  0  0  0  0  0
    8.4475  -16.7842   26.6695 C   0  0  0  0  0  0  0  0  0  0  0  0
    7.4450  -15.7453   26.4382 C   0  0  0  0  0  0  0  0  0  0  0  0
    6.2002  -15.9310   25.8311 C   0  0  0  0  0  0  0  0  0  0  0  0
    5.5632  -14.7608   25.7468 N   0  0  0  0  0  0  0  0  0  0  0  0
    6.3407  -13.8094   26.2769 C   0  0  0  0  0  0  0  0  0  0  0  0
    6.1375  -12.4597   26.4467 C   0  0  0  0  0  0  0  0  0  0  0  0
    7.0674  -11.6414   27.0468 C   0  0  0  0  0  0  0  0  0  0  0  0
    8.2347  -12.2337   27.4814 C   0  0  0  0  0  0  0  0  0  0  0  0
    8.4312  -13.5768   27.3088 C   0  0  0  0  0  0  0  0  0  0  0  0
    7.5155  -14.4096   26.7116 C   0  0  0  0  0  0  0  0  0  0  0  0
   10.6018  -17.7273   25.8655 C   0  0  0  0  0  0  0  0  0  0  0  0
   11.2530  -18.0389   26.9165 O   0  0  0  0  0  0  0  0  0  0  0  0
   10.8696  -18.4960   24.7150 O   0  0  0  0  0  0  0  0  0  0  0  0
  2  1  1  6
  2  3  1  0
  4  5  1  6
  4  2  1  0
  6  7  2  0
  6  4  1  0
  8  9  1  0
  9 19  2  0
  9 10  1  0
 10 11  2  0
 11 12  1  0
 12 13  1  0
 14 13  1  1
 14 15  1  0
 15  6  1  0
 16 14  1  0
 16 20  1  0
 17 16  2  0
 18 12  2  0
 19 18  1  0
 21 20  1  0
 21 32  1  0
 21 22  1  1
 23 22  1  0
 24 23  2  0
 25 26  1  0
 25 24  1  0
 26 31  2  0
 27 26  1  0
 27 28  2  0
 28 29  1  0
 29 30  2  0
 31 23  1  0
 31 30  1  0
 32 33  2  0
 32 34  1  0
M  END
$$$$
