TYW.pdb
     RDKit          3D

 34 36  0  0  1  0  0  0  0  0999 V2000
    8.5866  -12.5708   20.7441 C   0  0  0  0  0  0  0  0  0  0  0  0
    8.0872  -13.0060   19.4052 C   0  0  1  0  0  0  0  0  0  0  0  0
    7.9401  -11.9586   18.5061 O   0  0  0  0  0  0  0  0  0  0  0  0
    8.9639  -14.0904   18.7923 C   0  0  2  0  0  0  0  0  0  0  0  0
    8.4532  -14.5697   17.5527 N   0  0  0  0  0  0  0  0  0  0  0  0
    9.1727  -15.1240   19.8152 C   0  0  0  0  0  0  0  0  0  0  0  0
    8.3627  -16.1127   19.7668 O   0  0  0  0  0  0  0  0  0  0  0  0
   15.6561  -14.0757   18.6109 O   0  0  0  0  0  0  0  0  0  0  0  0
   14.6722  -14.7996   19.2917 C   0  0  0  0  0  0  0  0  0  0  0  0
   14.6981  -14.9572   20.6586 C   0  0  0  0  0  0  0  0  0  0  0  0
   13.7042  -15.6857   21.3253 C   0  0  0  0  0  0  0  0  0  0  0  0
   12.6808  -16.2571   20.6085 C   0  0  0  0  0  0  0  0  0  0  0  0
   11.6227  -17.0249   21.2609 C   0  0  0  0  0  0  0  0  0  0  0  0
   10.4083  -16.2124   21.6375 C   0  0  2  0  0  0  0  0  0  0  0  0
   10.1778  -15.0869   20.8092 N   0  0  0  0  0  0  0  0  0  0  0  0
   10.4392  -15.8409   23.1029 C   0  0  0  0  0  0  0  0  0  0  0  0
   11.0882  -14.8126   23.4372 O   0  0  0  0  0  0  0  0  0  0  0  0
   12.6747  -16.0872   19.2439 C   0  0  0  0  0  0  0  0  0  0  0  0
   13.6530  -15.3694   18.5830 C   0  0  0  0  0  0  0  0  0  0  0  0
    9.7614  -16.6226   24.0691 N   0  0  0  0  0  0  0  0  0  0  0  0
    9.9486  -16.2865   25.4854 C   0  0  1  0  0  0  0  0  0  0  0  0
    8.6647  -16.3770   26.2234 C   0  0  0  0  0  0  0  0  0  0  0  0
    7.6472  -15.4703   25.6942 C   0  0  0  0  0  0  0  0  0  0  0  0
    6.5971  -15.8266   24.8439 C   0  0  0  0  0  0  0  0  0  0  0  0
    5.8876  -14.7408   24.5279 N   0  0  0  0  0  0  0  0  0  0  0  0
    6.4295  -13.6808   25.1389 C   0  0  0  0  0  0  0  0  0  0  0  0
    6.0652  -12.3545   25.1513 C   0  0  0  0  0  0  0  0  0  0  0  0
    6.7515  -11.4058   25.8746 C   0  0  0  0  0  0  0  0  0  0  0  0
    7.8400  -11.8395   26.6021 C   0  0  0  0  0  0  0  0  0  0  0  0
    8.1977  -13.1602   26.5850 C   0  0  0  0  0  0  0  0  0  0  0  0
    7.5259  -14.1216   25.8689 C   0  0  0  0  0  0  0  0  0  0  0  0
   11.0287  -17.1131   26.0066 C   0  0  0  0  0  0  0  0  0  0  0  0
   11.4562  -17.0959   27.2077 O   0  0  0  0  0  0  0  0  0  0  0  0
   11.6677  -18.0127   25.1299 O   0  0  0  0  0  0  0  0  0  0  0  0
  2  1  1  1
  2  3  1  0
  4  5  1  6
  4  2  1  0
  6  7  2  0
  6  4  1  0
  8  9  1  0
  9 19  2  0
  9 10  1  0
 10 11  2  0
 11 12  1  0
 12 13  1  0
 14 13  1  6
 14 15  1  0
 15  6  1  0
 16 14  1  0
 16 20  1  0
 17 16  2  0
 18 12  2  0
 19 18  1  0
 21 20  1  0
 21 32  1  0
 21 22  1  1
 23 22  1  0
 24 23  2  0
 25 26  1  0
 25 24  1  0
 26 31  2  0
 27 26  1  0
 27 28  2  0
 28 29  1  0
 29 30  2  0
 31 23  1  0
 31 30  1  0
 32 33  2  0
 32 34  1  0
M  END
$$$$
