YGA.pdb
     RDKit          3D

 22 22  0  0  1  0  0  0  0  0999 V2000
    5.8866  -11.2142   28.0006 O   0  0  0  0  0  0  0  0  0  0  0  0
    6.4212  -12.2084   27.1725 C   0  0  0  0  0  0  0  0  0  0  0  0
    7.6624  -12.0651   26.6181 C   0  0  0  0  0  0  0  0  0  0  0  0
    8.1606  -13.0823   25.7958 C   0  0  0  0  0  0  0  0  0  0  0  0
    7.4232  -14.2134   25.5417 C   0  0  0  0  0  0  0  0  0  0  0  0
    7.9374  -15.2898   24.6782 C   0  0  0  0  0  0  0  0  0  0  0  0
    7.9038  -14.8944   23.2210 C   0  0  2  0  0  0  0  0  0  0  0  0
    6.5502  -14.6360   22.8176 N   0  0  0  0  0  0  0  0  0  0  0  0
    8.5116  -16.0074   22.4237 C   0  0  0  0  0  0  0  0  0  0  0  0
    9.6415  -16.4598   22.7365 O   0  0  0  0  0  0  0  0  0  0  0  0
    6.1794  -14.3374   26.1082 C   0  0  0  0  0  0  0  0  0  0  0  0
    5.6530  -13.3424   26.9325 C   0  0  0  0  0  0  0  0  0  0  0  0
    7.8522  -16.5858   21.3059 N   0  0  0  0  0  0  0  0  0  0  0  0
    8.5376  -17.4046   20.3271 C   0  0  0  0  0  0  0  0  0  0  0  0
    9.3954  -16.5535   19.4929 C   0  0  0  0  0  0  0  0  0  0  0  0
   10.0332  -17.0359   18.5366 O   0  0  0  0  0  0  0  0  0  0  0  0
    9.8145  -12.8811   18.8771 C   0  0  0  0  0  0  0  0  0  0  0  0
   10.2845  -14.3271   18.7990 C   0  0  2  0  0  0  0  0  0  0  0  0
    9.5426  -15.1518   19.7283 N   0  0  0  0  0  0  0  0  0  0  0  0
   11.7285  -14.3797   19.1426 C   0  0  0  0  0  0  0  0  0  0  0  0
   12.0536  -14.9572   20.2100 O   0  0  0  0  0  0  0  0  0  0  0  0
   12.6810  -13.8145   18.3195 O   0  0  0  0  0  0  0  0  0  0  0  0
  2  1  1  0
  3  2  2  0
  4  3  1  0
  5  4  2  0
  5 11  1  0
  6  7  1  0
  6  5  1  0
  7  8  1  6
  7  9  1  0
  9 13  1  0
  9 10  2  0
 11 12  2  0
 12  2  1  0
 13 14  1  0
 14 15  1  0
 15 19  1  0
 15 16  2  0
 18 20  1  0
 18 17  1  1
 19 18  1  0
 20 22  1  0
 21 20  2  0
M  END
$$$$
