YGA.pdb
     RDKit          3D

 22 22  0  0  1  0  0  0  0  0999 V2000
    5.5921  -11.3442   27.9230 O   0  0  0  0  0  0  0  0  0  0  0  0
    6.2470  -11.9878   26.8662 C   0  0  0  0  0  0  0  0  0  0  0  0
    5.5375  -12.5609   25.8481 C   0  0  0  0  0  0  0  0  0  0  0  0
    6.2303  -13.1948   24.8101 C   0  0  0  0  0  0  0  0  0  0  0  0
    7.6032  -13.2472   24.8027 C   0  0  0  0  0  0  0  0  0  0  0  0
    8.3423  -13.9114   23.7158 C   0  0  0  0  0  0  0  0  0  0  0  0
    8.1328  -15.4068   23.7370 C   0  0  2  0  0  0  0  0  0  0  0  0
    7.8399  -15.8387   25.0747 N   0  0  0  0  0  0  0  0  0  0  0  0
    9.3747  -16.0573   23.2093 C   0  0  0  0  0  0  0  0  0  0  0  0
    9.8377  -15.7139   22.0926 O   0  0  0  0  0  0  0  0  0  0  0  0
    8.2964  -12.6655   25.8344 C   0  0  0  0  0  0  0  0  0  0  0  0
    7.6370  -12.0258   26.8843 C   0  0  0  0  0  0  0  0  0  0  0  0
   10.0661  -17.0667   23.9316 N   0  0  0  0  0  0  0  0  0  0  0  0
   11.5099  -17.1023   24.0444 C   0  0  0  0  0  0  0  0  0  0  0  0
   11.9070  -16.6403   25.3804 C   0  0  0  0  0  0  0  0  0  0  0  0
   13.0864  -16.7532   25.7682 O   0  0  0  0  0  0  0  0  0  0  0  0
   10.8212  -14.3461   28.0339 C   0  0  0  0  0  0  0  0  0  0  0  0
   11.3925  -15.6995   27.6341 C   0  0  2  0  0  0  0  0  0  0  0  0
   10.9796  -16.0471   26.2915 N   0  0  0  0  0  0  0  0  0  0  0  0
   10.8928  -16.7282   28.5818 C   0  0  0  0  0  0  0  0  0  0  0  0
   10.1371  -17.6229   28.1267 O   0  0  0  0  0  0  0  0  0  0  0  0
   11.2452  -16.7036   29.9159 O   0  0  0  0  0  0  0  0  0  0  0  0
  2  1  1  0
  3  2  2  0
  4  3  1  0
  5  4  2  0
  5 11  1  0
  6  7  1  0
  6  5  1  0
  7  8  1  1
  7  9  1  0
  9 13  1  0
  9 10  2  0
 11 12  2  0
 12  2  1  0
 13 14  1  0
 14 15  1  0
 15 19  1  0
 15 16  2  0
 18 20  1  0
 18 17  1  1
 19 18  1  0
 20 22  1  0
 21 20  2  0
M  END
$$$$
