YGA.pdb
     RDKit          3D

 22 22  0  0  1  0  0  0  0  0999 V2000
    7.0472  -11.9653   27.5094 O   0  0  0  0  0  0  0  0  0  0  0  0
    7.0139  -12.6884   26.3110 C   0  0  0  0  0  0  0  0  0  0  0  0
    7.6654  -12.2317   25.1995 C   0  0  0  0  0  0  0  0  0  0  0  0
    7.6074  -12.9844   24.0208 C   0  0  0  0  0  0  0  0  0  0  0  0
    6.9094  -14.1667   23.9685 C   0  0  0  0  0  0  0  0  0  0  0  0
    6.8416  -14.9667   22.7340 C   0  0  0  0  0  0  0  0  0  0  0  0
    7.5917  -16.2696   22.8768 C   0  0  2  0  0  0  0  0  0  0  0  0
    7.1337  -16.9700   24.0436 N   0  0  0  0  0  0  0  0  0  0  0  0
    9.0541  -15.9566   22.9629 C   0  0  0  0  0  0  0  0  0  0  0  0
    9.6360  -15.4035   21.9960 O   0  0  0  0  0  0  0  0  0  0  0  0
    6.2623  -14.6073   25.0958 C   0  0  0  0  0  0  0  0  0  0  0  0
    6.2999  -13.8814   26.2866 C   0  0  0  0  0  0  0  0  0  0  0  0
    9.8278  -16.2643   24.1141 N   0  0  0  0  0  0  0  0  0  0  0  0
   11.2307  -15.9230   24.2317 C   0  0  0  0  0  0  0  0  0  0  0  0
   11.5582  -15.6815   25.6425 C   0  0  0  0  0  0  0  0  0  0  0  0
   12.7213  -15.8405   26.0620 O   0  0  0  0  0  0  0  0  0  0  0  0
   10.0724  -13.9492   28.5890 C   0  0  0  0  0  0  0  0  0  0  0  0
   10.9486  -15.0315   27.9738 C   0  0  2  0  0  0  0  0  0  0  0  0
   10.5788  -15.2589   26.5934 N   0  0  0  0  0  0  0  0  0  0  0  0
   10.7663  -16.2889   28.7430 C   0  0  0  0  0  0  0  0  0  0  0  0
   11.1046  -16.2869   29.9531 O   0  0  0  0  0  0  0  0  0  0  0  0
   10.2437  -17.4206   28.1509 O   0  0  0  0  0  0  0  0  0  0  0  0
  2  1  1  0
  3  2  2  0
  4  3  1  0
  5  4  2  0
  5 11  1  0
  6  7  1  0
  6  5  1  0
  7  8  1  1
  7  9  1  0
  9 13  1  0
  9 10  2  0
 11 12  2  0
 12  2  1  0
 13 14  1  0
 14 15  1  0
 15 19  1  0
 15 16  2  0
 18 20  1  0
 18 17  1  1
 19 18  1  0
 20 22  1  0
 21 20  2  0
M  END
$$$$
