YGA.pdb
     RDKit          3D

 22 22  0  0  1  0  0  0  0  0999 V2000
    6.2451  -10.5033   27.2953 O   0  0  0  0  0  0  0  0  0  0  0  0
    6.5268  -11.7393   26.7011 C   0  0  0  0  0  0  0  0  0  0  0  0
    7.8167  -12.1645   26.5476 C   0  0  0  0  0  0  0  0  0  0  0  0
    8.0557  -13.4068   25.9485 C   0  0  0  0  0  0  0  0  0  0  0  0
    7.0179  -14.1968   25.5168 C   0  0  0  0  0  0  0  0  0  0  0  0
    7.2576  -15.5054   24.8852 C   0  0  0  0  0  0  0  0  0  0  0  0
    8.4955  -15.4842   24.0204 C   0  0  2  0  0  0  0  0  0  0  0  0
    8.4621  -14.3427   23.1500 N   0  0  0  0  0  0  0  0  0  0  0  0
    8.5422  -16.7650   23.2449 C   0  0  0  0  0  0  0  0  0  0  0  0
    8.3920  -17.8634   23.8367 O   0  0  0  0  0  0  0  0  0  0  0  0
    5.7303  -13.7511   25.6804 C   0  0  0  0  0  0  0  0  0  0  0  0
    5.4571  -12.5182   26.2735 C   0  0  0  0  0  0  0  0  0  0  0  0
    8.7534  -16.7923   21.8402 N   0  0  0  0  0  0  0  0  0  0  0  0
    8.8171  -18.0235   21.0794 C   0  0  0  0  0  0  0  0  0  0  0  0
   10.1760  -18.5746   21.1549 C   0  0  0  0  0  0  0  0  0  0  0  0
   10.4899  -19.5859   20.4972 O   0  0  0  0  0  0  0  0  0  0  0  0
   13.5734  -17.4552   21.9260 C   0  0  0  0  0  0  0  0  0  0  0  0
   12.5252  -18.5570   21.9975 C   0  0  2  0  0  0  0  0  0  0  0  0
   11.1934  -17.9916   21.9717 N   0  0  0  0  0  0  0  0  0  0  0  0
   12.7117  -19.3130   23.2623 C   0  0  0  0  0  0  0  0  0  0  0  0
   13.5666  -20.2337   23.2711 O   0  0  0  0  0  0  0  0  0  0  0  0
   11.9727  -19.0158   24.3893 O   0  0  0  0  0  0  0  0  0  0  0  0
  2  1  1  0
  3  2  2  0
  4  3  1  0
  5  4  2  0
  5 11  1  0
  6  7  1  0
  6  5  1  0
  7  8  1  6
  7  9  1  0
  9 13  1  0
  9 10  2  0
 11 12  2  0
 12  2  1  0
 13 14  1  0
 14 15  1  0
 15 19  1  0
 15 16  2  0
 18 20  1  0
 18 17  1  1
 19 18  1  0
 20 22  1  0
 21 20  2  0
M  END
$$$$
