YGA.pdb
     RDKit          3D

 22 22  0  0  1  0  0  0  0  0999 V2000
    6.5310  -11.1368   28.4965 O   0  0  0  0  0  0  0  0  0  0  0  0
    6.8295  -11.9855   27.4239 C   0  0  0  0  0  0  0  0  0  0  0  0
    8.0494  -12.5955   27.3323 C   0  0  0  0  0  0  0  0  0  0  0  0
    8.3082  -13.4368   26.2440 C   0  0  0  0  0  0  0  0  0  0  0  0
    7.3587  -13.6548   25.2751 C   0  0  0  0  0  0  0  0  0  0  0  0
    7.6201  -14.5378   24.1260 C   0  0  0  0  0  0  0  0  0  0  0  0
    6.9336  -15.8733   24.2866 C   0  0  2  0  0  0  0  0  0  0  0  0
    7.5526  -16.6143   25.3495 N   0  0  0  0  0  0  0  0  0  0  0  0
    7.0265  -16.6031   22.9817 C   0  0  0  0  0  0  0  0  0  0  0  0
    7.9491  -17.4350   22.7916 O   0  0  0  0  0  0  0  0  0  0  0  0
    6.1405  -13.0326   25.3861 C   0  0  0  0  0  0  0  0  0  0  0  0
    5.8500  -12.1880   26.4579 C   0  0  0  0  0  0  0  0  0  0  0  0
    6.0975  -16.3912   21.9279 N   0  0  0  0  0  0  0  0  0  0  0  0
    6.1720  -17.0923   20.6624 C   0  0  0  0  0  0  0  0  0  0  0  0
    7.0694  -16.3672   19.7543 C   0  0  0  0  0  0  0  0  0  0  0  0
    7.3626  -16.8392   18.6383 O   0  0  0  0  0  0  0  0  0  0  0  0
    8.1942  -12.9141   19.1695 C   0  0  0  0  0  0  0  0  0  0  0  0
    8.4917  -14.4070   19.1511 C   0  0  2  0  0  0  0  0  0  0  0  0
    7.6445  -15.1041   20.0947 N   0  0  0  0  0  0  0  0  0  0  0  0
    9.9143  -14.6157   19.5233 C   0  0  0  0  0  0  0  0  0  0  0  0
   10.1536  -15.2440   20.5847 O   0  0  0  0  0  0  0  0  0  0  0  0
   10.9386  -14.1368   18.7322 O   0  0  0  0  0  0  0  0  0  0  0  0
  2  1  1  0
  3  2  2  0
  4  3  1  0
  5  4  2  0
  5 11  1  0
  6  7  1  0
  6  5  1  0
  7  8  1  1
  7  9  1  0
  9 13  1  0
  9 10  2  0
 11 12  2  0
 12  2  1  0
 13 14  1  0
 14 15  1  0
 15 19  1  0
 15 16  2  0
 18 20  1  0
 18 17  1  1
 19 18  1  0
 20 22  1  0
 21 20  2  0
M  END
$$$$
