YGA.pdb
     RDKit          3D

 22 22  0  0  1  0  0  0  0  0999 V2000
   11.0207  -14.9079   30.5474 O   0  0  0  0  0  0  0  0  0  0  0  0
   10.3599  -14.7637   29.3216 C   0  0  0  0  0  0  0  0  0  0  0  0
   10.5452  -13.6484   28.5534 C   0  0  0  0  0  0  0  0  0  0  0  0
    9.8658  -13.5429   27.3342 C   0  0  0  0  0  0  0  0  0  0  0  0
    9.0222  -14.5385   26.9044 C   0  0  0  0  0  0  0  0  0  0  0  0
    8.3024  -14.4380   25.6236 C   0  0  0  0  0  0  0  0  0  0  0  0
    8.3455  -15.7406   24.8606 C   0  0  2  0  0  0  0  0  0  0  0  0
    9.6498  -16.3299   24.9764 N   0  0  0  0  0  0  0  0  0  0  0  0
    7.9972  -15.4539   23.4322 C   0  0  0  0  0  0  0  0  0  0  0  0
    6.9266  -14.8573   23.1543 O   0  0  0  0  0  0  0  0  0  0  0  0
    8.8503  -15.6499   27.6909 C   0  0  0  0  0  0  0  0  0  0  0  0
    9.5122  -15.7868   28.9114 C   0  0  0  0  0  0  0  0  0  0  0  0
    8.8423  -15.8351   22.3556 N   0  0  0  0  0  0  0  0  0  0  0  0
    8.5776  -15.4647   20.9803 C   0  0  0  0  0  0  0  0  0  0  0  0
    9.4933  -16.1932   20.0933 C   0  0  0  0  0  0  0  0  0  0  0  0
   10.5889  -16.6123   20.5153 O   0  0  0  0  0  0  0  0  0  0  0  0
    9.5168  -17.4330   16.5123 C   0  0  0  0  0  0  0  0  0  0  0  0
   10.1224  -17.1684   17.8838 C   0  0  2  0  0  0  0  0  0  0  0  0
    9.1833  -16.4561   18.7234 N   0  0  0  0  0  0  0  0  0  0  0  0
   11.3484  -16.3473   17.7146 C   0  0  0  0  0  0  0  0  0  0  0  0
   11.2337  -15.1001   17.8138 O   0  0  0  0  0  0  0  0  0  0  0  0
   12.5716  -16.9323   17.4576 O   0  0  0  0  0  0  0  0  0  0  0  0
  2  1  1  0
  3  2  2  0
  4  3  1  0
  5  4  2  0
  5 11  1  0
  6  7  1  0
  6  5  1  0
  7  8  1  6
  7  9  1  0
  9 13  1  0
  9 10  2  0
 11 12  2  0
 12  2  1  0
 13 14  1  0
 14 15  1  0
 15 19  1  0
 15 16  2  0
 18 20  1  0
 18 17  1  6
 19 18  1  0
 20 22  1  0
 21 20  2  0
M  END
$$$$
