YGA.pdb
     RDKit          3D

 22 22  0  0  1  0  0  0  0  0999 V2000
    6.1348  -10.9540   28.2433 O   0  0  0  0  0  0  0  0  0  0  0  0
    6.5003  -11.7265   27.1345 C   0  0  0  0  0  0  0  0  0  0  0  0
    7.8057  -11.8068   26.7369 C   0  0  0  0  0  0  0  0  0  0  0  0
    8.1296  -12.5901   25.6230 C   0  0  0  0  0  0  0  0  0  0  0  0
    7.1592  -13.2732   24.9306 C   0  0  0  0  0  0  0  0  0  0  0  0
    7.4885  -14.1001   23.7574 C   0  0  0  0  0  0  0  0  0  0  0  0
    7.5558  -15.5659   24.1146 C   0  0  2  0  0  0  0  0  0  0  0  0
    8.3586  -15.7440   25.2917 N   0  0  0  0  0  0  0  0  0  0  0  0
    8.1277  -16.3036   22.9429 C   0  0  0  0  0  0  0  0  0  0  0  0
    7.4046  -16.5577   21.9470 O   0  0  0  0  0  0  0  0  0  0  0  0
    5.8547  -13.1790   25.3464 C   0  0  0  0  0  0  0  0  0  0  0  0
    5.4978  -12.4072   26.4524 C   0  0  0  0  0  0  0  0  0  0  0  0
    9.4801  -16.7375   22.9083 N   0  0  0  0  0  0  0  0  0  0  0  0
   10.2120  -16.9289   21.6728 C   0  0  0  0  0  0  0  0  0  0  0  0
   11.6336  -17.1383   21.9746 C   0  0  0  0  0  0  0  0  0  0  0  0
   12.4454  -17.3989   21.0652 O   0  0  0  0  0  0  0  0  0  0  0  0
   14.2918  -16.0295   23.8765 C   0  0  0  0  0  0  0  0  0  0  0  0
   13.5526  -17.3222   23.5597 C   0  0  2  0  0  0  0  0  0  0  0  0
   12.1536  -17.0560   23.3031 N   0  0  0  0  0  0  0  0  0  0  0  0
   13.6714  -18.2382   24.7228 C   0  0  0  0  0  0  0  0  0  0  0  0
   12.6148  -18.5631   25.3199 O   0  0  0  0  0  0  0  0  0  0  0  0
   14.8987  -18.7167   25.1344 O   0  0  0  0  0  0  0  0  0  0  0  0
  2  1  1  0
  3  2  2  0
  4  3  1  0
  5  4  2  0
  5 11  1  0
  6  7  1  0
  6  5  1  0
  7  8  1  1
  7  9  1  0
  9 13  1  0
  9 10  2  0
 11 12  2  0
 12  2  1  0
 13 14  1  0
 14 15  1  0
 15 19  1  0
 15 16  2  0
 18 20  1  0
 18 17  1  1
 19 18  1  0
 20 22  1  0
 21 20  2  0
M  END
$$$$
