YGA.pdb
     RDKit          3D

 22 22  0  0  1  0  0  0  0  0999 V2000
    5.2219  -10.7118   27.5061 O   0  0  0  0  0  0  0  0  0  0  0  0
    6.0371  -11.6427   26.8513 C   0  0  0  0  0  0  0  0  0  0  0  0
    6.8573  -12.4756   27.5599 C   0  0  0  0  0  0  0  0  0  0  0  0
    7.6568  -13.3924   26.8673 C   0  0  0  0  0  0  0  0  0  0  0  0
    7.6271  -13.4641   25.4956 C   0  0  0  0  0  0  0  0  0  0  0  0
    8.4638  -14.4246   24.7566 C   0  0  0  0  0  0  0  0  0  0  0  0
    7.7224  -15.7126   24.4880 C   0  0  2  0  0  0  0  0  0  0  0  0
    7.3766  -16.3437   25.7305 N   0  0  0  0  0  0  0  0  0  0  0  0
    8.6035  -16.5901   23.6528 C   0  0  0  0  0  0  0  0  0  0  0  0
    9.5492  -17.2217   24.1875 O   0  0  0  0  0  0  0  0  0  0  0  0
    6.7966  -12.6188   24.8033 C   0  0  0  0  0  0  0  0  0  0  0  0
    5.9869  -11.6935   25.4626 C   0  0  0  0  0  0  0  0  0  0  0  0
    8.4124  -16.7423   22.2531 N   0  0  0  0  0  0  0  0  0  0  0  0
    9.2643  -17.5765   21.4304 C   0  0  0  0  0  0  0  0  0  0  0  0
    9.1246  -18.9777   21.8463 C   0  0  0  0  0  0  0  0  0  0  0  0
    8.0251  -19.5594   21.7638 O   0  0  0  0  0  0  0  0  0  0  0  0
   10.3446  -21.9087   21.2544 C   0  0  0  0  0  0  0  0  0  0  0  0
   10.0953  -21.1639   22.5586 C   0  0  2  0  0  0  0  0  0  0  0  0
   10.2218  -19.7362   22.3589 N   0  0  0  0  0  0  0  0  0  0  0  0
   11.0962  -21.6085   23.5619 C   0  0  0  0  0  0  0  0  0  0  0  0
   12.1939  -20.9985   23.6010 O   0  0  0  0  0  0  0  0  0  0  0  0
   10.8313  -22.6550   24.4217 O   0  0  0  0  0  0  0  0  0  0  0  0
  2  1  1  0
  3  2  2  0
  4  3  1  0
  5  4  2  0
  5 11  1  0
  6  7  1  0
  6  5  1  0
  7  8  1  1
  7  9  1  0
  9 13  1  0
  9 10  2  0
 11 12  2  0
 12  2  1  0
 13 14  1  0
 14 15  1  0
 15 19  1  0
 15 16  2  0
 18 20  1  0
 18 17  1  6
 19 18  1  0
 20 22  1  0
 21 20  2  0
M  END
$$$$
