YGA.pdb
     RDKit          3D

 22 22  0  0  1  0  0  0  0  0999 V2000
    6.1831  -11.1436   28.1917 O   0  0  0  0  0  0  0  0  0  0  0  0
    6.4130  -11.8721   27.0185 C   0  0  0  0  0  0  0  0  0  0  0  0
    5.4885  -12.7676   26.5581 C   0  0  0  0  0  0  0  0  0  0  0  0
    5.7566  -13.4761   25.3810 C   0  0  0  0  0  0  0  0  0  0  0  0
    6.9278  -13.2836   24.6891 C   0  0  0  0  0  0  0  0  0  0  0  0
    7.2203  -14.0233   23.4498 C   0  0  0  0  0  0  0  0  0  0  0  0
    7.5082  -15.4793   23.7289 C   0  0  2  0  0  0  0  0  0  0  0  0
    8.3000  -15.5993   24.9207 N   0  0  0  0  0  0  0  0  0  0  0  0
    8.2173  -16.0490   22.5387 C   0  0  0  0  0  0  0  0  0  0  0  0
    7.5835  -16.2696   21.4762 O   0  0  0  0  0  0  0  0  0  0  0  0
    7.8426  -12.3798   25.1686 C   0  0  0  0  0  0  0  0  0  0  0  0
    7.6068  -11.6573   26.3385 C   0  0  0  0  0  0  0  0  0  0  0  0
    9.6042  -16.3570   22.5595 N   0  0  0  0  0  0  0  0  0  0  0  0
   10.3307  -16.7876   21.3825 C   0  0  0  0  0  0  0  0  0  0  0  0
   11.7396  -17.0085   21.7318 C   0  0  0  0  0  0  0  0  0  0  0  0
   12.5965  -17.1788   20.8424 O   0  0  0  0  0  0  0  0  0  0  0  0
   13.9916  -15.8807   24.2636 C   0  0  0  0  0  0  0  0  0  0  0  0
   13.6127  -17.0615   23.3803 C   0  0  2  0  0  0  0  0  0  0  0  0
   12.1961  -17.0396   23.0855 N   0  0  0  0  0  0  0  0  0  0  0  0
   13.9445  -18.3198   24.0961 C   0  0  0  0  0  0  0  0  0  0  0  0
   15.1467  -18.5165   24.4038 O   0  0  0  0  0  0  0  0  0  0  0  0
   12.9678  -19.2418   24.4130 O   0  0  0  0  0  0  0  0  0  0  0  0
  2  1  1  0
  3  2  2  0
  4  3  1  0
  5  4  2  0
  5 11  1  0
  6  7  1  0
  6  5  1  0
  7  8  1  1
  7  9  1  0
  9 13  1  0
  9 10  2  0
 11 12  2  0
 12  2  1  0
 13 14  1  0
 14 15  1  0
 15 19  1  0
 15 16  2  0
 18 20  1  0
 18 17  1  1
 19 18  1  0
 20 22  1  0
 21 20  2  0
M  END
$$$$
