YGA.pdb
     RDKit          3D

 22 22  0  0  1  0  0  0  0  0999 V2000
    5.1031  -11.1090   27.5900 O   0  0  0  0  0  0  0  0  0  0  0  0
    5.9599  -11.7352   26.6771 C   0  0  0  0  0  0  0  0  0  0  0  0
    5.6094  -11.8626   25.3620 C   0  0  0  0  0  0  0  0  0  0  0  0
    6.4945  -12.4953   24.4813 C   0  0  0  0  0  0  0  0  0  0  0  0
    7.7010  -12.9854   24.9194 C   0  0  0  0  0  0  0  0  0  0  0  0
    8.6398  -13.6527   24.0018 C   0  0  0  0  0  0  0  0  0  0  0  0
    8.2203  -15.0757   23.7189 C   0  0  2  0  0  0  0  0  0  0  0  0
    7.6246  -15.6502   24.8923 N   0  0  0  0  0  0  0  0  0  0  0  0
    9.4341  -15.8408   23.2885 C   0  0  0  0  0  0  0  0  0  0  0  0
   10.0838  -15.4714   22.2782 O   0  0  0  0  0  0  0  0  0  0  0  0
    8.0335  -12.8472   26.2437 C   0  0  0  0  0  0  0  0  0  0  0  0
    7.1745  -12.2219   27.1479 C   0  0  0  0  0  0  0  0  0  0  0  0
    9.8921  -16.9898   23.9875 N   0  0  0  0  0  0  0  0  0  0  0  0
   11.2937  -17.3424   24.0858 C   0  0  0  0  0  0  0  0  0  0  0  0
   11.8142  -16.9168   25.3912 C   0  0  0  0  0  0  0  0  0  0  0  0
   12.9918  -17.1629   25.7176 O   0  0  0  0  0  0  0  0  0  0  0  0
   10.9483  -14.5897   28.1635 C   0  0  0  0  0  0  0  0  0  0  0  0
   11.5375  -15.8971   27.6523 C   0  0  2  0  0  0  0  0  0  0  0  0
   11.0130  -16.2104   26.3404 N   0  0  0  0  0  0  0  0  0  0  0  0
   11.1770  -16.9854   28.5964 C   0  0  0  0  0  0  0  0  0  0  0  0
   10.4373  -17.9070   28.1696 O   0  0  0  0  0  0  0  0  0  0  0  0
   11.6375  -16.9860   29.8974 O   0  0  0  0  0  0  0  0  0  0  0  0
  2  1  1  0
  3  2  2  0
  4  3  1  0
  5  4  2  0
  5 11  1  0
  6  7  1  0
  6  5  1  0
  7  8  1  1
  7  9  1  0
  9 13  1  0
  9 10  2  0
 11 12  2  0
 12  2  1  0
 13 14  1  0
 14 15  1  0
 15 19  1  0
 15 16  2  0
 18 20  1  0
 18 17  1  1
 19 18  1  0
 20 22  1  0
 21 20  2  0
M  END
$$$$
