YGA.pdb
     RDKit          3D

 22 22  0  0  1  0  0  0  0  0999 V2000
    8.4802  -11.6044   17.6235 O   0  0  0  0  0  0  0  0  0  0  0  0
    8.4699  -12.5087   18.6922 C   0  0  0  0  0  0  0  0  0  0  0  0
    7.2967  -13.0461   19.1432 C   0  0  0  0  0  0  0  0  0  0  0  0
    7.3295  -13.9467   20.2142 C   0  0  0  0  0  0  0  0  0  0  0  0
    8.5167  -14.2938   20.8123 C   0  0  0  0  0  0  0  0  0  0  0  0
    8.5630  -15.2401   21.9396 C   0  0  0  0  0  0  0  0  0  0  0  0
    9.1788  -16.5574   21.5318 C   0  0  2  0  0  0  0  0  0  0  0  0
    8.4231  -17.1361   20.4567 N   0  0  0  0  0  0  0  0  0  0  0  0
    9.1989  -17.4523   22.7329 C   0  0  0  0  0  0  0  0  0  0  0  0
    8.1335  -17.9782   23.1422 O   0  0  0  0  0  0  0  0  0  0  0  0
    9.6832  -13.7427   20.3442 C   0  0  0  0  0  0  0  0  0  0  0  0
    9.6858  -12.8421   19.2787 C   0  0  0  0  0  0  0  0  0  0  0  0
   10.3952  -17.7382   23.4441 N   0  0  0  0  0  0  0  0  0  0  0  0
   10.4700  -18.7462   24.4818 C   0  0  0  0  0  0  0  0  0  0  0  0
   10.1200  -18.1437   25.7742 C   0  0  0  0  0  0  0  0  0  0  0  0
   10.6870  -17.1051   26.1665 O   0  0  0  0  0  0  0  0  0  0  0  0
    7.7619  -18.8147   28.6550 C   0  0  0  0  0  0  0  0  0  0  0  0
    9.0452  -18.2953   28.0216 C   0  0  2  0  0  0  0  0  0  0  0  0
    9.1284  -18.7054   26.6363 N   0  0  0  0  0  0  0  0  0  0  0  0
   10.2044  -18.8494   28.7667 C   0  0  0  0  0  0  0  0  0  0  0  0
   10.3594  -18.4855   29.9593 O   0  0  0  0  0  0  0  0  0  0  0  0
   11.0815  -19.7331   28.1715 O   0  0  0  0  0  0  0  0  0  0  0  0
  2  1  1  0
  3  2  2  0
  4  3  1  0
  5  4  2  0
  5 11  1  0
  6  7  1  0
  6  5  1  0
  7  8  1  6
  7  9  1  0
  9 13  1  0
  9 10  2  0
 11 12  2  0
 12  2  1  0
 13 14  1  0
 14 15  1  0
 15 19  1  0
 15 16  2  0
 18 20  1  0
 18 17  1  1
 19 18  1  0
 20 22  1  0
 21 20  2  0
M  END
$$$$
