YGA.pdb
     RDKit          3D

 22 22  0  0  1  0  0  0  0  0999 V2000
    7.2572  -12.6302   17.5465 O   0  0  0  0  0  0  0  0  0  0  0  0
    7.5742  -13.1017   18.8260 C   0  0  0  0  0  0  0  0  0  0  0  0
    6.5928  -13.5170   19.6821 C   0  0  0  0  0  0  0  0  0  0  0  0
    6.9516  -13.9816   20.9528 C   0  0  0  0  0  0  0  0  0  0  0  0
    8.2673  -14.0248   21.3462 C   0  0  0  0  0  0  0  0  0  0  0  0
    8.6563  -14.5116   22.6805 C   0  0  0  0  0  0  0  0  0  0  0  0
    9.2722  -15.8887   22.6095 C   0  0  2  0  0  0  0  0  0  0  0  0
    8.3298  -16.8154   22.0483 N   0  0  0  0  0  0  0  0  0  0  0  0
    9.6770  -16.2884   23.9952 C   0  0  0  0  0  0  0  0  0  0  0  0
    8.8190  -16.3311   24.9125 O   0  0  0  0  0  0  0  0  0  0  0  0
    9.2371  -13.6032   20.4714 C   0  0  0  0  0  0  0  0  0  0  0  0
    8.9137  -13.1345   19.1977 C   0  0  0  0  0  0  0  0  0  0  0  0
   11.0167  -16.6283   24.3243 N   0  0  0  0  0  0  0  0  0  0  0  0
   11.4281  -16.9910   25.6651 C   0  0  0  0  0  0  0  0  0  0  0  0
   12.8699  -17.2688   25.6753 C   0  0  0  0  0  0  0  0  0  0  0  0
   13.4433  -17.6175   26.7259 O   0  0  0  0  0  0  0  0  0  0  0  0
   15.3783  -18.6614   23.6080 C   0  0  0  0  0  0  0  0  0  0  0  0
   15.0838  -17.4994   24.5465 C   0  0  2  0  0  0  0  0  0  0  0  0
   13.6787  -17.1563   24.5026 N   0  0  0  0  0  0  0  0  0  0  0  0
   15.8880  -16.3255   24.1208 C   0  0  0  0  0  0  0  0  0  0  0  0
   17.1221  -16.3474   24.3559 O   0  0  0  0  0  0  0  0  0  0  0  0
   15.3019  -15.2476   23.4891 O   0  0  0  0  0  0  0  0  0  0  0  0
  2  1  1  0
  3  2  2  0
  4  3  1  0
  5  4  2  0
  5 11  1  0
  6  7  1  0
  6  5  1  0
  7  8  1  1
  7  9  1  0
  9 13  1  0
  9 10  2  0
 11 12  2  0
 12  2  1  0
 13 14  1  0
 14 15  1  0
 15 19  1  0
 15 16  2  0
 18 20  1  0
 18 17  1  6
 19 18  1  0
 20 22  1  0
 21 20  2  0
M  END
$$$$
