FQC.pdb
     RDKit          3D

 27 27  0  0  1  0  0  0  0  0999 V2000
    5.8987  -17.3406   25.6386 N   0  0  0  0  0  0  0  0  0  0  0  0
    6.5255  -16.1027   25.2132 C   0  0  1  0  0  0  0  0  0  0  0  0
    7.2376  -15.3632   26.2789 C   0  0  0  0  0  0  0  0  0  0  0  0
    6.9012  -13.9296   26.4068 C   0  0  0  0  0  0  0  0  0  0  0  0
    7.8762  -12.9555   26.4646 C   0  0  0  0  0  0  0  0  0  0  0  0
    7.5709  -11.6162   26.5860 C   0  0  0  0  0  0  0  0  0  0  0  0
    6.2557  -11.1912   26.6554 C   0  0  0  0  0  0  0  0  0  0  0  0
    5.2757  -12.1558   26.5985 C   0  0  0  0  0  0  0  0  0  0  0  0
    5.5811  -13.4924   26.4774 C   0  0  0  0  0  0  0  0  0  0  0  0
    7.2519  -16.2847   23.9358 C   0  0  0  0  0  0  0  0  0  0  0  0
    7.9179  -17.2984   23.6478 O   0  0  0  0  0  0  0  0  0  0  0  0
    8.0091  -12.2796   18.8326 N   0  0  0  0  0  0  0  0  0  0  0  0
    8.4673  -13.5786   18.4270 C   0  0  0  0  0  0  0  0  0  0  0  0
    9.0229  -13.6865   17.3103 O   0  0  0  0  0  0  0  0  0  0  0  0
    8.2780  -14.7212   19.3017 C   0  0  0  0  0  0  0  0  0  0  0  0
    7.5550  -14.4873   20.5850 C   0  0  0  0  0  0  0  0  0  0  0  0
    7.9219  -15.3539   21.7329 C   0  0  2  0  0  0  0  0  0  0  0  0
    7.2080  -15.2321   22.9425 N   0  0  0  0  0  0  0  0  0  0  0  0
    9.3878  -15.5115   21.8103 C   0  0  0  0  0  0  0  0  0  0  0  0
   10.0502  -14.4433   22.0465 O   0  0  0  0  0  0  0  0  0  0  0  0
   10.1376  -16.6908   21.6506 N   0  0  0  0  0  0  0  0  0  0  0  0
   11.5821  -16.7309   21.8578 C   0  0  1  0  0  0  0  0  0  0  0  0
   12.0221  -17.6726   22.9235 C   0  0  0  0  0  0  0  0  0  0  0  0
   11.1462  -17.1690   24.4586 S   0  0  0  0  0  0  0  0  0  0  0  0
   12.2162  -17.0567   20.5587 C   0  0  0  0  0  0  0  0  0  0  0  0
   11.5254  -17.3182   19.5256 O   0  0  0  0  0  0  0  0  0  0  0  0
   13.5937  -17.0967   20.3885 O   0  0  0  0  0  0  0  0  0  0  0  0
  2  1  1  1
  2  3  1  0
  4  3  1  0
  5  4  2  0
  6  5  1  0
  7  6  2  0
  7  8  1  0
  8  9  2  0
  9  4  1  0
 10 18  1  0
 10  2  1  0
 11 10  2  0
 13 12  1  0
 14 13  2  0
 15 13  1  0
 17 16  1  6
 16 15  1  0
 17 18  1  0
 19 21  1  0
 19 17  1  0
 20 19  2  0
 22 25  1  0
 22 21  1  0
 22 23  1  1
 24 23  1  0
 25 27  1  0
 26 25  2  0
M  END
$$$$
