FQC.pdb
     RDKit          3D

 27 27  0  0  1  0  0  0  0  0999 V2000
    5.3298  -17.9369   24.8729 N   0  0  0  0  0  0  0  0  0  0  0  0
    5.9486  -16.6275   24.9680 C   0  0  1  0  0  0  0  0  0  0  0  0
    6.4550  -16.2706   26.3117 C   0  0  0  0  0  0  0  0  0  0  0  0
    6.8987  -14.8713   26.4849 C   0  0  0  0  0  0  0  0  0  0  0  0
    8.2280  -14.5450   26.6554 C   0  0  0  0  0  0  0  0  0  0  0  0
    8.6500  -13.2425   26.8197 C   0  0  0  0  0  0  0  0  0  0  0  0
    7.7432  -12.1970   26.8198 C   0  0  0  0  0  0  0  0  0  0  0  0
    6.4144  -12.5126   26.6502 C   0  0  0  0  0  0  0  0  0  0  0  0
    5.9939  -13.8129   26.4863 C   0  0  0  0  0  0  0  0  0  0  0  0
    6.8657  -16.3876   23.8304 C   0  0  0  0  0  0  0  0  0  0  0  0
    7.6690  -17.2325   23.3889 O   0  0  0  0  0  0  0  0  0  0  0  0
    6.9131  -14.6479   18.7659 N   0  0  0  0  0  0  0  0  0  0  0  0
    8.1940  -14.0193   18.9270 C   0  0  0  0  0  0  0  0  0  0  0  0
    8.9831  -14.0298   17.9551 O   0  0  0  0  0  0  0  0  0  0  0  0
    8.5445  -13.3985   20.1911 C   0  0  0  0  0  0  0  0  0  0  0  0
    7.6013  -13.5882   21.3307 C   0  0  0  0  0  0  0  0  0  0  0  0
    7.8095  -14.7833   22.1861 C   0  0  2  0  0  0  0  0  0  0  0  0
    6.8540  -15.0969   23.1742 N   0  0  0  0  0  0  0  0  0  0  0  0
    9.2365  -14.9209   22.5387 C   0  0  0  0  0  0  0  0  0  0  0  0
   10.0676  -14.6856   21.5956 O   0  0  0  0  0  0  0  0  0  0  0  0
    9.7862  -15.2834   23.7817 N   0  0  0  0  0  0  0  0  0  0  0  0
   11.2267  -15.3675   24.0029 C   0  0  1  0  0  0  0  0  0  0  0  0
   11.6124  -15.7418   25.3911 C   0  0  0  0  0  0  0  0  0  0  0  0
   10.7135  -14.5936   26.5096 S   0  0  0  0  0  0  0  0  0  0  0  0
   11.7804  -16.3242   23.0159 C   0  0  0  0  0  0  0  0  0  0  0  0
   11.0460  -16.8835   22.1436 O   0  0  0  0  0  0  0  0  0  0  0  0
   13.1253  -16.6679   22.9813 O   0  0  0  0  0  0  0  0  0  0  0  0
  2  1  1  1
  2  3  1  0
  4  3  1  0
  5  4  2  0
  6  5  1  0
  7  6  2  0
  7  8  1  0
  8  9  2  0
  9  4  1  0
 10 18  1  0
 10  2  1  0
 11 10  2  0
 13 12  1  0
 14 13  2  0
 15 13  1  0
 17 16  1  1
 16 15  1  0
 17 18  1  0
 19 21  1  0
 19 17  1  0
 20 19  2  0
 22 25  1  0
 22 21  1  0
 22 23  1  1
 24 23  1  0
 25 27  1  0
 26 25  2  0
M  END
$$$$
