FQC.pdb
     RDKit          3D

 27 27  0  0  1  0  0  0  0  0999 V2000
    5.9047  -16.5916   25.3542 N   0  0  0  0  0  0  0  0  0  0  0  0
    6.8635  -16.2598   24.3163 C   0  0  1  0  0  0  0  0  0  0  0  0
    6.7808  -14.8727   23.8080 C   0  0  0  0  0  0  0  0  0  0  0  0
    7.0433  -13.8052   24.7962 C   0  0  0  0  0  0  0  0  0  0  0  0
    8.1205  -12.9519   24.6771 C   0  0  0  0  0  0  0  0  0  0  0  0
    8.3736  -11.9548   25.5955 C   0  0  0  0  0  0  0  0  0  0  0  0
    7.5447  -11.7689   26.6881 C   0  0  0  0  0  0  0  0  0  0  0  0
    6.4672  -12.6154   26.8156 C   0  0  0  0  0  0  0  0  0  0  0  0
    6.2151  -13.6103   25.8985 C   0  0  0  0  0  0  0  0  0  0  0  0
    8.2147  -16.7588   24.6598 C   0  0  0  0  0  0  0  0  0  0  0  0
    8.4874  -17.3750   25.7087 O   0  0  0  0  0  0  0  0  0  0  0  0
   12.8769  -16.6828   20.2428 N   0  0  0  0  0  0  0  0  0  0  0  0
   12.6568  -15.5488   21.0957 C   0  0  0  0  0  0  0  0  0  0  0  0
   13.3518  -14.5246   20.9072 O   0  0  0  0  0  0  0  0  0  0  0  0
   11.6539  -15.6114   22.1429 C   0  0  0  0  0  0  0  0  0  0  0  0
   11.6967  -16.7860   23.0610 C   0  0  0  0  0  0  0  0  0  0  0  0
   10.6285  -16.8784   24.0875 C   0  0  2  0  0  0  0  0  0  0  0  0
    9.3084  -16.5253   23.7402 N   0  0  0  0  0  0  0  0  0  0  0  0
   11.1376  -16.4361   25.4007 C   0  0  0  0  0  0  0  0  0  0  0  0
   11.7896  -15.3358   25.4026 O   0  0  0  0  0  0  0  0  0  0  0  0
   10.9952  -17.0815   26.6423 N   0  0  0  0  0  0  0  0  0  0  0  0
   11.4553  -16.4812   27.8909 C   0  0  1  0  0  0  0  0  0  0  0  0
   10.3803  -15.8348   28.6925 C   0  0  0  0  0  0  0  0  0  0  0  0
    9.4859  -14.7059   27.5510 S   0  0  0  0  0  0  0  0  0  0  0  0
   12.1465  -17.5346   28.6711 C   0  0  0  0  0  0  0  0  0  0  0  0
   12.2635  -18.7211   28.2336 O   0  0  0  0  0  0  0  0  0  0  0  0
   12.7058  -17.2947   29.9193 O   0  0  0  0  0  0  0  0  0  0  0  0
  2  1  1  1
  2  3  1  0
  4  3  1  0
  5  4  2  0
  6  5  1  0
  7  6  2  0
  7  8  1  0
  8  9  2  0
  9  4  1  0
 10 18  1  0
 10  2  1  0
 11 10  2  0
 13 12  1  0
 14 13  2  0
 15 13  1  0
 17 16  1  6
 16 15  1  0
 17 18  1  0
 19 21  1  0
 19 17  1  0
 20 19  2  0
 22 25  1  0
 22 21  1  0
 22 23  1  1
 24 23  1  0
 25 27  1  0
 26 25  2  0
M  END
$$$$
