FQC.pdb
     RDKit          3D

 27 27  0  0  1  0  0  0  0  0999 V2000
    6.6274  -16.2813   25.9297 N   0  0  0  0  0  0  0  0  0  0  0  0
    7.2246  -15.5488   24.8283 C   0  0  1  0  0  0  0  0  0  0  0  0
    7.9406  -14.3126   25.2138 C   0  0  0  0  0  0  0  0  0  0  0  0
    7.1464  -13.3093   25.9538 C   0  0  0  0  0  0  0  0  0  0  0  0
    7.5379  -12.8388   27.1899 C   0  0  0  0  0  0  0  0  0  0  0  0
    6.8018  -11.9045   27.8877 C   0  0  0  0  0  0  0  0  0  0  0  0
    5.6247  -11.3953   27.3675 C   0  0  0  0  0  0  0  0  0  0  0  0
    5.2259  -11.8587   26.1345 C   0  0  0  0  0  0  0  0  0  0  0  0
    5.9611  -12.7913   25.4386 C   0  0  0  0  0  0  0  0  0  0  0  0
    7.9331  -16.4621   23.9029 C   0  0  0  0  0  0  0  0  0  0  0  0
    8.4073  -17.5660   24.2357 O   0  0  0  0  0  0  0  0  0  0  0  0
    8.3077  -17.2166   17.4874 N   0  0  0  0  0  0  0  0  0  0  0  0
    9.4591  -17.8509   18.0650 C   0  0  0  0  0  0  0  0  0  0  0  0
   10.1595  -18.5844   17.3309 O   0  0  0  0  0  0  0  0  0  0  0  0
    9.7812  -17.6365   19.4638 C   0  0  0  0  0  0  0  0  0  0  0  0
    8.8829  -16.7353   20.2418 C   0  0  0  0  0  0  0  0  0  0  0  0
    9.0805  -16.6924   21.7122 C   0  0  2  0  0  0  0  0  0  0  0  0
    8.1056  -16.0712   22.5195 N   0  0  0  0  0  0  0  0  0  0  0  0
   10.5003  -16.4464   22.0334 C   0  0  0  0  0  0  0  0  0  0  0  0
   10.9324  -15.2700   21.7784 O   0  0  0  0  0  0  0  0  0  0  0  0
   11.4297  -17.3502   22.5790 N   0  0  0  0  0  0  0  0  0  0  0  0
   12.7420  -16.9258   23.0577 C   0  0  1  0  0  0  0  0  0  0  0  0
   12.9746  -17.1727   24.5071 C   0  0  0  0  0  0  0  0  0  0  0  0
   11.5166  -16.4896   25.3931 S   0  0  0  0  0  0  0  0  0  0  0  0
   13.7663  -17.6017   22.2271 C   0  0  0  0  0  0  0  0  0  0  0  0
   13.4486  -18.4267   21.3155 O   0  0  0  0  0  0  0  0  0  0  0  0
   15.1272  -17.3787   22.3905 O   0  0  0  0  0  0  0  0  0  0  0  0
  2  1  1  1
  2  3  1  0
  4  3  1  0
  5  4  2  0
  6  5  1  0
  7  6  2  0
  7  8  1  0
  8  9  2  0
  9  4  1  0
 10 18  1  0
 10  2  1  0
 11 10  2  0
 13 12  1  0
 14 13  2  0
 15 13  1  0
 17 16  1  6
 16 15  1  0
 17 18  1  0
 19 21  1  0
 19 17  1  0
 20 19  2  0
 22 25  1  0
 22 21  1  0
 22 23  1  1
 24 23  1  0
 25 27  1  0
 26 25  2  0
M  END
$$$$
