FQC.pdb
     RDKit          3D

 27 27  0  0  1  0  0  0  0  0999 V2000
    8.1703  -17.2748   20.5882 N   0  0  0  0  0  0  0  0  0  0  0  0
    9.2709  -16.7138   21.3500 C   0  0  1  0  0  0  0  0  0  0  0  0
    8.9575  -15.4615   22.0731 C   0  0  0  0  0  0  0  0  0  0  0  0
    8.3612  -14.3787   21.2626 C   0  0  0  0  0  0  0  0  0  0  0  0
    9.1395  -13.4812   20.5615 C   0  0  0  0  0  0  0  0  0  0  0  0
    8.5913  -12.4671   19.8048 C   0  0  0  0  0  0  0  0  0  0  0  0
    7.2192  -12.3081   19.7181 C   0  0  0  0  0  0  0  0  0  0  0  0
    6.4343  -13.1988   20.4141 C   0  0  0  0  0  0  0  0  0  0  0  0
    6.9821  -14.2108   21.1692 C   0  0  0  0  0  0  0  0  0  0  0  0
    9.9753  -17.7639   22.1206 C   0  0  0  0  0  0  0  0  0  0  0  0
    9.4118  -18.5565   22.9006 O   0  0  0  0  0  0  0  0  0  0  0  0
   15.4335  -20.7734   20.6262 N   0  0  0  0  0  0  0  0  0  0  0  0
   15.4267  -19.3461   20.7825 C   0  0  0  0  0  0  0  0  0  0  0  0
   16.4017  -18.6989   20.3377 O   0  0  0  0  0  0  0  0  0  0  0  0
   14.3119  -18.6932   21.4438 C   0  0  0  0  0  0  0  0  0  0  0  0
   13.2636  -19.5694   22.0418 C   0  0  0  0  0  0  0  0  0  0  0  0
   12.1115  -18.8952   22.6909 C   0  0  2  0  0  0  0  0  0  0  0  0
   11.4105  -17.8973   21.9833 N   0  0  0  0  0  0  0  0  0  0  0  0
   12.3934  -18.6575   24.1204 C   0  0  0  0  0  0  0  0  0  0  0  0
   12.9869  -17.5584   24.3950 O   0  0  0  0  0  0  0  0  0  0  0  0
   12.0924  -19.4955   25.2093 N   0  0  0  0  0  0  0  0  0  0  0  0
   12.4222  -19.1356   26.5851 C   0  0  1  0  0  0  0  0  0  0  0  0
   11.2792  -19.2309   27.5340 C   0  0  0  0  0  0  0  0  0  0  0  0
    9.9187  -18.2269   26.8141 S   0  0  0  0  0  0  0  0  0  0  0  0
   13.5516  -19.9920   27.0179 C   0  0  0  0  0  0  0  0  0  0  0  0
   14.0355  -20.8909   26.2625 O   0  0  0  0  0  0  0  0  0  0  0  0
   14.1481  -19.8681   28.2657 O   0  0  0  0  0  0  0  0  0  0  0  0
  2  1  1  1
  2  3  1  0
  4  3  1  0
  5  4  2  0
  6  5  1  0
  7  6  2  0
  7  8  1  0
  8  9  2  0
  9  4  1  0
 10 18  1  0
 10  2  1  0
 11 10  2  0
 13 12  1  0
 14 13  2  0
 15 13  1  0
 17 16  1  6
 16 15  1  0
 17 18  1  0
 19 21  1  0
 19 17  1  0
 20 19  2  0
 22 25  1  0
 22 21  1  0
 22 23  1  1
 24 23  1  0
 25 27  1  0
 26 25  2  0
M  END
$$$$
