FQC.pdb
     RDKit          3D

 27 27  0  0  1  0  0  0  0  0999 V2000
    7.7583  -18.1798   18.7235 N   0  0  0  0  0  0  0  0  0  0  0  0
    8.1030  -16.8230   19.1065 C   0  0  1  0  0  0  0  0  0  0  0  0
    6.9695  -16.0002   19.5837 C   0  0  0  0  0  0  0  0  0  0  0  0
    7.3124  -14.6475   20.0709 C   0  0  0  0  0  0  0  0  0  0  0  0
    7.7413  -13.6531   19.2165 C   0  0  0  0  0  0  0  0  0  0  0  0
    8.0652  -12.3892   19.6632 C   0  0  0  0  0  0  0  0  0  0  0  0
    7.9710  -12.0647   21.0053 C   0  0  0  0  0  0  0  0  0  0  0  0
    7.5439  -13.0503   21.8656 C   0  0  0  0  0  0  0  0  0  0  0  0
    7.2209  -14.3115   21.4191 C   0  0  0  0  0  0  0  0  0  0  0  0
    9.3319  -16.7982   19.9322 C   0  0  0  0  0  0  0  0  0  0  0  0
    9.4510  -17.3817   21.0274 O   0  0  0  0  0  0  0  0  0  0  0  0
   15.0779  -13.7054   18.8477 N   0  0  0  0  0  0  0  0  0  0  0  0
   15.1133  -14.2801   20.1631 C   0  0  0  0  0  0  0  0  0  0  0  0
   16.1464  -14.1164   20.8511 O   0  0  0  0  0  0  0  0  0  0  0  0
   13.9735  -15.0289   20.6594 C   0  0  0  0  0  0  0  0  0  0  0  0
   12.7832  -15.1335   19.7670 C   0  0  0  0  0  0  0  0  0  0  0  0
   11.6157  -15.8887   20.2863 C   0  0  2  0  0  0  0  0  0  0  0  0
   10.4813  -16.0520   19.4650 N   0  0  0  0  0  0  0  0  0  0  0  0
   11.3951  -15.5776   21.7125 C   0  0  0  0  0  0  0  0  0  0  0  0
   11.1311  -14.3553   21.9808 O   0  0  0  0  0  0  0  0  0  0  0  0
   11.4460  -16.4616   22.8055 N   0  0  0  0  0  0  0  0  0  0  0  0
   11.4014  -15.9957   24.1882 C   0  0  1  0  0  0  0  0  0  0  0  0
   10.0972  -15.4033   24.5933 C   0  0  0  0  0  0  0  0  0  0  0  0
    8.8599  -16.7596   24.5092 S   0  0  0  0  0  0  0  0  0  0  0  0
   11.7670  -17.1359   25.0613 C   0  0  0  0  0  0  0  0  0  0  0  0
   11.8686  -17.0067   26.3206 O   0  0  0  0  0  0  0  0  0  0  0  0
   12.0199  -18.4074   24.5637 O   0  0  0  0  0  0  0  0  0  0  0  0
  2  1  1  1
  2  3  1  0
  4  3  1  0
  5  4  2  0
  6  5  1  0
  7  6  2  0
  7  8  1  0
  8  9  2  0
  9  4  1  0
 10 18  1  0
 10  2  1  0
 11 10  2  0
 13 12  1  0
 14 13  2  0
 15 13  1  0
 17 16  1  6
 16 15  1  0
 17 18  1  0
 19 21  1  0
 19 17  1  0
 20 19  2  0
 22 25  1  0
 22 21  1  0
 22 23  1  1
 24 23  1  0
 25 27  1  0
 26 25  2  0
M  END
$$$$
