FQC.pdb
     RDKit          3D

 27 27  0  0  1  0  0  0  0  0999 V2000
    5.8382  -18.1105   25.6410 N   0  0  0  0  0  0  0  0  0  0  0  0
    6.2397  -16.7270   25.4644 C   0  0  1  0  0  0  0  0  0  0  0  0
    6.5489  -16.0003   26.7158 C   0  0  0  0  0  0  0  0  0  0  0  0
    6.7682  -14.5448   26.5809 C   0  0  0  0  0  0  0  0  0  0  0  0
    8.0337  -13.9960   26.5842 C   0  0  0  0  0  0  0  0  0  0  0  0
    8.2469  -12.6391   26.4611 C   0  0  0  0  0  0  0  0  0  0  0  0
    7.1841  -11.7627   26.3274 C   0  0  0  0  0  0  0  0  0  0  0  0
    5.9175  -12.3009   26.3229 C   0  0  0  0  0  0  0  0  0  0  0  0
    5.7055  -13.6553   26.4459 C   0  0  0  0  0  0  0  0  0  0  0  0
    7.2198  -16.5931   24.3625 C   0  0  0  0  0  0  0  0  0  0  0  0
    8.2338  -17.3075   24.2372 O   0  0  0  0  0  0  0  0  0  0  0  0
    7.0823  -12.6855   19.0253 N   0  0  0  0  0  0  0  0  0  0  0  0
    8.1622  -13.6232   18.8976 C   0  0  0  0  0  0  0  0  0  0  0  0
    8.7660  -13.6825   17.8024 O   0  0  0  0  0  0  0  0  0  0  0  0
    8.5242  -14.4710   20.0185 C   0  0  0  0  0  0  0  0  0  0  0  0
    7.6193  -14.4604   21.2039 C   0  0  0  0  0  0  0  0  0  0  0  0
    7.9395  -15.4032   22.3047 C   0  0  2  0  0  0  0  0  0  0  0  0
    7.0155  -15.5724   23.3562 N   0  0  0  0  0  0  0  0  0  0  0  0
    9.3719  -15.3204   22.6524 C   0  0  0  0  0  0  0  0  0  0  0  0
    9.7063  -14.3405   23.4032 O   0  0  0  0  0  0  0  0  0  0  0  0
   10.4072  -16.1848   22.2530 N   0  0  0  0  0  0  0  0  0  0  0  0
   11.7567  -16.0914   22.8018 C   0  0  1  0  0  0  0  0  0  0  0  0
   12.0484  -17.0744   23.8810 C   0  0  0  0  0  0  0  0  0  0  0  0
   12.9759  -16.1630   25.1797 S   0  0  0  0  0  0  0  0  0  0  0  0
   12.7124  -16.2296   21.6777 C   0  0  0  0  0  0  0  0  0  0  0  0
   12.3678  -16.7412   20.5676 O   0  0  0  0  0  0  0  0  0  0  0  0
   14.0340  -15.8125   21.7647 O   0  0  0  0  0  0  0  0  0  0  0  0
  2  1  1  1
  2  3  1  0
  4  3  1  0
  5  4  2  0
  6  5  1  0
  7  6  2  0
  7  8  1  0
  8  9  2  0
  9  4  1  0
 10 18  1  0
 10  2  1  0
 11 10  2  0
 13 12  1  0
 14 13  2  0
 15 13  1  0
 17 16  1  1
 16 15  1  0
 17 18  1  0
 19 21  1  0
 19 17  1  0
 20 19  2  0
 22 25  1  0
 22 21  1  0
 22 23  1  1
 24 23  1  0
 25 27  1  0
 26 25  2  0
M  END
$$$$
