FQC.pdb
     RDKit          3D

 27 27  0  0  1  0  0  0  0  0999 V2000
    6.3075  -17.6968   23.4037 N   0  0  0  0  0  0  0  0  0  0  0  0
    6.9398  -16.5170   23.9649 C   0  0  1  0  0  0  0  0  0  0  0  0
    6.1237  -15.7809   24.9556 C   0  0  0  0  0  0  0  0  0  0  0  0
    6.4601  -14.3531   25.1376 C   0  0  0  0  0  0  0  0  0  0  0  0
    7.4436  -13.7363   24.3926 C   0  0  0  0  0  0  0  0  0  0  0  0
    7.7650  -12.4055   24.5576 C   0  0  0  0  0  0  0  0  0  0  0  0
    7.1037  -11.6257   25.4903 C   0  0  0  0  0  0  0  0  0  0  0  0
    6.1206  -12.2322   26.2385 C   0  0  0  0  0  0  0  0  0  0  0  0
    5.8004  -13.5606   26.0733 C   0  0  0  0  0  0  0  0  0  0  0  0
    8.3453  -16.7933   24.3403 C   0  0  0  0  0  0  0  0  0  0  0  0
    8.6930  -17.6750   25.1501 O   0  0  0  0  0  0  0  0  0  0  0  0
   13.6105  -14.8195   21.0760 N   0  0  0  0  0  0  0  0  0  0  0  0
   12.3346  -15.3834   20.7356 C   0  0  0  0  0  0  0  0  0  0  0  0
   11.8881  -15.1808   19.5837 O   0  0  0  0  0  0  0  0  0  0  0  0
   11.5990  -16.1602   21.7164 C   0  0  0  0  0  0  0  0  0  0  0  0
   11.8217  -15.8328   23.1543 C   0  0  0  0  0  0  0  0  0  0  0  0
   10.7495  -16.2158   24.1066 C   0  0  2  0  0  0  0  0  0  0  0  0
    9.4028  -16.0003   23.7491 N   0  0  0  0  0  0  0  0  0  0  0  0
   11.1543  -15.9002   25.4908 C   0  0  0  0  0  0  0  0  0  0  0  0
   11.9726  -14.9261   25.6226 O   0  0  0  0  0  0  0  0  0  0  0  0
   10.7522  -16.5446   26.6747 N   0  0  0  0  0  0  0  0  0  0  0  0
   11.3520  -16.2410   27.9705 C   0  0  1  0  0  0  0  0  0  0  0  0
   10.5327  -15.3425   28.8293 C   0  0  0  0  0  0  0  0  0  0  0  0
    9.9046  -14.0058   27.7356 S   0  0  0  0  0  0  0  0  0  0  0  0
   11.6307  -17.5271   28.6519 C   0  0  0  0  0  0  0  0  0  0  0  0
   11.3305  -18.6418   28.1227 O   0  0  0  0  0  0  0  0  0  0  0  0
   12.2325  -17.5958   29.9014 O   0  0  0  0  0  0  0  0  0  0  0  0
  2  1  1  1
  2  3  1  0
  4  3  1  0
  5  4  2  0
  6  5  1  0
  7  6  2  0
  7  8  1  0
  8  9  2  0
  9  4  1  0
 10 18  1  0
 10  2  1  0
 11 10  2  0
 13 12  1  0
 14 13  2  0
 15 13  1  0
 17 16  1  6
 16 15  1  0
 17 18  1  0
 19 21  1  0
 19 17  1  0
 20 19  2  0
 22 25  1  0
 22 21  1  0
 22 23  1  1
 24 23  1  0
 25 27  1  0
 26 25  2  0
M  END
$$$$
