FQC.pdb
     RDKit          3D

 27 27  0  0  1  0  0  0  0  0999 V2000
    7.0339  -17.1995   26.3553 N   0  0  0  0  0  0  0  0  0  0  0  0
    6.3296  -16.8603   25.1324 C   0  0  1  0  0  0  0  0  0  0  0  0
    5.2844  -15.8233   25.2792 C   0  0  0  0  0  0  0  0  0  0  0  0
    5.7341  -14.5242   25.8223 C   0  0  0  0  0  0  0  0  0  0  0  0
    7.0591  -14.1418   25.7916 C   0  0  0  0  0  0  0  0  0  0  0  0
    7.4872  -12.9327   26.2979 C   0  0  0  0  0  0  0  0  0  0  0  0
    6.5913  -12.0430   26.8647 C   0  0  0  0  0  0  0  0  0  0  0  0
    5.2669  -12.4157   26.8999 C   0  0  0  0  0  0  0  0  0  0  0  0
    4.8403  -13.6227   26.3944 C   0  0  0  0  0  0  0  0  0  0  0  0
    7.2728  -16.6935   24.0032 C   0  0  0  0  0  0  0  0  0  0  0  0
    8.0137  -17.5981   23.5707 O   0  0  0  0  0  0  0  0  0  0  0  0
    8.5887  -14.8801   18.0906 N   0  0  0  0  0  0  0  0  0  0  0  0
    8.6087  -13.7451   18.9698 C   0  0  0  0  0  0  0  0  0  0  0  0
    8.1635  -12.6570   18.5393 O   0  0  0  0  0  0  0  0  0  0  0  0
    9.1380  -13.8774   20.3147 C   0  0  0  0  0  0  0  0  0  0  0  0
    8.1534  -14.0176   21.4261 C   0  0  0  0  0  0  0  0  0  0  0  0
    8.3149  -15.1869   22.3261 C   0  0  2  0  0  0  0  0  0  0  0  0
    7.3653  -15.4073   23.3447 N   0  0  0  0  0  0  0  0  0  0  0  0
    9.7396  -15.3887   22.6564 C   0  0  0  0  0  0  0  0  0  0  0  0
   10.5626  -15.2273   21.6908 O   0  0  0  0  0  0  0  0  0  0  0  0
   10.2947  -15.7406   23.9000 N   0  0  0  0  0  0  0  0  0  0  0  0
   11.7343  -15.8739   24.1020 C   0  0  1  0  0  0  0  0  0  0  0  0
   12.1701  -15.7286   25.5180 C   0  0  0  0  0  0  0  0  0  0  0  0
   10.7944  -14.8920   26.4039 S   0  0  0  0  0  0  0  0  0  0  0  0
   12.1498  -17.1824   23.5443 C   0  0  0  0  0  0  0  0  0  0  0  0
   11.3155  -17.9733   23.0044 O   0  0  0  0  0  0  0  0  0  0  0  0
   13.4658  -17.6244   23.5758 O   0  0  0  0  0  0  0  0  0  0  0  0
  2  1  1  1
  2  3  1  0
  4  3  1  0
  5  4  2  0
  6  5  1  0
  7  6  2  0
  7  8  1  0
  8  9  2  0
  9  4  1  0
 10 18  1  0
 10  2  1  0
 11 10  2  0
 13 12  1  0
 14 13  2  0
 15 13  1  0
 17 16  1  1
 16 15  1  0
 17 18  1  0
 19 21  1  0
 19 17  1  0
 20 19  2  0
 22 25  1  0
 22 21  1  0
 22 23  1  1
 24 23  1  0
 25 27  1  0
 26 25  2  0
M  END
$$$$
