FQC.pdb
     RDKit          3D

 27 27  0  0  1  0  0  0  0  0999 V2000
    5.9895  -17.8326   25.4551 N   0  0  0  0  0  0  0  0  0  0  0  0
    6.4455  -16.4741   25.2248 C   0  0  1  0  0  0  0  0  0  0  0  0
    6.9484  -15.7707   26.4255 C   0  0  0  0  0  0  0  0  0  0  0  0
    6.6811  -14.3180   26.4833 C   0  0  0  0  0  0  0  0  0  0  0  0
    7.6939  -13.3980   26.6581 C   0  0  0  0  0  0  0  0  0  0  0  0
    7.4530  -12.0414   26.7152 C   0  0  0  0  0  0  0  0  0  0  0  0
    6.1672  -11.5431   26.5975 C   0  0  0  0  0  0  0  0  0  0  0  0
    5.1500  -12.4534   26.4227 C   0  0  0  0  0  0  0  0  0  0  0  0
    5.3912  -13.8072   26.3659 C   0  0  0  0  0  0  0  0  0  0  0  0
    7.2880  -16.3936   24.0098 C   0  0  0  0  0  0  0  0  0  0  0  0
    8.2040  -17.1947   23.7390 O   0  0  0  0  0  0  0  0  0  0  0  0
    7.6906  -12.2301   18.2290 N   0  0  0  0  0  0  0  0  0  0  0  0
    7.9929  -13.5774   18.6228 C   0  0  0  0  0  0  0  0  0  0  0  0
    7.6934  -14.5039   17.8358 O   0  0  0  0  0  0  0  0  0  0  0  0
    8.6250  -13.8352   19.9036 C   0  0  0  0  0  0  0  0  0  0  0  0
    7.7354  -13.9406   21.0960 C   0  0  0  0  0  0  0  0  0  0  0  0
    7.9721  -15.0822   22.0147 C   0  0  2  0  0  0  0  0  0  0  0  0
    7.0594  -15.3233   23.0618 N   0  0  0  0  0  0  0  0  0  0  0  0
    9.4123  -15.2132   22.3117 C   0  0  0  0  0  0  0  0  0  0  0  0
    9.8371  -14.5407   23.3132 O   0  0  0  0  0  0  0  0  0  0  0  0
   10.3680  -15.9823   21.6234 N   0  0  0  0  0  0  0  0  0  0  0  0
   11.7556  -16.0809   22.0660 C   0  0  1  0  0  0  0  0  0  0  0  0
   11.9859  -17.0854   23.1402 C   0  0  0  0  0  0  0  0  0  0  0  0
   13.7891  -17.0660   23.4944 S   0  0  0  0  0  0  0  0  0  0  0  0
   12.5905  -16.3673   20.8756 C   0  0  0  0  0  0  0  0  0  0  0  0
   12.0754  -16.5804   19.7345 O   0  0  0  0  0  0  0  0  0  0  0  0
   13.9770  -16.4206   20.9304 O   0  0  0  0  0  0  0  0  0  0  0  0
  2  1  1  1
  2  3  1  0
  4  3  1  0
  5  4  2  0
  6  5  1  0
  7  6  2  0
  7  8  1  0
  8  9  2  0
  9  4  1  0
 10 18  1  0
 10  2  1  0
 11 10  2  0
 13 12  1  0
 14 13  2  0
 15 13  1  0
 17 16  1  1
 16 15  1  0
 17 18  1  0
 19 21  1  0
 19 17  1  0
 20 19  2  0
 22 25  1  0
 22 21  1  0
 22 23  1  1
 24 23  1  0
 25 27  1  0
 26 25  2  0
M  END
$$$$
