FQC.pdb
     RDKit          3D

 27 27  0  0  1  0  0  0  0  0999 V2000
    8.8320  -14.5032   23.1698 N   0  0  0  0  0  0  0  0  0  0  0  0
    8.5561  -14.7328   24.5761 C   0  0  1  0  0  0  0  0  0  0  0  0
    7.1297  -14.6370   24.9578 C   0  0  0  0  0  0  0  0  0  0  0  0
    6.6293  -13.2779   25.2534 C   0  0  0  0  0  0  0  0  0  0  0  0
    6.5878  -12.7813   26.5396 C   0  0  0  0  0  0  0  0  0  0  0  0
    6.1205  -11.5155   26.8242 C   0  0  0  0  0  0  0  0  0  0  0  0
    5.6687  -10.6821   25.8158 C   0  0  0  0  0  0  0  0  0  0  0  0
    5.7062  -11.1688   24.5291 C   0  0  0  0  0  0  0  0  0  0  0  0
    6.1727  -12.4323   24.2458 C   0  0  0  0  0  0  0  0  0  0  0  0
    9.2976  -15.9117   25.0790 C   0  0  0  0  0  0  0  0  0  0  0  0
    9.1443  -16.4026   26.2147 O   0  0  0  0  0  0  0  0  0  0  0  0
   11.2055  -18.2930   20.2133 N   0  0  0  0  0  0  0  0  0  0  0  0
   11.8720  -18.9605   21.2958 C   0  0  0  0  0  0  0  0  0  0  0  0
   13.0015  -19.4549   21.0785 O   0  0  0  0  0  0  0  0  0  0  0  0
   11.2339  -19.0508   22.5962 C   0  0  0  0  0  0  0  0  0  0  0  0
   11.9113  -18.3722   23.7386 C   0  0  0  0  0  0  0  0  0  0  0  0
   11.0468  -17.6317   24.6912 C   0  0  2  0  0  0  0  0  0  0  0  0
   10.2729  -16.5511   24.2208 N   0  0  0  0  0  0  0  0  0  0  0  0
   11.7292  -17.4765   25.9911 C   0  0  0  0  0  0  0  0  0  0  0  0
   12.8507  -16.8624   25.9608 O   0  0  0  0  0  0  0  0  0  0  0  0
   11.2959  -17.9268   27.2513 N   0  0  0  0  0  0  0  0  0  0  0  0
   12.0963  -17.7520   28.4596 C   0  0  1  0  0  0  0  0  0  0  0  0
   11.6403  -16.6425   29.3412 C   0  0  0  0  0  0  0  0  0  0  0  0
   11.0519  -15.3020   28.2303 S   0  0  0  0  0  0  0  0  0  0  0  0
   12.1071  -19.0440   29.1854 C   0  0  0  0  0  0  0  0  0  0  0  0
   11.4998  -20.0659   28.7384 O   0  0  0  0  0  0  0  0  0  0  0  0
   12.7757  -19.2191   30.3897 O   0  0  0  0  0  0  0  0  0  0  0  0
  2  1  1  6
  2  3  1  0
  4  3  1  0
  5  4  2  0
  6  5  1  0
  7  6  2  0
  7  8  1  0
  8  9  2  0
  9  4  1  0
 10 18  1  0
 10  2  1  0
 11 10  2  0
 13 12  1  0
 14 13  2  0
 15 13  1  0
 17 16  1  6
 16 15  1  0
 17 18  1  0
 19 21  1  0
 19 17  1  0
 20 19  2  0
 22 25  1  0
 22 21  1  0
 22 23  1  1
 24 23  1  0
 25 27  1  0
 26 25  2  0
M  END
$$$$
