GYS.pdb
     RDKit          3D

 23 23  0  0  1  0  0  0  0  0999 V2000
    5.1407  -20.6906   22.4345 N   0  0  0  0  0  0  0  0  0  0  0  0
    5.6712  -20.3406   23.7294 C   0  0  0  0  0  0  0  0  0  0  0  0
    6.1448  -18.9320   23.7706 C   0  0  0  0  0  0  0  0  0  0  0  0
    6.1643  -18.1971   22.7544 O   0  0  0  0  0  0  0  0  0  0  0  0
    7.3160  -10.6584   26.0046 O   0  0  0  0  0  0  0  0  0  0  0  0
    7.2118  -12.0479   26.0990 C   0  0  0  0  0  0  0  0  0  0  0  0
    8.3379  -12.8221   26.2856 C   0  0  0  0  0  0  0  0  0  0  0  0
    8.2061  -14.1870   26.3749 C   0  0  0  0  0  0  0  0  0  0  0  0
    6.9729  -14.8442   26.2854 C   0  0  0  0  0  0  0  0  0  0  0  0
    6.9930  -16.3258   26.4061 C   0  0  0  0  0  0  0  0  0  0  0  0
    7.0844  -16.9702   25.0654 C   0  0  2  0  0  0  0  0  0  0  0  0
    6.6136  -18.2954   24.9501 N   0  0  0  0  0  0  0  0  0  0  0  0
    8.5404  -17.0129   24.6538 C   0  0  0  0  0  0  0  0  0  0  0  0
    9.3497  -17.7710   25.2427 O   0  0  0  0  0  0  0  0  0  0  0  0
    5.8825  -14.0651   26.1026 C   0  0  0  0  0  0  0  0  0  0  0  0
    5.9918  -12.6829   26.0094 C   0  0  0  0  0  0  0  0  0  0  0  0
    9.9171  -14.7125   21.2387 O   0  0  0  0  0  0  0  0  0  0  0  0
   10.2922  -16.0398   21.4816 C   0  0  0  0  0  0  0  0  0  0  0  0
   10.2914  -16.3433   22.9353 C   0  0  2  0  0  0  0  0  0  0  0  0
    9.0290  -16.2084   23.6037 N   0  0  0  0  0  0  0  0  0  0  0  0
   11.4336  -15.6802   23.6204 C   0  0  0  0  0  0  0  0  0  0  0  0
   11.2361  -15.0170   24.8271 O   0  0  0  0  0  0  0  0  0  0  0  0
   12.5715  -15.7033   23.1382 O   0  0  0  0  0  0  0  0  0  0  0  0
  2  3  1  0
  2  1  1  0
  3  4  2  0
  5  6  1  0
  6  7  2  0
  7  8  1  0
  9 10  1  0
  9  8  2  0
 11 10  1  1
 11 13  1  0
 12 11  1  0
 12  3  1  0
 13 20  1  0
 14 13  2  0
 15  9  1  0
 16 15  2  0
 16  6  1  0
 18 17  1  0
 19 18  1  6
 20 19  1  0
 21 22  1  0
 21 19  1  0
 23 21  2  0
M  END
$$$$
