GYS.pdb
     RDKit          3D

 23 23  0  0  1  0  0  0  0  0999 V2000
    7.9288  -15.6334   18.7654 N   0  0  0  0  0  0  0  0  0  0  0  0
    7.3363  -16.1332   19.9819 C   0  0  0  0  0  0  0  0  0  0  0  0
    8.1404  -15.7701   21.1784 C   0  0  0  0  0  0  0  0  0  0  0  0
    9.2603  -15.2115   21.0942 O   0  0  0  0  0  0  0  0  0  0  0  0
    6.1550  -10.3638   26.6709 O   0  0  0  0  0  0  0  0  0  0  0  0
    6.5246  -11.6372   26.2322 C   0  0  0  0  0  0  0  0  0  0  0  0
    5.9871  -12.7626   26.8211 C   0  0  0  0  0  0  0  0  0  0  0  0
    6.3687  -14.0031   26.3695 C   0  0  0  0  0  0  0  0  0  0  0  0
    7.2869  -14.1894   25.3289 C   0  0  0  0  0  0  0  0  0  0  0  0
    7.5945  -15.5938   24.9503 C   0  0  0  0  0  0  0  0  0  0  0  0
    8.3945  -15.6459   23.6939 C   0  0  2  0  0  0  0  0  0  0  0  0
    7.7204  -16.0191   22.5118 N   0  0  0  0  0  0  0  0  0  0  0  0
    9.5025  -16.6611   23.8745 C   0  0  0  0  0  0  0  0  0  0  0  0
    9.2372  -17.8814   24.0044 O   0  0  0  0  0  0  0  0  0  0  0  0
    7.8008  -13.0719   24.7663 C   0  0  0  0  0  0  0  0  0  0  0  0
    7.4296  -11.8073   25.2066 C   0  0  0  0  0  0  0  0  0  0  0  0
   13.7223  -15.5009   23.8552 O   0  0  0  0  0  0  0  0  0  0  0  0
   13.2303  -16.7122   23.3533 C   0  0  0  0  0  0  0  0  0  0  0  0
   11.9951  -17.1291   24.0646 C   0  0  2  0  0  0  0  0  0  0  0  0
   10.8573  -16.2703   23.9019 N   0  0  0  0  0  0  0  0  0  0  0  0
   12.2916  -17.5111   25.4716 C   0  0  0  0  0  0  0  0  0  0  0  0
   13.3263  -18.3972   25.7529 O   0  0  0  0  0  0  0  0  0  0  0  0
   11.6324  -17.0548   26.4124 O   0  0  0  0  0  0  0  0  0  0  0  0
  2  3  1  0
  2  1  1  0
  3  4  2  0
  5  6  1  0
  6  7  2  0
  7  8  1  0
  9 10  1  0
  9  8  2  0
 11 10  1  1
 11 13  1  0
 12 11  1  0
 12  3  1  0
 13 20  1  0
 14 13  2  0
 15  9  1  0
 16 15  2  0
 16  6  1  0
 18 17  1  0
 19 18  1  1
 20 19  1  0
 21 22  1  0
 21 19  1  0
 23 21  2  0
M  END
$$$$
