GYS.pdb
     RDKit          3D

 23 23  0  0  1  0  0  0  0  0999 V2000
    7.9204  -12.6104   19.0234 N   0  0  0  0  0  0  0  0  0  0  0  0
    7.4478  -13.7476   19.7744 C   0  0  0  0  0  0  0  0  0  0  0  0
    8.1624  -13.8901   21.0702 C   0  0  0  0  0  0  0  0  0  0  0  0
    9.4130  -13.8545   21.1582 O   0  0  0  0  0  0  0  0  0  0  0  0
   10.2902  -14.5926   29.5670 O   0  0  0  0  0  0  0  0  0  0  0  0
    9.5419  -14.4914   28.3921 C   0  0  0  0  0  0  0  0  0  0  0  0
    9.2853  -13.2578   27.8311 C   0  0  0  0  0  0  0  0  0  0  0  0
    8.5462  -13.1876   26.6747 C   0  0  0  0  0  0  0  0  0  0  0  0
    8.0319  -14.3167   26.0256 C   0  0  0  0  0  0  0  0  0  0  0  0
    7.2560  -14.0781   24.7801 C   0  0  0  0  0  0  0  0  0  0  0  0
    8.1115  -14.2617   23.5737 C   0  0  2  0  0  0  0  0  0  0  0  0
    7.5032  -14.0774   22.3139 N   0  0  0  0  0  0  0  0  0  0  0  0
    8.6389  -15.6805   23.5731 C   0  0  0  0  0  0  0  0  0  0  0  0
    7.8697  -16.6487   23.3556 O   0  0  0  0  0  0  0  0  0  0  0  0
    8.2961  -15.5155   26.5935 C   0  0  0  0  0  0  0  0  0  0  0  0
    9.0412  -15.6106   27.7626 C   0  0  0  0  0  0  0  0  0  0  0  0
   12.4426  -16.6716   22.3417 O   0  0  0  0  0  0  0  0  0  0  0  0
   11.3857  -17.5677   22.5449 C   0  0  0  0  0  0  0  0  0  0  0  0
   10.6341  -17.2434   23.7840 C   0  0  2  0  0  0  0  0  0  0  0  0
   10.0005  -15.9564   23.8148 N   0  0  0  0  0  0  0  0  0  0  0  0
   11.4320  -17.5745   24.9954 C   0  0  0  0  0  0  0  0  0  0  0  0
   11.5953  -16.6316   26.0049 O   0  0  0  0  0  0  0  0  0  0  0  0
   11.9620  -18.6829   25.1307 O   0  0  0  0  0  0  0  0  0  0  0  0
  2  3  1  0
  2  1  1  0
  3  4  2  0
  5  6  1  0
  6  7  2  0
  7  8  1  0
  9 10  1  0
  9  8  2  0
 11 10  1  1
 11 13  1  0
 12 11  1  0
 12  3  1  0
 13 20  1  0
 14 13  2  0
 15  9  1  0
 16 15  2  0
 16  6  1  0
 18 17  1  0
 19 18  1  6
 20 19  1  0
 21 22  1  0
 21 19  1  0
 23 21  2  0
M  END
$$$$
