GYS.pdb
     RDKit          3D

 23 23  0  0  1  0  0  0  0  0999 V2000
    7.8408  -19.3991   19.2687 N   0  0  0  0  0  0  0  0  0  0  0  0
    7.5723  -19.1501   20.6639 C   0  0  0  0  0  0  0  0  0  0  0  0
    8.5032  -18.1413   21.2346 C   0  0  0  0  0  0  0  0  0  0  0  0
    9.7404  -18.1741   21.0313 O   0  0  0  0  0  0  0  0  0  0  0  0
    7.2355  -12.4563   17.6700 O   0  0  0  0  0  0  0  0  0  0  0  0
    7.5337  -12.9993   18.9217 C   0  0  0  0  0  0  0  0  0  0  0  0
    6.5570  -13.6376   19.6573 C   0  0  0  0  0  0  0  0  0  0  0  0
    6.8783  -14.1625   20.8859 C   0  0  0  0  0  0  0  0  0  0  0  0
    8.1619  -14.0837   21.4398 C   0  0  0  0  0  0  0  0  0  0  0  0
    8.3539  -14.7047   22.7769 C   0  0  0  0  0  0  0  0  0  0  0  0
    8.9070  -16.0829   22.6517 C   0  0  2  0  0  0  0  0  0  0  0  0
    8.0831  -17.0597   22.0532 N   0  0  0  0  0  0  0  0  0  0  0  0
    9.2187  -16.6007   24.0394 C   0  0  0  0  0  0  0  0  0  0  0  0
    8.3172  -17.1100   24.7496 O   0  0  0  0  0  0  0  0  0  0  0  0
    9.1035  -13.4537   20.7009 C   0  0  0  0  0  0  0  0  0  0  0  0
    8.8014  -12.9152   19.4560 C   0  0  0  0  0  0  0  0  0  0  0  0
   11.5364  -19.3123   24.4975 O   0  0  0  0  0  0  0  0  0  0  0  0
   10.8443  -18.7640   25.5846 C   0  0  0  0  0  0  0  0  0  0  0  0
   11.0455  -17.2950   25.6669 C   0  0  2  0  0  0  0  0  0  0  0  0
   10.5219  -16.5277   24.5733 N   0  0  0  0  0  0  0  0  0  0  0  0
   12.4473  -16.9677   26.0431 C   0  0  0  0  0  0  0  0  0  0  0  0
   12.9968  -17.4840   27.2120 O   0  0  0  0  0  0  0  0  0  0  0  0
   13.1479  -16.2376   25.3331 O   0  0  0  0  0  0  0  0  0  0  0  0
  2  3  1  0
  2  1  1  0
  3  4  2  0
  5  6  1  0
  6  7  2  0
  7  8  1  0
  9 10  1  0
  9  8  2  0
 11 10  1  1
 11 13  1  0
 12 11  1  0
 12  3  1  0
 13 20  1  0
 14 13  2  0
 15  9  1  0
 16 15  2  0
 16  6  1  0
 18 17  1  0
 19 18  1  6
 20 19  1  0
 21 22  1  0
 21 19  1  0
 23 21  2  0
M  END
$$$$
