GYS.pdb
     RDKit          3D

 23 23  0  0  1  0  0  0  0  0999 V2000
    7.5947  -14.4769   19.3652 N   0  0  0  0  0  0  0  0  0  0  0  0
    6.9070  -14.7667   20.5996 C   0  0  0  0  0  0  0  0  0  0  0  0
    7.7933  -14.5927   21.7803 C   0  0  0  0  0  0  0  0  0  0  0  0
    9.0196  -14.3515   21.6734 O   0  0  0  0  0  0  0  0  0  0  0  0
   10.9974  -15.1074   29.9677 O   0  0  0  0  0  0  0  0  0  0  0  0
   10.1355  -14.8976   28.8889 C   0  0  0  0  0  0  0  0  0  0  0  0
    9.4156  -15.9461   28.3554 C   0  0  0  0  0  0  0  0  0  0  0  0
    8.5750  -15.7110   27.2940 C   0  0  0  0  0  0  0  0  0  0  0  0
    8.4072  -14.4467   26.7162 C   0  0  0  0  0  0  0  0  0  0  0  0
    7.4574  -14.3517   25.5764 C   0  0  0  0  0  0  0  0  0  0  0  0
    8.1362  -14.6660   24.2873 C   0  0  2  0  0  0  0  0  0  0  0  0
    7.3395  -14.6821   23.1228 N   0  0  0  0  0  0  0  0  0  0  0  0
    8.7425  -16.0489   24.3911 C   0  0  0  0  0  0  0  0  0  0  0  0
    8.0114  -17.0697   24.3902 O   0  0  0  0  0  0  0  0  0  0  0  0
    9.1229  -13.4336   27.2557 C   0  0  0  0  0  0  0  0  0  0  0  0
    9.9790  -13.6479   28.3291 C   0  0  0  0  0  0  0  0  0  0  0  0
   12.5226  -17.0882   22.8852 O   0  0  0  0  0  0  0  0  0  0  0  0
   11.4524  -17.9176   23.2432 C   0  0  0  0  0  0  0  0  0  0  0  0
   10.8383  -17.4835   24.5238 C   0  0  2  0  0  0  0  0  0  0  0  0
   10.1372  -16.2321   24.4910 N   0  0  0  0  0  0  0  0  0  0  0  0
   11.7954  -17.6324   25.6531 C   0  0  0  0  0  0  0  0  0  0  0  0
   12.4503  -18.8419   25.8605 O   0  0  0  0  0  0  0  0  0  0  0  0
   12.0278  -16.6948   26.4244 O   0  0  0  0  0  0  0  0  0  0  0  0
  2  3  1  0
  2  1  1  0
  3  4  2  0
  5  6  1  0
  6  7  2  0
  7  8  1  0
  9 10  1  0
  9  8  2  0
 11 10  1  1
 11 13  1  0
 12 11  1  0
 12  3  1  0
 13 20  1  0
 14 13  2  0
 15  9  1  0
 16 15  2  0
 16  6  1  0
 18 17  1  0
 19 18  1  6
 20 19  1  0
 21 22  1  0
 21 19  1  0
 23 21  2  0
M  END
$$$$
