GYS.pdb
     RDKit          3D

 23 23  0  0  1  0  0  0  0  0999 V2000
    7.9319  -12.8608   19.4097 N   0  0  0  0  0  0  0  0  0  0  0  0
    7.1802  -13.5562   20.4257 C   0  0  0  0  0  0  0  0  0  0  0  0
    7.9980  -13.8124   21.6404 C   0  0  0  0  0  0  0  0  0  0  0  0
    9.2521  -13.8219   21.6194 O   0  0  0  0  0  0  0  0  0  0  0  0
   10.8335  -14.9453   29.8730 O   0  0  0  0  0  0  0  0  0  0  0  0
   10.0034  -14.7099   28.7748 C   0  0  0  0  0  0  0  0  0  0  0  0
    9.2859  -15.7420   28.2071 C   0  0  0  0  0  0  0  0  0  0  0  0
    8.4770  -15.4819   27.1272 C   0  0  0  0  0  0  0  0  0  0  0  0
    8.3394  -14.2075   26.5635 C   0  0  0  0  0  0  0  0  0  0  0  0
    7.4218  -14.0850   25.4003 C   0  0  0  0  0  0  0  0  0  0  0  0
    8.1507  -14.3038   24.1189 C   0  0  2  0  0  0  0  0  0  0  0  0
    7.4420  -14.0672   22.9219 N   0  0  0  0  0  0  0  0  0  0  0  0
    8.5886  -15.7515   24.0593 C   0  0  0  0  0  0  0  0  0  0  0  0
    7.7554  -16.6630   23.8326 O   0  0  0  0  0  0  0  0  0  0  0  0
    9.0521  -13.2109   27.1365 C   0  0  0  0  0  0  0  0  0  0  0  0
    9.8766  -13.4506   28.2291 C   0  0  0  0  0  0  0  0  0  0  0  0
   11.8512  -17.0995   22.2360 O   0  0  0  0  0  0  0  0  0  0  0  0
   10.8455  -17.8982   22.7946 C   0  0  0  0  0  0  0  0  0  0  0  0
   10.4884  -17.4391   24.1610 C   0  0  2  0  0  0  0  0  0  0  0  0
    9.9362  -16.1182   24.2548 N   0  0  0  0  0  0  0  0  0  0  0  0
   11.5848  -17.7263   25.1250 C   0  0  0  0  0  0  0  0  0  0  0  0
   12.1112  -19.0100   25.2238 O   0  0  0  0  0  0  0  0  0  0  0  0
   12.0477  -16.8402   25.8519 O   0  0  0  0  0  0  0  0  0  0  0  0
  2  3  1  0
  2  1  1  0
  3  4  2  0
  5  6  1  0
  6  7  2  0
  7  8  1  0
  9 10  1  0
  9  8  2  0
 11 10  1  1
 11 13  1  0
 12 11  1  0
 12  3  1  0
 13 20  1  0
 14 13  2  0
 15  9  1  0
 16 15  2  0
 16  6  1  0
 18 17  1  0
 19 18  1  6
 20 19  1  0
 21 22  1  0
 21 19  1  0
 23 21  2  0
M  END
$$$$
