GYS.pdb
     RDKit          3D

 23 23  0  0  1  0  0  0  0  0999 V2000
    7.5937  -12.6572   19.3102 N   0  0  0  0  0  0  0  0  0  0  0  0
    7.0762  -13.6593   20.2096 C   0  0  0  0  0  0  0  0  0  0  0  0
    7.9006  -13.7755   21.4412 C   0  0  0  0  0  0  0  0  0  0  0  0
    9.1340  -13.5481   21.4511 O   0  0  0  0  0  0  0  0  0  0  0  0
   10.7112  -14.7981   29.7169 O   0  0  0  0  0  0  0  0  0  0  0  0
    9.8835  -14.6393   28.6033 C   0  0  0  0  0  0  0  0  0  0  0  0
    9.2634  -15.7309   28.0321 C   0  0  0  0  0  0  0  0  0  0  0  0
    8.4545  -15.5456   26.9368 C   0  0  0  0  0  0  0  0  0  0  0  0
    8.2220  -14.2907   26.3608 C   0  0  0  0  0  0  0  0  0  0  0  0
    7.3175  -14.2521   25.1815 C   0  0  0  0  0  0  0  0  0  0  0  0
    8.0941  -14.2988   23.9103 C   0  0  2  0  0  0  0  0  0  0  0  0
    7.3744  -14.1502   22.7057 N   0  0  0  0  0  0  0  0  0  0  0  0
    8.7790  -15.6453   23.8178 C   0  0  0  0  0  0  0  0  0  0  0  0
    8.1092  -16.6933   23.6460 O   0  0  0  0  0  0  0  0  0  0  0  0
    8.8401  -13.2349   26.9375 C   0  0  0  0  0  0  0  0  0  0  0  0
    9.6626  -13.3984   28.0455 C   0  0  0  0  0  0  0  0  0  0  0  0
   12.8077  -18.1517   22.9275 O   0  0  0  0  0  0  0  0  0  0  0  0
   12.1971  -16.8962   23.0389 C   0  0  0  0  0  0  0  0  0  0  0  0
   10.9482  -16.9727   23.8388 C   0  0  2  0  0  0  0  0  0  0  0  0
   10.1805  -15.7633   23.9206 N   0  0  0  0  0  0  0  0  0  0  0  0
   11.1892  -17.6474   25.1428 C   0  0  0  0  0  0  0  0  0  0  0  0
   11.7620  -18.9144   25.1797 O   0  0  0  0  0  0  0  0  0  0  0  0
   10.8891  -17.1032   26.2113 O   0  0  0  0  0  0  0  0  0  0  0  0
  2  3  1  0
  2  1  1  0
  3  4  2  0
  5  6  1  0
  6  7  2  0
  7  8  1  0
  9 10  1  0
  9  8  2  0
 11 10  1  1
 11 13  1  0
 12 11  1  0
 12  3  1  0
 13 20  1  0
 14 13  2  0
 15  9  1  0
 16 15  2  0
 16  6  1  0
 18 17  1  0
 19 18  1  1
 20 19  1  0
 21 22  1  0
 21 19  1  0
 23 21  2  0
M  END
$$$$
