GYS.pdb
     RDKit          3D

 23 23  0  0  1  0  0  0  0  0999 V2000
    7.8239  -13.0224   19.5111 N   0  0  0  0  0  0  0  0  0  0  0  0
    7.2250  -13.9017   20.4853 C   0  0  0  0  0  0  0  0  0  0  0  0
    8.1455  -14.1791   21.6192 C   0  0  0  0  0  0  0  0  0  0  0  0
    9.3384  -13.7919   21.6299 O   0  0  0  0  0  0  0  0  0  0  0  0
    6.2355  -10.3851   27.4398 O   0  0  0  0  0  0  0  0  0  0  0  0
    6.6119  -11.6092   26.8827 C   0  0  0  0  0  0  0  0  0  0  0  0
    7.8874  -12.0996   27.0700 C   0  0  0  0  0  0  0  0  0  0  0  0
    8.2307  -13.3067   26.5103 C   0  0  0  0  0  0  0  0  0  0  0  0
    7.3432  -14.0772   25.7491 C   0  0  0  0  0  0  0  0  0  0  0  0
    7.8618  -15.3639   25.2146 C   0  0  0  0  0  0  0  0  0  0  0  0
    8.5631  -15.1593   23.9155 C   0  0  2  0  0  0  0  0  0  0  0  0
    7.7641  -14.8998   22.7818 N   0  0  0  0  0  0  0  0  0  0  0  0
    9.3438  -16.4147   23.5908 C   0  0  0  0  0  0  0  0  0  0  0  0
    8.7573  -17.4417   23.1690 O   0  0  0  0  0  0  0  0  0  0  0  0
    6.0982  -13.5769   25.5787 C   0  0  0  0  0  0  0  0  0  0  0  0
    5.7288  -12.3584   26.1353 C   0  0  0  0  0  0  0  0  0  0  0  0
   13.5713  -16.3415   23.1170 O   0  0  0  0  0  0  0  0  0  0  0  0
   12.7580  -17.3727   22.6307 C   0  0  0  0  0  0  0  0  0  0  0  0
   11.5907  -17.6040   23.5191 C   0  0  2  0  0  0  0  0  0  0  0  0
   10.7439  -16.4691   23.7507 N   0  0  0  0  0  0  0  0  0  0  0  0
   11.9913  -18.3435   24.7464 C   0  0  0  0  0  0  0  0  0  0  0  0
   12.7481  -19.5063   24.6470 O   0  0  0  0  0  0  0  0  0  0  0  0
   11.6642  -17.9456   25.8701 O   0  0  0  0  0  0  0  0  0  0  0  0
  2  3  1  0
  2  1  1  0
  3  4  2  0
  5  6  1  0
  6  7  2  0
  7  8  1  0
  9 10  1  0
  9  8  2  0
 11 10  1  1
 11 13  1  0
 12 11  1  0
 12  3  1  0
 13 20  1  0
 14 13  2  0
 15  9  1  0
 16 15  2  0
 16  6  1  0
 18 17  1  0
 19 18  1  1
 20 19  1  0
 21 22  1  0
 21 19  1  0
 23 21  2  0
M  END
$$$$
