GYS.pdb
     RDKit          3D

 23 23  0  0  1  0  0  0  0  0999 V2000
   10.0902  -24.2026   23.3420 N   0  0  0  0  0  0  0  0  0  0  0  0
   11.4943  -24.3285   23.0368 C   0  0  0  0  0  0  0  0  0  0  0  0
   12.1720  -23.0060   22.9961 C   0  0  0  0  0  0  0  0  0  0  0  0
   11.5424  -21.9293   22.8639 O   0  0  0  0  0  0  0  0  0  0  0  0
   11.7166  -20.9291   28.9881 O   0  0  0  0  0  0  0  0  0  0  0  0
   12.5302  -21.0073   27.8556 C   0  0  0  0  0  0  0  0  0  0  0  0
   13.3418  -22.1039   27.6525 C   0  0  0  0  0  0  0  0  0  0  0  0
   14.1321  -22.1545   26.5295 C   0  0  0  0  0  0  0  0  0  0  0  0
   14.1586  -21.1387   25.5661 C   0  0  0  0  0  0  0  0  0  0  0  0
   15.0625  -21.3418   24.4033 C   0  0  0  0  0  0  0  0  0  0  0  0
   14.2840  -21.6204   23.1633 C   0  0  2  0  0  0  0  0  0  0  0  0
   13.5784  -22.8408   23.1019 N   0  0  0  0  0  0  0  0  0  0  0  0
   15.2418  -21.6386   21.9915 C   0  0  0  0  0  0  0  0  0  0  0  0
   15.8542  -22.6901   21.6821 O   0  0  0  0  0  0  0  0  0  0  0  0
   13.3548  -20.0734   25.7859 C   0  0  0  0  0  0  0  0  0  0  0  0
   12.5472  -20.0006   26.9144 C   0  0  0  0  0  0  0  0  0  0  0  0
   14.2679  -19.8169   18.8691 O   0  0  0  0  0  0  0  0  0  0  0  0
   15.6591  -19.6569   18.8907 C   0  0  0  0  0  0  0  0  0  0  0  0
   16.2696  -20.3944   20.0259 C   0  0  2  0  0  0  0  0  0  0  0  0
   15.4739  -20.4835   21.2166 N   0  0  0  0  0  0  0  0  0  0  0  0
   17.6768  -19.9651   20.2473 C   0  0  0  0  0  0  0  0  0  0  0  0
   18.0858  -19.5283   21.5031 O   0  0  0  0  0  0  0  0  0  0  0  0
   18.5055  -19.9866   19.3304 O   0  0  0  0  0  0  0  0  0  0  0  0
  2  3  1  0
  2  1  1  0
  3  4  2  0
  5  6  1  0
  6  7  2  0
  7  8  1  0
  9 10  1  0
  9  8  2  0
 11 10  1  1
 11 13  1  0
 12 11  1  0
 12  3  1  0
 13 20  1  0
 14 13  2  0
 15  9  1  0
 16 15  2  0
 16  6  1  0
 18 17  1  0
 19 18  1  6
 20 19  1  0
 21 22  1  0
 21 19  1  0
 23 21  2  0
M  END
$$$$
