GYS.pdb
     RDKit          3D

 23 23  0  0  1  0  0  0  0  0999 V2000
    7.6489  -12.7795   19.4212 N   0  0  0  0  0  0  0  0  0  0  0  0
    7.0821  -13.7506   20.3248 C   0  0  0  0  0  0  0  0  0  0  0  0
    7.9076  -13.9132   21.5504 C   0  0  0  0  0  0  0  0  0  0  0  0
    9.1566  -13.7991   21.5424 O   0  0  0  0  0  0  0  0  0  0  0  0
   10.7592  -14.8143   29.8111 O   0  0  0  0  0  0  0  0  0  0  0  0
    9.9201  -14.6655   28.7045 C   0  0  0  0  0  0  0  0  0  0  0  0
    9.3073  -15.7644   28.1394 C   0  0  0  0  0  0  0  0  0  0  0  0
    8.4868  -15.5889   27.0512 C   0  0  0  0  0  0  0  0  0  0  0  0
    8.2354  -14.3371   26.4763 C   0  0  0  0  0  0  0  0  0  0  0  0
    7.3203  -14.3095   25.3050 C   0  0  0  0  0  0  0  0  0  0  0  0
    8.0834  -14.4013   24.0281 C   0  0  2  0  0  0  0  0  0  0  0  0
    7.3651  -14.2094   22.8288 N   0  0  0  0  0  0  0  0  0  0  0  0
    8.6864  -15.7862   23.9302 C   0  0  0  0  0  0  0  0  0  0  0  0
    7.9588  -16.7872   23.7182 O   0  0  0  0  0  0  0  0  0  0  0  0
    8.8467  -13.2741   27.0469 C   0  0  0  0  0  0  0  0  0  0  0  0
    9.6806  -13.4276   28.1479 C   0  0  0  0  0  0  0  0  0  0  0  0
   12.2558  -18.5194   22.5108 O   0  0  0  0  0  0  0  0  0  0  0  0
   11.7337  -17.2371   22.7216 C   0  0  0  0  0  0  0  0  0  0  0  0
   10.7845  -17.2220   23.8636 C   0  0  2  0  0  0  0  0  0  0  0  0
   10.0741  -15.9931   24.0727 N   0  0  0  0  0  0  0  0  0  0  0  0
   11.4091  -17.7966   25.0856 C   0  0  0  0  0  0  0  0  0  0  0  0
   11.3285  -17.1187   26.2975 O   0  0  0  0  0  0  0  0  0  0  0  0
   12.0074  -18.8777   25.0520 O   0  0  0  0  0  0  0  0  0  0  0  0
  2  3  1  0
  2  1  1  0
  3  4  2  0
  5  6  1  0
  6  7  2  0
  7  8  1  0
  9 10  1  0
  9  8  2  0
 11 10  1  1
 11 13  1  0
 12 11  1  0
 12  3  1  0
 13 20  1  0
 14 13  2  0
 15  9  1  0
 16 15  2  0
 16  6  1  0
 18 17  1  0
 19 18  1  6
 20 19  1  0
 21 22  1  0
 21 19  1  0
 23 21  2  0
M  END
$$$$
