FSA.pdb
     RDKit          3D

 23 23  0  0  1  0  0  0  0  0999 V2000
    6.5909  -16.1557   25.8681 N   0  0  0  0  0  0  0  0  0  0  0  0
    7.3896  -15.5610   24.8202 C   0  0  1  0  0  0  0  0  0  0  0  0
    8.4072  -14.6211   25.4418 C   0  0  0  0  0  0  0  0  0  0  0  0
    7.6839  -13.4308   25.9408 C   0  0  0  0  0  0  0  0  0  0  0  0
    6.8252  -12.7311   25.1202 C   0  0  0  0  0  0  0  0  0  0  0  0
    6.1524  -11.6113   25.6104 C   0  0  0  0  0  0  0  0  0  0  0  0
    6.3414  -11.2055   26.9011 C   0  0  0  0  0  0  0  0  0  0  0  0
    7.1924  -11.8939   27.7246 C   0  0  0  0  0  0  0  0  0  0  0  0
    7.8504  -12.9983   27.2264 C   0  0  0  0  0  0  0  0  0  0  0  0
    8.0437  -16.5999   24.0127 C   0  0  0  0  0  0  0  0  0  0  0  0
    8.1987  -17.7478   24.5026 O   0  0  0  0  0  0  0  0  0  0  0  0
    9.8461  -15.9617   20.1675 O   0  0  0  0  0  0  0  0  0  0  0  0
    9.2592  -17.1642   20.5120 C   0  0  0  0  0  0  0  0  0  0  0  0
    9.2441  -17.3731   22.0151 C   0  0  2  0  0  0  0  0  0  0  0  0
    8.5081  -16.3724   22.7100 N   0  0  0  0  0  0  0  0  0  0  0  0
   10.6512  -17.4976   22.5273 C   0  0  0  0  0  0  0  0  0  0  0  0
   11.3072  -16.4817   22.8735 O   0  0  0  0  0  0  0  0  0  0  0  0
   13.1394  -20.3406   23.0012 C   0  0  0  0  0  0  0  0  0  0  0  0
   12.6461  -18.9268   23.1003 C   0  0  2  0  0  0  0  0  0  0  0  0
   11.3016  -18.7565   22.6440 N   0  0  0  0  0  0  0  0  0  0  0  0
   13.6010  -18.0146   22.4232 C   0  0  0  0  0  0  0  0  0  0  0  0
   14.5897  -17.6137   23.0819 O   0  0  0  0  0  0  0  0  0  0  0  0
   13.4735  -17.5786   21.1183 O   0  0  0  0  0  0  0  0  0  0  0  0
  2  1  1  1
  2 10  1  0
  3  2  1  0
  4  5  2  0
  4  3  1  0
  6  5  1  0
  7  6  2  0
  8  7  1  0
  8  9  2  0
  9  4  1  0
 10 11  2  0
 10 15  1  0
 13 12  1  0
 14 13  1  6
 15 14  1  0
 16 14  1  0
 16 17  2  0
 19 18  1  6
 19 20  1  0
 20 16  1  0
 21 19  1  0
 22 21  2  0
 23 21  1  0
M  END
$$$$
