FSA.pdb
     RDKit          3D

 23 23  0  0  1  0  0  0  0  0999 V2000
    6.1712  -17.0247   25.3500 N   0  0  0  0  0  0  0  0  0  0  0  0
    7.1203  -15.9957   24.9894 C   0  0  1  0  0  0  0  0  0  0  0  0
    7.6011  -15.2976   26.2491 C   0  0  0  0  0  0  0  0  0  0  0  0
    6.9864  -13.9523   26.2882 C   0  0  0  0  0  0  0  0  0  0  0  0
    5.6525  -13.7945   26.5981 C   0  0  0  0  0  0  0  0  0  0  0  0
    5.0921  -12.5170   26.6299 C   0  0  0  0  0  0  0  0  0  0  0  0
    5.8608  -11.4216   26.3550 C   0  0  0  0  0  0  0  0  0  0  0  0
    7.1872  -11.5677   26.0460 C   0  0  0  0  0  0  0  0  0  0  0  0
    7.7271  -12.8360   26.0184 C   0  0  0  0  0  0  0  0  0  0  0  0
    8.2428  -16.5667   24.2322 C   0  0  0  0  0  0  0  0  0  0  0  0
    8.7155  -17.6777   24.5842 O   0  0  0  0  0  0  0  0  0  0  0  0
   10.2616  -14.6217   21.0125 O   0  0  0  0  0  0  0  0  0  0  0  0
   10.0353  -15.9846   20.9952 C   0  0  0  0  0  0  0  0  0  0  0  0
    9.8724  -16.5462   22.3956 C   0  0  2  0  0  0  0  0  0  0  0  0
    8.8186  -15.9278   23.1256 N   0  0  0  0  0  0  0  0  0  0  0  0
   11.1826  -16.4786   23.1282 C   0  0  0  0  0  0  0  0  0  0  0  0
   11.4516  -15.5126   23.8876 O   0  0  0  0  0  0  0  0  0  0  0  0
   14.2128  -18.7376   23.5423 C   0  0  0  0  0  0  0  0  0  0  0  0
   13.4592  -17.4421   23.6174 C   0  0  2  0  0  0  0  0  0  0  0  0
   12.1707  -17.4929   22.9994 N   0  0  0  0  0  0  0  0  0  0  0  0
   14.3037  -16.3404   23.0924 C   0  0  0  0  0  0  0  0  0  0  0  0
   14.1662  -16.0257   21.8864 O   0  0  0  0  0  0  0  0  0  0  0  0
   15.2291  -15.6400   23.8420 O   0  0  0  0  0  0  0  0  0  0  0  0
  2  1  1  1
  2 10  1  0
  3  2  1  0
  4  5  2  0
  4  3  1  0
  6  5  1  0
  7  6  2  0
  8  7  1  0
  8  9  2  0
  9  4  1  0
 10 11  2  0
 10 15  1  0
 13 12  1  0
 14 13  1  6
 15 14  1  0
 16 14  1  0
 16 17  2  0
 19 18  1  6
 19 20  1  0
 20 16  1  0
 21 19  1  0
 22 21  2  0
 23 21  1  0
M  END
$$$$
