FSA.pdb
     RDKit          3D

 23 23  0  0  1  0  0  0  0  0999 V2000
    6.6448  -16.1262   25.9822 N   0  0  0  0  0  0  0  0  0  0  0  0
    7.0726  -15.4079   24.8029 C   0  0  1  0  0  0  0  0  0  0  0  0
    8.1448  -14.4055   25.1916 C   0  0  0  0  0  0  0  0  0  0  0  0
    7.5192  -13.3801   26.0553 C   0  0  0  0  0  0  0  0  0  0  0  0
    8.1014  -13.0121   27.2494 C   0  0  0  0  0  0  0  0  0  0  0  0
    7.4953  -12.0426   28.0493 C   0  0  0  0  0  0  0  0  0  0  0  0
    6.3266  -11.4564   27.6532 C   0  0  0  0  0  0  0  0  0  0  0  0
    5.7401  -11.8149   26.4685 C   0  0  0  0  0  0  0  0  0  0  0  0
    6.3504  -12.7743   25.6886 C   0  0  0  0  0  0  0  0  0  0  0  0
    7.5578  -16.3393   23.7750 C   0  0  0  0  0  0  0  0  0  0  0  0
    8.0523  -17.4394   24.1312 O   0  0  0  0  0  0  0  0  0  0  0  0
    8.0072  -15.3198   19.6172 O   0  0  0  0  0  0  0  0  0  0  0  0
    7.7975  -16.6206   20.0333 C   0  0  0  0  0  0  0  0  0  0  0  0
    8.2424  -16.8312   21.4688 C   0  0  2  0  0  0  0  0  0  0  0  0
    7.4961  -16.0592   22.4031 N   0  0  0  0  0  0  0  0  0  0  0  0
    9.7203  -16.5864   21.5863 C   0  0  0  0  0  0  0  0  0  0  0  0
   10.1790  -15.4183   21.6718 O   0  0  0  0  0  0  0  0  0  0  0  0
   12.1938  -16.8592   23.3487 C   0  0  0  0  0  0  0  0  0  0  0  0
   12.0263  -17.5114   22.0077 C   0  0  2  0  0  0  0  0  0  0  0  0
   10.6610  -17.6523   21.6064 N   0  0  0  0  0  0  0  0  0  0  0  0
   12.7674  -18.7968   21.9799 C   0  0  0  0  0  0  0  0  0  0  0  0
   12.1033  -19.8541   22.0956 O   0  0  0  0  0  0  0  0  0  0  0  0
   14.1372  -18.9060   21.8354 O   0  0  0  0  0  0  0  0  0  0  0  0
  2  1  1  1
  2 10  1  0
  3  2  1  0
  4  5  2  0
  4  3  1  0
  6  5  1  0
  7  6  2  0
  8  7  1  0
  8  9  2  0
  9  4  1  0
 10 11  2  0
 10 15  1  0
 13 12  1  0
 14 13  1  6
 15 14  1  0
 16 14  1  0
 16 17  2  0
 19 18  1  1
 19 20  1  0
 20 16  1  0
 21 19  1  0
 22 21  2  0
 23 21  1  0
M  END
$$$$
