FSA.pdb
     RDKit          3D

 23 23  0  0  1  0  0  0  0  0999 V2000
    6.0671  -17.6108   25.7746 N   0  0  0  0  0  0  0  0  0  0  0  0
    6.6514  -16.4270   25.1855 C   0  0  1  0  0  0  0  0  0  0  0  0
    7.6252  -15.8080   26.1724 C   0  0  0  0  0  0  0  0  0  0  0  0
    7.2902  -14.3730   26.3048 C   0  0  0  0  0  0  0  0  0  0  0  0
    6.8282  -13.6532   25.2236 C   0  0  0  0  0  0  0  0  0  0  0  0
    6.5177  -12.3008   25.3696 C   0  0  0  0  0  0  0  0  0  0  0  0
    6.6698  -11.6869   26.5806 C   0  0  0  0  0  0  0  0  0  0  0  0
    7.1280  -12.3932   27.6610 C   0  0  0  0  0  0  0  0  0  0  0  0
    7.4309  -13.7287   27.5017 C   0  0  0  0  0  0  0  0  0  0  0  0
    7.3120  -16.7518   23.9137 C   0  0  0  0  0  0  0  0  0  0  0  0
    7.8428  -17.8831   23.7719 O   0  0  0  0  0  0  0  0  0  0  0  0
    8.0443  -14.0035   20.6958 O   0  0  0  0  0  0  0  0  0  0  0  0
    7.6731  -15.3140   20.4638 C   0  0  0  0  0  0  0  0  0  0  0  0
    8.0351  -16.2164   21.6290 C   0  0  2  0  0  0  0  0  0  0  0  0
    7.3806  -15.8538   22.8398 N   0  0  0  0  0  0  0  0  0  0  0  0
    9.5283  -16.2703   21.7882 C   0  0  0  0  0  0  0  0  0  0  0  0
   10.2665  -16.6645   20.8491 O   0  0  0  0  0  0  0  0  0  0  0  0
   12.0252  -14.9099   24.2730 C   0  0  0  0  0  0  0  0  0  0  0  0
   11.5900  -15.8271   23.1679 C   0  0  2  0  0  0  0  0  0  0  0  0
   10.1715  -15.8823   22.9953 N   0  0  0  0  0  0  0  0  0  0  0  0
   12.1963  -17.1677   23.3618 C   0  0  0  0  0  0  0  0  0  0  0  0
   13.4455  -17.2348   23.4466 O   0  0  0  0  0  0  0  0  0  0  0  0
   11.4777  -18.3442   23.4548 O   0  0  0  0  0  0  0  0  0  0  0  0
  2  1  1  1
  2 10  1  0
  3  2  1  0
  4  5  2  0
  4  3  1  0
  6  5  1  0
  7  6  2  0
  8  7  1  0
  8  9  2  0
  9  4  1  0
 10 11  2  0
 10 15  1  0
 13 12  1  0
 14 13  1  6
 15 14  1  0
 16 14  1  0
 16 17  2  0
 19 18  1  1
 19 20  1  0
 20 16  1  0
 21 19  1  0
 22 21  2  0
 23 21  1  0
M  END
$$$$
