FSA.pdb
     RDKit          3D

 23 23  0  0  1  0  0  0  0  0999 V2000
    9.8880  -16.5457   19.7932 N   0  0  0  0  0  0  0  0  0  0  0  0
   10.2925  -15.8973   21.0202 C   0  0  1  0  0  0  0  0  0  0  0  0
    9.0572  -15.5595   21.8360 C   0  0  0  0  0  0  0  0  0  0  0  0
    8.3388  -14.4663   21.1447 C   0  0  0  0  0  0  0  0  0  0  0  0
    8.7902  -13.1660   21.2210 C   0  0  0  0  0  0  0  0  0  0  0  0
    8.0983  -12.1496   20.5615 C   0  0  0  0  0  0  0  0  0  0  0  0
    6.9746  -12.4383   19.8400 C   0  0  0  0  0  0  0  0  0  0  0  0
    6.5180  -13.7270   19.7580 C   0  0  0  0  0  0  0  0  0  0  0  0
    7.2119  -14.7209   20.4149 C   0  0  0  0  0  0  0  0  0  0  0  0
   11.2177  -16.7509   21.7782 C   0  0  0  0  0  0  0  0  0  0  0  0
   11.0209  -17.9928   21.8051 O   0  0  0  0  0  0  0  0  0  0  0  0
   14.3945  -15.3591   24.2958 O   0  0  0  0  0  0  0  0  0  0  0  0
   14.5422  -16.4756   23.4952 C   0  0  0  0  0  0  0  0  0  0  0  0
   13.2056  -17.1176   23.1721 C   0  0  2  0  0  0  0  0  0  0  0  0
   12.3200  -16.2443   22.4800 N   0  0  0  0  0  0  0  0  0  0  0  0
   12.5887  -17.6707   24.4257 C   0  0  0  0  0  0  0  0  0  0  0  0
   11.7741  -16.9911   25.1016 O   0  0  0  0  0  0  0  0  0  0  0  0
   12.7376  -20.9618   26.3321 C   0  0  0  0  0  0  0  0  0  0  0  0
   12.4200  -19.5074   26.1428 C   0  0  2  0  0  0  0  0  0  0  0  0
   12.8929  -18.9750   24.9027 N   0  0  0  0  0  0  0  0  0  0  0  0
   12.8954  -18.7342   27.3169 C   0  0  0  0  0  0  0  0  0  0  0  0
   12.3814  -18.9926   28.4310 O   0  0  0  0  0  0  0  0  0  0  0  0
   13.8644  -17.7507   27.2644 O   0  0  0  0  0  0  0  0  0  0  0  0
  2  1  1  6
  2 10  1  0
  3  2  1  0
  4  5  2  0
  4  3  1  0
  6  5  1  0
  7  6  2  0
  8  7  1  0
  8  9  2  0
  9  4  1  0
 10 11  2  0
 10 15  1  0
 13 12  1  0
 14 13  1  1
 15 14  1  0
 16 14  1  0
 16 17  2  0
 19 18  1  1
 19 20  1  0
 20 16  1  0
 21 19  1  0
 22 21  2  0
 23 21  1  0
M  END
$$$$
