FSA.pdb
     RDKit          3D

 23 23  0  0  1  0  0  0  0  0999 V2000
    9.5849  -16.3267   18.7818 N   0  0  0  0  0  0  0  0  0  0  0  0
   10.6088  -15.3728   19.1445 C   0  0  1  0  0  0  0  0  0  0  0  0
   10.2168  -14.6907   20.4432 C   0  0  0  0  0  0  0  0  0  0  0  0
    9.0630  -13.8075   20.1645 C   0  0  0  0  0  0  0  0  0  0  0  0
    7.7814  -14.1959   20.4918 C   0  0  0  0  0  0  0  0  0  0  0  0
    6.7070  -13.3479   20.2208 C   0  0  0  0  0  0  0  0  0  0  0  0
    6.9204  -12.1337   19.6321 C   0  0  0  0  0  0  0  0  0  0  0  0
    8.1899  -11.7385   19.3031 C   0  0  0  0  0  0  0  0  0  0  0  0
    9.2417  -12.5868   19.5768 C   0  0  0  0  0  0  0  0  0  0  0  0
   11.9164  -16.0333   19.2602 C   0  0  0  0  0  0  0  0  0  0  0  0
   11.9749  -17.1933   19.7426 O   0  0  0  0  0  0  0  0  0  0  0  0
   15.7045  -14.1768   18.4739 O   0  0  0  0  0  0  0  0  0  0  0  0
   15.4756  -15.5103   18.1934 C   0  0  0  0  0  0  0  0  0  0  0  0
   14.3624  -16.0830   19.0512 C   0  0  2  0  0  0  0  0  0  0  0  0
   13.1139  -15.4281   18.8553 N   0  0  0  0  0  0  0  0  0  0  0  0
   14.7795  -16.0839   20.4948 C   0  0  0  0  0  0  0  0  0  0  0  0
   14.4515  -15.1450   21.2649 O   0  0  0  0  0  0  0  0  0  0  0  0
   16.5436  -18.5032   22.8338 C   0  0  0  0  0  0  0  0  0  0  0  0
   16.0086  -17.1668   22.4099 C   0  0  2  0  0  0  0  0  0  0  0  0
   15.5567  -17.1353   21.0535 N   0  0  0  0  0  0  0  0  0  0  0  0
   17.0082  -16.1105   22.7056 C   0  0  0  0  0  0  0  0  0  0  0  0
   17.6608  -15.6410   21.7433 O   0  0  0  0  0  0  0  0  0  0  0  0
   17.2671  -15.6110   23.9675 O   0  0  0  0  0  0  0  0  0  0  0  0
  2  1  1  1
  2 10  1  0
  3  2  1  0
  4  5  2  0
  4  3  1  0
  6  5  1  0
  7  6  2  0
  8  7  1  0
  8  9  2  0
  9  4  1  0
 10 11  2  0
 10 15  1  0
 13 12  1  0
 14 13  1  6
 15 14  1  0
 16 14  1  0
 16 17  2  0
 19 18  1  6
 19 20  1  0
 20 16  1  0
 21 19  1  0
 22 21  2  0
 23 21  1  0
M  END
$$$$
