FSA.pdb
     RDKit          3D

 23 23  0  0  1  0  0  0  0  0999 V2000
    6.2142  -17.3167   25.4621 N   0  0  0  0  0  0  0  0  0  0  0  0
    7.0169  -16.2874   24.8409 C   0  0  1  0  0  0  0  0  0  0  0  0
    7.8514  -15.5963   25.9046 C   0  0  0  0  0  0  0  0  0  0  0  0
    7.3799  -14.1984   26.0176 C   0  0  0  0  0  0  0  0  0  0  0  0
    6.5716  -13.8085   27.0640 C   0  0  0  0  0  0  0  0  0  0  0  0
    6.1380  -12.4852   27.1523 C   0  0  0  0  0  0  0  0  0  0  0  0
    6.5118  -11.5741   26.2054 C   0  0  0  0  0  0  0  0  0  0  0  0
    7.3148  -11.9515   25.1619 C   0  0  0  0  0  0  0  0  0  0  0  0
    7.7354  -13.2624   25.0876 C   0  0  0  0  0  0  0  0  0  0  0  0
    7.8630  -16.8564   23.7827 C   0  0  0  0  0  0  0  0  0  0  0  0
    8.1721  -18.0743   23.8357 O   0  0  0  0  0  0  0  0  0  0  0  0
    9.9367  -16.5346   19.4341 O   0  0  0  0  0  0  0  0  0  0  0  0
    9.1365  -15.9359   20.3883 C   0  0  0  0  0  0  0  0  0  0  0  0
    9.1496  -16.7044   21.6968 C   0  0  2  0  0  0  0  0  0  0  0  0
    8.3476  -16.1010   22.7062 N   0  0  0  0  0  0  0  0  0  0  0  0
   10.5664  -16.9143   22.1514 C   0  0  0  0  0  0  0  0  0  0  0  0
   11.4059  -17.4894   21.4119 O   0  0  0  0  0  0  0  0  0  0  0  0
   12.9139  -15.4571   24.6048 C   0  0  0  0  0  0  0  0  0  0  0  0
   12.3535  -16.6636   23.9103 C   0  0  2  0  0  0  0  0  0  0  0  0
   11.0210  -16.4775   23.4257 N   0  0  0  0  0  0  0  0  0  0  0  0
   12.4829  -17.8524   24.7891 C   0  0  0  0  0  0  0  0  0  0  0  0
   13.6192  -18.1148   25.2498 O   0  0  0  0  0  0  0  0  0  0  0  0
   11.4372  -18.6876   25.1328 O   0  0  0  0  0  0  0  0  0  0  0  0
  2  1  1  1
  2 10  1  0
  3  2  1  0
  4  5  2  0
  4  3  1  0
  6  5  1  0
  7  6  2  0
  8  7  1  0
  8  9  2  0
  9  4  1  0
 10 11  2  0
 10 15  1  0
 13 12  1  0
 14 13  1  6
 15 14  1  0
 16 14  1  0
 16 17  2  0
 19 18  1  1
 19 20  1  0
 20 16  1  0
 21 19  1  0
 22 21  2  0
 23 21  1  0
M  END
$$$$
