FSA.pdb
     RDKit          3D

 23 23  0  0  1  0  0  0  0  0999 V2000
    6.0576  -17.2954   25.4075 N   0  0  0  0  0  0  0  0  0  0  0  0
    6.8684  -16.2367   24.8494 C   0  0  1  0  0  0  0  0  0  0  0  0
    7.6358  -15.5543   25.9679 C   0  0  0  0  0  0  0  0  0  0  0  0
    7.1559  -14.1581   26.0646 C   0  0  0  0  0  0  0  0  0  0  0  0
    6.0040  -13.8540   26.7583 C   0  0  0  0  0  0  0  0  0  0  0  0
    5.5688  -12.5307   26.8378 C   0  0  0  0  0  0  0  0  0  0  0  0
    6.2802  -11.5348   26.2306 C   0  0  0  0  0  0  0  0  0  0  0  0
    7.4259  -11.8265   25.5391 C   0  0  0  0  0  0  0  0  0  0  0  0
    7.8438  -13.1385   25.4690 C   0  0  0  0  0  0  0  0  0  0  0  0
    7.7765  -16.7648   23.8218 C   0  0  0  0  0  0  0  0  0  0  0  0
    8.3178  -17.8856   24.0018 O   0  0  0  0  0  0  0  0  0  0  0  0
    9.3196  -14.6655   20.3340 O   0  0  0  0  0  0  0  0  0  0  0  0
    8.8584  -15.9678   20.3165 C   0  0  0  0  0  0  0  0  0  0  0  0
    8.9703  -16.6231   21.6807 C   0  0  2  0  0  0  0  0  0  0  0  0
    8.0724  -16.0738   22.6388 N   0  0  0  0  0  0  0  0  0  0  0  0
   10.3962  -16.5792   22.1526 C   0  0  0  0  0  0  0  0  0  0  0  0
   11.2852  -16.0005   21.4766 O   0  0  0  0  0  0  0  0  0  0  0  0
   12.7565  -15.8011   23.9145 C   0  0  0  0  0  0  0  0  0  0  0  0
   12.1469  -17.1714   23.8658 C   0  0  2  0  0  0  0  0  0  0  0  0
   10.8045  -17.1835   23.3731 N   0  0  0  0  0  0  0  0  0  0  0  0
   12.2765  -17.8245   25.1921 C   0  0  0  0  0  0  0  0  0  0  0  0
   13.4317  -17.9778   25.6551 O   0  0  0  0  0  0  0  0  0  0  0  0
   11.2116  -18.2738   25.9492 O   0  0  0  0  0  0  0  0  0  0  0  0
  2  1  1  1
  2 10  1  0
  3  2  1  0
  4  5  2  0
  4  3  1  0
  6  5  1  0
  7  6  2  0
  8  7  1  0
  8  9  2  0
  9  4  1  0
 10 11  2  0
 10 15  1  0
 13 12  1  0
 14 13  1  6
 15 14  1  0
 16 14  1  0
 16 17  2  0
 19 18  1  1
 19 20  1  0
 20 16  1  0
 21 19  1  0
 22 21  2  0
 23 21  1  0
M  END
$$$$
