FSA.pdb
     RDKit          3D

 23 23  0  0  1  0  0  0  0  0999 V2000
    8.0947  -17.3599   20.2309 N   0  0  0  0  0  0  0  0  0  0  0  0
    9.1716  -16.7612   20.9868 C   0  0  1  0  0  0  0  0  0  0  0  0
    8.5997  -15.7118   21.9234 C   0  0  0  0  0  0  0  0  0  0  0  0
    8.1476  -14.5662   21.1035 C   0  0  0  0  0  0  0  0  0  0  0  0
    6.8260  -14.4422   20.7317 C   0  0  0  0  0  0  0  0  0  0  0  0
    6.4201  -13.3539   19.9585 C   0  0  0  0  0  0  0  0  0  0  0  0
    7.3279  -12.4104   19.5684 C   0  0  0  0  0  0  0  0  0  0  0  0
    8.6433  -12.5245   19.9326 C   0  0  0  0  0  0  0  0  0  0  0  0
    9.0298  -13.6051   20.6967 C   0  0  0  0  0  0  0  0  0  0  0  0
    9.9205  -17.7872   21.7257 C   0  0  0  0  0  0  0  0  0  0  0  0
    9.2938  -18.5849   22.4691 O   0  0  0  0  0  0  0  0  0  0  0  0
   14.1853  -18.0477   21.9694 O   0  0  0  0  0  0  0  0  0  0  0  0
   13.4041  -19.1839   21.8816 C   0  0  0  0  0  0  0  0  0  0  0  0
   11.9911  -18.9354   22.3763 C   0  0  2  0  0  0  0  0  0  0  0  0
   11.3130  -17.9220   21.6420 N   0  0  0  0  0  0  0  0  0  0  0  0
   12.0098  -18.6478   23.8511 C   0  0  0  0  0  0  0  0  0  0  0  0
   12.3418  -17.5154   24.2865 O   0  0  0  0  0  0  0  0  0  0  0  0
   10.5103  -19.8900   26.9673 C   0  0  0  0  0  0  0  0  0  0  0  0
   11.7351  -19.4354   26.2291 C   0  0  2  0  0  0  0  0  0  0  0  0
   11.6568  -19.6317   24.8148 N   0  0  0  0  0  0  0  0  0  0  0  0
   12.9412  -20.0588   26.8283 C   0  0  0  0  0  0  0  0  0  0  0  0
   13.1545  -19.8595   28.0478 O   0  0  0  0  0  0  0  0  0  0  0  0
   13.8426  -20.8425   26.1338 O   0  0  0  0  0  0  0  0  0  0  0  0
  2  1  1  1
  2 10  1  0
  3  2  1  0
  4  5  2  0
  4  3  1  0
  6  5  1  0
  7  6  2  0
  8  7  1  0
  8  9  2  0
  9  4  1  0
 10 11  2  0
 10 15  1  0
 13 12  1  0
 14 13  1  6
 15 14  1  0
 16 14  1  0
 16 17  2  0
 19 18  1  1
 19 20  1  0
 20 16  1  0
 21 19  1  0
 22 21  2  0
 23 21  1  0
M  END
$$$$
