FSA.pdb
     RDKit          3D

 23 23  0  0  1  0  0  0  0  0999 V2000
    5.8017  -16.8078   25.0794 N   0  0  0  0  0  0  0  0  0  0  0  0
    7.0592  -16.1122   24.9229 C   0  0  1  0  0  0  0  0  0  0  0  0
    7.4134  -15.4234   26.2289 C   0  0  0  0  0  0  0  0  0  0  0  0
    7.0819  -13.9880   26.0922 C   0  0  0  0  0  0  0  0  0  0  0  0
    6.0349  -13.4349   26.7980 C   0  0  0  0  0  0  0  0  0  0  0  0
    5.7389  -12.0788   26.6551 C   0  0  0  0  0  0  0  0  0  0  0  0
    6.4831  -11.2968   25.8179 C   0  0  0  0  0  0  0  0  0  0  0  0
    7.5255  -11.8367   25.1121 C   0  0  0  0  0  0  0  0  0  0  0  0
    7.8062  -13.1780   25.2634 C   0  0  0  0  0  0  0  0  0  0  0  0
    8.1178  -17.0410   24.5033 C   0  0  0  0  0  0  0  0  0  0  0  0
    8.1256  -18.2096   24.9682 O   0  0  0  0  0  0  0  0  0  0  0  0
   11.5348  -16.0335   22.0979 O   0  0  0  0  0  0  0  0  0  0  0  0
   10.8648  -17.2334   21.9547 C   0  0  0  0  0  0  0  0  0  0  0  0
   10.1313  -17.6238   23.2245 C   0  0  2  0  0  0  0  0  0  0  0  0
    9.1298  -16.6852   23.6013 N   0  0  0  0  0  0  0  0  0  0  0  0
   11.1194  -17.8698   24.3296 C   0  0  0  0  0  0  0  0  0  0  0  0
   11.5178  -16.9296   25.0640 O   0  0  0  0  0  0  0  0  0  0  0  0
   12.7296  -20.9246   25.9137 C   0  0  0  0  0  0  0  0  0  0  0  0
   12.5630  -19.4563   25.6523 C   0  0  2  0  0  0  0  0  0  0  0  0
   11.6455  -19.1637   24.5952 N   0  0  0  0  0  0  0  0  0  0  0  0
   13.8928  -18.8303   25.4466 C   0  0  0  0  0  0  0  0  0  0  0  0
   14.2033  -18.4936   24.2793 O   0  0  0  0  0  0  0  0  0  0  0  0
   14.8094  -18.5943   26.4531 O   0  0  0  0  0  0  0  0  0  0  0  0
  2  1  1  1
  2 10  1  0
  3  2  1  0
  4  5  2  0
  4  3  1  0
  6  5  1  0
  7  6  2  0
  8  7  1  0
  8  9  2  0
  9  4  1  0
 10 11  2  0
 10 15  1  0
 13 12  1  0
 14 13  1  6
 15 14  1  0
 16 14  1  0
 16 17  2  0
 19 18  1  6
 19 20  1  0
 20 16  1  0
 21 19  1  0
 22 21  2  0
 23 21  1  0
M  END
$$$$
