FSA.pdb
     RDKit          3D

 23 23  0  0  1  0  0  0  0  0999 V2000
    7.0237  -15.8269   20.4222 N   0  0  0  0  0  0  0  0  0  0  0  0
    7.4541  -15.2200   21.6616 C   0  0  1  0  0  0  0  0  0  0  0  0
    6.2464  -15.0027   22.5558 C   0  0  0  0  0  0  0  0  0  0  0  0
    6.7100  -14.3430   23.7964 C   0  0  0  0  0  0  0  0  0  0  0  0
    6.6719  -15.0054   25.0048 C   0  0  0  0  0  0  0  0  0  0  0  0
    7.1142  -14.3654   26.1631 C   0  0  0  0  0  0  0  0  0  0  0  0
    7.5850  -13.0843   26.1042 C   0  0  0  0  0  0  0  0  0  0  0  0
    7.6270  -12.4175   24.9085 C   0  0  0  0  0  0  0  0  0  0  0  0
    7.1867  -13.0625   23.7723 C   0  0  0  0  0  0  0  0  0  0  0  0
    8.4674  -16.0534   22.3235 C   0  0  0  0  0  0  0  0  0  0  0  0
    8.2815  -17.2947   22.4024 O   0  0  0  0  0  0  0  0  0  0  0  0
   13.0523  -16.8545   22.7250 O   0  0  0  0  0  0  0  0  0  0  0  0
   12.0289  -15.9552   22.4946 C   0  0  0  0  0  0  0  0  0  0  0  0
   10.7442  -16.3752   23.1847 C   0  0  2  0  0  0  0  0  0  0  0  0
    9.6428  -15.5277   22.8770 N   0  0  0  0  0  0  0  0  0  0  0  0
   10.9736  -16.4884   24.6654 C   0  0  0  0  0  0  0  0  0  0  0  0
   11.8860  -17.2218   25.1258 O   0  0  0  0  0  0  0  0  0  0  0  0
    9.5728  -14.8426   27.7911 C   0  0  0  0  0  0  0  0  0  0  0  0
   10.3171  -15.8970   27.0254 C   0  0  2  0  0  0  0  0  0  0  0  0
   10.1787  -15.7793   25.6070 N   0  0  0  0  0  0  0  0  0  0  0  0
    9.9399  -17.2413   27.5285 C   0  0  0  0  0  0  0  0  0  0  0  0
   10.1157  -17.4771   28.7474 O   0  0  0  0  0  0  0  0  0  0  0  0
    9.4090  -18.2480   26.7450 O   0  0  0  0  0  0  0  0  0  0  0  0
  2  1  1  6
  2 10  1  0
  3  2  1  0
  4  5  2  0
  4  3  1  0
  6  5  1  0
  7  6  2  0
  8  7  1  0
  8  9  2  0
  9  4  1  0
 10 11  2  0
 10 15  1  0
 13 12  1  0
 14 13  1  6
 15 14  1  0
 16 14  1  0
 16 17  2  0
 19 18  1  1
 19 20  1  0
 20 16  1  0
 21 19  1  0
 22 21  2  0
 23 21  1  0
M  END
$$$$
