FSA.pdb
     RDKit          3D

 23 23  0  0  1  0  0  0  0  0999 V2000
    5.8490  -16.4921   25.2855 N   0  0  0  0  0  0  0  0  0  0  0  0
    6.7770  -16.3259   24.1897 C   0  0  1  0  0  0  0  0  0  0  0  0
    6.6551  -14.9146   23.6430 C   0  0  0  0  0  0  0  0  0  0  0  0
    6.8083  -13.9726   24.7736 C   0  0  0  0  0  0  0  0  0  0  0  0
    8.0229  -13.3755   25.0353 C   0  0  0  0  0  0  0  0  0  0  0  0
    8.1462  -12.4897   26.1063 C   0  0  0  0  0  0  0  0  0  0  0  0
    7.0673  -12.2118   26.8969 C   0  0  0  0  0  0  0  0  0  0  0  0
    5.8561  -12.7998   26.6453 C   0  0  0  0  0  0  0  0  0  0  0  0
    5.7492  -13.6729   25.5836 C   0  0  0  0  0  0  0  0  0  0  0  0
    8.1507  -16.6149   24.6241 C   0  0  0  0  0  0  0  0  0  0  0  0
    8.3588  -16.9325   25.8231 O   0  0  0  0  0  0  0  0  0  0  0  0
   11.7610  -15.6582   22.5974 O   0  0  0  0  0  0  0  0  0  0  0  0
   11.5806  -16.9377   23.0868 C   0  0  0  0  0  0  0  0  0  0  0  0
   10.5405  -16.9766   24.1913 C   0  0  2  0  0  0  0  0  0  0  0  0
    9.2520  -16.5533   23.7594 N   0  0  0  0  0  0  0  0  0  0  0  0
   11.0253  -16.1911   25.3769 C   0  0  0  0  0  0  0  0  0  0  0  0
   11.4595  -15.0181   25.2437 O   0  0  0  0  0  0  0  0  0  0  0  0
   10.3232  -14.8386   28.0906 C   0  0  0  0  0  0  0  0  0  0  0  0
   11.2841  -15.9707   27.8739 C   0  0  2  0  0  0  0  0  0  0  0  0
   11.0165  -16.7305   26.6924 N   0  0  0  0  0  0  0  0  0  0  0  0
   11.3492  -16.8127   29.0942 C   0  0  0  0  0  0  0  0  0  0  0  0
   11.6042  -16.2429   30.1817 O   0  0  0  0  0  0  0  0  0  0  0  0
   11.1481  -18.1796   29.1120 O   0  0  0  0  0  0  0  0  0  0  0  0
  2  1  1  1
  2 10  1  0
  3  2  1  0
  4  5  2  0
  4  3  1  0
  6  5  1  0
  7  6  2  0
  8  7  1  0
  8  9  2  0
  9  4  1  0
 10 11  2  0
 10 15  1  0
 13 12  1  0
 14 13  1  6
 15 14  1  0
 16 14  1  0
 16 17  2  0
 19 18  1  1
 19 20  1  0
 20 16  1  0
 21 19  1  0
 22 21  2  0
 23 21  1  0
M  END
$$$$
