FSA.pdb
     RDKit          3D

 23 23  0  0  1  0  0  0  0  0999 V2000
    6.1421  -16.7726   25.2914 N   0  0  0  0  0  0  0  0  0  0  0  0
    7.2384  -15.9157   24.8996 C   0  0  1  0  0  0  0  0  0  0  0  0
    7.8447  -15.2836   26.1399 C   0  0  0  0  0  0  0  0  0  0  0  0
    7.3150  -13.9070   26.2559 C   0  0  0  0  0  0  0  0  0  0  0  0
    7.9748  -12.8454   25.6745 C   0  0  0  0  0  0  0  0  0  0  0  0
    7.4583  -11.5549   25.7954 C   0  0  0  0  0  0  0  0  0  0  0  0
    6.3006  -11.3393   26.4880 C   0  0  0  0  0  0  0  0  0  0  0  0
    5.6374  -12.3873   27.0693 C   0  0  0  0  0  0  0  0  0  0  0  0
    6.1596  -13.6569   26.9416 C   0  0  0  0  0  0  0  0  0  0  0  0
    8.2426  -16.6721   24.1389 C   0  0  0  0  0  0  0  0  0  0  0  0
    8.5568  -17.8281   24.5219 O   0  0  0  0  0  0  0  0  0  0  0  0
   10.7182  -15.1608   20.9077 O   0  0  0  0  0  0  0  0  0  0  0  0
   10.1622  -16.4256   20.9232 C   0  0  0  0  0  0  0  0  0  0  0  0
    9.8951  -16.9059   22.3378 C   0  0  2  0  0  0  0  0  0  0  0  0
    8.8742  -16.1637   22.9956 N   0  0  0  0  0  0  0  0  0  0  0  0
   11.1768  -16.9215   23.1221 C   0  0  0  0  0  0  0  0  0  0  0  0
   11.5367  -15.9220   23.7956 O   0  0  0  0  0  0  0  0  0  0  0  0
   13.9163  -19.4626   23.8426 C   0  0  0  0  0  0  0  0  0  0  0  0
   13.2981  -18.0956   23.8093 C   0  0  2  0  0  0  0  0  0  0  0  0
   12.0350  -18.0550   23.1401 N   0  0  0  0  0  0  0  0  0  0  0  0
   14.2705  -17.1195   23.2579 C   0  0  0  0  0  0  0  0  0  0  0  0
   15.2867  -16.8590   23.9447 O   0  0  0  0  0  0  0  0  0  0  0  0
   14.1310  -16.4801   22.0411 O   0  0  0  0  0  0  0  0  0  0  0  0
  2  1  1  1
  2 10  1  0
  3  2  1  0
  4  5  2  0
  4  3  1  0
  6  5  1  0
  7  6  2  0
  8  7  1  0
  8  9  2  0
  9  4  1  0
 10 11  2  0
 10 15  1  0
 13 12  1  0
 14 13  1  6
 15 14  1  0
 16 14  1  0
 16 17  2  0
 19 18  1  6
 19 20  1  0
 20 16  1  0
 21 19  1  0
 22 21  2  0
 23 21  1  0
M  END
$$$$
