FSA.pdb
     RDKit          3D

 23 23  0  0  1  0  0  0  0  0999 V2000
   10.7346  -14.7631   17.3575 N   0  0  0  0  0  0  0  0  0  0  0  0
   11.5239  -14.7980   18.5681 C   0  0  1  0  0  0  0  0  0  0  0  0
   11.2836  -13.5228   19.3566 C   0  0  0  0  0  0  0  0  0  0  0  0
    9.8692  -13.5146   19.7908 C   0  0  0  0  0  0  0  0  0  0  0  0
    8.8860  -12.9839   18.9834 C   0  0  0  0  0  0  0  0  0  0  0  0
    7.5579  -12.9861   19.4114 C   0  0  0  0  0  0  0  0  0  0  0  0
    7.2282  -13.5125   20.6282 C   0  0  0  0  0  0  0  0  0  0  0  0
    8.1977  -14.0422   21.4379 C   0  0  0  0  0  0  0  0  0  0  0  0
    9.5056  -14.0331   21.0018 C   0  0  0  0  0  0  0  0  0  0  0  0
   11.2000  -15.9893   19.3651 C   0  0  0  0  0  0  0  0  0  0  0  0
   10.3990  -16.8386   18.8973 O   0  0  0  0  0  0  0  0  0  0  0  0
   13.6814  -18.4066   20.4054 O   0  0  0  0  0  0  0  0  0  0  0  0
   12.3165  -18.6095   20.4745 C   0  0  0  0  0  0  0  0  0  0  0  0
   11.6217  -17.5055   21.2500 C   0  0  2  0  0  0  0  0  0  0  0  0
   11.7452  -16.2282   20.6340 N   0  0  0  0  0  0  0  0  0  0  0  0
   12.1080  -17.4964   22.6717 C   0  0  0  0  0  0  0  0  0  0  0  0
   13.2232  -16.9981   22.9721 O   0  0  0  0  0  0  0  0  0  0  0  0
   10.6530  -18.3698   26.0663 C   0  0  0  0  0  0  0  0  0  0  0  0
   11.7626  -18.0761   25.0997 C   0  0  2  0  0  0  0  0  0  0  0  0
   11.3389  -18.0449   23.7343 N   0  0  0  0  0  0  0  0  0  0  0  0
   12.8883  -19.0156   25.3291 C   0  0  0  0  0  0  0  0  0  0  0  0
   13.5146  -18.9204   26.4112 O   0  0  0  0  0  0  0  0  0  0  0  0
   13.2913  -19.9860   24.4320 O   0  0  0  0  0  0  0  0  0  0  0  0
  2  1  1  6
  2 10  1  0
  3  2  1  0
  4  5  2  0
  4  3  1  0
  6  5  1  0
  7  6  2  0
  8  7  1  0
  8  9  2  0
  9  4  1  0
 10 11  2  0
 10 15  1  0
 13 12  1  0
 14 13  1  6
 15 14  1  0
 16 14  1  0
 16 17  2  0
 19 18  1  1
 19 20  1  0
 20 16  1  0
 21 19  1  0
 22 21  2  0
 23 21  1  0
M  END
$$$$
