YMC.pdb
     RDKit          3D

 27 27  0  0  1  0  0  0  0  0999 V2000
   10.8495  -14.1256   30.9245 O   0  0  0  0  0  0  0  0  0  0  0  0
   10.7521  -14.7527   29.7101 C   0  0  0  0  0  0  0  0  0  0  0  0
   11.1061  -16.0923   29.6172 C   0  0  0  0  0  0  0  0  0  0  0  0
   10.9902  -16.6882   28.3601 C   0  0  0  0  0  0  0  0  0  0  0  0
   10.5468  -15.9856   27.2619 C   0  0  0  0  0  0  0  0  0  0  0  0
   10.4436  -16.6769   25.9503 C   0  0  0  0  0  0  0  0  0  0  0  0
    9.0823  -17.2999   25.7559 C   0  0  2  0  0  0  0  0  0  0  0  0
    9.1800  -18.6996   26.1315 N   0  0  0  0  0  0  0  0  0  0  0  0
    8.7230  -17.1669   24.3133 C   0  0  0  0  0  0  0  0  0  0  0  0
    8.8782  -18.0916   23.4744 O   0  0  0  0  0  0  0  0  0  0  0  0
   10.1982  -14.6513   27.3718 C   0  0  0  0  0  0  0  0  0  0  0  0
   10.3059  -14.0461   28.6046 C   0  0  0  0  0  0  0  0  0  0  0  0
    7.6024  -12.4963   18.4425 C   0  0  0  0  0  0  0  0  0  0  0  0
    8.1792  -13.0975   20.0469 S   0  0  0  0  0  0  0  0  0  0  0  0
    6.9161  -14.0591   20.9025 C   0  0  0  0  0  0  0  0  0  0  0  0
    7.2534  -14.2956   22.3438 C   0  0  0  0  0  0  0  0  0  0  0  0
    7.9287  -15.6390   22.4694 C   0  0  2  0  0  0  0  0  0  0  0  0
    8.1763  -15.9247   23.8724 N   0  0  0  0  0  0  0  0  0  0  0  0
    9.1904  -15.7048   21.6974 C   0  0  0  0  0  0  0  0  0  0  0  0
   10.1328  -14.9489   22.0254 O   0  0  0  0  0  0  0  0  0  0  0  0
    9.3532  -16.5921   20.6104 N   0  0  0  0  0  0  0  0  0  0  0  0
   10.5453  -16.5385   19.7961 C   0  0  1  0  0  0  0  0  0  0  0  0
   11.4487  -17.6734   20.2623 C   0  0  0  0  0  0  0  0  0  0  0  0
   10.4931  -19.1675   20.5351 S   0  0  0  0  0  0  0  0  0  0  0  0
   10.2129  -16.6697   18.3457 C   0  0  0  0  0  0  0  0  0  0  0  0
    9.0532  -16.8449   17.9325 O   0  0  0  0  0  0  0  0  0  0  0  0
   11.2368  -16.5932   17.4270 O   0  0  0  0  0  0  0  0  0  0  0  0
  2  3  2  0
  2  1  1  0
  4  3  1  0
  5  4  2  0
  6  7  1  0
  6  5  1  0
  7  9  1  0
  7  8  1  6
  9 10  2  0
  9 18  1  0
 11  5  1  0
 11 12  2  0
 12  2  1  0
 14 13  1  0
 15 14  1  0
 16 15  1  0
 17 16  1  1
 17 19  1  0
 18 17  1  0
 19 20  2  0
 21 19  1  0
 21 22  1  0
 22 23  1  1
 23 24  1  0
 25 22  1  0
 25 27  1  0
 26 25  2  0
M  END
$$$$
