YMC.pdb
     RDKit          3D

 27 27  0  0  1  0  0  0  0  0999 V2000
    8.4869  -15.0979   14.5857 O   0  0  0  0  0  0  0  0  0  0  0  0
    8.3728  -14.7443   15.9046 C   0  0  0  0  0  0  0  0  0  0  0  0
    7.4373  -13.7824   16.2622 C   0  0  0  0  0  0  0  0  0  0  0  0
    7.3575  -13.4550   17.6169 C   0  0  0  0  0  0  0  0  0  0  0  0
    8.1655  -14.0544   18.5573 C   0  0  0  0  0  0  0  0  0  0  0  0
    8.0315  -13.6640   19.9851 C   0  0  0  0  0  0  0  0  0  0  0  0
    8.4002  -14.7997   20.9088 C   0  0  2  0  0  0  0  0  0  0  0  0
    7.3888  -15.8322   20.7640 N   0  0  0  0  0  0  0  0  0  0  0  0
    8.4111  -14.2670   22.3030 C   0  0  0  0  0  0  0  0  0  0  0  0
    7.9019  -13.1624   22.6248 O   0  0  0  0  0  0  0  0  0  0  0  0
    9.0926  -15.0110   18.1840 C   0  0  0  0  0  0  0  0  0  0  0  0
    9.1857  -15.3471   16.8513 C   0  0  0  0  0  0  0  0  0  0  0  0
    8.0036  -12.1928   27.7391 C   0  0  0  0  0  0  0  0  0  0  0  0
    6.7756  -12.8702   26.5983 S   0  0  0  0  0  0  0  0  0  0  0  0
    6.9622  -14.6508   26.3832 C   0  0  0  0  0  0  0  0  0  0  0  0
    7.2660  -15.0287   24.9648 C   0  0  0  0  0  0  0  0  0  0  0  0
    8.7481  -14.8737   24.7287 C   0  0  2  0  0  0  0  0  0  0  0  0
    9.0328  -15.0572   23.3157 N   0  0  0  0  0  0  0  0  0  0  0  0
    9.5459  -15.8176   25.5441 C   0  0  0  0  0  0  0  0  0  0  0  0
    9.3357  -17.0450   25.4155 O   0  0  0  0  0  0  0  0  0  0  0  0
   10.5286  -15.3692   26.4543 N   0  0  0  0  0  0  0  0  0  0  0  0
   11.3219  -16.3194   27.1993 C   0  0  1  0  0  0  0  0  0  0  0  0
   12.1127  -15.5218   28.2287 C   0  0  0  0  0  0  0  0  0  0  0  0
   11.0354  -14.3911   29.1124 S   0  0  0  0  0  0  0  0  0  0  0  0
   10.4571  -17.3458   27.8550 C   0  0  0  0  0  0  0  0  0  0  0  0
    9.2217  -17.2324   27.9402 O   0  0  0  0  0  0  0  0  0  0  0  0
   11.0559  -18.4664   28.3881 O   0  0  0  0  0  0  0  0  0  0  0  0
  2  3  2  0
  2  1  1  0
  4  3  1  0
  5  4  2  0
  6  7  1  0
  6  5  1  0
  7  9  1  0
  7  8  1  1
  9 10  2  0
  9 18  1  0
 11  5  1  0
 11 12  2  0
 12  2  1  0
 14 13  1  0
 15 14  1  0
 16 15  1  0
 17 16  1  6
 17 19  1  0
 18 17  1  0
 19 20  2  0
 21 19  1  0
 21 22  1  0
 22 23  1  1
 23 24  1  0
 25 22  1  0
 25 27  1  0
 26 25  2  0
M  END
$$$$
