YMC.pdb
     RDKit          3D

 27 27  0  0  1  0  0  0  0  0999 V2000
    7.7389  -14.1682   14.6147 O   0  0  0  0  0  0  0  0  0  0  0  0
    8.1483  -14.0912   15.9201 C   0  0  0  0  0  0  0  0  0  0  0  0
    9.0522  -15.0320   16.3957 C   0  0  0  0  0  0  0  0  0  0  0  0
    9.4400  -14.9131   17.7315 C   0  0  0  0  0  0  0  0  0  0  0  0
    8.9523  -13.9128   18.5426 C   0  0  0  0  0  0  0  0  0  0  0  0
    9.4049  -13.8384   19.9563 C   0  0  0  0  0  0  0  0  0  0  0  0
    9.0961  -15.1114   20.7065 C   0  0  2  0  0  0  0  0  0  0  0  0
    7.6941  -15.4230   20.4884 N   0  0  0  0  0  0  0  0  0  0  0  0
    9.3596  -14.8617   22.1542 C   0  0  0  0  0  0  0  0  0  0  0  0
   10.4576  -14.4318   22.5927 O   0  0  0  0  0  0  0  0  0  0  0  0
    8.0521  -12.9835   18.0528 C   0  0  0  0  0  0  0  0  0  0  0  0
    7.6578  -13.0848   16.7368 C   0  0  0  0  0  0  0  0  0  0  0  0
    6.7867  -11.7928   28.6313 C   0  0  0  0  0  0  0  0  0  0  0  0
    6.3879  -12.3619   26.9623 S   0  0  0  0  0  0  0  0  0  0  0  0
    7.4935  -13.6767   26.4141 C   0  0  0  0  0  0  0  0  0  0  0  0
    7.2662  -14.0579   24.9823 C   0  0  0  0  0  0  0  0  0  0  0  0
    8.4429  -14.8726   24.5048 C   0  0  2  0  0  0  0  0  0  0  0  0
    8.3070  -15.1269   23.0807 N   0  0  0  0  0  0  0  0  0  0  0  0
    8.5789  -16.1464   25.2472 C   0  0  0  0  0  0  0  0  0  0  0  0
    7.6102  -16.9393   25.2579 O   0  0  0  0  0  0  0  0  0  0  0  0
    9.7648  -16.4839   25.9365 N   0  0  0  0  0  0  0  0  0  0  0  0
    9.8687  -17.7424   26.6384 C   0  0  1  0  0  0  0  0  0  0  0  0
   11.1976  -18.3659   26.2305 C   0  0  0  0  0  0  0  0  0  0  0  0
   11.4630  -18.1846   24.4651 S   0  0  0  0  0  0  0  0  0  0  0  0
    9.7937  -17.5420   28.1168 C   0  0  0  0  0  0  0  0  0  0  0  0
    9.6291  -16.4254   28.6388 O   0  0  0  0  0  0  0  0  0  0  0  0
    9.9123  -18.6432   28.9363 O   0  0  0  0  0  0  0  0  0  0  0  0
  2  3  2  0
  2  1  1  0
  4  3  1  0
  5  4  2  0
  6  7  1  0
  6  5  1  0
  7  9  1  0
  7  8  1  1
  9 10  2  0
  9 18  1  0
 11  5  1  0
 11 12  2  0
 12  2  1  0
 14 13  1  0
 15 14  1  0
 16 15  1  0
 17 16  1  1
 17 19  1  0
 18 17  1  0
 19 20  2  0
 21 19  1  0
 21 22  1  0
 22 23  1  1
 23 24  1  0
 25 22  1  0
 25 27  1  0
 26 25  2  0
M  END
$$$$
