YMC.pdb
     RDKit          3D

 27 27  0  0  1  0  0  0  0  0999 V2000
    8.7313  -22.0941   17.7449 O   0  0  0  0  0  0  0  0  0  0  0  0
    9.0417  -21.1988   18.7347 C   0  0  0  0  0  0  0  0  0  0  0  0
   10.3206  -20.6591   18.7733 C   0  0  0  0  0  0  0  0  0  0  0  0
   10.5902  -19.7517   19.7993 C   0  0  0  0  0  0  0  0  0  0  0  0
    9.6369  -19.4053   20.7309 C   0  0  0  0  0  0  0  0  0  0  0  0
    9.9848  -18.4319   21.7988 C   0  0  0  0  0  0  0  0  0  0  0  0
    9.5583  -17.0305   21.4338 C   0  0  2  0  0  0  0  0  0  0  0  0
   10.3869  -16.5921   20.3242 N   0  0  0  0  0  0  0  0  0  0  0  0
    9.7777  -16.1626   22.6281 C   0  0  0  0  0  0  0  0  0  0  0  0
   10.9183  -15.8171   23.0312 O   0  0  0  0  0  0  0  0  0  0  0  0
    8.3674  -19.9525   20.6781 C   0  0  0  0  0  0  0  0  0  0  0  0
    8.0829  -20.8499   19.6724 C   0  0  0  0  0  0  0  0  0  0  0  0
    6.3147  -11.1539   27.6611 C   0  0  0  0  0  0  0  0  0  0  0  0
    6.1042  -12.2598   26.2465 S   0  0  0  0  0  0  0  0  0  0  0  0
    7.5576  -13.2916   25.9729 C   0  0  0  0  0  0  0  0  0  0  0  0
    7.4326  -14.1454   24.7472 C   0  0  0  0  0  0  0  0  0  0  0  0
    8.7336  -14.8790   24.5328 C   0  0  2  0  0  0  0  0  0  0  0  0
    8.6299  -15.7063   23.3428 N   0  0  0  0  0  0  0  0  0  0  0  0
    9.1107  -15.7023   25.7042 C   0  0  0  0  0  0  0  0  0  0  0  0
    8.4591  -16.7455   25.9371 O   0  0  0  0  0  0  0  0  0  0  0  0
   10.1781  -15.3411   26.5559 N   0  0  0  0  0  0  0  0  0  0  0  0
   10.5453  -16.1890   27.6665 C   0  0  1  0  0  0  0  0  0  0  0  0
   12.0458  -16.4302   27.5592 C   0  0  0  0  0  0  0  0  0  0  0  0
   12.3957  -17.6820   26.3222 S   0  0  0  0  0  0  0  0  0  0  0  0
   10.1893  -15.5527   28.9703 C   0  0  0  0  0  0  0  0  0  0  0  0
    9.6174  -14.4514   29.0496 O   0  0  0  0  0  0  0  0  0  0  0  0
   10.5092  -16.2162   30.1346 O   0  0  0  0  0  0  0  0  0  0  0  0
  2  3  2  0
  2  1  1  0
  4  3  1  0
  5  4  2  0
  6  7  1  0
  6  5  1  0
  7  9  1  0
  7  8  1  6
  9 10  2  0
  9 18  1  0
 11  5  1  0
 11 12  2  0
 12  2  1  0
 14 13  1  0
 15 14  1  0
 16 15  1  0
 17 16  1  1
 17 19  1  0
 18 17  1  0
 19 20  2  0
 21 19  1  0
 21 22  1  0
 22 23  1  1
 23 24  1  0
 25 22  1  0
 25 27  1  0
 26 25  2  0
M  END
$$$$
