YMC.pdb
     RDKit          3D

 27 27  0  0  1  0  0  0  0  0999 V2000
    7.4721  -25.3081   19.0276 O   0  0  0  0  0  0  0  0  0  0  0  0
    8.1869  -24.1395   19.0555 C   0  0  0  0  0  0  0  0  0  0  0  0
    7.8430  -23.1654   19.9836 C   0  0  0  0  0  0  0  0  0  0  0  0
    8.5995  -21.9921   19.9742 C   0  0  0  0  0  0  0  0  0  0  0  0
    9.6378  -21.8050   19.0891 C   0  0  0  0  0  0  0  0  0  0  0  0
   10.4070  -20.5340   19.1300 C   0  0  0  0  0  0  0  0  0  0  0  0
    9.4963  -19.3371   19.2603 C   0  0  2  0  0  0  0  0  0  0  0  0
    8.6194  -19.3217   18.1024 N   0  0  0  0  0  0  0  0  0  0  0  0
   10.3523  -18.1147   19.2872 C   0  0  0  0  0  0  0  0  0  0  0  0
   11.4180  -18.0028   18.6279 O   0  0  0  0  0  0  0  0  0  0  0  0
    9.9672  -22.7857   18.1707 C   0  0  0  0  0  0  0  0  0  0  0  0
    9.2318  -23.9506   18.1650 C   0  0  0  0  0  0  0  0  0  0  0  0
    7.0933  -12.6390   20.5661 C   0  0  0  0  0  0  0  0  0  0  0  0
    7.1062  -13.9209   19.2914 S   0  0  0  0  0  0  0  0  0  0  0  0
    8.3352  -15.1968   19.6280 C   0  0  0  0  0  0  0  0  0  0  0  0
    9.7007  -14.6283   19.8712 C   0  0  0  0  0  0  0  0  0  0  0  0
   10.6556  -15.7629   20.1491 C   0  0  2  0  0  0  0  0  0  0  0  0
    9.9331  -17.0228   20.1048 N   0  0  0  0  0  0  0  0  0  0  0  0
   11.3451  -15.6074   21.4501 C   0  0  0  0  0  0  0  0  0  0  0  0
   12.1036  -14.6246   21.6117 O   0  0  0  0  0  0  0  0  0  0  0  0
   11.1683  -16.5331   22.5022 N   0  0  0  0  0  0  0  0  0  0  0  0
   11.9820  -16.4496   23.6930 C   0  0  1  0  0  0  0  0  0  0  0  0
   11.0390  -16.1470   24.8507 C   0  0  0  0  0  0  0  0  0  0  0  0
    9.3680  -16.6673   24.4544 S   0  0  0  0  0  0  0  0  0  0  0  0
   12.7330  -17.7205   23.9221 C   0  0  0  0  0  0  0  0  0  0  0  0
   12.5367  -18.7501   23.2530 O   0  0  0  0  0  0  0  0  0  0  0  0
   13.6841  -17.7515   24.9185 O   0  0  0  0  0  0  0  0  0  0  0  0
  2  3  2  0
  2  1  1  0
  4  3  1  0
  5  4  2  0
  6  7  1  0
  6  5  1  0
  7  9  1  0
  7  8  1  6
  9 10  2  0
  9 18  1  0
 11  5  1  0
 11 12  2  0
 12  2  1  0
 14 13  1  0
 15 14  1  0
 16 15  1  0
 17 16  1  1
 17 19  1  0
 18 17  1  0
 19 20  2  0
 21 19  1  0
 21 22  1  0
 22 23  1  1
 23 24  1  0
 25 22  1  0
 25 27  1  0
 26 25  2  0
M  END
$$$$
