YMC.pdb
     RDKit          3D

 27 27  0  0  1  0  0  0  0  0999 V2000
    6.5135  -22.8453   28.8782 O   0  0  0  0  0  0  0  0  0  0  0  0
    6.9682  -22.1432   27.7929 C   0  0  0  0  0  0  0  0  0  0  0  0
    6.1231  -21.9698   26.7048 C   0  0  0  0  0  0  0  0  0  0  0  0
    6.6301  -21.2479   25.6228 C   0  0  0  0  0  0  0  0  0  0  0  0
    7.9064  -20.7308   25.6294 C   0  0  0  0  0  0  0  0  0  0  0  0
    8.3880  -19.9696   24.4472 C   0  0  0  0  0  0  0  0  0  0  0  0
    7.2448  -19.3412   23.6874 C   0  0  2  0  0  0  0  0  0  0  0  0
    7.2065  -19.9469   22.3676 N   0  0  0  0  0  0  0  0  0  0  0  0
    7.5164  -17.8771   23.5857 C   0  0  0  0  0  0  0  0  0  0  0  0
    8.3176  -17.3790   22.7534 O   0  0  0  0  0  0  0  0  0  0  0  0
    8.7357  -20.9129   26.7217 C   0  0  0  0  0  0  0  0  0  0  0  0
    8.2525  -21.6226   27.7990 C   0  0  0  0  0  0  0  0  0  0  0  0
    6.7203  -10.8795   26.8484 C   0  0  0  0  0  0  0  0  0  0  0  0
    6.1348  -12.5886   26.7819 S   0  0  0  0  0  0  0  0  0  0  0  0
    6.5023  -13.3680   25.1978 C   0  0  0  0  0  0  0  0  0  0  0  0
    6.0841  -14.8068   25.1555 C   0  0  0  0  0  0  0  0  0  0  0  0
    7.2661  -15.6429   24.7309 C   0  0  2  0  0  0  0  0  0  0  0  0
    6.8279  -17.0058   24.4820 N   0  0  0  0  0  0  0  0  0  0  0  0
    8.3536  -15.6245   25.7355 C   0  0  0  0  0  0  0  0  0  0  0  0
    8.2771  -16.4008   26.7146 O   0  0  0  0  0  0  0  0  0  0  0  0
    9.4640  -14.7597   25.6155 N   0  0  0  0  0  0  0  0  0  0  0  0
   10.4800  -14.7287   26.6420 C   0  0  1  0  0  0  0  0  0  0  0  0
    9.8178  -14.1834   27.9011 C   0  0  0  0  0  0  0  0  0  0  0  0
   10.9932  -14.1239   29.2556 S   0  0  0  0  0  0  0  0  0  0  0  0
   11.0518  -16.0891   26.8746 C   0  0  0  0  0  0  0  0  0  0  0  0
   10.3540  -17.1179   26.9059 O   0  0  0  0  0  0  0  0  0  0  0  0
   12.4116  -16.2073   27.0627 O   0  0  0  0  0  0  0  0  0  0  0  0
  2  3  2  0
  2  1  1  0
  4  3  1  0
  5  4  2  0
  6  7  1  0
  6  5  1  0
  7  9  1  0
  7  8  1  6
  9 10  2  0
  9 18  1  0
 11  5  1  0
 11 12  2  0
 12  2  1  0
 14 13  1  0
 15 14  1  0
 16 15  1  0
 17 16  1  1
 17 19  1  0
 18 17  1  0
 19 20  2  0
 21 19  1  0
 21 22  1  0
 22 23  1  1
 23 24  1  0
 25 22  1  0
 25 27  1  0
 26 25  2  0
M  END
$$$$
