YMC.pdb
     RDKit          3D

 27 27  0  0  1  0  0  0  0  0999 V2000
    8.6976  -22.7961   30.8313 O   0  0  0  0  0  0  0  0  0  0  0  0
    8.6710  -21.9431   29.7592 C   0  0  0  0  0  0  0  0  0  0  0  0
    7.4796  -21.7747   29.0660 C   0  0  0  0  0  0  0  0  0  0  0  0
    7.5012  -20.8959   27.9815 C   0  0  0  0  0  0  0  0  0  0  0  0
    8.6465  -20.2260   27.6128 C   0  0  0  0  0  0  0  0  0  0  0  0
    8.6051  -19.3022   26.4494 C   0  0  0  0  0  0  0  0  0  0  0  0
    7.2275  -19.2438   25.8348 C   0  0  2  0  0  0  0  0  0  0  0  0
    7.0526  -20.4401   25.0296 N   0  0  0  0  0  0  0  0  0  0  0  0
    7.1618  -18.0216   24.9806 C   0  0  0  0  0  0  0  0  0  0  0  0
    7.2260  -18.0520   23.7245 O   0  0  0  0  0  0  0  0  0  0  0  0
    9.8254  -20.4054   28.3143 C   0  0  0  0  0  0  0  0  0  0  0  0
    9.8233  -21.2687   29.3878 C   0  0  0  0  0  0  0  0  0  0  0  0
    7.2141  -11.3360   27.4762 C   0  0  0  0  0  0  0  0  0  0  0  0
    6.3300  -11.6462   25.9300 S   0  0  0  0  0  0  0  0  0  0  0  0
    6.9877  -13.0765   25.0505 C   0  0  0  0  0  0  0  0  0  0  0  0
    6.7288  -14.3637   25.7738 C   0  0  0  0  0  0  0  0  0  0  0  0
    7.2809  -15.5015   24.9509 C   0  0  2  0  0  0  0  0  0  0  0  0
    7.0189  -16.7590   25.6302 N   0  0  0  0  0  0  0  0  0  0  0  0
    8.7295  -15.3485   24.6861 C   0  0  0  0  0  0  0  0  0  0  0  0
    9.4761  -14.9965   25.6274 O   0  0  0  0  0  0  0  0  0  0  0  0
    9.2827  -15.5882   23.4087 N   0  0  0  0  0  0  0  0  0  0  0  0
   10.7051  -15.4581   23.1925 C   0  0  1  0  0  0  0  0  0  0  0  0
   11.3437  -16.7570   23.6684 C   0  0  0  0  0  0  0  0  0  0  0  0
   11.3934  -16.8145   25.4612 S   0  0  0  0  0  0  0  0  0  0  0  0
   11.0095  -15.1987   21.7532 C   0  0  0  0  0  0  0  0  0  0  0  0
   10.1256  -15.0969   20.8845 O   0  0  0  0  0  0  0  0  0  0  0  0
   12.3273  -15.0668   21.3734 O   0  0  0  0  0  0  0  0  0  0  0  0
  2  3  2  0
  2  1  1  0
  4  3  1  0
  5  4  2  0
  6  7  1  0
  6  5  1  0
  7  9  1  0
  7  8  1  6
  9 10  2  0
  9 18  1  0
 11  5  1  0
 11 12  2  0
 12  2  1  0
 14 13  1  0
 15 14  1  0
 16 15  1  0
 17 16  1  1
 17 19  1  0
 18 17  1  0
 19 20  2  0
 21 19  1  0
 21 22  1  0
 22 23  1  6
 23 24  1  0
 25 22  1  0
 25 27  1  0
 26 25  2  0
M  END
$$$$
