YMC.pdb
     RDKit          3D

 27 27  0  0  1  0  0  0  0  0999 V2000
    8.6056  -14.2609   14.5191 O   0  0  0  0  0  0  0  0  0  0  0  0
    8.4553  -14.0291   15.8612 C   0  0  0  0  0  0  0  0  0  0  0  0
    9.5902  -13.8634   16.6441 C   0  0  0  0  0  0  0  0  0  0  0  0
    9.3872  -13.6296   18.0053 C   0  0  0  0  0  0  0  0  0  0  0  0
    8.1242  -13.5655   18.5504 C   0  0  0  0  0  0  0  0  0  0  0  0
    7.9736  -13.3119   20.0070 C   0  0  0  0  0  0  0  0  0  0  0  0
    8.8094  -14.2653   20.8265 C   0  0  2  0  0  0  0  0  0  0  0  0
    8.3344  -15.6114   20.5574 N   0  0  0  0  0  0  0  0  0  0  0  0
    8.6167  -13.9181   22.2652 C   0  0  0  0  0  0  0  0  0  0  0  0
    8.1260  -12.8264   22.6530 O   0  0  0  0  0  0  0  0  0  0  0  0
    7.0039  -13.7329   17.7562 C   0  0  0  0  0  0  0  0  0  0  0  0
    7.1845  -13.9646   16.4102 C   0  0  0  0  0  0  0  0  0  0  0  0
    7.3118  -11.3012   26.7490 C   0  0  0  0  0  0  0  0  0  0  0  0
    6.1522  -12.6859   26.6710 S   0  0  0  0  0  0  0  0  0  0  0  0
    6.9833  -14.2441   26.3062 C   0  0  0  0  0  0  0  0  0  0  0  0
    7.2595  -14.4183   24.8432 C   0  0  0  0  0  0  0  0  0  0  0  0
    8.7285  -14.7090   24.6585 C   0  0  2  0  0  0  0  0  0  0  0  0
    9.0119  -14.8789   23.2435 N   0  0  0  0  0  0  0  0  0  0  0  0
    9.1623  -15.9023   25.4201 C   0  0  0  0  0  0  0  0  0  0  0  0
    8.3459  -16.8371   25.5838 O   0  0  0  0  0  0  0  0  0  0  0  0
   10.4630  -16.0088   25.9604 N   0  0  0  0  0  0  0  0  0  0  0  0
   10.6554  -16.0946   27.3897 C   0  0  1  0  0  0  0  0  0  0  0  0
   10.0190  -14.8499   27.9954 C   0  0  0  0  0  0  0  0  0  0  0  0
   10.1340  -14.8914   29.7856 S   0  0  0  0  0  0  0  0  0  0  0  0
   10.0436  -17.3408   27.9413 C   0  0  0  0  0  0  0  0  0  0  0  0
    8.8493  -17.6401   27.7675 O   0  0  0  0  0  0  0  0  0  0  0  0
   10.8386  -18.1945   28.6745 O   0  0  0  0  0  0  0  0  0  0  0  0
  2  3  2  0
  2  1  1  0
  4  3  1  0
  5  4  2  0
  6  7  1  0
  6  5  1  0
  7  9  1  0
  7  8  1  1
  9 10  2  0
  9 18  1  0
 11  5  1  0
 11 12  2  0
 12  2  1  0
 14 13  1  0
 15 14  1  0
 16 15  1  0
 17 16  1  6
 17 19  1  0
 18 17  1  0
 19 20  2  0
 21 19  1  0
 21 22  1  0
 22 23  1  1
 23 24  1  0
 25 22  1  0
 25 27  1  0
 26 25  2  0
M  END
$$$$
