YMC.pdb
     RDKit          3D

 27 27  0  0  1  0  0  0  0  0999 V2000
    2.3821  -24.1989   24.1241 O   0  0  0  0  0  0  0  0  0  0  0  0
    3.3900  -23.3011   23.8878 C   0  0  0  0  0  0  0  0  0  0  0  0
    4.0237  -23.3146   22.6523 C   0  0  0  0  0  0  0  0  0  0  0  0
    5.0439  -22.3818   22.4579 C   0  0  0  0  0  0  0  0  0  0  0  0
    5.4082  -21.4891   23.4412 C   0  0  0  0  0  0  0  0  0  0  0  0
    6.5016  -20.5189   23.1728 C   0  0  0  0  0  0  0  0  0  0  0  0
    5.9646  -19.2035   22.6625 C   0  0  2  0  0  0  0  0  0  0  0  0
    5.9084  -19.2824   21.2131 N   0  0  0  0  0  0  0  0  0  0  0  0
    6.9069  -18.1294   23.0939 C   0  0  0  0  0  0  0  0  0  0  0  0
    7.9821  -17.8712   22.4937 O   0  0  0  0  0  0  0  0  0  0  0  0
    4.7665  -21.4892   24.6668 C   0  0  0  0  0  0  0  0  0  0  0  0
    3.7569  -22.4026   24.8770 C   0  0  0  0  0  0  0  0  0  0  0  0
    7.6032  -11.4231   26.9753 C   0  0  0  0  0  0  0  0  0  0  0  0
    6.5569  -12.7575   26.3483 S   0  0  0  0  0  0  0  0  0  0  0  0
    7.4634  -14.3079   26.1861 C   0  0  0  0  0  0  0  0  0  0  0  0
    6.5973  -15.4307   25.7000 C   0  0  0  0  0  0  0  0  0  0  0  0
    7.3904  -16.2684   24.7275 C   0  0  2  0  0  0  0  0  0  0  0  0
    6.5627  -17.3615   24.2464 N   0  0  0  0  0  0  0  0  0  0  0  0
    8.6391  -16.7903   25.3279 C   0  0  0  0  0  0  0  0  0  0  0  0
    8.5532  -17.5910   26.2863 O   0  0  0  0  0  0  0  0  0  0  0  0
    9.9120  -16.4091   24.8487 N   0  0  0  0  0  0  0  0  0  0  0  0
   11.0938  -17.1307   25.2609 C   0  0  1  0  0  0  0  0  0  0  0  0
   12.0918  -17.0337   24.1139 C   0  0  0  0  0  0  0  0  0  0  0  0
   12.4965  -15.3188   23.7745 S   0  0  0  0  0  0  0  0  0  0  0  0
   11.6587  -16.5630   26.5219 C   0  0  0  0  0  0  0  0  0  0  0  0
   11.2187  -15.5279   27.0522 O   0  0  0  0  0  0  0  0  0  0  0  0
   12.7130  -17.2158   27.1222 O   0  0  0  0  0  0  0  0  0  0  0  0
  2  3  2  0
  2  1  1  0
  4  3  1  0
  5  4  2  0
  6  7  1  0
  6  5  1  0
  7  9  1  0
  7  8  1  6
  9 10  2  0
  9 18  1  0
 11  5  1  0
 11 12  2  0
 12  2  1  0
 14 13  1  0
 15 14  1  0
 16 15  1  0
 17 16  1  1
 17 19  1  0
 18 17  1  0
 19 20  2  0
 21 19  1  0
 21 22  1  0
 22 23  1  6
 23 24  1  0
 25 22  1  0
 25 27  1  0
 26 25  2  0
M  END
$$$$
