YMC.pdb
     RDKit          3D

 27 27  0  0  1  0  0  0  0  0999 V2000
    8.5836  -19.2089   15.0463 O   0  0  0  0  0  0  0  0  0  0  0  0
    8.7508  -18.3991   16.1389 C   0  0  0  0  0  0  0  0  0  0  0  0
    8.9723  -17.0427   15.9404 C   0  0  0  0  0  0  0  0  0  0  0  0
    9.1368  -16.2579   17.0831 C   0  0  0  0  0  0  0  0  0  0  0  0
    9.0829  -16.7982   18.3487 C   0  0  0  0  0  0  0  0  0  0  0  0
    9.2641  -15.9097   19.5262 C   0  0  0  0  0  0  0  0  0  0  0  0
    9.2304  -16.6874   20.8197 C   0  0  2  0  0  0  0  0  0  0  0  0
    7.9057  -17.2691   20.9502 N   0  0  0  0  0  0  0  0  0  0  0  0
    9.4955  -15.7297   21.9334 C   0  0  0  0  0  0  0  0  0  0  0  0
   10.5454  -15.0417   22.0179 O   0  0  0  0  0  0  0  0  0  0  0  0
    8.8616  -18.1519   18.5288 C   0  0  0  0  0  0  0  0  0  0  0  0
    8.6968  -18.9423   17.4127 C   0  0  0  0  0  0  0  0  0  0  0  0
    6.2217  -11.2543   27.5003 C   0  0  0  0  0  0  0  0  0  0  0  0
    5.9631  -12.5253   26.2409 S   0  0  0  0  0  0  0  0  0  0  0  0
    7.5207  -13.1937   25.6252 C   0  0  0  0  0  0  0  0  0  0  0  0
    7.3220  -14.1865   24.5198 C   0  0  0  0  0  0  0  0  0  0  0  0
    8.6707  -14.7062   24.0869 C   0  0  2  0  0  0  0  0  0  0  0  0
    8.5024  -15.5943   22.9492 N   0  0  0  0  0  0  0  0  0  0  0  0
    9.3808  -15.4008   25.1849 C   0  0  0  0  0  0  0  0  0  0  0  0
    9.3442  -16.6515   25.2244 O   0  0  0  0  0  0  0  0  0  0  0  0
   10.0915  -14.6915   26.1784 N   0  0  0  0  0  0  0  0  0  0  0  0
   10.7520  -15.4001   27.2502 C   0  0  1  0  0  0  0  0  0  0  0  0
   10.8746  -14.4241   28.4137 C   0  0  0  0  0  0  0  0  0  0  0  0
   11.6111  -15.2307   29.8374 S   0  0  0  0  0  0  0  0  0  0  0  0
    9.9839  -16.6197   27.6429 C   0  0  0  0  0  0  0  0  0  0  0  0
    8.7453  -16.6305   27.7529 O   0  0  0  0  0  0  0  0  0  0  0  0
   10.6795  -17.7821   27.8938 O   0  0  0  0  0  0  0  0  0  0  0  0
  2  3  2  0
  2  1  1  0
  4  3  1  0
  5  4  2  0
  6  7  1  0
  6  5  1  0
  7  9  1  0
  7  8  1  1
  9 10  2  0
  9 18  1  0
 11  5  1  0
 11 12  2  0
 12  2  1  0
 14 13  1  0
 15 14  1  0
 16 15  1  0
 17 16  1  1
 17 19  1  0
 18 17  1  0
 19 20  2  0
 21 19  1  0
 21 22  1  0
 22 23  1  1
 23 24  1  0
 25 22  1  0
 25 27  1  0
 26 25  2  0
M  END
$$$$
