KAL.pdb
     RDKit          3D

 23 22  0  0  1  0  0  0  0  0999 V2000
   23.8680  -21.0279  -15.2052 N   0  0  0  0  0  0  0  0  0  0  0  0
   22.8929  -20.1223  -14.6249 C   0  0  1  0  0  0  0  0  0  0  0  0
   21.8291  -19.7757  -15.6362 C   0  0  0  0  0  0  0  0  0  0  0  0
   22.4754  -19.0117  -16.7550 C   0  0  0  0  0  0  0  0  0  0  0  0
   21.4987  -18.6630  -17.8559 C   0  0  0  0  0  0  0  0  0  0  0  0
   20.6273  -17.5174  -17.3749 C   0  0  0  0  0  0  0  0  0  0  0  0
   19.7087  -17.0798  -18.3991 N   0  0  0  0  0  0  0  0  0  0  0  0
   22.3229  -20.7816  -13.4206 C   0  0  0  0  0  0  0  0  0  0  0  0
   22.4060  -22.0329  -13.2426 O   0  0  0  0  0  0  0  0  0  0  0  0
   20.5938  -19.5861  -10.3103 C   0  0  0  0  0  0  0  0  0  0  0  0
   21.1122  -20.7000  -11.2136 C   0  0  2  0  0  0  0  0  0  0  0  0
   21.6512  -20.0546  -12.3958 N   0  0  0  0  0  0  0  0  0  0  0  0
   20.0328  -21.6465  -11.5352 C   0  0  0  0  0  0  0  0  0  0  0  0
   19.3382  -21.4388  -12.5606 O   0  0  0  0  0  0  0  0  0  0  0  0
   18.1966  -26.5834  -11.9463 C   0  0  0  0  0  0  0  0  0  0  0  0
   18.2541  -26.1389  -10.5239 C   0  0  1  0  0  0  0  0  0  0  0  0
   18.5773  -27.3091   -9.6049 C   0  0  0  0  0  0  0  0  0  0  0  0
   19.1997  -25.0196  -10.3053 C   0  0  0  0  0  0  0  0  0  0  0  0
   18.8231  -23.7588  -10.9905 C   0  0  2  0  0  0  0  0  0  0  0  0
   19.8125  -22.7541  -10.6846 N   0  0  0  0  0  0  0  0  0  0  0  0
   17.4605  -23.2642  -10.7675 C   0  0  0  0  0  0  0  0  0  0  0  0
   16.4545  -23.5845  -11.4904 O   0  0  0  0  0  0  0  0  0  0  0  0
   17.1486  -22.3879   -9.7240 O   0  0  0  0  0  0  0  0  0  0  0  0
  2  3  1  0
  2  1  1  6
  4  3  1  0
  5  6  1  0
  5  4  1  0
  7  6  1  0
  8  2  1  0
  8 12  1  0
  9  8  2  0
 11 12  1  0
 11 10  1  1
 13 11  1  0
 13 14  2  0
 16 18  1  0
 16 15  1  6
 17 16  1  0
 19 18  1  1
 19 20  1  0
 19 21  1  0
 20 13  1  0
 21 22  2  0
 21 23  1  0
M  END
$$$$
