KAL.pdb
     RDKit          3D

 23 22  0  0  1  0  0  0  0  0999 V2000
   19.4398  -13.7616  -17.3452 N   0  0  0  0  0  0  0  0  0  0  0  0
   20.4646  -12.8340  -17.7889 C   0  0  1  0  0  0  0  0  0  0  0  0
   20.0572  -12.1801  -19.0854 C   0  0  0  0  0  0  0  0  0  0  0  0
   19.6851  -13.2597  -20.0596 C   0  0  0  0  0  0  0  0  0  0  0  0
   19.8673  -12.8278  -21.4975 C   0  0  0  0  0  0  0  0  0  0  0  0
   19.4600  -13.9805  -22.3967 C   0  0  0  0  0  0  0  0  0  0  0  0
   19.6337  -13.6551  -23.7925 N   0  0  0  0  0  0  0  0  0  0  0  0
   20.6746  -11.8387  -16.7049 C   0  0  0  0  0  0  0  0  0  0  0  0
   19.7056  -11.2357  -16.1557 O   0  0  0  0  0  0  0  0  0  0  0  0
   23.6238  -10.5471  -14.7878 C   0  0  0  0  0  0  0  0  0  0  0  0
   22.1853  -10.4169  -15.2766 C   0  0  2  0  0  0  0  0  0  0  0  0
   21.9698  -11.5006  -16.2168 N   0  0  0  0  0  0  0  0  0  0  0  0
   21.9658   -9.0956  -15.8853 C   0  0  0  0  0  0  0  0  0  0  0  0
   21.9722   -9.0031  -17.1377 O   0  0  0  0  0  0  0  0  0  0  0  0
   20.6833   -4.9856  -18.0165 C   0  0  0  0  0  0  0  0  0  0  0  0
   19.7190   -5.5745  -17.0431 C   0  0  1  0  0  0  0  0  0  0  0  0
   18.3530   -5.7697  -17.6867 C   0  0  0  0  0  0  0  0  0  0  0  0
   20.2039   -6.8382  -16.4409 C   0  0  0  0  0  0  0  0  0  0  0  0
   21.4030   -6.6847  -15.5808 C   0  0  2  0  0  0  0  0  0  0  0  0
   21.7557   -7.9775  -15.0458 N   0  0  0  0  0  0  0  0  0  0  0  0
   21.3400   -5.6619  -14.5315 C   0  0  0  0  0  0  0  0  0  0  0  0
   20.9368   -5.8838  -13.3376 O   0  0  0  0  0  0  0  0  0  0  0  0
   21.7265   -4.3379  -14.7591 O   0  0  0  0  0  0  0  0  0  0  0  0
  2  3  1  0
  2  1  1  1
  4  3  1  0
  5  6  1  0
  5  4  1  0
  7  6  1  0
  8  2  1  0
  8 12  1  0
  9  8  2  0
 11 12  1  0
 11 10  1  6
 13 11  1  0
 13 14  2  0
 16 18  1  0
 16 15  1  6
 17 16  1  0
 19 18  1  1
 19 20  1  0
 19 21  1  0
 20 13  1  0
 21 22  2  0
 21 23  1  0
M  END
$$$$
