KAL.pdb
     RDKit          3D

 23 22  0  0  1  0  0  0  0  0999 V2000
   27.9306  -20.0337  -16.0557 N   0  0  0  0  0  0  0  0  0  0  0  0
   28.1061  -18.9841  -15.0683 C   0  0  1  0  0  0  0  0  0  0  0  0
   28.0117  -17.6272  -15.7197 C   0  0  0  0  0  0  0  0  0  0  0  0
   28.4689  -17.7567  -17.1435 C   0  0  0  0  0  0  0  0  0  0  0  0
   27.3156  -17.7629  -18.1220 C   0  0  0  0  0  0  0  0  0  0  0  0
   27.8835  -17.7122  -19.5284 C   0  0  0  0  0  0  0  0  0  0  0  0
   28.6897  -16.5326  -19.7358 N   0  0  0  0  0  0  0  0  0  0  0  0
   27.0699  -19.1716  -14.0189 C   0  0  0  0  0  0  0  0  0  0  0  0
   26.9289  -18.3493  -13.0660 O   0  0  0  0  0  0  0  0  0  0  0  0
   24.0622  -21.3225  -13.6460 C   0  0  0  0  0  0  0  0  0  0  0  0
   25.1297  -20.4303  -13.0217 C   0  0  2  0  0  0  0  0  0  0  0  0
   26.1747  -20.2800  -14.0167 N   0  0  0  0  0  0  0  0  0  0  0  0
   25.6286  -21.0225  -11.7707 C   0  0  0  0  0  0  0  0  0  0  0  0
   26.7422  -21.6027  -11.7836 O   0  0  0  0  0  0  0  0  0  0  0  0
   27.8019  -19.0445   -7.3156 C   0  0  0  0  0  0  0  0  0  0  0  0
   27.2720  -20.3403   -7.8296 C   0  0  1  0  0  0  0  0  0  0  0  0
   26.3820  -21.0099   -6.7914 C   0  0  0  0  0  0  0  0  0  0  0  0
   26.5625  -20.2030   -9.1229 C   0  0  0  0  0  0  0  0  0  0  0  0
   25.4094  -21.1217   -9.2880 C   0  0  2  0  0  0  0  0  0  0  0  0
   24.8430  -20.9203  -10.5997 N   0  0  0  0  0  0  0  0  0  0  0  0
   24.3815  -21.0905   -8.2423 C   0  0  0  0  0  0  0  0  0  0  0  0
   23.4055  -20.2634   -8.2211 O   0  0  0  0  0  0  0  0  0  0  0  0
   24.3876  -21.9830   -7.1664 O   0  0  0  0  0  0  0  0  0  0  0  0
  2  3  1  0
  2  1  1  6
  4  3  1  0
  5  6  1  0
  5  4  1  0
  7  6  1  0
  8  2  1  0
  8 12  1  0
  9  8  2  0
 11 12  1  0
 11 10  1  6
 13 11  1  0
 13 14  2  0
 16 18  1  0
 16 15  1  1
 17 16  1  0
 19 18  1  1
 19 20  1  0
 19 21  1  0
 20 13  1  0
 21 22  2  0
 21 23  1  0
M  END
$$$$
