KAL.pdb
     RDKit          3D

 23 22  0  0  1  0  0  0  0  0999 V2000
   12.9186  -22.3721   -3.3540 N   0  0  0  0  0  0  0  0  0  0  0  0
   13.5919  -23.2777   -2.4407 C   0  0  1  0  0  0  0  0  0  0  0  0
   15.0251  -23.4825   -2.8633 C   0  0  0  0  0  0  0  0  0  0  0  0
   15.0277  -24.1139   -4.2251 C   0  0  0  0  0  0  0  0  0  0  0  0
   15.3742  -25.5854   -4.1786 C   0  0  0  0  0  0  0  0  0  0  0  0
   15.4188  -26.1098   -5.6020 C   0  0  0  0  0  0  0  0  0  0  0  0
   15.8310  -27.4927   -5.6481 N   0  0  0  0  0  0  0  0  0  0  0  0
   13.4910  -22.7009   -1.0744 C   0  0  0  0  0  0  0  0  0  0  0  0
   13.4185  -21.4512   -0.8813 O   0  0  0  0  0  0  0  0  0  0  0  0
   13.0362  -24.0709    2.3752 C   0  0  0  0  0  0  0  0  0  0  0  0
   13.4343  -22.9406    1.4322 C   0  0  2  0  0  0  0  0  0  0  0  0
   13.4695  -23.5099    0.0983 N   0  0  0  0  0  0  0  0  0  0  0  0
   14.7298  -22.3690    1.8315 C   0  0  0  0  0  0  0  0  0  0  0  0
   15.7440  -22.6420    1.1430 O   0  0  0  0  0  0  0  0  0  0  0  0
   18.3731  -19.0714    1.3274 C   0  0  0  0  0  0  0  0  0  0  0  0
   17.2296  -18.8069    2.2476 C   0  0  1  0  0  0  0  0  0  0  0  0
   16.7308  -17.3768    2.0922 C   0  0  0  0  0  0  0  0  0  0  0  0
   16.1192  -19.7738    2.0833 C   0  0  0  0  0  0  0  0  0  0  0  0
   15.9348  -20.6937    3.2326 C   0  0  2  0  0  0  0  0  0  0  0  0
   14.7921  -21.5350    2.9714 N   0  0  0  0  0  0  0  0  0  0  0  0
   15.8674  -20.0850    4.5652 C   0  0  0  0  0  0  0  0  0  0  0  0
   14.7766  -19.8477    5.1905 O   0  0  0  0  0  0  0  0  0  0  0  0
   17.0146  -19.7114    5.2713 O   0  0  0  0  0  0  0  0  0  0  0  0
  2  3  1  0
  2  1  1  6
  4  3  1  0
  5  6  1  0
  5  4  1  0
  7  6  1  0
  8  2  1  0
  8 12  1  0
  9  8  2  0
 11 12  1  0
 11 10  1  1
 13 11  1  0
 13 14  2  0
 16 18  1  0
 16 15  1  6
 17 16  1  0
 19 18  1  6
 19 20  1  0
 19 21  1  0
 20 13  1  0
 21 22  2  0
 21 23  1  0
M  END
$$$$
