KAL.pdb
     RDKit          3D

 23 22  0  0  1  0  0  0  0  0999 V2000
   19.2147  -12.8239  -17.1566 N   0  0  0  0  0  0  0  0  0  0  0  0
   20.3959  -12.1000  -17.5903 C   0  0  1  0  0  0  0  0  0  0  0  0
   20.1062  -11.3279  -18.8530 C   0  0  0  0  0  0  0  0  0  0  0  0
   19.3751  -12.2338  -19.8005 C   0  0  0  0  0  0  0  0  0  0  0  0
   19.0767  -11.5656  -21.1240 C   0  0  0  0  0  0  0  0  0  0  0  0
   18.3518  -12.5629  -22.0089 C   0  0  0  0  0  0  0  0  0  0  0  0
   17.9407  -11.9672  -23.2581 N   0  0  0  0  0  0  0  0  0  0  0  0
   20.8157  -11.2093  -16.4766 C   0  0  0  0  0  0  0  0  0  0  0  0
   19.9956  -10.4429  -15.8898 O   0  0  0  0  0  0  0  0  0  0  0  0
   24.0209  -10.5691  -14.6343 C   0  0  0  0  0  0  0  0  0  0  0  0
   22.5971  -10.1839  -15.0211 C   0  0  2  0  0  0  0  0  0  0  0  0
   22.1576  -11.1599  -16.0003 N   0  0  0  0  0  0  0  0  0  0  0  0
   22.5597   -8.8094  -15.5446 C   0  0  0  0  0  0  0  0  0  0  0  0
   22.6669   -8.6361  -16.7838 O   0  0  0  0  0  0  0  0  0  0  0  0
   21.9221   -4.3811  -17.4740 C   0  0  0  0  0  0  0  0  0  0  0  0
   20.8902   -4.8969  -16.5288 C   0  0  1  0  0  0  0  0  0  0  0  0
   19.5011   -4.8116  -17.1464 C   0  0  0  0  0  0  0  0  0  0  0  0
   21.1741   -6.2720  -16.0564 C   0  0  0  0  0  0  0  0  0  0  0  0
   22.3039   -6.3685  -15.0996 C   0  0  2  0  0  0  0  0  0  0  0  0
   22.4052   -7.7329  -14.6413 N   0  0  0  0  0  0  0  0  0  0  0  0
   22.3096   -5.4187  -13.9821 C   0  0  0  0  0  0  0  0  0  0  0  0
   22.5038   -4.1606  -14.1117 O   0  0  0  0  0  0  0  0  0  0  0  0
   22.0962   -5.8230  -12.6611 O   0  0  0  0  0  0  0  0  0  0  0  0
  2  3  1  0
  2  1  1  1
  4  3  1  0
  5  6  1  0
  5  4  1  0
  7  6  1  0
  8  2  1  0
  8 12  1  0
  9  8  2  0
 11 12  1  0
 11 10  1  6
 13 11  1  0
 13 14  2  0
 16 18  1  0
 16 15  1  6
 17 16  1  0
 19 18  1  1
 19 20  1  0
 19 21  1  0
 20 13  1  0
 21 22  2  0
 21 23  1  0
M  END
$$$$
