KAL.pdb
     RDKit          3D

 23 22  0  0  1  0  0  0  0  0999 V2000
   25.2528  -22.5548  -17.3324 N   0  0  0  0  0  0  0  0  0  0  0  0
   25.5336  -23.6900  -16.4721 C   0  0  1  0  0  0  0  0  0  0  0  0
   24.2963  -24.5334  -16.2928 C   0  0  0  0  0  0  0  0  0  0  0  0
   23.2858  -23.7287  -15.5283 C   0  0  0  0  0  0  0  0  0  0  0  0
   22.0796  -24.5479  -15.1265 C   0  0  0  0  0  0  0  0  0  0  0  0
   21.0697  -23.6213  -14.4747 C   0  0  0  0  0  0  0  0  0  0  0  0
   19.9390  -24.3496  -13.9499 N   0  0  0  0  0  0  0  0  0  0  0  0
   26.6478  -24.4590  -17.0862 C   0  0  0  0  0  0  0  0  0  0  0  0
   26.5665  -24.9300  -18.2591 O   0  0  0  0  0  0  0  0  0  0  0  0
   30.2286  -25.0694  -16.4039 C   0  0  0  0  0  0  0  0  0  0  0  0
   28.8982  -25.5812  -16.9457 C   0  0  2  0  0  0  0  0  0  0  0  0
   27.8704  -24.7145  -16.4006 N   0  0  0  0  0  0  0  0  0  0  0  0
   28.6982  -26.9903  -16.5728 C   0  0  0  0  0  0  0  0  0  0  0  0
   27.9365  -27.2540  -15.6099 O   0  0  0  0  0  0  0  0  0  0  0  0
   27.0581  -31.5147  -16.0395 C   0  0  0  0  0  0  0  0  0  0  0  0
   27.0892  -30.9489  -17.4191 C   0  0  1  0  0  0  0  0  0  0  0  0
   25.7253  -31.0727  -18.0846 C   0  0  0  0  0  0  0  0  0  0  0  0
   27.5708  -29.5485  -17.4594 C   0  0  0  0  0  0  0  0  0  0  0  0
   29.0172  -29.3911  -17.1697 C   0  0  2  0  0  0  0  0  0  0  0  0
   29.3662  -27.9977  -17.3062 N   0  0  0  0  0  0  0  0  0  0  0  0
   29.9403  -30.2569  -17.9109 C   0  0  0  0  0  0  0  0  0  0  0  0
   30.6505  -31.1748  -17.3724 O   0  0  0  0  0  0  0  0  0  0  0  0
   30.1170  -30.1452  -19.2931 O   0  0  0  0  0  0  0  0  0  0  0  0
  2  3  1  0
  2  1  1  6
  4  3  1  0
  5  6  1  0
  5  4  1  0
  7  6  1  0
  8  2  1  0
  8 12  1  0
  9  8  2  0
 11 12  1  0
 11 10  1  1
 13 11  1  0
 13 14  2  0
 16 18  1  0
 16 15  1  1
 17 16  1  0
 19 18  1  6
 19 20  1  0
 19 21  1  0
 20 13  1  0
 21 22  2  0
 21 23  1  0
M  END
$$$$
