KAL.pdb
     RDKit          3D

 23 22  0  0  1  0  0  0  0  0999 V2000
   27.1428  -20.8535  -14.9145 N   0  0  0  0  0  0  0  0  0  0  0  0
   27.8742  -19.7676  -14.2874 C   0  0  1  0  0  0  0  0  0  0  0  0
   27.8689  -18.5479  -15.1744 C   0  0  0  0  0  0  0  0  0  0  0  0
   28.1520  -18.9886  -16.5811 C   0  0  0  0  0  0  0  0  0  0  0  0
   26.8882  -19.2203  -17.3789 C   0  0  0  0  0  0  0  0  0  0  0  0
   27.2789  -19.5190  -18.8147 C   0  0  0  0  0  0  0  0  0  0  0  0
   26.1206  -19.7434  -19.6468 N   0  0  0  0  0  0  0  0  0  0  0  0
   27.2441  -19.4996  -12.9680 C   0  0  0  0  0  0  0  0  0  0  0  0
   27.6113  -18.5324  -12.2372 O   0  0  0  0  0  0  0  0  0  0  0  0
   24.0510  -20.3995  -11.4010 C   0  0  0  0  0  0  0  0  0  0  0  0
   25.5035  -19.9760  -11.2110 C   0  0  2  0  0  0  0  0  0  0  0  0
   26.1939  -20.3070  -12.4433 N   0  0  0  0  0  0  0  0  0  0  0  0
   26.0883  -20.6519  -10.0424 C   0  0  0  0  0  0  0  0  0  0  0  0
   26.4358  -21.8533  -10.1557 O   0  0  0  0  0  0  0  0  0  0  0  0
   29.4644  -20.7616   -5.8794 C   0  0  0  0  0  0  0  0  0  0  0  0
   28.1757  -20.0472   -5.6491 C   0  0  1  0  0  0  0  0  0  0  0  0
   28.3546  -18.9225   -4.6386 C   0  0  0  0  0  0  0  0  0  0  0  0
   27.5636  -19.5406   -6.8995 C   0  0  0  0  0  0  0  0  0  0  0  0
   26.7742  -20.5506   -7.6464 C   0  0  2  0  0  0  0  0  0  0  0  0
   26.2400  -19.9317   -8.8353 N   0  0  0  0  0  0  0  0  0  0  0  0
   25.7388  -21.2698   -6.8969 C   0  0  0  0  0  0  0  0  0  0  0  0
   24.4974  -20.9599   -6.9118 O   0  0  0  0  0  0  0  0  0  0  0  0
   26.0344  -22.3748   -6.0932 O   0  0  0  0  0  0  0  0  0  0  0  0
  2  3  1  0
  2  1  1  6
  4  3  1  0
  5  6  1  0
  5  4  1  0
  7  6  1  0
  8  2  1  0
  8 12  1  0
  9  8  2  0
 11 12  1  0
 11 10  1  6
 13 11  1  0
 13 14  2  0
 16 18  1  0
 16 15  1  6
 17 16  1  0
 19 18  1  1
 19 20  1  0
 19 21  1  0
 20 13  1  0
 21 22  2  0
 21 23  1  0
M  END
$$$$
