KAL.pdb
     RDKit          3D

 23 22  0  0  1  0  0  0  0  0999 V2000
   25.3781  -24.9189  -17.3168 N   0  0  0  0  0  0  0  0  0  0  0  0
   24.7900  -23.6727  -16.8600 C   0  0  1  0  0  0  0  0  0  0  0  0
   23.3255  -23.8627  -16.5537 C   0  0  0  0  0  0  0  0  0  0  0  0
   22.7313  -24.7343  -17.6215 C   0  0  0  0  0  0  0  0  0  0  0  0
   22.5035  -23.9869  -18.9164 C   0  0  0  0  0  0  0  0  0  0  0  0
   21.0924  -24.2784  -19.3931 C   0  0  0  0  0  0  0  0  0  0  0  0
   20.7898  -23.5818  -20.6209 N   0  0  0  0  0  0  0  0  0  0  0  0
   25.5545  -23.2213  -15.6677 C   0  0  0  0  0  0  0  0  0  0  0  0
   25.8000  -23.9991  -14.6987 O   0  0  0  0  0  0  0  0  0  0  0  0
   27.2393  -20.0326  -14.6309 C   0  0  0  0  0  0  0  0  0  0  0  0
   26.6860  -21.4192  -14.3202 C   0  0  2  0  0  0  0  0  0  0  0  0
   26.0572  -21.8944  -15.5382 N   0  0  0  0  0  0  0  0  0  0  0  0
   25.7445  -21.3569  -13.1914 C   0  0  0  0  0  0  0  0  0  0  0  0
   24.5287  -21.1575  -13.4344 O   0  0  0  0  0  0  0  0  0  0  0  0
   24.8540  -21.4536   -7.7317 C   0  0  0  0  0  0  0  0  0  0  0  0
   25.6355  -20.3631   -8.3831 C   0  0  1  0  0  0  0  0  0  0  0  0
   26.6131  -19.7366   -7.3981 C   0  0  0  0  0  0  0  0  0  0  0  0
   26.3355  -20.8070   -9.6110 C   0  0  0  0  0  0  0  0  0  0  0  0
   25.4328  -21.1972  -10.7218 C   0  0  2  0  0  0  0  0  0  0  0  0
   26.2353  -21.5227  -11.8759 N   0  0  0  0  0  0  0  0  0  0  0  0
   24.3524  -20.2639  -11.0576 C   0  0  0  0  0  0  0  0  0  0  0  0
   23.1164  -20.4775  -10.8053 O   0  0  0  0  0  0  0  0  0  0  0  0
   24.5955  -19.0414  -11.6906 O   0  0  0  0  0  0  0  0  0  0  0  0
  2  3  1  0
  2  1  1  1
  4  3  1  0
  5  6  1  0
  5  4  1  0
  7  6  1  0
  8  2  1  0
  8 12  1  0
  9  8  2  0
 11 12  1  0
 11 10  1  6
 13 11  1  0
 13 14  2  0
 16 18  1  0
 16 15  1  1
 17 16  1  0
 19 18  1  1
 19 20  1  0
 19 21  1  0
 20 13  1  0
 21 22  2  0
 21 23  1  0
M  END
$$$$
