KAL.pdb
     RDKit          3D

 23 22  0  0  1  0  0  0  0  0999 V2000
   20.5449  -14.4577  -19.5174 N   0  0  0  0  0  0  0  0  0  0  0  0
   21.9520  -14.2536  -19.2241 C   0  0  1  0  0  0  0  0  0  0  0  0
   22.8076  -14.8156  -20.3316 C   0  0  0  0  0  0  0  0  0  0  0  0
   21.9123  -15.5351  -21.2980 C   0  0  0  0  0  0  0  0  0  0  0  0
   21.3556  -16.8187  -20.7236 C   0  0  0  0  0  0  0  0  0  0  0  0
   20.6513  -17.5729  -21.8364 C   0  0  0  0  0  0  0  0  0  0  0  0
   19.9036  -18.6982  -21.3276 N   0  0  0  0  0  0  0  0  0  0  0  0
   22.1689  -12.7948  -19.0383 C   0  0  0  0  0  0  0  0  0  0  0  0
   23.3036  -12.3226  -18.7319 O   0  0  0  0  0  0  0  0  0  0  0  0
   20.0669   -9.7185  -19.4608 C   0  0  0  0  0  0  0  0  0  0  0  0
   21.3316  -10.4201  -18.9776 C   0  0  2  0  0  0  0  0  0  0  0  0
   21.1227  -11.8398  -19.1914 N   0  0  0  0  0  0  0  0  0  0  0  0
   21.5913  -10.0988  -17.5656 C   0  0  0  0  0  0  0  0  0  0  0  0
   21.3218  -10.9620  -16.6942 O   0  0  0  0  0  0  0  0  0  0  0  0
   25.7857  -10.5543  -15.3277 C   0  0  0  0  0  0  0  0  0  0  0  0
   24.3280  -10.2403  -15.3543 C   0  0  1  0  0  0  0  0  0  0  0  0
   23.6952  -10.4973  -13.9934 C   0  0  0  0  0  0  0  0  0  0  0  0
   24.0412   -8.8628  -15.8178 C   0  0  0  0  0  0  0  0  0  0  0  0
   22.5968   -8.5349  -15.9028 C   0  0  2  0  0  0  0  0  0  0  0  0
   22.1332   -8.8353  -17.2357 N   0  0  0  0  0  0  0  0  0  0  0  0
   22.1961   -7.1891  -15.4792 C   0  0  0  0  0  0  0  0  0  0  0  0
   22.1936   -6.7916  -14.2630 O   0  0  0  0  0  0  0  0  0  0  0  0
   21.7796   -6.2153  -16.3915 O   0  0  0  0  0  0  0  0  0  0  0  0
  2  3  1  0
  2  1  1  6
  4  3  1  0
  5  6  1  0
  5  4  1  0
  7  6  1  0
  8  2  1  0
  8 12  1  0
  9  8  2  0
 11 12  1  0
 11 10  1  1
 13 11  1  0
 13 14  2  0
 16 18  1  0
 16 15  1  1
 17 16  1  0
 19 18  1  6
 19 20  1  0
 19 21  1  0
 20 13  1  0
 21 22  2  0
 21 23  1  0
M  END
$$$$
