KAL.pdb
     RDKit          3D

 23 22  0  0  1  0  0  0  0  0999 V2000
   24.9144  -19.7260  -15.3249 N   0  0  0  0  0  0  0  0  0  0  0  0
   23.5922  -19.1317  -15.4021 C   0  0  1  0  0  0  0  0  0  0  0  0
   22.8025  -19.4404  -14.1548 C   0  0  0  0  0  0  0  0  0  0  0  0
   22.5436  -20.9184  -14.1163 C   0  0  0  0  0  0  0  0  0  0  0  0
   23.6990  -21.6918  -13.5211 C   0  0  0  0  0  0  0  0  0  0  0  0
   23.3710  -23.1716  -13.5959 C   0  0  0  0  0  0  0  0  0  0  0  0
   24.4936  -23.9874  -13.1977 N   0  0  0  0  0  0  0  0  0  0  0  0
   23.7641  -17.6691  -15.6049 C   0  0  0  0  0  0  0  0  0  0  0  0
   22.7719  -16.8897  -15.7158 O   0  0  0  0  0  0  0  0  0  0  0  0
   26.5742  -15.2719  -15.2643 C   0  0  0  0  0  0  0  0  0  0  0  0
   25.2094  -15.6208  -15.8480 C   0  0  2  0  0  0  0  0  0  0  0  0
   25.0463  -17.0534  -15.6872 N   0  0  0  0  0  0  0  0  0  0  0  0
   25.1293  -15.2027  -17.2563 C   0  0  0  0  0  0  0  0  0  0  0  0
   25.6239  -15.9524  -18.1339 O   0  0  0  0  0  0  0  0  0  0  0  0
   20.7644  -12.3968  -18.8419 C   0  0  0  0  0  0  0  0  0  0  0  0
   21.9370  -13.3172  -18.7952 C   0  0  1  0  0  0  0  0  0  0  0  0
   21.7421  -14.4891  -19.7475 C   0  0  0  0  0  0  0  0  0  0  0  0
   23.2226  -12.6303  -19.0600 C   0  0  0  0  0  0  0  0  0  0  0  0
   24.4176  -13.5007  -18.9351 C   0  0  2  0  0  0  0  0  0  0  0  0
   24.5016  -13.9768  -17.5756 N   0  0  0  0  0  0  0  0  0  0  0  0
   25.6942  -12.9445  -19.3952 C   0  0  0  0  0  0  0  0  0  0  0  0
   25.9795  -12.7252  -20.6232 O   0  0  0  0  0  0  0  0  0  0  0  0
   26.7189  -12.6013  -18.5085 O   0  0  0  0  0  0  0  0  0  0  0  0
  2  3  1  0
  2  1  1  1
  4  3  1  0
  5  6  1  0
  5  4  1  0
  7  6  1  0
  8  2  1  0
  8 12  1  0
  9  8  2  0
 11 12  1  0
 11 10  1  6
 13 11  1  0
 13 14  2  0
 16 18  1  0
 16 15  1  6
 17 16  1  0
 19 18  1  1
 19 20  1  0
 19 21  1  0
 20 13  1  0
 21 22  2  0
 21 23  1  0
M  END
$$$$
