KAL.pdb
     RDKit          3D

 23 22  0  0  1  0  0  0  0  0999 V2000
   26.9934  -21.0220  -19.5421 N   0  0  0  0  0  0  0  0  0  0  0  0
   25.5539  -20.9349  -19.3752 C   0  0  1  0  0  0  0  0  0  0  0  0
   24.9283  -22.3035  -19.4764 C   0  0  0  0  0  0  0  0  0  0  0  0
   24.1106  -22.3546  -20.7340 C   0  0  0  0  0  0  0  0  0  0  0  0
   22.6737  -22.7479  -20.4730 C   0  0  0  0  0  0  0  0  0  0  0  0
   21.9579  -22.8513  -21.8072 C   0  0  0  0  0  0  0  0  0  0  0  0
   20.5669  -23.1999  -21.6404 N   0  0  0  0  0  0  0  0  0  0  0  0
   25.2882  -20.2969  -18.0591 C   0  0  0  0  0  0  0  0  0  0  0  0
   26.1563  -20.2830  -17.1369 O   0  0  0  0  0  0  0  0  0  0  0  0
   22.5280  -18.1918  -16.6537 C   0  0  0  0  0  0  0  0  0  0  0  0
   23.8143  -18.9937  -16.4866 C   0  0  2  0  0  0  0  0  0  0  0  0
   24.0492  -19.6642  -17.7515 N   0  0  0  0  0  0  0  0  0  0  0  0
   23.6898  -19.9391  -15.3662 C   0  0  0  0  0  0  0  0  0  0  0  0
   23.4032  -21.1352  -15.6193 O   0  0  0  0  0  0  0  0  0  0  0  0
   26.4151  -21.0455  -10.2082 C   0  0  0  0  0  0  0  0  0  0  0  0
   25.0880  -21.0585  -10.8885 C   0  0  1  0  0  0  0  0  0  0  0  0
   23.9845  -20.6363   -9.9282 C   0  0  0  0  0  0  0  0  0  0  0  0
   25.0606  -20.2341  -12.1190 C   0  0  0  0  0  0  0  0  0  0  0  0
   23.8119  -20.3588  -12.9105 C   0  0  2  0  0  0  0  0  0  0  0  0
   23.8958  -19.4739  -14.0471 N   0  0  0  0  0  0  0  0  0  0  0  0
   22.5478  -20.1929  -12.1856 C   0  0  0  0  0  0  0  0  0  0  0  0
   22.0092  -19.0598  -11.9341 O   0  0  0  0  0  0  0  0  0  0  0  0
   21.8170  -21.2835  -11.7054 O   0  0  0  0  0  0  0  0  0  0  0  0
  2  3  1  0
  2  1  1  1
  4  3  1  0
  5  6  1  0
  5  4  1  0
  7  6  1  0
  8  2  1  0
  8 12  1  0
  9  8  2  0
 11 12  1  0
 11 10  1  6
 13 11  1  0
 13 14  2  0
 16 18  1  0
 16 15  1  1
 17 16  1  0
 19 18  1  1
 19 20  1  0
 19 21  1  0
 20 13  1  0
 21 22  2  0
 21 23  1  0
M  END
$$$$
