KAL.pdb
     RDKit          3D

 23 22  0  0  1  0  0  0  0  0999 V2000
   22.3042  -19.1351  -12.3711 N   0  0  0  0  0  0  0  0  0  0  0  0
   21.7756  -19.6887  -11.1376 C   0  0  1  0  0  0  0  0  0  0  0  0
   20.5429  -20.5120  -11.4156 C   0  0  0  0  0  0  0  0  0  0  0  0
   20.4204  -20.6877  -12.9013 C   0  0  0  0  0  0  0  0  0  0  0  0
   21.0146  -21.9938  -13.3792 C   0  0  0  0  0  0  0  0  0  0  0  0
   20.7378  -22.1279  -14.8653 C   0  0  0  0  0  0  0  0  0  0  0  0
   21.4472  -23.2457  -15.4411 N   0  0  0  0  0  0  0  0  0  0  0  0
   22.8526  -20.4946  -10.5047 C   0  0  0  0  0  0  0  0  0  0  0  0
   22.6527  -21.1618   -9.4468 O   0  0  0  0  0  0  0  0  0  0  0  0
   25.9489  -22.0781  -11.5355 C   0  0  0  0  0  0  0  0  0  0  0  0
   25.2216  -21.3448  -10.4136 C   0  0  2  0  0  0  0  0  0  0  0  0
   24.1698  -20.5685  -11.0427 N   0  0  0  0  0  0  0  0  0  0  0  0
   26.1605  -20.5041   -9.6545 C   0  0  0  0  0  0  0  0  0  0  0  0
   26.2934  -19.3008   -9.9883 O   0  0  0  0  0  0  0  0  0  0  0  0
   27.7341  -20.2232   -4.3578 C   0  0  0  0  0  0  0  0  0  0  0  0
   27.5573  -19.9027   -5.8035 C   0  0  1  0  0  0  0  0  0  0  0  0
   27.9239  -18.4517   -6.0839 C   0  0  0  0  0  0  0  0  0  0  0  0
   28.3070  -20.8181   -6.6950 C   0  0  0  0  0  0  0  0  0  0  0  0
   28.1435  -20.5323   -8.1416 C   0  0  2  0  0  0  0  0  0  0  0  0
   26.8797  -21.0741   -8.5790 N   0  0  0  0  0  0  0  0  0  0  0  0
   29.2420  -20.9356   -9.0257 C   0  0  0  0  0  0  0  0  0  0  0  0
   30.3651  -20.3266   -9.0970 O   0  0  0  0  0  0  0  0  0  0  0  0
   29.1456  -22.0417   -9.8750 O   0  0  0  0  0  0  0  0  0  0  0  0
  2  3  1  0
  2  1  1  6
  4  3  1  0
  5  6  1  0
  5  4  1  0
  7  6  1  0
  8  2  1  0
  8 12  1  0
  9  8  2  0
 11 12  1  0
 11 10  1  6
 13 11  1  0
 13 14  2  0
 16 18  1  0
 16 15  1  1
 17 16  1  0
 19 18  1  1
 19 20  1  0
 19 21  1  0
 20 13  1  0
 21 22  2  0
 21 23  1  0
M  END
$$$$
