KAL.pdb
     RDKit          3D

 23 22  0  0  1  0  0  0  0  0999 V2000
   28.3434  -18.9194  -15.3896 N   0  0  0  0  0  0  0  0  0  0  0  0
   27.4343  -18.0079  -14.7186 C   0  0  1  0  0  0  0  0  0  0  0  0
   26.7132  -17.1473  -15.7255 C   0  0  0  0  0  0  0  0  0  0  0  0
   27.3809  -17.3236  -17.0582 C   0  0  0  0  0  0  0  0  0  0  0  0
   28.3455  -16.2022  -17.3736 C   0  0  0  0  0  0  0  0  0  0  0  0
   28.8324  -16.3793  -18.8000 C   0  0  0  0  0  0  0  0  0  0  0  0
   27.7709  -16.1695  -19.7558 N   0  0  0  0  0  0  0  0  0  0  0  0
   26.4929  -18.8230  -13.9067 C   0  0  0  0  0  0  0  0  0  0  0  0
   25.4906  -18.3072  -13.3292 O   0  0  0  0  0  0  0  0  0  0  0  0
   25.6428  -22.3759  -13.5174 C   0  0  0  0  0  0  0  0  0  0  0  0
   25.7834  -21.0042  -12.8662 C   0  0  2  0  0  0  0  0  0  0  0  0
   26.6555  -20.2270  -13.7266 N   0  0  0  0  0  0  0  0  0  0  0  0
   26.3151  -21.1345  -11.5006 C   0  0  0  0  0  0  0  0  0  0  0  0
   27.5568  -21.2446  -11.3480 O   0  0  0  0  0  0  0  0  0  0  0  0
   28.5812  -20.9886   -7.2091 C   0  0  0  0  0  0  0  0  0  0  0  0
   27.4180  -20.0846   -7.4416 C   0  0  1  0  0  0  0  0  0  0  0  0
   27.7645  -18.6507   -7.0646 C   0  0  0  0  0  0  0  0  0  0  0  0
   26.8985  -20.1550   -8.8272 C   0  0  0  0  0  0  0  0  0  0  0  0
   25.8815  -21.2130   -9.0455 C   0  0  2  0  0  0  0  0  0  0  0  0
   25.4166  -21.1318  -10.4091 N   0  0  0  0  0  0  0  0  0  0  0  0
   24.7665  -21.2676   -8.0943 C   0  0  0  0  0  0  0  0  0  0  0  0
   23.5969  -20.8072   -8.3338 O   0  0  0  0  0  0  0  0  0  0  0  0
   24.8978  -21.8414   -6.8265 O   0  0  0  0  0  0  0  0  0  0  0  0
  2  3  1  0
  2  1  1  6
  4  3  1  0
  5  6  1  0
  5  4  1  0
  7  6  1  0
  8  2  1  0
  8 12  1  0
  9  8  2  0
 11 12  1  0
 11 10  1  6
 13 11  1  0
 13 14  2  0
 16 18  1  0
 16 15  1  6
 17 16  1  0
 19 18  1  1
 19 20  1  0
 19 21  1  0
 20 13  1  0
 21 22  2  0
 21 23  1  0
M  END
$$$$
