GVP.pdb
     RDKit          3D

 19 19  0  0  1  0  0  0  0  0999 V2000
   12.4372  -17.1264   20.7695 N   0  0  0  0  0  0  0  0  0  0  0  0
   11.4283  -17.4597   21.7528 C   0  0  0  0  0  0  0  0  0  0  0  0
   10.7898  -16.2385   22.2823 C   0  0  0  0  0  0  0  0  0  0  0  0
   11.5255  -15.3365   22.7567 O   0  0  0  0  0  0  0  0  0  0  0  0
    7.6688  -14.2540   20.6814 C   0  0  0  0  0  0  0  0  0  0  0  0
    7.4684  -14.6715   22.0942 C   0  0  2  0  0  0  0  0  0  0  0  0
    6.6085  -13.6187   22.7825 C   0  0  0  0  0  0  0  0  0  0  0  0
    8.7306  -14.9389   22.8958 C   0  0  2  0  0  0  0  0  0  0  0  0
    9.3914  -16.1024   22.2499 N   0  0  0  0  0  0  0  0  0  0  0  0
    8.3439  -15.3544   24.2493 C   0  0  0  0  0  0  0  0  0  0  0  0
    8.3988  -16.6228   24.4808 O   0  0  0  0  0  0  0  0  0  0  0  0
    7.9285  -14.5553   25.3232 N   0  0  0  0  0  0  0  0  0  0  0  0
    7.3107  -13.2178   25.1559 C   0  0  0  0  0  0  0  0  0  0  0  0
    7.8584  -12.4372   26.3155 C   0  0  0  0  0  0  0  0  0  0  0  0
    8.4316  -13.4103   27.2931 C   0  0  0  0  0  0  0  0  0  0  0  0
    7.9755  -14.7495   26.7496 C   0  0  1  0  0  0  0  0  0  0  0  0
    6.5989  -15.0477   27.2858 C   0  0  0  0  0  0  0  0  0  0  0  0
    6.4813  -15.6072   28.5253 O   0  0  0  0  0  0  0  0  0  0  0  0
    5.5956  -14.7825   26.5978 O   0  0  0  0  0  0  0  0  0  0  0  0
  1  2  1  0
  3  2  1  0
  3  4  2  0
  6  5  1  6
  6  8  1  0
  7  6  1  0
  8  9  1  6
  9  3  1  0
 10 12  1  0
 10  8  1  0
 11 10  2  0
 12 16  1  0
 13 12  1  0
 13 14  1  0
 14 15  1  0
 16 15  1  0
 17 18  1  0
 16 17  1  1
 19 17  2  0
M  END
$$$$
