GVP.pdb
     RDKit          3D

 19 19  0  0  1  0  0  0  0  0999 V2000
    5.5393  -19.5720   25.6712 N   0  0  0  0  0  0  0  0  0  0  0  0
    6.2075  -18.5198   26.4075 C   0  0  0  0  0  0  0  0  0  0  0  0
    6.0986  -17.2316   25.6948 C   0  0  0  0  0  0  0  0  0  0  0  0
    5.5708  -17.2219   24.5540 O   0  0  0  0  0  0  0  0  0  0  0  0
    5.9938  -13.1953   27.1959 C   0  0  0  0  0  0  0  0  0  0  0  0
    7.1598  -13.7270   26.4420 C   0  0  2  0  0  0  0  0  0  0  0  0
    7.8366  -12.5614   25.7313 C   0  0  0  0  0  0  0  0  0  0  0  0
    6.8650  -14.8514   25.4643 C   0  0  2  0  0  0  0  0  0  0  0  0
    6.5782  -16.0526   26.2906 N   0  0  0  0  0  0  0  0  0  0  0  0
    8.0836  -15.1328   24.6963 C   0  0  0  0  0  0  0  0  0  0  0  0
    8.9549  -15.8800   25.2859 O   0  0  0  0  0  0  0  0  0  0  0  0
    8.4224  -14.7012   23.4065 N   0  0  0  0  0  0  0  0  0  0  0  0
    8.0634  -13.3661   22.8706 C   0  0  0  0  0  0  0  0  0  0  0  0
    7.7629  -13.6436   21.4260 C   0  0  0  0  0  0  0  0  0  0  0  0
    8.3152  -14.9911   21.0937 C   0  0  0  0  0  0  0  0  0  0  0  0
    9.1263  -15.3411   22.3251 C   0  0  1  0  0  0  0  0  0  0  0  0
   10.5081  -14.7574   22.1783 C   0  0  0  0  0  0  0  0  0  0  0  0
   11.4090  -15.3911   21.3720 O   0  0  0  0  0  0  0  0  0  0  0  0
   10.8077  -13.7142   22.7885 O   0  0  0  0  0  0  0  0  0  0  0  0
  1  2  1  0
  3  2  1  0
  3  4  2  0
  6  5  1  6
  6  8  1  0
  7  6  1  0
  8  9  1  1
  9  3  1  0
 10 12  1  0
 10  8  1  0
 11 10  2  0
 12 16  1  0
 13 12  1  0
 13 14  1  0
 14 15  1  0
 16 15  1  0
 17 18  1  0
 16 17  1  6
 19 17  2  0
M  END
$$$$
