GVP.pdb
     RDKit          3D

 19 19  0  0  1  0  0  0  0  0999 V2000
    5.2727  -19.4658   25.4850 N   0  0  0  0  0  0  0  0  0  0  0  0
    6.0311  -18.4832   26.2299 C   0  0  0  0  0  0  0  0  0  0  0  0
    5.9884  -17.1694   25.5578 C   0  0  0  0  0  0  0  0  0  0  0  0
    5.4787  -17.1006   24.4109 O   0  0  0  0  0  0  0  0  0  0  0  0
    6.0198  -13.2224   27.2351 C   0  0  0  0  0  0  0  0  0  0  0  0
    7.1659  -13.7339   26.4379 C   0  0  2  0  0  0  0  0  0  0  0  0
    7.8439  -12.5462   25.7660 C   0  0  0  0  0  0  0  0  0  0  0  0
    6.8406  -14.8114   25.4180 C   0  0  2  0  0  0  0  0  0  0  0  0
    6.5093  -16.0319   26.1981 N   0  0  0  0  0  0  0  0  0  0  0  0
    8.0541  -15.1046   24.6463 C   0  0  0  0  0  0  0  0  0  0  0  0
    8.9105  -15.8771   25.2251 O   0  0  0  0  0  0  0  0  0  0  0  0
    8.4020  -14.6604   23.3633 N   0  0  0  0  0  0  0  0  0  0  0  0
    8.0466  -13.3201   22.8379 C   0  0  0  0  0  0  0  0  0  0  0  0
    7.7565  -13.5835   21.3886 C   0  0  0  0  0  0  0  0  0  0  0  0
    8.3113  -14.9276   21.0471 C   0  0  0  0  0  0  0  0  0  0  0  0
    9.1137  -15.2895   22.2808 C   0  0  1  0  0  0  0  0  0  0  0  0
   10.4964  -14.7043   22.1495 C   0  0  0  0  0  0  0  0  0  0  0  0
   10.8732  -13.7060   23.0008 O   0  0  0  0  0  0  0  0  0  0  0  0
   11.2705  -15.1348   21.2744 O   0  0  0  0  0  0  0  0  0  0  0  0
  1  2  1  0
  3  2  1  0
  3  4  2  0
  6  5  1  6
  6  8  1  0
  7  6  1  0
  8  9  1  1
  9  3  1  0
 10 12  1  0
 10  8  1  0
 11 10  2  0
 12 16  1  0
 13 12  1  0
 13 14  1  0
 14 15  1  0
 16 15  1  0
 17 18  1  0
 16 17  1  6
 19 17  2  0
M  END
$$$$
