GVP.pdb
     RDKit          3D

 19 19  0  0  1  0  0  0  0  0999 V2000
   12.3553  -17.1158   20.4992 N   0  0  0  0  0  0  0  0  0  0  0  0
   11.3233  -17.5012   21.4384 C   0  0  0  0  0  0  0  0  0  0  0  0
   10.8440  -16.3303   22.1991 C   0  0  0  0  0  0  0  0  0  0  0  0
   11.6507  -15.3935   22.4263 O   0  0  0  0  0  0  0  0  0  0  0  0
    7.2714  -14.5420   21.8355 C   0  0  0  0  0  0  0  0  0  0  0  0
    7.5895  -14.9619   23.2259 C   0  0  2  0  0  0  0  0  0  0  0  0
    6.9812  -13.9417   24.1803 C   0  0  0  0  0  0  0  0  0  0  0  0
    9.0606  -15.1756   23.5377 C   0  0  2  0  0  0  0  0  0  0  0  0
    9.5145  -16.2788   22.6519 N   0  0  0  0  0  0  0  0  0  0  0  0
    9.1795  -15.6516   24.9210 C   0  0  0  0  0  0  0  0  0  0  0  0
    9.3514  -16.9229   25.0609 O   0  0  0  0  0  0  0  0  0  0  0  0
    9.1360  -14.9072   26.1077 N   0  0  0  0  0  0  0  0  0  0  0  0
    8.2462  -13.7381   26.3072 C   0  0  0  0  0  0  0  0  0  0  0  0
    9.0815  -12.8062   27.1366 C   0  0  0  0  0  0  0  0  0  0  0  0
   10.2215  -13.5905   27.6991 C   0  0  0  0  0  0  0  0  0  0  0  0
    9.8591  -15.0196   27.3483 C   0  0  1  0  0  0  0  0  0  0  0  0
    8.9668  -15.5735   28.4292 C   0  0  0  0  0  0  0  0  0  0  0  0
    9.5251  -15.9475   29.6175 O   0  0  0  0  0  0  0  0  0  0  0  0
    7.7430  -15.6821   28.2268 O   0  0  0  0  0  0  0  0  0  0  0  0
  1  2  1  0
  3  2  1  0
  3  4  2  0
  6  5  1  6
  6  8  1  0
  7  6  1  0
  8  9  1  6
  9  3  1  0
 10 12  1  0
 10  8  1  0
 11 10  2  0
 12 16  1  0
 13 12  1  0
 13 14  1  0
 14 15  1  0
 16 15  1  0
 17 18  1  0
 16 17  1  1
 19 17  2  0
M  END
$$$$
