GVP.pdb
     RDKit          3D

 19 19  0  0  1  0  0  0  0  0999 V2000
    5.3217  -19.4878   25.6222 N   0  0  0  0  0  0  0  0  0  0  0  0
    5.9226  -18.4383   26.4178 C   0  0  0  0  0  0  0  0  0  0  0  0
    5.9988  -17.1788   25.6514 C   0  0  0  0  0  0  0  0  0  0  0  0
    5.6897  -17.2002   24.4332 O   0  0  0  0  0  0  0  0  0  0  0  0
    5.8224  -13.1105   27.0147 C   0  0  0  0  0  0  0  0  0  0  0  0
    7.0733  -13.6905   26.4584 C   0  0  2  0  0  0  0  0  0  0  0  0
    7.8766  -12.5630   25.8217 C   0  0  0  0  0  0  0  0  0  0  0  0
    6.8981  -14.8403   25.4815 C   0  0  2  0  0  0  0  0  0  0  0  0
    6.4091  -15.9921   26.2828 N   0  0  0  0  0  0  0  0  0  0  0  0
    8.2169  -15.2074   24.9523 C   0  0  0  0  0  0  0  0  0  0  0  0
    8.9356  -15.9589   25.7166 O   0  0  0  0  0  0  0  0  0  0  0  0
    8.7953  -14.8537   23.7256 N   0  0  0  0  0  0  0  0  0  0  0  0
    8.5504  -13.5566   23.0502 C   0  0  0  0  0  0  0  0  0  0  0  0
    8.5269  -13.9245   21.5948 C   0  0  0  0  0  0  0  0  0  0  0  0
    9.1254  -15.2860   21.4565 C   0  0  0  0  0  0  0  0  0  0  0  0
    9.6877  -15.5539   22.8381 C   0  0  1  0  0  0  0  0  0  0  0  0
   11.0751  -14.9708   22.9191 C   0  0  0  0  0  0  0  0  0  0  0  0
   12.0980  -15.6123   22.2822 O   0  0  0  0  0  0  0  0  0  0  0  0
   11.2692  -13.9210   23.5599 O   0  0  0  0  0  0  0  0  0  0  0  0
  1  2  1  0
  3  2  1  0
  3  4  2  0
  6  5  1  6
  6  8  1  0
  7  6  1  0
  8  9  1  1
  9  3  1  0
 10 12  1  0
 10  8  1  0
 11 10  2  0
 12 16  1  0
 13 12  1  0
 13 14  1  0
 14 15  1  0
 16 15  1  0
 17 18  1  0
 16 17  1  6
 19 17  2  0
M  END
$$$$
