GVP.pdb
     RDKit          3D

 19 19  0  0  1  0  0  0  0  0999 V2000
    8.8599  -16.8556   14.4852 N   0  0  0  0  0  0  0  0  0  0  0  0
    8.2539  -16.8842   15.7996 C   0  0  0  0  0  0  0  0  0  0  0  0
    8.9563  -15.9682   16.7199 C   0  0  0  0  0  0  0  0  0  0  0  0
   10.1393  -15.6402   16.4500 O   0  0  0  0  0  0  0  0  0  0  0  0
    7.0352  -13.0358   18.9162 C   0  0  0  0  0  0  0  0  0  0  0  0
    7.9589  -13.9286   19.6649 C   0  0  2  0  0  0  0  0  0  0  0  0
    8.5916  -13.1196   20.7906 C   0  0  0  0  0  0  0  0  0  0  0  0
    9.0278  -14.6246   18.8402 C   0  0  2  0  0  0  0  0  0  0  0  0
    8.3045  -15.4829   17.8666 N   0  0  0  0  0  0  0  0  0  0  0  0
    9.7908  -15.5154   19.7224 C   0  0  0  0  0  0  0  0  0  0  0  0
    9.2151  -16.6305   20.0228 O   0  0  0  0  0  0  0  0  0  0  0  0
   11.0628  -15.3164   20.2764 N   0  0  0  0  0  0  0  0  0  0  0  0
   11.7688  -14.0127   20.2553 C   0  0  0  0  0  0  0  0  0  0  0  0
   13.2056  -14.4015   20.0592 C   0  0  0  0  0  0  0  0  0  0  0  0
   13.3305  -15.8597   20.3578 C   0  0  0  0  0  0  0  0  0  0  0  0
   11.9771  -16.2053   20.9459 C   0  0  1  0  0  0  0  0  0  0  0  0
   12.0028  -15.9176   22.4251 C   0  0  0  0  0  0  0  0  0  0  0  0
   12.6414  -16.7924   23.2558 O   0  0  0  0  0  0  0  0  0  0  0  0
   11.4463  -14.8950   22.8668 O   0  0  0  0  0  0  0  0  0  0  0  0
  1  2  1  0
  3  2  1  0
  3  4  2  0
  6  5  1  6
  6  8  1  0
  7  6  1  0
  8  9  1  6
  9  3  1  0
 10 12  1  0
 10  8  1  0
 11 10  2  0
 12 16  1  0
 13 12  1  0
 13 14  1  0
 14 15  1  0
 16 15  1  0
 17 18  1  0
 16 17  1  1
 19 17  2  0
M  END
$$$$
