GVP.pdb
     RDKit          3D

 19 19  0  0  1  0  0  0  0  0999 V2000
    5.5805  -19.9312   24.1657 N   0  0  0  0  0  0  0  0  0  0  0  0
    6.3512  -18.9577   24.9100 C   0  0  0  0  0  0  0  0  0  0  0  0
    6.1529  -17.6020   24.3605 C   0  0  0  0  0  0  0  0  0  0  0  0
    5.4762  -17.4759   23.3087 O   0  0  0  0  0  0  0  0  0  0  0  0
    6.9997  -12.7189   24.9744 C   0  0  0  0  0  0  0  0  0  0  0  0
    7.0267  -14.1407   25.4085 C   0  0  2  0  0  0  0  0  0  0  0  0
    8.3516  -14.3953   26.1168 C   0  0  0  0  0  0  0  0  0  0  0  0
    6.7946  -15.1745   24.3202 C   0  0  2  0  0  0  0  0  0  0  0  0
    6.7138  -16.4885   25.0092 N   0  0  0  0  0  0  0  0  0  0  0  0
    7.9773  -15.2107   23.4518 C   0  0  0  0  0  0  0  0  0  0  0  0
    8.8580  -16.1070   23.7455 O   0  0  0  0  0  0  0  0  0  0  0  0
    8.2727  -14.4043   22.3442 N   0  0  0  0  0  0  0  0  0  0  0  0
    7.8523  -12.9871   22.2294 C   0  0  0  0  0  0  0  0  0  0  0  0
    7.5329  -12.8390   20.7699 C   0  0  0  0  0  0  0  0  0  0  0  0
    8.1289  -14.0041   20.0499 C   0  0  0  0  0  0  0  0  0  0  0  0
    8.9780  -14.6667   21.1161 C   0  0  1  0  0  0  0  0  0  0  0  0
   10.3333  -14.0077   21.1364 C   0  0  0  0  0  0  0  0  0  0  0  0
   11.2487  -14.3535   20.1848 O   0  0  0  0  0  0  0  0  0  0  0  0
   10.5984  -13.1639   22.0128 O   0  0  0  0  0  0  0  0  0  0  0  0
  1  2  1  0
  3  2  1  0
  3  4  2  0
  6  5  1  6
  6  8  1  0
  7  6  1  0
  8  9  1  1
  9  3  1  0
 10 12  1  0
 10  8  1  0
 11 10  2  0
 12 16  1  0
 13 12  1  0
 13 14  1  0
 14 15  1  0
 16 15  1  0
 17 18  1  0
 16 17  1  1
 19 17  2  0
M  END
$$$$
