GVP.pdb
     RDKit          3D

 19 19  0  0  1  0  0  0  0  0999 V2000
    5.7478  -19.4592   25.9243 N   0  0  0  0  0  0  0  0  0  0  0  0
    6.3018  -18.3216   26.6276 C   0  0  0  0  0  0  0  0  0  0  0  0
    6.1701  -17.0923   25.8207 C   0  0  0  0  0  0  0  0  0  0  0  0
    5.6088  -17.1706   24.6988 O   0  0  0  0  0  0  0  0  0  0  0  0
    6.0701  -12.9572   27.0058 C   0  0  0  0  0  0  0  0  0  0  0  0
    7.2228  -13.5351   26.2656 C   0  0  2  0  0  0  0  0  0  0  0  0
    7.8688  -12.4219   25.4499 C   0  0  0  0  0  0  0  0  0  0  0  0
    6.9164  -14.7345   25.3854 C   0  0  2  0  0  0  0  0  0  0  0  0
    6.6654  -15.8711   26.3090 N   0  0  0  0  0  0  0  0  0  0  0  0
    8.1180  -15.0621   24.6090 C   0  0  0  0  0  0  0  0  0  0  0  0
    8.9853  -15.8051   25.2097 O   0  0  0  0  0  0  0  0  0  0  0  0
    8.4442  -14.6787   23.3009 N   0  0  0  0  0  0  0  0  0  0  0  0
    8.0042  -13.4015   22.6896 C   0  0  0  0  0  0  0  0  0  0  0  0
    7.7419  -13.7757   21.2595 C   0  0  0  0  0  0  0  0  0  0  0  0
    8.3868  -15.0990   21.0064 C   0  0  0  0  0  0  0  0  0  0  0  0
    9.2033  -15.3270   22.2627 C   0  0  1  0  0  0  0  0  0  0  0  0
   10.5449  -14.6606   22.0974 C   0  0  0  0  0  0  0  0  0  0  0  0
   11.4984  -15.2774   21.3399 O   0  0  0  0  0  0  0  0  0  0  0  0
   10.7648  -13.5660   22.6487 O   0  0  0  0  0  0  0  0  0  0  0  0
  1  2  1  0
  3  2  1  0
  3  4  2  0
  6  5  1  6
  6  8  1  0
  7  6  1  0
  8  9  1  1
  9  3  1  0
 10 12  1  0
 10  8  1  0
 11 10  2  0
 12 16  1  0
 13 12  1  0
 13 14  1  0
 14 15  1  0
 16 15  1  0
 17 18  1  0
 16 17  1  6
 19 17  2  0
M  END
$$$$
