GVP.pdb
     RDKit          3D

 19 19  0  0  1  0  0  0  0  0999 V2000
    5.0467  -11.9279   26.7881 N   0  0  0  0  0  0  0  0  0  0  0  0
    6.3807  -12.0534   26.2400 C   0  0  0  0  0  0  0  0  0  0  0  0
    6.5547  -13.3627   25.5806 C   0  0  0  0  0  0  0  0  0  0  0  0
    5.7806  -14.3004   25.8990 O   0  0  0  0  0  0  0  0  0  0  0  0
    7.3329  -13.6084   21.7836 C   0  0  0  0  0  0  0  0  0  0  0  0
    8.1900  -14.5607   22.5381 C   0  0  2  0  0  0  0  0  0  0  0  0
    8.2956  -15.8473   21.7287 C   0  0  0  0  0  0  0  0  0  0  0  0
    7.7598  -14.8593   23.9638 C   0  0  2  0  0  0  0  0  0  0  0  0
    7.5665  -13.5410   24.6215 N   0  0  0  0  0  0  0  0  0  0  0  0
    8.8672  -15.5314   24.6538 C   0  0  0  0  0  0  0  0  0  0  0  0
    9.8871  -14.7895   24.9268 O   0  0  0  0  0  0  0  0  0  0  0  0
    8.9600  -16.8699   25.0590 N   0  0  0  0  0  0  0  0  0  0  0  0
    7.9684  -17.9075   24.6865 C   0  0  0  0  0  0  0  0  0  0  0  0
    7.8910  -18.7675   25.9147 C   0  0  0  0  0  0  0  0  0  0  0  0
    9.0739  -18.4519   26.7704 C   0  0  0  0  0  0  0  0  0  0  0  0
    9.9195  -17.5708   25.8729 C   0  0  1  0  0  0  0  0  0  0  0  0
   10.7950  -18.4488   25.0161 C   0  0  0  0  0  0  0  0  0  0  0  0
   11.9584  -18.9327   25.5413 O   0  0  0  0  0  0  0  0  0  0  0  0
   10.4494  -18.7193   23.8509 O   0  0  0  0  0  0  0  0  0  0  0  0
  1  2  1  0
  3  2  1  0
  3  4  2  0
  6  5  1  6
  6  8  1  0
  7  6  1  0
  8  9  1  1
  9  3  1  0
 10 12  1  0
 10  8  1  0
 11 10  2  0
 12 16  1  0
 13 12  1  0
 13 14  1  0
 14 15  1  0
 16 15  1  0
 17 18  1  0
 16 17  1  6
 19 17  2  0
M  END
$$$$
