GVP.pdb
     RDKit          3D

 19 19  0  0  1  0  0  0  0  0999 V2000
    5.6066  -19.5126   25.7211 N   0  0  0  0  0  0  0  0  0  0  0  0
    6.2878  -18.4456   26.4234 C   0  0  0  0  0  0  0  0  0  0  0  0
    6.1398  -17.1661   25.7019 C   0  0  0  0  0  0  0  0  0  0  0  0
    5.5514  -17.1702   24.5912 O   0  0  0  0  0  0  0  0  0  0  0  0
    6.1259  -13.1140   27.1430 C   0  0  0  0  0  0  0  0  0  0  0  0
    7.2547  -13.6568   26.3418 C   0  0  2  0  0  0  0  0  0  0  0  0
    7.8943  -12.5021   25.5806 C   0  0  0  0  0  0  0  0  0  0  0  0
    6.9144  -14.7968   25.3975 C   0  0  2  0  0  0  0  0  0  0  0  0
    6.6501  -15.9799   26.2567 N   0  0  0  0  0  0  0  0  0  0  0  0
    8.1007  -15.1025   24.5893 C   0  0  0  0  0  0  0  0  0  0  0  0
    8.9689  -15.8796   25.1440 O   0  0  0  0  0  0  0  0  0  0  0  0
    8.4116  -14.6661   23.2942 N   0  0  0  0  0  0  0  0  0  0  0  0
    8.0167  -13.3398   22.7616 C   0  0  0  0  0  0  0  0  0  0  0  0
    7.7013  -13.6261   21.3220 C   0  0  0  0  0  0  0  0  0  0  0  0
    8.2771  -14.9621   20.9836 C   0  0  0  0  0  0  0  0  0  0  0  0
    9.1132  -15.2928   22.2036 C   0  0  1  0  0  0  0  0  0  0  0  0
   10.4800  -14.6802   22.0359 C   0  0  0  0  0  0  0  0  0  0  0  0
   11.3785  -15.2896   21.2084 O   0  0  0  0  0  0  0  0  0  0  0  0
   10.7699  -13.6357   22.6485 O   0  0  0  0  0  0  0  0  0  0  0  0
  1  2  1  0
  3  2  1  0
  3  4  2  0
  6  5  1  6
  6  8  1  0
  7  6  1  0
  8  9  1  1
  9  3  1  0
 10 12  1  0
 10  8  1  0
 11 10  2  0
 12 16  1  0
 13 12  1  0
 13 14  1  0
 14 15  1  0
 16 15  1  0
 17 18  1  0
 16 17  1  6
 19 17  2  0
M  END
$$$$
