GVP.pdb
     RDKit          3D

 19 19  0  0  1  0  0  0  0  0999 V2000
    6.0718  -19.5638   26.8135 N   0  0  0  0  0  0  0  0  0  0  0  0
    6.7800  -18.3751   27.2393 C   0  0  0  0  0  0  0  0  0  0  0  0
    6.4465  -17.2280   26.3720 C   0  0  0  0  0  0  0  0  0  0  0  0
    5.7033  -17.4261   25.3778 O   0  0  0  0  0  0  0  0  0  0  0  0
    6.1572  -13.0825   27.2392 C   0  0  0  0  0  0  0  0  0  0  0  0
    7.2458  -13.5860   26.3605 C   0  0  2  0  0  0  0  0  0  0  0  0
    7.6084  -12.4821   25.3747 C   0  0  0  0  0  0  0  0  0  0  0  0
    6.9635  -14.8861   25.6277 C   0  0  2  0  0  0  0  0  0  0  0  0
    6.9554  -15.9509   26.6639 N   0  0  0  0  0  0  0  0  0  0  0  0
    8.0867  -15.1659   24.7253 C   0  0  0  0  0  0  0  0  0  0  0  0
    9.0745  -15.8117   25.2473 O   0  0  0  0  0  0  0  0  0  0  0  0
    8.2248  -14.8288   23.3719 N   0  0  0  0  0  0  0  0  0  0  0  0
    7.6377  -13.6078   22.7695 C   0  0  0  0  0  0  0  0  0  0  0  0
    7.2225  -14.0637   21.4007 C   0  0  0  0  0  0  0  0  0  0  0  0
    7.9081  -15.3612   21.1222 C   0  0  0  0  0  0  0  0  0  0  0  0
    8.8862  -15.4847   22.2733 C   0  0  1  0  0  0  0  0  0  0  0  0
   10.1552  -14.7561   21.9124 C   0  0  0  0  0  0  0  0  0  0  0  0
   11.0425  -15.3569   21.0667 O   0  0  0  0  0  0  0  0  0  0  0  0
   10.3764  -13.6258   22.3857 O   0  0  0  0  0  0  0  0  0  0  0  0
  1  2  1  0
  3  2  1  0
  3  4  2  0
  6  5  1  6
  6  8  1  0
  7  6  1  0
  8  9  1  1
  9  3  1  0
 10 12  1  0
 10  8  1  0
 11 10  2  0
 12 16  1  0
 13 12  1  0
 13 14  1  0
 14 15  1  0
 16 15  1  0
 17 18  1  0
 16 17  1  6
 19 17  2  0
M  END
$$$$
