GVP.pdb
     RDKit          3D

 19 19  0  0  1  0  0  0  0  0999 V2000
    8.0646  -15.0640   20.5413 N   0  0  0  0  0  0  0  0  0  0  0  0
    7.4349  -15.3455   21.8140 C   0  0  0  0  0  0  0  0  0  0  0  0
    8.1116  -14.6171   22.9054 C   0  0  0  0  0  0  0  0  0  0  0  0
    9.2463  -14.1244   22.6822 O   0  0  0  0  0  0  0  0  0  0  0  0
    6.0238  -13.8733   26.5908 C   0  0  0  0  0  0  0  0  0  0  0  0
    7.2154  -13.1213   26.1161 C   0  0  2  0  0  0  0  0  0  0  0  0
    6.7295  -11.9159   25.3208 C   0  0  0  0  0  0  0  0  0  0  0  0
    8.2303  -13.9176   25.3142 C   0  0  2  0  0  0  0  0  0  0  0  0
    7.4892  -14.4862   24.1587 N   0  0  0  0  0  0  0  0  0  0  0  0
    8.6903  -15.0452   26.1333 C   0  0  0  0  0  0  0  0  0  0  0  0
    8.3403  -16.2159   25.7183 O   0  0  0  0  0  0  0  0  0  0  0  0
    9.4630  -15.0178   27.3023 N   0  0  0  0  0  0  0  0  0  0  0  0
    9.2188  -14.0766   28.4217 C   0  0  0  0  0  0  0  0  0  0  0  0
   10.6021  -13.7477   28.9040 C   0  0  0  0  0  0  0  0  0  0  0  0
   11.5385  -14.7646   28.3382 C   0  0  0  0  0  0  0  0  0  0  0  0
   10.6027  -15.7887   27.7280 C   0  0  1  0  0  0  0  0  0  0  0  0
   10.2019  -16.7759   28.7940 C   0  0  0  0  0  0  0  0  0  0  0  0
   11.1282  -17.6714   29.2450 O   0  0  0  0  0  0  0  0  0  0  0  0
    9.0416  -16.7624   29.2457 O   0  0  0  0  0  0  0  0  0  0  0  0
  1  2  1  0
  3  2  1  0
  3  4  2  0
  6  5  1  6
  6  8  1  0
  7  6  1  0
  8  9  1  6
  9  3  1  0
 10 12  1  0
 10  8  1  0
 11 10  2  0
 12 16  1  0
 13 12  1  0
 13 14  1  0
 14 15  1  0
 16 15  1  0
 17 18  1  0
 16 17  1  1
 19 17  2  0
M  END
$$$$
