GVP.pdb
     RDKit          3D

 19 19  0  0  1  0  0  0  0  0999 V2000
    5.6575  -19.5734   25.6578 N   0  0  0  0  0  0  0  0  0  0  0  0
    5.9861  -18.4352   26.4898 C   0  0  0  0  0  0  0  0  0  0  0  0
    5.9717  -17.1879   25.7002 C   0  0  0  0  0  0  0  0  0  0  0  0
    5.4439  -17.2081   24.5596 O   0  0  0  0  0  0  0  0  0  0  0  0
    5.9726  -13.1273   27.0426 C   0  0  0  0  0  0  0  0  0  0  0  0
    7.1180  -13.6833   26.2747 C   0  0  2  0  0  0  0  0  0  0  0  0
    7.7697  -12.5427   25.5026 C   0  0  0  0  0  0  0  0  0  0  0  0
    6.7988  -14.8432   25.3475 C   0  0  2  0  0  0  0  0  0  0  0  0
    6.5387  -16.0138   26.2249 N   0  0  0  0  0  0  0  0  0  0  0  0
    7.9960  -15.1504   24.5560 C   0  0  0  0  0  0  0  0  0  0  0  0
    8.8559  -15.9275   25.1234 O   0  0  0  0  0  0  0  0  0  0  0  0
    8.3249  -14.7154   23.2649 N   0  0  0  0  0  0  0  0  0  0  0  0
    7.9850  -13.3692   22.7444 C   0  0  0  0  0  0  0  0  0  0  0  0
    7.6586  -13.6291   21.3023 C   0  0  0  0  0  0  0  0  0  0  0  0
    8.1791  -14.9845   20.9517 C   0  0  0  0  0  0  0  0  0  0  0  0
    9.0006  -15.3604   22.1686 C   0  0  1  0  0  0  0  0  0  0  0  0
   10.3914  -14.8030   22.0064 C   0  0  0  0  0  0  0  0  0  0  0  0
   11.2598  -15.4331   21.1624 O   0  0  0  0  0  0  0  0  0  0  0  0
   10.7279  -13.7843   22.6383 O   0  0  0  0  0  0  0  0  0  0  0  0
  1  2  1  0
  3  2  1  0
  3  4  2  0
  6  5  1  6
  6  8  1  0
  7  6  1  0
  8  9  1  1
  9  3  1  0
 10 12  1  0
 10  8  1  0
 11 10  2  0
 12 16  1  0
 13 12  1  0
 13 14  1  0
 14 15  1  0
 16 15  1  0
 17 18  1  0
 16 17  1  6
 19 17  2  0
M  END
$$$$
