GVP.pdb
     RDKit          3D

 19 19  0  0  1  0  0  0  0  0999 V2000
    5.4329  -19.5185   25.5537 N   0  0  0  0  0  0  0  0  0  0  0  0
    6.0336  -18.4585   26.3357 C   0  0  0  0  0  0  0  0  0  0  0  0
    6.0136  -17.1835   25.5918 C   0  0  0  0  0  0  0  0  0  0  0  0
    5.5850  -17.1870   24.4102 O   0  0  0  0  0  0  0  0  0  0  0  0
    5.8981  -13.1403   27.0681 C   0  0  0  0  0  0  0  0  0  0  0  0
    7.0890  -13.6880   26.3662 C   0  0  2  0  0  0  0  0  0  0  0  0
    7.8058  -12.5334   25.6770 C   0  0  0  0  0  0  0  0  0  0  0  0
    6.8237  -14.8157   25.3839 C   0  0  2  0  0  0  0  0  0  0  0  0
    6.4663  -16.0021   26.2039 N   0  0  0  0  0  0  0  0  0  0  0  0
    8.0760  -15.1304   24.6863 C   0  0  0  0  0  0  0  0  0  0  0  0
    8.8979  -15.8891   25.3298 O   0  0  0  0  0  0  0  0  0  0  0  0
    8.4935  -14.7200   23.4128 N   0  0  0  0  0  0  0  0  0  0  0  0
    8.1809  -13.3887   22.8396 C   0  0  0  0  0  0  0  0  0  0  0  0
    7.9614  -13.6827   21.3839 C   0  0  0  0  0  0  0  0  0  0  0  0
    8.5170  -15.0402   21.1017 C   0  0  0  0  0  0  0  0  0  0  0  0
    9.2517  -15.3817   22.3824 C   0  0  1  0  0  0  0  0  0  0  0  0
   10.6460  -14.8144   22.3083 C   0  0  0  0  0  0  0  0  0  0  0  0
   11.5744  -15.4463   21.5325 O   0  0  0  0  0  0  0  0  0  0  0  0
   10.9309  -13.7859   22.9498 O   0  0  0  0  0  0  0  0  0  0  0  0
  1  2  1  0
  3  2  1  0
  3  4  2  0
  6  5  1  6
  6  8  1  0
  7  6  1  0
  8  9  1  1
  9  3  1  0
 10 12  1  0
 10  8  1  0
 11 10  2  0
 12 16  1  0
 13 12  1  0
 13 14  1  0
 14 15  1  0
 16 15  1  0
 17 18  1  0
 16 17  1  6
 19 17  2  0
M  END
$$$$
