CFK.pdb
     RDKit          3D

 27 27  0  0  1  0  0  0  0  0999 V2000
   27.1672  -24.7429  -18.2768 N   0  0  0  0  0  0  0  0  0  0  0  0
   27.0986  -25.7904  -17.2929 C   0  0  1  0  0  0  0  0  0  0  0  0
   25.7457  -25.8948  -16.6300 C   0  0  0  0  0  0  0  0  0  0  0  0
   25.5748  -24.4349  -15.5473 S   0  0  0  0  0  0  0  0  0  0  0  0
   27.5675  -27.0644  -17.8563 C   0  0  0  0  0  0  0  0  0  0  0  0
   27.1102  -27.5455  -18.9330 O   0  0  0  0  0  0  0  0  0  0  0  0
   28.5657  -27.7962  -17.1873 N   0  0  0  0  0  0  0  0  0  0  0  0
   29.1092  -29.0624  -17.6494 C   0  0  1  0  0  0  0  0  0  0  0  0
   30.6205  -29.0482  -17.5674 C   0  0  0  0  0  0  0  0  0  0  0  0
   31.2565  -28.2416  -18.6210 C   0  0  0  0  0  0  0  0  0  0  0  0
   31.5444  -28.8173  -19.8495 C   0  0  0  0  0  0  0  0  0  0  0  0
   32.1376  -28.1166  -20.8707 C   0  0  0  0  0  0  0  0  0  0  0  0
   32.4739  -26.7917  -20.7074 C   0  0  0  0  0  0  0  0  0  0  0  0
   32.1943  -26.2040  -19.4913 C   0  0  0  0  0  0  0  0  0  0  0  0
   31.5896  -26.9200  -18.4516 C   0  0  0  0  0  0  0  0  0  0  0  0
   28.5491  -30.2195  -16.9622 C   0  0  0  0  0  0  0  0  0  0  0  0
   28.4899  -30.1982  -15.6866 O   0  0  0  0  0  0  0  0  0  0  0  0
   28.0534  -31.3841  -17.5874 N   0  0  0  0  0  0  0  0  0  0  0  0
   27.3722  -32.4450  -16.8698 C   0  0  1  0  0  0  0  0  0  0  0  0
   26.1103  -31.8982  -16.1926 C   0  0  0  0  0  0  0  0  0  0  0  0
   25.3688  -32.9983  -15.4877 C   0  0  0  0  0  0  0  0  0  0  0  0
   24.1347  -32.4652  -14.8263 C   0  0  0  0  0  0  0  0  0  0  0  0
   23.7641  -33.2867  -13.6438 C   0  0  0  0  0  0  0  0  0  0  0  0
   22.4801  -32.8274  -13.1215 N   0  0  0  0  0  0  0  0  0  0  0  0
   26.9043  -33.4530  -17.8465 C   0  0  0  0  0  0  0  0  0  0  0  0
   26.9277  -33.1512  -19.2234 O   0  0  0  0  0  0  0  0  0  0  0  0
   26.4771  -34.5880  -17.5200 O   0  0  0  0  0  0  0  0  0  0  0  0
  2  1  1  6
  2  3  1  0
  3  4  1  0
  5  6  2  0
  5  2  1  0
  7  5  1  0
  8  7  1  0
  8  9  1  1
 10  9  1  0
 11 10  2  0
 12 11  1  0
 13 12  2  0
 13 14  1  0
 14 15  2  0
 15 10  1  0
 16  8  1  0
 16 18  1  0
 17 16  2  0
 19 18  1  0
 19 25  1  0
 19 20  1  6
 21 20  1  0
 22 21  1  0
 23 24  1  0
 23 22  1  0
 25 26  1  0
 27 25  2  0
M  END
$$$$
