CFK.pdb
     RDKit          3D

 27 27  0  0  1  0  0  0  0  0999 V2000
   21.3641  -29.1006  -12.3357 N   0  0  0  0  0  0  0  0  0  0  0  0
   20.3046  -29.1742  -11.3649 C   0  0  1  0  0  0  0  0  0  0  0  0
   20.4131  -30.3766  -10.4575 C   0  0  0  0  0  0  0  0  0  0  0  0
   20.2956  -31.8540  -11.5234 S   0  0  0  0  0  0  0  0  0  0  0  0
   20.1808  -27.9056  -10.6331 C   0  0  0  0  0  0  0  0  0  0  0  0
   21.1286  -27.0729  -10.5429 O   0  0  0  0  0  0  0  0  0  0  0  0
   18.9670  -27.5832   -9.9989 N   0  0  0  0  0  0  0  0  0  0  0  0
   18.5911  -26.2468   -9.5687 C   0  0  1  0  0  0  0  0  0  0  0  0
   18.5893  -25.2955  -10.7459 C   0  0  0  0  0  0  0  0  0  0  0  0
   18.0484  -23.9655  -10.4232 C   0  0  0  0  0  0  0  0  0  0  0  0
   18.9070  -22.9502  -10.0289 C   0  0  0  0  0  0  0  0  0  0  0  0
   18.4620  -21.6897   -9.7142 C   0  0  0  0  0  0  0  0  0  0  0  0
   17.1214  -21.3839   -9.7805 C   0  0  0  0  0  0  0  0  0  0  0  0
   16.2541  -22.3827  -10.1711 C   0  0  0  0  0  0  0  0  0  0  0  0
   16.7096  -23.6669  -10.4914 C   0  0  0  0  0  0  0  0  0  0  0  0
   17.3251  -26.2043   -8.8474 C   0  0  0  0  0  0  0  0  0  0  0  0
   16.2574  -26.5146   -9.4758 O   0  0  0  0  0  0  0  0  0  0  0  0
   17.1657  -25.8474   -7.4908 N   0  0  0  0  0  0  0  0  0  0  0  0
   15.8717  -25.7183   -6.8479 C   0  0  1  0  0  0  0  0  0  0  0  0
   15.8927  -26.4042   -5.4772 C   0  0  0  0  0  0  0  0  0  0  0  0
   17.2745  -26.3695   -4.8889 C   0  0  0  0  0  0  0  0  0  0  0  0
   17.2978  -27.0461   -3.5523 C   0  0  0  0  0  0  0  0  0  0  0  0
   18.6790  -27.1020   -3.0049 C   0  0  0  0  0  0  0  0  0  0  0  0
   18.6337  -27.6006   -1.6332 N   0  0  0  0  0  0  0  0  0  0  0  0
   15.6162  -24.2856   -6.5810 C   0  0  0  0  0  0  0  0  0  0  0  0
   14.3742  -23.8881   -6.0454 O   0  0  0  0  0  0  0  0  0  0  0  0
   16.4551  -23.3786   -6.8065 O   0  0  0  0  0  0  0  0  0  0  0  0
  2  1  1  1
  2  3  1  0
  3  4  1  0
  5  6  2  0
  5  2  1  0
  7  5  1  0
  8  7  1  0
  8  9  1  6
 10  9  1  0
 11 10  2  0
 12 11  1  0
 13 12  2  0
 13 14  1  0
 14 15  2  0
 15 10  1  0
 16  8  1  0
 16 18  1  0
 17 16  2  0
 19 18  1  0
 19 25  1  0
 19 20  1  1
 21 20  1  0
 22 21  1  0
 23 24  1  0
 23 22  1  0
 25 26  1  0
 27 25  2  0
M  END
$$$$
