CFK.pdb
     RDKit          3D

 27 27  0  0  1  0  0  0  0  0999 V2000
   23.2783  -12.1360  -18.8897 N   0  0  0  0  0  0  0  0  0  0  0  0
   23.1372  -10.8057  -19.4193 C   0  0  1  0  0  0  0  0  0  0  0  0
   22.0610  -10.6972  -20.4733 C   0  0  0  0  0  0  0  0  0  0  0  0
   22.8425  -11.1135  -22.0697 S   0  0  0  0  0  0  0  0  0  0  0  0
   22.9851   -9.8271  -18.3332 C   0  0  0  0  0  0  0  0  0  0  0  0
   22.2995  -10.0580  -17.2958 O   0  0  0  0  0  0  0  0  0  0  0  0
   23.6194   -8.5750  -18.4303 N   0  0  0  0  0  0  0  0  0  0  0  0
   23.5539   -7.5367  -17.4154 C   0  0  1  0  0  0  0  0  0  0  0  0
   24.9370   -7.2365  -16.8789 C   0  0  0  0  0  0  0  0  0  0  0  0
   25.5755   -8.3910  -16.2269 C   0  0  0  0  0  0  0  0  0  0  0  0
   26.7667   -8.8934  -16.7291 C   0  0  0  0  0  0  0  0  0  0  0  0
   27.4091   -9.9681  -16.1650 C   0  0  0  0  0  0  0  0  0  0  0  0
   26.8825  -10.5968  -15.0593 C   0  0  0  0  0  0  0  0  0  0  0  0
   25.6981  -10.1095  -14.5475 C   0  0  0  0  0  0  0  0  0  0  0  0
   25.0448   -9.0138  -15.1239 C   0  0  0  0  0  0  0  0  0  0  0  0
   22.8834   -6.3243  -17.8684 C   0  0  0  0  0  0  0  0  0  0  0  0
   23.4458   -5.6217  -18.7746 O   0  0  0  0  0  0  0  0  0  0  0  0
   21.6440   -5.8454  -17.3913 N   0  0  0  0  0  0  0  0  0  0  0  0
   20.9493   -4.7135  -17.9750 C   0  0  1  0  0  0  0  0  0  0  0  0
   19.4544   -4.7836  -17.6431 C   0  0  0  0  0  0  0  0  0  0  0  0
   18.7580   -5.7656  -18.5417 C   0  0  0  0  0  0  0  0  0  0  0  0
   17.7920   -6.6040  -17.7615 C   0  0  0  0  0  0  0  0  0  0  0  0
   17.1900   -7.6615  -18.6158 C   0  0  0  0  0  0  0  0  0  0  0  0
   16.2080   -8.4096  -17.8361 N   0  0  0  0  0  0  0  0  0  0  0  0
   21.4481   -3.4732  -17.3411 C   0  0  0  0  0  0  0  0  0  0  0  0
   21.5748   -3.4109  -15.9385 O   0  0  0  0  0  0  0  0  0  0  0  0
   21.7740   -2.4472  -17.9881 O   0  0  0  0  0  0  0  0  0  0  0  0
  2  1  1  1
  2  3  1  0
  3  4  1  0
  5  6  2  0
  5  2  1  0
  7  5  1  0
  8  7  1  0
  8  9  1  6
 10  9  1  0
 11 10  2  0
 12 11  1  0
 13 12  2  0
 13 14  1  0
 14 15  2  0
 15 10  1  0
 16  8  1  0
 16 18  1  0
 17 16  2  0
 19 18  1  0
 19 25  1  0
 19 20  1  1
 21 20  1  0
 22 21  1  0
 23 24  1  0
 23 22  1  0
 25 26  1  0
 27 25  2  0
M  END
$$$$
