CFK.pdb
     RDKit          3D

 27 27  0  0  1  0  0  0  0  0999 V2000
   21.2374   -9.8650  -15.6780 N   0  0  0  0  0  0  0  0  0  0  0  0
   20.1435   -8.9910  -15.3472 C   0  0  1  0  0  0  0  0  0  0  0  0
   18.8611   -9.3484  -16.0604 C   0  0  0  0  0  0  0  0  0  0  0  0
   19.0473   -8.7940  -17.7897 S   0  0  0  0  0  0  0  0  0  0  0  0
   19.9854   -8.8846  -13.8897 C   0  0  0  0  0  0  0  0  0  0  0  0
   20.0754   -9.8822  -13.1175 O   0  0  0  0  0  0  0  0  0  0  0  0
   19.7226   -7.6310  -13.3075 N   0  0  0  0  0  0  0  0  0  0  0  0
   19.5898   -7.3968  -11.8794 C   0  0  1  0  0  0  0  0  0  0  0  0
   20.7077   -6.5036  -11.3858 C   0  0  0  0  0  0  0  0  0  0  0  0
   21.0113   -5.3881  -12.2963 C   0  0  0  0  0  0  0  0  0  0  0  0
   20.3336   -4.1856  -12.1616 C   0  0  0  0  0  0  0  0  0  0  0  0
   20.5721   -3.1096  -12.9809 C   0  0  0  0  0  0  0  0  0  0  0  0
   21.5110   -3.1888  -13.9845 C   0  0  0  0  0  0  0  0  0  0  0  0
   22.1939   -4.3780  -14.1319 C   0  0  0  0  0  0  0  0  0  0  0  0
   21.9493   -5.4737  -13.2957 C   0  0  0  0  0  0  0  0  0  0  0  0
   18.2833   -6.8764  -11.4959 C   0  0  0  0  0  0  0  0  0  0  0  0
   17.7291   -6.0093  -12.2523 O   0  0  0  0  0  0  0  0  0  0  0  0
   17.5571   -7.2506  -10.3446 N   0  0  0  0  0  0  0  0  0  0  0  0
   16.2372   -6.7356  -10.0329 C   0  0  1  0  0  0  0  0  0  0  0  0
   15.4780   -7.7304   -9.1475 C   0  0  0  0  0  0  0  0  0  0  0  0
   14.0768   -7.2517   -8.8944 C   0  0  0  0  0  0  0  0  0  0  0  0
   13.3166   -8.2495   -8.0752 C   0  0  0  0  0  0  0  0  0  0  0  0
   11.9249   -7.7889   -7.8271 C   0  0  0  0  0  0  0  0  0  0  0  0
   11.2236   -8.7858   -7.0230 N   0  0  0  0  0  0  0  0  0  0  0  0
   16.3873   -5.5054   -9.2248 C   0  0  0  0  0  0  0  0  0  0  0  0
   17.6325   -5.2083   -8.6343 O   0  0  0  0  0  0  0  0  0  0  0  0
   15.4540   -4.6888   -9.0261 O   0  0  0  0  0  0  0  0  0  0  0  0
  2  1  1  1
  2  3  1  0
  3  4  1  0
  5  6  2  0
  5  2  1  0
  7  5  1  0
  8  7  1  0
  8  9  1  6
 10  9  1  0
 11 10  2  0
 12 11  1  0
 13 12  2  0
 13 14  1  0
 14 15  2  0
 15 10  1  0
 16  8  1  0
 16 18  1  0
 17 16  2  0
 19 18  1  0
 19 25  1  0
 19 20  1  1
 21 20  1  0
 22 21  1  0
 23 24  1  0
 23 22  1  0
 25 26  1  0
 27 25  2  0
M  END
$$$$
