CFK.pdb
     RDKit          3D

 27 27  0  0  1  0  0  0  0  0999 V2000
   27.9967  -21.8566  -14.0398 N   0  0  0  0  0  0  0  0  0  0  0  0
   28.2015  -20.7933  -13.0924 C   0  0  1  0  0  0  0  0  0  0  0  0
   27.6563  -19.4657  -13.5627 C   0  0  0  0  0  0  0  0  0  0  0  0
   28.8007  -18.8500  -14.8448 S   0  0  0  0  0  0  0  0  0  0  0  0
   27.7130  -21.1815  -11.7615 C   0  0  0  0  0  0  0  0  0  0  0  0
   26.7503  -21.9844  -11.5939 O   0  0  0  0  0  0  0  0  0  0  0  0
   28.3268  -20.6502  -10.6123 N   0  0  0  0  0  0  0  0  0  0  0  0
   27.7833  -20.7470   -9.2679 C   0  0  1  0  0  0  0  0  0  0  0  0
   28.8341  -20.3687   -8.2464 C   0  0  0  0  0  0  0  0  0  0  0  0
   28.3018  -20.2340   -6.8811 C   0  0  0  0  0  0  0  0  0  0  0  0
   28.4442  -21.2790   -5.9804 C   0  0  0  0  0  0  0  0  0  0  0  0
   27.9682  -21.2130   -4.6940 C   0  0  0  0  0  0  0  0  0  0  0  0
   27.3200  -20.0847   -4.2446 C   0  0  0  0  0  0  0  0  0  0  0  0
   27.1701  -19.0362   -5.1281 C   0  0  0  0  0  0  0  0  0  0  0  0
   27.6561  -19.1054   -6.4390 C   0  0  0  0  0  0  0  0  0  0  0  0
   26.5579  -19.9800   -9.0810 C   0  0  0  0  0  0  0  0  0  0  0  0
   26.5380  -18.7633   -9.4687 O   0  0  0  0  0  0  0  0  0  0  0  0
   25.3659  -20.4667   -8.5021 N   0  0  0  0  0  0  0  0  0  0  0  0
   24.0558  -20.2728   -9.0941 C   0  0  1  0  0  0  0  0  0  0  0  0
   23.9389  -21.0791  -10.3926 C   0  0  0  0  0  0  0  0  0  0  0  0
   22.5464  -20.9881  -10.9487 C   0  0  0  0  0  0  0  0  0  0  0  0
   22.5078  -20.0687  -12.1310 C   0  0  0  0  0  0  0  0  0  0  0  0
   21.1172  -19.8933  -12.6272 C   0  0  0  0  0  0  0  0  0  0  0  0
   21.1146  -18.9266  -13.7215 N   0  0  0  0  0  0  0  0  0  0  0  0
   23.0352  -20.8282   -8.1782 C   0  0  0  0  0  0  0  0  0  0  0  0
   21.7459  -20.2587   -8.1452 O   0  0  0  0  0  0  0  0  0  0  0  0
   23.2486  -21.7981   -7.4093 O   0  0  0  0  0  0  0  0  0  0  0  0
  2  1  1  6
  2  3  1  0
  3  4  1  0
  5  6  2  0
  5  2  1  0
  7  5  1  0
  8  7  1  0
  8  9  1  1
 10  9  1  0
 11 10  2  0
 12 11  1  0
 13 12  2  0
 13 14  1  0
 14 15  2  0
 15 10  1  0
 16  8  1  0
 16 18  1  0
 17 16  2  0
 19 18  1  0
 19 25  1  0
 19 20  1  6
 21 20  1  0
 22 21  1  0
 23 24  1  0
 23 22  1  0
 25 26  1  0
 27 25  2  0
M  END
$$$$
