CFK.pdb
     RDKit          3D

 27 27  0  0  1  0  0  0  0  0999 V2000
   18.3307  -11.3442  -15.7172 N   0  0  0  0  0  0  0  0  0  0  0  0
   17.5545  -10.2117  -15.2870 C   0  0  1  0  0  0  0  0  0  0  0  0
   16.0688  -10.4022  -15.4802 C   0  0  0  0  0  0  0  0  0  0  0  0
   15.7816  -10.5185  -17.2793 S   0  0  0  0  0  0  0  0  0  0  0  0
   17.9153   -9.8245  -13.9157 C   0  0  0  0  0  0  0  0  0  0  0  0
   17.8850  -10.6357  -12.9458 O   0  0  0  0  0  0  0  0  0  0  0  0
   18.3140   -8.5021  -13.6477 N   0  0  0  0  0  0  0  0  0  0  0  0
   18.6788   -8.0015  -12.3330 C   0  0  1  0  0  0  0  0  0  0  0  0
   19.9860   -7.2415  -12.4027 C   0  0  0  0  0  0  0  0  0  0  0  0
   21.1408   -8.0919  -12.7326 C   0  0  0  0  0  0  0  0  0  0  0  0
   21.6762   -8.0600  -14.0116 C   0  0  0  0  0  0  0  0  0  0  0  0
   22.7519   -8.8304  -14.3794 C   0  0  0  0  0  0  0  0  0  0  0  0
   23.3481   -9.6781  -13.4733 C   0  0  0  0  0  0  0  0  0  0  0  0
   22.8275   -9.7217  -12.1968 C   0  0  0  0  0  0  0  0  0  0  0  0
   21.7310   -8.9357  -11.8238 C   0  0  0  0  0  0  0  0  0  0  0  0
   17.6322   -7.2048  -11.7047 C   0  0  0  0  0  0  0  0  0  0  0  0
   17.0290   -6.3286  -12.4116 O   0  0  0  0  0  0  0  0  0  0  0  0
   17.2124   -7.3150  -10.3614 N   0  0  0  0  0  0  0  0  0  0  0  0
   16.0550   -6.6211   -9.8290 C   0  0  1  0  0  0  0  0  0  0  0  0
   15.1505   -7.6037   -9.0765 C   0  0  0  0  0  0  0  0  0  0  0  0
   13.8815   -6.9279   -8.6411 C   0  0  0  0  0  0  0  0  0  0  0  0
   12.9732   -7.9007   -7.9529 C   0  0  0  0  0  0  0  0  0  0  0  0
   11.6882   -7.2564   -7.5734 C   0  0  0  0  0  0  0  0  0  0  0  0
   10.8312   -8.2403   -6.9177 N   0  0  0  0  0  0  0  0  0  0  0  0
   16.5134   -5.6387   -8.8221 C   0  0  0  0  0  0  0  0  0  0  0  0
   15.7731   -4.4569   -8.6155 O   0  0  0  0  0  0  0  0  0  0  0  0
   17.5449   -5.7936   -8.1225 O   0  0  0  0  0  0  0  0  0  0  0  0
  2  1  1  1
  2  3  1  0
  3  4  1  0
  5  6  2  0
  5  2  1  0
  7  5  1  0
  8  7  1  0
  8  9  1  6
 10  9  1  0
 11 10  2  0
 12 11  1  0
 13 12  2  0
 13 14  1  0
 14 15  2  0
 15 10  1  0
 16  8  1  0
 16 18  1  0
 17 16  2  0
 19 18  1  0
 19 25  1  0
 19 20  1  1
 21 20  1  0
 22 21  1  0
 23 24  1  0
 23 22  1  0
 25 26  1  0
 27 25  2  0
M  END
$$$$
