CFK.pdb
     RDKit          3D

 27 27  0  0  1  0  0  0  0  0999 V2000
   28.8834  -22.4646  -17.6880 N   0  0  0  0  0  0  0  0  0  0  0  0
   28.0049  -21.3954  -17.2940 C   0  0  1  0  0  0  0  0  0  0  0  0
   27.1246  -20.9050  -18.4189 C   0  0  0  0  0  0  0  0  0  0  0  0
   26.1946  -19.4723  -17.7744 S   0  0  0  0  0  0  0  0  0  0  0  0
   27.2515  -21.7600  -16.0857 C   0  0  0  0  0  0  0  0  0  0  0  0
   26.6916  -22.8851  -15.9425 O   0  0  0  0  0  0  0  0  0  0  0  0
   27.1353  -20.8349  -15.0320 N   0  0  0  0  0  0  0  0  0  0  0  0
   26.3793  -21.0653  -13.8124 C   0  0  1  0  0  0  0  0  0  0  0  0
   26.9589  -20.2557  -12.6724 C   0  0  0  0  0  0  0  0  0  0  0  0
   26.2607  -20.4617  -11.3936 C   0  0  0  0  0  0  0  0  0  0  0  0
   25.2711  -19.5738  -10.9986 C   0  0  0  0  0  0  0  0  0  0  0  0
   24.5854  -19.7128   -9.8170 C   0  0  0  0  0  0  0  0  0  0  0  0
   24.8618  -20.7591   -8.9662 C   0  0  0  0  0  0  0  0  0  0  0  0
   25.8435  -21.6512   -9.3443 C   0  0  0  0  0  0  0  0  0  0  0  0
   26.5413  -21.5078  -10.5492 C   0  0  0  0  0  0  0  0  0  0  0  0
   24.9492  -20.8261  -13.9625 C   0  0  0  0  0  0  0  0  0  0  0  0
   24.5685  -19.7131  -14.4598 O   0  0  0  0  0  0  0  0  0  0  0  0
   23.9246  -21.7291  -13.6048 N   0  0  0  0  0  0  0  0  0  0  0  0
   22.5127  -21.4325  -13.7565 C   0  0  1  0  0  0  0  0  0  0  0  0
   21.6953  -22.7290  -13.7297 C   0  0  0  0  0  0  0  0  0  0  0  0
   20.2311  -22.4352  -13.8922 C   0  0  0  0  0  0  0  0  0  0  0  0
   19.4433  -23.7063  -13.9839 C   0  0  0  0  0  0  0  0  0  0  0  0
   18.0067  -23.4277  -14.2465 C   0  0  0  0  0  0  0  0  0  0  0  0
   17.2695  -24.6877  -14.2777 N   0  0  0  0  0  0  0  0  0  0  0  0
   22.0653  -20.6464  -12.5856 C   0  0  0  0  0  0  0  0  0  0  0  0
   21.2055  -19.5452  -12.7740 O   0  0  0  0  0  0  0  0  0  0  0  0
   22.4107  -20.9033  -11.4057 O   0  0  0  0  0  0  0  0  0  0  0  0
  2  1  1  6
  2  3  1  0
  3  4  1  0
  5  6  2  0
  5  2  1  0
  7  5  1  0
  8  7  1  0
  8  9  1  1
 10  9  1  0
 11 10  2  0
 12 11  1  0
 13 12  2  0
 13 14  1  0
 14 15  2  0
 15 10  1  0
 16  8  1  0
 16 18  1  0
 17 16  2  0
 19 18  1  0
 19 25  1  0
 19 20  1  1
 21 20  1  0
 22 21  1  0
 23 24  1  0
 23 22  1  0
 25 26  1  0
 27 25  2  0
M  END
$$$$
