CFK.pdb
     RDKit          3D

 27 27  0  0  1  0  0  0  0  0999 V2000
   32.9182  -29.1930  -20.0560 N   0  0  0  0  0  0  0  0  0  0  0  0
   31.5432  -28.8408  -20.2913 C   0  0  1  0  0  0  0  0  0  0  0  0
   31.2416  -28.5634  -21.7449 C   0  0  0  0  0  0  0  0  0  0  0  0
   29.5130  -27.9814  -21.8231 S   0  0  0  0  0  0  0  0  0  0  0  0
   30.6419  -29.8354  -19.6923 C   0  0  0  0  0  0  0  0  0  0  0  0
   30.7865  -31.0801  -19.8637 O   0  0  0  0  0  0  0  0  0  0  0  0
   29.5669  -29.4079  -18.8915 N   0  0  0  0  0  0  0  0  0  0  0  0
   28.6374  -30.2976  -18.2158 C   0  0  1  0  0  0  0  0  0  0  0  0
   28.5214  -29.9261  -16.7531 C   0  0  0  0  0  0  0  0  0  0  0  0
   27.6818  -30.8535  -15.9782 C   0  0  0  0  0  0  0  0  0  0  0  0
   28.2558  -31.9647  -15.3787 C   0  0  0  0  0  0  0  0  0  0  0  0
   27.5246  -32.8659  -14.6445 C   0  0  0  0  0  0  0  0  0  0  0  0
   26.1694  -32.6943  -14.4745 C   0  0  0  0  0  0  0  0  0  0  0  0
   25.5830  -31.5941  -15.0644 C   0  0  0  0  0  0  0  0  0  0  0  0
   26.3300  -30.6766  -15.8125 C   0  0  0  0  0  0  0  0  0  0  0  0
   27.3287  -30.3629  -18.8544 C   0  0  0  0  0  0  0  0  0  0  0  0
   26.7338  -29.2678  -19.1334 O   0  0  0  0  0  0  0  0  0  0  0  0
   26.6443  -31.5475  -19.2029 N   0  0  0  0  0  0  0  0  0  0  0  0
   25.3550  -31.5563  -19.8677 C   0  0  1  0  0  0  0  0  0  0  0  0
   25.3348  -32.6256  -20.9659 C   0  0  0  0  0  0  0  0  0  0  0  0
   24.0369  -32.5843  -21.7213 C   0  0  0  0  0  0  0  0  0  0  0  0
   24.0477  -33.5737  -22.8464 C   0  0  0  0  0  0  0  0  0  0  0  0
   22.9229  -33.3268  -23.7868 C   0  0  0  0  0  0  0  0  0  0  0  0
   22.9240  -34.3582  -24.8204 N   0  0  0  0  0  0  0  0  0  0  0  0
   24.3204  -31.9593  -18.8897 C   0  0  0  0  0  0  0  0  0  0  0  0
   24.5384  -33.0856  -18.0704 O   0  0  0  0  0  0  0  0  0  0  0  0
   23.2340  -31.3476  -18.7389 O   0  0  0  0  0  0  0  0  0  0  0  0
  2  1  1  6
  2  3  1  0
  3  4  1  0
  5  6  2  0
  5  2  1  0
  7  5  1  0
  8  7  1  0
  8  9  1  1
 10  9  1  0
 11 10  2  0
 12 11  1  0
 13 12  2  0
 13 14  1  0
 14 15  2  0
 15 10  1  0
 16  8  1  0
 16 18  1  0
 17 16  2  0
 19 18  1  0
 19 25  1  0
 19 20  1  6
 21 20  1  0
 22 21  1  0
 23 24  1  0
 23 22  1  0
 25 26  1  0
 27 25  2  0
M  END
$$$$
