CFK.pdb
     RDKit          3D

 27 27  0  0  1  0  0  0  0  0999 V2000
   26.9992  -22.3723  -17.0142 N   0  0  0  0  0  0  0  0  0  0  0  0
   26.5788  -21.2095  -16.2786 C   0  0  1  0  0  0  0  0  0  0  0  0
   25.3665  -20.5352  -16.8758 C   0  0  0  0  0  0  0  0  0  0  0  0
   25.9256  -19.6976  -18.3985 S   0  0  0  0  0  0  0  0  0  0  0  0
   26.4216  -21.5256  -14.8517 C   0  0  0  0  0  0  0  0  0  0  0  0
   25.7807  -22.5359  -14.4417 O   0  0  0  0  0  0  0  0  0  0  0  0
   26.9997  -20.6833  -13.8842 N   0  0  0  0  0  0  0  0  0  0  0  0
   26.8079  -20.8217  -12.4503 C   0  0  1  0  0  0  0  0  0  0  0  0
   27.8644  -20.0399  -11.6996 C   0  0  0  0  0  0  0  0  0  0  0  0
   27.7182  -20.1129  -10.2372 C   0  0  0  0  0  0  0  0  0  0  0  0
   27.0103  -19.1270   -9.5660 C   0  0  0  0  0  0  0  0  0  0  0  0
   26.8406  -19.1401   -8.2033 C   0  0  0  0  0  0  0  0  0  0  0  0
   27.3779  -20.1524   -7.4407 C   0  0  0  0  0  0  0  0  0  0  0  0
   28.0850  -21.1408   -8.0930 C   0  0  0  0  0  0  0  0  0  0  0  0
   28.2569  -21.1257   -9.4821 C   0  0  0  0  0  0  0  0  0  0  0  0
   25.4658  -20.4647  -12.0074 C   0  0  0  0  0  0  0  0  0  0  0  0
   24.8516  -19.5297  -12.6237 O   0  0  0  0  0  0  0  0  0  0  0  0
   24.7659  -21.0696  -10.9411 N   0  0  0  0  0  0  0  0  0  0  0  0
   23.3588  -20.8354  -10.6772 C   0  0  1  0  0  0  0  0  0  0  0  0
   22.4969  -21.6572  -11.6423 C   0  0  0  0  0  0  0  0  0  0  0  0
   21.0366  -21.4303  -11.3723 C   0  0  0  0  0  0  0  0  0  0  0  0
   20.1934  -22.1894  -12.3508 C   0  0  0  0  0  0  0  0  0  0  0  0
   18.7456  -21.9788  -12.0858 C   0  0  0  0  0  0  0  0  0  0  0  0
   17.9632  -22.8060  -13.0000 N   0  0  0  0  0  0  0  0  0  0  0  0
   23.0411  -21.3368   -9.3219 C   0  0  0  0  0  0  0  0  0  0  0  0
   23.9966  -22.1001   -8.6206 O   0  0  0  0  0  0  0  0  0  0  0  0
   21.9483  -21.1208   -8.7418 O   0  0  0  0  0  0  0  0  0  0  0  0
  2  1  1  6
  2  3  1  0
  3  4  1  0
  5  6  2  0
  5  2  1  0
  7  5  1  0
  8  7  1  0
  8  9  1  1
 10  9  1  0
 11 10  2  0
 12 11  1  0
 13 12  2  0
 13 14  1  0
 14 15  2  0
 15 10  1  0
 16  8  1  0
 16 18  1  0
 17 16  2  0
 19 18  1  0
 19 25  1  0
 19 20  1  6
 21 20  1  0
 22 21  1  0
 23 24  1  0
 23 22  1  0
 25 26  1  0
 27 25  2  0
M  END
$$$$
