CFK.pdb
     RDKit          3D

 27 27  0  0  1  0  0  0  0  0999 V2000
   28.9549  -22.9481  -17.5091 N   0  0  0  0  0  0  0  0  0  0  0  0
   28.2486  -21.7623  -17.1026 C   0  0  1  0  0  0  0  0  0  0  0  0
   27.5547  -21.0627  -18.2472 C   0  0  0  0  0  0  0  0  0  0  0  0
   26.2720  -22.2059  -18.8641 S   0  0  0  0  0  0  0  0  0  0  0  0
   27.3540  -22.0516  -15.9727 C   0  0  0  0  0  0  0  0  0  0  0  0
   26.8166  -23.1831  -15.7984 O   0  0  0  0  0  0  0  0  0  0  0  0
   27.0697  -21.0430  -15.0339 N   0  0  0  0  0  0  0  0  0  0  0  0
   26.2060  -21.2129  -13.8774 C   0  0  1  0  0  0  0  0  0  0  0  0
   26.6152  -20.2651  -12.7706 C   0  0  0  0  0  0  0  0  0  0  0  0
   25.8541  -20.4554  -11.5256 C   0  0  0  0  0  0  0  0  0  0  0  0
   24.5944  -19.8899  -11.3955 C   0  0  0  0  0  0  0  0  0  0  0  0
   23.8370  -20.0316  -10.2587 C   0  0  0  0  0  0  0  0  0  0  0  0
   24.3112  -20.7543   -9.1873 C   0  0  0  0  0  0  0  0  0  0  0  0
   25.5626  -21.3233   -9.3006 C   0  0  0  0  0  0  0  0  0  0  0  0
   26.3331  -21.1777  -10.4602 C   0  0  0  0  0  0  0  0  0  0  0  0
   24.7876  -21.0873  -14.1893 C   0  0  0  0  0  0  0  0  0  0  0  0
   24.4196  -20.1520  -14.9772 O   0  0  0  0  0  0  0  0  0  0  0  0
   23.7620  -21.9213  -13.6939 N   0  0  0  0  0  0  0  0  0  0  0  0
   22.3600  -21.7387  -14.0190 C   0  0  1  0  0  0  0  0  0  0  0  0
   21.6956  -23.0969  -14.2713 C   0  0  0  0  0  0  0  0  0  0  0  0
   20.2414  -22.9212  -14.6047 C   0  0  0  0  0  0  0  0  0  0  0  0
   19.6117  -24.2393  -14.9373 C   0  0  0  0  0  0  0  0  0  0  0  0
   18.2256  -24.0575  -15.4437 C   0  0  0  0  0  0  0  0  0  0  0  0
   17.6475  -25.3641  -15.7448 N   0  0  0  0  0  0  0  0  0  0  0  0
   21.6721  -21.1625  -12.8426 C   0  0  0  0  0  0  0  0  0  0  0  0
   20.5894  -20.2798  -13.0328 O   0  0  0  0  0  0  0  0  0  0  0  0
   21.9985  -21.4154  -11.6566 O   0  0  0  0  0  0  0  0  0  0  0  0
  2  1  1  6
  2  3  1  0
  3  4  1  0
  5  6  2  0
  5  2  1  0
  7  5  1  0
  8  7  1  0
  8  9  1  1
 10  9  1  0
 11 10  2  0
 12 11  1  0
 13 12  2  0
 13 14  1  0
 14 15  2  0
 15 10  1  0
 16  8  1  0
 16 18  1  0
 17 16  2  0
 19 18  1  0
 19 25  1  0
 19 20  1  1
 21 20  1  0
 22 21  1  0
 23 24  1  0
 23 22  1  0
 25 26  1  0
 27 25  2  0
M  END
$$$$
