KHS.pdb
     RDKit          3D

 26 26  0  0  1  0  0  0  0  0999 V2000
    9.4546  -17.6851   17.6040 N   0  0  0  0  0  0  0  0  0  0  0  0
   10.3150  -16.8758   18.4406 C   0  0  1  0  0  0  0  0  0  0  0  0
    9.4800  -15.8063   19.0769 C   0  0  0  0  0  0  0  0  0  0  0  0
    8.8762  -14.8657   18.0581 C   0  0  0  0  0  0  0  0  0  0  0  0
    8.1621  -13.7094   18.7266 C   0  0  0  0  0  0  0  0  0  0  0  0
    7.5876  -12.7509   17.7088 C   0  0  0  0  0  0  0  0  0  0  0  0
    6.8603  -11.6618   18.3200 N   0  0  0  0  0  0  0  0  0  0  0  0
   11.0011  -17.7362   19.4369 C   0  0  0  0  0  0  0  0  0  0  0  0
   10.4986  -18.8381   19.8140 O   0  0  0  0  0  0  0  0  0  0  0  0
   12.2180  -17.3577   19.9872 N   0  0  0  0  0  0  0  0  0  0  0  0
   12.9950  -18.1931   20.9536 C   0  0  1  0  0  0  0  0  0  0  0  0
   14.3965  -17.6718   20.7351 C   0  0  0  0  0  0  0  0  0  0  0  0
   15.4899  -18.2978   21.4417 C   0  0  0  0  0  0  0  0  0  0  0  0
   15.2820  -19.4219   22.2665 C   0  0  0  0  0  0  0  0  0  0  0  0
   16.4580  -19.7691   22.7745 N   0  0  0  0  0  0  0  0  0  0  0  0
   17.3803  -18.9081   22.2985 C   0  0  0  0  0  0  0  0  0  0  0  0
   16.7759  -18.0289   21.4968 N   0  0  0  0  0  0  0  0  0  0  0  0
   12.5474  -17.8768   22.3011 C   0  0  0  0  0  0  0  0  0  0  0  0
   12.5501  -16.6774   22.6873 O   0  0  0  0  0  0  0  0  0  0  0  0
    9.8238  -19.8494   24.0782 O   0  0  0  0  0  0  0  0  0  0  0  0
   10.2112  -18.6433   24.6526 C   0  0  0  0  0  0  0  0  0  0  0  0
   11.7226  -18.4641   24.5520 C   0  0  2  0  0  0  0  0  0  0  0  0
   12.1013  -18.8616   23.1934 N   0  0  0  0  0  0  0  0  0  0  0  0
   12.3539  -19.3490   25.5337 C   0  0  0  0  0  0  0  0  0  0  0  0
   13.2299  -20.3641   25.1780 O   0  0  0  0  0  0  0  0  0  0  0  0
   12.1180  -19.2157   26.7610 O   0  0  0  0  0  0  0  0  0  0  0  0
  2  1  1  1
  3  2  1  0
  4  5  1  0
  4  3  1  0
  5  6  1  0
  6  7  1  0
  8  2  1  0
  8  9  2  0
 10  8  1  0
 11 12  1  1
 11 10  1  0
 13 17  1  0
 13 12  1  0
 14 13  2  0
 15 14  1  0
 15 16  1  0
 16 17  2  0
 18 11  1  0
 19 18  2  0
 21 20  1  0
 22 21  1  6
 22 23  1  0
 23 18  1  0
 24 22  1  0
 24 25  1  0
 26 24  2  0
M  END
$$$$
