KHS.pdb
     RDKit          3D

 26 26  0  0  1  0  0  0  0  0999 V2000
    8.1540  -17.9798   17.5795 N   0  0  0  0  0  0  0  0  0  0  0  0
    9.5824  -17.8327   17.7619 C   0  0  1  0  0  0  0  0  0  0  0  0
   10.1972  -17.5317   16.4288 C   0  0  0  0  0  0  0  0  0  0  0  0
   10.6818  -18.7790   15.7241 C   0  0  0  0  0  0  0  0  0  0  0  0
   11.3470  -18.4468   14.4046 C   0  0  0  0  0  0  0  0  0  0  0  0
   10.3414  -17.9677   13.3829 C   0  0  0  0  0  0  0  0  0  0  0  0
   10.9319  -17.7505   12.0819 N   0  0  0  0  0  0  0  0  0  0  0  0
    9.8543  -16.7775   18.7700 C   0  0  0  0  0  0  0  0  0  0  0  0
    9.5474  -15.5655   18.5554 O   0  0  0  0  0  0  0  0  0  0  0  0
   10.4552  -17.0882   19.9822 N   0  0  0  0  0  0  0  0  0  0  0  0
   10.6368  -16.1122   21.1001 C   0  0  1  0  0  0  0  0  0  0  0  0
    9.2039  -15.8606   21.5089 C   0  0  0  0  0  0  0  0  0  0  0  0
    8.4417  -14.8624   20.7952 C   0  0  0  0  0  0  0  0  0  0  0  0
    7.1833  -15.1625   20.2352 C   0  0  0  0  0  0  0  0  0  0  0  0
    6.7318  -14.0599   19.6505 N   0  0  0  0  0  0  0  0  0  0  0  0
    7.6569  -13.0945   19.8261 C   0  0  0  0  0  0  0  0  0  0  0  0
    8.6800  -13.5991   20.5187 N   0  0  0  0  0  0  0  0  0  0  0  0
   11.3562  -16.7736   22.1779 C   0  0  0  0  0  0  0  0  0  0  0  0
   11.1158  -17.9847   22.4289 O   0  0  0  0  0  0  0  0  0  0  0  0
   15.0939  -15.9912   23.0115 O   0  0  0  0  0  0  0  0  0  0  0  0
   14.3718  -16.1185   24.1935 C   0  0  0  0  0  0  0  0  0  0  0  0
   13.0733  -16.8800   23.9475 C   0  0  2  0  0  0  0  0  0  0  0  0
   12.3213  -16.1132   22.9508 N   0  0  0  0  0  0  0  0  0  0  0  0
   12.3312  -16.9371   25.2090 C   0  0  0  0  0  0  0  0  0  0  0  0
   12.7540  -17.6857   26.2975 O   0  0  0  0  0  0  0  0  0  0  0  0
   11.2605  -16.2944   25.3517 O   0  0  0  0  0  0  0  0  0  0  0  0
  2  1  1  6
  3  2  1  0
  4  5  1  0
  4  3  1  0
  5  6  1  0
  6  7  1  0
  8  2  1  0
  8  9  2  0
 10  8  1  0
 11 12  1  1
 11 10  1  0
 13 17  1  0
 13 12  1  0
 14 13  2  0
 15 14  1  0
 15 16  1  0
 16 17  2  0
 18 11  1  0
 19 18  2  0
 21 20  1  0
 22 21  1  1
 22 23  1  0
 23 18  1  0
 24 22  1  0
 24 25  1  0
 26 24  2  0
M  END
$$$$
