KHS.pdb
     RDKit          3D

 26 26  0  0  1  0  0  0  0  0999 V2000
    7.4916  -16.0303   19.8538 N   0  0  0  0  0  0  0  0  0  0  0  0
    7.8740  -15.0359   20.8337 C   0  0  1  0  0  0  0  0  0  0  0  0
    7.3019  -13.7167   20.4116 C   0  0  0  0  0  0  0  0  0  0  0  0
    8.0479  -13.1140   19.2422 C   0  0  0  0  0  0  0  0  0  0  0  0
    7.7532  -13.8561   17.9552 C   0  0  0  0  0  0  0  0  0  0  0  0
    8.4083  -13.1876   16.7684 C   0  0  0  0  0  0  0  0  0  0  0  0
    8.2340  -13.9351   15.5438 N   0  0  0  0  0  0  0  0  0  0  0  0
    7.4139  -15.4555   22.1813 C   0  0  0  0  0  0  0  0  0  0  0  0
    6.2155  -15.8175   22.3860 O   0  0  0  0  0  0  0  0  0  0  0  0
    8.2860  -15.4635   23.2613 N   0  0  0  0  0  0  0  0  0  0  0  0
    7.9492  -16.0281   24.6041 C   0  0  1  0  0  0  0  0  0  0  0  0
    7.8375  -17.5013   24.2860 C   0  0  0  0  0  0  0  0  0  0  0  0
    7.6707  -18.4373   25.3735 C   0  0  0  0  0  0  0  0  0  0  0  0
    7.6531  -18.0065   26.7156 C   0  0  0  0  0  0  0  0  0  0  0  0
    7.4863  -19.0796   27.4787 N   0  0  0  0  0  0  0  0  0  0  0  0
    7.4004  -20.1517   26.6652 C   0  0  0  0  0  0  0  0  0  0  0  0
    7.5140  -19.7427   25.4000 N   0  0  0  0  0  0  0  0  0  0  0  0
    9.0720  -15.7927   25.4986 C   0  0  0  0  0  0  0  0  0  0  0  0
   10.2431  -16.0187   25.0926 O   0  0  0  0  0  0  0  0  0  0  0  0
    8.6886  -13.5074   28.7464 O   0  0  0  0  0  0  0  0  0  0  0  0
    9.9674  -13.7137   28.2395 C   0  0  0  0  0  0  0  0  0  0  0  0
   10.0870  -15.1125   27.6431 C   0  0  2  0  0  0  0  0  0  0  0  0
    8.9021  -15.3122   26.8045 N   0  0  0  0  0  0  0  0  0  0  0  0
   10.0981  -16.0790   28.7436 C   0  0  0  0  0  0  0  0  0  0  0  0
   11.1240  -16.1472   29.6747 O   0  0  0  0  0  0  0  0  0  0  0  0
    9.1562  -16.8990   28.8852 O   0  0  0  0  0  0  0  0  0  0  0  0
  2  1  1  6
  3  2  1  0
  4  5  1  0
  4  3  1  0
  5  6  1  0
  6  7  1  0
  8  2  1  0
  8  9  2  0
 10  8  1  0
 11 12  1  6
 11 10  1  0
 13 17  1  0
 13 12  1  0
 14 13  2  0
 15 14  1  0
 15 16  1  0
 16 17  2  0
 18 11  1  0
 19 18  2  0
 21 20  1  0
 22 21  1  1
 22 23  1  0
 23 18  1  0
 24 22  1  0
 24 25  1  0
 26 24  2  0
M  END
$$$$
