KHS.pdb
     RDKit          3D

 26 26  0  0  1  0  0  0  0  0999 V2000
   10.0528  -18.1318   17.2286 N   0  0  0  0  0  0  0  0  0  0  0  0
    9.1625  -18.1929   18.3683 C   0  0  1  0  0  0  0  0  0  0  0  0
    9.0206  -19.6279   18.7766 C   0  0  0  0  0  0  0  0  0  0  0  0
   10.3467  -20.2551   19.1442 C   0  0  0  0  0  0  0  0  0  0  0  0
   10.1817  -21.7079   19.5395 C   0  0  0  0  0  0  0  0  0  0  0  0
   11.4874  -22.3043   20.0128 C   0  0  0  0  0  0  0  0  0  0  0  0
   11.3330  -23.6501   20.5166 N   0  0  0  0  0  0  0  0  0  0  0  0
    9.6855  -17.3350   19.4611 C   0  0  0  0  0  0  0  0  0  0  0  0
   10.9185  -17.0482   19.5419 O   0  0  0  0  0  0  0  0  0  0  0  0
    8.8361  -16.8196   20.4305 N   0  0  0  0  0  0  0  0  0  0  0  0
    9.2746  -15.8952   21.5208 C   0  0  1  0  0  0  0  0  0  0  0  0
    8.0529  -15.0192   21.6750 C   0  0  0  0  0  0  0  0  0  0  0  0
    7.7505  -14.0581   20.6399 C   0  0  0  0  0  0  0  0  0  0  0  0
    8.4583  -12.8433   20.5378 C   0  0  0  0  0  0  0  0  0  0  0  0
    7.9626  -12.1766   19.5028 N   0  0  0  0  0  0  0  0  0  0  0  0
    6.9810  -12.9276   18.9635 C   0  0  0  0  0  0  0  0  0  0  0  0
    6.8692  -14.0581   19.6640 N   0  0  0  0  0  0  0  0  0  0  0  0
    9.4871  -16.6756   22.7300 C   0  0  0  0  0  0  0  0  0  0  0  0
    8.8079  -17.7199   22.9185 O   0  0  0  0  0  0  0  0  0  0  0  0
   12.5843  -17.9256   26.1504 O   0  0  0  0  0  0  0  0  0  0  0  0
   12.2085  -17.0666   25.1231 C   0  0  0  0  0  0  0  0  0  0  0  0
   10.7350  -17.2575   24.7784 C   0  0  2  0  0  0  0  0  0  0  0  0
   10.4322  -16.3130   23.6997 N   0  0  0  0  0  0  0  0  0  0  0  0
    9.9425  -16.9393   25.9683 C   0  0  0  0  0  0  0  0  0  0  0  0
    9.0798  -15.8547   26.0298 O   0  0  0  0  0  0  0  0  0  0  0  0
   10.0188  -17.6549   26.9988 O   0  0  0  0  0  0  0  0  0  0  0  0
  2  1  1  6
  3  2  1  0
  4  5  1  0
  4  3  1  0
  5  6  1  0
  6  7  1  0
  8  2  1  0
  8  9  2  0
 10  8  1  0
 11 12  1  1
 11 10  1  0
 13 17  1  0
 13 12  1  0
 14 13  2  0
 15 14  1  0
 15 16  1  0
 16 17  2  0
 18 11  1  0
 19 18  2  0
 21 20  1  0
 22 21  1  1
 22 23  1  0
 23 18  1  0
 24 22  1  0
 24 25  1  0
 26 24  2  0
M  END
$$$$
