KHS.pdb
     RDKit          3D

 26 26  0  0  1  0  0  0  0  0999 V2000
    8.6372  -18.0569   16.9887 N   0  0  0  0  0  0  0  0  0  0  0  0
    8.6556  -18.5802   18.3382 C   0  0  1  0  0  0  0  0  0  0  0  0
    9.1404  -19.9973   18.2856 C   0  0  0  0  0  0  0  0  0  0  0  0
    9.0808  -20.5740   16.8888 C   0  0  0  0  0  0  0  0  0  0  0  0
    9.4912  -22.0319   16.8735 C   0  0  0  0  0  0  0  0  0  0  0  0
    9.5115  -22.5863   15.4675 C   0  0  0  0  0  0  0  0  0  0  0  0
    9.9969  -23.9465   15.4138 N   0  0  0  0  0  0  0  0  0  0  0  0
    9.5008  -17.7167   19.2006 C   0  0  0  0  0  0  0  0  0  0  0  0
   10.6507  -17.3342   18.8258 O   0  0  0  0  0  0  0  0  0  0  0  0
    9.0551  -17.3014   20.4479 N   0  0  0  0  0  0  0  0  0  0  0  0
    9.7984  -16.3469   21.3265 C   0  0  1  0  0  0  0  0  0  0  0  0
    8.6688  -15.4995   21.8648 C   0  0  0  0  0  0  0  0  0  0  0  0
    8.0775  -14.5005   21.0051 C   0  0  0  0  0  0  0  0  0  0  0  0
    8.8161  -13.8959   19.9677 C   0  0  0  0  0  0  0  0  0  0  0  0
    8.0157  -13.0303   19.3580 N   0  0  0  0  0  0  0  0  0  0  0  0
    6.8172  -13.0756   19.9746 C   0  0  0  0  0  0  0  0  0  0  0  0
    6.8757  -13.9684   20.9649 N   0  0  0  0  0  0  0  0  0  0  0  0
   10.4178  -17.1001   22.4061 C   0  0  0  0  0  0  0  0  0  0  0  0
    9.7219  -17.9146   23.0694 O   0  0  0  0  0  0  0  0  0  0  0  0
   14.0937  -18.1858   22.2663 O   0  0  0  0  0  0  0  0  0  0  0  0
   13.2458  -18.7990   23.1827 C   0  0  0  0  0  0  0  0  0  0  0  0
   12.3212  -17.7710   23.8268 C   0  0  2  0  0  0  0  0  0  0  0  0
   11.7729  -16.9604   22.7361 N   0  0  0  0  0  0  0  0  0  0  0  0
   13.1216  -16.9365   24.7259 C   0  0  0  0  0  0  0  0  0  0  0  0
   13.3296  -15.5822   24.5094 O   0  0  0  0  0  0  0  0  0  0  0  0
   13.6599  -17.4306   25.7485 O   0  0  0  0  0  0  0  0  0  0  0  0
  2  1  1  6
  3  2  1  0
  4  5  1  0
  4  3  1  0
  5  6  1  0
  6  7  1  0
  8  2  1  0
  8  9  2  0
 10  8  1  0
 11 12  1  1
 11 10  1  0
 13 17  1  0
 13 12  1  0
 14 13  2  0
 15 14  1  0
 15 16  1  0
 16 17  2  0
 18 11  1  0
 19 18  2  0
 21 20  1  0
 22 21  1  6
 22 23  1  0
 23 18  1  0
 24 22  1  0
 24 25  1  0
 26 24  2  0
M  END
$$$$
