KHS.pdb
     RDKit          3D

 26 26  0  0  1  0  0  0  0  0999 V2000
    5.3953  -16.6797   20.8799 N   0  0  0  0  0  0  0  0  0  0  0  0
    6.6448  -16.3997   21.5549 C   0  0  1  0  0  0  0  0  0  0  0  0
    7.0223  -14.9771   21.2725 C   0  0  0  0  0  0  0  0  0  0  0  0
    7.5219  -14.7845   19.8581 C   0  0  0  0  0  0  0  0  0  0  0  0
    7.8507  -13.3326   19.5796 C   0  0  0  0  0  0  0  0  0  0  0  0
    8.2241  -13.1177   18.1308 C   0  0  0  0  0  0  0  0  0  0  0  0
    8.3680  -11.7192   17.7958 N   0  0  0  0  0  0  0  0  0  0  0  0
    6.5056  -16.6786   23.0062 C   0  0  0  0  0  0  0  0  0  0  0  0
    5.4174  -16.4564   23.6191 O   0  0  0  0  0  0  0  0  0  0  0  0
    7.5672  -17.1928   23.7379 N   0  0  0  0  0  0  0  0  0  0  0  0
    7.5116  -17.4791   25.2043 C   0  0  1  0  0  0  0  0  0  0  0  0
    7.7449  -18.9721   25.2234 C   0  0  0  0  0  0  0  0  0  0  0  0
    7.8880  -19.6379   26.4972 C   0  0  0  0  0  0  0  0  0  0  0  0
    7.7934  -18.9270   27.7109 C   0  0  0  0  0  0  0  0  0  0  0  0
    7.9647  -19.7965   28.6989 N   0  0  0  0  0  0  0  0  0  0  0  0
    8.1606  -21.0111   28.1466 C   0  0  0  0  0  0  0  0  0  0  0  0
    8.1106  -20.8935   26.8182 N   0  0  0  0  0  0  0  0  0  0  0  0
    8.6181  -16.7910   25.8512 C   0  0  0  0  0  0  0  0  0  0  0  0
    9.7580  -16.8139   25.3148 O   0  0  0  0  0  0  0  0  0  0  0  0
   10.0864  -13.3419   28.8026 O   0  0  0  0  0  0  0  0  0  0  0  0
    9.0585  -14.0952   28.2453 C   0  0  0  0  0  0  0  0  0  0  0  0
    9.6125  -15.3616   27.6004 C   0  0  2  0  0  0  0  0  0  0  0  0
    8.4639  -16.0901   27.0553 N   0  0  0  0  0  0  0  0  0  0  0  0
   10.2685  -16.1554   28.6420 C   0  0  0  0  0  0  0  0  0  0  0  0
    9.7668  -17.3678   29.0921 O   0  0  0  0  0  0  0  0  0  0  0  0
   11.3337  -15.7557   29.1763 O   0  0  0  0  0  0  0  0  0  0  0  0
  2  1  1  6
  3  2  1  0
  4  5  1  0
  4  3  1  0
  5  6  1  0
  6  7  1  0
  8  2  1  0
  8  9  2  0
 10  8  1  0
 11 12  1  6
 11 10  1  0
 13 17  1  0
 13 12  1  0
 14 13  2  0
 15 14  1  0
 15 16  1  0
 16 17  2  0
 18 11  1  0
 19 18  2  0
 21 20  1  0
 22 21  1  1
 22 23  1  0
 23 18  1  0
 24 22  1  0
 24 25  1  0
 26 24  2  0
M  END
$$$$
