KHS.pdb
     RDKit          3D

 26 26  0  0  1  0  0  0  0  0999 V2000
    7.2986  -17.8647   18.8984 N   0  0  0  0  0  0  0  0  0  0  0  0
    8.2400  -16.8862   19.4000 C   0  0  1  0  0  0  0  0  0  0  0  0
    7.4715  -15.8271   20.1305 C   0  0  0  0  0  0  0  0  0  0  0  0
    7.5267  -14.4888   19.4283 C   0  0  0  0  0  0  0  0  0  0  0  0
    7.6689  -13.3500   20.4166 C   0  0  0  0  0  0  0  0  0  0  0  0
    7.6715  -12.0090   19.7192 C   0  0  0  0  0  0  0  0  0  0  0  0
    7.7641  -10.9022   20.6439 N   0  0  0  0  0  0  0  0  0  0  0  0
    9.2511  -17.5548   20.2569 C   0  0  0  0  0  0  0  0  0  0  0  0
    8.9511  -18.5614   20.9680 O   0  0  0  0  0  0  0  0  0  0  0  0
   10.5601  -17.0953   20.3048 N   0  0  0  0  0  0  0  0  0  0  0  0
   11.6432  -17.7383   21.1105 C   0  0  1  0  0  0  0  0  0  0  0  0
   12.8696  -17.3593   20.3130 C   0  0  0  0  0  0  0  0  0  0  0  0
   13.3890  -18.2988   19.3465 C   0  0  0  0  0  0  0  0  0  0  0  0
   12.7985  -19.5660   19.1651 C   0  0  0  0  0  0  0  0  0  0  0  0
   13.4860  -20.1969   18.2212 N   0  0  0  0  0  0  0  0  0  0  0  0
   14.4734  -19.3738   17.8138 C   0  0  0  0  0  0  0  0  0  0  0  0
   14.3973  -18.2346   18.5048 N   0  0  0  0  0  0  0  0  0  0  0  0
   11.6820  -17.1055   22.4199 C   0  0  0  0  0  0  0  0  0  0  0  0
   11.3177  -15.9050   22.5367 O   0  0  0  0  0  0  0  0  0  0  0  0
    9.4283  -17.5104   26.0172 O   0  0  0  0  0  0  0  0  0  0  0  0
   10.0468  -17.7718   24.7991 C   0  0  0  0  0  0  0  0  0  0  0  0
   11.5281  -17.4141   24.8638 C   0  0  2  0  0  0  0  0  0  0  0  0
   12.1051  -17.7869   23.5695 N   0  0  0  0  0  0  0  0  0  0  0  0
   12.1413  -18.1994   25.9374 C   0  0  0  0  0  0  0  0  0  0  0  0
   12.4773  -17.6567   27.1690 O   0  0  0  0  0  0  0  0  0  0  0  0
   12.3898  -19.4208   25.7757 O   0  0  0  0  0  0  0  0  0  0  0  0
  2  1  1  1
  3  2  1  0
  4  5  1  0
  4  3  1  0
  5  6  1  0
  6  7  1  0
  8  2  1  0
  8  9  2  0
 10  8  1  0
 11 12  1  6
 11 10  1  0
 13 17  1  0
 13 12  1  0
 14 13  2  0
 15 14  1  0
 15 16  1  0
 16 17  2  0
 18 11  1  0
 19 18  2  0
 21 20  1  0
 22 21  1  6
 22 23  1  0
 23 18  1  0
 24 22  1  0
 24 25  1  0
 26 24  2  0
M  END
$$$$
