KHS.pdb
     RDKit          3D

 26 26  0  0  1  0  0  0  0  0999 V2000
    9.1818  -15.8518   18.1256 N   0  0  0  0  0  0  0  0  0  0  0  0
    9.0152  -14.8152   19.1221 C   0  0  1  0  0  0  0  0  0  0  0  0
    7.7464  -14.0761   18.8230 C   0  0  0  0  0  0  0  0  0  0  0  0
    7.9021  -13.1092   17.6706 C   0  0  0  0  0  0  0  0  0  0  0  0
    7.6488  -13.7874   16.3402 C   0  0  0  0  0  0  0  0  0  0  0  0
    7.8669  -12.8379   15.1846 C   0  0  0  0  0  0  0  0  0  0  0  0
    7.7141  -13.4822   13.9000 N   0  0  0  0  0  0  0  0  0  0  0  0
    9.0218  -15.4170   20.4792 C   0  0  0  0  0  0  0  0  0  0  0  0
    8.7102  -14.7371   21.5037 O   0  0  0  0  0  0  0  0  0  0  0  0
    9.3711  -16.7473   20.6668 N   0  0  0  0  0  0  0  0  0  0  0  0
    9.4258  -17.4173   22.0023 C   0  0  1  0  0  0  0  0  0  0  0  0
    8.4555  -18.5583   21.8007 C   0  0  0  0  0  0  0  0  0  0  0  0
    7.0762  -18.2537   21.4986 C   0  0  0  0  0  0  0  0  0  0  0  0
    6.2164  -17.7045   22.4714 C   0  0  0  0  0  0  0  0  0  0  0  0
    5.0275  -17.5360   21.9061 N   0  0  0  0  0  0  0  0  0  0  0  0
    5.1178  -17.9573   20.6283 C   0  0  0  0  0  0  0  0  0  0  0  0
    6.3613  -18.3862   20.4028 N   0  0  0  0  0  0  0  0  0  0  0  0
   10.7707  -17.9336   22.2050 C   0  0  0  0  0  0  0  0  0  0  0  0
   11.1385  -18.9622   21.5772 O   0  0  0  0  0  0  0  0  0  0  0  0
   14.0607  -15.7960   23.6284 O   0  0  0  0  0  0  0  0  0  0  0  0
   14.0186  -16.8738   22.7502 C   0  0  0  0  0  0  0  0  0  0  0  0
   13.0152  -17.9169   23.2314 C   0  0  2  0  0  0  0  0  0  0  0  0
   11.6854  -17.3219   23.0733 N   0  0  0  0  0  0  0  0  0  0  0  0
   13.2833  -18.1908   24.6451 C   0  0  0  0  0  0  0  0  0  0  0  0
   12.3816  -17.8870   25.6545 O   0  0  0  0  0  0  0  0  0  0  0  0
   14.3651  -18.7229   25.0003 O   0  0  0  0  0  0  0  0  0  0  0  0
  2  1  1  6
  3  2  1  0
  4  5  1  0
  4  3  1  0
  5  6  1  0
  6  7  1  0
  8  2  1  0
  8  9  2  0
 10  8  1  0
 11 12  1  6
 11 10  1  0
 13 17  1  0
 13 12  1  0
 14 13  2  0
 15 14  1  0
 15 16  1  0
 16 17  2  0
 18 11  1  0
 19 18  2  0
 21 20  1  0
 22 21  1  1
 22 23  1  0
 23 18  1  0
 24 22  1  0
 24 25  1  0
 26 24  2  0
M  END
$$$$
