KHS.pdb
     RDKit          3D

 26 26  0  0  1  0  0  0  0  0999 V2000
   12.6636  -18.6975   15.7209 N   0  0  0  0  0  0  0  0  0  0  0  0
   11.8401  -19.1969   16.8015 C   0  0  1  0  0  0  0  0  0  0  0  0
   12.4430  -20.4756   17.2988 C   0  0  0  0  0  0  0  0  0  0  0  0
   12.0319  -21.6680   16.4643 C   0  0  0  0  0  0  0  0  0  0  0  0
   13.2226  -22.5362   16.1142 C   0  0  0  0  0  0  0  0  0  0  0  0
   12.7980  -23.7896   15.3839 C   0  0  0  0  0  0  0  0  0  0  0  0
   13.9166  -24.6366   15.0376 N   0  0  0  0  0  0  0  0  0  0  0  0
   11.7253  -18.1661   17.8636 C   0  0  0  0  0  0  0  0  0  0  0  0
   12.6771  -17.9433   18.6720 O   0  0  0  0  0  0  0  0  0  0  0  0
   10.5676  -17.4131   18.0033 N   0  0  0  0  0  0  0  0  0  0  0  0
   10.3946  -16.3248   19.0138 C   0  0  1  0  0  0  0  0  0  0  0  0
    9.1114  -15.6824   18.5399 C   0  0  0  0  0  0  0  0  0  0  0  0
    8.5328  -14.6193   19.3284 C   0  0  0  0  0  0  0  0  0  0  0  0
    9.1570  -14.1553   20.5041 C   0  0  0  0  0  0  0  0  0  0  0  0
    8.3999  -13.1865   21.0040 N   0  0  0  0  0  0  0  0  0  0  0  0
    7.3374  -13.0340   20.1877 C   0  0  0  0  0  0  0  0  0  0  0  0
    7.4367  -13.9074   19.1835 N   0  0  0  0  0  0  0  0  0  0  0  0
   10.1969  -16.9346   20.3197 C   0  0  0  0  0  0  0  0  0  0  0  0
    9.4279  -17.9268   20.4280 O   0  0  0  0  0  0  0  0  0  0  0  0
   12.5659  -15.9438   23.4590 O   0  0  0  0  0  0  0  0  0  0  0  0
   12.0011  -17.2146   23.4310 C   0  0  0  0  0  0  0  0  0  0  0  0
   10.6446  -17.1816   22.7342 C   0  0  2  0  0  0  0  0  0  0  0  0
   10.8401  -16.4629   21.4724 N   0  0  0  0  0  0  0  0  0  0  0  0
    9.7075  -16.4534   23.5927 C   0  0  0  0  0  0  0  0  0  0  0  0
    9.0972  -15.2694   23.2058 O   0  0  0  0  0  0  0  0  0  0  0  0
    9.4176  -16.8867   24.7364 O   0  0  0  0  0  0  0  0  0  0  0  0
  2  1  1  6
  3  2  1  0
  4  5  1  0
  4  3  1  0
  5  6  1  0
  6  7  1  0
  8  2  1  0
  8  9  2  0
 10  8  1  0
 11 12  1  6
 11 10  1  0
 13 17  1  0
 13 12  1  0
 14 13  2  0
 15 14  1  0
 15 16  1  0
 16 17  2  0
 18 11  1  0
 19 18  2  0
 21 20  1  0
 22 21  1  1
 22 23  1  0
 23 18  1  0
 24 22  1  0
 24 25  1  0
 26 24  2  0
M  END
$$$$
