KHS.pdb
     RDKit          3D

 26 26  0  0  1  0  0  0  0  0999 V2000
    9.7253  -17.2031   14.1568 N   0  0  0  0  0  0  0  0  0  0  0  0
    9.7933  -17.7775   15.4837 C   0  0  1  0  0  0  0  0  0  0  0  0
   10.5226  -19.0835   15.3930 C   0  0  0  0  0  0  0  0  0  0  0  0
    9.6427  -20.2599   15.7524 C   0  0  0  0  0  0  0  0  0  0  0  0
   10.4138  -21.5627   15.7074 C   0  0  0  0  0  0  0  0  0  0  0  0
    9.5468  -22.7332   16.1105 C   0  0  0  0  0  0  0  0  0  0  0  0
    9.0447  -23.4702   14.9732 N   0  0  0  0  0  0  0  0  0  0  0  0
   10.4446  -16.8204   16.4129 C   0  0  0  0  0  0  0  0  0  0  0  0
   11.4042  -16.0825   16.0339 O   0  0  0  0  0  0  0  0  0  0  0  0
   10.0204  -16.7051   17.7296 N   0  0  0  0  0  0  0  0  0  0  0  0
   10.5649  -15.7058   18.6993 C   0  0  1  0  0  0  0  0  0  0  0  0
    9.3750  -15.4956   19.6069 C   0  0  0  0  0  0  0  0  0  0  0  0
    8.5507  -14.3251   19.4141 C   0  0  0  0  0  0  0  0  0  0  0  0
    8.9045  -13.3239   18.4870 C   0  0  0  0  0  0  0  0  0  0  0  0
    7.9662  -12.3863   18.5323 N   0  0  0  0  0  0  0  0  0  0  0  0
    7.0506  -12.7666   19.4464 C   0  0  0  0  0  0  0  0  0  0  0  0
    7.4218  -13.9383   19.9664 N   0  0  0  0  0  0  0  0  0  0  0  0
   11.6546  -16.3253   19.4376 C   0  0  0  0  0  0  0  0  0  0  0  0
   11.5791  -17.5456   19.7420 O   0  0  0  0  0  0  0  0  0  0  0  0
   15.2183  -14.4688   19.7554 O   0  0  0  0  0  0  0  0  0  0  0  0
   15.1853  -15.8583   19.8080 C   0  0  0  0  0  0  0  0  0  0  0  0
   13.8969  -16.3380   20.4687 C   0  0  2  0  0  0  0  0  0  0  0  0
   12.8001  -15.6140   19.8208 N   0  0  0  0  0  0  0  0  0  0  0  0
   13.9589  -15.9968   21.8918 C   0  0  0  0  0  0  0  0  0  0  0  0
   14.9244  -16.5078   22.7467 O   0  0  0  0  0  0  0  0  0  0  0  0
   13.1195  -15.2108   22.3990 O   0  0  0  0  0  0  0  0  0  0  0  0
  2  1  1  6
  3  2  1  0
  4  5  1  0
  4  3  1  0
  5  6  1  0
  6  7  1  0
  8  2  1  0
  8  9  2  0
 10  8  1  0
 11 12  1  1
 11 10  1  0
 13 17  1  0
 13 12  1  0
 14 13  2  0
 15 14  1  0
 15 16  1  0
 16 17  2  0
 18 11  1  0
 19 18  2  0
 21 20  1  0
 22 21  1  6
 22 23  1  0
 23 18  1  0
 24 22  1  0
 24 25  1  0
 26 24  2  0
M  END
$$$$
