KHS.pdb
     RDKit          3D

 26 26  0  0  1  0  0  0  0  0999 V2000
    7.3480  -19.2865   11.7372 N   0  0  0  0  0  0  0  0  0  0  0  0
    7.7035  -18.5085   12.9050 C   0  0  1  0  0  0  0  0  0  0  0  0
    6.7443  -17.3624   13.0153 C   0  0  0  0  0  0  0  0  0  0  0  0
    6.0842  -17.0357   11.6945 C   0  0  0  0  0  0  0  0  0  0  0  0
    5.0576  -15.9324   11.8462 C   0  0  0  0  0  0  0  0  0  0  0  0
    4.3535  -15.6482   10.5393 C   0  0  0  0  0  0  0  0  0  0  0  0
    3.4055  -14.5624   10.6438 N   0  0  0  0  0  0  0  0  0  0  0  0
    7.6991  -19.3778   14.1083 C   0  0  0  0  0  0  0  0  0  0  0  0
    6.8159  -20.2735   14.2717 O   0  0  0  0  0  0  0  0  0  0  0  0
    8.6659  -19.2346   15.0941 N   0  0  0  0  0  0  0  0  0  0  0  0
    8.6991  -20.0362   16.3558 C   0  0  1  0  0  0  0  0  0  0  0  0
   10.1794  -20.3055   16.4962 C   0  0  0  0  0  0  0  0  0  0  0  0
   10.7478  -21.4435   15.8117 C   0  0  0  0  0  0  0  0  0  0  0  0
   10.2307  -22.7422   15.9942 C   0  0  0  0  0  0  0  0  0  0  0  0
   10.9491  -23.5685   15.2440 N   0  0  0  0  0  0  0  0  0  0  0  0
   11.8854  -22.8354   14.6079 C   0  0  0  0  0  0  0  0  0  0  0  0
   11.7467  -21.5567   14.9641 N   0  0  0  0  0  0  0  0  0  0  0  0
    8.2371  -19.1951   17.4492 C   0  0  0  0  0  0  0  0  0  0  0  0
    8.6726  -18.0170   17.5488 O   0  0  0  0  0  0  0  0  0  0  0  0
    5.0550  -20.3041   19.6496 O   0  0  0  0  0  0  0  0  0  0  0  0
    5.3221  -18.9434   19.5408 C   0  0  0  0  0  0  0  0  0  0  0  0
    6.8225  -18.7017   19.4105 C   0  0  2  0  0  0  0  0  0  0  0  0
    7.3118  -19.6447   18.4014 N   0  0  0  0  0  0  0  0  0  0  0  0
    7.4442  -18.9789   20.7074 C   0  0  0  0  0  0  0  0  0  0  0  0
    7.1193  -18.2820   21.8619 O   0  0  0  0  0  0  0  0  0  0  0  0
    8.3140  -19.8791   20.8212 O   0  0  0  0  0  0  0  0  0  0  0  0
  2  1  1  6
  3  2  1  0
  4  5  1  0
  4  3  1  0
  5  6  1  0
  6  7  1  0
  8  2  1  0
  8  9  2  0
 10  8  1  0
 11 12  1  1
 11 10  1  0
 13 17  1  0
 13 12  1  0
 14 13  2  0
 15 14  1  0
 15 16  1  0
 16 17  2  0
 18 11  1  0
 19 18  2  0
 21 20  1  0
 22 21  1  1
 22 23  1  0
 23 18  1  0
 24 22  1  0
 24 25  1  0
 26 24  2  0
M  END
$$$$
