KHS.pdb
     RDKit          3D

 26 26  0  0  1  0  0  0  0  0999 V2000
   10.3262  -16.3532   19.2438 N   0  0  0  0  0  0  0  0  0  0  0  0
    9.1075  -16.2283   20.0148 C   0  0  1  0  0  0  0  0  0  0  0  0
    8.4006  -17.5495   19.9925 C   0  0  0  0  0  0  0  0  0  0  0  0
    9.3520  -18.7075   19.7901 C   0  0  0  0  0  0  0  0  0  0  0  0
    8.6060  -20.0160   19.6306 C   0  0  0  0  0  0  0  0  0  0  0  0
    9.5573  -21.1850   19.5161 C   0  0  0  0  0  0  0  0  0  0  0  0
    8.8703  -22.4474   19.3644 N   0  0  0  0  0  0  0  0  0  0  0  0
    9.4278  -15.7726   21.3908 C   0  0  0  0  0  0  0  0  0  0  0  0
   10.5804  -15.9455   21.8914 O   0  0  0  0  0  0  0  0  0  0  0  0
    8.4705  -15.1412   22.1730 N   0  0  0  0  0  0  0  0  0  0  0  0
    8.6889  -14.7322   23.5945 C   0  0  1  0  0  0  0  0  0  0  0  0
    7.3888  -14.0258   23.9021 C   0  0  0  0  0  0  0  0  0  0  0  0
    7.1894  -13.4800   25.2246 C   0  0  0  0  0  0  0  0  0  0  0  0
    8.1146  -13.7148   26.2619 C   0  0  0  0  0  0  0  0  0  0  0  0
    7.6674  -13.0930   27.3459 N   0  0  0  0  0  0  0  0  0  0  0  0
    6.5078  -12.4860   27.0213 C   0  0  0  0  0  0  0  0  0  0  0  0
    6.2375  -12.7318   25.7377 N   0  0  0  0  0  0  0  0  0  0  0  0
    8.8108  -15.9329   24.4067 C   0  0  0  0  0  0  0  0  0  0  0  0
    7.9468  -16.8433   24.2968 O   0  0  0  0  0  0  0  0  0  0  0  0
   12.2238  -17.4696   25.4797 O   0  0  0  0  0  0  0  0  0  0  0  0
   11.0419  -18.2020   25.5178 C   0  0  0  0  0  0  0  0  0  0  0  0
    9.9090  -17.3595   26.0951 C   0  0  2  0  0  0  0  0  0  0  0  0
    9.8657  -16.1229   25.3101 N   0  0  0  0  0  0  0  0  0  0  0  0
   10.2280  -17.0615   27.4933 C   0  0  0  0  0  0  0  0  0  0  0  0
   10.3474  -18.0453   28.4638 O   0  0  0  0  0  0  0  0  0  0  0  0
   10.4086  -15.8762   27.8703 O   0  0  0  0  0  0  0  0  0  0  0  0
  2  1  1  6
  3  2  1  0
  4  5  1  0
  4  3  1  0
  5  6  1  0
  6  7  1  0
  8  2  1  0
  8  9  2  0
 10  8  1  0
 11 12  1  1
 11 10  1  0
 13 17  1  0
 13 12  1  0
 14 13  2  0
 15 14  1  0
 15 16  1  0
 16 17  2  0
 18 11  1  0
 19 18  2  0
 21 20  1  0
 22 21  1  6
 22 23  1  0
 23 18  1  0
 24 22  1  0
 24 25  1  0
 26 24  2  0
M  END
$$$$
