KHS.pdb
     RDKit          3D

 26 26  0  0  1  0  0  0  0  0999 V2000
    9.6092  -16.3028   16.6330 N   0  0  0  0  0  0  0  0  0  0  0  0
    9.9558  -15.3836   17.6960 C   0  0  1  0  0  0  0  0  0  0  0  0
    8.7206  -15.1064   18.4982 C   0  0  0  0  0  0  0  0  0  0  0  0
    8.2708  -13.6672   18.3827 C   0  0  0  0  0  0  0  0  0  0  0  0
    7.0081  -13.4157   19.1806 C   0  0  0  0  0  0  0  0  0  0  0  0
    6.5213  -11.9947   19.0128 C   0  0  0  0  0  0  0  0  0  0  0  0
    5.2709  -11.7517   19.6956 N   0  0  0  0  0  0  0  0  0  0  0  0
   11.0552  -15.9534   18.5147 C   0  0  0  0  0  0  0  0  0  0  0  0
   11.2174  -17.2071   18.6202 O   0  0  0  0  0  0  0  0  0  0  0  0
   11.9414  -15.1269   19.1917 N   0  0  0  0  0  0  0  0  0  0  0  0
   13.0220  -15.6231   20.0980 C   0  0  1  0  0  0  0  0  0  0  0  0
   14.0595  -14.5351   19.9447 C   0  0  0  0  0  0  0  0  0  0  0  0
   15.0200  -14.6357   18.8705 C   0  0  0  0  0  0  0  0  0  0  0  0
   15.1404  -15.8115   18.1023 C   0  0  0  0  0  0  0  0  0  0  0  0
   16.0937  -15.6060   17.2020 N   0  0  0  0  0  0  0  0  0  0  0  0
   16.5653  -14.3555   17.3824 C   0  0  0  0  0  0  0  0  0  0  0  0
   15.9045  -13.7876   18.3934 N   0  0  0  0  0  0  0  0  0  0  0  0
   12.5109  -15.6394   21.4599 C   0  0  0  0  0  0  0  0  0  0  0  0
   12.3300  -14.5490   22.0648 O   0  0  0  0  0  0  0  0  0  0  0  0
   10.2625  -18.5406   22.8595 O   0  0  0  0  0  0  0  0  0  0  0  0
   10.3079  -17.3168   23.5191 C   0  0  0  0  0  0  0  0  0  0  0  0
   11.7278  -16.7596   23.5151 C   0  0  2  0  0  0  0  0  0  0  0  0
   12.2010  -16.8309   22.1301 N   0  0  0  0  0  0  0  0  0  0  0  0
   12.5539  -17.6076   24.3776 C   0  0  0  0  0  0  0  0  0  0  0  0
   12.3201  -17.7519   25.7372 O   0  0  0  0  0  0  0  0  0  0  0  0
   13.5257  -18.2486   23.9040 O   0  0  0  0  0  0  0  0  0  0  0  0
  2  1  1  6
  3  2  1  0
  4  5  1  0
  4  3  1  0
  5  6  1  0
  6  7  1  0
  8  2  1  0
  8  9  2  0
 10  8  1  0
 11 12  1  1
 11 10  1  0
 13 17  1  0
 13 12  1  0
 14 13  2  0
 15 14  1  0
 15 16  1  0
 16 17  2  0
 18 11  1  0
 19 18  2  0
 21 20  1  0
 22 21  1  6
 22 23  1  0
 23 18  1  0
 24 22  1  0
 24 25  1  0
 26 24  2  0
M  END
$$$$
