VFI.pdb
     RDKit          3D

 27 27  0  0  1  0  0  0  0  0999 V2000
   10.7206  -20.0448   19.8357 C   0  0  0  0  0  0  0  0  0  0  0  0
   10.7320  -18.9957   20.9145 C   0  0  1  0  0  0  0  0  0  0  0  0
   12.0940  -18.9604   21.5633 C   0  0  0  0  0  0  0  0  0  0  0  0
   10.3517  -17.6702   20.2798 C   0  0  2  0  0  0  0  0  0  0  0  0
   11.3010  -17.3079   19.2701 N   0  0  0  0  0  0  0  0  0  0  0  0
   10.1306  -16.6154   21.2826 C   0  0  0  0  0  0  0  0  0  0  0  0
   11.0239  -15.7713   21.4792 O   0  0  0  0  0  0  0  0  0  0  0  0
    8.9159  -16.5736   22.0036 N   0  0  0  0  0  0  0  0  0  0  0  0
    8.5738  -15.6737   23.0530 C   0  0  1  0  0  0  0  0  0  0  0  0
    7.1470  -15.2292   23.1105 C   0  0  0  0  0  0  0  0  0  0  0  0
    6.9179  -14.2067   24.1721 C   0  0  0  0  0  0  0  0  0  0  0  0
    7.3853  -12.9261   24.1046 C   0  0  0  0  0  0  0  0  0  0  0  0
    7.1977  -11.9856   25.1296 C   0  0  0  0  0  0  0  0  0  0  0  0
    6.4925  -12.4532   26.2360 C   0  0  0  0  0  0  0  0  0  0  0  0
    6.0185  -13.7396   26.3087 C   0  0  0  0  0  0  0  0  0  0  0  0
    6.2183  -14.6344   25.2934 C   0  0  0  0  0  0  0  0  0  0  0  0
    9.1598  -16.0882   24.3386 C   0  0  0  0  0  0  0  0  0  0  0  0
    9.3120  -17.3147   24.6266 O   0  0  0  0  0  0  0  0  0  0  0  0
   10.8554  -14.1828   30.0221 C   0  0  0  0  0  0  0  0  0  0  0  0
   11.1045  -15.1362   28.8610 C   0  0  0  0  0  0  0  0  0  0  0  0
   10.3813  -14.6076   27.6308 C   0  0  2  0  0  0  0  0  0  0  0  0
    8.9888  -14.1642   28.0494 C   0  0  0  0  0  0  0  0  0  0  0  0
   10.2779  -15.6196   26.5490 C   0  0  2  0  0  0  0  0  0  0  0  0
    9.5980  -15.1703   25.3518 N   0  0  0  0  0  0  0  0  0  0  0  0
    9.6329  -16.8831   27.0569 C   0  0  0  0  0  0  0  0  0  0  0  0
    8.4053  -17.0167   26.8479 O   0  0  0  0  0  0  0  0  0  0  0  0
   10.3146  -17.8576   27.7174 O   0  0  0  0  0  0  0  0  0  0  0  0
  2  3  1  6
  2  1  1  0
  4  2  1  0
  4  5  1  6
  6  7  2  0
  6  4  1  0
  8  6  1  0
  9  8  1  0
  9 10  1  1
 10 11  1  0
 11 12  2  0
 11 16  1  0
 12 13  1  0
 13 14  2  0
 15 14  1  0
 16 15  2  0
 17 18  2  0
 17  9  1  0
 20 19  1  0
 20 21  1  0
 21 23  1  0
 21 22  1  1
 23 24  1  6
 24 17  1  0
 25 23  1  0
 26 25  2  0
 27 25  1  0
M  END
$$$$
