VFI.pdb
     RDKit          3D

 27 27  0  0  1  0  0  0  0  0999 V2000
   10.9977  -19.2352   22.0171 C   0  0  0  0  0  0  0  0  0  0  0  0
   11.7774  -18.5375   20.9355 C   0  0  1  0  0  0  0  0  0  0  0  0
   12.0218  -19.4972   19.7969 C   0  0  0  0  0  0  0  0  0  0  0  0
   10.9893  -17.3122   20.5091 C   0  0  2  0  0  0  0  0  0  0  0  0
   11.6601  -16.6319   19.4418 N   0  0  0  0  0  0  0  0  0  0  0  0
   10.6601  -16.4377   21.6467 C   0  0  0  0  0  0  0  0  0  0  0  0
   11.5575  -15.7378   22.1508 O   0  0  0  0  0  0  0  0  0  0  0  0
    9.3394  -16.4031   22.1483 N   0  0  0  0  0  0  0  0  0  0  0  0
    8.8584  -15.6254   23.2400 C   0  0  1  0  0  0  0  0  0  0  0  0
    7.4581  -15.1125   23.1266 C   0  0  0  0  0  0  0  0  0  0  0  0
    7.0728  -14.2642   24.2915 C   0  0  0  0  0  0  0  0  0  0  0  0
    6.2859  -14.6992   25.3184 C   0  0  0  0  0  0  0  0  0  0  0  0
    5.8970  -13.8778   26.3883 C   0  0  0  0  0  0  0  0  0  0  0  0
    6.3747  -12.5706   26.3310 C   0  0  0  0  0  0  0  0  0  0  0  0
    7.1679  -12.1281   25.3016 C   0  0  0  0  0  0  0  0  0  0  0  0
    7.5294  -12.9525   24.2714 C   0  0  0  0  0  0  0  0  0  0  0  0
    9.2074  -16.2313   24.5358 C   0  0  0  0  0  0  0  0  0  0  0  0
    9.0766  -17.4777   24.7350 O   0  0  0  0  0  0  0  0  0  0  0  0
   10.1968  -13.5113   29.6289 C   0  0  0  0  0  0  0  0  0  0  0  0
    9.5747  -14.4279   28.5839 C   0  0  0  0  0  0  0  0  0  0  0  0
   10.6818  -15.2329   27.9188 C   0  0  2  0  0  0  0  0  0  0  0  0
   11.6812  -14.2606   27.3130 C   0  0  0  0  0  0  0  0  0  0  0  0
   10.1713  -16.1447   26.8636 C   0  0  2  0  0  0  0  0  0  0  0  0
    9.7110  -15.4894   25.6569 N   0  0  0  0  0  0  0  0  0  0  0  0
    9.0839  -17.0358   27.4054 C   0  0  0  0  0  0  0  0  0  0  0  0
    7.9208  -16.8279   26.9901 O   0  0  0  0  0  0  0  0  0  0  0  0
    9.3109  -18.0302   28.3056 O   0  0  0  0  0  0  0  0  0  0  0  0
  2  3  1  6
  2  1  1  0
  4  2  1  0
  4  5  1  6
  6  7  2  0
  6  4  1  0
  8  6  1  0
  9  8  1  0
  9 10  1  6
 10 11  1  0
 11 12  2  0
 11 16  1  0
 12 13  1  0
 13 14  2  0
 15 14  1  0
 16 15  2  0
 17 18  2  0
 17  9  1  0
 20 19  1  0
 20 21  1  0
 21 23  1  0
 21 22  1  6
 23 24  1  6
 24 17  1  0
 25 23  1  0
 26 25  2  0
 27 25  1  0
M  END
$$$$
