VFI.pdb
     RDKit          3D

 27 27  0  0  1  0  0  0  0  0999 V2000
   11.2543  -19.1589   22.0118 C   0  0  0  0  0  0  0  0  0  0  0  0
   11.9530  -18.4201   20.9026 C   0  0  1  0  0  0  0  0  0  0  0  0
   12.2755  -19.3827   19.7861 C   0  0  0  0  0  0  0  0  0  0  0  0
   11.0479  -17.2866   20.4549 C   0  0  2  0  0  0  0  0  0  0  0  0
   11.6105  -16.6145   19.3218 N   0  0  0  0  0  0  0  0  0  0  0  0
   10.7009  -16.3803   21.5617 C   0  0  0  0  0  0  0  0  0  0  0  0
   11.5700  -15.6079   22.0059 O   0  0  0  0  0  0  0  0  0  0  0  0
    9.3952  -16.3974   22.1019 N   0  0  0  0  0  0  0  0  0  0  0  0
    8.9072  -15.6144   23.1868 C   0  0  1  0  0  0  0  0  0  0  0  0
    7.5050  -15.1086   23.0654 C   0  0  0  0  0  0  0  0  0  0  0  0
    7.1255  -14.2222   24.2036 C   0  0  0  0  0  0  0  0  0  0  0  0
    6.4095  -14.6438   25.2865 C   0  0  0  0  0  0  0  0  0  0  0  0
    6.0237  -13.7894   26.3313 C   0  0  0  0  0  0  0  0  0  0  0  0
    6.4260  -12.4637   26.1870 C   0  0  0  0  0  0  0  0  0  0  0  0
    7.1477  -12.0344   25.1009 C   0  0  0  0  0  0  0  0  0  0  0  0
    7.5082  -12.8912   24.0971 C   0  0  0  0  0  0  0  0  0  0  0  0
    9.2548  -16.2099   24.4878 C   0  0  0  0  0  0  0  0  0  0  0  0
    9.4006  -17.4637   24.6189 O   0  0  0  0  0  0  0  0  0  0  0  0
   10.0766  -12.8695   28.9820 C   0  0  0  0  0  0  0  0  0  0  0  0
   10.5041  -13.7614   27.8239 C   0  0  0  0  0  0  0  0  0  0  0  0
   10.0052  -15.1750   28.0858 C   0  0  2  0  0  0  0  0  0  0  0  0
   10.8660  -15.7905   29.1773 C   0  0  0  0  0  0  0  0  0  0  0  0
   10.0501  -16.0314   26.8735 C   0  0  2  0  0  0  0  0  0  0  0  0
    9.4534  -15.4493   25.6891 N   0  0  0  0  0  0  0  0  0  0  0  0
    9.4319  -17.3782   27.1454 C   0  0  0  0  0  0  0  0  0  0  0  0
   10.1524  -18.2278   27.7177 O   0  0  0  0  0  0  0  0  0  0  0  0
    8.1554  -17.6987   26.8008 O   0  0  0  0  0  0  0  0  0  0  0  0
  2  3  1  6
  2  1  1  0
  4  2  1  0
  4  5  1  6
  6  7  2  0
  6  4  1  0
  8  6  1  0
  9  8  1  0
  9 10  1  6
 10 11  1  0
 11 12  2  0
 11 16  1  0
 12 13  1  0
 13 14  2  0
 15 14  1  0
 16 15  2  0
 17 18  2  0
 17  9  1  0
 20 19  1  0
 20 21  1  0
 21 23  1  0
 21 22  1  1
 23 24  1  6
 24 17  1  0
 25 23  1  0
 26 25  2  0
 27 25  1  0
M  END
$$$$
