VFI.pdb
     RDKit          3D

 27 27  0  0  1  0  0  0  0  0999 V2000
   11.0031  -19.3296   21.8047 C   0  0  0  0  0  0  0  0  0  0  0  0
   11.7832  -18.5445   20.7850 C   0  0  1  0  0  0  0  0  0  0  0  0
   12.0578  -19.4174   19.5850 C   0  0  0  0  0  0  0  0  0  0  0  0
   10.9789  -17.3054   20.4357 C   0  0  2  0  0  0  0  0  0  0  0  0
   11.6207  -16.5715   19.3862 N   0  0  0  0  0  0  0  0  0  0  0  0
   10.6724  -16.4877   21.6207 C   0  0  0  0  0  0  0  0  0  0  0  0
   11.5699  -15.7827   22.1175 O   0  0  0  0  0  0  0  0  0  0  0  0
    9.3728  -16.5120   22.1753 N   0  0  0  0  0  0  0  0  0  0  0  0
    8.8850  -15.7134   23.2488 C   0  0  1  0  0  0  0  0  0  0  0  0
    7.4627  -15.2618   23.1502 C   0  0  0  0  0  0  0  0  0  0  0  0
    7.0521  -14.4339   24.3211 C   0  0  0  0  0  0  0  0  0  0  0  0
    6.2701  -14.8966   25.3395 C   0  0  0  0  0  0  0  0  0  0  0  0
    5.8570  -14.0948   26.4151 C   0  0  0  0  0  0  0  0  0  0  0  0
    6.3049  -12.7766   26.3730 C   0  0  0  0  0  0  0  0  0  0  0  0
    7.0932  -12.3062   25.3522 C   0  0  0  0  0  0  0  0  0  0  0  0
    7.4788  -13.1120   24.3161 C   0  0  0  0  0  0  0  0  0  0  0  0
    9.2876  -16.2555   24.5573 C   0  0  0  0  0  0  0  0  0  0  0  0
    9.3033  -17.5057   24.7743 O   0  0  0  0  0  0  0  0  0  0  0  0
   10.6021  -12.8227   28.9331 C   0  0  0  0  0  0  0  0  0  0  0  0
   10.8098  -13.7514   27.7441 C   0  0  0  0  0  0  0  0  0  0  0  0
   10.1982  -15.1063   28.0697 C   0  0  2  0  0  0  0  0  0  0  0  0
   10.9985  -15.7321   29.2006 C   0  0  0  0  0  0  0  0  0  0  0  0
   10.1848  -16.0234   26.9018 C   0  0  2  0  0  0  0  0  0  0  0  0
    9.6859  -15.4434   25.6721 N   0  0  0  0  0  0  0  0  0  0  0  0
    9.4199  -17.2825   27.2177 C   0  0  0  0  0  0  0  0  0  0  0  0
    8.1701  -17.2019   27.2175 O   0  0  0  0  0  0  0  0  0  0  0  0
   10.0190  -18.4715   27.4973 O   0  0  0  0  0  0  0  0  0  0  0  0
  2  3  1  6
  2  1  1  0
  4  2  1  0
  4  5  1  6
  6  7  2  0
  6  4  1  0
  8  6  1  0
  9  8  1  0
  9 10  1  1
 10 11  1  0
 11 12  2  0
 11 16  1  0
 12 13  1  0
 13 14  2  0
 15 14  1  0
 16 15  2  0
 17 18  2  0
 17  9  1  0
 20 19  1  0
 20 21  1  0
 21 23  1  0
 21 22  1  1
 23 24  1  6
 24 17  1  0
 25 23  1  0
 26 25  2  0
 27 25  1  0
M  END
$$$$
