VFI.pdb
     RDKit          3D

 27 27  0  0  1  0  0  0  0  0999 V2000
   10.6575  -20.5353   20.2884 C   0  0  0  0  0  0  0  0  0  0  0  0
   10.7163  -19.4326   21.3108 C   0  0  1  0  0  0  0  0  0  0  0  0
   12.1421  -19.2534   21.7715 C   0  0  0  0  0  0  0  0  0  0  0  0
   10.1441  -18.1777   20.6765 C   0  0  2  0  0  0  0  0  0  0  0  0
   10.8796  -17.8332   19.4965 N   0  0  0  0  0  0  0  0  0  0  0  0
   10.0276  -17.0702   21.6393 C   0  0  0  0  0  0  0  0  0  0  0  0
   10.9450  -16.2320   21.7106 O   0  0  0  0  0  0  0  0  0  0  0  0
    8.8841  -16.9723   22.4639 N   0  0  0  0  0  0  0  0  0  0  0  0
    8.6204  -15.9763   23.4470 C   0  0  1  0  0  0  0  0  0  0  0  0
    7.2330  -15.4186   23.4747 C   0  0  0  0  0  0  0  0  0  0  0  0
    7.0961  -14.2967   24.4482 C   0  0  0  0  0  0  0  0  0  0  0  0
    7.6901  -13.0782   24.2888 C   0  0  0  0  0  0  0  0  0  0  0  0
    7.5866  -12.0447   25.2329 C   0  0  0  0  0  0  0  0  0  0  0  0
    6.8266  -12.3501   26.3595 C   0  0  0  0  0  0  0  0  0  0  0  0
    6.2255  -13.5733   26.5244 C   0  0  0  0  0  0  0  0  0  0  0  0
    6.3455  -14.5620   25.5865 C   0  0  0  0  0  0  0  0  0  0  0  0
    9.1812  -16.3433   24.7581 C   0  0  0  0  0  0  0  0  0  0  0  0
    8.8101  -17.3969   25.3601 O   0  0  0  0  0  0  0  0  0  0  0  0
   10.1364  -13.4017   29.4787 C   0  0  0  0  0  0  0  0  0  0  0  0
    9.7943  -14.5910   28.5911 C   0  0  0  0  0  0  0  0  0  0  0  0
   10.9834  -14.8848   27.6879 C   0  0  2  0  0  0  0  0  0  0  0  0
   11.3296  -13.6154   26.9264 C   0  0  0  0  0  0  0  0  0  0  0  0
   10.7141  -15.9845   26.7271 C   0  0  2  0  0  0  0  0  0  0  0  0
   10.1679  -15.5656   25.4529 N   0  0  0  0  0  0  0  0  0  0  0  0
    9.8214  -17.0294   27.3448 C   0  0  0  0  0  0  0  0  0  0  0  0
    8.6461  -17.0958   26.9173 O   0  0  0  0  0  0  0  0  0  0  0  0
   10.2319  -17.8797   28.3242 O   0  0  0  0  0  0  0  0  0  0  0  0
  2  3  1  6
  2  1  1  0
  4  2  1  0
  4  5  1  6
  6  7  2  0
  6  4  1  0
  8  6  1  0
  9  8  1  0
  9 10  1  1
 10 11  1  0
 11 12  2  0
 11 16  1  0
 12 13  1  0
 13 14  2  0
 15 14  1  0
 16 15  2  0
 17 18  2  0
 17  9  1  0
 20 19  1  0
 20 21  1  0
 21 23  1  0
 21 22  1  6
 23 24  1  6
 24 17  1  0
 25 23  1  0
 26 25  2  0
 27 25  1  0
M  END
$$$$
