VFI.pdb
     RDKit          3D

 27 27  0  0  1  0  0  0  0  0999 V2000
   11.1739  -19.4375   19.5564 C   0  0  0  0  0  0  0  0  0  0  0  0
   11.0440  -18.6321   20.8209 C   0  0  1  0  0  0  0  0  0  0  0  0
   12.1971  -18.9540   21.7395 C   0  0  0  0  0  0  0  0  0  0  0  0
   10.9945  -17.1646   20.4359 C   0  0  2  0  0  0  0  0  0  0  0  0
   12.1950  -16.7856   19.7525 N   0  0  0  0  0  0  0  0  0  0  0  0
   10.6737  -16.2984   21.5821 C   0  0  0  0  0  0  0  0  0  0  0  0
   11.5944  -15.6866   22.1541 O   0  0  0  0  0  0  0  0  0  0  0  0
    9.3345  -16.1721   22.0154 N   0  0  0  0  0  0  0  0  0  0  0  0
    8.8602  -15.4069   23.1188 C   0  0  1  0  0  0  0  0  0  0  0  0
    7.4768  -14.8515   22.9988 C   0  0  0  0  0  0  0  0  0  0  0  0
    7.1195  -13.9754   24.1519 C   0  0  0  0  0  0  0  0  0  0  0  0
    7.4951  -12.6672   24.2549 C   0  0  0  0  0  0  0  0  0  0  0  0
    7.1870  -11.8654   25.3651 C   0  0  0  0  0  0  0  0  0  0  0  0
    6.4619  -12.5030   26.3690 C   0  0  0  0  0  0  0  0  0  0  0  0
    6.0799  -13.8180   26.2701 C   0  0  0  0  0  0  0  0  0  0  0  0
    6.3964  -14.5749   25.1753 C   0  0  0  0  0  0  0  0  0  0  0  0
    9.1733  -16.0532   24.4043 C   0  0  0  0  0  0  0  0  0  0  0  0
    9.1849  -17.3169   24.5191 O   0  0  0  0  0  0  0  0  0  0  0  0
   10.6649  -12.7935   28.6792 C   0  0  0  0  0  0  0  0  0  0  0  0
   10.9927  -13.8458   27.6283 C   0  0  0  0  0  0  0  0  0  0  0  0
   10.2285  -15.1200   27.9576 C   0  0  2  0  0  0  0  0  0  0  0  0
   10.9989  -15.8755   29.0285 C   0  0  0  0  0  0  0  0  0  0  0  0
   10.0355  -15.9938   26.7726 C   0  0  2  0  0  0  0  0  0  0  0  0
    9.4835  -15.3340   25.6075 N   0  0  0  0  0  0  0  0  0  0  0  0
    9.1958  -17.1946   27.1231 C   0  0  0  0  0  0  0  0  0  0  0  0
    9.7779  -18.1481   27.6892 O   0  0  0  0  0  0  0  0  0  0  0  0
    7.8650  -17.2810   26.8541 O   0  0  0  0  0  0  0  0  0  0  0  0
  2  3  1  1
  2  1  1  0
  4  2  1  0
  4  5  1  1
  6  7  2  0
  6  4  1  0
  8  6  1  0
  9  8  1  0
  9 10  1  6
 10 11  1  0
 11 12  2  0
 11 16  1  0
 12 13  1  0
 13 14  2  0
 15 14  1  0
 16 15  2  0
 17 18  2  0
 17  9  1  0
 20 19  1  0
 20 21  1  0
 21 23  1  0
 21 22  1  1
 23 24  1  6
 24 17  1  0
 25 23  1  0
 26 25  2  0
 27 25  1  0
M  END
$$$$
