VFI.pdb
     RDKit          3D

 27 27  0  0  1  0  0  0  0  0999 V2000
   10.8511  -19.3903   19.3904 C   0  0  0  0  0  0  0  0  0  0  0  0
   10.7852  -18.6436   20.6952 C   0  0  1  0  0  0  0  0  0  0  0  0
   11.9715  -19.0212   21.5479 C   0  0  0  0  0  0  0  0  0  0  0  0
   10.7390  -17.1592   20.3811 C   0  0  2  0  0  0  0  0  0  0  0  0
   11.9101  -16.7641   19.6569 N   0  0  0  0  0  0  0  0  0  0  0  0
   10.4881  -16.3434   21.5805 C   0  0  0  0  0  0  0  0  0  0  0  0
   11.4285  -15.7006   22.0822 O   0  0  0  0  0  0  0  0  0  0  0  0
    9.1924  -16.2996   22.1431 N   0  0  0  0  0  0  0  0  0  0  0  0
    8.7734  -15.5349   23.2690 C   0  0  1  0  0  0  0  0  0  0  0  0
    7.3596  -15.0475   23.2543 C   0  0  0  0  0  0  0  0  0  0  0  0
    7.0257  -14.2509   24.4705 C   0  0  0  0  0  0  0  0  0  0  0  0
    6.3120  -14.7413   25.5255 C   0  0  0  0  0  0  0  0  0  0  0  0
    5.9694  -13.9683   26.6459 C   0  0  0  0  0  0  0  0  0  0  0  0
    6.4129  -12.6484   26.6087 C   0  0  0  0  0  0  0  0  0  0  0  0
    7.1327  -12.1502   25.5511 C   0  0  0  0  0  0  0  0  0  0  0  0
    7.4504  -12.9283   24.4717 C   0  0  0  0  0  0  0  0  0  0  0  0
    9.2214  -16.1390   24.5348 C   0  0  0  0  0  0  0  0  0  0  0  0
    9.2351  -17.3980   24.6937 O   0  0  0  0  0  0  0  0  0  0  0  0
   11.0782  -12.9233   28.8984 C   0  0  0  0  0  0  0  0  0  0  0  0
   11.1473  -13.8587   27.6985 C   0  0  0  0  0  0  0  0  0  0  0  0
   10.3804  -15.1316   28.0264 C   0  0  2  0  0  0  0  0  0  0  0  0
   11.1294  -15.8712   29.1232 C   0  0  0  0  0  0  0  0  0  0  0  0
   10.2167  -16.0204   26.8481 C   0  0  2  0  0  0  0  0  0  0  0  0
    9.6690  -15.3816   25.6693 N   0  0  0  0  0  0  0  0  0  0  0  0
    9.3921  -17.2312   27.2004 C   0  0  0  0  0  0  0  0  0  0  0  0
    9.9978  -18.2004   27.7125 O   0  0  0  0  0  0  0  0  0  0  0  0
    8.0507  -17.3102   26.9879 O   0  0  0  0  0  0  0  0  0  0  0  0
  2  3  1  1
  2  1  1  0
  4  2  1  0
  4  5  1  1
  6  7  2  0
  6  4  1  0
  8  6  1  0
  9  8  1  0
  9 10  1  1
 10 11  1  0
 11 12  2  0
 11 16  1  0
 12 13  1  0
 13 14  2  0
 15 14  1  0
 16 15  2  0
 17 18  2  0
 17  9  1  0
 20 19  1  0
 20 21  1  0
 21 23  1  0
 21 22  1  1
 23 24  1  6
 24 17  1  0
 25 23  1  0
 26 25  2  0
 27 25  1  0
M  END
$$$$
