VFI.pdb
     RDKit          3D

 27 27  0  0  1  0  0  0  0  0999 V2000
   10.4674  -19.5654   19.6119 C   0  0  0  0  0  0  0  0  0  0  0  0
   10.4560  -18.6762   20.8258 C   0  0  1  0  0  0  0  0  0  0  0  0
   11.7145  -18.9062   21.6261 C   0  0  0  0  0  0  0  0  0  0  0  0
   10.3184  -17.2409   20.3512 C   0  0  2  0  0  0  0  0  0  0  0  0
   11.4207  -16.8844   19.5088 N   0  0  0  0  0  0  0  0  0  0  0  0
   10.1048  -16.3034   21.4659 C   0  0  0  0  0  0  0  0  0  0  0  0
   11.0627  -15.6218   21.8747 O   0  0  0  0  0  0  0  0  0  0  0  0
    8.8246  -16.1889   22.0533 N   0  0  0  0  0  0  0  0  0  0  0  0
    8.4603  -15.3686   23.1590 C   0  0  1  0  0  0  0  0  0  0  0  0
    7.0456  -14.8845   23.1917 C   0  0  0  0  0  0  0  0  0  0  0  0
    6.8088  -13.9112   24.2969 C   0  0  0  0  0  0  0  0  0  0  0  0
    7.1620  -12.5942   24.2357 C   0  0  0  0  0  0  0  0  0  0  0  0
    6.9706  -11.6980   25.2990 C   0  0  0  0  0  0  0  0  0  0  0  0
    6.3877  -12.2505   26.4371 C   0  0  0  0  0  0  0  0  0  0  0  0
    6.0288  -13.5740   26.5038 C   0  0  0  0  0  0  0  0  0  0  0  0
    6.2293  -14.4238   25.4506 C   0  0  0  0  0  0  0  0  0  0  0  0
    8.9744  -15.9072   24.4293 C   0  0  0  0  0  0  0  0  0  0  0  0
    9.0893  -17.1574   24.6147 O   0  0  0  0  0  0  0  0  0  0  0  0
   11.2655  -14.2949   30.0419 C   0  0  0  0  0  0  0  0  0  0  0  0
   11.1863  -15.2957   28.8967 C   0  0  0  0  0  0  0  0  0  0  0  0
   10.3973  -14.6709   27.7553 C   0  0  2  0  0  0  0  0  0  0  0  0
    9.1160  -14.0843   28.3256 C   0  0  0  0  0  0  0  0  0  0  0  0
   10.0658  -15.6476   26.6870 C   0  0  2  0  0  0  0  0  0  0  0  0
    9.3791  -15.0917   25.5394 N   0  0  0  0  0  0  0  0  0  0  0  0
    9.2743  -16.8026   27.2435 C   0  0  0  0  0  0  0  0  0  0  0  0
    9.8640  -17.5580   28.0498 O   0  0  0  0  0  0  0  0  0  0  0  0
    7.9786  -17.0505   26.9112 O   0  0  0  0  0  0  0  0  0  0  0  0
  2  3  1  6
  2  1  1  0
  4  2  1  0
  4  5  1  1
  6  7  2  0
  6  4  1  0
  8  6  1  0
  9  8  1  0
  9 10  1  1
 10 11  1  0
 11 12  2  0
 11 16  1  0
 12 13  1  0
 13 14  2  0
 15 14  1  0
 16 15  2  0
 17 18  2  0
 17  9  1  0
 20 19  1  0
 20 21  1  0
 21 23  1  0
 21 22  1  1
 23 24  1  6
 24 17  1  0
 25 23  1  0
 26 25  2  0
 27 25  1  0
M  END
$$$$
