VFI.pdb
     RDKit          3D

 27 27  0  0  1  0  0  0  0  0999 V2000
   11.1801  -20.1693   19.9784 C   0  0  0  0  0  0  0  0  0  0  0  0
   11.0521  -19.1328   21.0617 C   0  0  1  0  0  0  0  0  0  0  0  0
   12.3997  -18.9114   21.7038 C   0  0  0  0  0  0  0  0  0  0  0  0
   10.4881  -17.8705   20.4350 C   0  0  2  0  0  0  0  0  0  0  0  0
   11.3146  -17.4391   19.3474 N   0  0  0  0  0  0  0  0  0  0  0  0
   10.2351  -16.8181   21.4327 C   0  0  0  0  0  0  0  0  0  0  0  0
   11.0678  -15.9034   21.5712 O   0  0  0  0  0  0  0  0  0  0  0  0
    9.0585  -16.8581   22.2145 N   0  0  0  0  0  0  0  0  0  0  0  0
    8.6504  -15.9106   23.1963 C   0  0  1  0  0  0  0  0  0  0  0  0
    7.2032  -15.5335   23.1970 C   0  0  0  0  0  0  0  0  0  0  0  0
    6.8930  -14.4919   24.2187 C   0  0  0  0  0  0  0  0  0  0  0  0
    6.1386  -14.7235   25.3323 C   0  0  0  0  0  0  0  0  0  0  0  0
    5.8200  -13.7239   26.2649 C   0  0  0  0  0  0  0  0  0  0  0  0
    6.3325  -12.4619   25.9738 C   0  0  0  0  0  0  0  0  0  0  0  0
    7.0933  -12.2235   24.8561 C   0  0  0  0  0  0  0  0  0  0  0  0
    7.3863  -13.2185   23.9641 C   0  0  0  0  0  0  0  0  0  0  0  0
    9.2263  -16.2130   24.5173 C   0  0  0  0  0  0  0  0  0  0  0  0
    9.2766  -17.4028   24.9558 O   0  0  0  0  0  0  0  0  0  0  0  0
   10.8450  -13.7379   29.9983 C   0  0  0  0  0  0  0  0  0  0  0  0
   10.9720  -14.8901   29.0106 C   0  0  0  0  0  0  0  0  0  0  0  0
   10.3528  -14.4687   27.6859 C   0  0  2  0  0  0  0  0  0  0  0  0
    8.9317  -13.9985   27.9513 C   0  0  0  0  0  0  0  0  0  0  0  0
   10.3358  -15.5674   26.6871 C   0  0  2  0  0  0  0  0  0  0  0  0
    9.7657  -15.2193   25.4021 N   0  0  0  0  0  0  0  0  0  0  0  0
    9.6396  -16.7838   27.2401 C   0  0  0  0  0  0  0  0  0  0  0  0
    8.3965  -16.8396   27.0975 O   0  0  0  0  0  0  0  0  0  0  0  0
   10.2920  -17.7961   27.8729 O   0  0  0  0  0  0  0  0  0  0  0  0
  2  3  1  6
  2  1  1  0
  4  2  1  0
  4  5  1  6
  6  7  2  0
  6  4  1  0
  8  6  1  0
  9  8  1  0
  9 10  1  1
 10 11  1  0
 11 12  2  0
 11 16  1  0
 12 13  1  0
 13 14  2  0
 15 14  1  0
 16 15  2  0
 17 18  2  0
 17  9  1  0
 20 19  1  0
 20 21  1  0
 21 23  1  0
 21 22  1  1
 23 24  1  6
 24 17  1  0
 25 23  1  0
 26 25  2  0
 27 25  1  0
M  END
$$$$
