VFI.pdb
     RDKit          3D

 27 27  0  0  1  0  0  0  0  0999 V2000
   11.0186  -19.2173   21.9567 C   0  0  0  0  0  0  0  0  0  0  0  0
   11.8168  -18.4801   20.9155 C   0  0  1  0  0  0  0  0  0  0  0  0
   12.1301  -19.4137   19.7720 C   0  0  0  0  0  0  0  0  0  0  0  0
   11.0098  -17.2707   20.4793 C   0  0  2  0  0  0  0  0  0  0  0  0
   11.6674  -16.5918   19.4029 N   0  0  0  0  0  0  0  0  0  0  0  0
   10.6718  -16.3895   21.6091 C   0  0  0  0  0  0  0  0  0  0  0  0
   11.5506  -15.6429   22.0775 O   0  0  0  0  0  0  0  0  0  0  0  0
    9.3636  -16.4011   22.1434 N   0  0  0  0  0  0  0  0  0  0  0  0
    8.8751  -15.6190   23.2287 C   0  0  1  0  0  0  0  0  0  0  0  0
    7.4707  -15.1187   23.1101 C   0  0  0  0  0  0  0  0  0  0  0  0
    7.0900  -14.2337   24.2489 C   0  0  0  0  0  0  0  0  0  0  0  0
    6.3970  -14.6630   25.3436 C   0  0  0  0  0  0  0  0  0  0  0  0
    6.0093  -13.8106   26.3893 C   0  0  0  0  0  0  0  0  0  0  0  0
    6.3846  -12.4784   26.2330 C   0  0  0  0  0  0  0  0  0  0  0  0
    7.0832  -12.0412   25.1350 C   0  0  0  0  0  0  0  0  0  0  0  0
    7.4462  -12.8963   24.1306 C   0  0  0  0  0  0  0  0  0  0  0  0
    9.2279  -16.2121   24.5294 C   0  0  0  0  0  0  0  0  0  0  0  0
    9.2063  -17.4685   24.7065 O   0  0  0  0  0  0  0  0  0  0  0  0
   10.7215  -12.8656   28.8293 C   0  0  0  0  0  0  0  0  0  0  0  0
   10.9515  -13.8587   27.6979 C   0  0  0  0  0  0  0  0  0  0  0  0
   10.2654  -15.1702   28.0518 C   0  0  2  0  0  0  0  0  0  0  0  0
   11.0822  -15.8598   29.1327 C   0  0  0  0  0  0  0  0  0  0  0  0
   10.1216  -16.0744   26.8827 C   0  0  2  0  0  0  0  0  0  0  0  0
    9.6157  -15.4459   25.6799 N   0  0  0  0  0  0  0  0  0  0  0  0
    9.2705  -17.2682   27.2298 C   0  0  0  0  0  0  0  0  0  0  0  0
    8.0317  -17.1390   27.0983 O   0  0  0  0  0  0  0  0  0  0  0  0
    9.7824  -18.4491   27.6703 O   0  0  0  0  0  0  0  0  0  0  0  0
  2  3  1  6
  2  1  1  0
  4  2  1  0
  4  5  1  6
  6  7  2  0
  6  4  1  0
  8  6  1  0
  9  8  1  0
  9 10  1  6
 10 11  1  0
 11 12  2  0
 11 16  1  0
 12 13  1  0
 13 14  2  0
 15 14  1  0
 16 15  2  0
 17 18  2  0
 17  9  1  0
 20 19  1  0
 20 21  1  0
 21 23  1  0
 21 22  1  1
 23 24  1  6
 24 17  1  0
 25 23  1  0
 26 25  2  0
 27 25  1  0
M  END
$$$$
