VFI.pdb
     RDKit          3D

 27 27  0  0  1  0  0  0  0  0999 V2000
    8.6864  -20.3506   23.5261 C   0  0  0  0  0  0  0  0  0  0  0  0
    9.0616  -20.0657   22.0969 C   0  0  1  0  0  0  0  0  0  0  0  0
    8.7066  -21.2560   21.2399 C   0  0  0  0  0  0  0  0  0  0  0  0
    8.3404  -18.8005   21.6688 C   0  0  2  0  0  0  0  0  0  0  0  0
    8.5783  -18.5336   20.2816 N   0  0  0  0  0  0  0  0  0  0  0  0
    8.6478  -17.6596   22.5468 C   0  0  0  0  0  0  0  0  0  0  0  0
    9.7858  -17.1569   22.5087 O   0  0  0  0  0  0  0  0  0  0  0  0
    7.6548  -17.1524   23.4149 N   0  0  0  0  0  0  0  0  0  0  0  0
    7.7784  -16.0466   24.3038 C   0  0  1  0  0  0  0  0  0  0  0  0
    6.5993  -15.1312   24.3962 C   0  0  0  0  0  0  0  0  0  0  0  0
    6.8323  -14.0070   25.3485 C   0  0  0  0  0  0  0  0  0  0  0  0
    6.5035  -14.0546   26.6724 C   0  0  0  0  0  0  0  0  0  0  0  0
    6.6905  -12.9743   27.5489 C   0  0  0  0  0  0  0  0  0  0  0  0
    7.2420  -11.8342   26.9691 C   0  0  0  0  0  0  0  0  0  0  0  0
    7.5763  -11.7811   25.6387 C   0  0  0  0  0  0  0  0  0  0  0  0
    7.3808  -12.8507   24.8084 C   0  0  0  0  0  0  0  0  0  0  0  0
    8.3718  -16.4462   25.5907 C   0  0  0  0  0  0  0  0  0  0  0  0
    7.8465  -17.3561   26.3025 O   0  0  0  0  0  0  0  0  0  0  0  0
   14.2084  -17.2623   27.0928 C   0  0  0  0  0  0  0  0  0  0  0  0
   12.7684  -17.3505   27.5809 C   0  0  0  0  0  0  0  0  0  0  0  0
   11.8919  -16.4994   26.6736 C   0  0  2  0  0  0  0  0  0  0  0  0
   12.3414  -15.0523   26.7960 C   0  0  0  0  0  0  0  0  0  0  0  0
   10.4493  -16.6033   27.0102 C   0  0  2  0  0  0  0  0  0  0  0  0
    9.5615  -15.8600   26.1403 N   0  0  0  0  0  0  0  0  0  0  0  0
   10.2038  -16.2105   28.4439 C   0  0  0  0  0  0  0  0  0  0  0  0
   10.6937  -16.9514   29.3268 O   0  0  0  0  0  0  0  0  0  0  0  0
    9.4881  -15.1118   28.8063 O   0  0  0  0  0  0  0  0  0  0  0  0
  2  3  1  6
  2  1  1  0
  4  2  1  0
  4  5  1  6
  6  7  2  0
  6  4  1  0
  8  6  1  0
  9  8  1  0
  9 10  1  1
 10 11  1  0
 11 12  2  0
 11 16  1  0
 12 13  1  0
 13 14  2  0
 15 14  1  0
 16 15  2  0
 17 18  2  0
 17  9  1  0
 20 19  1  0
 20 21  1  0
 21 23  1  0
 21 22  1  1
 23 24  1  6
 24 17  1  0
 25 23  1  0
 26 25  2  0
 27 25  1  0
M  END
$$$$
