VFI.pdb
     RDKit          3D

 27 27  0  0  1  0  0  0  0  0999 V2000
   10.0084  -19.3857   23.0219 C   0  0  0  0  0  0  0  0  0  0  0  0
   10.7019  -18.9477   21.7603 C   0  0  1  0  0  0  0  0  0  0  0  0
   10.7737  -20.1095   20.7999 C   0  0  0  0  0  0  0  0  0  0  0  0
    9.9358  -17.7662   21.1932 C   0  0  2  0  0  0  0  0  0  0  0  0
   10.4735  -17.3847   19.9215 N   0  0  0  0  0  0  0  0  0  0  0  0
    9.8438  -16.6509   22.1496 C   0  0  0  0  0  0  0  0  0  0  0  0
   10.8428  -15.9329   22.3390 O   0  0  0  0  0  0  0  0  0  0  0  0
    8.6317  -16.4102   22.8352 N   0  0  0  0  0  0  0  0  0  0  0  0
    8.3779  -15.3859   23.7914 C   0  0  1  0  0  0  0  0  0  0  0  0
    7.0928  -14.6362   23.6393 C   0  0  0  0  0  0  0  0  0  0  0  0
    6.9367  -13.5707   24.6715 C   0  0  0  0  0  0  0  0  0  0  0  0
    7.6499  -12.4070   24.6735 C   0  0  0  0  0  0  0  0  0  0  0  0
    7.5226  -11.4306   25.6740 C   0  0  0  0  0  0  0  0  0  0  0  0
    6.6067  -11.7330   26.6788 C   0  0  0  0  0  0  0  0  0  0  0  0
    5.8852  -12.9011   26.6810 C   0  0  0  0  0  0  0  0  0  0  0  0
    6.0321  -13.8349   25.6921 C   0  0  0  0  0  0  0  0  0  0  0  0
    8.6946  -15.8278   25.1598 C   0  0  0  0  0  0  0  0  0  0  0  0
    7.8075  -16.3450   25.9054 O   0  0  0  0  0  0  0  0  0  0  0  0
   10.4684  -17.8624   30.1828 C   0  0  0  0  0  0  0  0  0  0  0  0
   10.3518  -16.5204   29.4723 C   0  0  0  0  0  0  0  0  0  0  0  0
   10.1000  -16.7711   27.9925 C   0  0  2  0  0  0  0  0  0  0  0  0
   11.1363  -17.7653   27.4937 C   0  0  0  0  0  0  0  0  0  0  0  0
   10.1705  -15.5290   27.1817 C   0  0  2  0  0  0  0  0  0  0  0  0
    9.9957  -15.7163   25.7563 N   0  0  0  0  0  0  0  0  0  0  0  0
   11.4570  -14.7899   27.4440 C   0  0  0  0  0  0  0  0  0  0  0  0
   12.2719  -14.7158   26.4959 O   0  0  0  0  0  0  0  0  0  0  0  0
   11.7598  -14.2166   28.6400 O   0  0  0  0  0  0  0  0  0  0  0  0
  2  3  1  6
  2  1  1  0
  4  2  1  0
  4  5  1  6
  6  7  2  0
  6  4  1  0
  8  6  1  0
  9  8  1  0
  9 10  1  1
 10 11  1  0
 11 12  2  0
 11 16  1  0
 12 13  1  0
 13 14  2  0
 15 14  1  0
 16 15  2  0
 17 18  2  0
 17  9  1  0
 20 19  1  0
 20 21  1  0
 21 23  1  0
 21 22  1  6
 23 24  1  6
 24 17  1  0
 25 23  1  0
 26 25  2  0
 27 25  1  0
M  END
$$$$
