VFI.pdb
     RDKit          3D

 27 27  0  0  1  0  0  0  0  0999 V2000
   11.0980  -19.0267   22.0348 C   0  0  0  0  0  0  0  0  0  0  0  0
   11.5903  -18.3876   20.7645 C   0  0  1  0  0  0  0  0  0  0  0  0
   11.8161  -19.4554   19.7224 C   0  0  0  0  0  0  0  0  0  0  0  0
   10.5631  -17.3565   20.3329 C   0  0  2  0  0  0  0  0  0  0  0  0
   10.9470  -16.7575   19.0897 N   0  0  0  0  0  0  0  0  0  0  0  0
   10.2784  -16.3760   21.3933 C   0  0  0  0  0  0  0  0  0  0  0  0
   11.1241  -15.4992   21.6490 O   0  0  0  0  0  0  0  0  0  0  0  0
    9.0575  -16.4408   22.1021 N   0  0  0  0  0  0  0  0  0  0  0  0
    8.6400  -15.5928   23.1673 C   0  0  1  0  0  0  0  0  0  0  0  0
    7.2085  -15.1601   23.1522 C   0  0  0  0  0  0  0  0  0  0  0  0
    6.9046  -14.1807   24.2355 C   0  0  0  0  0  0  0  0  0  0  0  0
    6.2743  -14.5104   25.4004 C   0  0  0  0  0  0  0  0  0  0  0  0
    5.9576  -13.5710   26.3941 C   0  0  0  0  0  0  0  0  0  0  0  0
    6.3349  -12.2611   26.1079 C   0  0  0  0  0  0  0  0  0  0  0  0
    6.9707  -11.9239   24.9387 C   0  0  0  0  0  0  0  0  0  0  0  0
    7.2652  -12.8623   23.9878 C   0  0  0  0  0  0  0  0  0  0  0  0
    9.1452  -16.0632   24.4679 C   0  0  0  0  0  0  0  0  0  0  0  0
    9.2844  -17.3011   24.7103 O   0  0  0  0  0  0  0  0  0  0  0  0
   10.9189  -14.3192   30.1952 C   0  0  0  0  0  0  0  0  0  0  0  0
   11.1546  -15.2256   28.9943 C   0  0  0  0  0  0  0  0  0  0  0  0
   10.3822  -14.6725   27.8054 C   0  0  2  0  0  0  0  0  0  0  0  0
    9.0356  -14.1716   28.3023 C   0  0  0  0  0  0  0  0  0  0  0  0
   10.1747  -15.6834   26.7376 C   0  0  2  0  0  0  0  0  0  0  0  0
    9.5140  -15.1907   25.5467 N   0  0  0  0  0  0  0  0  0  0  0  0
    9.4347  -16.8825   27.2711 C   0  0  0  0  0  0  0  0  0  0  0  0
    8.1999  -16.9243   27.0660 O   0  0  0  0  0  0  0  0  0  0  0  0
   10.0402  -17.8939   27.9503 O   0  0  0  0  0  0  0  0  0  0  0  0
  2  3  1  6
  2  1  1  0
  4  2  1  0
  4  5  1  6
  6  7  2  0
  6  4  1  0
  8  6  1  0
  9  8  1  0
  9 10  1  1
 10 11  1  0
 11 12  2  0
 11 16  1  0
 12 13  1  0
 13 14  2  0
 15 14  1  0
 16 15  2  0
 17 18  2  0
 17  9  1  0
 20 19  1  0
 20 21  1  0
 21 23  1  0
 21 22  1  1
 23 24  1  6
 24 17  1  0
 25 23  1  0
 26 25  2  0
 27 25  1  0
M  END
$$$$
