VFI.pdb
     RDKit          3D

 27 27  0  0  1  0  0  0  0  0999 V2000
   10.8645  -19.2798   22.0985 C   0  0  0  0  0  0  0  0  0  0  0  0
   11.4605  -18.6582   20.8644 C   0  0  1  0  0  0  0  0  0  0  0  0
   11.5855  -19.7071   19.7868 C   0  0  0  0  0  0  0  0  0  0  0  0
   10.5729  -17.4980   20.4517 C   0  0  2  0  0  0  0  0  0  0  0  0
   11.0853  -16.8715   19.2698 N   0  0  0  0  0  0  0  0  0  0  0  0
   10.3355  -16.5569   21.5585 C   0  0  0  0  0  0  0  0  0  0  0  0
   11.2656  -15.8214   21.9369 O   0  0  0  0  0  0  0  0  0  0  0  0
    9.0640  -16.4995   22.1726 N   0  0  0  0  0  0  0  0  0  0  0  0
    8.6820  -15.6835   23.2755 C   0  0  1  0  0  0  0  0  0  0  0  0
    7.2912  -15.1345   23.2477 C   0  0  0  0  0  0  0  0  0  0  0  0
    7.0402  -14.1793   24.3656 C   0  0  0  0  0  0  0  0  0  0  0  0
    6.4092  -14.5203   25.5268 C   0  0  0  0  0  0  0  0  0  0  0  0
    6.1428  -13.6015   26.5540 C   0  0  0  0  0  0  0  0  0  0  0  0
    6.5716  -12.2997   26.3055 C   0  0  0  0  0  0  0  0  0  0  0  0
    7.2084  -11.9513   25.1402 C   0  0  0  0  0  0  0  0  0  0  0  0
    7.4530  -12.8696   24.1561 C   0  0  0  0  0  0  0  0  0  0  0  0
    9.1059  -16.2688   24.5584 C   0  0  0  0  0  0  0  0  0  0  0  0
    8.9260  -17.4993   24.8109 O   0  0  0  0  0  0  0  0  0  0  0  0
   10.1773  -13.6255   29.6406 C   0  0  0  0  0  0  0  0  0  0  0  0
    9.5961  -14.5594   28.5874 C   0  0  0  0  0  0  0  0  0  0  0  0
   10.7416  -15.2417   27.8537 C   0  0  2  0  0  0  0  0  0  0  0  0
   11.6228  -14.1661   27.2390 C   0  0  0  0  0  0  0  0  0  0  0  0
   10.2706  -16.1669   26.7920 C   0  0  2  0  0  0  0  0  0  0  0  0
    9.7409  -15.5228   25.6079 N   0  0  0  0  0  0  0  0  0  0  0  0
    9.2577  -17.1391   27.3389 C   0  0  0  0  0  0  0  0  0  0  0  0
    8.0731  -16.9981   26.9579 O   0  0  0  0  0  0  0  0  0  0  0  0
    9.5723  -18.1367   28.2087 O   0  0  0  0  0  0  0  0  0  0  0  0
  2  3  1  6
  2  1  1  0
  4  2  1  0
  4  5  1  6
  6  7  2  0
  6  4  1  0
  8  6  1  0
  9  8  1  0
  9 10  1  1
 10 11  1  0
 11 12  2  0
 11 16  1  0
 12 13  1  0
 13 14  2  0
 15 14  1  0
 16 15  2  0
 17 18  2  0
 17  9  1  0
 20 19  1  0
 20 21  1  0
 21 23  1  0
 21 22  1  6
 23 24  1  6
 24 17  1  0
 25 23  1  0
 26 25  2  0
 27 25  1  0
M  END
$$$$
