VFI.pdb
     RDKit          3D

 27 27  0  0  1  0  0  0  0  0999 V2000
   11.7668  -19.0524   19.0303 C   0  0  0  0  0  0  0  0  0  0  0  0
   11.7946  -17.8550   19.9413 C   0  0  1  0  0  0  0  0  0  0  0  0
   11.6953  -16.5959   19.1154 C   0  0  0  0  0  0  0  0  0  0  0  0
   10.6533  -17.9964   20.9322 C   0  0  2  0  0  0  0  0  0  0  0  0
    9.4108  -18.1759   20.2424 N   0  0  0  0  0  0  0  0  0  0  0  0
   10.6269  -16.8981   21.9120 C   0  0  0  0  0  0  0  0  0  0  0  0
   11.6215  -16.7099   22.6363 O   0  0  0  0  0  0  0  0  0  0  0  0
    9.4818  -16.0766   22.0171 N   0  0  0  0  0  0  0  0  0  0  0  0
    8.9557  -15.4890   23.2029 C   0  0  1  0  0  0  0  0  0  0  0  0
    7.4695  -15.3343   23.2668 C   0  0  0  0  0  0  0  0  0  0  0  0
    7.0449  -14.4239   24.3695 C   0  0  0  0  0  0  0  0  0  0  0  0
    6.2266  -14.8042   25.3936 C   0  0  0  0  0  0  0  0  0  0  0  0
    5.8014  -13.9259   26.4027 C   0  0  0  0  0  0  0  0  0  0  0  0
    6.2772  -12.6219   26.2875 C   0  0  0  0  0  0  0  0  0  0  0  0
    7.1019  -12.2342   25.2607 C   0  0  0  0  0  0  0  0  0  0  0  0
    7.4985  -13.1134   24.2904 C   0  0  0  0  0  0  0  0  0  0  0  0
    9.5868  -16.0440   24.4119 C   0  0  0  0  0  0  0  0  0  0  0  0
   10.3501  -17.0559   24.3496 O   0  0  0  0  0  0  0  0  0  0  0  0
   10.3543  -12.6720   28.7574 C   0  0  0  0  0  0  0  0  0  0  0  0
   10.7149  -13.6403   27.6386 C   0  0  0  0  0  0  0  0  0  0  0  0
   10.2205  -15.0292   28.0160 C   0  0  2  0  0  0  0  0  0  0  0  0
   11.1378  -15.5862   29.0927 C   0  0  0  0  0  0  0  0  0  0  0  0
   10.1886  -15.9591   26.8586 C   0  0  2  0  0  0  0  0  0  0  0  0
    9.4007  -15.5074   25.7305 N   0  0  0  0  0  0  0  0  0  0  0  0
    9.7289  -17.3293   27.2845 C   0  0  0  0  0  0  0  0  0  0  0  0
    8.4973  -17.5528   27.2423 O   0  0  0  0  0  0  0  0  0  0  0  0
   10.5777  -18.3064   27.7034 O   0  0  0  0  0  0  0  0  0  0  0  0
  2  3  1  6
  2  1  1  0
  4  2  1  0
  4  5  1  6
  6  7  2  0
  6  4  1  0
  8  6  1  0
  9  8  1  0
  9 10  1  1
 10 11  1  0
 11 12  2  0
 11 16  1  0
 12 13  1  0
 13 14  2  0
 15 14  1  0
 16 15  2  0
 17 18  2  0
 17  9  1  0
 20 19  1  0
 20 21  1  0
 21 23  1  0
 21 22  1  1
 23 24  1  6
 24 17  1  0
 25 23  1  0
 26 25  2  0
 27 25  1  0
M  END
$$$$
