LHD.pdb
     RDKit          3D

 27 27  0  0  1  0  0  0  0  0999 V2000
   29.2806  -19.9562   -5.2327 C   0  0  0  0  0  0  0  0  0  0  0  0
   27.8310  -20.0395   -5.6513 C   0  0  1  0  0  0  0  0  0  0  0  0
   27.0709  -18.9391   -4.9426 C   0  0  0  0  0  0  0  0  0  0  0  0
   27.6626  -19.8234   -7.1400 C   0  0  0  0  0  0  0  0  0  0  0  0
   26.2462  -19.9817   -7.5878 C   0  0  2  0  0  0  0  0  0  0  0  0
   25.5913  -21.1519   -7.0544 N   0  0  0  0  0  0  0  0  0  0  0  0
   26.2249  -19.9551   -9.0730 C   0  0  0  0  0  0  0  0  0  0  0  0
   26.7267  -18.9457   -9.6303 O   0  0  0  0  0  0  0  0  0  0  0  0
   25.6886  -20.9694   -9.8753 N   0  0  0  0  0  0  0  0  0  0  0  0
   25.6549  -20.9322  -11.3222 C   0  0  1  0  0  0  0  0  0  0  0  0
   26.3732  -22.0921  -11.9370 C   0  0  0  0  0  0  0  0  0  0  0  0
   26.4476  -21.9114  -13.4104 C   0  0  0  0  0  0  0  0  0  0  0  0
   25.9554  -20.7969  -14.0865 C   0  0  0  0  0  0  0  0  0  0  0  0
   26.1735  -20.9332  -15.4096 N   0  0  0  0  0  0  0  0  0  0  0  0
   26.7903  -22.1116  -15.5533 C   0  0  0  0  0  0  0  0  0  0  0  0
   26.9606  -22.7115  -14.3462 N   0  0  0  0  0  0  0  0  0  0  0  0
   24.2815  -20.7486  -11.7649 C   0  0  0  0  0  0  0  0  0  0  0  0
   23.3422  -21.2178  -11.0792 O   0  0  0  0  0  0  0  0  0  0  0  0
   23.9277  -20.0434  -12.9723 N   0  0  0  0  0  0  0  0  0  0  0  0
   22.5589  -19.7492  -13.3039 C   0  0  1  0  0  0  0  0  0  0  0  0
   22.4296  -18.6444  -14.2902 C   0  0  0  0  0  0  0  0  0  0  0  0
   21.0216  -18.3426  -14.5541 C   0  0  0  0  0  0  0  0  0  0  0  0
   20.2717  -19.2205  -15.0281 O   0  0  0  0  0  0  0  0  0  0  0  0
   21.8609  -20.9914  -13.7676 C   0  0  0  0  0  0  0  0  0  0  0  0
   20.7898  -21.3727  -13.2352 O   0  0  0  0  0  0  0  0  0  0  0  0
   20.4996  -17.0771  -14.2815 O   0  0  0  0  0  0  0  0  0  0  0  0
   22.3654  -21.7712  -14.8008 O   0  0  0  0  0  0  0  0  0  0  0  0
  2  4  1  0
  2  1  1  6
  3  2  1  0
  5  4  1  0
  5  6  1  6
  7  8  2  0
  7  5  1  0
  9  7  1  0
 10  9  1  0
 10 11  1  6
 12 11  1  0
 13 12  2  0
 14 13  1  0
 14 15  1  0
 15 16  2  0
 16 12  1  0
 17 18  2  0
 17 10  1  0
 19 17  1  0
 20 21  1  6
 20 19  1  0
 21 22  1  0
 22 26  1  0
 22 23  2  0
 24 20  1  0
 25 24  2  0
 27 24  1  0
M  END
$$$$
