LHD.pdb
     RDKit          3D

 27 27  0  0  1  0  0  0  0  0999 V2000
   31.9053  -12.6842  -23.7161 C   0  0  0  0  0  0  0  0  0  0  0  0
   30.7302  -11.9835  -23.0745 C   0  0  1  0  0  0  0  0  0  0  0  0
   30.1182  -11.0531  -24.0995 C   0  0  0  0  0  0  0  0  0  0  0  0
   29.6564  -12.9619  -22.6490 C   0  0  0  0  0  0  0  0  0  0  0  0
   28.4659  -12.2856  -22.0515 C   0  0  2  0  0  0  0  0  0  0  0  0
   28.7847  -11.3954  -20.9612 N   0  0  0  0  0  0  0  0  0  0  0  0
   27.4902  -13.3329  -21.6535 C   0  0  0  0  0  0  0  0  0  0  0  0
   27.0262  -14.0554  -22.5721 O   0  0  0  0  0  0  0  0  0  0  0  0
   27.0641  -13.5593  -20.3394 N   0  0  0  0  0  0  0  0  0  0  0  0
   26.1576  -14.6181  -19.9474 C   0  0  1  0  0  0  0  0  0  0  0  0
   26.6514  -15.3763  -18.7555 C   0  0  0  0  0  0  0  0  0  0  0  0
   27.7245  -16.3174  -19.1699 C   0  0  0  0  0  0  0  0  0  0  0  0
   28.1973  -16.4373  -20.4751 C   0  0  0  0  0  0  0  0  0  0  0  0
   29.1659  -17.3732  -20.5251 N   0  0  0  0  0  0  0  0  0  0  0  0
   29.2929  -17.8270  -19.2731 C   0  0  0  0  0  0  0  0  0  0  0  0
   28.4229  -17.1924  -18.4448 N   0  0  0  0  0  0  0  0  0  0  0  0
   24.8132  -14.0765  -19.8238 C   0  0  0  0  0  0  0  0  0  0  0  0
   23.8463  -14.8548  -19.6448 O   0  0  0  0  0  0  0  0  0  0  0  0
   24.5193  -12.6663  -19.8965 N   0  0  0  0  0  0  0  0  0  0  0  0
   23.1793  -12.1635  -19.7496 C   0  0  1  0  0  0  0  0  0  0  0  0
   22.9788  -11.4203  -18.4777 C   0  0  0  0  0  0  0  0  0  0  0  0
   21.6394  -10.8321  -18.4226 C   0  0  0  0  0  0  0  0  0  0  0  0
   20.6320  -11.5690  -18.4218 O   0  0  0  0  0  0  0  0  0  0  0  0
   22.8043  -11.3358  -20.9409 C   0  0  0  0  0  0  0  0  0  0  0  0
   23.6779  -10.7526  -21.6286 O   0  0  0  0  0  0  0  0  0  0  0  0
   21.4693   -9.4477  -18.3704 O   0  0  0  0  0  0  0  0  0  0  0  0
   21.4812  -11.1781  -21.3346 O   0  0  0  0  0  0  0  0  0  0  0  0
  2  4  1  0
  2  1  1  6
  3  2  1  0
  5  4  1  0
  5  6  1  1
  7  8  2  0
  7  5  1  0
  9  7  1  0
 10  9  1  0
 10 11  1  1
 12 11  1  0
 13 12  2  0
 14 13  1  0
 14 15  1  0
 15 16  2  0
 16 12  1  0
 17 18  2  0
 17 10  1  0
 19 17  1  0
 20 21  1  1
 20 19  1  0
 21 22  1  0
 22 26  1  0
 22 23  2  0
 24 20  1  0
 25 24  2  0
 27 24  1  0
M  END
$$$$
