LHD.pdb
     RDKit          3D

 27 27  0  0  1  0  0  0  0  0999 V2000
   29.7410  -13.0920  -18.0330 C   0  0  0  0  0  0  0  0  0  0  0  0
   28.6067  -13.0058  -17.0383 C   0  0  1  0  0  0  0  0  0  0  0  0
   29.2025  -12.8718  -15.6533 C   0  0  0  0  0  0  0  0  0  0  0  0
   27.7384  -11.7898  -17.2801 C   0  0  0  0  0  0  0  0  0  0  0  0
   26.6125  -11.6834  -16.3039 C   0  0  2  0  0  0  0  0  0  0  0  0
   26.0764  -12.9571  -15.8880 N   0  0  0  0  0  0  0  0  0  0  0  0
   25.5716  -10.8020  -16.8926 C   0  0  0  0  0  0  0  0  0  0  0  0
   25.9431   -9.6651  -17.2810 O   0  0  0  0  0  0  0  0  0  0  0  0
   24.2248  -11.1555  -17.0381 N   0  0  0  0  0  0  0  0  0  0  0  0
   23.2319  -10.3311  -17.6944 C   0  0  1  0  0  0  0  0  0  0  0  0
   22.2238  -11.1444  -18.4436 C   0  0  0  0  0  0  0  0  0  0  0  0
   21.2216  -10.2447  -19.0723 C   0  0  0  0  0  0  0  0  0  0  0  0
   19.9302  -10.0527  -18.5857 C   0  0  0  0  0  0  0  0  0  0  0  0
   19.2705   -9.1818  -19.3748 N   0  0  0  0  0  0  0  0  0  0  0  0
   20.1365   -8.8384  -20.3350 C   0  0  0  0  0  0  0  0  0  0  0  0
   21.3221   -9.4782  -20.1593 N   0  0  0  0  0  0  0  0  0  0  0  0
   22.6783   -9.3908  -16.7325 C   0  0  0  0  0  0  0  0  0  0  0  0
   22.7377   -9.6516  -15.5073 O   0  0  0  0  0  0  0  0  0  0  0  0
   22.0511   -8.1488  -17.1122 N   0  0  0  0  0  0  0  0  0  0  0  0
   21.6234   -7.1859  -16.1324 C   0  0  1  0  0  0  0  0  0  0  0  0
   22.7267   -6.7434  -15.2395 C   0  0  0  0  0  0  0  0  0  0  0  0
   22.2640   -5.7110  -14.3104 C   0  0  0  0  0  0  0  0  0  0  0  0
   21.0632   -5.6660  -13.9727 O   0  0  0  0  0  0  0  0  0  0  0  0
   20.9551   -6.0258  -16.8052 C   0  0  0  0  0  0  0  0  0  0  0  0
   20.3096   -5.1749  -16.1452 O   0  0  0  0  0  0  0  0  0  0  0  0
   23.1522   -4.7676  -13.7915 O   0  0  0  0  0  0  0  0  0  0  0  0
   21.0200   -5.8417  -18.1808 O   0  0  0  0  0  0  0  0  0  0  0  0
  2  4  1  0
  2  1  1  6
  3  2  1  0
  5  4  1  0
  5  6  1  6
  7  8  2  0
  7  5  1  0
  9  7  1  0
 10  9  1  0
 10 11  1  1
 12 11  1  0
 13 12  2  0
 14 13  1  0
 14 15  1  0
 15 16  2  0
 16 12  1  0
 17 18  2  0
 17 10  1  0
 19 17  1  0
 20 21  1  6
 20 19  1  0
 21 22  1  0
 22 26  1  0
 22 23  2  0
 24 20  1  0
 25 24  2  0
 27 24  1  0
M  END
$$$$
