LHD.pdb
     RDKit          3D

 27 27  0  0  1  0  0  0  0  0999 V2000
   22.9167   -9.2050  -15.1023 C   0  0  0  0  0  0  0  0  0  0  0  0
   21.7897  -10.0894  -14.6215 C   0  0  1  0  0  0  0  0  0  0  0  0
   22.3036  -10.9242  -13.4683 C   0  0  0  0  0  0  0  0  0  0  0  0
   20.6181   -9.2786  -14.1101 C   0  0  0  0  0  0  0  0  0  0  0  0
   19.4892  -10.1346  -13.6362 C   0  0  2  0  0  0  0  0  0  0  0  0
   18.9705  -11.0290  -14.6431 N   0  0  0  0  0  0  0  0  0  0  0  0
   18.4368   -9.2458  -13.0797 C   0  0  0  0  0  0  0  0  0  0  0  0
   17.6527   -8.7090  -13.9033 O   0  0  0  0  0  0  0  0  0  0  0  0
   18.2690   -8.9751  -11.7165 N   0  0  0  0  0  0  0  0  0  0  0  0
   17.2307   -8.1226  -11.1765 C   0  0  1  0  0  0  0  0  0  0  0  0
   17.0277   -8.3348   -9.7092 C   0  0  0  0  0  0  0  0  0  0  0  0
   15.8240   -7.5894   -9.2571 C   0  0  0  0  0  0  0  0  0  0  0  0
   15.0346   -6.8006  -10.0913 C   0  0  0  0  0  0  0  0  0  0  0  0
   14.0228   -6.2596   -9.3841 N   0  0  0  0  0  0  0  0  0  0  0  0
   14.1804   -6.7044   -8.1323 C   0  0  0  0  0  0  0  0  0  0  0  0
   15.2701   -7.5113   -8.0462 N   0  0  0  0  0  0  0  0  0  0  0  0
   17.4854   -6.7468  -11.5743 C   0  0  0  0  0  0  0  0  0  0  0  0
   18.6675   -6.3394  -11.6720 O   0  0  0  0  0  0  0  0  0  0  0  0
   16.4363   -5.8021  -11.8696 N   0  0  0  0  0  0  0  0  0  0  0  0
   16.7117   -4.5351  -12.4931 C   0  0  1  0  0  0  0  0  0  0  0  0
   17.5032   -4.6686  -13.7445 C   0  0  0  0  0  0  0  0  0  0  0  0
   17.7432   -3.3587  -14.3524 C   0  0  0  0  0  0  0  0  0  0  0  0
   17.7563   -2.3323  -13.6423 O   0  0  0  0  0  0  0  0  0  0  0  0
   15.4359   -3.7831  -12.7212 C   0  0  0  0  0  0  0  0  0  0  0  0
   14.3617   -4.3845  -12.9676 O   0  0  0  0  0  0  0  0  0  0  0  0
   17.9594   -3.2380  -15.7261 O   0  0  0  0  0  0  0  0  0  0  0  0
   15.3859   -2.3956  -12.6704 O   0  0  0  0  0  0  0  0  0  0  0  0
  2  4  1  0
  2  1  1  1
  3  2  1  0
  5  4  1  0
  5  6  1  6
  7  8  2  0
  7  5  1  0
  9  7  1  0
 10  9  1  0
 10 11  1  1
 12 11  1  0
 13 12  2  0
 14 13  1  0
 14 15  1  0
 15 16  2  0
 16 12  1  0
 17 18  2  0
 17 10  1  0
 19 17  1  0
 20 21  1  6
 20 19  1  0
 21 22  1  0
 22 26  1  0
 22 23  2  0
 24 20  1  0
 25 24  2  0
 27 24  1  0
M  END
$$$$
