LHD.pdb
     RDKit          3D

 27 27  0  0  1  0  0  0  0  0999 V2000
   18.2029  -19.7477  -10.4482 C   0  0  0  0  0  0  0  0  0  0  0  0
   18.9688  -20.6520  -11.3857 C   0  0  1  0  0  0  0  0  0  0  0  0
   17.9823  -21.2812  -12.3458 C   0  0  0  0  0  0  0  0  0  0  0  0
   19.9783  -19.8818  -12.2097 C   0  0  0  0  0  0  0  0  0  0  0  0
   20.7317  -20.7547  -13.1596 C   0  0  2  0  0  0  0  0  0  0  0  0
   20.5675  -22.1670  -12.9122 N   0  0  0  0  0  0  0  0  0  0  0  0
   22.1589  -20.3429  -13.1334 C   0  0  0  0  0  0  0  0  0  0  0  0
   22.4192  -19.1719  -13.5104 O   0  0  0  0  0  0  0  0  0  0  0  0
   23.2130  -21.1669  -12.7213 N   0  0  0  0  0  0  0  0  0  0  0  0
   24.6136  -20.8213  -12.8438 C   0  0  1  0  0  0  0  0  0  0  0  0
   25.4571  -21.4929  -11.8061 C   0  0  0  0  0  0  0  0  0  0  0  0
   26.8588  -21.0098  -11.9104 C   0  0  0  0  0  0  0  0  0  0  0  0
   27.2895  -20.0545  -12.8288 C   0  0  0  0  0  0  0  0  0  0  0  0
   28.6097  -19.8335  -12.6715 N   0  0  0  0  0  0  0  0  0  0  0  0
   28.9929  -20.6372  -11.6730 C   0  0  0  0  0  0  0  0  0  0  0  0
   27.9376  -21.3541  -11.2056 N   0  0  0  0  0  0  0  0  0  0  0  0
   25.0400  -21.0296  -14.2188 C   0  0  0  0  0  0  0  0  0  0  0  0
   24.8004  -22.1242  -14.7821 O   0  0  0  0  0  0  0  0  0  0  0  0
   25.7374  -20.0303  -14.9902 N   0  0  0  0  0  0  0  0  0  0  0  0
   25.8110  -20.0967  -16.4256 C   0  0  1  0  0  0  0  0  0  0  0  0
   24.4742  -20.2093  -17.0664 C   0  0  0  0  0  0  0  0  0  0  0  0
   24.5972  -20.2620  -18.5242 C   0  0  0  0  0  0  0  0  0  0  0  0
   25.4706  -20.9800  -19.0529 O   0  0  0  0  0  0  0  0  0  0  0  0
   26.5849  -18.9294  -16.9580 C   0  0  0  0  0  0  0  0  0  0  0  0
   26.8320  -18.8177  -18.1839 O   0  0  0  0  0  0  0  0  0  0  0  0
   23.7457  -19.5152  -19.3400 O   0  0  0  0  0  0  0  0  0  0  0  0
   27.0603  -17.9254  -16.1236 O   0  0  0  0  0  0  0  0  0  0  0  0
  2  4  1  0
  2  1  1  1
  3  2  1  0
  5  4  1  0
  5  6  1  1
  7  8  2  0
  7  5  1  0
  9  7  1  0
 10  9  1  0
 10 11  1  1
 12 11  1  0
 13 12  2  0
 14 13  1  0
 14 15  1  0
 15 16  2  0
 16 12  1  0
 17 18  2  0
 17 10  1  0
 19 17  1  0
 20 21  1  6
 20 19  1  0
 21 22  1  0
 22 26  1  0
 22 23  2  0
 24 20  1  0
 25 24  2  0
 27 24  1  0
M  END
$$$$
