LHD.pdb
     RDKit          3D

 27 27  0  0  1  0  0  0  0  0999 V2000
   29.5788  -19.6942   -5.1926 C   0  0  0  0  0  0  0  0  0  0  0  0
   28.1979  -20.2232   -5.5035 C   0  0  1  0  0  0  0  0  0  0  0  0
   27.2863  -19.8719   -4.3474 C   0  0  0  0  0  0  0  0  0  0  0  0
   27.6195  -19.5867   -6.7491 C   0  0  0  0  0  0  0  0  0  0  0  0
   26.2852  -20.1493   -7.1163 C   0  0  2  0  0  0  0  0  0  0  0  0
   26.1091  -21.5313   -6.7393 N   0  0  0  0  0  0  0  0  0  0  0  0
   26.0768  -19.9340   -8.5713 C   0  0  0  0  0  0  0  0  0  0  0  0
   26.5203  -18.8618   -9.0561 O   0  0  0  0  0  0  0  0  0  0  0  0
   25.4272  -20.8380   -9.4202 N   0  0  0  0  0  0  0  0  0  0  0  0
   25.3095  -20.6699  -10.8535 C   0  0  1  0  0  0  0  0  0  0  0  0
   26.0420  -21.7317  -11.6119 C   0  0  0  0  0  0  0  0  0  0  0  0
   27.4986  -21.4360  -11.6075 C   0  0  0  0  0  0  0  0  0  0  0  0
   28.4505  -22.2085  -10.9454 C   0  0  0  0  0  0  0  0  0  0  0  0
   29.6763  -21.6799  -11.1316 N   0  0  0  0  0  0  0  0  0  0  0  0
   29.4895  -20.5980  -11.8959 C   0  0  0  0  0  0  0  0  0  0  0  0
   28.1721  -20.4425  -12.1893 N   0  0  0  0  0  0  0  0  0  0  0  0
   23.9063  -20.5142  -11.2040 C   0  0  0  0  0  0  0  0  0  0  0  0
   23.0251  -21.0226  -10.4708 O   0  0  0  0  0  0  0  0  0  0  0  0
   23.4581  -19.7941  -12.3705 N   0  0  0  0  0  0  0  0  0  0  0  0
   22.0602  -19.6367  -12.6724 C   0  0  1  0  0  0  0  0  0  0  0  0
   21.8130  -18.6570  -13.7630 C   0  0  0  0  0  0  0  0  0  0  0  0
   21.7479  -19.3279  -15.0624 C   0  0  0  0  0  0  0  0  0  0  0  0
   20.7179  -19.9496  -15.3947 O   0  0  0  0  0  0  0  0  0  0  0  0
   21.4432  -20.9687  -12.9729 C   0  0  0  0  0  0  0  0  0  0  0  0
   22.1253  -21.9087  -13.4497 O   0  0  0  0  0  0  0  0  0  0  0  0
   22.8293  -19.2832  -15.9439 O   0  0  0  0  0  0  0  0  0  0  0  0
   20.0971  -21.2205  -12.7386 O   0  0  0  0  0  0  0  0  0  0  0  0
  2  4  1  0
  2  1  1  1
  3  2  1  0
  5  4  1  0
  5  6  1  6
  7  8  2  0
  7  5  1  0
  9  7  1  0
 10  9  1  0
 10 11  1  6
 12 11  1  0
 13 12  2  0
 14 13  1  0
 14 15  1  0
 15 16  2  0
 16 12  1  0
 17 18  2  0
 17 10  1  0
 19 17  1  0
 20 21  1  6
 20 19  1  0
 21 22  1  0
 22 26  1  0
 22 23  2  0
 24 20  1  0
 25 24  2  0
 27 24  1  0
M  END
$$$$
