LHD.pdb
     RDKit          3D

 27 27  0  0  1  0  0  0  0  0999 V2000
   15.6152  -12.9471  -16.5629 C   0  0  0  0  0  0  0  0  0  0  0  0
   15.5232  -11.4865  -16.1868 C   0  0  1  0  0  0  0  0  0  0  0  0
   14.1916  -11.2575  -15.5046 C   0  0  0  0  0  0  0  0  0  0  0  0
   16.6094  -11.0880  -15.2107 C   0  0  0  0  0  0  0  0  0  0  0  0
   17.9542  -10.9919  -15.8541 C   0  0  2  0  0  0  0  0  0  0  0  0
   18.7613  -12.1787  -15.7028 N   0  0  0  0  0  0  0  0  0  0  0  0
   18.6337   -9.7806  -15.3269 C   0  0  0  0  0  0  0  0  0  0  0  0
   18.7685   -9.7026  -14.0791 O   0  0  0  0  0  0  0  0  0  0  0  0
   19.1245   -8.7388  -16.1229 N   0  0  0  0  0  0  0  0  0  0  0  0
   19.8069   -7.5706  -15.6070 C   0  0  1  0  0  0  0  0  0  0  0  0
   21.2569   -7.5508  -15.9760 C   0  0  0  0  0  0  0  0  0  0  0  0
   21.9598   -8.6759  -15.3057 C   0  0  0  0  0  0  0  0  0  0  0  0
   22.5561   -9.7382  -15.9819 C   0  0  0  0  0  0  0  0  0  0  0  0
   23.1073  -10.5910  -15.0957 N   0  0  0  0  0  0  0  0  0  0  0  0
   22.8580  -10.0680  -13.8898 C   0  0  0  0  0  0  0  0  0  0  0  0
   22.1628   -8.9067  -14.0077 N   0  0  0  0  0  0  0  0  0  0  0  0
   19.0581   -6.3782  -15.9723 C   0  0  0  0  0  0  0  0  0  0  0  0
   18.7302   -6.1955  -17.1688 O   0  0  0  0  0  0  0  0  0  0  0  0
   18.6616   -5.3709  -15.0191 N   0  0  0  0  0  0  0  0  0  0  0  0
   17.8392   -4.2526  -15.3973 C   0  0  1  0  0  0  0  0  0  0  0  0
   16.6753   -4.0612  -14.4923 C   0  0  0  0  0  0  0  0  0  0  0  0
   15.8767   -2.9063  -14.9064 C   0  0  0  0  0  0  0  0  0  0  0  0
   16.2894   -1.7491  -14.6866 O   0  0  0  0  0  0  0  0  0  0  0  0
   18.6712   -3.0108  -15.5011 C   0  0  0  0  0  0  0  0  0  0  0  0
   18.1848   -1.9361  -15.9307 O   0  0  0  0  0  0  0  0  0  0  0  0
   14.6499   -3.0801  -15.5491 O   0  0  0  0  0  0  0  0  0  0  0  0
   20.0097   -2.9942  -15.1289 O   0  0  0  0  0  0  0  0  0  0  0  0
  2  4  1  0
  2  1  1  1
  3  2  1  0
  5  4  1  0
  5  6  1  1
  7  8  2  0
  7  5  1  0
  9  7  1  0
 10  9  1  0
 10 11  1  6
 12 11  1  0
 13 12  2  0
 14 13  1  0
 14 15  1  0
 15 16  2  0
 16 12  1  0
 17 18  2  0
 17 10  1  0
 19 17  1  0
 20 21  1  1
 20 19  1  0
 21 22  1  0
 22 26  1  0
 22 23  2  0
 24 20  1  0
 25 24  2  0
 27 24  1  0
M  END
$$$$
