LHD.pdb
     RDKit          3D

 27 27  0  0  1  0  0  0  0  0999 V2000
   47.5044  -11.0167   -6.6925 C   0  0  0  0  0  0  0  0  0  0  0  0
   46.0743  -10.9748   -7.1787 C   0  0  1  0  0  0  0  0  0  0  0  0
   45.8099  -12.2335   -7.9767 C   0  0  0  0  0  0  0  0  0  0  0  0
   45.0903  -10.9495   -6.0288 C   0  0  0  0  0  0  0  0  0  0  0  0
   43.6729  -10.8359   -6.4869 C   0  0  2  0  0  0  0  0  0  0  0  0
   43.3046  -11.8010   -7.4947 N   0  0  0  0  0  0  0  0  0  0  0  0
   43.4428   -9.4390   -6.9373 C   0  0  0  0  0  0  0  0  0  0  0  0
   43.7717   -8.5238   -6.1402 O   0  0  0  0  0  0  0  0  0  0  0  0
   42.8911   -9.0871   -8.1749 N   0  0  0  0  0  0  0  0  0  0  0  0
   42.6858   -7.7241   -8.6179 C   0  0  1  0  0  0  0  0  0  0  0  0
   43.0806   -7.5261  -10.0476 C   0  0  0  0  0  0  0  0  0  0  0  0
   42.9665   -6.0878  -10.4043 C   0  0  0  0  0  0  0  0  0  0  0  0
   43.2575   -5.0412   -9.5318 C   0  0  0  0  0  0  0  0  0  0  0  0
   43.0550   -3.8614  -10.1512 N   0  0  0  0  0  0  0  0  0  0  0  0
   42.6453   -4.1693  -11.3870 C   0  0  0  0  0  0  0  0  0  0  0  0
   42.5888   -5.5170  -11.5492 N   0  0  0  0  0  0  0  0  0  0  0  0
   41.3309   -7.3114   -8.2863 C   0  0  0  0  0  0  0  0  0  0  0  0
   40.3697   -8.0716   -8.5524 O   0  0  0  0  0  0  0  0  0  0  0  0
   41.0201   -6.0521   -7.6556 N   0  0  0  0  0  0  0  0  0  0  0  0
   39.6623   -5.6295   -7.4370 C   0  0  1  0  0  0  0  0  0  0  0  0
   39.4762   -4.9404   -6.1328 C   0  0  0  0  0  0  0  0  0  0  0  0
   38.0833   -4.5263   -5.9556 C   0  0  0  0  0  0  0  0  0  0  0  0
   37.2163   -4.8770   -6.7821 O   0  0  0  0  0  0  0  0  0  0  0  0
   39.1930   -4.7852   -8.5824 C   0  0  0  0  0  0  0  0  0  0  0  0
   37.9712   -4.5667   -8.7715 O   0  0  0  0  0  0  0  0  0  0  0  0
   37.7059   -3.7382   -4.8671 O   0  0  0  0  0  0  0  0  0  0  0  0
   40.0839   -4.2104   -9.4803 O   0  0  0  0  0  0  0  0  0  0  0  0
  2  4  1  0
  2  1  1  1
  3  2  1  0
  5  4  1  0
  5  6  1  6
  7  8  2  0
  7  5  1  0
  9  7  1  0
 10  9  1  0
 10 11  1  6
 12 11  1  0
 13 12  2  0
 14 13  1  0
 14 15  1  0
 15 16  2  0
 16 12  1  0
 17 18  2  0
 17 10  1  0
 19 17  1  0
 20 21  1  1
 20 19  1  0
 21 22  1  0
 22 26  1  0
 22 23  2  0
 24 20  1  0
 25 24  2  0
 27 24  1  0
M  END
$$$$
