LHD.pdb
     RDKit          3D

 27 27  0  0  1  0  0  0  0  0999 V2000
   28.3104  -20.5396  -20.5941 C   0  0  0  0  0  0  0  0  0  0  0  0
   26.8375  -20.2618  -20.4019 C   0  0  1  0  0  0  0  0  0  0  0  0
   26.1672  -20.3093  -21.7582 C   0  0  0  0  0  0  0  0  0  0  0  0
   26.1772  -21.3087  -19.5306 C   0  0  0  0  0  0  0  0  0  0  0  0
   24.7244  -21.0400  -19.3094 C   0  0  2  0  0  0  0  0  0  0  0  0
   24.1792  -20.0219  -20.1748 N   0  0  0  0  0  0  0  0  0  0  0  0
   24.5268  -20.7192  -17.8723 C   0  0  0  0  0  0  0  0  0  0  0  0
   24.9952  -21.5356  -17.0384 O   0  0  0  0  0  0  0  0  0  0  0  0
   23.8618  -19.5817  -17.3994 N   0  0  0  0  0  0  0  0  0  0  0  0
   23.5820  -19.3228  -16.0026 C   0  0  1  0  0  0  0  0  0  0  0  0
   23.7820  -17.8847  -15.6405 C   0  0  0  0  0  0  0  0  0  0  0  0
   25.2212  -17.5334  -15.7604 C   0  0  0  0  0  0  0  0  0  0  0  0
   26.2278  -18.4517  -16.0516 C   0  0  0  0  0  0  0  0  0  0  0  0
   27.4201  -17.8244  -16.0901 N   0  0  0  0  0  0  0  0  0  0  0  0
   27.1592  -16.5388  -15.8275 C   0  0  0  0  0  0  0  0  0  0  0  0
   25.8284  -16.3533  -15.6263 N   0  0  0  0  0  0  0  0  0  0  0  0
   22.2774  -19.8710  -15.6657 C   0  0  0  0  0  0  0  0  0  0  0  0
   21.3763  -19.9047  -16.5372 O   0  0  0  0  0  0  0  0  0  0  0  0
   21.9512  -20.3897  -14.3600 N   0  0  0  0  0  0  0  0  0  0  0  0
   20.6544  -20.9392  -14.0659 C   0  0  1  0  0  0  0  0  0  0  0  0
   20.6626  -21.8302  -12.8758 C   0  0  0  0  0  0  0  0  0  0  0  0
   19.3442  -22.4303  -12.6642 C   0  0  0  0  0  0  0  0  0  0  0  0
   18.4064  -22.1720  -13.4462 O   0  0  0  0  0  0  0  0  0  0  0  0
   19.6460  -19.8395  -13.9287 C   0  0  0  0  0  0  0  0  0  0  0  0
   19.8898  -18.8152  -13.2449 O   0  0  0  0  0  0  0  0  0  0  0  0
   19.1171  -23.2947  -11.5920 O   0  0  0  0  0  0  0  0  0  0  0  0
   18.4043  -19.9046  -14.5485 O   0  0  0  0  0  0  0  0  0  0  0  0
  2  4  1  0
  2  1  1  6
  3  2  1  0
  5  4  1  0
  5  6  1  6
  7  8  2  0
  7  5  1  0
  9  7  1  0
 10  9  1  0
 10 11  1  6
 12 11  1  0
 13 12  2  0
 14 13  1  0
 14 15  1  0
 15 16  2  0
 16 12  1  0
 17 18  2  0
 17 10  1  0
 19 17  1  0
 20 21  1  1
 20 19  1  0
 21 22  1  0
 22 26  1  0
 22 23  2  0
 24 20  1  0
 25 24  2  0
 27 24  1  0
M  END
$$$$
