LHD.pdb
     RDKit          3D

 27 27  0  0  1  0  0  0  0  0999 V2000
   20.7849  -11.7455    6.8734 C   0  0  0  0  0  0  0  0  0  0  0  0
   19.4152  -11.8615    6.2457 C   0  0  1  0  0  0  0  0  0  0  0  0
   19.5782  -11.8003    4.7422 C   0  0  0  0  0  0  0  0  0  0  0  0
   18.7544  -13.1819    6.5788 C   0  0  0  0  0  0  0  0  0  0  0  0
   17.4786  -13.3918    5.8305 C   0  0  2  0  0  0  0  0  0  0  0  0
   16.4422  -12.4443    6.1637 N   0  0  0  0  0  0  0  0  0  0  0  0
   17.0437  -14.7964    6.0424 C   0  0  0  0  0  0  0  0  0  0  0  0
   16.4548  -15.0517    7.1237 O   0  0  0  0  0  0  0  0  0  0  0  0
   17.2469  -15.8348    5.1256 N   0  0  0  0  0  0  0  0  0  0  0  0
   16.8385  -17.2065    5.3441 C   0  0  1  0  0  0  0  0  0  0  0  0
   16.8128  -18.0002    4.0758 C   0  0  0  0  0  0  0  0  0  0  0  0
   16.2632  -19.3550    4.3436 C   0  0  0  0  0  0  0  0  0  0  0  0
   15.0270  -19.5923    4.9410 C   0  0  0  0  0  0  0  0  0  0  0  0
   14.8183  -20.9198    5.0452 N   0  0  0  0  0  0  0  0  0  0  0  0
   15.9057  -21.4973    4.5218 C   0  0  0  0  0  0  0  0  0  0  0  0
   16.7869  -20.5560    4.0939 N   0  0  0  0  0  0  0  0  0  0  0  0
   17.6364  -17.7789    6.4172 C   0  0  0  0  0  0  0  0  0  0  0  0
   18.8542  -17.4922    6.5036 O   0  0  0  0  0  0  0  0  0  0  0  0
   17.0986  -18.6764    7.4100 N   0  0  0  0  0  0  0  0  0  0  0  0
   17.9385  -19.3131    8.3894 C   0  0  1  0  0  0  0  0  0  0  0  0
   17.9262  -18.6136    9.7012 C   0  0  0  0  0  0  0  0  0  0  0  0
   19.2839  -18.4727   10.2302 C   0  0  0  0  0  0  0  0  0  0  0  0
   20.1458  -19.3402    9.9804 O   0  0  0  0  0  0  0  0  0  0  0  0
   17.5671  -20.7581    8.5277 C   0  0  0  0  0  0  0  0  0  0  0  0
   16.6032  -21.2459    7.8881 O   0  0  0  0  0  0  0  0  0  0  0  0
   19.6332  -17.3738   11.0166 O   0  0  0  0  0  0  0  0  0  0  0  0
   18.2689  -21.6166    9.3649 O   0  0  0  0  0  0  0  0  0  0  0  0
  2  4  1  0
  2  1  1  1
  3  2  1  0
  5  4  1  0
  5  6  1  1
  7  8  2  0
  7  5  1  0
  9  7  1  0
 10  9  1  0
 10 11  1  6
 12 11  1  0
 13 12  2  0
 14 13  1  0
 14 15  1  0
 15 16  2  0
 16 12  1  0
 17 18  2  0
 17 10  1  0
 19 17  1  0
 20 21  1  1
 20 19  1  0
 21 22  1  0
 22 26  1  0
 22 23  2  0
 24 20  1  0
 25 24  2  0
 27 24  1  0
M  END
$$$$
