LHD.pdb
     RDKit          3D

 27 27  0  0  1  0  0  0  0  0999 V2000
   28.6004  -18.4104   -5.7665 C   0  0  0  0  0  0  0  0  0  0  0  0
   27.9852  -19.7070   -6.2396 C   0  0  1  0  0  0  0  0  0  0  0  0
   27.6874  -20.5592   -5.0247 C   0  0  0  0  0  0  0  0  0  0  0  0
   26.6772  -19.4764   -6.9658 C   0  0  0  0  0  0  0  0  0  0  0  0
   26.2967  -20.6235   -7.8439 C   0  0  2  0  0  0  0  0  0  0  0  0
   27.1952  -21.7495   -7.7577 N   0  0  0  0  0  0  0  0  0  0  0  0
   26.1634  -20.1174   -9.2343 C   0  0  0  0  0  0  0  0  0  0  0  0
   25.4709  -19.0806   -9.3974 O   0  0  0  0  0  0  0  0  0  0  0  0
   26.7527  -20.7159  -10.3543 N   0  0  0  0  0  0  0  0  0  0  0  0
   26.5660  -20.2592  -11.7155 C   0  0  1  0  0  0  0  0  0  0  0  0
   27.7645  -20.5218  -12.5721 C   0  0  0  0  0  0  0  0  0  0  0  0
   27.5489  -19.9460  -13.9253 C   0  0  0  0  0  0  0  0  0  0  0  0
   26.3966  -19.2632  -14.3092 C   0  0  0  0  0  0  0  0  0  0  0  0
   26.5072  -18.8680  -15.5930 N   0  0  0  0  0  0  0  0  0  0  0  0
   27.7070  -19.2976  -15.9999 C   0  0  0  0  0  0  0  0  0  0  0  0
   28.3455  -19.9523  -14.9951 N   0  0  0  0  0  0  0  0  0  0  0  0
   25.3102  -20.7841  -12.2289 C   0  0  0  0  0  0  0  0  0  0  0  0
   24.8068  -21.8066  -11.7058 O   0  0  0  0  0  0  0  0  0  0  0  0
   24.5937  -20.1854  -13.3281 N   0  0  0  0  0  0  0  0  0  0  0  0
   23.2045  -20.4702  -13.5712 C   0  0  1  0  0  0  0  0  0  0  0  0
   22.3534  -20.2538  -12.3716 C   0  0  0  0  0  0  0  0  0  0  0  0
   20.9615  -20.6138  -12.6474 C   0  0  0  0  0  0  0  0  0  0  0  0
   20.6667  -21.7894  -12.9458 O   0  0  0  0  0  0  0  0  0  0  0  0
   22.7140  -19.6840  -14.7486 C   0  0  0  0  0  0  0  0  0  0  0  0
   22.3703  -20.2535  -15.8134 O   0  0  0  0  0  0  0  0  0  0  0  0
   19.9495  -19.6548  -12.5815 O   0  0  0  0  0  0  0  0  0  0  0  0
   22.6185  -18.2983  -14.7140 O   0  0  0  0  0  0  0  0  0  0  0  0
  2  4  1  0
  2  1  1  1
  3  2  1  0
  5  4  1  0
  5  6  1  6
  7  8  2  0
  7  5  1  0
  9  7  1  0
 10  9  1  0
 10 11  1  6
 12 11  1  0
 13 12  2  0
 14 13  1  0
 14 15  1  0
 15 16  2  0
 16 12  1  0
 17 18  2  0
 17 10  1  0
 19 17  1  0
 20 21  1  1
 20 19  1  0
 21 22  1  0
 22 26  1  0
 22 23  2  0
 24 20  1  0
 25 24  2  0
 27 24  1  0
M  END
$$$$
