LHD.pdb
     RDKit          3D

 27 27  0  0  1  0  0  0  0  0999 V2000
   29.5009  -11.9879  -17.0490 C   0  0  0  0  0  0  0  0  0  0  0  0
   28.1524  -12.5830  -16.7158 C   0  0  1  0  0  0  0  0  0  0  0  0
   28.2320  -13.1867  -15.3302 C   0  0  0  0  0  0  0  0  0  0  0  0
   27.0643  -11.5310  -16.6924 C   0  0  0  0  0  0  0  0  0  0  0  0
   25.7115  -12.1082  -16.4301 C   0  0  2  0  0  0  0  0  0  0  0  0
   25.4882  -13.3863  -17.0619 N   0  0  0  0  0  0  0  0  0  0  0  0
   24.6940  -11.1010  -16.8268 C   0  0  0  0  0  0  0  0  0  0  0  0
   25.0309  -10.2700  -17.7084 O   0  0  0  0  0  0  0  0  0  0  0  0
   23.4047  -11.0234  -16.2868 N   0  0  0  0  0  0  0  0  0  0  0  0
   22.3737  -10.1259  -16.7643 C   0  0  1  0  0  0  0  0  0  0  0  0
   21.1365  -10.8549  -17.1852 C   0  0  0  0  0  0  0  0  0  0  0  0
   21.4288  -11.6892  -18.3801 C   0  0  0  0  0  0  0  0  0  0  0  0
   21.4385  -13.0825  -18.3766 C   0  0  0  0  0  0  0  0  0  0  0  0
   21.7377  -13.5395  -19.6087 N   0  0  0  0  0  0  0  0  0  0  0  0
   21.9109  -12.4494  -20.3648 C   0  0  0  0  0  0  0  0  0  0  0  0
   21.7255  -11.3231  -19.6279 N   0  0  0  0  0  0  0  0  0  0  0  0
   22.1677   -9.0692  -15.7860 C   0  0  0  0  0  0  0  0  0  0  0  0
   22.7486   -9.1312  -14.6763 O   0  0  0  0  0  0  0  0  0  0  0  0
   21.3163   -7.9291  -16.0214 N   0  0  0  0  0  0  0  0  0  0  0  0
   21.2922   -6.8041  -15.1248 C   0  0  1  0  0  0  0  0  0  0  0  0
   22.6377   -6.2092  -14.9104 C   0  0  0  0  0  0  0  0  0  0  0  0
   22.5589   -5.0461  -14.0248 C   0  0  0  0  0  0  0  0  0  0  0  0
   22.1097   -5.1706  -12.8670 O   0  0  0  0  0  0  0  0  0  0  0  0
   20.3041   -5.7839  -15.6020 C   0  0  0  0  0  0  0  0  0  0  0  0
   20.0034   -5.6885  -16.8173 O   0  0  0  0  0  0  0  0  0  0  0  0
   22.9819   -3.7887  -14.4585 O   0  0  0  0  0  0  0  0  0  0  0  0
   19.6809   -4.9038  -14.7261 O   0  0  0  0  0  0  0  0  0  0  0  0
  2  4  1  0
  2  1  1  1
  3  2  1  0
  5  4  1  0
  5  6  1  6
  7  8  2  0
  7  5  1  0
  9  7  1  0
 10  9  1  0
 10 11  1  1
 12 11  1  0
 13 12  2  0
 14 13  1  0
 14 15  1  0
 15 16  2  0
 16 12  1  0
 17 18  2  0
 17 10  1  0
 19 17  1  0
 20 21  1  6
 20 19  1  0
 21 22  1  0
 22 26  1  0
 22 23  2  0
 24 20  1  0
 25 24  2  0
 27 24  1  0
M  END
$$$$
