CAV.pdb
     RDKit          3D

 19 18  0  0  1  0  0  0  0  0999 V2000
    7.8849  -14.1401   20.7501 N   0  0  0  0  0  0  0  0  0  0  0  0
    7.1755  -14.7038   21.8794 C   0  0  1  0  0  0  0  0  0  0  0  0
    7.1991  -16.2145   21.7805 C   0  0  0  0  0  0  0  0  0  0  0  0
    5.5940  -16.7783   21.1501 S   0  0  0  0  0  0  0  0  0  0  0  0
    7.8230  -14.2227   23.1206 C   0  0  0  0  0  0  0  0  0  0  0  0
    9.0720  -14.2373   23.2022 O   0  0  0  0  0  0  0  0  0  0  0  0
    6.5203  -12.7372   26.3376 C   0  0  0  0  0  0  0  0  0  0  0  0
    7.5842  -13.3707   25.4497 C   0  0  2  0  0  0  0  0  0  0  0  0
    7.0019  -13.7500   24.2033 N   0  0  0  0  0  0  0  0  0  0  0  0
    8.1493  -14.5458   26.1570 C   0  0  0  0  0  0  0  0  0  0  0  0
    7.5762  -15.6482   26.2461 O   0  0  0  0  0  0  0  0  0  0  0  0
   12.0590  -14.4176   28.1048 C   0  0  0  0  0  0  0  0  0  0  0  0
   11.5647  -15.5704   27.2516 C   0  0  2  0  0  0  0  0  0  0  0  0
   12.0891  -15.3698   25.8710 C   0  0  0  0  0  0  0  0  0  0  0  0
   10.0773  -15.5986   27.3485 C   0  0  2  0  0  0  0  0  0  0  0  0
    9.4199  -14.4509   26.7852 N   0  0  0  0  0  0  0  0  0  0  0  0
    9.5799  -15.7861   28.7202 C   0  0  0  0  0  0  0  0  0  0  0  0
    8.9244  -14.8957   29.2972 O   0  0  0  0  0  0  0  0  0  0  0  0
    9.8347  -16.9598   29.3917 O   0  0  0  0  0  0  0  0  0  0  0  0
  2  3  1  0
  2  1  1  6
  3  4  1  0
  5  6  2  0
  5  2  1  0
  8  7  1  1
  8  9  1  0
  9  5  1  0
 10 11  2  0
 10  8  1  0
 13 12  1  1
 13 14  1  0
 15 13  1  0
 15 16  1  1
 16 10  1  0
 17 15  1  0
 18 17  2  0
 19 17  1  0
M  END
$$$$
