CAV.pdb
     RDKit          3D

 19 18  0  0  1  0  0  0  0  0999 V2000
    6.6004  -17.7010   19.6626 N   0  0  0  0  0  0  0  0  0  0  0  0
    7.2276  -16.5998   20.3626 C   0  0  1  0  0  0  0  0  0  0  0  0
    6.9511  -15.3115   19.6167 C   0  0  0  0  0  0  0  0  0  0  0  0
    7.6633  -13.9336   20.5578 S   0  0  0  0  0  0  0  0  0  0  0  0
    6.6932  -16.5632   21.7425 C   0  0  0  0  0  0  0  0  0  0  0  0
    5.5481  -17.0169   21.9655 O   0  0  0  0  0  0  0  0  0  0  0  0
    7.2958  -17.7145   24.4841 C   0  0  0  0  0  0  0  0  0  0  0  0
    7.1721  -16.2298   24.1648 C   0  0  2  0  0  0  0  0  0  0  0  0
    7.5021  -16.0071   22.7945 N   0  0  0  0  0  0  0  0  0  0  0  0
    8.0806  -15.4774   25.0641 C   0  0  0  0  0  0  0  0  0  0  0  0
    9.3236  -15.5365   25.0083 O   0  0  0  0  0  0  0  0  0  0  0  0
    6.5847  -12.7252   28.1412 C   0  0  0  0  0  0  0  0  0  0  0  0
    7.5775  -12.3679   27.0513 C   0  0  2  0  0  0  0  0  0  0  0  0
    6.8129  -11.7711   25.9196 C   0  0  0  0  0  0  0  0  0  0  0  0
    8.3301  -13.6065   26.7021 C   0  0  2  0  0  0  0  0  0  0  0  0
    7.5411  -14.6253   26.0647 N   0  0  0  0  0  0  0  0  0  0  0  0
    9.0280  -14.2137   27.8459 C   0  0  0  0  0  0  0  0  0  0  0  0
    8.6994  -15.3350   28.2821 O   0  0  0  0  0  0  0  0  0  0  0  0
   10.0640  -13.5445   28.4559 O   0  0  0  0  0  0  0  0  0  0  0  0
  2  3  1  0
  2  1  1  6
  3  4  1  0
  5  6  2  0
  5  2  1  0
  8  7  1  1
  8  9  1  0
  9  5  1  0
 10 11  2  0
 10  8  1  0
 13 12  1  1
 13 14  1  0
 15 13  1  0
 15 16  1  1
 16 10  1  0
 17 15  1  0
 18 17  2  0
 19 17  1  0
M  END
$$$$
