CAV.pdb
     RDKit          3D

 19 18  0  0  1  0  0  0  0  0999 V2000
    6.8245  -19.0365   21.4135 N   0  0  0  0  0  0  0  0  0  0  0  0
    6.5501  -17.9329   22.3094 C   0  0  1  0  0  0  0  0  0  0  0  0
    6.5022  -18.4456   23.7333 C   0  0  0  0  0  0  0  0  0  0  0  0
    4.7663  -18.5678   24.2463 S   0  0  0  0  0  0  0  0  0  0  0  0
    7.6074  -16.9132   22.1263 C   0  0  0  0  0  0  0  0  0  0  0  0
    8.8063  -17.2728   22.1149 O   0  0  0  0  0  0  0  0  0  0  0  0
    7.6442  -13.2934   21.1751 C   0  0  0  0  0  0  0  0  0  0  0  0
    8.2250  -14.5118   21.8821 C   0  0  2  0  0  0  0  0  0  0  0  0
    7.2322  -15.5335   21.9658 N   0  0  0  0  0  0  0  0  0  0  0  0
    8.6845  -14.0991   23.2308 C   0  0  0  0  0  0  0  0  0  0  0  0
    9.7267  -13.4513   23.4447 O   0  0  0  0  0  0  0  0  0  0  0  0
    5.9634  -13.9287   26.4512 C   0  0  0  0  0  0  0  0  0  0  0  0
    7.2416  -13.1192   26.3409 C   0  0  2  0  0  0  0  0  0  0  0  0
    6.9241  -11.8704   25.5919 C   0  0  0  0  0  0  0  0  0  0  0  0
    8.2689  -13.9832   25.6924 C   0  0  2  0  0  0  0  0  0  0  0  0
    7.9181  -14.4435   24.3764 N   0  0  0  0  0  0  0  0  0  0  0  0
    8.6518  -15.1510   26.5010 C   0  0  0  0  0  0  0  0  0  0  0  0
    9.0769  -15.0188   27.6661 O   0  0  0  0  0  0  0  0  0  0  0  0
    8.5446  -16.4184   25.9760 O   0  0  0  0  0  0  0  0  0  0  0  0
  2  3  1  0
  2  1  1  6
  3  4  1  0
  5  6  2  0
  5  2  1  0
  8  7  1  1
  8  9  1  0
  9  5  1  0
 10 11  2  0
 10  8  1  0
 13 12  1  6
 13 14  1  0
 15 13  1  0
 15 16  1  6
 16 10  1  0
 17 15  1  0
 18 17  2  0
 19 17  1  0
M  END
$$$$
