CAV.pdb
     RDKit          3D

 19 18  0  0  1  0  0  0  0  0999 V2000
    7.1083  -18.1557   19.2900 N   0  0  0  0  0  0  0  0  0  0  0  0
    8.0402  -17.4656   20.1568 C   0  0  1  0  0  0  0  0  0  0  0  0
    8.6366  -16.2891   19.4133 C   0  0  0  0  0  0  0  0  0  0  0  0
   10.4108  -16.2095   19.7836 S   0  0  0  0  0  0  0  0  0  0  0  0
    7.3124  -17.0373   21.3726 C   0  0  0  0  0  0  0  0  0  0  0  0
    6.2123  -16.4528   21.2509 O   0  0  0  0  0  0  0  0  0  0  0  0
    7.2325  -18.0377   24.8661 C   0  0  0  0  0  0  0  0  0  0  0  0
    7.2188  -16.8950   23.8583 C   0  0  2  0  0  0  0  0  0  0  0  0
    7.8865  -17.3030   22.6649 N   0  0  0  0  0  0  0  0  0  0  0  0
    7.8852  -15.7194   24.4701 C   0  0  0  0  0  0  0  0  0  0  0  0
    9.1010  -15.4716   24.3609 O   0  0  0  0  0  0  0  0  0  0  0  0
    7.5747  -11.3496   26.6473 C   0  0  0  0  0  0  0  0  0  0  0  0
    6.7685  -12.5309   26.1418 C   0  0  2  0  0  0  0  0  0  0  0  0
    5.7539  -12.8653   27.1811 C   0  0  0  0  0  0  0  0  0  0  0  0
    7.7249  -13.6329   25.8362 C   0  0  2  0  0  0  0  0  0  0  0  0
    7.1266  -14.7940   25.2360 N   0  0  0  0  0  0  0  0  0  0  0  0
    8.5107  -14.0704   27.0004 C   0  0  0  0  0  0  0  0  0  0  0  0
    8.2889  -15.1652   27.5551 O   0  0  0  0  0  0  0  0  0  0  0  0
    9.5118  -13.2679   27.4977 O   0  0  0  0  0  0  0  0  0  0  0  0
  2  3  1  0
  2  1  1  6
  3  4  1  0
  5  6  2  0
  5  2  1  0
  8  7  1  1
  8  9  1  0
  9  5  1  0
 10 11  2  0
 10  8  1  0
 13 12  1  1
 13 14  1  0
 15 13  1  0
 15 16  1  1
 16 10  1  0
 17 15  1  0
 18 17  2  0
 19 17  1  0
M  END
$$$$
