CAV.pdb
     RDKit          3D

 19 18  0  0  1  0  0  0  0  0999 V2000
    7.6131  -15.6026   18.6248 N   0  0  0  0  0  0  0  0  0  0  0  0
    7.8774  -14.6306   19.6647 C   0  0  1  0  0  0  0  0  0  0  0  0
    7.2208  -13.3163   19.2984 C   0  0  0  0  0  0  0  0  0  0  0  0
    8.5157  -12.1286   18.8466 S   0  0  0  0  0  0  0  0  0  0  0  0
    7.3599  -15.1675   20.9434 C   0  0  0  0  0  0  0  0  0  0  0  0
    6.1354  -15.4015   21.0557 O   0  0  0  0  0  0  0  0  0  0  0  0
    8.0734  -17.2909   23.5180 C   0  0  0  0  0  0  0  0  0  0  0  0
    7.7997  -15.8063   23.3111 C   0  0  2  0  0  0  0  0  0  0  0  0
    8.2761  -15.4075   22.0264 N   0  0  0  0  0  0  0  0  0  0  0  0
    8.4749  -15.0478   24.3923 C   0  0  0  0  0  0  0  0  0  0  0  0
    9.7083  -14.8916   24.4695 O   0  0  0  0  0  0  0  0  0  0  0  0
    6.1750  -12.8501   27.3031 C   0  0  0  0  0  0  0  0  0  0  0  0
    7.5393  -12.4126   26.8046 C   0  0  2  0  0  0  0  0  0  0  0  0
    7.3264  -11.4705   25.6695 C   0  0  0  0  0  0  0  0  0  0  0  0
    8.3063  -13.6411   26.4511 C   0  0  2  0  0  0  0  0  0  0  0  0
    7.7045  -14.4461   25.4233 N   0  0  0  0  0  0  0  0  0  0  0  0
    8.5944  -14.5077   27.6044 C   0  0  0  0  0  0  0  0  0  0  0  0
    8.1064  -15.6522   27.6904 O   0  0  0  0  0  0  0  0  0  0  0  0
    9.4155  -14.0614   28.6143 O   0  0  0  0  0  0  0  0  0  0  0  0
  2  3  1  0
  2  1  1  6
  3  4  1  0
  5  6  2  0
  5  2  1  0
  8  7  1  1
  8  9  1  0
  9  5  1  0
 10 11  2  0
 10  8  1  0
 13 12  1  6
 13 14  1  0
 15 13  1  0
 15 16  1  6
 16 10  1  0
 17 15  1  0
 18 17  2  0
 19 17  1  0
M  END
$$$$
