CAV.pdb
     RDKit          3D

 19 18  0  0  1  0  0  0  0  0999 V2000
    7.0303  -15.1107   18.7329 N   0  0  0  0  0  0  0  0  0  0  0  0
    7.9489  -14.5697   19.7125 C   0  0  1  0  0  0  0  0  0  0  0  0
    7.8002  -13.0635   19.7582 C   0  0  0  0  0  0  0  0  0  0  0  0
    8.4968  -12.3667   18.2348 S   0  0  0  0  0  0  0  0  0  0  0  0
    7.6505  -15.1928   21.0216 C   0  0  0  0  0  0  0  0  0  0  0  0
    6.4744  -15.1790   21.4498 O   0  0  0  0  0  0  0  0  0  0  0  0
    9.2583  -17.6135   23.2640 C   0  0  0  0  0  0  0  0  0  0  0  0
    8.4921  -16.3088   23.0842 C   0  0  2  0  0  0  0  0  0  0  0  0
    8.7188  -15.7992   21.7706 N   0  0  0  0  0  0  0  0  0  0  0  0
    8.9487  -15.3481   24.1180 C   0  0  0  0  0  0  0  0  0  0  0  0
   10.0351  -14.7402   24.0741 O   0  0  0  0  0  0  0  0  0  0  0  0
    8.0679  -12.0057   27.3993 C   0  0  0  0  0  0  0  0  0  0  0  0
    7.5607  -12.9242   26.3037 C   0  0  2  0  0  0  0  0  0  0  0  0
    6.1490  -13.2774   26.6258 C   0  0  0  0  0  0  0  0  0  0  0  0
    8.4863  -14.0904   26.2275 C   0  0  2  0  0  0  0  0  0  0  0  0
    8.1266  -15.0754   25.2442 N   0  0  0  0  0  0  0  0  0  0  0  0
    8.6782  -14.7751   27.5154 C   0  0  0  0  0  0  0  0  0  0  0  0
    9.1067  -14.1638   28.5145 O   0  0  0  0  0  0  0  0  0  0  0  0
    8.3839  -16.1139   27.6352 O   0  0  0  0  0  0  0  0  0  0  0  0
  2  3  1  0
  2  1  1  6
  3  4  1  0
  5  6  2  0
  5  2  1  0
  8  7  1  6
  8  9  1  0
  9  5  1  0
 10 11  2  0
 10  8  1  0
 13 12  1  1
 13 14  1  0
 15 13  1  0
 15 16  1  6
 16 10  1  0
 17 15  1  0
 18 17  2  0
 19 17  1  0
M  END
$$$$
