CAV.pdb
     RDKit          3D

 19 18  0  0  1  0  0  0  0  0999 V2000
    7.8896  -17.6897   16.5442 N   0  0  0  0  0  0  0  0  0  0  0  0
    7.0491  -17.4762   17.7034 C   0  0  1  0  0  0  0  0  0  0  0  0
    6.4492  -18.7976   18.1357 C   0  0  0  0  0  0  0  0  0  0  0  0
    7.7738  -19.8454   18.7982 S   0  0  0  0  0  0  0  0  0  0  0  0
    7.8768  -16.8714   18.7712 C   0  0  0  0  0  0  0  0  0  0  0  0
    9.1093  -17.0893   18.7848 O   0  0  0  0  0  0  0  0  0  0  0  0
    7.1272  -14.4124   21.5354 C   0  0  0  0  0  0  0  0  0  0  0  0
    8.0239  -15.3560   20.7435 C   0  0  2  0  0  0  0  0  0  0  0  0
    7.2455  -16.0476   19.7677 N   0  0  0  0  0  0  0  0  0  0  0  0
    8.6625  -16.3035   21.6894 C   0  0  0  0  0  0  0  0  0  0  0  0
    8.1635  -17.3933   22.0286 O   0  0  0  0  0  0  0  0  0  0  0  0
   12.6625  -18.0152   23.8307 C   0  0  0  0  0  0  0  0  0  0  0  0
   12.0915  -16.9795   22.8806 C   0  0  2  0  0  0  0  0  0  0  0  0
   12.8147  -15.6983   23.1188 C   0  0  0  0  0  0  0  0  0  0  0  0
   10.6213  -16.9112   23.1175 C   0  0  2  0  0  0  0  0  0  0  0  0
    9.9213  -15.9873   22.2672 N   0  0  0  0  0  0  0  0  0  0  0  0
   10.2628  -16.6138   24.5130 C   0  0  0  0  0  0  0  0  0  0  0  0
    9.7747  -15.5119   24.8339 O   0  0  0  0  0  0  0  0  0  0  0  0
   10.4640  -17.5585   25.4930 O   0  0  0  0  0  0  0  0  0  0  0  0
  2  3  1  0
  2  1  1  6
  3  4  1  0
  5  6  2  0
  5  2  1  0
  8  7  1  1
  8  9  1  0
  9  5  1  0
 10 11  2  0
 10  8  1  0
 13 12  1  1
 13 14  1  0
 15 13  1  0
 15 16  1  6
 16 10  1  0
 17 15  1  0
 18 17  2  0
 19 17  1  0
M  END
$$$$
