CAV.pdb
     RDKit          3D

 19 18  0  0  1  0  0  0  0  0999 V2000
    7.7439  -15.6355   18.4175 N   0  0  0  0  0  0  0  0  0  0  0  0
    8.1488  -14.7329   19.4745 C   0  0  1  0  0  0  0  0  0  0  0  0
    7.5391  -13.3691   19.2275 C   0  0  0  0  0  0  0  0  0  0  0  0
    8.8001  -12.1047   19.5480 S   0  0  0  0  0  0  0  0  0  0  0  0
    7.7108  -15.3064   20.7669 C   0  0  0  0  0  0  0  0  0  0  0  0
    6.5032  -15.5930   20.9291 O   0  0  0  0  0  0  0  0  0  0  0  0
    9.0127  -17.2879   23.4123 C   0  0  0  0  0  0  0  0  0  0  0  0
    8.2843  -15.9880   23.0938 C   0  0  2  0  0  0  0  0  0  0  0  0
    8.6829  -15.5207   21.8057 N   0  0  0  0  0  0  0  0  0  0  0  0
    8.6085  -14.9960   24.1478 C   0  0  0  0  0  0  0  0  0  0  0  0
    9.7023  -14.4069   24.2385 O   0  0  0  0  0  0  0  0  0  0  0  0
    6.1644  -12.1926   25.2905 C   0  0  0  0  0  0  0  0  0  0  0  0
    6.6905  -12.8790   26.5368 C   0  0  2  0  0  0  0  0  0  0  0  0
    6.9581  -11.8250   27.5561 C   0  0  0  0  0  0  0  0  0  0  0  0
    7.8883  -13.6744   26.1429 C   0  0  2  0  0  0  0  0  0  0  0  0
    7.6402  -14.6684   25.1344 N   0  0  0  0  0  0  0  0  0  0  0  0
    8.5604  -14.3276   27.2768 C   0  0  0  0  0  0  0  0  0  0  0  0
    8.4053  -15.5437   27.5063 O   0  0  0  0  0  0  0  0  0  0  0  0
    9.3779  -13.5968   28.1080 O   0  0  0  0  0  0  0  0  0  0  0  0
  2  3  1  0
  2  1  1  6
  3  4  1  0
  5  6  2  0
  5  2  1  0
  8  7  1  1
  8  9  1  0
  9  5  1  0
 10 11  2  0
 10  8  1  0
 13 12  1  6
 13 14  1  0
 15 13  1  0
 15 16  1  6
 16 10  1  0
 17 15  1  0
 18 17  2  0
 19 17  1  0
M  END
$$$$
