CAV.pdb
     RDKit          3D

 19 18  0  0  1  0  0  0  0  0999 V2000
    6.0106  -18.5639   18.7740 N   0  0  0  0  0  0  0  0  0  0  0  0
    5.4289  -17.6901   19.7711 C   0  0  1  0  0  0  0  0  0  0  0  0
    4.6150  -18.5157   20.7451 C   0  0  0  0  0  0  0  0  0  0  0  0
    3.8419  -17.3976   21.9466 S   0  0  0  0  0  0  0  0  0  0  0  0
    6.5267  -16.9635   20.4478 C   0  0  0  0  0  0  0  0  0  0  0  0
    7.4482  -17.6161   20.9880 O   0  0  0  0  0  0  0  0  0  0  0  0
    7.3593  -13.3032   20.8601 C   0  0  0  0  0  0  0  0  0  0  0  0
    7.5350  -14.7914   21.1358 C   0  0  2  0  0  0  0  0  0  0  0  0
    6.5087  -15.5249   20.4688 N   0  0  0  0  0  0  0  0  0  0  0  0
    7.4821  -15.0082   22.6022 C   0  0  0  0  0  0  0  0  0  0  0  0
    6.5986  -14.5401   23.3451 O   0  0  0  0  0  0  0  0  0  0  0  0
    8.6132  -18.3780   24.6787 C   0  0  0  0  0  0  0  0  0  0  0  0
    7.8388  -17.1721   25.1762 C   0  0  2  0  0  0  0  0  0  0  0  0
    6.4276  -17.3199   24.7198 C   0  0  0  0  0  0  0  0  0  0  0  0
    8.5271  -15.9518   24.6670 C   0  0  2  0  0  0  0  0  0  0  0  0
    8.4814  -15.7919   23.2391 N   0  0  0  0  0  0  0  0  0  0  0  0
    9.9299  -15.8442   25.0971 C   0  0  0  0  0  0  0  0  0  0  0  0
   10.8617  -15.8455   24.2681 O   0  0  0  0  0  0  0  0  0  0  0  0
   10.2350  -15.7396   26.4347 O   0  0  0  0  0  0  0  0  0  0  0  0
  2  3  1  0
  2  1  1  6
  3  4  1  0
  5  6  2  0
  5  2  1  0
  8  7  1  1
  8  9  1  0
  9  5  1  0
 10 11  2  0
 10  8  1  0
 13 12  1  6
 13 14  1  0
 15 13  1  0
 15 16  1  6
 16 10  1  0
 17 15  1  0
 18 17  2  0
 19 17  1  0
M  END
$$$$
