CAV.pdb
     RDKit          3D

 19 18  0  0  1  0  0  0  0  0999 V2000
    6.7532  -15.2937   19.4890 N   0  0  0  0  0  0  0  0  0  0  0  0
    7.7198  -14.5981   20.3122 C   0  0  1  0  0  0  0  0  0  0  0  0
    7.4381  -13.1111   20.2648 C   0  0  0  0  0  0  0  0  0  0  0  0
    8.1820  -12.4289   18.7572 S   0  0  0  0  0  0  0  0  0  0  0  0
    7.6263  -15.1329   21.6893 C   0  0  0  0  0  0  0  0  0  0  0  0
    6.5078  -15.1856   22.2486 O   0  0  0  0  0  0  0  0  0  0  0  0
    9.4838  -17.5241   23.6143 C   0  0  0  0  0  0  0  0  0  0  0  0
    8.7601  -16.1836   23.6433 C   0  0  2  0  0  0  0  0  0  0  0  0
    8.8228  -15.5793   22.3521 N   0  0  0  0  0  0  0  0  0  0  0  0
    9.4008  -15.3245   24.6689 C   0  0  0  0  0  0  0  0  0  0  0  0
   10.4504  -14.6801   24.4822 O   0  0  0  0  0  0  0  0  0  0  0  0
    7.1441  -13.8116   27.8786 C   0  0  0  0  0  0  0  0  0  0  0  0
    8.4065  -13.1867   27.3156 C   0  0  2  0  0  0  0  0  0  0  0  0
    8.0095  -12.3084   26.1788 C   0  0  0  0  0  0  0  0  0  0  0  0
    9.3324  -14.2947   26.9449 C   0  0  2  0  0  0  0  0  0  0  0  0
    8.8141  -15.2012   25.9568 N   0  0  0  0  0  0  0  0  0  0  0  0
    9.7955  -15.0852   28.0960 C   0  0  0  0  0  0  0  0  0  0  0  0
   10.4230  -14.5541   29.0339 O   0  0  0  0  0  0  0  0  0  0  0  0
    9.5394  -16.4359   28.1529 O   0  0  0  0  0  0  0  0  0  0  0  0
  2  3  1  0
  2  1  1  6
  3  4  1  0
  5  6  2  0
  5  2  1  0
  8  7  1  6
  8  9  1  0
  9  5  1  0
 10 11  2  0
 10  8  1  0
 13 12  1  6
 13 14  1  0
 15 13  1  0
 15 16  1  6
 16 10  1  0
 17 15  1  0
 18 17  2  0
 19 17  1  0
M  END
$$$$
