CAV.pdb
     RDKit          3D

 19 18  0  0  1  0  0  0  0  0999 V2000
    7.5851  -14.6946   18.2050 N   0  0  0  0  0  0  0  0  0  0  0  0
    8.5465  -14.7011   19.2875 C   0  0  1  0  0  0  0  0  0  0  0  0
    9.3259  -13.4030   19.2711 C   0  0  0  0  0  0  0  0  0  0  0  0
    8.1783  -12.0347   19.5906 S   0  0  0  0  0  0  0  0  0  0  0  0
    7.8116  -14.8864   20.5590 C   0  0  0  0  0  0  0  0  0  0  0  0
    6.6245  -14.4976   20.6398 O   0  0  0  0  0  0  0  0  0  0  0  0
    7.8594  -17.2205   23.2525 C   0  0  0  0  0  0  0  0  0  0  0  0
    7.7899  -15.7398   22.8997 C   0  0  2  0  0  0  0  0  0  0  0  0
    8.4787  -15.5088   21.6715 N   0  0  0  0  0  0  0  0  0  0  0  0
    8.3957  -14.9626   24.0084 C   0  0  0  0  0  0  0  0  0  0  0  0
    9.6034  -14.6644   24.0727 O   0  0  0  0  0  0  0  0  0  0  0  0
    5.9546  -13.0944   27.0566 C   0  0  0  0  0  0  0  0  0  0  0  0
    7.2883  -12.5648   26.5650 C   0  0  2  0  0  0  0  0  0  0  0  0
    7.0145  -11.6010   25.4616 C   0  0  0  0  0  0  0  0  0  0  0  0
    8.1210  -13.7360   26.1684 C   0  0  2  0  0  0  0  0  0  0  0  0
    7.5839  -14.5110   25.0833 N   0  0  0  0  0  0  0  0  0  0  0  0
    8.4204  -14.6497   27.2819 C   0  0  0  0  0  0  0  0  0  0  0  0
    7.9661  -15.8110   27.3047 O   0  0  0  0  0  0  0  0  0  0  0  0
    9.2146  -14.2297   28.3241 O   0  0  0  0  0  0  0  0  0  0  0  0
  2  3  1  0
  2  1  1  6
  3  4  1  0
  5  6  2  0
  5  2  1  0
  8  7  1  1
  8  9  1  0
  9  5  1  0
 10 11  2  0
 10  8  1  0
 13 12  1  6
 13 14  1  0
 15 13  1  0
 15 16  1  6
 16 10  1  0
 17 15  1  0
 18 17  2  0
 19 17  1  0
M  END
$$$$
