CAV.pdb
     RDKit          3D

 19 18  0  0  1  0  0  0  0  0999 V2000
    7.3641  -15.0624   18.5760 N   0  0  0  0  0  0  0  0  0  0  0  0
    8.0964  -14.3657   19.6125 C   0  0  1  0  0  0  0  0  0  0  0  0
    7.8492  -12.8774   19.4844 C   0  0  0  0  0  0  0  0  0  0  0  0
    8.9194  -12.2236   18.1734 S   0  0  0  0  0  0  0  0  0  0  0  0
    7.6519  -14.8872   20.9246 C   0  0  0  0  0  0  0  0  0  0  0  0
    6.4270  -14.9385   21.1774 O   0  0  0  0  0  0  0  0  0  0  0  0
    8.8632  -17.1743   23.4052 C   0  0  0  0  0  0  0  0  0  0  0  0
    8.2478  -15.8014   23.1645 C   0  0  2  0  0  0  0  0  0  0  0  0
    8.6377  -15.3225   21.8779 N   0  0  0  0  0  0  0  0  0  0  0  0
    8.7046  -14.8857   24.2383 C   0  0  0  0  0  0  0  0  0  0  0  0
    9.8166  -14.3245   24.2502 O   0  0  0  0  0  0  0  0  0  0  0  0
    5.9850  -13.2106   27.0765 C   0  0  0  0  0  0  0  0  0  0  0  0
    7.3260  -12.6140   26.6934 C   0  0  2  0  0  0  0  0  0  0  0  0
    7.1020  -11.7002   25.5375 C   0  0  0  0  0  0  0  0  0  0  0  0
    8.2597  -13.7425   26.4156 C   0  0  2  0  0  0  0  0  0  0  0  0
    7.8522  -14.6041   25.3394 N   0  0  0  0  0  0  0  0  0  0  0  0
    8.5396  -14.5788   27.5932 C   0  0  0  0  0  0  0  0  0  0  0  0
    9.0522  -14.0949   28.6221 O   0  0  0  0  0  0  0  0  0  0  0  0
    8.2359  -15.9207   27.5740 O   0  0  0  0  0  0  0  0  0  0  0  0
  2  3  1  0
  2  1  1  6
  3  4  1  0
  5  6  2  0
  5  2  1  0
  8  7  1  1
  8  9  1  0
  9  5  1  0
 10 11  2  0
 10  8  1  0
 13 12  1  6
 13 14  1  0
 15 13  1  0
 15 16  1  6
 16 10  1  0
 17 15  1  0
 18 17  2  0
 19 17  1  0
M  END
$$$$
