CAV.pdb
     RDKit          3D

 19 18  0  0  1  0  0  0  0  0999 V2000
    6.4528  -18.2314   19.5129 N   0  0  0  0  0  0  0  0  0  0  0  0
    7.4060  -17.3899   20.2052 C   0  0  1  0  0  0  0  0  0  0  0  0
    7.6413  -16.1317   19.3963 C   0  0  0  0  0  0  0  0  0  0  0  0
    8.9432  -16.4626   18.1769 S   0  0  0  0  0  0  0  0  0  0  0  0
    6.8665  -17.0875   21.5501 C   0  0  0  0  0  0  0  0  0  0  0  0
    5.6577  -16.7849   21.6685 O   0  0  0  0  0  0  0  0  0  0  0  0
    7.5291  -18.0371   24.9197 C   0  0  0  0  0  0  0  0  0  0  0  0
    7.2614  -16.8530   23.9989 C   0  0  2  0  0  0  0  0  0  0  0  0
    7.7438  -17.1484   22.6888 N   0  0  0  0  0  0  0  0  0  0  0  0
    7.9354  -15.6572   24.5613 C   0  0  0  0  0  0  0  0  0  0  0  0
    9.1156  -15.3423   24.3171 O   0  0  0  0  0  0  0  0  0  0  0  0
    7.6164  -11.2434   26.5913 C   0  0  0  0  0  0  0  0  0  0  0  0
    6.8374  -12.4540   26.1131 C   0  0  2  0  0  0  0  0  0  0  0  0
    5.7620  -12.7235   27.1092 C   0  0  0  0  0  0  0  0  0  0  0  0
    7.8064  -13.5726   25.9336 C   0  0  2  0  0  0  0  0  0  0  0  0
    7.2272  -14.7909   25.4367 N   0  0  0  0  0  0  0  0  0  0  0  0
    8.5715  -13.8897   27.1495 C   0  0  0  0  0  0  0  0  0  0  0  0
    8.3443  -14.9270   27.8037 O   0  0  0  0  0  0  0  0  0  0  0  0
    9.5588  -13.0361   27.5852 O   0  0  0  0  0  0  0  0  0  0  0  0
  2  3  1  0
  2  1  1  6
  3  4  1  0
  5  6  2  0
  5  2  1  0
  8  7  1  1
  8  9  1  0
  9  5  1  0
 10 11  2  0
 10  8  1  0
 13 12  1  1
 13 14  1  0
 15 13  1  0
 15 16  1  1
 16 10  1  0
 17 15  1  0
 18 17  2  0
 19 17  1  0
M  END
$$$$
