CAV.pdb
     RDKit          3D

 19 18  0  0  1  0  0  0  0  0999 V2000
    7.5870  -14.5497   18.3414 N   0  0  0  0  0  0  0  0  0  0  0  0
    8.4989  -14.2019   19.4108 C   0  0  1  0  0  0  0  0  0  0  0  0
    8.5850  -12.6944   19.5234 C   0  0  0  0  0  0  0  0  0  0  0  0
    9.8793  -12.1029   18.3981 S   0  0  0  0  0  0  0  0  0  0  0  0
    8.0042  -14.8205   20.6613 C   0  0  0  0  0  0  0  0  0  0  0  0
    6.7868  -14.7404   20.9414 O   0  0  0  0  0  0  0  0  0  0  0  0
    9.2300  -17.3460   23.0457 C   0  0  0  0  0  0  0  0  0  0  0  0
    8.5107  -16.0292   22.7803 C   0  0  2  0  0  0  0  0  0  0  0  0
    8.9338  -15.4987   21.5249 N   0  0  0  0  0  0  0  0  0  0  0  0
    8.8182  -15.0929   23.8889 C   0  0  0  0  0  0  0  0  0  0  0  0
    9.8962  -14.4797   24.0053 O   0  0  0  0  0  0  0  0  0  0  0  0
    7.4701  -11.8669   27.1367 C   0  0  0  0  0  0  0  0  0  0  0  0
    7.0099  -12.8652   26.0913 C   0  0  2  0  0  0  0  0  0  0  0  0
    5.6859  -13.3960   26.5233 C   0  0  0  0  0  0  0  0  0  0  0  0
    8.0746  -13.8997   25.9551 C   0  0  2  0  0  0  0  0  0  0  0  0
    7.8512  -14.8519   24.9015 N   0  0  0  0  0  0  0  0  0  0  0  0
    8.3368  -14.6421   27.1978 C   0  0  0  0  0  0  0  0  0  0  0  0
    8.0506  -15.8517   27.3003 O   0  0  0  0  0  0  0  0  0  0  0  0
    8.9076  -14.0040   28.2750 O   0  0  0  0  0  0  0  0  0  0  0  0
  2  3  1  0
  2  1  1  6
  3  4  1  0
  5  6  2  0
  5  2  1  0
  8  7  1  1
  8  9  1  0
  9  5  1  0
 10 11  2  0
 10  8  1  0
 13 12  1  1
 13 14  1  0
 15 13  1  0
 15 16  1  6
 16 10  1  0
 17 15  1  0
 18 17  2  0
 19 17  1  0
M  END
$$$$
