CAV.pdb
     RDKit          3D

 19 18  0  0  1  0  0  0  0  0999 V2000
    7.6351  -15.3016   18.4413 N   0  0  0  0  0  0  0  0  0  0  0  0
    8.4141  -14.6909   19.4978 C   0  0  1  0  0  0  0  0  0  0  0  0
    8.2727  -13.1856   19.4165 C   0  0  0  0  0  0  0  0  0  0  0  0
    8.5797  -12.6670   17.7053 S   0  0  0  0  0  0  0  0  0  0  0  0
    7.9330  -15.2203   20.7937 C   0  0  0  0  0  0  0  0  0  0  0  0
    6.7116  -15.4491   20.9436 O   0  0  0  0  0  0  0  0  0  0  0  0
    9.1696  -17.3322   23.3404 C   0  0  0  0  0  0  0  0  0  0  0  0
    8.4589  -16.0062   23.0989 C   0  0  2  0  0  0  0  0  0  0  0  0
    8.8803  -15.4593   21.8500 N   0  0  0  0  0  0  0  0  0  0  0  0
    8.7782  -15.0895   24.2205 C   0  0  0  0  0  0  0  0  0  0  0  0
    9.8876  -14.5473   24.3840 O   0  0  0  0  0  0  0  0  0  0  0  0
    6.3111  -12.3186   25.3887 C   0  0  0  0  0  0  0  0  0  0  0  0
    6.8126  -13.0359   26.6277 C   0  0  2  0  0  0  0  0  0  0  0  0
    7.0646  -12.0070   27.6763 C   0  0  0  0  0  0  0  0  0  0  0  0
    8.0151  -13.8256   26.2369 C   0  0  2  0  0  0  0  0  0  0  0  0
    7.7860  -14.7844   25.1904 N   0  0  0  0  0  0  0  0  0  0  0  0
    8.6556  -14.5201   27.3645 C   0  0  0  0  0  0  0  0  0  0  0  0
    8.5153  -15.7481   27.5309 O   0  0  0  0  0  0  0  0  0  0  0  0
    9.4266  -13.8153   28.2602 O   0  0  0  0  0  0  0  0  0  0  0  0
  2  3  1  0
  2  1  1  6
  3  4  1  0
  5  6  2  0
  5  2  1  0
  8  7  1  1
  8  9  1  0
  9  5  1  0
 10 11  2  0
 10  8  1  0
 13 12  1  6
 13 14  1  0
 15 13  1  0
 15 16  1  6
 16 10  1  0
 17 15  1  0
 18 17  2  0
 19 17  1  0
M  END
$$$$
