QPA.pdb
     RDKit          3D

 22 22  0  0  1  0  0  0  0  0999 V2000
    8.9083  -18.8994   15.0054 N   0  0  0  0  0  0  0  0  0  0  0  0
    8.0936  -18.8017   16.1858 C   0  0  0  0  0  0  0  0  0  0  0  0
    7.2274  -19.6975   16.3766 O   0  0  0  0  0  0  0  0  0  0  0  0
    8.2768  -17.6903   17.1270 C   0  0  0  0  0  0  0  0  0  0  0  0
    7.8366  -16.4117   16.4603 C   0  0  0  0  0  0  0  0  0  0  0  0
    8.9004  -15.3359   16.5066 C   0  0  2  0  0  0  0  0  0  0  0  0
   10.0177  -15.7587   15.6365 N   0  0  0  0  0  0  0  0  0  0  0  0
    9.4326  -15.0609   17.8400 C   0  0  0  0  0  0  0  0  0  0  0  0
   10.5570  -15.5874   18.1729 O   0  0  0  0  0  0  0  0  0  0  0  0
    8.7692  -14.2384   18.7860 N   0  0  0  0  0  0  0  0  0  0  0  0
    7.5314  -13.5409   18.5110 C   0  0  0  0  0  0  0  0  0  0  0  0
    7.5707  -12.3415   19.4621 C   0  0  0  0  0  0  0  0  0  0  0  0
    8.2204  -12.9600   20.6549 C   0  0  0  0  0  0  0  0  0  0  0  0
    9.1798  -13.9472   20.1181 C   0  0  1  0  0  0  0  0  0  0  0  0
    9.3146  -15.1630   20.9641 C   0  0  0  0  0  0  0  0  0  0  0  0
    8.4296  -16.0460   20.8542 O   0  0  0  0  0  0  0  0  0  0  0  0
   12.0361  -16.8507   22.7330 C   0  0  0  0  0  0  0  0  0  0  0  0
   10.5249  -16.5999   22.6458 C   0  0  2  0  0  0  0  0  0  0  0  0
   10.3684  -15.3835   21.8759 N   0  0  0  0  0  0  0  0  0  0  0  0
    9.9930  -16.4800   24.0081 C   0  0  0  0  0  0  0  0  0  0  0  0
   10.0488  -17.4607   24.7870 O   0  0  0  0  0  0  0  0  0  0  0  0
    9.4287  -15.2936   24.4451 O   0  0  0  0  0  0  0  0  0  0  0  0
  2  4  1  0
  2  1  1  0
  3  2  2  0
  5  6  1  0
  5  4  1  0
  6  7  1  6
  8  6  1  0
  8 10  1  0
  9  8  2  0
 10 14  1  0
 11 12  1  0
 11 10  1  0
 12 13  1  0
 13 14  1  0
 14 15  1  1
 15 19  1  0
 16 15  2  0
 18 20  1  0
 18 17  1  1
 19 18  1  0
 20 22  1  0
 21 20  2  0
M  END
$$$$
