QPA.pdb
     RDKit          3D

 22 22  0  0  1  0  0  0  0  0999 V2000
    7.8617  -19.8606   19.6051 N   0  0  0  0  0  0  0  0  0  0  0  0
    7.3557  -19.1029   18.4931 C   0  0  0  0  0  0  0  0  0  0  0  0
    6.1068  -19.0708   18.3249 O   0  0  0  0  0  0  0  0  0  0  0  0
    8.2755  -18.3961   17.5936 C   0  0  0  0  0  0  0  0  0  0  0  0
    7.6040  -17.1389   17.1022 C   0  0  0  0  0  0  0  0  0  0  0  0
    8.5722  -15.9862   16.9449 C   0  0  2  0  0  0  0  0  0  0  0  0
    9.6218  -16.3967   15.9888 N   0  0  0  0  0  0  0  0  0  0  0  0
    9.2188  -15.5588   18.1843 C   0  0  0  0  0  0  0  0  0  0  0  0
   10.4069  -15.9812   18.4342 O   0  0  0  0  0  0  0  0  0  0  0  0
    8.5996  -14.6977   19.1259 N   0  0  0  0  0  0  0  0  0  0  0  0
    7.2879  -14.1163   18.9365 C   0  0  0  0  0  0  0  0  0  0  0  0
    7.3356  -12.8321   19.7690 C   0  0  0  0  0  0  0  0  0  0  0  0
    8.1584  -13.2881   20.9277 C   0  0  0  0  0  0  0  0  0  0  0  0
    9.1286  -14.2535   20.3711 C   0  0  1  0  0  0  0  0  0  0  0  0
    9.4506  -15.3712   21.2980 C   0  0  0  0  0  0  0  0  0  0  0  0
    8.6622  -16.3472   21.3242 O   0  0  0  0  0  0  0  0  0  0  0  0
   12.3608  -16.4297   23.3434 C   0  0  0  0  0  0  0  0  0  0  0  0
   10.8480  -16.4651   23.0892 C   0  0  2  0  0  0  0  0  0  0  0  0
   10.5795  -15.4017   22.1436 N   0  0  0  0  0  0  0  0  0  0  0  0
   10.1557  -16.2731   24.3686 C   0  0  0  0  0  0  0  0  0  0  0  0
    9.5520  -15.1980   24.5949 O   0  0  0  0  0  0  0  0  0  0  0  0
   10.1612  -17.2676   25.3318 O   0  0  0  0  0  0  0  0  0  0  0  0
  2  4  1  0
  2  1  1  0
  3  2  2  0
  5  6  1  0
  5  4  1  0
  6  7  1  6
  8  6  1  0
  8 10  1  0
  9  8  2  0
 10 14  1  0
 11 12  1  0
 11 10  1  0
 12 13  1  0
 13 14  1  0
 14 15  1  1
 15 19  1  0
 16 15  2  0
 18 20  1  0
 18 17  1  1
 19 18  1  0
 20 22  1  0
 21 20  2  0
M  END
$$$$
