QPA.pdb
     RDKit          3D

 22 22  0  0  1  0  0  0  0  0999 V2000
    7.1099  -19.4733   17.8601 N   0  0  0  0  0  0  0  0  0  0  0  0
    7.2269  -18.5011   16.8075 C   0  0  0  0  0  0  0  0  0  0  0  0
    6.2656  -18.3932   15.9992 O   0  0  0  0  0  0  0  0  0  0  0  0
    8.4315  -17.6703   16.6919 C   0  0  0  0  0  0  0  0  0  0  0  0
    8.0276  -16.2896   16.2409 C   0  0  0  0  0  0  0  0  0  0  0  0
    9.1460  -15.2800   16.3869 C   0  0  2  0  0  0  0  0  0  0  0  0
   10.3005  -15.7580   15.5977 N   0  0  0  0  0  0  0  0  0  0  0  0
    9.5887  -15.0542   17.7617 C   0  0  0  0  0  0  0  0  0  0  0  0
   10.6919  -15.5895   18.1471 O   0  0  0  0  0  0  0  0  0  0  0  0
    8.8604  -14.2705   18.6928 N   0  0  0  0  0  0  0  0  0  0  0  0
    7.6184  -13.5992   18.3748 C   0  0  0  0  0  0  0  0  0  0  0  0
    7.5814  -12.4207   19.3518 C   0  0  0  0  0  0  0  0  0  0  0  0
    8.1918  -13.0487   20.5604 C   0  0  0  0  0  0  0  0  0  0  0  0
    9.2011  -13.9985   20.0484 C   0  0  1  0  0  0  0  0  0  0  0  0
    9.3292  -15.2290   20.8740 C   0  0  0  0  0  0  0  0  0  0  0  0
    8.4686  -16.1277   20.7113 O   0  0  0  0  0  0  0  0  0  0  0  0
   11.4439  -17.5464   22.0794 C   0  0  0  0  0  0  0  0  0  0  0  0
   10.4055  -16.5998   22.6960 C   0  0  2  0  0  0  0  0  0  0  0  0
   10.3513  -15.4466   21.8219 N   0  0  0  0  0  0  0  0  0  0  0  0
   10.8357  -16.2590   24.0569 C   0  0  0  0  0  0  0  0  0  0  0  0
   11.2353  -15.0983   24.3114 O   0  0  0  0  0  0  0  0  0  0  0  0
   10.8055  -17.2062   25.0662 O   0  0  0  0  0  0  0  0  0  0  0  0
  2  4  1  0
  2  1  1  0
  3  2  2  0
  5  6  1  0
  5  4  1  0
  6  7  1  6
  8  6  1  0
  8 10  1  0
  9  8  2  0
 10 14  1  0
 11 12  1  0
 11 10  1  0
 12 13  1  0
 13 14  1  0
 14 15  1  1
 15 19  1  0
 16 15  2  0
 18 20  1  0
 18 17  1  6
 19 18  1  0
 20 22  1  0
 21 20  2  0
M  END
$$$$
