QPA.pdb
     RDKit          3D

 22 22  0  0  1  0  0  0  0  0999 V2000
    2.6822  -18.2186   20.6495 N   0  0  0  0  0  0  0  0  0  0  0  0
    3.4170  -18.7087   19.5152 C   0  0  0  0  0  0  0  0  0  0  0  0
    2.8334  -18.7184   18.3979 O   0  0  0  0  0  0  0  0  0  0  0  0
    4.7992  -19.1782   19.6698 C   0  0  0  0  0  0  0  0  0  0  0  0
    5.6389  -18.0473   20.2073 C   0  0  0  0  0  0  0  0  0  0  0  0
    6.4602  -17.3706   19.1309 C   0  0  2  0  0  0  0  0  0  0  0  0
    6.8260  -18.3897   18.1251 N   0  0  0  0  0  0  0  0  0  0  0  0
    7.6859  -16.7332   19.6087 C   0  0  0  0  0  0  0  0  0  0  0  0
    8.7606  -17.4360   19.6678 O   0  0  0  0  0  0  0  0  0  0  0  0
    7.7488  -15.3741   20.0092 N   0  0  0  0  0  0  0  0  0  0  0  0
    6.6746  -14.4275   19.7985 C   0  0  0  0  0  0  0  0  0  0  0  0
    7.3886  -13.0743   19.7390 C   0  0  0  0  0  0  0  0  0  0  0  0
    8.4587  -13.2851   20.7578 C   0  0  0  0  0  0  0  0  0  0  0  0
    8.8318  -14.7110   20.6536 C   0  0  1  0  0  0  0  0  0  0  0  0
    9.1961  -15.3250   21.9583 C   0  0  0  0  0  0  0  0  0  0  0  0
    8.2587  -15.6701   22.7178 O   0  0  0  0  0  0  0  0  0  0  0  0
   10.5246  -17.6672   23.4650 C   0  0  0  0  0  0  0  0  0  0  0  0
   10.8632  -16.1815   23.6450 C   0  0  2  0  0  0  0  0  0  0  0  0
   10.5212  -15.5420   22.3916 N   0  0  0  0  0  0  0  0  0  0  0  0
   12.2894  -16.0645   23.9696 C   0  0  0  0  0  0  0  0  0  0  0  0
   12.7038  -16.4285   25.0954 O   0  0  0  0  0  0  0  0  0  0  0  0
   13.1856  -15.5556   23.0451 O   0  0  0  0  0  0  0  0  0  0  0  0
  2  4  1  0
  2  1  1  0
  3  2  2  0
  5  6  1  0
  5  4  1  0
  6  7  1  6
  8  6  1  0
  8 10  1  0
  9  8  2  0
 10 14  1  0
 11 12  1  0
 11 10  1  0
 12 13  1  0
 13 14  1  0
 14 15  1  1
 15 19  1  0
 16 15  2  0
 18 20  1  0
 18 17  1  6
 19 18  1  0
 20 22  1  0
 21 20  2  0
M  END
$$$$
