QPA.pdb
     RDKit          3D

 22 22  0  0  1  0  0  0  0  0999 V2000
    6.2151  -18.8385   24.4628 N   0  0  0  0  0  0  0  0  0  0  0  0
    6.2064  -18.1896   23.1800 C   0  0  0  0  0  0  0  0  0  0  0  0
    5.3700  -18.5897   22.3258 O   0  0  0  0  0  0  0  0  0  0  0  0
    7.1462  -17.0998   22.8906 C   0  0  0  0  0  0  0  0  0  0  0  0
    6.3750  -15.8085   22.7862 C   0  0  0  0  0  0  0  0  0  0  0  0
    7.2775  -14.6035   22.6292 C   0  0  2  0  0  0  0  0  0  0  0  0
    8.1568  -14.8383   21.4647 N   0  0  0  0  0  0  0  0  0  0  0  0
    8.1172  -14.3145   23.7904 C   0  0  0  0  0  0  0  0  0  0  0  0
    9.3576  -14.6494   23.7497 O   0  0  0  0  0  0  0  0  0  0  0  0
    7.6304  -13.6798   24.9615 N   0  0  0  0  0  0  0  0  0  0  0  0
    6.2917  -13.1438   25.0834 C   0  0  0  0  0  0  0  0  0  0  0  0
    6.4366  -12.0381   26.1326 C   0  0  0  0  0  0  0  0  0  0  0  0
    7.4393  -12.6592   27.0472 C   0  0  0  0  0  0  0  0  0  0  0  0
    8.3347  -13.4499   26.1777 C   0  0  1  0  0  0  0  0  0  0  0  0
    8.8228  -14.7030   26.8129 C   0  0  0  0  0  0  0  0  0  0  0  0
    8.0225  -15.6671   26.8817 O   0  0  0  0  0  0  0  0  0  0  0  0
   12.1022  -16.1137   27.7912 C   0  0  0  0  0  0  0  0  0  0  0  0
   10.5786  -16.0929   27.9717 C   0  0  2  0  0  0  0  0  0  0  0  0
   10.1207  -14.8734   27.3391 N   0  0  0  0  0  0  0  0  0  0  0  0
   10.2788  -16.1330   29.4075 C   0  0  0  0  0  0  0  0  0  0  0  0
    9.8368  -15.1092   29.9803 O   0  0  0  0  0  0  0  0  0  0  0  0
   10.4786  -17.2910   30.1396 O   0  0  0  0  0  0  0  0  0  0  0  0
  2  4  1  0
  2  1  1  0
  3  2  2  0
  5  6  1  0
  5  4  1  0
  6  7  1  6
  8  6  1  0
  8 10  1  0
  9  8  2  0
 10 14  1  0
 11 12  1  0
 11 10  1  0
 12 13  1  0
 13 14  1  0
 14 15  1  1
 15 19  1  0
 16 15  2  0
 18 20  1  0
 18 17  1  1
 19 18  1  0
 20 22  1  0
 21 20  2  0
M  END
$$$$
