QPA.pdb
     RDKit          3D

 22 22  0  0  1  0  0  0  0  0999 V2000
    6.8776  -19.0315   17.8729 N   0  0  0  0  0  0  0  0  0  0  0  0
    6.4369  -18.5099   16.6078 C   0  0  0  0  0  0  0  0  0  0  0  0
    5.2510  -18.7514   16.2547 O   0  0  0  0  0  0  0  0  0  0  0  0
    7.3491  -17.7245   15.7678 C   0  0  0  0  0  0  0  0  0  0  0  0
    8.6041  -17.4360   16.5518 C   0  0  0  0  0  0  0  0  0  0  0  0
    9.0597  -15.9994   16.4119 C   0  0  2  0  0  0  0  0  0  0  0  0
   10.1006  -15.9488   15.3639 N   0  0  0  0  0  0  0  0  0  0  0  0
    9.6059  -15.4106   17.6334 C   0  0  0  0  0  0  0  0  0  0  0  0
   10.8175  -15.6888   17.9604 O   0  0  0  0  0  0  0  0  0  0  0  0
    8.8641  -14.5441   18.4763 N   0  0  0  0  0  0  0  0  0  0  0  0
    7.5816  -13.9800   18.1139 C   0  0  0  0  0  0  0  0  0  0  0  0
    7.5112  -12.6844   18.9270 C   0  0  0  0  0  0  0  0  0  0  0  0
    8.1848  -13.1159   20.1871 C   0  0  0  0  0  0  0  0  0  0  0  0
    9.2268  -14.0776   19.7719 C   0  0  1  0  0  0  0  0  0  0  0  0
    9.4392  -15.1792   20.7483 C   0  0  0  0  0  0  0  0  0  0  0  0
    8.6263  -16.1351   20.7287 O   0  0  0  0  0  0  0  0  0  0  0  0
   12.2543  -16.3067   22.8578 C   0  0  0  0  0  0  0  0  0  0  0  0
   10.7488  -16.3403   22.5633 C   0  0  2  0  0  0  0  0  0  0  0  0
   10.4905  -15.2157   21.6884 N   0  0  0  0  0  0  0  0  0  0  0  0
   10.0229  -16.2465   23.8352 C   0  0  0  0  0  0  0  0  0  0  0  0
    9.3470  -15.2225   24.0924 O   0  0  0  0  0  0  0  0  0  0  0  0
   10.0756  -17.2780   24.7572 O   0  0  0  0  0  0  0  0  0  0  0  0
  2  4  1  0
  2  1  1  0
  3  2  2  0
  5  6  1  0
  5  4  1  0
  6  7  1  6
  8  6  1  0
  8 10  1  0
  9  8  2  0
 10 14  1  0
 11 12  1  0
 11 10  1  0
 12 13  1  0
 13 14  1  0
 14 15  1  1
 15 19  1  0
 16 15  2  0
 18 20  1  0
 18 17  1  1
 19 18  1  0
 20 22  1  0
 21 20  2  0
M  END
$$$$
