QPA.pdb
     RDKit          3D

 22 22  0  0  1  0  0  0  0  0999 V2000
    9.2396  -18.9104   16.4031 N   0  0  0  0  0  0  0  0  0  0  0  0
   10.0044  -18.7491   17.6097 C   0  0  0  0  0  0  0  0  0  0  0  0
   10.1483  -19.7575   18.3523 O   0  0  0  0  0  0  0  0  0  0  0  0
   10.5912  -17.4475   17.9508 C   0  0  0  0  0  0  0  0  0  0  0  0
   10.3069  -16.4784   16.8314 C   0  0  0  0  0  0  0  0  0  0  0  0
   10.7707  -15.0727   17.1478 C   0  0  2  0  0  0  0  0  0  0  0  0
   12.2134  -14.9858   16.8391 N   0  0  0  0  0  0  0  0  0  0  0  0
   10.5706  -14.6620   18.5364 C   0  0  0  0  0  0  0  0  0  0  0  0
   11.5361  -14.8233   19.3696 O   0  0  0  0  0  0  0  0  0  0  0  0
    9.3618  -14.0914   19.0106 N   0  0  0  0  0  0  0  0  0  0  0  0
    8.2308  -13.7915   18.1591 C   0  0  0  0  0  0  0  0  0  0  0  0
    7.5170  -12.6512   18.8905 C   0  0  0  0  0  0  0  0  0  0  0  0
    7.7213  -13.0669   20.3094 C   0  0  0  0  0  0  0  0  0  0  0  0
    9.0495  -13.7129   20.3474 C   0  0  1  0  0  0  0  0  0  0  0  0
    9.1297  -14.8467   21.3066 C   0  0  0  0  0  0  0  0  0  0  0  0
    8.8158  -15.9859   20.8842 O   0  0  0  0  0  0  0  0  0  0  0  0
   10.1759  -15.2571   24.8818 C   0  0  0  0  0  0  0  0  0  0  0  0
    9.6190  -15.8351   23.5740 C   0  0  2  0  0  0  0  0  0  0  0  0
    9.5340  -14.7213   22.6525 N   0  0  0  0  0  0  0  0  0  0  0  0
    8.3118  -16.4412   23.8517 C   0  0  0  0  0  0  0  0  0  0  0  0
    7.2637  -15.7897   23.6308 O   0  0  0  0  0  0  0  0  0  0  0  0
    8.2215  -17.7274   24.3560 O   0  0  0  0  0  0  0  0  0  0  0  0
  2  4  1  0
  2  1  1  0
  3  2  2  0
  5  6  1  0
  5  4  1  0
  6  7  1  1
  8  6  1  0
  8 10  1  0
  9  8  2  0
 10 14  1  0
 11 12  1  0
 11 10  1  0
 12 13  1  0
 13 14  1  0
 14 15  1  1
 15 19  1  0
 16 15  2  0
 18 20  1  0
 18 17  1  1
 19 18  1  0
 20 22  1  0
 21 20  2  0
M  END
$$$$
