QPA.pdb
     RDKit          3D

 22 22  0  0  1  0  0  0  0  0999 V2000
    7.7282  -19.4825   15.8155 N   0  0  0  0  0  0  0  0  0  0  0  0
    7.1719  -18.7382   16.9125 C   0  0  0  0  0  0  0  0  0  0  0  0
    6.3151  -19.3130   17.6368 O   0  0  0  0  0  0  0  0  0  0  0  0
    7.5979  -17.3567   17.1669 C   0  0  0  0  0  0  0  0  0  0  0  0
    8.6797  -16.9929   16.1818 C   0  0  0  0  0  0  0  0  0  0  0  0
    9.1626  -15.5681   16.3487 C   0  0  2  0  0  0  0  0  0  0  0  0
   10.2939  -15.3563   15.4215 N   0  0  0  0  0  0  0  0  0  0  0  0
    9.6038  -15.2276   17.7001 C   0  0  0  0  0  0  0  0  0  0  0  0
   10.7609  -15.6312   18.0881 O   0  0  0  0  0  0  0  0  0  0  0  0
    8.8174  -14.4707   18.6057 N   0  0  0  0  0  0  0  0  0  0  0  0
    7.5058  -13.9502   18.2845 C   0  0  0  0  0  0  0  0  0  0  0  0
    7.3665  -12.7274   19.1956 C   0  0  0  0  0  0  0  0  0  0  0  0
    8.0641  -13.2185   20.4203 C   0  0  0  0  0  0  0  0  0  0  0  0
    9.1561  -14.0874   19.9347 C   0  0  1  0  0  0  0  0  0  0  0  0
    9.4290  -15.2485   20.8231 C   0  0  0  0  0  0  0  0  0  0  0  0
    8.7059  -16.2649   20.6862 O   0  0  0  0  0  0  0  0  0  0  0  0
   12.1763  -16.3968   22.9921 C   0  0  0  0  0  0  0  0  0  0  0  0
   10.6714  -16.3976   22.6922 C   0  0  2  0  0  0  0  0  0  0  0  0
   10.4435  -15.2775   21.8032 N   0  0  0  0  0  0  0  0  0  0  0  0
    9.9434  -16.2716   23.9599 C   0  0  0  0  0  0  0  0  0  0  0  0
    9.2832  -15.2329   24.1983 O   0  0  0  0  0  0  0  0  0  0  0  0
    9.9769  -17.2886   24.8988 O   0  0  0  0  0  0  0  0  0  0  0  0
  2  4  1  0
  2  1  1  0
  3  2  2  0
  5  6  1  0
  5  4  1  0
  6  7  1  6
  8  6  1  0
  8 10  1  0
  9  8  2  0
 10 14  1  0
 11 12  1  0
 11 10  1  0
 12 13  1  0
 13 14  1  0
 14 15  1  1
 15 19  1  0
 16 15  2  0
 18 20  1  0
 18 17  1  1
 19 18  1  0
 20 22  1  0
 21 20  2  0
M  END
$$$$
