QPA.pdb
     RDKit          3D

 22 22  0  0  1  0  0  0  0  0999 V2000
    6.9616  -20.8414   16.6329 N   0  0  0  0  0  0  0  0  0  0  0  0
    6.6952  -20.1668   17.8741 C   0  0  0  0  0  0  0  0  0  0  0  0
    6.5319  -20.8757   18.9037 O   0  0  0  0  0  0  0  0  0  0  0  0
    6.6191  -18.7017   17.9239 C   0  0  0  0  0  0  0  0  0  0  0  0
    7.4574  -18.2109   19.0769 C   0  0  0  0  0  0  0  0  0  0  0  0
    8.3072  -17.0134   18.7094 C   0  0  2  0  0  0  0  0  0  0  0  0
    9.2956  -17.4458   17.6993 N   0  0  0  0  0  0  0  0  0  0  0  0
    9.0263  -16.4087   19.8292 C   0  0  0  0  0  0  0  0  0  0  0  0
   10.2423  -16.7664   20.0429 O   0  0  0  0  0  0  0  0  0  0  0  0
    8.4481  -15.4432   20.6924 N   0  0  0  0  0  0  0  0  0  0  0  0
    7.1682  -14.8144   20.4461 C   0  0  0  0  0  0  0  0  0  0  0  0
    7.2778  -13.4700   21.1709 C   0  0  0  0  0  0  0  0  0  0  0  0
    8.0725  -13.8699   22.3693 C   0  0  0  0  0  0  0  0  0  0  0  0
    8.9946  -14.9252   21.9010 C   0  0  1  0  0  0  0  0  0  0  0  0
    9.2565  -15.9776   22.9188 C   0  0  0  0  0  0  0  0  0  0  0  0
    8.3634  -16.8397   23.1033 O   0  0  0  0  0  0  0  0  0  0  0  0
   12.1950  -17.1633   24.8585 C   0  0  0  0  0  0  0  0  0  0  0  0
   10.6721  -17.0819   24.6891 C   0  0  2  0  0  0  0  0  0  0  0  0
   10.4384  -16.0659   23.6841 N   0  0  0  0  0  0  0  0  0  0  0  0
   10.0764  -16.7425   25.9865 C   0  0  0  0  0  0  0  0  0  0  0  0
    9.6035  -15.5967   26.1740 O   0  0  0  0  0  0  0  0  0  0  0  0
   10.0302  -17.6748   27.0090 O   0  0  0  0  0  0  0  0  0  0  0  0
  2  4  1  0
  2  1  1  0
  3  2  2  0
  5  6  1  0
  5  4  1  0
  6  7  1  6
  8  6  1  0
  8 10  1  0
  9  8  2  0
 10 14  1  0
 11 12  1  0
 11 10  1  0
 12 13  1  0
 13 14  1  0
 14 15  1  1
 15 19  1  0
 16 15  2  0
 18 20  1  0
 18 17  1  1
 19 18  1  0
 20 22  1  0
 21 20  2  0
M  END
$$$$
