QPA.pdb
     RDKit          3D

 22 22  0  0  1  0  0  0  0  0999 V2000
   13.3911  -13.9515   19.1123 N   0  0  0  0  0  0  0  0  0  0  0  0
   13.4088  -15.2030   19.8195 C   0  0  0  0  0  0  0  0  0  0  0  0
   14.5254  -15.7607   19.9971 O   0  0  0  0  0  0  0  0  0  0  0  0
   12.1603  -15.7978   20.3117 C   0  0  0  0  0  0  0  0  0  0  0  0
   11.6306  -14.9503   21.4405 C   0  0  0  0  0  0  0  0  0  0  0  0
   10.3111  -15.4594   21.9798 C   0  0  2  0  0  0  0  0  0  0  0  0
   10.5431  -16.7921   22.5752 N   0  0  0  0  0  0  0  0  0  0  0  0
    9.2492  -15.5784   20.9823 C   0  0  0  0  0  0  0  0  0  0  0  0
    8.7244  -16.7341   20.7790 O   0  0  0  0  0  0  0  0  0  0  0  0
    8.7668  -14.4790   20.2273 N   0  0  0  0  0  0  0  0  0  0  0  0
    9.2412  -13.1223   20.3970 C   0  0  0  0  0  0  0  0  0  0  0  0
    8.0590  -12.2636   19.9389 C   0  0  0  0  0  0  0  0  0  0  0  0
    7.5388  -13.0935   18.8128 C   0  0  0  0  0  0  0  0  0  0  0  0
    7.7648  -14.4970   19.2155 C   0  0  1  0  0  0  0  0  0  0  0  0
    8.1036  -15.3928   18.0776 C   0  0  0  0  0  0  0  0  0  0  0  0
    7.1545  -15.8320   17.3839 O   0  0  0  0  0  0  0  0  0  0  0  0
   10.6677  -15.8189   15.7070 C   0  0  0  0  0  0  0  0  0  0  0  0
    9.7352  -16.6358   16.6112 C   0  0  2  0  0  0  0  0  0  0  0  0
    9.4167  -15.7764   17.7323 N   0  0  0  0  0  0  0  0  0  0  0  0
   10.4345  -17.8602   17.0172 C   0  0  0  0  0  0  0  0  0  0  0  0
   10.6998  -18.0539   18.2270 O   0  0  0  0  0  0  0  0  0  0  0  0
   10.8060  -18.8070   16.0778 O   0  0  0  0  0  0  0  0  0  0  0  0
  2  4  1  0
  2  1  1  0
  3  2  2  0
  5  6  1  0
  5  4  1  0
  6  7  1  6
  8  6  1  0
  8 10  1  0
  9  8  2  0
 10 14  1  0
 11 12  1  0
 11 10  1  0
 12 13  1  0
 13 14  1  0
 14 15  1  6
 15 19  1  0
 16 15  2  0
 18 20  1  0
 18 17  1  6
 19 18  1  0
 20 22  1  0
 21 20  2  0
M  END
$$$$
