QPA.pdb
     RDKit          3D

 22 22  0  0  1  0  0  0  0  0999 V2000
    3.3677  -18.8969   19.7890 N   0  0  0  0  0  0  0  0  0  0  0  0
    4.0272  -18.0427   20.7389 C   0  0  0  0  0  0  0  0  0  0  0  0
    3.4558  -17.8440   21.8448 O   0  0  0  0  0  0  0  0  0  0  0  0
    5.3218  -17.4305   20.4163 C   0  0  0  0  0  0  0  0  0  0  0  0
    5.7222  -17.8467   19.0236 C   0  0  0  0  0  0  0  0  0  0  0  0
    6.6584  -16.8549   18.3672 C   0  0  2  0  0  0  0  0  0  0  0  0
    7.2075  -17.4819   17.1466 N   0  0  0  0  0  0  0  0  0  0  0  0
    7.7749  -16.4224   19.2058 C   0  0  0  0  0  0  0  0  0  0  0  0
    8.7816  -17.2100   19.3420 O   0  0  0  0  0  0  0  0  0  0  0  0
    7.8033  -15.1731   19.8766 N   0  0  0  0  0  0  0  0  0  0  0  0
    6.6939  -14.2439   19.8844 C   0  0  0  0  0  0  0  0  0  0  0  0
    7.3617  -12.8817   20.0924 C   0  0  0  0  0  0  0  0  0  0  0  0
    8.4632  -13.2575   21.0269 C   0  0  0  0  0  0  0  0  0  0  0  0
    8.8798  -14.6167   20.6246 C   0  0  1  0  0  0  0  0  0  0  0  0
    9.2964  -15.4716   21.7681 C   0  0  0  0  0  0  0  0  0  0  0  0
    8.3898  -15.9953   22.4600 O   0  0  0  0  0  0  0  0  0  0  0  0
   12.4611  -17.0923   22.8174 C   0  0  0  0  0  0  0  0  0  0  0  0
   11.0335  -16.6501   23.1650 C   0  0  2  0  0  0  0  0  0  0  0  0
   10.6382  -15.7283   22.1205 N   0  0  0  0  0  0  0  0  0  0  0  0
   11.0489  -16.0274   24.4936 C   0  0  0  0  0  0  0  0  0  0  0  0
   11.2492  -16.7333   25.5100 O   0  0  0  0  0  0  0  0  0  0  0  0
   10.8445  -14.6658   24.6388 O   0  0  0  0  0  0  0  0  0  0  0  0
  2  4  1  0
  2  1  1  0
  3  2  2  0
  5  6  1  0
  5  4  1  0
  6  7  1  6
  8  6  1  0
  8 10  1  0
  9  8  2  0
 10 14  1  0
 11 12  1  0
 11 10  1  0
 12 13  1  0
 13 14  1  0
 14 15  1  1
 15 19  1  0
 16 15  2  0
 18 20  1  0
 18 17  1  6
 19 18  1  0
 20 22  1  0
 21 20  2  0
M  END
$$$$
