QPA.pdb
     RDKit          3D

 22 22  0  0  1  0  0  0  0  0999 V2000
    5.5132  -19.7645   17.6764 N   0  0  0  0  0  0  0  0  0  0  0  0
    6.2976  -19.2171   18.7496 C   0  0  0  0  0  0  0  0  0  0  0  0
    5.8320  -18.2222   19.3682 O   0  0  0  0  0  0  0  0  0  0  0  0
    7.5944  -19.8083   19.1007 C   0  0  0  0  0  0  0  0  0  0  0  0
    8.1562  -19.0744   20.2918 C   0  0  0  0  0  0  0  0  0  0  0  0
    8.8461  -17.7833   19.9068 C   0  0  2  0  0  0  0  0  0  0  0  0
    9.7950  -18.0795   18.8131 N   0  0  0  0  0  0  0  0  0  0  0  0
    9.5809  -17.1367   20.9925 C   0  0  0  0  0  0  0  0  0  0  0  0
   10.8272  -17.4141   21.1409 O   0  0  0  0  0  0  0  0  0  0  0  0
    8.9858  -16.2148   21.8912 N   0  0  0  0  0  0  0  0  0  0  0  0
    7.6939  -15.6016   21.6692 C   0  0  0  0  0  0  0  0  0  0  0  0
    7.7793  -14.2831   22.4432 C   0  0  0  0  0  0  0  0  0  0  0  0
    8.5831  -14.7120   23.6254 C   0  0  0  0  0  0  0  0  0  0  0  0
    9.5242  -15.7316   23.1178 C   0  0  1  0  0  0  0  0  0  0  0  0
    9.8073  -16.8158   24.0957 C   0  0  0  0  0  0  0  0  0  0  0  0
    8.9360  -17.7073   24.2403 O   0  0  0  0  0  0  0  0  0  0  0  0
   12.8365  -18.1112   25.7527 C   0  0  0  0  0  0  0  0  0  0  0  0
   11.3048  -18.0242   25.7251 C   0  0  2  0  0  0  0  0  0  0  0  0
   10.9865  -16.9032   24.8655 N   0  0  0  0  0  0  0  0  0  0  0  0
   10.8237  -17.8387   27.0989 C   0  0  0  0  0  0  0  0  0  0  0  0
   10.2700  -16.7622   27.4248 O   0  0  0  0  0  0  0  0  0  0  0  0
   10.9743  -18.8408   28.0423 O   0  0  0  0  0  0  0  0  0  0  0  0
  2  4  1  0
  2  1  1  0
  3  2  2  0
  5  6  1  0
  5  4  1  0
  6  7  1  6
  8  6  1  0
  8 10  1  0
  9  8  2  0
 10 14  1  0
 11 12  1  0
 11 10  1  0
 12 13  1  0
 13 14  1  0
 14 15  1  1
 15 19  1  0
 16 15  2  0
 18 20  1  0
 18 17  1  1
 19 18  1  0
 20 22  1  0
 21 20  2  0
M  END
$$$$
