EAC.pdb
     RDKit          3D

 21 20  0  0  1  0  0  0  0  0999 V2000
   18.4599  -12.4253  -16.7041 N   0  0  0  0  0  0  0  0  0  0  0  0
   19.6308  -11.6833  -17.0450 C   0  0  1  0  0  0  0  0  0  0  0  0
   19.8264  -11.3783  -18.4964 C   0  0  0  0  0  0  0  0  0  0  0  0
   20.1279  -12.5999  -19.2903 C   0  0  0  0  0  0  0  0  0  0  0  0
   21.4000  -13.2610  -19.1071 C   0  0  0  0  0  0  0  0  0  0  0  0
   22.4246  -12.7032  -18.7041 O   0  0  0  0  0  0  0  0  0  0  0  0
   19.6365  -10.4104  -16.2741 C   0  0  0  0  0  0  0  0  0  0  0  0
   18.5394   -9.7893  -16.1689 O   0  0  0  0  0  0  0  0  0  0  0  0
   21.4475  -14.6410  -19.4180 O   0  0  0  0  0  0  0  0  0  0  0  0
   22.1629   -8.5814  -14.2398 C   0  0  0  0  0  0  0  0  0  0  0  0
   20.8092   -8.7384  -14.9091 C   0  0  2  0  0  0  0  0  0  0  0  0
   20.8360   -9.9501  -15.7024 N   0  0  0  0  0  0  0  0  0  0  0  0
   20.6283   -7.5528  -15.7948 C   0  0  0  0  0  0  0  0  0  0  0  0
   20.8071   -7.6922  -17.0078 O   0  0  0  0  0  0  0  0  0  0  0  0
   20.2593   -6.2727  -15.2999 N   0  0  0  0  0  0  0  0  0  0  0  0
   19.8613   -5.1706  -16.1201 C   0  0  1  0  0  0  0  0  0  0  0  0
   18.7100   -5.5286  -17.0563 C   0  0  0  0  0  0  0  0  0  0  0  0
   18.2207   -3.9989  -17.9021 S   0  0  0  0  0  0  0  0  0  0  0  0
   19.5880   -3.9280  -15.3855 C   0  0  0  0  0  0  0  0  0  0  0  0
   19.5372   -2.8612  -16.0547 O   0  0  0  0  0  0  0  0  0  0  0  0
   19.3818   -3.8150  -14.0357 O   0  0  0  0  0  0  0  0  0  0  0  0
  2  1  1  6
  3  2  1  0
  4  5  1  0
  4  3  1  0
  5  6  2  0
  7  2  1  0
  8  7  2  0
  9  5  1  0
 11 10  1  6
 11 13  1  0
 11 12  1  0
 12  7  1  0
 13 15  1  0
 14 13  2  0
 15 16  1  0
 16 19  1  0
 16 17  1  1
 18 17  1  0
 19 20  2  0
 19 21  1  0
M  END
$$$$
