EAC.pdb
     RDKit          3D

 21 20  0  0  1  0  0  0  0  0999 V2000
   14.9195  -11.3733  -17.1670 N   0  0  0  0  0  0  0  0  0  0  0  0
   15.5433  -11.0852  -15.9158 C   0  0  1  0  0  0  0  0  0  0  0  0
   16.4069  -12.1620  -15.3390 C   0  0  0  0  0  0  0  0  0  0  0  0
   15.6273  -13.3813  -14.9938 C   0  0  0  0  0  0  0  0  0  0  0  0
   16.3038  -14.4938  -14.3665 C   0  0  0  0  0  0  0  0  0  0  0  0
   17.4186  -14.4262  -13.8413 O   0  0  0  0  0  0  0  0  0  0  0  0
   16.3443   -9.8384  -16.0519 C   0  0  0  0  0  0  0  0  0  0  0  0
   17.1758   -9.7824  -17.0037 O   0  0  0  0  0  0  0  0  0  0  0  0
   15.6204  -15.7333  -14.3681 O   0  0  0  0  0  0  0  0  0  0  0  0
   16.2164   -6.4538  -14.5694 C   0  0  0  0  0  0  0  0  0  0  0  0
   16.9352   -7.5776  -15.2943 C   0  0  2  0  0  0  0  0  0  0  0  0
   16.1549   -8.7878  -15.1365 N   0  0  0  0  0  0  0  0  0  0  0  0
   18.2615   -7.7361  -14.6322 C   0  0  0  0  0  0  0  0  0  0  0  0
   18.4952   -8.7859  -14.0271 O   0  0  0  0  0  0  0  0  0  0  0  0
   19.2646   -6.7300  -14.6699 N   0  0  0  0  0  0  0  0  0  0  0  0
   20.6094   -6.9090  -14.2172 C   0  0  1  0  0  0  0  0  0  0  0  0
   21.2943   -8.0984  -14.8853 C   0  0  0  0  0  0  0  0  0  0  0  0
   23.0005   -8.1421  -14.2672 S   0  0  0  0  0  0  0  0  0  0  0  0
   21.4443   -5.7021  -14.2857 C   0  0  0  0  0  0  0  0  0  0  0  0
   21.3831   -5.0172  -15.3420 O   0  0  0  0  0  0  0  0  0  0  0  0
   22.2881   -5.2456  -13.3075 O   0  0  0  0  0  0  0  0  0  0  0  0
  2  1  1  6
  3  2  1  0
  4  5  1  0
  4  3  1  0
  5  6  2  0
  7  2  1  0
  8  7  2  0
  9  5  1  0
 11 10  1  1
 11 13  1  0
 11 12  1  0
 12  7  1  0
 13 15  1  0
 14 13  2  0
 15 16  1  0
 16 19  1  0
 16 17  1  6
 18 17  1  0
 19 20  2  0
 19 21  1  0
M  END
$$$$
