EAC.pdb
     RDKit          3D

 21 20  0  0  1  0  0  0  0  0999 V2000
   25.3344  -21.5890  -11.3028 N   0  0  0  0  0  0  0  0  0  0  0  0
   25.1932  -21.7613  -12.7128 C   0  0  1  0  0  0  0  0  0  0  0  0
   24.6708  -23.0855  -13.1727 C   0  0  0  0  0  0  0  0  0  0  0  0
   25.6694  -23.8303  -13.9861 C   0  0  0  0  0  0  0  0  0  0  0  0
   26.0279  -23.3266  -15.2925 C   0  0  0  0  0  0  0  0  0  0  0  0
   26.8561  -22.4337  -15.4929 O   0  0  0  0  0  0  0  0  0  0  0  0
   24.3193  -20.6808  -13.2455 C   0  0  0  0  0  0  0  0  0  0  0  0
   23.3854  -20.2672  -12.4991 O   0  0  0  0  0  0  0  0  0  0  0  0
   25.3705  -23.9135  -16.4001 O   0  0  0  0  0  0  0  0  0  0  0  0
   24.3688  -18.4977  -16.2504 C   0  0  0  0  0  0  0  0  0  0  0  0
   23.7067  -19.1022  -15.0251 C   0  0  2  0  0  0  0  0  0  0  0  0
   24.5553  -20.1684  -14.5336 N   0  0  0  0  0  0  0  0  0  0  0  0
   22.3983  -19.6580  -15.4745 C   0  0  0  0  0  0  0  0  0  0  0  0
   22.3053  -20.8762  -15.6482 O   0  0  0  0  0  0  0  0  0  0  0  0
   21.2576  -18.8439  -15.7102 N   0  0  0  0  0  0  0  0  0  0  0  0
   19.9054  -19.2673  -15.5151 C   0  0  1  0  0  0  0  0  0  0  0  0
   19.6404  -19.7251  -14.0832 C   0  0  0  0  0  0  0  0  0  0  0  0
   17.9088  -20.2648  -14.0122 S   0  0  0  0  0  0  0  0  0  0  0  0
   18.8913  -18.3049  -15.9663 C   0  0  0  0  0  0  0  0  0  0  0  0
   19.0844  -17.0905  -15.6894 O   0  0  0  0  0  0  0  0  0  0  0  0
   17.7491  -18.6003  -16.6629 O   0  0  0  0  0  0  0  0  0  0  0  0
  2  1  1  1
  3  2  1  0
  4  5  1  0
  4  3  1  0
  5  6  2  0
  7  2  1  0
  8  7  2  0
  9  5  1  0
 11 10  1  6
 11 13  1  0
 11 12  1  0
 12  7  1  0
 13 15  1  0
 14 13  2  0
 15 16  1  0
 16 19  1  0
 16 17  1  1
 18 17  1  0
 19 20  2  0
 19 21  1  0
M  END
$$$$
