EAC.pdb
     RDKit          3D

 21 20  0  0  1  0  0  0  0  0999 V2000
   18.0297  -12.1354  -15.6996 N   0  0  0  0  0  0  0  0  0  0  0  0
   18.7789  -11.1746  -16.4435 C   0  0  1  0  0  0  0  0  0  0  0  0
   18.0084  -10.3354  -17.4130 C   0  0  0  0  0  0  0  0  0  0  0  0
   17.4191  -11.1467  -18.5121 C   0  0  0  0  0  0  0  0  0  0  0  0
   16.6841  -10.4789  -19.5622 C   0  0  0  0  0  0  0  0  0  0  0  0
   16.5307   -9.2566  -19.6379 O   0  0  0  0  0  0  0  0  0  0  0  0
   19.4996  -10.2845  -15.4933 C   0  0  0  0  0  0  0  0  0  0  0  0
   18.8165   -9.7285  -14.5852 O   0  0  0  0  0  0  0  0  0  0  0  0
   16.1111  -11.3051  -20.5584 O   0  0  0  0  0  0  0  0  0  0  0  0
   23.0641   -9.5404  -14.7861 C   0  0  0  0  0  0  0  0  0  0  0  0
   21.5762   -9.2605  -14.6727 C   0  0  2  0  0  0  0  0  0  0  0  0
   20.8857  -10.0942  -15.6352 N   0  0  0  0  0  0  0  0  0  0  0  0
   21.3831   -7.8218  -15.0130 C   0  0  0  0  0  0  0  0  0  0  0  0
   21.3709   -7.4954  -16.2030 O   0  0  0  0  0  0  0  0  0  0  0  0
   21.2129   -6.8144  -14.0251 N   0  0  0  0  0  0  0  0  0  0  0  0
   21.0003   -5.4288  -14.3089 C   0  0  1  0  0  0  0  0  0  0  0  0
   19.7536   -4.8790  -13.6207 C   0  0  0  0  0  0  0  0  0  0  0  0
   18.3389   -5.8220  -14.2566 S   0  0  0  0  0  0  0  0  0  0  0  0
   22.1673   -4.5688  -14.0702 C   0  0  0  0  0  0  0  0  0  0  0  0
   23.0997   -5.0433  -13.3674 O   0  0  0  0  0  0  0  0  0  0  0  0
   22.3420   -3.2937  -14.5399 O   0  0  0  0  0  0  0  0  0  0  0  0
  2  1  1  1
  3  2  1  0
  4  5  1  0
  4  3  1  0
  5  6  2  0
  7  2  1  0
  8  7  2  0
  9  5  1  0
 11 10  1  6
 11 13  1  0
 11 12  1  0
 12  7  1  0
 13 15  1  0
 14 13  2  0
 15 16  1  0
 16 19  1  0
 16 17  1  1
 18 17  1  0
 19 20  2  0
 19 21  1  0
M  END
$$$$
