EAC.pdb
     RDKit          3D

 21 20  0  0  1  0  0  0  0  0999 V2000
   17.9266  -11.6326  -12.9162 N   0  0  0  0  0  0  0  0  0  0  0  0
   16.9960  -10.5605  -13.0662 C   0  0  1  0  0  0  0  0  0  0  0  0
   15.5604  -10.8824  -12.7953 C   0  0  0  0  0  0  0  0  0  0  0  0
   15.0195  -11.8829  -13.7544 C   0  0  0  0  0  0  0  0  0  0  0  0
   13.6639  -12.3555  -13.5870 C   0  0  0  0  0  0  0  0  0  0  0  0
   12.6753  -11.8425  -14.1188 O   0  0  0  0  0  0  0  0  0  0  0  0
   17.4159   -9.4316  -12.1923 C   0  0  0  0  0  0  0  0  0  0  0  0
   17.8658   -9.7200  -11.0456 O   0  0  0  0  0  0  0  0  0  0  0  0
   13.4851  -13.4842  -12.7518 O   0  0  0  0  0  0  0  0  0  0  0  0
   18.3716   -5.9609  -12.7061 C   0  0  0  0  0  0  0  0  0  0  0  0
   17.7632   -7.0292  -11.8153 C   0  0  2  0  0  0  0  0  0  0  0  0
   17.2993   -8.1105  -12.6601 N   0  0  0  0  0  0  0  0  0  0  0  0
   16.6082   -6.3975  -11.1153 C   0  0  0  0  0  0  0  0  0  0  0  0
   15.5322   -6.3139  -11.7136 O   0  0  0  0  0  0  0  0  0  0  0  0
   16.6964   -5.8896   -9.7909 N   0  0  0  0  0  0  0  0  0  0  0  0
   15.6441   -5.1923   -9.1187 C   0  0  1  0  0  0  0  0  0  0  0  0
   15.5814   -5.5285   -7.6310 C   0  0  0  0  0  0  0  0  0  0  0  0
   15.0824   -7.2689   -7.5025 S   0  0  0  0  0  0  0  0  0  0  0  0
   15.6323   -3.7400   -9.3407 C   0  0  0  0  0  0  0  0  0  0  0  0
   16.6671   -3.2247   -9.8431 O   0  0  0  0  0  0  0  0  0  0  0  0
   14.6002   -2.8861   -9.0533 O   0  0  0  0  0  0  0  0  0  0  0  0
  2  1  1  1
  3  2  1  0
  4  5  1  0
  4  3  1  0
  5  6  2  0
  7  2  1  0
  8  7  2  0
  9  5  1  0
 11 10  1  6
 11 13  1  0
 11 12  1  0
 12  7  1  0
 13 15  1  0
 14 13  2  0
 15 16  1  0
 16 19  1  0
 16 17  1  1
 18 17  1  0
 19 20  2  0
 19 21  1  0
M  END
$$$$
