EAC.pdb
     RDKit          3D

 21 20  0  0  1  0  0  0  0  0999 V2000
   18.2686  -12.9276  -16.0273 N   0  0  0  0  0  0  0  0  0  0  0  0
   17.6946  -11.6343  -16.2161 C   0  0  1  0  0  0  0  0  0  0  0  0
   16.6766  -11.2043  -15.2079 C   0  0  0  0  0  0  0  0  0  0  0  0
   15.4388  -12.0271  -15.2748 C   0  0  0  0  0  0  0  0  0  0  0  0
   14.8735  -12.5469  -14.0504 C   0  0  0  0  0  0  0  0  0  0  0  0
   14.9388  -11.9802  -12.9559 O   0  0  0  0  0  0  0  0  0  0  0  0
   18.7867  -10.6248  -16.2674 C   0  0  0  0  0  0  0  0  0  0  0  0
   19.7514  -10.7701  -15.4619 O   0  0  0  0  0  0  0  0  0  0  0  0
   14.2052  -13.7914  -14.1395 O   0  0  0  0  0  0  0  0  0  0  0  0
   19.6342   -7.8254  -18.5646 C   0  0  0  0  0  0  0  0  0  0  0  0
   19.8487   -8.6804  -17.3285 C   0  0  2  0  0  0  0  0  0  0  0  0
   18.7103   -9.5651  -17.1888 N   0  0  0  0  0  0  0  0  0  0  0  0
   19.9148   -7.7473  -16.1675 C   0  0  0  0  0  0  0  0  0  0  0  0
   18.8661   -7.4579  -15.5851 O   0  0  0  0  0  0  0  0  0  0  0  0
   21.1332   -7.1796  -15.7060 N   0  0  0  0  0  0  0  0  0  0  0  0
   21.2408   -6.2844  -14.5957 C   0  0  1  0  0  0  0  0  0  0  0  0
   22.6181   -6.3350  -13.9395 C   0  0  0  0  0  0  0  0  0  0  0  0
   22.5566   -5.2375  -12.4950 S   0  0  0  0  0  0  0  0  0  0  0  0
   20.8341   -4.9020  -14.8821 C   0  0  0  0  0  0  0  0  0  0  0  0
   21.2695   -4.3805  -15.9437 O   0  0  0  0  0  0  0  0  0  0  0  0
   20.0229   -4.1197  -14.1030 O   0  0  0  0  0  0  0  0  0  0  0  0
  2  1  1  1
  3  2  1  0
  4  5  1  0
  4  3  1  0
  5  6  2  0
  7  2  1  0
  8  7  2  0
  9  5  1  0
 11 10  1  6
 11 13  1  0
 11 12  1  0
 12  7  1  0
 13 15  1  0
 14 13  2  0
 15 16  1  0
 16 19  1  0
 16 17  1  6
 18 17  1  0
 19 20  2  0
 19 21  1  0
M  END
$$$$
