EAC.pdb
     RDKit          3D

 21 20  0  0  1  0  0  0  0  0999 V2000
   15.7607   -9.6590  -17.8276 N   0  0  0  0  0  0  0  0  0  0  0  0
   15.9696   -9.3203  -16.4567 C   0  0  1  0  0  0  0  0  0  0  0  0
   16.5118  -10.4033  -15.5786 C   0  0  0  0  0  0  0  0  0  0  0  0
   15.5608  -11.5385  -15.4363 C   0  0  0  0  0  0  0  0  0  0  0  0
   15.9176  -12.6520  -14.5868 C   0  0  0  0  0  0  0  0  0  0  0  0
   16.2254  -13.7738  -14.9993 O   0  0  0  0  0  0  0  0  0  0  0  0
   16.8695   -8.1373  -16.3840 C   0  0  0  0  0  0  0  0  0  0  0  0
   17.9936   -8.2255  -16.9578 O   0  0  0  0  0  0  0  0  0  0  0  0
   15.9055  -12.4138  -13.1916 O   0  0  0  0  0  0  0  0  0  0  0  0
   16.5488   -4.6619  -15.0942 C   0  0  0  0  0  0  0  0  0  0  0  0
   17.3291   -5.8362  -15.6572 C   0  0  2  0  0  0  0  0  0  0  0  0
   16.4495   -6.9866  -15.6932 N   0  0  0  0  0  0  0  0  0  0  0  0
   18.4606   -6.0886  -14.7197 C   0  0  0  0  0  0  0  0  0  0  0  0
   18.3888   -7.0574  -13.9586 O   0  0  0  0  0  0  0  0  0  0  0  0
   19.6148   -5.2611  -14.6675 N   0  0  0  0  0  0  0  0  0  0  0  0
   20.8141   -5.5868  -13.9595 C   0  0  1  0  0  0  0  0  0  0  0  0
   21.4633   -6.8688  -14.4745 C   0  0  0  0  0  0  0  0  0  0  0  0
   22.9745   -7.1242  -13.5020 S   0  0  0  0  0  0  0  0  0  0  0  0
   21.7888   -4.4913  -13.8698 C   0  0  0  0  0  0  0  0  0  0  0  0
   22.0065   -3.8252  -14.9174 O   0  0  0  0  0  0  0  0  0  0  0  0
   22.4886   -4.1207  -12.7517 O   0  0  0  0  0  0  0  0  0  0  0  0
  2  1  1  6
  3  2  1  0
  4  5  1  0
  4  3  1  0
  5  6  2  0
  7  2  1  0
  8  7  2  0
  9  5  1  0
 11 10  1  1
 11 13  1  0
 11 12  1  0
 12  7  1  0
 13 15  1  0
 14 13  2  0
 15 16  1  0
 16 19  1  0
 16 17  1  6
 18 17  1  0
 19 20  2  0
 19 21  1  0
M  END
$$$$
