EAC.pdb
     RDKit          3D

 21 20  0  0  1  0  0  0  0  0999 V2000
   19.5535  -12.2121  -17.3889 N   0  0  0  0  0  0  0  0  0  0  0  0
   18.9556  -10.9636  -17.7373 C   0  0  1  0  0  0  0  0  0  0  0  0
   17.6560  -10.6389  -17.0712 C   0  0  0  0  0  0  0  0  0  0  0  0
   16.9755  -11.8539  -16.5476 C   0  0  0  0  0  0  0  0  0  0  0  0
   16.5082  -11.8633  -15.1799 C   0  0  0  0  0  0  0  0  0  0  0  0
   15.9770  -12.8326  -14.6307 O   0  0  0  0  0  0  0  0  0  0  0  0
   19.9286   -9.8706  -17.4666 C   0  0  0  0  0  0  0  0  0  0  0  0
   20.6692   -9.9904  -16.4479 O   0  0  0  0  0  0  0  0  0  0  0  0
   16.6832  -10.6680  -14.4424 O   0  0  0  0  0  0  0  0  0  0  0  0
   21.0812   -6.9135  -19.4076 C   0  0  0  0  0  0  0  0  0  0  0  0
   21.0974   -7.8402  -18.2050 C   0  0  2  0  0  0  0  0  0  0  0  0
   19.9896   -8.7646  -18.3329 N   0  0  0  0  0  0  0  0  0  0  0  0
   20.9096   -6.9827  -17.0000 C   0  0  0  0  0  0  0  0  0  0  0  0
   19.7599   -6.7525  -16.6153 O   0  0  0  0  0  0  0  0  0  0  0  0
   21.9979   -6.4215  -16.2787 N   0  0  0  0  0  0  0  0  0  0  0  0
   21.8612   -5.5829  -15.1281 C   0  0  1  0  0  0  0  0  0  0  0  0
   22.9627   -5.8237  -14.0990 C   0  0  0  0  0  0  0  0  0  0  0  0
   22.6231   -4.7259  -12.6939 S   0  0  0  0  0  0  0  0  0  0  0  0
   21.7109   -4.1525  -15.4273 C   0  0  0  0  0  0  0  0  0  0  0  0
   22.4158   -3.6807  -16.3596 O   0  0  0  0  0  0  0  0  0  0  0  0
   20.8742   -3.2759  -14.7880 O   0  0  0  0  0  0  0  0  0  0  0  0
  2  1  1  1
  3  2  1  0
  4  5  1  0
  4  3  1  0
  5  6  2  0
  7  2  1  0
  8  7  2  0
  9  5  1  0
 11 10  1  6
 11 13  1  0
 11 12  1  0
 12  7  1  0
 13 15  1  0
 14 13  2  0
 15 16  1  0
 16 19  1  0
 16 17  1  1
 18 17  1  0
 19 20  2  0
 19 21  1  0
M  END
$$$$
