EAC.pdb
     RDKit          3D

 21 20  0  0  1  0  0  0  0  0999 V2000
   13.5744   -8.8247   -9.8583 N   0  0  0  0  0  0  0  0  0  0  0  0
   14.9095   -8.7861   -9.3545 C   0  0  1  0  0  0  0  0  0  0  0  0
   15.7083  -10.0438   -9.4888 C   0  0  0  0  0  0  0  0  0  0  0  0
   15.8052  -10.4981  -10.9022 C   0  0  0  0  0  0  0  0  0  0  0  0
   14.9532  -11.5745  -11.3544 C   0  0  0  0  0  0  0  0  0  0  0  0
   13.7203  -11.5241  -11.3816 O   0  0  0  0  0  0  0  0  0  0  0  0
   15.6417   -7.6707  -10.0136 C   0  0  0  0  0  0  0  0  0  0  0  0
   15.3879   -7.4487  -11.2330 O   0  0  0  0  0  0  0  0  0  0  0  0
   15.6011  -12.7551  -11.7899 O   0  0  0  0  0  0  0  0  0  0  0  0
   17.4143   -4.7056   -8.8657 C   0  0  0  0  0  0  0  0  0  0  0  0
   17.2161   -5.7879   -9.9118 C   0  0  2  0  0  0  0  0  0  0  0  0
   16.5722   -6.9183   -9.2749 N   0  0  0  0  0  0  0  0  0  0  0  0
   18.5738   -6.1770  -10.3894 C   0  0  0  0  0  0  0  0  0  0  0  0
   19.3034   -6.8186   -9.6285 O   0  0  0  0  0  0  0  0  0  0  0  0
   19.0601   -5.8397  -11.6815 N   0  0  0  0  0  0  0  0  0  0  0  0
   20.3722   -6.1486  -12.1597 C   0  0  1  0  0  0  0  0  0  0  0  0
   20.3492   -7.1350  -13.3244 C   0  0  0  0  0  0  0  0  0  0  0  0
   19.3846   -8.5733  -12.7807 S   0  0  0  0  0  0  0  0  0  0  0  0
   21.2038   -4.9769  -12.4662 C   0  0  0  0  0  0  0  0  0  0  0  0
   20.6077   -3.9168  -12.7972 O   0  0  0  0  0  0  0  0  0  0  0  0
   22.5723   -4.9238  -12.4272 O   0  0  0  0  0  0  0  0  0  0  0  0
  2  1  1  6
  3  2  1  0
  4  5  1  0
  4  3  1  0
  5  6  2  0
  7  2  1  0
  8  7  2  0
  9  5  1  0
 11 10  1  1
 11 13  1  0
 11 12  1  0
 12  7  1  0
 13 15  1  0
 14 13  2  0
 15 16  1  0
 16 19  1  0
 16 17  1  6
 18 17  1  0
 19 20  2  0
 19 21  1  0
M  END
$$$$
