EAC.pdb
     RDKit          3D

 21 20  0  0  1  0  0  0  0  0999 V2000
   26.9447  -21.8622  -16.2795 N   0  0  0  0  0  0  0  0  0  0  0  0
   25.6137  -22.2700  -15.9634 C   0  0  1  0  0  0  0  0  0  0  0  0
   25.4460  -23.0940  -14.7261 C   0  0  0  0  0  0  0  0  0  0  0  0
   26.1827  -24.3840  -14.8075 C   0  0  0  0  0  0  0  0  0  0  0  0
   25.7694  -25.3691  -15.7811 C   0  0  0  0  0  0  0  0  0  0  0  0
   26.3759  -26.4189  -16.0123 O   0  0  0  0  0  0  0  0  0  0  0  0
   24.7496  -21.0623  -15.8658 C   0  0  0  0  0  0  0  0  0  0  0  0
   25.1238  -20.1412  -15.0835 O   0  0  0  0  0  0  0  0  0  0  0  0
   24.5863  -25.0869  -16.5050 O   0  0  0  0  0  0  0  0  0  0  0  0
   22.3285  -19.4141  -17.9526 C   0  0  0  0  0  0  0  0  0  0  0  0
   22.7623  -19.7892  -16.5468 C   0  0  2  0  0  0  0  0  0  0  0  0
   23.5708  -20.9883  -16.6290 N   0  0  0  0  0  0  0  0  0  0  0  0
   21.5181  -20.0651  -15.7730 C   0  0  0  0  0  0  0  0  0  0  0  0
   21.0487  -21.2060  -15.8014 O   0  0  0  0  0  0  0  0  0  0  0  0
   20.8530  -19.0702  -15.0065 N   0  0  0  0  0  0  0  0  0  0  0  0
   19.6726  -19.2986  -14.2317 C   0  0  1  0  0  0  0  0  0  0  0  0
   19.9326  -19.1931  -12.7313 C   0  0  0  0  0  0  0  0  0  0  0  0
   21.0435  -20.5589  -12.2895 S   0  0  0  0  0  0  0  0  0  0  0  0
   18.5117  -18.4922  -14.6324 C   0  0  0  0  0  0  0  0  0  0  0  0
   18.7060  -17.5849  -15.4854 O   0  0  0  0  0  0  0  0  0  0  0  0
   17.2308  -18.6310  -14.1664 O   0  0  0  0  0  0  0  0  0  0  0  0
  2  1  1  1
  3  2  1  0
  4  5  1  0
  4  3  1  0
  5  6  2  0
  7  2  1  0
  8  7  2  0
  9  5  1  0
 11 10  1  6
 11 13  1  0
 11 12  1  0
 12  7  1  0
 13 15  1  0
 14 13  2  0
 15 16  1  0
 16 19  1  0
 16 17  1  1
 18 17  1  0
 19 20  2  0
 19 21  1  0
M  END
$$$$
