EAC.pdb
     RDKit          3D

 21 20  0  0  1  0  0  0  0  0999 V2000
   16.2645  -10.3077  -10.0798 N   0  0  0  0  0  0  0  0  0  0  0  0
   16.0082  -10.0955  -11.4680 C   0  0  1  0  0  0  0  0  0  0  0  0
   14.5775   -9.8988  -11.8582 C   0  0  0  0  0  0  0  0  0  0  0  0
   13.7431  -11.0913  -11.5496 C   0  0  0  0  0  0  0  0  0  0  0  0
   12.3460  -11.0864  -11.9197 C   0  0  0  0  0  0  0  0  0  0  0  0
   11.4205  -11.3721  -11.1548 O   0  0  0  0  0  0  0  0  0  0  0  0
   16.8052   -8.9278  -11.9326 C   0  0  0  0  0  0  0  0  0  0  0  0
   16.8133   -7.8991  -11.1962 O   0  0  0  0  0  0  0  0  0  0  0  0
   12.0457  -10.7262  -13.2552 O   0  0  0  0  0  0  0  0  0  0  0  0
   19.0174   -8.2352  -14.8511 C   0  0  0  0  0  0  0  0  0  0  0  0
   18.2559   -7.8490  -13.5957 C   0  0  2  0  0  0  0  0  0  0  0  0
   17.5062   -9.0052  -13.1492 N   0  0  0  0  0  0  0  0  0  0  0  0
   17.3215   -6.7529  -13.9807 C   0  0  0  0  0  0  0  0  0  0  0  0
   16.2391   -7.0548  -14.4908 O   0  0  0  0  0  0  0  0  0  0  0  0
   17.6261   -5.3787  -13.7844 N   0  0  0  0  0  0  0  0  0  0  0  0
   16.7508   -4.2986  -14.1206 C   0  0  1  0  0  0  0  0  0  0  0  0
   15.9098   -3.8402  -12.9321 C   0  0  0  0  0  0  0  0  0  0  0  0
   14.9478   -2.4045  -13.4870 S   0  0  0  0  0  0  0  0  0  0  0  0
   17.4064   -3.1628  -14.7830 C   0  0  0  0  0  0  0  0  0  0  0  0
   18.5533   -2.8390  -14.3726 O   0  0  0  0  0  0  0  0  0  0  0  0
   16.8896   -2.4168  -15.8094 O   0  0  0  0  0  0  0  0  0  0  0  0
  2  1  1  1
  3  2  1  0
  4  5  1  0
  4  3  1  0
  5  6  2  0
  7  2  1  0
  8  7  2  0
  9  5  1  0
 11 10  1  6
 11 13  1  0
 11 12  1  0
 12  7  1  0
 13 15  1  0
 14 13  2  0
 15 16  1  0
 16 19  1  0
 16 17  1  1
 18 17  1  0
 19 20  2  0
 19 21  1  0
M  END
$$$$
