EAC.pdb
     RDKit          3D

 21 20  0  0  1  0  0  0  0  0999 V2000
   12.9087   -9.7802   -9.9587 N   0  0  0  0  0  0  0  0  0  0  0  0
   14.3086   -9.9290  -10.1948 C   0  0  1  0  0  0  0  0  0  0  0  0
   14.6999  -10.7564  -11.3781 C   0  0  0  0  0  0  0  0  0  0  0  0
   14.3415  -12.1897  -11.2031 C   0  0  0  0  0  0  0  0  0  0  0  0
   15.3575  -13.1198  -10.7654 C   0  0  0  0  0  0  0  0  0  0  0  0
   16.5469  -12.8306  -10.6075 O   0  0  0  0  0  0  0  0  0  0  0  0
   14.9229   -8.5792  -10.3191 C   0  0  0  0  0  0  0  0  0  0  0  0
   14.4657   -7.8125  -11.2156 O   0  0  0  0  0  0  0  0  0  0  0  0
   14.9339  -14.4455  -10.5072 O   0  0  0  0  0  0  0  0  0  0  0  0
   16.6818   -6.2544   -8.2552 C   0  0  0  0  0  0  0  0  0  0  0  0
   16.5834   -6.9088   -9.6217 C   0  0  2  0  0  0  0  0  0  0  0  0
   15.9695   -8.2102   -9.4554 N   0  0  0  0  0  0  0  0  0  0  0  0
   17.9783   -7.0635  -10.1248 C   0  0  0  0  0  0  0  0  0  0  0  0
   18.7102   -7.8960   -9.5824 O   0  0  0  0  0  0  0  0  0  0  0  0
   18.4973   -6.2933  -11.2005 N   0  0  0  0  0  0  0  0  0  0  0  0
   19.7704   -6.5131  -11.8143 C   0  0  1  0  0  0  0  0  0  0  0  0
   19.7678   -7.7271  -12.7397 C   0  0  0  0  0  0  0  0  0  0  0  0
   18.4252   -7.4780  -13.9355 S   0  0  0  0  0  0  0  0  0  0  0  0
   20.3414   -5.3339  -12.4790 C   0  0  0  0  0  0  0  0  0  0  0  0
   19.5808   -4.3438  -12.6514 O   0  0  0  0  0  0  0  0  0  0  0  0
   21.6277   -5.2046  -12.9325 O   0  0  0  0  0  0  0  0  0  0  0  0
  2  1  1  6
  3  2  1  0
  4  5  1  0
  4  3  1  0
  5  6  2  0
  7  2  1  0
  8  7  2  0
  9  5  1  0
 11 10  1  1
 11 13  1  0
 11 12  1  0
 12  7  1  0
 13 15  1  0
 14 13  2  0
 15 16  1  0
 16 19  1  0
 16 17  1  6
 18 17  1  0
 19 20  2  0
 19 21  1  0
M  END
$$$$
