AEY.pdb
     RDKit          3D

 27 27  0  0  1  0  0  0  0  0999 V2000
    7.0135  -17.2398   18.6714 C   0  0  0  0  0  0  0  0  0  0  0  0
    8.0455  -16.3267   19.2565 C   0  0  2  0  0  0  0  0  0  0  0  0
    9.0398  -15.9235   18.2945 N   0  0  0  0  0  0  0  0  0  0  0  0
    8.6708  -16.8536   20.5032 C   0  0  0  0  0  0  0  0  0  0  0  0
    7.9502  -17.3143   21.4265 O   0  0  0  0  0  0  0  0  0  0  0  0
   10.0761  -16.8146   20.6042 N   0  0  0  0  0  0  0  0  0  0  0  0
   10.7274  -17.3426   21.7611 C   0  0  1  0  0  0  0  0  0  0  0  0
   12.1956  -17.5314   21.5045 C   0  0  0  0  0  0  0  0  0  0  0  0
   12.5350  -18.7393   20.6894 C   0  0  0  0  0  0  0  0  0  0  0  0
   13.9789  -18.8563   20.4077 C   0  0  0  0  0  0  0  0  0  0  0  0
   14.5346  -18.2404   19.4765 O   0  0  0  0  0  0  0  0  0  0  0  0
   10.6564  -16.3569   22.9091 C   0  0  0  0  0  0  0  0  0  0  0  0
   11.1803  -15.2349   22.7195 O   0  0  0  0  0  0  0  0  0  0  0  0
   14.7532  -19.6896   21.2155 O   0  0  0  0  0  0  0  0  0  0  0  0
    6.1308  -10.7254   27.4257 O   0  0  0  0  0  0  0  0  0  0  0  0
    6.7452  -11.7239   26.6880 C   0  0  0  0  0  0  0  0  0  0  0  0
    8.0864  -11.6386   26.3340 C   0  0  0  0  0  0  0  0  0  0  0  0
    8.7086  -12.6249   25.6004 C   0  0  0  0  0  0  0  0  0  0  0  0
    8.0068  -13.7337   25.1950 C   0  0  0  0  0  0  0  0  0  0  0  0
    8.5427  -14.8378   24.4195 C   0  0  0  0  0  0  0  0  0  0  0  0
    9.7001  -15.5735   25.0403 C   0  0  2  0  0  0  0  0  0  0  0  0
   10.0438  -16.6526   24.1323 N   0  0  0  0  0  0  0  0  0  0  0  0
    9.3409  -16.2057   26.3512 C   0  0  0  0  0  0  0  0  0  0  0  0
    9.3321  -15.5576   27.4343 O   0  0  0  0  0  0  0  0  0  0  0  0
    6.6650  -13.7998   25.5596 C   0  0  0  0  0  0  0  0  0  0  0  0
    6.0387  -12.8294   26.2857 C   0  0  0  0  0  0  0  0  0  0  0  0
    8.9931  -17.5534   26.4485 O   0  0  0  0  0  0  0  0  0  0  0  0
  2  1  1  6
  3  2  1  0
  4  2  1  0
  5  4  2  0
  6  4  1  0
  7  6  1  0
  7  8  1  6
  9  8  1  0
 10  9  1  0
 10 11  2  0
 12 22  1  0
 12  7  1  0
 13 12  2  0
 14 10  1  0
 15 16  1  0
 16 17  2  0
 17 18  1  0
 19 20  1  0
 19 18  2  0
 21 20  1  6
 21 23  1  0
 21 22  1  0
 23 27  1  0
 24 23  2  0
 25 19  1  0
 26 25  2  0
 26 16  1  0
M  END
$$$$
