AEY.pdb
     RDKit          3D

 27 27  0  0  1  0  0  0  0  0999 V2000
   12.7309  -18.3172   23.2643 C   0  0  0  0  0  0  0  0  0  0  0  0
   11.4664  -18.0927   24.0335 C   0  0  2  0  0  0  0  0  0  0  0  0
   10.4995  -19.1418   23.8312 N   0  0  0  0  0  0  0  0  0  0  0  0
   10.8668  -16.7451   23.8161 C   0  0  0  0  0  0  0  0  0  0  0  0
   11.5653  -15.7095   23.9699 O   0  0  0  0  0  0  0  0  0  0  0  0
    9.5103  -16.6793   23.4390 N   0  0  0  0  0  0  0  0  0  0  0  0
    8.8948  -15.4139   23.1911 C   0  0  1  0  0  0  0  0  0  0  0  0
    7.9867  -15.4898   21.9968 C   0  0  0  0  0  0  0  0  0  0  0  0
    8.6933  -15.5261   20.6785 C   0  0  0  0  0  0  0  0  0  0  0  0
    7.7693  -15.6352   19.5329 C   0  0  0  0  0  0  0  0  0  0  0  0
    7.8967  -14.9505   18.4985 O   0  0  0  0  0  0  0  0  0  0  0  0
    7.9912  -15.0260   24.3433 C   0  0  0  0  0  0  0  0  0  0  0  0
    7.2083  -15.9082   24.7652 O   0  0  0  0  0  0  0  0  0  0  0  0
    6.7106  -16.5405   19.6106 O   0  0  0  0  0  0  0  0  0  0  0  0
   11.6643  -16.8411   29.2135 O   0  0  0  0  0  0  0  0  0  0  0  0
   10.7488  -15.9232   28.7255 C   0  0  0  0  0  0  0  0  0  0  0  0
    9.3805  -16.1417   28.8324 C   0  0  0  0  0  0  0  0  0  0  0  0
    8.4603  -15.2365   28.3507 C   0  0  0  0  0  0  0  0  0  0  0  0
    8.8800  -14.0782   27.7438 C   0  0  0  0  0  0  0  0  0  0  0  0
    8.0158  -13.0490   27.1950 C   0  0  0  0  0  0  0  0  0  0  0  0
    7.1308  -13.4762   26.0545 C   0  0  2  0  0  0  0  0  0  0  0  0
    8.0052  -13.7552   24.9299 N   0  0  0  0  0  0  0  0  0  0  0  0
    6.1939  -12.3904   25.6181 C   0  0  0  0  0  0  0  0  0  0  0  0
    6.3414  -11.7670   24.5306 O   0  0  0  0  0  0  0  0  0  0  0  0
   10.2542  -13.8786   27.6466 C   0  0  0  0  0  0  0  0  0  0  0  0
   11.1744  -14.7677   28.1199 C   0  0  0  0  0  0  0  0  0  0  0  0
    5.0992  -12.0061   26.3933 O   0  0  0  0  0  0  0  0  0  0  0  0
  2  1  1  6
  3  2  1  0
  4  2  1  0
  5  4  2  0
  6  4  1  0
  7  6  1  0
  7  8  1  6
  9  8  1  0
 10  9  1  0
 10 11  2  0
 12 22  1  0
 12  7  1  0
 13 12  2  0
 14 10  1  0
 15 16  1  0
 16 17  2  0
 17 18  1  0
 19 20  1  0
 19 18  2  0
 21 20  1  1
 21 23  1  0
 21 22  1  0
 23 27  1  0
 24 23  2  0
 25 19  1  0
 26 25  2  0
 26 16  1  0
M  END
$$$$
