AEY.pdb
     RDKit          3D

 27 27  0  0  1  0  0  0  0  0999 V2000
    8.1445  -12.3101   20.2239 C   0  0  0  0  0  0  0  0  0  0  0  0
    8.0849  -13.6977   19.6651 C   0  0  2  0  0  0  0  0  0  0  0  0
    6.9159  -13.9192   18.8521 N   0  0  0  0  0  0  0  0  0  0  0  0
    8.2463  -14.7635   20.6951 C   0  0  0  0  0  0  0  0  0  0  0  0
    7.2350  -15.2579   21.2579 O   0  0  0  0  0  0  0  0  0  0  0  0
    9.5540  -15.1865   21.0077 N   0  0  0  0  0  0  0  0  0  0  0  0
    9.7590  -16.3457   21.8174 C   0  0  1  0  0  0  0  0  0  0  0  0
   11.0964  -16.9660   21.5282 C   0  0  0  0  0  0  0  0  0  0  0  0
   11.3364  -18.2752   22.2115 C   0  0  0  0  0  0  0  0  0  0  0  0
   12.6655  -18.8441   21.9148 C   0  0  0  0  0  0  0  0  0  0  0  0
   13.6155  -18.7899   22.7208 O   0  0  0  0  0  0  0  0  0  0  0  0
    9.8135  -15.9687   23.2836 C   0  0  0  0  0  0  0  0  0  0  0  0
   10.5233  -14.9811   23.5838 O   0  0  0  0  0  0  0  0  0  0  0  0
   12.8671  -19.4675   20.6830 O   0  0  0  0  0  0  0  0  0  0  0  0
    6.3565  -10.5809   26.4388 O   0  0  0  0  0  0  0  0  0  0  0  0
    6.7173  -11.9156   26.3535 C   0  0  0  0  0  0  0  0  0  0  0  0
    6.3572  -12.6923   25.2588 C   0  0  0  0  0  0  0  0  0  0  0  0
    6.7098  -14.0206   25.1627 C   0  0  0  0  0  0  0  0  0  0  0  0
    7.4374  -14.6183   26.1625 C   0  0  0  0  0  0  0  0  0  0  0  0
    7.8687  -16.0043   26.1827 C   0  0  0  0  0  0  0  0  0  0  0  0
    9.2582  -16.2657   25.6656 C   0  0  2  0  0  0  0  0  0  0  0  0
    9.1182  -16.6669   24.2776 N   0  0  0  0  0  0  0  0  0  0  0  0
    9.9322  -17.3981   26.3799 C   0  0  0  0  0  0  0  0  0  0  0  0
   10.2005  -17.3557   27.6125 O   0  0  0  0  0  0  0  0  0  0  0  0
    7.7877  -13.8233   27.2501 C   0  0  0  0  0  0  0  0  0  0  0  0
    7.4442  -12.5073   27.3559 C   0  0  0  0  0  0  0  0  0  0  0  0
   10.3023  -18.5700   25.7192 O   0  0  0  0  0  0  0  0  0  0  0  0
  2  1  1  1
  3  2  1  0
  4  2  1  0
  5  4  2  0
  6  4  1  0
  7  6  1  0
  7  8  1  6
  9  8  1  0
 10  9  1  0
 10 11  2  0
 12 22  1  0
 12  7  1  0
 13 12  2  0
 14 10  1  0
 15 16  1  0
 16 17  2  0
 17 18  1  0
 19 20  1  0
 19 18  2  0
 21 20  1  1
 21 23  1  0
 21 22  1  0
 23 27  1  0
 24 23  2  0
 25 19  1  0
 26 25  2  0
 26 16  1  0
M  END
$$$$
