AEY.pdb
     RDKit          3D

 27 27  0  0  1  0  0  0  0  0999 V2000
   16.8084  -15.3649   18.6939 C   0  0  0  0  0  0  0  0  0  0  0  0
   16.4310  -16.5511   19.5255 C   0  0  2  0  0  0  0  0  0  0  0  0
   16.6854  -17.8018   18.8566 N   0  0  0  0  0  0  0  0  0  0  0  0
   15.0403  -16.4877   20.0592 C   0  0  0  0  0  0  0  0  0  0  0  0
   14.3480  -15.4489   19.8995 O   0  0  0  0  0  0  0  0  0  0  0  0
   14.5419  -17.6177   20.7384 N   0  0  0  0  0  0  0  0  0  0  0  0
   13.2033  -17.6222   21.2381 C   0  0  1  0  0  0  0  0  0  0  0  0
   12.5992  -18.9931   21.1265 C   0  0  0  0  0  0  0  0  0  0  0  0
   11.1626  -19.0757   21.5362 C   0  0  0  0  0  0  0  0  0  0  0  0
   10.6099  -20.4396   21.4250 C   0  0  0  0  0  0  0  0  0  0  0  0
   11.2945  -21.4148   21.0571 O   0  0  0  0  0  0  0  0  0  0  0  0
   13.1867  -17.3088   22.7201 C   0  0  0  0  0  0  0  0  0  0  0  0
   14.2255  -17.5835   23.3642 O   0  0  0  0  0  0  0  0  0  0  0  0
    9.2675  -20.6461   21.7443 O   0  0  0  0  0  0  0  0  0  0  0  0
   10.5819  -14.3101   30.5998 O   0  0  0  0  0  0  0  0  0  0  0  0
   10.6739  -14.6110   29.2508 C   0  0  0  0  0  0  0  0  0  0  0  0
    9.5912  -15.1309   28.5516 C   0  0  0  0  0  0  0  0  0  0  0  0
    9.6704  -15.4344   27.2101 C   0  0  0  0  0  0  0  0  0  0  0  0
   10.8401  -15.2270   26.5208 C   0  0  0  0  0  0  0  0  0  0  0  0
   11.0533  -15.5060   25.1122 C   0  0  0  0  0  0  0  0  0  0  0  0
   12.1389  -16.5006   24.7983 C   0  0  2  0  0  0  0  0  0  0  0  0
   12.0836  -16.7410   23.3679 N   0  0  0  0  0  0  0  0  0  0  0  0
   11.9175  -17.8220   25.4705 C   0  0  0  0  0  0  0  0  0  0  0  0
   11.0722  -18.6604   25.0512 O   0  0  0  0  0  0  0  0  0  0  0  0
   11.9124  -14.7060   27.2394 C   0  0  0  0  0  0  0  0  0  0  0  0
   11.8454  -14.4017   28.5675 C   0  0  0  0  0  0  0  0  0  0  0  0
   12.6380  -18.2026   26.6032 O   0  0  0  0  0  0  0  0  0  0  0  0
  2  1  1  6
  3  2  1  0
  4  2  1  0
  5  4  2  0
  6  4  1  0
  7  6  1  0
  7  8  1  1
  9  8  1  0
 10  9  1  0
 10 11  2  0
 12 22  1  0
 12  7  1  0
 13 12  2  0
 14 10  1  0
 15 16  1  0
 16 17  2  0
 17 18  1  0
 19 20  1  0
 19 18  2  0
 21 20  1  1
 21 23  1  0
 21 22  1  0
 23 27  1  0
 24 23  2  0
 25 19  1  0
 26 25  2  0
 26 16  1  0
M  END
$$$$
