AEY.pdb
     RDKit          3D

 27 27  0  0  1  0  0  0  0  0999 V2000
    8.1080  -12.2519   19.8475 C   0  0  0  0  0  0  0  0  0  0  0  0
    8.2657  -13.6434   19.3184 C   0  0  2  0  0  0  0  0  0  0  0  0
    7.4382  -13.8967   18.1662 N   0  0  0  0  0  0  0  0  0  0  0  0
    8.0974  -14.6996   20.3572 C   0  0  0  0  0  0  0  0  0  0  0  0
    6.9453  -15.0794   20.6926 O   0  0  0  0  0  0  0  0  0  0  0  0
    9.2600  -15.2450   20.9383 N   0  0  0  0  0  0  0  0  0  0  0  0
    9.1678  -16.3881   21.7906 C   0  0  1  0  0  0  0  0  0  0  0  0
   10.2163  -17.4029   21.4335 C   0  0  0  0  0  0  0  0  0  0  0  0
    9.9773  -18.1166   20.1404 C   0  0  0  0  0  0  0  0  0  0  0  0
   11.0347  -19.0946   19.8188 C   0  0  0  0  0  0  0  0  0  0  0  0
   11.2901  -19.4494   18.6509 O   0  0  0  0  0  0  0  0  0  0  0  0
    9.4669  -16.0079   23.2261 C   0  0  0  0  0  0  0  0  0  0  0  0
   10.4640  -15.2740   23.4170 O   0  0  0  0  0  0  0  0  0  0  0  0
   11.7784  -19.6443   20.8634 O   0  0  0  0  0  0  0  0  0  0  0  0
    6.1383  -10.4238   26.5488 O   0  0  0  0  0  0  0  0  0  0  0  0
    6.5841  -11.7350   26.5272 C   0  0  0  0  0  0  0  0  0  0  0  0
    7.9103  -12.0512   26.7969 C   0  0  0  0  0  0  0  0  0  0  0  0
    8.3658  -13.3513   26.7782 C   0  0  0  0  0  0  0  0  0  0  0  0
    7.5063  -14.3823   26.4878 C   0  0  0  0  0  0  0  0  0  0  0  0
    7.8598  -15.7893   26.4340 C   0  0  0  0  0  0  0  0  0  0  0  0
    9.1080  -16.1221   25.6610 C   0  0  2  0  0  0  0  0  0  0  0  0
    8.6888  -16.4373   24.3075 N   0  0  0  0  0  0  0  0  0  0  0  0
    9.8057  -17.3369   26.1943 C   0  0  0  0  0  0  0  0  0  0  0  0
    9.7574  -18.4551   25.6107 O   0  0  0  0  0  0  0  0  0  0  0  0
    6.1826  -14.0445   26.2203 C   0  0  0  0  0  0  0  0  0  0  0  0
    5.7205  -12.7610   26.2361 C   0  0  0  0  0  0  0  0  0  0  0  0
   10.5531  -17.2999   27.3720 O   0  0  0  0  0  0  0  0  0  0  0  0
  2  1  1  1
  3  2  1  0
  4  2  1  0
  5  4  2  0
  6  4  1  0
  7  6  1  0
  7  8  1  6
  9  8  1  0
 10  9  1  0
 10 11  2  0
 12 22  1  0
 12  7  1  0
 13 12  2  0
 14 10  1  0
 15 16  1  0
 16 17  2  0
 17 18  1  0
 19 20  1  0
 19 18  2  0
 21 20  1  1
 21 23  1  0
 21 22  1  0
 23 27  1  0
 24 23  2  0
 25 19  1  0
 26 25  2  0
 26 16  1  0
M  END
$$$$
