AEY.pdb
     RDKit          3D

 27 27  0  0  1  0  0  0  0  0999 V2000
    8.1105  -12.0714   20.4627 C   0  0  0  0  0  0  0  0  0  0  0  0
    8.0523  -13.4280   19.8323 C   0  0  2  0  0  0  0  0  0  0  0  0
    6.8677  -13.6192   19.0344 N   0  0  0  0  0  0  0  0  0  0  0  0
    8.2473  -14.5449   20.8005 C   0  0  0  0  0  0  0  0  0  0  0  0
    7.2616  -15.0285   21.4156 O   0  0  0  0  0  0  0  0  0  0  0  0
    9.5570  -15.0279   20.9958 N   0  0  0  0  0  0  0  0  0  0  0  0
    9.7775  -16.2163   21.7578 C   0  0  1  0  0  0  0  0  0  0  0  0
   11.0594  -16.8819   21.3448 C   0  0  0  0  0  0  0  0  0  0  0  0
   11.2652  -18.2477   21.9198 C   0  0  0  0  0  0  0  0  0  0  0  0
   12.4509  -18.9318   21.3682 C   0  0  0  0  0  0  0  0  0  0  0  0
   12.6299  -20.1610   21.4779 O   0  0  0  0  0  0  0  0  0  0  0  0
    9.9668  -15.8822   23.2231 C   0  0  0  0  0  0  0  0  0  0  0  0
   10.7038  -14.9039   23.4858 O   0  0  0  0  0  0  0  0  0  0  0  0
   13.4100  -18.1726   20.6972 O   0  0  0  0  0  0  0  0  0  0  0  0
    5.2723  -11.1801   25.8154 O   0  0  0  0  0  0  0  0  0  0  0  0
    5.9781  -12.3683   25.9093 C   0  0  0  0  0  0  0  0  0  0  0  0
    7.3063  -12.3886   26.3179 C   0  0  0  0  0  0  0  0  0  0  0  0
    8.0188  -13.5637   26.4150 C   0  0  0  0  0  0  0  0  0  0  0  0
    7.4240  -14.7622   26.1054 C   0  0  0  0  0  0  0  0  0  0  0  0
    8.0628  -16.0645   26.1642 C   0  0  0  0  0  0  0  0  0  0  0  0
    9.4659  -16.1310   25.6226 C   0  0  2  0  0  0  0  0  0  0  0  0
    9.3632  -16.6090   24.2559 N   0  0  0  0  0  0  0  0  0  0  0  0
   10.3206  -17.1141   26.3642 C   0  0  0  0  0  0  0  0  0  0  0  0
   10.6336  -16.9578   27.5770 O   0  0  0  0  0  0  0  0  0  0  0  0
    6.0935  -14.7201   25.6980 C   0  0  0  0  0  0  0  0  0  0  0  0
    5.3782  -13.5627   25.5984 C   0  0  0  0  0  0  0  0  0  0  0  0
   10.8206  -18.2644   25.7528 O   0  0  0  0  0  0  0  0  0  0  0  0
  2  1  1  1
  3  2  1  0
  4  2  1  0
  5  4  2  0
  6  4  1  0
  7  6  1  0
  7  8  1  6
  9  8  1  0
 10  9  1  0
 10 11  2  0
 12 22  1  0
 12  7  1  0
 13 12  2  0
 14 10  1  0
 15 16  1  0
 16 17  2  0
 17 18  1  0
 19 20  1  0
 19 18  2  0
 21 20  1  1
 21 23  1  0
 21 22  1  0
 23 27  1  0
 24 23  2  0
 25 19  1  0
 26 25  2  0
 26 16  1  0
M  END
$$$$
