AEY.pdb
     RDKit          3D

 27 27  0  0  1  0  0  0  0  0999 V2000
    8.1699  -12.3482   19.4749 C   0  0  0  0  0  0  0  0  0  0  0  0
    7.9569  -13.7168   18.9067 C   0  0  2  0  0  0  0  0  0  0  0  0
    6.6829  -13.8523   18.2472 N   0  0  0  0  0  0  0  0  0  0  0  0
    8.1843  -14.8136   19.8908 C   0  0  0  0  0  0  0  0  0  0  0  0
    7.2396  -15.2173   20.6177 O   0  0  0  0  0  0  0  0  0  0  0  0
    9.4771  -15.3692   19.9728 N   0  0  0  0  0  0  0  0  0  0  0  0
    9.7357  -16.4566   20.8628 C   0  0  1  0  0  0  0  0  0  0  0  0
   10.8367  -17.3289   20.3298 C   0  0  0  0  0  0  0  0  0  0  0  0
   10.3856  -18.3843   19.3701 C   0  0  0  0  0  0  0  0  0  0  0  0
   11.4610  -19.3260   19.0030 C   0  0  0  0  0  0  0  0  0  0  0  0
   12.5474  -18.9507   18.5193 O   0  0  0  0  0  0  0  0  0  0  0  0
   10.2524  -15.9460   22.1920 C   0  0  0  0  0  0  0  0  0  0  0  0
   11.2931  -15.2494   22.1603 O   0  0  0  0  0  0  0  0  0  0  0  0
   11.2537  -20.6908   19.2051 O   0  0  0  0  0  0  0  0  0  0  0  0
   10.7895  -14.8421   31.0013 O   0  0  0  0  0  0  0  0  0  0  0  0
   10.3840  -15.0451   29.6924 C   0  0  0  0  0  0  0  0  0  0  0  0
   10.0963  -13.9764   28.8518 C   0  0  0  0  0  0  0  0  0  0  0  0
    9.6918  -14.1654   27.5485 C   0  0  0  0  0  0  0  0  0  0  0  0
    9.5612  -15.4348   27.0408 C   0  0  0  0  0  0  0  0  0  0  0  0
    9.1433  -15.7677   25.6910 C   0  0  0  0  0  0  0  0  0  0  0  0
   10.2298  -15.7637   24.6490 C   0  0  2  0  0  0  0  0  0  0  0  0
    9.6229  -16.2200   23.4118 N   0  0  0  0  0  0  0  0  0  0  0  0
   11.3360  -16.7228   24.9705 C   0  0  0  0  0  0  0  0  0  0  0  0
   12.4618  -16.3391   25.3931 O   0  0  0  0  0  0  0  0  0  0  0  0
    9.8536  -16.4911   27.8989 C   0  0  0  0  0  0  0  0  0  0  0  0
   10.2550  -16.3159   29.1909 C   0  0  0  0  0  0  0  0  0  0  0  0
   11.1826  -18.1016   24.8209 O   0  0  0  0  0  0  0  0  0  0  0  0
  2  1  1  1
  3  2  1  0
  4  2  1  0
  5  4  2  0
  6  4  1  0
  7  6  1  0
  7  8  1  6
  9  8  1  0
 10  9  1  0
 10 11  2  0
 12 22  1  0
 12  7  1  0
 13 12  2  0
 14 10  1  0
 15 16  1  0
 16 17  2  0
 17 18  1  0
 19 20  1  0
 19 18  2  0
 21 20  1  1
 21 23  1  0
 21 22  1  0
 23 27  1  0
 24 23  2  0
 25 19  1  0
 26 25  2  0
 26 16  1  0
M  END
$$$$
