AEY.pdb
     RDKit          3D

 27 27  0  0  1  0  0  0  0  0999 V2000
    8.0870  -12.2365   19.4909 C   0  0  0  0  0  0  0  0  0  0  0  0
    7.9025  -13.5818   18.8606 C   0  0  2  0  0  0  0  0  0  0  0  0
    6.6073  -13.7352   18.2480 N   0  0  0  0  0  0  0  0  0  0  0  0
    8.2144  -14.7172   19.7752 C   0  0  0  0  0  0  0  0  0  0  0  0
    7.3063  -15.2302   20.4795 O   0  0  0  0  0  0  0  0  0  0  0  0
    9.5438  -15.1837   19.8187 N   0  0  0  0  0  0  0  0  0  0  0  0
    9.8736  -16.3405   20.5897 C   0  0  1  0  0  0  0  0  0  0  0  0
   10.9895  -17.1101   19.9420 C   0  0  0  0  0  0  0  0  0  0  0  0
   11.4058  -18.3432   20.6801 C   0  0  0  0  0  0  0  0  0  0  0  0
   12.5318  -19.0469   20.0360 C   0  0  0  0  0  0  0  0  0  0  0  0
   13.3991  -18.4544   19.3639 O   0  0  0  0  0  0  0  0  0  0  0  0
   10.4134  -15.9401   21.9472 C   0  0  0  0  0  0  0  0  0  0  0  0
   11.3506  -15.1089   21.9563 O   0  0  0  0  0  0  0  0  0  0  0  0
   12.6297  -20.4306   20.1850 O   0  0  0  0  0  0  0  0  0  0  0  0
   10.4252  -14.2526   30.6200 O   0  0  0  0  0  0  0  0  0  0  0  0
   10.1572  -14.7297   29.3475 C   0  0  0  0  0  0  0  0  0  0  0  0
   10.4169  -16.0506   29.0022 C   0  0  0  0  0  0  0  0  0  0  0  0
   10.1550  -16.5368   27.7400 C   0  0  0  0  0  0  0  0  0  0  0  0
    9.6225  -15.7145   26.7776 C   0  0  0  0  0  0  0  0  0  0  0  0
    9.3036  -16.1017   25.4153 C   0  0  0  0  0  0  0  0  0  0  0  0
   10.4132  -15.9384   24.4110 C   0  0  2  0  0  0  0  0  0  0  0  0
    9.9130  -16.4534   23.1494 N   0  0  0  0  0  0  0  0  0  0  0  0
   11.6263  -16.7465   24.7605 C   0  0  0  0  0  0  0  0  0  0  0  0
   11.6873  -17.9923   24.5672 O   0  0  0  0  0  0  0  0  0  0  0  0
    9.3701  -14.3953   27.1434 C   0  0  0  0  0  0  0  0  0  0  0  0
    9.6253  -13.9031   28.3900 C   0  0  0  0  0  0  0  0  0  0  0  0
   12.7634  -16.1640   25.3214 O   0  0  0  0  0  0  0  0  0  0  0  0
  2  1  1  1
  3  2  1  0
  4  2  1  0
  5  4  2  0
  6  4  1  0
  7  6  1  0
  7  8  1  6
  9  8  1  0
 10  9  1  0
 10 11  2  0
 12 22  1  0
 12  7  1  0
 13 12  2  0
 14 10  1  0
 15 16  1  0
 16 17  2  0
 17 18  1  0
 19 20  1  0
 19 18  2  0
 21 20  1  1
 21 23  1  0
 21 22  1  0
 23 27  1  0
 24 23  2  0
 25 19  1  0
 26 25  2  0
 26 16  1  0
M  END
$$$$
