AEY.pdb
     RDKit          3D

 27 27  0  0  1  0  0  0  0  0999 V2000
    7.3532  -12.7989   18.9068 C   0  0  0  0  0  0  0  0  0  0  0  0
    8.6346  -13.3155   19.4832 C   0  0  2  0  0  0  0  0  0  0  0  0
    9.5424  -13.7991   18.4740 N   0  0  0  0  0  0  0  0  0  0  0  0
    8.4392  -14.3171   20.5701 C   0  0  0  0  0  0  0  0  0  0  0  0
    7.6724  -14.0622   21.5350 O   0  0  0  0  0  0  0  0  0  0  0  0
    9.1362  -15.5385   20.4753 N   0  0  0  0  0  0  0  0  0  0  0  0
    8.9613  -16.5442   21.4750 C   0  0  1  0  0  0  0  0  0  0  0  0
    9.5176  -17.8594   21.0085 C   0  0  0  0  0  0  0  0  0  0  0  0
    9.4185  -18.9675   22.0090 C   0  0  0  0  0  0  0  0  0  0  0  0
    9.8644  -20.2683   21.4732 C   0  0  0  0  0  0  0  0  0  0  0  0
    9.8788  -21.3092   22.1598 O   0  0  0  0  0  0  0  0  0  0  0  0
    9.7572  -16.2038   22.7182 C   0  0  0  0  0  0  0  0  0  0  0  0
   10.9405  -15.8314   22.5434 O   0  0  0  0  0  0  0  0  0  0  0  0
   10.2870  -20.3360   20.1453 O   0  0  0  0  0  0  0  0  0  0  0  0
    4.7552  -12.5540   27.0216 O   0  0  0  0  0  0  0  0  0  0  0  0
    5.9834  -13.0149   26.5769 C   0  0  0  0  0  0  0  0  0  0  0  0
    6.0746  -14.0279   25.6299 C   0  0  0  0  0  0  0  0  0  0  0  0
    7.2902  -14.4950   25.1801 C   0  0  0  0  0  0  0  0  0  0  0  0
    8.4595  -13.9620   25.6646 C   0  0  0  0  0  0  0  0  0  0  0  0
    9.7987  -14.3653   25.2756 C   0  0  0  0  0  0  0  0  0  0  0  0
   10.0235  -15.8478   25.1416 C   0  0  2  0  0  0  0  0  0  0  0  0
    9.2276  -16.2898   24.0109 N   0  0  0  0  0  0  0  0  0  0  0  0
    9.5412  -16.6113   26.3380 C   0  0  0  0  0  0  0  0  0  0  0  0
    8.5371  -17.3748   26.2929 O   0  0  0  0  0  0  0  0  0  0  0  0
    8.3464  -12.9488   26.6125 C   0  0  0  0  0  0  0  0  0  0  0  0
    7.1484  -12.4784   27.0650 C   0  0  0  0  0  0  0  0  0  0  0  0
   10.1790  -16.5213   27.5758 O   0  0  0  0  0  0  0  0  0  0  0  0
  2  1  1  6
  3  2  1  0
  4  2  1  0
  5  4  2  0
  6  4  1  0
  7  6  1  0
  7  8  1  6
  9  8  1  0
 10  9  1  0
 10 11  2  0
 12 22  1  0
 12  7  1  0
 13 12  2  0
 14 10  1  0
 15 16  1  0
 16 17  2  0
 17 18  1  0
 19 20  1  0
 19 18  2  0
 21 20  1  1
 21 23  1  0
 21 22  1  0
 23 27  1  0
 24 23  2  0
 25 19  1  0
 26 25  2  0
 26 16  1  0
M  END
$$$$
