AEY.pdb
     RDKit          3D

 27 27  0  0  1  0  0  0  0  0999 V2000
    7.9246  -12.3537   19.8295 C   0  0  0  0  0  0  0  0  0  0  0  0
    8.1272  -13.7067   19.2215 C   0  0  2  0  0  0  0  0  0  0  0  0
    7.1937  -13.9837   18.1593 N   0  0  0  0  0  0  0  0  0  0  0  0
    8.1628  -14.8114   20.2221 C   0  0  0  0  0  0  0  0  0  0  0  0
    7.1517  -15.5404   20.3960 O   0  0  0  0  0  0  0  0  0  0  0  0
    9.3531  -15.0021   20.9527 N   0  0  0  0  0  0  0  0  0  0  0  0
    9.5587  -16.2105   21.6869 C   0  0  1  0  0  0  0  0  0  0  0  0
   10.8555  -16.8579   21.2919 C   0  0  0  0  0  0  0  0  0  0  0  0
   11.0845  -18.2097   21.8909 C   0  0  0  0  0  0  0  0  0  0  0  0
   12.3544  -18.8238   21.4572 C   0  0  0  0  0  0  0  0  0  0  0  0
   13.2089  -18.2041   20.7932 O   0  0  0  0  0  0  0  0  0  0  0  0
    9.7045  -15.9172   23.1658 C   0  0  0  0  0  0  0  0  0  0  0  0
   10.4623  -14.9700   23.4788 O   0  0  0  0  0  0  0  0  0  0  0  0
   12.6091  -20.1509   21.8041 O   0  0  0  0  0  0  0  0  0  0  0  0
    6.4813  -10.4666   26.1862 O   0  0  0  0  0  0  0  0  0  0  0  0
    6.8302  -11.8072   26.1802 C   0  0  0  0  0  0  0  0  0  0  0  0
    7.6989  -12.3313   27.1300 C   0  0  0  0  0  0  0  0  0  0  0  0
    8.0536  -13.6625   27.1342 C   0  0  0  0  0  0  0  0  0  0  0  0
    7.5490  -14.5170   26.1848 C   0  0  0  0  0  0  0  0  0  0  0  0
    7.8444  -15.9344   26.0790 C   0  0  0  0  0  0  0  0  0  0  0  0
    9.2113  -16.2812   25.5522 C   0  0  2  0  0  0  0  0  0  0  0  0
    9.0404  -16.6477   24.1580 N   0  0  0  0  0  0  0  0  0  0  0  0
    9.8080  -17.4695   26.2443 C   0  0  0  0  0  0  0  0  0  0  0  0
    9.8130  -18.6209   25.7271 O   0  0  0  0  0  0  0  0  0  0  0  0
    6.6811  -13.9723   25.2426 C   0  0  0  0  0  0  0  0  0  0  0  0
    6.3228  -12.6560   25.2288 C   0  0  0  0  0  0  0  0  0  0  0  0
   10.3955  -17.3693   27.5059 O   0  0  0  0  0  0  0  0  0  0  0  0
  2  1  1  1
  3  2  1  0
  4  2  1  0
  5  4  2  0
  6  4  1  0
  7  6  1  0
  7  8  1  6
  9  8  1  0
 10  9  1  0
 10 11  2  0
 12 22  1  0
 12  7  1  0
 13 12  2  0
 14 10  1  0
 15 16  1  0
 16 17  2  0
 17 18  1  0
 19 20  1  0
 19 18  2  0
 21 20  1  1
 21 23  1  0
 21 22  1  0
 23 27  1  0
 24 23  2  0
 25 19  1  0
 26 25  2  0
 26 16  1  0
M  END
$$$$
