AEY.pdb
     RDKit          3D

 27 27  0  0  1  0  0  0  0  0999 V2000
    7.0127  -12.8776   18.7781 C   0  0  0  0  0  0  0  0  0  0  0  0
    8.3935  -13.3437   19.1208 C   0  0  2  0  0  0  0  0  0  0  0  0
    9.1589  -13.7152   17.9578 N   0  0  0  0  0  0  0  0  0  0  0  0
    8.4220  -14.4122   20.1603 C   0  0  0  0  0  0  0  0  0  0  0  0
    7.6864  -14.3249   21.1777 O   0  0  0  0  0  0  0  0  0  0  0  0
    9.2911  -15.5038   19.9610 N   0  0  0  0  0  0  0  0  0  0  0  0
    9.3278  -16.5739   20.9070 C   0  0  1  0  0  0  0  0  0  0  0  0
   10.1959  -17.6941   20.4084 C   0  0  0  0  0  0  0  0  0  0  0  0
    9.6141  -18.4742   19.2720 C   0  0  0  0  0  0  0  0  0  0  0  0
   10.4985  -19.5605   18.8073 C   0  0  0  0  0  0  0  0  0  0  0  0
   11.1210  -19.5058   17.7282 O   0  0  0  0  0  0  0  0  0  0  0  0
    9.9788  -16.1219   22.1979 C   0  0  0  0  0  0  0  0  0  0  0  0
   11.0397  -15.4642   22.0920 O   0  0  0  0  0  0  0  0  0  0  0  0
   10.6436  -20.6942   19.6074 O   0  0  0  0  0  0  0  0  0  0  0  0
   10.7911  -14.6357   30.9230 O   0  0  0  0  0  0  0  0  0  0  0  0
   10.3580  -14.8580   29.6261 C   0  0  0  0  0  0  0  0  0  0  0  0
   10.1548  -13.8048   28.7424 C   0  0  0  0  0  0  0  0  0  0  0  0
    9.7240  -14.0130   27.4504 C   0  0  0  0  0  0  0  0  0  0  0  0
    9.4812  -15.2868   26.9980 C   0  0  0  0  0  0  0  0  0  0  0  0
    9.0244  -15.6391   25.6658 C   0  0  0  0  0  0  0  0  0  0  0  0
   10.1047  -15.8890   24.6475 C   0  0  2  0  0  0  0  0  0  0  0  0
    9.4479  -16.4072   23.4612 N   0  0  0  0  0  0  0  0  0  0  0  0
   11.0832  -16.9330   25.0942 C   0  0  0  0  0  0  0  0  0  0  0  0
   12.2046  -16.6389   25.5933 O   0  0  0  0  0  0  0  0  0  0  0  0
    9.6905  -16.3273   27.8986 C   0  0  0  0  0  0  0  0  0  0  0  0
   10.1169  -16.1330   29.1799 C   0  0  0  0  0  0  0  0  0  0  0  0
   10.8078  -18.2964   24.9837 O   0  0  0  0  0  0  0  0  0  0  0  0
  2  1  1  6
  3  2  1  0
  4  2  1  0
  5  4  2  0
  6  4  1  0
  7  6  1  0
  7  8  1  6
  9  8  1  0
 10  9  1  0
 10 11  2  0
 12 22  1  0
 12  7  1  0
 13 12  2  0
 14 10  1  0
 15 16  1  0
 16 17  2  0
 17 18  1  0
 19 20  1  0
 19 18  2  0
 21 20  1  1
 21 23  1  0
 21 22  1  0
 23 27  1  0
 24 23  2  0
 25 19  1  0
 26 25  2  0
 26 16  1  0
M  END
$$$$
