AEY.pdb
     RDKit          3D

 27 27  0  0  1  0  0  0  0  0999 V2000
    6.7133  -13.6316   19.2619 C   0  0  0  0  0  0  0  0  0  0  0  0
    7.9301  -13.4988   20.1239 C   0  0  2  0  0  0  0  0  0  0  0  0
    9.1389  -13.3347   19.3568 N   0  0  0  0  0  0  0  0  0  0  0  0
    8.0661  -14.5852   21.1358 C   0  0  0  0  0  0  0  0  0  0  0  0
    7.0858  -14.9035   21.8582 O   0  0  0  0  0  0  0  0  0  0  0  0
    9.3148  -15.2291   21.2491 N   0  0  0  0  0  0  0  0  0  0  0  0
    9.4430  -16.4125   22.0394 C   0  0  1  0  0  0  0  0  0  0  0  0
   10.6959  -17.1590   21.6787 C   0  0  0  0  0  0  0  0  0  0  0  0
   10.8714  -18.4623   22.3922 C   0  0  0  0  0  0  0  0  0  0  0  0
   12.0759  -19.1974   21.9599 C   0  0  0  0  0  0  0  0  0  0  0  0
   12.0188  -20.2438   21.2839 O   0  0  0  0  0  0  0  0  0  0  0  0
    9.6075  -16.0604   23.5035 C   0  0  0  0  0  0  0  0  0  0  0  0
   10.3205  -15.0642   23.7652 O   0  0  0  0  0  0  0  0  0  0  0  0
   13.3287  -18.7018   22.3224 O   0  0  0  0  0  0  0  0  0  0  0  0
    5.9312  -10.7154   25.9816 O   0  0  0  0  0  0  0  0  0  0  0  0
    6.3310  -12.0397   26.0553 C   0  0  0  0  0  0  0  0  0  0  0  0
    5.5827  -13.0533   25.4688 C   0  0  0  0  0  0  0  0  0  0  0  0
    5.9696  -14.3739   25.5355 C   0  0  0  0  0  0  0  0  0  0  0  0
    7.1225  -14.7256   26.1938 C   0  0  0  0  0  0  0  0  0  0  0  0
    7.6372  -16.0754   26.3371 C   0  0  0  0  0  0  0  0  0  0  0  0
    9.0613  -16.2838   25.8956 C   0  0  2  0  0  0  0  0  0  0  0  0
    9.0068  -16.7897   24.5361 N   0  0  0  0  0  0  0  0  0  0  0  0
    9.7705  -17.3182   26.7166 C   0  0  0  0  0  0  0  0  0  0  0  0
    9.9705  -18.4923   26.2987 O   0  0  0  0  0  0  0  0  0  0  0  0
    7.8572  -13.6957   26.7745 C   0  0  0  0  0  0  0  0  0  0  0  0
    7.4839  -12.3849   26.7147 C   0  0  0  0  0  0  0  0  0  0  0  0
   10.2531  -17.0399   27.9959 O   0  0  0  0  0  0  0  0  0  0  0  0
  2  1  1  6
  3  2  1  0
  4  2  1  0
  5  4  2  0
  6  4  1  0
  7  6  1  0
  7  8  1  6
  9  8  1  0
 10  9  1  0
 10 11  2  0
 12 22  1  0
 12  7  1  0
 13 12  2  0
 14 10  1  0
 15 16  1  0
 16 17  2  0
 17 18  1  0
 19 20  1  0
 19 18  2  0
 21 20  1  1
 21 23  1  0
 21 22  1  0
 23 27  1  0
 24 23  2  0
 25 19  1  0
 26 25  2  0
 26 16  1  0
M  END
$$$$
