AEY.pdb
     RDKit          3D

 27 27  0  0  1  0  0  0  0  0999 V2000
    8.4562  -12.3722   19.7189 C   0  0  0  0  0  0  0  0  0  0  0  0
    8.4421  -13.7505   19.1347 C   0  0  2  0  0  0  0  0  0  0  0  0
    7.5325  -13.8735   18.0239 N   0  0  0  0  0  0  0  0  0  0  0  0
    8.2223  -14.8247   20.1450 C   0  0  0  0  0  0  0  0  0  0  0  0
    7.0629  -15.2662   20.3570 O   0  0  0  0  0  0  0  0  0  0  0  0
    9.3452  -15.3162   20.8408 N   0  0  0  0  0  0  0  0  0  0  0  0
    9.1881  -16.3394   21.8255 C   0  0  1  0  0  0  0  0  0  0  0  0
    9.7532  -17.6415   21.3334 C   0  0  0  0  0  0  0  0  0  0  0  0
   11.0463  -17.5182   20.5910 C   0  0  0  0  0  0  0  0  0  0  0  0
   11.5498  -18.8130   20.0931 C   0  0  0  0  0  0  0  0  0  0  0  0
   10.9369  -19.4919   19.2454 O   0  0  0  0  0  0  0  0  0  0  0  0
    9.9906  -16.0114   23.0677 C   0  0  0  0  0  0  0  0  0  0  0  0
   11.1727  -15.6364   22.8902 O   0  0  0  0  0  0  0  0  0  0  0  0
   12.7600  -19.2969   20.5909 O   0  0  0  0  0  0  0  0  0  0  0  0
    4.9898  -12.2979   26.3401 O   0  0  0  0  0  0  0  0  0  0  0  0
    6.2778  -12.7905   26.2091 C   0  0  0  0  0  0  0  0  0  0  0  0
    7.0974  -12.9720   27.3167 C   0  0  0  0  0  0  0  0  0  0  0  0
    8.3801  -13.4608   27.1993 C   0  0  0  0  0  0  0  0  0  0  0  0
    8.8874  -13.7856   25.9650 C   0  0  0  0  0  0  0  0  0  0  0  0
   10.2180  -14.3057   25.7069 C   0  0  0  0  0  0  0  0  0  0  0  0
   10.3111  -15.7940   25.5009 C   0  0  2  0  0  0  0  0  0  0  0  0
    9.4682  -16.1111   24.3624 N   0  0  0  0  0  0  0  0  0  0  0  0
    9.7762  -16.5688   26.6673 C   0  0  0  0  0  0  0  0  0  0  0  0
    8.7281  -17.2680   26.5909 O   0  0  0  0  0  0  0  0  0  0  0  0
    8.0507  -13.5962   24.8688 C   0  0  0  0  0  0  0  0  0  0  0  0
    6.7792  -13.1131   24.9731 C   0  0  0  0  0  0  0  0  0  0  0  0
   10.4106  -16.5616   27.9101 O   0  0  0  0  0  0  0  0  0  0  0  0
  2  1  1  1
  3  2  1  0
  4  2  1  0
  5  4  2  0
  6  4  1  0
  7  6  1  0
  7  8  1  6
  9  8  1  0
 10  9  1  0
 10 11  2  0
 12 22  1  0
 12  7  1  0
 13 12  2  0
 14 10  1  0
 15 16  1  0
 16 17  2  0
 17 18  1  0
 19 20  1  0
 19 18  2  0
 21 20  1  1
 21 23  1  0
 21 22  1  0
 23 27  1  0
 24 23  2  0
 25 19  1  0
 26 25  2  0
 26 16  1  0
M  END
$$$$
