AEY.pdb
     RDKit          3D

 27 27  0  0  1  0  0  0  0  0999 V2000
    6.8190  -13.0983   18.7802 C   0  0  0  0  0  0  0  0  0  0  0  0
    8.2462  -13.3086   19.1803 C   0  0  2  0  0  0  0  0  0  0  0  0
    9.1232  -13.4655   18.0477 N   0  0  0  0  0  0  0  0  0  0  0  0
    8.4322  -14.4046   20.1738 C   0  0  0  0  0  0  0  0  0  0  0  0
    7.6688  -14.4914   21.1706 O   0  0  0  0  0  0  0  0  0  0  0  0
    9.4794  -15.3226   19.9555 N   0  0  0  0  0  0  0  0  0  0  0  0
    9.6146  -16.4701   20.7959 C   0  0  1  0  0  0  0  0  0  0  0  0
   10.5640  -17.4639   20.1892 C   0  0  0  0  0  0  0  0  0  0  0  0
   10.0474  -18.1515   18.9650 C   0  0  0  0  0  0  0  0  0  0  0  0
   11.0091  -19.1166   18.3978 C   0  0  0  0  0  0  0  0  0  0  0  0
   12.1270  -18.7756   17.9630 O   0  0  0  0  0  0  0  0  0  0  0  0
   10.2433  -16.0895   22.1205 C   0  0  0  0  0  0  0  0  0  0  0  0
   11.2286  -15.3173   22.0736 O   0  0  0  0  0  0  0  0  0  0  0  0
   10.6531  -20.4646   18.3460 O   0  0  0  0  0  0  0  0  0  0  0  0
   10.8445  -14.3141   30.7579 O   0  0  0  0  0  0  0  0  0  0  0  0
   10.4651  -14.7127   29.4867 C   0  0  0  0  0  0  0  0  0  0  0  0
   10.4665  -16.0532   29.1200 C   0  0  0  0  0  0  0  0  0  0  0  0
   10.0917  -16.4620   27.8588 C   0  0  0  0  0  0  0  0  0  0  0  0
    9.7015  -15.5397   26.9190 C   0  0  0  0  0  0  0  0  0  0  0  0
    9.2871  -15.8391   25.5603 C   0  0  0  0  0  0  0  0  0  0  0  0
   10.3983  -16.1024   24.5794 C   0  0  2  0  0  0  0  0  0  0  0  0
    9.7719  -16.5587   23.3520 N   0  0  0  0  0  0  0  0  0  0  0  0
   11.3157  -17.1978   25.0329 C   0  0  0  0  0  0  0  0  0  0  0  0
   11.0622  -18.4180   24.8327 O   0  0  0  0  0  0  0  0  0  0  0  0
    9.7075  -14.2026   27.3062 C   0  0  0  0  0  0  0  0  0  0  0  0
   10.0764  -13.7864   28.5519 C   0  0  0  0  0  0  0  0  0  0  0  0
   12.5087  -16.9290   25.7048 O   0  0  0  0  0  0  0  0  0  0  0  0
  2  1  1  6
  3  2  1  0
  4  2  1  0
  5  4  2  0
  6  4  1  0
  7  6  1  0
  7  8  1  6
  9  8  1  0
 10  9  1  0
 10 11  2  0
 12 22  1  0
 12  7  1  0
 13 12  2  0
 14 10  1  0
 15 16  1  0
 16 17  2  0
 17 18  1  0
 19 20  1  0
 19 18  2  0
 21 20  1  1
 21 23  1  0
 21 22  1  0
 23 27  1  0
 24 23  2  0
 25 19  1  0
 26 25  2  0
 26 16  1  0
M  END
$$$$
