AEY.pdb
     RDKit          3D

 27 27  0  0  1  0  0  0  0  0999 V2000
    6.9473  -12.9961   19.8890 C   0  0  0  0  0  0  0  0  0  0  0  0
    8.2754  -13.3270   20.4955 C   0  0  2  0  0  0  0  0  0  0  0  0
    9.3055  -13.5184   19.5062 N   0  0  0  0  0  0  0  0  0  0  0  0
    8.2245  -14.4621   21.4608 C   0  0  0  0  0  0  0  0  0  0  0  0
    7.3315  -14.4997   22.3468 O   0  0  0  0  0  0  0  0  0  0  0  0
    9.2002  -15.4725   21.3434 N   0  0  0  0  0  0  0  0  0  0  0  0
    9.1498  -16.6209   22.1921 C   0  0  1  0  0  0  0  0  0  0  0  0
   10.0934  -17.6834   21.7047 C   0  0  0  0  0  0  0  0  0  0  0  0
   10.0082  -18.9799   22.4466 C   0  0  0  0  0  0  0  0  0  0  0  0
   10.9091  -20.0146   21.9027 C   0  0  0  0  0  0  0  0  0  0  0  0
   12.1450  -19.8626   21.8358 O   0  0  0  0  0  0  0  0  0  0  0  0
    9.6370  -16.2764   23.5844 C   0  0  0  0  0  0  0  0  0  0  0  0
   10.6875  -15.5981   23.6603 O   0  0  0  0  0  0  0  0  0  0  0  0
   10.3557  -21.2107   21.4449 O   0  0  0  0  0  0  0  0  0  0  0  0
    5.7808  -10.9949   25.7318 O   0  0  0  0  0  0  0  0  0  0  0  0
    6.3685  -12.2196   26.0027 C   0  0  0  0  0  0  0  0  0  0  0  0
    5.7569  -13.4114   25.6324 C   0  0  0  0  0  0  0  0  0  0  0  0
    6.3312  -14.6356   25.8965 C   0  0  0  0  0  0  0  0  0  0  0  0
    7.5411  -14.7084   26.5422 C   0  0  0  0  0  0  0  0  0  0  0  0
    8.2482  -15.9305   26.8798 C   0  0  0  0  0  0  0  0  0  0  0  0
    9.4600  -16.2391   26.0415 C   0  0  2  0  0  0  0  0  0  0  0  0
    8.9710  -16.6793   24.7476 N   0  0  0  0  0  0  0  0  0  0  0  0
   10.2749  -17.3644   26.6044 C   0  0  0  0  0  0  0  0  0  0  0  0
   10.2693  -18.5213   26.0998 O   0  0  0  0  0  0  0  0  0  0  0  0
    8.1367  -13.5036   26.9048 C   0  0  0  0  0  0  0  0  0  0  0  0
    7.5775  -12.2859   26.6484 C   0  0  0  0  0  0  0  0  0  0  0  0
   11.0910  -17.1953   27.7235 O   0  0  0  0  0  0  0  0  0  0  0  0
  2  1  1  6
  3  2  1  0
  4  2  1  0
  5  4  2  0
  6  4  1  0
  7  6  1  0
  7  8  1  6
  9  8  1  0
 10  9  1  0
 10 11  2  0
 12 22  1  0
 12  7  1  0
 13 12  2  0
 14 10  1  0
 15 16  1  0
 16 17  2  0
 17 18  1  0
 19 20  1  0
 19 18  2  0
 21 20  1  1
 21 23  1  0
 21 22  1  0
 23 27  1  0
 24 23  2  0
 25 19  1  0
 26 25  2  0
 26 16  1  0
M  END
$$$$
