AEY.pdb
     RDKit          3D

 27 27  0  0  1  0  0  0  0  0999 V2000
    7.3204  -13.6757   17.6703 C   0  0  0  0  0  0  0  0  0  0  0  0
    8.6137  -13.7694   18.4184 C   0  0  2  0  0  0  0  0  0  0  0  0
    9.7473  -13.9505   17.5473 N   0  0  0  0  0  0  0  0  0  0  0  0
    8.5975  -14.7801   19.5143 C   0  0  0  0  0  0  0  0  0  0  0  0
    7.6302  -14.8262   20.3182 O   0  0  0  0  0  0  0  0  0  0  0  0
    9.6900  -15.6653   19.6121 N   0  0  0  0  0  0  0  0  0  0  0  0
    9.7332  -16.6394   20.6565 C   0  0  1  0  0  0  0  0  0  0  0  0
   10.9670  -17.4885   20.5401 C   0  0  0  0  0  0  0  0  0  0  0  0
   10.8812  -18.5744   19.5144 C   0  0  0  0  0  0  0  0  0  0  0  0
   12.1834  -19.2132   19.2423 C   0  0  0  0  0  0  0  0  0  0  0  0
   13.1884  -18.5666   18.8859 O   0  0  0  0  0  0  0  0  0  0  0  0
    9.8499  -15.9662   22.0085 C   0  0  0  0  0  0  0  0  0  0  0  0
   10.7997  -15.1629   22.1561 O   0  0  0  0  0  0  0  0  0  0  0  0
   12.2945  -20.5962   19.3895 O   0  0  0  0  0  0  0  0  0  0  0  0
    6.3280  -10.8551   28.0675 O   0  0  0  0  0  0  0  0  0  0  0  0
    6.5941  -11.8007   27.0907 C   0  0  0  0  0  0  0  0  0  0  0  0
    5.9497  -13.0321   27.0835 C   0  0  0  0  0  0  0  0  0  0  0  0
    6.2060  -13.9806   26.1178 C   0  0  0  0  0  0  0  0  0  0  0  0
    7.1188  -13.7278   25.1233 C   0  0  0  0  0  0  0  0  0  0  0  0
    7.4790  -14.6400   24.0530 C   0  0  0  0  0  0  0  0  0  0  0  0
    8.8538  -15.2466   24.1440 C   0  0  2  0  0  0  0  0  0  0  0  0
    8.9585  -16.2069   23.0605 N   0  0  0  0  0  0  0  0  0  0  0  0
    9.0621  -16.0057   25.4197 C   0  0  0  0  0  0  0  0  0  0  0  0
    9.3840  -15.4372   26.4997 O   0  0  0  0  0  0  0  0  0  0  0  0
    7.7532  -12.4890   25.1487 C   0  0  0  0  0  0  0  0  0  0  0  0
    7.5074  -11.5423   26.0997 C   0  0  0  0  0  0  0  0  0  0  0  0
    8.9104  -17.3912   25.4860 O   0  0  0  0  0  0  0  0  0  0  0  0
  2  1  1  6
  3  2  1  0
  4  2  1  0
  5  4  2  0
  6  4  1  0
  7  6  1  0
  7  8  1  6
  9  8  1  0
 10  9  1  0
 10 11  2  0
 12 22  1  0
 12  7  1  0
 13 12  2  0
 14 10  1  0
 15 16  1  0
 16 17  2  0
 17 18  1  0
 19 20  1  0
 19 18  2  0
 21 20  1  1
 21 23  1  0
 21 22  1  0
 23 27  1  0
 24 23  2  0
 25 19  1  0
 26 25  2  0
 26 16  1  0
M  END
$$$$
