WRV.pdb
     RDKit          3D

 33 34  0  0  1  0  0  0  0  0999 V2000
   28.5788  -22.0628  -10.0674 N   0  0  0  0  0  0  0  0  0  0  0  0
   27.4954  -21.1248   -9.7990 C   0  0  1  0  0  0  0  0  0  0  0  0
   28.1703  -19.9040   -9.1814 C   0  0  0  0  0  0  0  0  0  0  0  0
   28.7594  -20.3725   -7.8934 C   0  0  0  0  0  0  0  0  0  0  0  0
   29.8727  -21.1833   -7.6807 C   0  0  0  0  0  0  0  0  0  0  0  0
   30.0976  -21.3547   -6.3879 N   0  0  0  0  0  0  0  0  0  0  0  0
   29.1523  -20.6727   -5.7201 C   0  0  0  0  0  0  0  0  0  0  0  0
   28.9808  -20.5654   -4.3569 C   0  0  0  0  0  0  0  0  0  0  0  0
   27.9220  -19.8056   -3.8770 C   0  0  0  0  0  0  0  0  0  0  0  0
   27.0718  -19.1800   -4.7455 C   0  0  0  0  0  0  0  0  0  0  0  0
   27.2674  -19.3050   -6.1184 C   0  0  0  0  0  0  0  0  0  0  0  0
   28.3100  -20.0537   -6.6163 C   0  0  0  0  0  0  0  0  0  0  0  0
   26.7361  -20.7758  -11.0406 C   0  0  0  0  0  0  0  0  0  0  0  0
   27.3383  -20.2739  -12.0424 O   0  0  0  0  0  0  0  0  0  0  0  0
   24.1526  -26.4022  -16.0762 N   0  0  0  0  0  0  0  0  0  0  0  0
   23.5216  -26.1150  -14.8262 C   0  0  0  0  0  0  0  0  0  0  0  0
   22.9200  -27.0148  -14.1402 N   0  0  0  0  0  0  0  0  0  0  0  0
   23.5872  -24.7754  -14.3674 N   0  0  0  0  0  0  0  0  0  0  0  0
   24.3031  -23.7511  -15.0950 C   0  0  0  0  0  0  0  0  0  0  0  0
   24.1125  -22.3995  -14.4076 C   0  0  0  0  0  0  0  0  0  0  0  0
   24.8299  -22.3590  -13.0885 C   0  0  0  0  0  0  0  0  0  0  0  0
   24.6317  -21.0304  -12.4270 C   0  0  2  0  0  0  0  0  0  0  0  0
   25.3280  -20.9841  -11.1605 N   0  0  0  0  0  0  0  0  0  0  0  0
   23.1864  -20.7118  -12.2523 C   0  0  0  0  0  0  0  0  0  0  0  0
   22.6456  -21.1027  -11.1951 O   0  0  0  0  0  0  0  0  0  0  0  0
   22.4941  -26.7305  -13.2256 C   0  0  0  0  0  0  0  0  0  0  0  0
   19.2369  -18.1462  -13.8292 C   0  0  2  0  0  0  0  0  0  0  0  0
   20.6293  -18.6688  -14.0775 C   0  0  0  0  0  0  0  0  0  0  0  0
   21.6118  -17.5631  -14.3748 C   0  0  1  0  0  0  0  0  0  0  0  0
   21.1193  -19.5767  -12.9649 N   0  0  0  0  0  0  0  0  0  0  0  0
   22.4692  -19.9941  -13.2515 C   0  0  0  0  0  0  0  0  0  0  0  0
   20.2109  -20.6856  -12.6981 O   0  0  0  0  0  0  0  0  0  0  0  0
   19.3407  -20.6502  -11.7948 O   0  0  0  0  0  0  0  0  0  0  0  0
  2  1  1  6
  3  2  1  0
  4  3  1  0
  4  5  2  0
  6  5  1  0
  7  6  1  0
  8  7  2  0
  9  8  1  0
 10  9  2  0
 10 11  1  0
 11 12  2  0
 12  7  1  0
 12  4  1  0
 13  2  1  0
 13 14  2  0
 16 17  2  0
 16 15  1  0
 18 16  1  0
 19 20  1  0
 19 18  1  0
 20 21  1  0
 22 21  1  1
 22 23  1  0
 23 13  1  0
 24 22  1  0
 24 25  2  0
 27 26  1  6
 27 28  1  0
 29 30  1  6
 29 27  1  0
 30 24  1  0
 31 29  1  0
 32 31  2  0
 33 31  1  0
M  END
$$$$
