WRV.pdb
     RDKit          3D

 33 34  0  0  1  0  0  0  0  0999 V2000
   29.2310  -22.1799  -15.9305 N   0  0  0  0  0  0  0  0  0  0  0  0
   29.0027  -21.7305  -14.5625 C   0  0  1  0  0  0  0  0  0  0  0  0
   30.2169  -20.8738  -14.2175 C   0  0  0  0  0  0  0  0  0  0  0  0
   31.1968  -21.7967  -13.5743 C   0  0  0  0  0  0  0  0  0  0  0  0
   32.0965  -22.6773  -14.1720 C   0  0  0  0  0  0  0  0  0  0  0  0
   32.8209  -23.3090  -13.2624 N   0  0  0  0  0  0  0  0  0  0  0  0
   32.4252  -22.8707  -12.0558 C   0  0  0  0  0  0  0  0  0  0  0  0
   32.8909  -23.2503  -10.8156 C   0  0  0  0  0  0  0  0  0  0  0  0
   32.3300  -22.6673   -9.6869 C   0  0  0  0  0  0  0  0  0  0  0  0
   31.3368  -21.7365   -9.8118 C   0  0  0  0  0  0  0  0  0  0  0  0
   30.8843  -21.3709  -11.0769 C   0  0  0  0  0  0  0  0  0  0  0  0
   31.4255  -21.9364  -12.2094 C   0  0  0  0  0  0  0  0  0  0  0  0
   27.7230  -20.9657  -14.4303 C   0  0  0  0  0  0  0  0  0  0  0  0
   27.7036  -19.7080  -14.6191 O   0  0  0  0  0  0  0  0  0  0  0  0
   20.7231  -22.8820  -13.9324 N   0  0  0  0  0  0  0  0  0  0  0  0
   20.0440  -21.6773  -13.5711 C   0  0  0  0  0  0  0  0  0  0  0  0
   19.0266  -21.6720  -12.7919 N   0  0  0  0  0  0  0  0  0  0  0  0
   20.5464  -20.4693  -14.1168 N   0  0  0  0  0  0  0  0  0  0  0  0
   21.7746  -20.4260  -14.8788 C   0  0  0  0  0  0  0  0  0  0  0  0
   22.9685  -20.3231  -13.9302 C   0  0  0  0  0  0  0  0  0  0  0  0
   24.1707  -21.0218  -14.4981 C   0  0  0  0  0  0  0  0  0  0  0  0
   25.3406  -20.8820  -13.5741 C   0  0  2  0  0  0  0  0  0  0  0  0
   26.4863  -21.5959  -14.0927 N   0  0  0  0  0  0  0  0  0  0  0  0
   25.0102  -21.3361  -12.1937 C   0  0  0  0  0  0  0  0  0  0  0  0
   24.7600  -22.5516  -12.0436 O   0  0  0  0  0  0  0  0  0  0  0  0
   18.5613  -20.7527  -12.5999 C   0  0  0  0  0  0  0  0  0  0  0  0
   25.5509  -18.7629   -8.8142 C   0  0  2  0  0  0  0  0  0  0  0  0
   25.6142  -20.2690   -8.7816 C   0  0  0  0  0  0  0  0  0  0  0  0
   25.4107  -20.8212   -7.3923 C   0  0  1  0  0  0  0  0  0  0  0  0
   24.6809  -20.9146   -9.7889 N   0  0  0  0  0  0  0  0  0  0  0  0
   24.9856  -20.4161  -11.1069 C   0  0  0  0  0  0  0  0  0  0  0  0
   23.2753  -20.7793   -9.4255 O   0  0  0  0  0  0  0  0  0  0  0  0
   22.4634  -20.0925  -10.0915 O   0  0  0  0  0  0  0  0  0  0  0  0
  2  1  1  6
  3  2  1  0
  4  3  1  0
  4  5  2  0
  6  5  1  0
  7  6  1  0
  8  7  2  0
  9  8  1  0
 10  9  2  0
 10 11  1  0
 11 12  2  0
 12  7  1  0
 12  4  1  0
 13  2  1  0
 13 14  2  0
 16 17  2  0
 16 15  1  0
 18 16  1  0
 19 20  1  0
 19 18  1  0
 20 21  1  0
 22 21  1  6
 22 23  1  0
 23 13  1  0
 24 22  1  0
 24 25  2  0
 27 26  1  1
 27 28  1  0
 29 30  1  6
 29 27  1  0
 30 24  1  0
 31 29  1  0
 32 31  2  0
 33 31  1  0
M  END
$$$$
