WRV.pdb
     RDKit          3D

 33 34  0  0  1  0  0  0  0  0999 V2000
   24.3991  -20.4189   -7.8138 N   0  0  0  0  0  0  0  0  0  0  0  0
   25.6135  -20.4761   -8.6186 C   0  0  1  0  0  0  0  0  0  0  0  0
   26.5796  -21.3451   -7.8193 C   0  0  0  0  0  0  0  0  0  0  0  0
   26.7401  -20.6677   -6.4999 C   0  0  0  0  0  0  0  0  0  0  0  0
   25.8796  -20.6658   -5.4036 C   0  0  0  0  0  0  0  0  0  0  0  0
   26.3871  -19.9675   -4.4006 N   0  0  0  0  0  0  0  0  0  0  0  0
   27.5792  -19.4946   -4.8006 C   0  0  0  0  0  0  0  0  0  0  0  0
   28.4657  -18.7098   -4.0952 C   0  0  0  0  0  0  0  0  0  0  0  0
   29.6503  -18.3263   -4.7103 C   0  0  0  0  0  0  0  0  0  0  0  0
   29.9241  -18.7233   -5.9892 C   0  0  0  0  0  0  0  0  0  0  0  0
   29.0110  -19.5160   -6.6798 C   0  0  0  0  0  0  0  0  0  0  0  0
   27.8302  -19.9074   -6.0900 C   0  0  0  0  0  0  0  0  0  0  0  0
   25.3557  -21.0356   -9.9826 C   0  0  0  0  0  0  0  0  0  0  0  0
   25.1687  -22.2839  -10.1403 O   0  0  0  0  0  0  0  0  0  0  0  0
   20.3297  -17.5363  -14.1032 N   0  0  0  0  0  0  0  0  0  0  0  0
   21.0304  -18.5105  -14.8798 C   0  0  0  0  0  0  0  0  0  0  0  0
   21.2059  -18.3822  -16.1427 N   0  0  0  0  0  0  0  0  0  0  0  0
   21.5313  -19.6422  -14.1888 N   0  0  0  0  0  0  0  0  0  0  0  0
   21.5545  -19.7091  -12.7445 C   0  0  0  0  0  0  0  0  0  0  0  0
   23.0007  -19.7196  -12.2504 C   0  0  0  0  0  0  0  0  0  0  0  0
   23.8090  -20.7616  -12.9694 C   0  0  0  0  0  0  0  0  0  0  0  0
   25.2291  -20.7398  -12.4950 C   0  0  2  0  0  0  0  0  0  0  0  0
   25.3079  -20.2141  -11.1502 N   0  0  0  0  0  0  0  0  0  0  0  0
   26.1076  -19.9699  -13.4203 C   0  0  0  0  0  0  0  0  0  0  0  0
   26.3249  -18.7739  -13.1286 O   0  0  0  0  0  0  0  0  0  0  0  0
   21.7075  -19.1510  -16.6483 C   0  0  0  0  0  0  0  0  0  0  0  0
   29.5676  -19.9993  -16.9068 C   0  0  2  0  0  0  0  0  0  0  0  0
   28.6683  -20.7008  -15.9206 C   0  0  0  0  0  0  0  0  0  0  0  0
   29.4417  -21.3393  -14.7934 C   0  0  1  0  0  0  0  0  0  0  0  0
   27.5550  -19.8069  -15.4072 N   0  0  0  0  0  0  0  0  0  0  0  0
   26.6665  -20.5824  -14.5781 C   0  0  0  0  0  0  0  0  0  0  0  0
   26.8732  -19.0831  -16.4737 O   0  0  0  0  0  0  0  0  0  0  0  0
   25.7519  -19.4265  -16.9202 O   0  0  0  0  0  0  0  0  0  0  0  0
  2  1  1  1
  3  2  1  0
  4  3  1  0
  4  5  2  0
  6  5  1  0
  7  6  1  0
  8  7  2  0
  9  8  1  0
 10  9  2  0
 10 11  1  0
 11 12  2  0
 12  7  1  0
 12  4  1  0
 13  2  1  0
 13 14  2  0
 16 17  2  0
 16 15  1  0
 18 16  1  0
 19 20  1  0
 19 18  1  0
 20 21  1  0
 22 21  1  6
 22 23  1  0
 23 13  1  0
 24 22  1  0
 24 25  2  0
 27 26  1  6
 27 28  1  0
 29 30  1  6
 29 27  1  0
 30 24  1  0
 31 29  1  0
 32 31  2  0
 33 31  1  0
M  END
$$$$
