WRV.pdb
     RDKit          3D

 33 34  0  0  1  0  0  0  0  0999 V2000
   22.2086  -19.3110  -17.6834 N   0  0  0  0  0  0  0  0  0  0  0  0
   22.9760  -18.5696  -16.6900 C   0  0  1  0  0  0  0  0  0  0  0  0
   21.9370  -17.8104  -15.8706 C   0  0  0  0  0  0  0  0  0  0  0  0
   21.5740  -16.6128  -16.6827 C   0  0  0  0  0  0  0  0  0  0  0  0
   20.5370  -16.4559  -17.6004 C   0  0  0  0  0  0  0  0  0  0  0  0
   20.5237  -15.2304  -18.0997 N   0  0  0  0  0  0  0  0  0  0  0  0
   21.5374  -14.5536  -17.5349 C   0  0  0  0  0  0  0  0  0  0  0  0
   21.9166  -13.2467  -17.7529 C   0  0  0  0  0  0  0  0  0  0  0  0
   23.0102  -12.7463  -17.0585 C   0  0  0  0  0  0  0  0  0  0  0  0
   23.6911  -13.5399  -16.1783 C   0  0  0  0  0  0  0  0  0  0  0  0
   23.2872  -14.8572  -15.9767 C   0  0  0  0  0  0  0  0  0  0  0  0
   22.2065  -15.3743  -16.6548 C   0  0  0  0  0  0  0  0  0  0  0  0
   23.8093  -19.4738  -15.8367 C   0  0  0  0  0  0  0  0  0  0  0  0
   23.3037  -20.5254  -15.3302 O   0  0  0  0  0  0  0  0  0  0  0  0
   31.1312  -20.3364  -12.3998 N   0  0  0  0  0  0  0  0  0  0  0  0
   30.2687  -21.0659  -11.5239 C   0  0  0  0  0  0  0  0  0  0  0  0
   30.4837  -21.1481  -10.2633 N   0  0  0  0  0  0  0  0  0  0  0  0
   29.1491  -21.7057  -12.1124 N   0  0  0  0  0  0  0  0  0  0  0  0
   28.6096  -21.2858  -13.3866 C   0  0  0  0  0  0  0  0  0  0  0  0
   28.0544  -19.8666  -13.2709 C   0  0  0  0  0  0  0  0  0  0  0  0
   27.3676  -19.4507  -14.5404 C   0  0  0  0  0  0  0  0  0  0  0  0
   25.9380  -19.8957  -14.5304 C   0  0  2  0  0  0  0  0  0  0  0  0
   25.1840  -19.2071  -15.5543 N   0  0  0  0  0  0  0  0  0  0  0  0
   25.3118  -19.7085  -13.1911 C   0  0  0  0  0  0  0  0  0  0  0  0
   25.1452  -18.5312  -12.8050 O   0  0  0  0  0  0  0  0  0  0  0  0
   29.7933  -21.6812   -9.6822 C   0  0  0  0  0  0  0  0  0  0  0  0
   22.4818  -21.0723   -9.5442 C   0  0  2  0  0  0  0  0  0  0  0  0
   23.0454  -21.2070  -10.9362 C   0  0  0  0  0  0  0  0  0  0  0  0
   22.0973  -20.6918  -11.9907 C   0  0  1  0  0  0  0  0  0  0  0  0
   24.4265  -20.5927  -11.0689 N   0  0  0  0  0  0  0  0  0  0  0  0
   24.9259  -20.8284  -12.4006 C   0  0  0  0  0  0  0  0  0  0  0  0
   25.3412  -21.0248  -10.0189 O   0  0  0  0  0  0  0  0  0  0  0  0
   25.9980  -22.0919  -10.0853 O   0  0  0  0  0  0  0  0  0  0  0  0
  2  1  1  6
  3  2  1  0
  4  3  1  0
  4  5  2  0
  6  5  1  0
  7  6  1  0
  8  7  2  0
  9  8  1  0
 10  9  2  0
 10 11  1  0
 11 12  2  0
 12  7  1  0
 12  4  1  0
 13  2  1  0
 13 14  2  0
 16 17  2  0
 16 15  1  0
 18 16  1  0
 19 20  1  0
 19 18  1  0
 20 21  1  0
 22 21  1  1
 22 23  1  0
 23 13  1  0
 24 22  1  0
 24 25  2  0
 27 26  1  6
 27 28  1  0
 29 30  1  6
 29 27  1  0
 30 24  1  0
 31 29  1  0
 32 31  2  0
 33 31  1  0
M  END
$$$$
