WRV.pdb
     RDKit          3D

 33 34  0  0  1  0  0  0  0  0999 V2000
   24.2288  -20.0914  -10.6486 N   0  0  0  0  0  0  0  0  0  0  0  0
   24.6098  -20.6363  -11.9461 C   0  0  1  0  0  0  0  0  0  0  0  0
   25.4183  -21.8905  -11.6287 C   0  0  0  0  0  0  0  0  0  0  0  0
   26.6917  -21.4102  -11.0179 C   0  0  0  0  0  0  0  0  0  0  0  0
   27.0661  -21.3829   -9.6757 C   0  0  0  0  0  0  0  0  0  0  0  0
   28.2926  -20.9070   -9.5326 N   0  0  0  0  0  0  0  0  0  0  0  0
   28.7557  -20.6098  -10.7581 C   0  0  0  0  0  0  0  0  0  0  0  0
   29.9815  -20.0820  -11.1018 C   0  0  0  0  0  0  0  0  0  0  0  0
   30.2519  -19.8459  -12.4434 C   0  0  0  0  0  0  0  0  0  0  0  0
   29.3164  -20.1340  -13.3974 C   0  0  0  0  0  0  0  0  0  0  0  0
   28.0855  -20.6665  -13.0230 C   0  0  0  0  0  0  0  0  0  0  0  0
   27.7956  -20.9080  -11.6990 C   0  0  0  0  0  0  0  0  0  0  0  0
   23.4174  -20.9404  -12.7980 C   0  0  0  0  0  0  0  0  0  0  0  0
   22.3058  -21.2475  -12.2614 O   0  0  0  0  0  0  0  0  0  0  0  0
   20.0262  -16.5134  -17.1894 N   0  0  0  0  0  0  0  0  0  0  0  0
   19.0525  -17.4647  -16.7535 C   0  0  0  0  0  0  0  0  0  0  0  0
   17.9684  -17.6809  -17.4017 N   0  0  0  0  0  0  0  0  0  0  0  0
   19.3360  -18.1706  -15.5575 N   0  0  0  0  0  0  0  0  0  0  0  0
   20.4583  -17.8266  -14.7131 C   0  0  0  0  0  0  0  0  0  0  0  0
   21.6166  -18.7887  -14.9750 C   0  0  0  0  0  0  0  0  0  0  0  0
   21.2027  -20.2114  -14.7283 C   0  0  0  0  0  0  0  0  0  0  0  0
   22.3201  -21.1472  -15.0715 C   0  0  2  0  0  0  0  0  0  0  0  0
   23.4667  -20.9020  -14.2251 N   0  0  0  0  0  0  0  0  0  0  0  0
   22.6921  -21.0567  -16.5118 C   0  0  0  0  0  0  0  0  0  0  0  0
   23.4448  -20.1150  -16.8427 O   0  0  0  0  0  0  0  0  0  0  0  0
   17.3264  -18.4295  -17.0470 C   0  0  0  0  0  0  0  0  0  0  0  0
   23.6568  -24.2343  -18.7417 C   0  0  2  0  0  0  0  0  0  0  0  0
   22.6820  -23.3112  -19.4281 C   0  0  0  0  0  0  0  0  0  0  0  0
   21.2971  -23.9033  -19.5165 C   0  0  2  0  0  0  0  0  0  0  0  0
   22.6650  -21.9219  -18.8183 N   0  0  0  0  0  0  0  0  0  0  0  0
   22.2056  -22.0068  -17.4544 C   0  0  0  0  0  0  0  0  0  0  0  0
   21.9230  -20.9594  -19.6240 O   0  0  0  0  0  0  0  0  0  0  0  0
   20.7926  -20.5250  -19.2954 O   0  0  0  0  0  0  0  0  0  0  0  0
  2  1  1  1
  3  2  1  0
  4  3  1  0
  4  5  2  0
  6  5  1  0
  7  6  1  0
  8  7  2  0
  9  8  1  0
 10  9  2  0
 10 11  1  0
 11 12  2  0
 12  7  1  0
 12  4  1  0
 13  2  1  0
 13 14  2  0
 16 17  2  0
 16 15  1  0
 18 16  1  0
 19 20  1  0
 19 18  1  0
 20 21  1  0
 22 21  1  1
 22 23  1  0
 23 13  1  0
 24 22  1  0
 24 25  2  0
 27 26  1  6
 27 28  1  0
 29 30  1  6
 29 27  1  0
 30 24  1  0
 31 29  1  0
 32 31  2  0
 33 31  1  0
M  END
$$$$
