WRV.pdb
     RDKit          3D

 33 34  0  0  1  0  0  0  0  0999 V2000
   23.0759  -20.1616   -9.6108 N   0  0  0  0  0  0  0  0  0  0  0  0
   22.9167  -21.2013   -8.6012 C   0  0  1  0  0  0  0  0  0  0  0  0
   23.5609  -20.6331   -7.3404 C   0  0  0  0  0  0  0  0  0  0  0  0
   25.0177  -20.5224   -7.6421 C   0  0  0  0  0  0  0  0  0  0  0  0
   25.6880  -20.7726   -8.8381 C   0  0  0  0  0  0  0  0  0  0  0  0
   26.9840  -20.5340   -8.7170 N   0  0  0  0  0  0  0  0  0  0  0  0
   27.2032  -20.1265   -7.4558 C   0  0  0  0  0  0  0  0  0  0  0  0
   28.3992  -19.7731   -6.8693 C   0  0  0  0  0  0  0  0  0  0  0  0
   28.3974  -19.3838   -5.5363 C   0  0  0  0  0  0  0  0  0  0  0  0
   27.2292  -19.3542   -4.8272 C   0  0  0  0  0  0  0  0  0  0  0  0
   26.0344  -19.7165   -5.4438 C   0  0  0  0  0  0  0  0  0  0  0  0
   26.0128  -20.1063   -6.7640 C   0  0  0  0  0  0  0  0  0  0  0  0
   21.4788  -21.5553   -8.3836 C   0  0  0  0  0  0  0  0  0  0  0  0
   20.6429  -20.6623   -8.0348 O   0  0  0  0  0  0  0  0  0  0  0  0
   20.4117  -27.7104  -12.8123 N   0  0  0  0  0  0  0  0  0  0  0  0
   19.1532  -27.2164  -12.3483 C   0  0  0  0  0  0  0  0  0  0  0  0
   18.0630  -27.8737  -12.4961 N   0  0  0  0  0  0  0  0  0  0  0  0
   19.1569  -25.9514  -11.7087 N   0  0  0  0  0  0  0  0  0  0  0  0
   20.3768  -25.3371  -11.2340 C   0  0  0  0  0  0  0  0  0  0  0  0
   20.0732  -23.9461  -10.6785 C   0  0  0  0  0  0  0  0  0  0  0  0
   19.0912  -24.0205   -9.5443 C   0  0  0  0  0  0  0  0  0  0  0  0
   19.5982  -23.2519   -8.3635 C   0  0  2  0  0  0  0  0  0  0  0  0
   20.9840  -22.8846   -8.5529 N   0  0  0  0  0  0  0  0  0  0  0  0
   19.4169  -24.0099   -7.0933 C   0  0  0  0  0  0  0  0  0  0  0  0
   20.4548  -24.3874   -6.5077 O   0  0  0  0  0  0  0  0  0  0  0  0
   17.1770  -27.4388  -12.1435 C   0  0  0  0  0  0  0  0  0  0  0  0
   16.3768  -25.5586   -3.4945 C   0  0  1  0  0  0  0  0  0  0  0  0
   16.6088  -24.7805   -4.7650 C   0  0  0  0  0  0  0  0  0  0  0  0
   16.2814  -23.3160   -4.6080 C   0  0  1  0  0  0  0  0  0  0  0  0
   18.0000  -24.9910   -5.3329 N   0  0  0  0  0  0  0  0  0  0  0  0
   18.1156  -24.2825   -6.5831 C   0  0  0  0  0  0  0  0  0  0  0  0
   18.3661  -26.3994   -5.4255 O   0  0  0  0  0  0  0  0  0  0  0  0
   18.1660  -27.0881   -6.4551 O   0  0  0  0  0  0  0  0  0  0  0  0
  2  1  1  6
  3  2  1  0
  4  3  1  0
  4  5  2  0
  6  5  1  0
  7  6  1  0
  8  7  2  0
  9  8  1  0
 10  9  2  0
 10 11  1  0
 11 12  2  0
 12  7  1  0
 12  4  1  0
 13  2  1  0
 13 14  2  0
 16 17  2  0
 16 15  1  0
 18 16  1  0
 19 20  1  0
 19 18  1  0
 20 21  1  0
 22 21  1  6
 22 23  1  0
 23 13  1  0
 24 22  1  0
 24 25  2  0
 27 26  1  6
 27 28  1  0
 29 30  1  6
 29 27  1  0
 30 24  1  0
 31 29  1  0
 32 31  2  0
 33 31  1  0
M  END
$$$$
