WRV.pdb
     RDKit          3D

 33 34  0  0  1  0  0  0  0  0999 V2000
   23.9707  -20.1354   -8.3755 N   0  0  0  0  0  0  0  0  0  0  0  0
   25.3148  -20.1300   -8.9400 C   0  0  1  0  0  0  0  0  0  0  0  0
   25.9845  -21.3830   -8.3843 C   0  0  0  0  0  0  0  0  0  0  0  0
   26.3109  -21.0734   -6.9620 C   0  0  0  0  0  0  0  0  0  0  0  0
   25.6729  -21.5055   -5.8007 C   0  0  0  0  0  0  0  0  0  0  0  0
   26.2774  -21.0353   -4.7216 N   0  0  0  0  0  0  0  0  0  0  0  0
   27.3159  -20.2893   -5.1336 C   0  0  0  0  0  0  0  0  0  0  0  0
   28.2261  -19.5961   -4.3653 C   0  0  0  0  0  0  0  0  0  0  0  0
   29.2273  -18.8777   -5.0057 C   0  0  0  0  0  0  0  0  0  0  0  0
   29.3019  -18.8636   -6.3704 C   0  0  0  0  0  0  0  0  0  0  0  0
   28.3693  -19.5725   -7.1232 C   0  0  0  0  0  0  0  0  0  0  0  0
   27.3680  -20.2909   -6.5095 C   0  0  0  0  0  0  0  0  0  0  0  0
   25.2939  -20.1240  -10.4365 C   0  0  0  0  0  0  0  0  0  0  0  0
   24.3666  -20.7230  -11.0686 O   0  0  0  0  0  0  0  0  0  0  0  0
   26.1525  -18.4019  -17.4521 N   0  0  0  0  0  0  0  0  0  0  0  0
   27.0041  -17.2670  -17.6254 C   0  0  0  0  0  0  0  0  0  0  0  0
   27.2174  -16.7401  -18.7739 N   0  0  0  0  0  0  0  0  0  0  0  0
   27.6138  -16.7386  -16.4600 N   0  0  0  0  0  0  0  0  0  0  0  0
   27.0258  -16.8985  -15.1487 C   0  0  0  0  0  0  0  0  0  0  0  0
   27.2665  -18.3208  -14.6438 C   0  0  0  0  0  0  0  0  0  0  0  0
   27.2626  -18.3684  -13.1425 C   0  0  0  0  0  0  0  0  0  0  0  0
   26.2401  -19.3471  -12.6539 C   0  0  2  0  0  0  0  0  0  0  0  0
   26.2922  -19.4601  -11.2132 N   0  0  0  0  0  0  0  0  0  0  0  0
   26.4010  -20.6807  -13.2990 C   0  0  0  0  0  0  0  0  0  0  0  0
   27.3528  -21.3883  -12.9037 O   0  0  0  0  0  0  0  0  0  0  0  0
   27.8589  -15.9127  -18.8219 C   0  0  0  0  0  0  0  0  0  0  0  0
   24.2616  -23.5617  -13.2589 C   0  0  2  0  0  0  0  0  0  0  0  0
   24.5202  -23.2817  -14.7176 C   0  0  0  0  0  0  0  0  0  0  0  0
   23.2988  -22.7469  -15.4238 C   0  0  2  0  0  0  0  0  0  0  0  0
   25.7327  -22.3961  -14.9362 N   0  0  0  0  0  0  0  0  0  0  0  0
   25.5038  -21.1148  -14.3162 C   0  0  0  0  0  0  0  0  0  0  0  0
   26.1202  -22.3034  -16.3388 O   0  0  0  0  0  0  0  0  0  0  0  0
   25.9301  -21.2741  -17.0307 O   0  0  0  0  0  0  0  0  0  0  0  0
  2  1  1  1
  3  2  1  0
  4  3  1  0
  4  5  2  0
  6  5  1  0
  7  6  1  0
  8  7  2  0
  9  8  1  0
 10  9  2  0
 10 11  1  0
 11 12  2  0
 12  7  1  0
 12  4  1  0
 13  2  1  0
 13 14  2  0
 16 17  2  0
 16 15  1  0
 18 16  1  0
 19 20  1  0
 19 18  1  0
 20 21  1  0
 22 21  1  6
 22 23  1  0
 23 13  1  0
 24 22  1  0
 24 25  2  0
 27 26  1  6
 27 28  1  0
 29 30  1  6
 29 27  1  0
 30 24  1  0
 31 29  1  0
 32 31  2  0
 33 31  1  0
M  END
$$$$
