WRV.pdb
     RDKit          3D

 33 34  0  0  1  0  0  0  0  0999 V2000
   27.5506  -22.1832  -10.2898 N   0  0  0  0  0  0  0  0  0  0  0  0
   26.7164  -20.9953  -10.1539 C   0  0  1  0  0  0  0  0  0  0  0  0
   27.6494  -19.9131   -9.6194 C   0  0  0  0  0  0  0  0  0  0  0  0
   28.1469  -20.4169   -8.3063 C   0  0  0  0  0  0  0  0  0  0  0  0
   28.9226  -21.5424   -8.0346 C   0  0  0  0  0  0  0  0  0  0  0  0
   29.1839  -21.6402   -6.7410 N   0  0  0  0  0  0  0  0  0  0  0  0
   28.5958  -20.5980   -6.1306 C   0  0  0  0  0  0  0  0  0  0  0  0
   28.5900  -20.2884   -4.7877 C   0  0  0  0  0  0  0  0  0  0  0  0
   27.9068  -19.1540   -4.3691 C   0  0  0  0  0  0  0  0  0  0  0  0
   27.2562  -18.3658   -5.2766 C   0  0  0  0  0  0  0  0  0  0  0  0
   27.2776  -18.7014   -6.6278 C   0  0  0  0  0  0  0  0  0  0  0  0
   27.9479  -19.8216   -7.0651 C   0  0  0  0  0  0  0  0  0  0  0  0
   26.0884  -20.6001  -11.4537 C   0  0  0  0  0  0  0  0  0  0  0  0
   26.8147  -20.2608  -12.4413 O   0  0  0  0  0  0  0  0  0  0  0  0
   24.8945  -23.4966  -16.7779 N   0  0  0  0  0  0  0  0  0  0  0  0
   25.8136  -24.0450  -15.8306 C   0  0  0  0  0  0  0  0  0  0  0  0
   26.9796  -24.4567  -16.1670 N   0  0  0  0  0  0  0  0  0  0  0  0
   25.3790  -24.1179  -14.4833 N   0  0  0  0  0  0  0  0  0  0  0  0
   23.9780  -24.0790  -14.1276 C   0  0  0  0  0  0  0  0  0  0  0  0
   23.7029  -22.8645  -13.2415 C   0  0  0  0  0  0  0  0  0  0  0  0
   24.3458  -21.6292  -13.8043 C   0  0  0  0  0  0  0  0  0  0  0  0
   24.0438  -20.4438  -12.9407 C   0  0  2  0  0  0  0  0  0  0  0  0
   24.6730  -20.5843  -11.6463 N   0  0  0  0  0  0  0  0  0  0  0  0
   22.5766  -20.2247  -12.7988 C   0  0  0  0  0  0  0  0  0  0  0  0
   22.0246  -20.7282  -11.7966 O   0  0  0  0  0  0  0  0  0  0  0  0
   27.5607  -24.9332  -15.4364 C   0  0  0  0  0  0  0  0  0  0  0  0
   21.0211  -16.7520  -14.4420 C   0  0  2  0  0  0  0  0  0  0  0  0
   20.1034  -17.9483  -14.4312 C   0  0  0  0  0  0  0  0  0  0  0  0
   19.9037  -18.5299  -15.8089 C   0  0  2  0  0  0  0  0  0  0  0  0
   20.5317  -19.0037  -13.4286 N   0  0  0  0  0  0  0  0  0  0  0  0
   21.8517  -19.4738  -13.7677 C   0  0  0  0  0  0  0  0  0  0  0  0
   19.5525  -20.0738  -13.2806 O   0  0  0  0  0  0  0  0  0  0  0  0
   19.6903  -21.2010  -13.8145 O   0  0  0  0  0  0  0  0  0  0  0  0
  2  1  1  6
  3  2  1  0
  4  3  1  0
  4  5  2  0
  6  5  1  0
  7  6  1  0
  8  7  2  0
  9  8  1  0
 10  9  2  0
 10 11  1  0
 11 12  2  0
 12  7  1  0
 12  4  1  0
 13  2  1  0
 13 14  2  0
 16 17  2  0
 16 15  1  0
 18 16  1  0
 19 20  1  0
 19 18  1  0
 20 21  1  0
 22 21  1  6
 22 23  1  0
 23 13  1  0
 24 22  1  0
 24 25  2  0
 27 26  1  6
 27 28  1  0
 29 30  1  1
 29 27  1  0
 30 24  1  0
 31 29  1  0
 32 31  2  0
 33 31  1  0
M  END
$$$$
