WRV.pdb
     RDKit          3D

 33 34  0  0  1  0  0  0  0  0999 V2000
   27.8726  -21.2271   -9.5934 N   0  0  0  0  0  0  0  0  0  0  0  0
   26.4490  -21.1858   -9.2812 C   0  0  1  0  0  0  0  0  0  0  0  0
   26.3320  -20.2507   -8.0815 C   0  0  0  0  0  0  0  0  0  0  0  0
   27.6630  -20.2835   -7.4085 C   0  0  0  0  0  0  0  0  0  0  0  0
   28.8914  -20.7069   -7.9126 C   0  0  0  0  0  0  0  0  0  0  0  0
   29.8522  -20.5567   -7.0150 N   0  0  0  0  0  0  0  0  0  0  0  0
   29.2935  -20.0385   -5.9087 C   0  0  0  0  0  0  0  0  0  0  0  0
   29.9033  -19.7185   -4.7150 C   0  0  0  0  0  0  0  0  0  0  0  0
   29.1264  -19.1940   -3.6903 C   0  0  0  0  0  0  0  0  0  0  0  0
   27.7851  -19.0019   -3.8699 C   0  0  0  0  0  0  0  0  0  0  0  0
   27.1937  -19.3339   -5.0860 C   0  0  0  0  0  0  0  0  0  0  0  0
   27.9445  -19.8558   -6.1153 C   0  0  0  0  0  0  0  0  0  0  0  0
   25.6344  -20.7095  -10.4430 C   0  0  0  0  0  0  0  0  0  0  0  0
   25.4621  -19.4646  -10.6396 O   0  0  0  0  0  0  0  0  0  0  0  0
   26.1636  -24.1875  -17.8328 N   0  0  0  0  0  0  0  0  0  0  0  0
   24.9500  -23.5593  -17.4138 C   0  0  0  0  0  0  0  0  0  0  0  0
   23.8821  -23.5922  -18.1215 N   0  0  0  0  0  0  0  0  0  0  0  0
   24.9731  -22.8874  -16.1659 N   0  0  0  0  0  0  0  0  0  0  0  0
   26.1558  -22.8572  -15.3344 C   0  0  0  0  0  0  0  0  0  0  0  0
   25.9015  -21.9859  -14.1048 C   0  0  0  0  0  0  0  0  0  0  0  0
   24.4628  -22.0594  -13.6796 C   0  0  0  0  0  0  0  0  0  0  0  0
   24.2232  -21.1772  -12.4936 C   0  0  2  0  0  0  0  0  0  0  0  0
   25.0230  -21.6091  -11.3689 N   0  0  0  0  0  0  0  0  0  0  0  0
   22.7789  -21.1222  -12.1304 C   0  0  0  0  0  0  0  0  0  0  0  0
   22.3818  -21.9359  -11.2685 O   0  0  0  0  0  0  0  0  0  0  0  0
   23.0216  -23.1386  -17.7314 C   0  0  0  0  0  0  0  0  0  0  0  0
   20.5750  -17.7426  -11.7851 C   0  0  2  0  0  0  0  0  0  0  0  0
   19.9199  -18.8138  -12.6198 C   0  0  0  0  0  0  0  0  0  0  0  0
   19.8996  -18.4645  -14.0874 C   0  0  2  0  0  0  0  0  0  0  0  0
   20.5119  -20.1891  -12.3742 N   0  0  0  0  0  0  0  0  0  0  0  0
   21.9052  -20.1802  -12.7446 C   0  0  0  0  0  0  0  0  0  0  0  0
   19.7472  -21.2559  -13.0091 O   0  0  0  0  0  0  0  0  0  0  0  0
   18.6354  -21.6458  -12.5775 O   0  0  0  0  0  0  0  0  0  0  0  0
  2  1  1  6
  3  2  1  0
  4  3  1  0
  4  5  2  0
  6  5  1  0
  7  6  1  0
  8  7  2  0
  9  8  1  0
 10  9  2  0
 10 11  1  0
 11 12  2  0
 12  7  1  0
 12  4  1  0
 13  2  1  0
 13 14  2  0
 16 17  2  0
 16 15  1  0
 18 16  1  0
 19 20  1  0
 19 18  1  0
 20 21  1  0
 22 21  1  6
 22 23  1  0
 23 13  1  0
 24 22  1  0
 24 25  2  0
 27 26  1  1
 27 28  1  0
 29 30  1  1
 29 27  1  0
 30 24  1  0
 31 29  1  0
 32 31  2  0
 33 31  1  0
M  END
$$$$
