WRV.pdb
     RDKit          3D

 33 34  0  0  1  0  0  0  0  0999 V2000
   28.8497  -21.0178  -10.6594 N   0  0  0  0  0  0  0  0  0  0  0  0
   27.4968  -20.8673  -10.1374 C   0  0  1  0  0  0  0  0  0  0  0  0
   27.5814  -19.7168   -9.1392 C   0  0  0  0  0  0  0  0  0  0  0  0
   28.4927  -20.1850   -8.0548 C   0  0  0  0  0  0  0  0  0  0  0  0
   29.6394  -20.9713   -8.1501 C   0  0  0  0  0  0  0  0  0  0  0  0
   30.1941  -21.1512   -6.9622 N   0  0  0  0  0  0  0  0  0  0  0  0
   29.4399  -20.4992   -6.0617 C   0  0  0  0  0  0  0  0  0  0  0  0
   29.6244  -20.4107   -4.6989 C   0  0  0  0  0  0  0  0  0  0  0  0
   28.7103  -19.6816   -3.9495 C   0  0  0  0  0  0  0  0  0  0  0  0
   27.6521  -19.0671   -4.5586 C   0  0  0  0  0  0  0  0  0  0  0  0
   27.4888  -19.1727   -5.9374 C   0  0  0  0  0  0  0  0  0  0  0  0
   28.3822  -19.8908   -6.6998 C   0  0  0  0  0  0  0  0  0  0  0  0
   26.5045  -20.5932  -11.2238 C   0  0  0  0  0  0  0  0  0  0  0  0
   26.5632  -19.5110  -11.8897 O   0  0  0  0  0  0  0  0  0  0  0  0
   23.9140  -24.6438  -16.2612 N   0  0  0  0  0  0  0  0  0  0  0  0
   25.2429  -24.9884  -15.8633 C   0  0  0  0  0  0  0  0  0  0  0  0
   25.6373  -26.2044  -15.7736 N   0  0  0  0  0  0  0  0  0  0  0  0
   26.1218  -23.9167  -15.5663 N   0  0  0  0  0  0  0  0  0  0  0  0
   25.7803  -22.5426  -15.8600 C   0  0  0  0  0  0  0  0  0  0  0  0
   25.7328  -21.7332  -14.5644 C   0  0  0  0  0  0  0  0  0  0  0  0
   24.5625  -22.1413  -13.7159 C   0  0  0  0  0  0  0  0  0  0  0  0
   24.4326  -21.2317  -12.5335 C   0  0  2  0  0  0  0  0  0  0  0  0
   25.4643  -21.5128  -11.5601 N   0  0  0  0  0  0  0  0  0  0  0  0
   23.0792  -21.3203  -11.9160 C   0  0  0  0  0  0  0  0  0  0  0  0
   22.9521  -22.0941  -10.9425 O   0  0  0  0  0  0  0  0  0  0  0  0
   26.6427  -26.3770  -15.5333 C   0  0  0  0  0  0  0  0  0  0  0  0
   20.8615  -18.1428  -11.1925 C   0  0  2  0  0  0  0  0  0  0  0  0
   20.0523  -19.2464  -11.8255 C   0  0  0  0  0  0  0  0  0  0  0  0
   19.6519  -18.9223  -13.2436 C   0  0  2  0  0  0  0  0  0  0  0  0
   20.7312  -20.5996  -11.7249 N   0  0  0  0  0  0  0  0  0  0  0  0
   21.9922  -20.5522  -12.4222 C   0  0  0  0  0  0  0  0  0  0  0  0
   19.8710  -21.6972  -12.1510 O   0  0  0  0  0  0  0  0  0  0  0  0
   18.8569  -22.0571  -11.5054 O   0  0  0  0  0  0  0  0  0  0  0  0
  2  1  1  6
  3  2  1  0
  4  3  1  0
  4  5  2  0
  6  5  1  0
  7  6  1  0
  8  7  2  0
  9  8  1  0
 10  9  2  0
 10 11  1  0
 11 12  2  0
 12  7  1  0
 12  4  1  0
 13  2  1  0
 13 14  2  0
 16 17  2  0
 16 15  1  0
 18 16  1  0
 19 20  1  0
 19 18  1  0
 20 21  1  0
 22 21  1  6
 22 23  1  0
 23 13  1  0
 24 22  1  0
 24 25  2  0
 27 26  1  1
 27 28  1  0
 29 30  1  1
 29 27  1  0
 30 24  1  0
 31 29  1  0
 32 31  2  0
 33 31  1  0
M  END
$$$$
