WRV.pdb
     RDKit          3D

 33 34  0  0  1  0  0  0  0  0999 V2000
   27.3853  -19.5196  -11.3261 N   0  0  0  0  0  0  0  0  0  0  0  0
   26.8224  -20.8644  -11.3371 C   0  0  1  0  0  0  0  0  0  0  0  0
   26.2605  -21.0718   -9.9340 C   0  0  0  0  0  0  0  0  0  0  0  0
   27.3881  -20.7913   -8.9984 C   0  0  0  0  0  0  0  0  0  0  0  0
   27.4024  -19.9956   -7.8544 C   0  0  0  0  0  0  0  0  0  0  0  0
   28.5909  -20.0182   -7.2728 N   0  0  0  0  0  0  0  0  0  0  0  0
   29.3838  -20.8170   -8.0062 C   0  0  0  0  0  0  0  0  0  0  0  0
   30.7072  -21.1354   -7.7908 C   0  0  0  0  0  0  0  0  0  0  0  0
   31.3418  -21.9851   -8.6874 C   0  0  0  0  0  0  0  0  0  0  0  0
   30.6608  -22.4913   -9.7590 C   0  0  0  0  0  0  0  0  0  0  0  0
   29.3241  -22.1533   -9.9537 C   0  0  0  0  0  0  0  0  0  0  0  0
   28.6753  -21.3123   -9.0779 C   0  0  0  0  0  0  0  0  0  0  0  0
   25.7704  -21.0228  -12.3898 C   0  0  0  0  0  0  0  0  0  0  0  0
   25.0319  -20.0389  -12.7134 O   0  0  0  0  0  0  0  0  0  0  0  0
   26.4546  -26.5479  -16.1357 N   0  0  0  0  0  0  0  0  0  0  0  0
   26.5456  -25.6860  -17.2723 C   0  0  0  0  0  0  0  0  0  0  0  0
   27.6149  -25.5851  -17.9714 N   0  0  0  0  0  0  0  0  0  0  0  0
   25.3896  -24.9347  -17.6017 N   0  0  0  0  0  0  0  0  0  0  0  0
   24.1565  -25.0610  -16.8571 C   0  0  0  0  0  0  0  0  0  0  0  0
   23.9000  -23.7821  -16.0606 C   0  0  0  0  0  0  0  0  0  0  0  0
   24.7988  -23.7049  -14.8596 C   0  0  0  0  0  0  0  0  0  0  0  0
   24.5541  -22.4349  -14.1051 C   0  0  2  0  0  0  0  0  0  0  0  0
   25.5475  -22.2596  -13.0691 N   0  0  0  0  0  0  0  0  0  0  0  0
   23.1774  -22.3882  -13.5365 C   0  0  0  0  0  0  0  0  0  0  0  0
   22.9146  -23.2028  -12.6254 O   0  0  0  0  0  0  0  0  0  0  0  0
   27.5840  -24.9852  -18.8302 C   0  0  0  0  0  0  0  0  0  0  0  0
   21.3737  -19.2058  -12.3175 C   0  0  2  0  0  0  0  0  0  0  0  0
   20.4679  -19.9872  -13.2353 C   0  0  0  0  0  0  0  0  0  0  0  0
   20.2656  -19.2992  -14.5628 C   0  0  2  0  0  0  0  0  0  0  0  0
   20.9125  -21.4277  -13.4071 N   0  0  0  0  0  0  0  0  0  0  0  0
   22.2179  -21.4528  -14.0184 C   0  0  0  0  0  0  0  0  0  0  0  0
   19.9267  -22.2446  -14.1048 O   0  0  0  0  0  0  0  0  0  0  0  0
   20.0032  -22.5051  -15.3299 O   0  0  0  0  0  0  0  0  0  0  0  0
  2  1  1  1
  3  2  1  0
  4  3  1  0
  4  5  2  0
  6  5  1  0
  7  6  1  0
  8  7  2  0
  9  8  1  0
 10  9  2  0
 10 11  1  0
 11 12  2  0
 12  7  1  0
 12  4  1  0
 13  2  1  0
 13 14  2  0
 16 17  2  0
 16 15  1  0
 18 16  1  0
 19 20  1  0
 19 18  1  0
 20 21  1  0
 22 21  1  1
 22 23  1  0
 23 13  1  0
 24 22  1  0
 24 25  2  0
 27 26  1  1
 27 28  1  0
 29 30  1  1
 29 27  1  0
 30 24  1  0
 31 29  1  0
 32 31  2  0
 33 31  1  0
M  END
$$$$
