WRV.pdb
     RDKit          3D

 33 34  0  0  1  0  0  0  0  0999 V2000
   27.4932  -22.4269  -12.6331 N   0  0  0  0  0  0  0  0  0  0  0  0
   26.6285  -21.3648  -12.1332 C   0  0  1  0  0  0  0  0  0  0  0  0
   27.5538  -20.1740  -11.9029 C   0  0  0  0  0  0  0  0  0  0  0  0
   28.3251  -20.4910  -10.6659 C   0  0  0  0  0  0  0  0  0  0  0  0
   29.6194  -20.9928  -10.5427 C   0  0  0  0  0  0  0  0  0  0  0  0
   29.9639  -21.1157   -9.2709 N   0  0  0  0  0  0  0  0  0  0  0  0
   28.9217  -20.7056   -8.5291 C   0  0  0  0  0  0  0  0  0  0  0  0
   28.8175  -20.6612   -7.1556 C   0  0  0  0  0  0  0  0  0  0  0  0
   27.6337  -20.2028   -6.5924 C   0  0  0  0  0  0  0  0  0  0  0  0
   26.5979  -19.8054   -7.3908 C   0  0  0  0  0  0  0  0  0  0  0  0
   26.7292  -19.8606   -8.7759 C   0  0  0  0  0  0  0  0  0  0  0  0
   27.8933  -20.3122   -9.3558 C   0  0  0  0  0  0  0  0  0  0  0  0
   25.5276  -21.0400  -13.0937 C   0  0  0  0  0  0  0  0  0  0  0  0
   25.7958  -20.5521  -14.2374 O   0  0  0  0  0  0  0  0  0  0  0  0
   24.0189  -26.7003  -15.0721 N   0  0  0  0  0  0  0  0  0  0  0  0
   22.7322  -26.2371  -15.4880 C   0  0  0  0  0  0  0  0  0  0  0  0
   21.6682  -26.9321  -15.3234 N   0  0  0  0  0  0  0  0  0  0  0  0
   22.6773  -24.9596  -16.0998 N   0  0  0  0  0  0  0  0  0  0  0  0
   23.7405  -23.9915  -15.9477 C   0  0  0  0  0  0  0  0  0  0  0  0
   23.5313  -23.1912  -14.6626 C   0  0  0  0  0  0  0  0  0  0  0  0
   23.2355  -21.7502  -14.9664 C   0  0  0  0  0  0  0  0  0  0  0  0
   23.0687  -20.9728  -13.6976 C   0  0  2  0  0  0  0  0  0  0  0  0
   24.1507  -21.2568  -12.7812 N   0  0  0  0  0  0  0  0  0  0  0  0
   21.7477  -21.2356  -13.0598 C   0  0  0  0  0  0  0  0  0  0  0  0
   21.6759  -22.2218  -12.2950 O   0  0  0  0  0  0  0  0  0  0  0  0
   20.7631  -26.5313  -15.6677 C   0  0  0  0  0  0  0  0  0  0  0  0
   18.8400  -18.1291  -13.0908 C   0  0  2  0  0  0  0  0  0  0  0  0
   19.1296  -19.0808  -11.9577 C   0  0  0  0  0  0  0  0  0  0  0  0
   18.0203  -19.1091  -10.9354 C   0  0  1  0  0  0  0  0  0  0  0  0
   19.4879  -20.4734  -12.4419 N   0  0  0  0  0  0  0  0  0  0  0  0
   20.6293  -20.3929  -13.3189 C   0  0  0  0  0  0  0  0  0  0  0  0
   18.3532  -21.1787  -13.0259 O   0  0  0  0  0  0  0  0  0  0  0  0
   18.2483  -21.3973  -14.2570 O   0  0  0  0  0  0  0  0  0  0  0  0
  2  1  1  6
  3  2  1  0
  4  3  1  0
  4  5  2  0
  6  5  1  0
  7  6  1  0
  8  7  2  0
  9  8  1  0
 10  9  2  0
 10 11  1  0
 11 12  2  0
 12  7  1  0
 12  4  1  0
 13  2  1  0
 13 14  2  0
 16 17  2  0
 16 15  1  0
 18 16  1  0
 19 20  1  0
 19 18  1  0
 20 21  1  0
 22 21  1  6
 22 23  1  0
 23 13  1  0
 24 22  1  0
 24 25  2  0
 27 26  1  1
 27 28  1  0
 29 30  1  1
 29 27  1  0
 30 24  1  0
 31 29  1  0
 32 31  2  0
 33 31  1  0
M  END
$$$$
