YGD.pdb
     RDKit          3D

 25 25  0  0  1  0  0  0  0  0999 V2000
    6.7239  -12.3369   16.6723 O   0  0  0  0  0  0  0  0  0  0  0  0
    7.1582  -13.1119   17.7537 C   0  0  0  0  0  0  0  0  0  0  0  0
    7.1716  -14.4825   17.6744 C   0  0  0  0  0  0  0  0  0  0  0  0
    7.5967  -15.2625   18.7309 C   0  0  0  0  0  0  0  0  0  0  0  0
    8.0181  -14.6555   19.8940 C   0  0  0  0  0  0  0  0  0  0  0  0
    8.4731  -15.4971   21.0252 C   0  0  0  0  0  0  0  0  0  0  0  0
    9.9813  -15.4219   21.0735 C   0  0  2  0  0  0  0  0  0  0  0  0
   10.4657  -15.7775   19.7581 N   0  0  0  0  0  0  0  0  0  0  0  0
   10.5718  -16.2612   22.1064 C   0  0  0  0  0  0  0  0  0  0  0  0
   10.3384  -16.1845   23.3335 O   0  0  0  0  0  0  0  0  0  0  0  0
    7.9992  -13.2713   19.9596 C   0  0  0  0  0  0  0  0  0  0  0  0
    7.5755  -12.4781   18.9081 C   0  0  0  0  0  0  0  0  0  0  0  0
   11.5111  -17.2798   21.7155 N   0  0  0  0  0  0  0  0  0  0  0  0
   12.1357  -18.1487   22.6688 C   0  0  0  0  0  0  0  0  0  0  0  0
   13.4887  -17.8191   23.0687 C   0  0  0  0  0  0  0  0  0  0  0  0
   14.1768  -18.6519   23.7028 O   0  0  0  0  0  0  0  0  0  0  0  0
   14.0788  -16.5749   22.7661 N   0  0  0  0  0  0  0  0  0  0  0  0
   15.4490  -16.2789   23.1820 C   0  0  1  0  0  0  0  0  0  0  0  0
   15.9950  -15.0729   22.4272 C   0  0  0  0  0  0  0  0  0  0  0  0
   16.1172  -15.3612   20.9830 C   0  0  0  0  0  0  0  0  0  0  0  0
   15.8474  -16.5217   20.5496 O   0  0  0  0  0  0  0  0  0  0  0  0
   15.4389  -16.0029   24.6200 C   0  0  0  0  0  0  0  0  0  0  0  0
   14.3543  -15.8908   25.2714 O   0  0  0  0  0  0  0  0  0  0  0  0
   16.5255  -14.3817   20.0770 O   0  0  0  0  0  0  0  0  0  0  0  0
   16.6033  -15.8449   25.3701 O   0  0  0  0  0  0  0  0  0  0  0  0
  2  1  1  0
  2  3  2  0
  4  3  1  0
  5  4  2  0
  6  5  1  0
  6  7  1  0
  7  8  1  6
  9  7  1  0
  9 13  1  0
 10  9  2  0
 11 12  2  0
 11  5  1  0
 12  2  1  0
 14 13  1  0
 15 14  1  0
 16 15  2  0
 17 15  1  0
 18 19  1  6
 18 17  1  0
 19 20  1  0
 20 24  1  0
 21 20  2  0
 22 18  1  0
 23 22  2  0
 25 22  1  0
M  END
$$$$
