YGD.pdb
     RDKit          3D

 25 25  0  0  1  0  0  0  0  0999 V2000
    8.5956  -13.0138   28.6664 O   0  0  0  0  0  0  0  0  0  0  0  0
    8.1753  -13.1808   27.3420 C   0  0  0  0  0  0  0  0  0  0  0  0
    6.8394  -13.1889   27.0252 C   0  0  0  0  0  0  0  0  0  0  0  0
    6.4069  -13.3523   25.7246 C   0  0  0  0  0  0  0  0  0  0  0  0
    7.3342  -13.5115   24.7178 C   0  0  0  0  0  0  0  0  0  0  0  0
    6.8649  -13.6868   23.3235 C   0  0  0  0  0  0  0  0  0  0  0  0
    6.7323  -15.1701   23.0686 C   0  0  2  0  0  0  0  0  0  0  0  0
    6.4035  -15.7897   24.3333 N   0  0  0  0  0  0  0  0  0  0  0  0
    7.9203  -15.7656   22.4736 C   0  0  0  0  0  0  0  0  0  0  0  0
    8.4774  -15.3885   21.4183 O   0  0  0  0  0  0  0  0  0  0  0  0
    8.6790  -13.5012   25.0523 C   0  0  0  0  0  0  0  0  0  0  0  0
    9.1256  -13.3383   26.3517 C   0  0  0  0  0  0  0  0  0  0  0  0
    8.5337  -16.8892   23.1323 N   0  0  0  0  0  0  0  0  0  0  0  0
    9.6931  -17.5447   22.6032 C   0  0  0  0  0  0  0  0  0  0  0  0
   10.9324  -17.3768   23.3347 C   0  0  0  0  0  0  0  0  0  0  0  0
   11.0347  -16.4756   24.1987 O   0  0  0  0  0  0  0  0  0  0  0  0
   12.0526  -18.2038   23.1134 N   0  0  0  0  0  0  0  0  0  0  0  0
   13.3495  -17.6248   22.7653 C   0  0  1  0  0  0  0  0  0  0  0  0
   13.2440  -16.7828   21.4996 C   0  0  0  0  0  0  0  0  0  0  0  0
   14.5376  -16.1455   21.1765 C   0  0  0  0  0  0  0  0  0  0  0  0
   15.5579  -16.4026   21.8838 O   0  0  0  0  0  0  0  0  0  0  0  0
   13.7897  -16.7886   23.8838 C   0  0  0  0  0  0  0  0  0  0  0  0
   13.0500  -15.8770   24.3684 O   0  0  0  0  0  0  0  0  0  0  0  0
   14.6660  -15.2608   20.1051 O   0  0  0  0  0  0  0  0  0  0  0  0
   15.0367  -16.9296   24.4911 O   0  0  0  0  0  0  0  0  0  0  0  0
  2  1  1  0
  2  3  2  0
  4  3  1  0
  5  4  2  0
  6  5  1  0
  6  7  1  0
  7  8  1  1
  9  7  1  0
  9 13  1  0
 10  9  2  0
 11 12  2  0
 11  5  1  0
 12  2  1  0
 14 13  1  0
 15 14  1  0
 16 15  2  0
 17 15  1  0
 18 19  1  6
 18 17  1  0
 19 20  1  0
 20 24  1  0
 21 20  2  0
 22 18  1  0
 23 22  2  0
 25 22  1  0
M  END
$$$$
