YGD.pdb
     RDKit          3D

 25 25  0  0  1  0  0  0  0  0999 V2000
    5.0662  -10.5586   27.9194 O   0  0  0  0  0  0  0  0  0  0  0  0
    5.8896  -11.3669   27.1274 C   0  0  0  0  0  0  0  0  0  0  0  0
    5.7694  -11.3646   25.7597 C   0  0  0  0  0  0  0  0  0  0  0  0
    6.5729  -12.1553   24.9632 C   0  0  0  0  0  0  0  0  0  0  0  0
    7.5188  -12.9673   25.5503 C   0  0  0  0  0  0  0  0  0  0  0  0
    8.3787  -13.8142   24.6910 C   0  0  0  0  0  0  0  0  0  0  0  0
    7.4831  -14.8004   23.9783 C   0  0  2  0  0  0  0  0  0  0  0  0
    6.8341  -15.5962   24.9966 N   0  0  0  0  0  0  0  0  0  0  0  0
    8.1883  -15.6347   23.0156 C   0  0  0  0  0  0  0  0  0  0  0  0
    8.8837  -15.2217   22.0605 O   0  0  0  0  0  0  0  0  0  0  0  0
    7.6289  -12.9592   26.9317 C   0  0  0  0  0  0  0  0  0  0  0  0
    6.8298  -12.1717   27.7414 C   0  0  0  0  0  0  0  0  0  0  0  0
    8.0990  -17.0657   23.1453 N   0  0  0  0  0  0  0  0  0  0  0  0
    8.7255  -17.9573   22.2146 C   0  0  0  0  0  0  0  0  0  0  0  0
   10.1589  -18.1307   22.3358 C   0  0  0  0  0  0  0  0  0  0  0  0
   10.7679  -18.8936   21.5508 O   0  0  0  0  0  0  0  0  0  0  0  0
   10.9155  -17.4611   23.3190 N   0  0  0  0  0  0  0  0  0  0  0  0
   12.1445  -18.0532   23.8455 C   0  0  1  0  0  0  0  0  0  0  0  0
   13.3476  -17.1730   23.5299 C   0  0  0  0  0  0  0  0  0  0  0  0
   13.6038  -17.1256   22.0752 C   0  0  0  0  0  0  0  0  0  0  0  0
   13.8514  -18.1982   21.4463 O   0  0  0  0  0  0  0  0  0  0  0  0
   11.9974  -18.1933   25.2956 C   0  0  0  0  0  0  0  0  0  0  0  0
   10.9776  -17.7509   25.9099 O   0  0  0  0  0  0  0  0  0  0  0  0
   13.5807  -15.9215   21.3706 O   0  0  0  0  0  0  0  0  0  0  0  0
   12.9532  -18.8145   26.0983 O   0  0  0  0  0  0  0  0  0  0  0  0
  2  1  1  0
  2  3  2  0
  4  3  1  0
  5  4  2  0
  6  5  1  0
  6  7  1  0
  7  8  1  1
  9  7  1  0
  9 13  1  0
 10  9  2  0
 11 12  2  0
 11  5  1  0
 12  2  1  0
 14 13  1  0
 15 14  1  0
 16 15  2  0
 17 15  1  0
 18 19  1  1
 18 17  1  0
 19 20  1  0
 20 24  1  0
 21 20  2  0
 22 18  1  0
 23 22  2  0
 25 22  1  0
M  END
$$$$
