YGD.pdb
     RDKit          3D

 25 25  0  0  1  0  0  0  0  0999 V2000
    5.6053  -11.3314   28.0417 O   0  0  0  0  0  0  0  0  0  0  0  0
    6.0369  -11.9606   26.8685 C   0  0  0  0  0  0  0  0  0  0  0  0
    6.9063  -11.3304   26.0130 C   0  0  0  0  0  0  0  0  0  0  0  0
    7.3425  -11.9358   24.8517 C   0  0  0  0  0  0  0  0  0  0  0  0
    6.8971  -13.2021   24.5400 C   0  0  0  0  0  0  0  0  0  0  0  0
    7.3679  -13.8475   23.2923 C   0  0  0  0  0  0  0  0  0  0  0  0
    8.1385  -15.0874   23.6813 C   0  0  2  0  0  0  0  0  0  0  0  0
    9.2922  -14.6500   24.4359 N   0  0  0  0  0  0  0  0  0  0  0  0
    8.5235  -15.9123   22.5449 C   0  0  0  0  0  0  0  0  0  0  0  0
    7.7686  -16.6840   21.9119 O   0  0  0  0  0  0  0  0  0  0  0  0
    6.0199  -13.8260   25.4128 C   0  0  0  0  0  0  0  0  0  0  0  0
    5.5751  -13.2303   26.5797 C   0  0  0  0  0  0  0  0  0  0  0  0
    9.8859  -15.8590   22.0826 N   0  0  0  0  0  0  0  0  0  0  0  0
   10.3761  -16.7232   21.0498 C   0  0  0  0  0  0  0  0  0  0  0  0
   11.1404  -17.8800   21.4706 C   0  0  0  0  0  0  0  0  0  0  0  0
   11.5058  -18.7318   20.6279 O   0  0  0  0  0  0  0  0  0  0  0  0
   11.5012  -18.0921   22.8169 N   0  0  0  0  0  0  0  0  0  0  0  0
   12.9033  -18.2640   23.1947 C   0  0  1  0  0  0  0  0  0  0  0  0
   13.7284  -17.0525   22.7782 C   0  0  0  0  0  0  0  0  0  0  0  0
   15.1350  -17.1946   23.2086 C   0  0  0  0  0  0  0  0  0  0  0  0
   15.6953  -18.3307   23.1573 O   0  0  0  0  0  0  0  0  0  0  0  0
   12.9658  -18.4326   24.6479 C   0  0  0  0  0  0  0  0  0  0  0  0
   14.0470  -18.7399   25.2392 O   0  0  0  0  0  0  0  0  0  0  0  0
   15.8679  -16.1023   23.6741 O   0  0  0  0  0  0  0  0  0  0  0  0
   11.8579  -18.2704   25.4785 O   0  0  0  0  0  0  0  0  0  0  0  0
  2  1  1  0
  2  3  2  0
  4  3  1  0
  5  4  2  0
  6  5  1  0
  6  7  1  0
  7  8  1  6
  9  7  1  0
  9 13  1  0
 10  9  2  0
 11 12  2  0
 11  5  1  0
 12  2  1  0
 14 13  1  0
 15 14  1  0
 16 15  2  0
 17 15  1  0
 18 19  1  1
 18 17  1  0
 19 20  1  0
 20 24  1  0
 21 20  2  0
 22 18  1  0
 23 22  2  0
 25 22  1  0
M  END
$$$$
