YGD.pdb
     RDKit          3D

 25 25  0  0  1  0  0  0  0  0999 V2000
   10.5968  -15.5331   30.6188 O   0  0  0  0  0  0  0  0  0  0  0  0
    9.9536  -15.1904   29.4240 C   0  0  0  0  0  0  0  0  0  0  0  0
   10.0941  -13.9350   28.8863 C   0  0  0  0  0  0  0  0  0  0  0  0
    9.4673  -13.5796   27.7090 C   0  0  0  0  0  0  0  0  0  0  0  0
    8.6813  -14.5034   27.0550 C   0  0  0  0  0  0  0  0  0  0  0  0
    8.0104  -14.1170   25.7918 C   0  0  0  0  0  0  0  0  0  0  0  0
    7.3174  -15.3445   25.2480 C   0  0  2  0  0  0  0  0  0  0  0  0
    8.1874  -16.4709   25.5045 N   0  0  0  0  0  0  0  0  0  0  0  0
    6.9772  -15.2415   23.8360 C   0  0  0  0  0  0  0  0  0  0  0  0
    6.5681  -14.2112   23.2552 O   0  0  0  0  0  0  0  0  0  0  0  0
    8.5487  -15.7666   27.6093 C   0  0  0  0  0  0  0  0  0  0  0  0
    9.1714  -16.1354   28.7885 C   0  0  0  0  0  0  0  0  0  0  0  0
    7.1122  -16.4100   23.0058 N   0  0  0  0  0  0  0  0  0  0  0  0
    7.4453  -16.3239   21.6147 C   0  0  0  0  0  0  0  0  0  0  0  0
    8.8432  -16.4739   21.2646 C   0  0  0  0  0  0  0  0  0  0  0  0
    9.1767  -16.6426   20.0690 O   0  0  0  0  0  0  0  0  0  0  0  0
    9.8678  -16.4347   22.2323 N   0  0  0  0  0  0  0  0  0  0  0  0
   11.2362  -16.8152   21.8849 C   0  0  1  0  0  0  0  0  0  0  0  0
   12.2244  -15.7414   22.3235 C   0  0  0  0  0  0  0  0  0  0  0  0
   13.5991  -16.0799   21.9000 C   0  0  0  0  0  0  0  0  0  0  0  0
   13.7792  -16.8998   20.9498 O   0  0  0  0  0  0  0  0  0  0  0  0
   11.5426  -18.0784   22.5592 C   0  0  0  0  0  0  0  0  0  0  0  0
   10.8381  -18.5088   23.5244 O   0  0  0  0  0  0  0  0  0  0  0  0
   14.7129  -15.5167   22.5240 O   0  0  0  0  0  0  0  0  0  0  0  0
   12.6157  -18.8910   22.1963 O   0  0  0  0  0  0  0  0  0  0  0  0
  2  1  1  0
  2  3  2  0
  4  3  1  0
  5  4  2  0
  6  5  1  0
  6  7  1  0
  7  8  1  6
  9  7  1  0
  9 13  1  0
 10  9  2  0
 11 12  2  0
 11  5  1  0
 12  2  1  0
 14 13  1  0
 15 14  1  0
 16 15  2  0
 17 15  1  0
 18 19  1  1
 18 17  1  0
 19 20  1  0
 20 24  1  0
 21 20  2  0
 22 18  1  0
 23 22  2  0
 25 22  1  0
M  END
$$$$
