YGD.pdb
     RDKit          3D

 25 25  0  0  1  0  0  0  0  0999 V2000
    6.0917  -11.2490   28.6755 O   0  0  0  0  0  0  0  0  0  0  0  0
    6.5396  -11.8140   27.4759 C   0  0  0  0  0  0  0  0  0  0  0  0
    7.8174  -12.3038   27.3648 C   0  0  0  0  0  0  0  0  0  0  0  0
    8.2759  -12.8643   26.1897 C   0  0  0  0  0  0  0  0  0  0  0  0
    7.4349  -12.9357   25.1004 C   0  0  0  0  0  0  0  0  0  0  0  0
    7.9318  -13.5379   23.8413 C   0  0  0  0  0  0  0  0  0  0  0  0
    7.3373  -14.9224   23.7307 C   0  0  2  0  0  0  0  0  0  0  0  0
    7.9983  -15.7477   24.7173 N   0  0  0  0  0  0  0  0  0  0  0  0
    7.4432  -15.4950   22.3962 C   0  0  0  0  0  0  0  0  0  0  0  0
    6.6016  -15.3718   21.4782 O   0  0  0  0  0  0  0  0  0  0  0  0
    6.1479  -12.4374   25.2272 C   0  0  0  0  0  0  0  0  0  0  0  0
    5.6761  -11.8732   26.3992 C   0  0  0  0  0  0  0  0  0  0  0  0
    8.6070  -16.2776   22.0705 N   0  0  0  0  0  0  0  0  0  0  0  0
    8.9251  -16.6486   20.7233 C   0  0  0  0  0  0  0  0  0  0  0  0
    9.7834  -17.8024   20.5461 C   0  0  0  0  0  0  0  0  0  0  0  0
    9.3509  -18.9512   20.7960 O   0  0  0  0  0  0  0  0  0  0  0  0
   11.1130  -17.6861   20.0920 N   0  0  0  0  0  0  0  0  0  0  0  0
   11.9741  -18.8642   19.9973 C   0  0  1  0  0  0  0  0  0  0  0  0
   13.1056  -18.6289   19.0041 C   0  0  0  0  0  0  0  0  0  0  0  0
   14.0223  -19.7871   18.9594 C   0  0  0  0  0  0  0  0  0  0  0  0
   14.9079  -19.9216   19.8566 O   0  0  0  0  0  0  0  0  0  0  0  0
   12.5266  -19.1323   21.3265 C   0  0  0  0  0  0  0  0  0  0  0  0
   12.6434  -18.2167   22.1989 O   0  0  0  0  0  0  0  0  0  0  0  0
   13.9381  -20.7438   17.9472 O   0  0  0  0  0  0  0  0  0  0  0  0
   12.9595  -20.3955   21.7272 O   0  0  0  0  0  0  0  0  0  0  0  0
  2  1  1  0
  2  3  2  0
  4  3  1  0
  5  4  2  0
  6  5  1  0
  6  7  1  0
  7  8  1  1
  9  7  1  0
  9 13  1  0
 10  9  2  0
 11 12  2  0
 11  5  1  0
 12  2  1  0
 14 13  1  0
 15 14  1  0
 16 15  2  0
 17 15  1  0
 18 19  1  6
 18 17  1  0
 19 20  1  0
 20 24  1  0
 21 20  2  0
 22 18  1  0
 23 22  2  0
 25 22  1  0
M  END
$$$$
