YGD.pdb
     RDKit          3D

 25 25  0  0  1  0  0  0  0  0999 V2000
    5.9460  -11.2475   28.3844 O   0  0  0  0  0  0  0  0  0  0  0  0
    6.4551  -11.7427   27.1785 C   0  0  0  0  0  0  0  0  0  0  0  0
    5.6426  -11.8911   26.0818 C   0  0  0  0  0  0  0  0  0  0  0  0
    6.1276  -12.3778   24.8846 C   0  0  0  0  0  0  0  0  0  0  0  0
    7.4576  -12.7241   24.7837 C   0  0  0  0  0  0  0  0  0  0  0  0
    7.9733  -13.2463   23.4968 C   0  0  0  0  0  0  0  0  0  0  0  0
    7.4943  -14.6723   23.3568 C   0  0  2  0  0  0  0  0  0  0  0  0
    8.0306  -15.4115   24.4782 N   0  0  0  0  0  0  0  0  0  0  0  0
    7.8591  -15.2855   22.0876 C   0  0  0  0  0  0  0  0  0  0  0  0
    7.4526  -14.9288   20.9591 O   0  0  0  0  0  0  0  0  0  0  0  0
    8.2658  -12.5689   25.8988 C   0  0  0  0  0  0  0  0  0  0  0  0
    7.7922  -12.0824   27.1043 C   0  0  0  0  0  0  0  0  0  0  0  0
    8.7663  -16.4034   22.0960 N   0  0  0  0  0  0  0  0  0  0  0  0
    9.1945  -17.0483   20.8899 C   0  0  0  0  0  0  0  0  0  0  0  0
   10.0799  -18.1861   21.0333 C   0  0  0  0  0  0  0  0  0  0  0  0
   10.0684  -19.1025   20.1794 O   0  0  0  0  0  0  0  0  0  0  0  0
   10.9759  -18.3083   22.1149 N   0  0  0  0  0  0  0  0  0  0  0  0
   12.2340  -19.0378   21.9620 C   0  0  1  0  0  0  0  0  0  0  0  0
   13.1309  -18.3600   20.9333 C   0  0  0  0  0  0  0  0  0  0  0  0
   13.8607  -17.2231   21.5322 C   0  0  0  0  0  0  0  0  0  0  0  0
   13.6644  -16.9216   22.7478 O   0  0  0  0  0  0  0  0  0  0  0  0
   12.9041  -19.0675   23.2636 C   0  0  0  0  0  0  0  0  0  0  0  0
   13.9261  -19.7920   23.4728 O   0  0  0  0  0  0  0  0  0  0  0  0
   14.7671  -16.4667   20.7883 O   0  0  0  0  0  0  0  0  0  0  0  0
   12.4756  -18.3127   24.3546 O   0  0  0  0  0  0  0  0  0  0  0  0
  2  1  1  0
  2  3  2  0
  4  3  1  0
  5  4  2  0
  6  5  1  0
  6  7  1  0
  7  8  1  1
  9  7  1  0
  9 13  1  0
 10  9  2  0
 11 12  2  0
 11  5  1  0
 12  2  1  0
 14 13  1  0
 15 14  1  0
 16 15  2  0
 17 15  1  0
 18 19  1  6
 18 17  1  0
 19 20  1  0
 20 24  1  0
 21 20  2  0
 22 18  1  0
 23 22  2  0
 25 22  1  0
M  END
$$$$
