YGD.pdb
     RDKit          3D

 25 25  0  0  1  0  0  0  0  0999 V2000
    4.9025  -11.0453   27.4916 O   0  0  0  0  0  0  0  0  0  0  0  0
    5.8204  -11.8190   26.7723 C   0  0  0  0  0  0  0  0  0  0  0  0
    5.9721  -13.1571   27.0395 C   0  0  0  0  0  0  0  0  0  0  0  0
    6.8724  -13.9354   26.3402 C   0  0  0  0  0  0  0  0  0  0  0  0
    7.6388  -13.3597   25.3501 C   0  0  0  0  0  0  0  0  0  0  0  0
    8.6039  -14.1992   24.6025 C   0  0  0  0  0  0  0  0  0  0  0  0
    7.8513  -14.8693   23.4769 C   0  0  2  0  0  0  0  0  0  0  0  0
    7.0001  -15.8738   24.0752 N   0  0  0  0  0  0  0  0  0  0  0  0
    8.7195  -15.4415   22.4576 C   0  0  0  0  0  0  0  0  0  0  0  0
    9.5327  -14.8069   21.7490 O   0  0  0  0  0  0  0  0  0  0  0  0
    7.4749  -12.0082   25.0913 C   0  0  0  0  0  0  0  0  0  0  0  0
    6.5763  -11.2171   25.7848 C   0  0  0  0  0  0  0  0  0  0  0  0
    8.6626  -16.8601   22.2186 N   0  0  0  0  0  0  0  0  0  0  0  0
    9.4504  -17.4955   21.2040 C   0  0  0  0  0  0  0  0  0  0  0  0
   10.8722  -17.6139   21.4558 C   0  0  0  0  0  0  0  0  0  0  0  0
   11.6263  -18.1016   20.5824 O   0  0  0  0  0  0  0  0  0  0  0  0
   11.4577  -17.1923   22.6670 N   0  0  0  0  0  0  0  0  0  0  0  0
   12.8636  -17.4747   22.9535 C   0  0  1  0  0  0  0  0  0  0  0  0
   13.7193  -16.2318   22.7413 C   0  0  0  0  0  0  0  0  0  0  0  0
   15.1381  -16.5047   23.0519 C   0  0  0  0  0  0  0  0  0  0  0  0
   15.4889  -17.6680   23.4140 O   0  0  0  0  0  0  0  0  0  0  0  0
   12.9646  -17.9164   24.3459 C   0  0  0  0  0  0  0  0  0  0  0  0
   12.1486  -17.5187   25.2342 O   0  0  0  0  0  0  0  0  0  0  0  0
   16.1092  -15.5072   22.9568 O   0  0  0  0  0  0  0  0  0  0  0  0
   13.9508  -18.7945   24.7933 O   0  0  0  0  0  0  0  0  0  0  0  0
  2  1  1  0
  2  3  2  0
  4  3  1  0
  5  4  2  0
  6  5  1  0
  6  7  1  0
  7  8  1  1
  9  7  1  0
  9 13  1  0
 10  9  2  0
 11 12  2  0
 11  5  1  0
 12  2  1  0
 14 13  1  0
 15 14  1  0
 16 15  2  0
 17 15  1  0
 18 19  1  1
 18 17  1  0
 19 20  1  0
 20 24  1  0
 21 20  2  0
 22 18  1  0
 23 22  2  0
 25 22  1  0
M  END
$$$$
