YGD.pdb
     RDKit          3D

 25 25  0  0  1  0  0  0  0  0999 V2000
    5.8100  -12.0923   27.9944 O   0  0  0  0  0  0  0  0  0  0  0  0
    6.2062  -12.6983   26.7968 C   0  0  0  0  0  0  0  0  0  0  0  0
    6.9989  -12.0269   25.8991 C   0  0  0  0  0  0  0  0  0  0  0  0
    7.3991  -12.6090   24.7132 C   0  0  0  0  0  0  0  0  0  0  0  0
    6.9958  -13.8935   24.4196 C   0  0  0  0  0  0  0  0  0  0  0  0
    7.4279  -14.5137   23.1454 C   0  0  0  0  0  0  0  0  0  0  0  0
    8.4311  -15.5929   23.4790 C   0  0  2  0  0  0  0  0  0  0  0  0
    9.3396  -15.0389   24.4585 N   0  0  0  0  0  0  0  0  0  0  0  0
    9.1438  -16.1029   22.3162 C   0  0  0  0  0  0  0  0  0  0  0  0
    8.7323  -16.9926   21.5382 O   0  0  0  0  0  0  0  0  0  0  0  0
    6.1960  -14.5590   25.3350 C   0  0  0  0  0  0  0  0  0  0  0  0
    5.7879  -13.9870   26.5270 C   0  0  0  0  0  0  0  0  0  0  0  0
   10.4390  -15.5566   22.0053 N   0  0  0  0  0  0  0  0  0  0  0  0
   11.2103  -16.0102   20.8859 C   0  0  0  0  0  0  0  0  0  0  0  0
   12.5007  -16.6022   21.1752 C   0  0  0  0  0  0  0  0  0  0  0  0
   12.7058  -17.8131   20.9286 O   0  0  0  0  0  0  0  0  0  0  0  0
   13.5602  -15.8574   21.7323 N   0  0  0  0  0  0  0  0  0  0  0  0
   14.3814  -16.4168   22.8051 C   0  0  1  0  0  0  0  0  0  0  0  0
   13.5067  -17.0153   23.9000 C   0  0  0  0  0  0  0  0  0  0  0  0
   14.3296  -17.5391   25.0101 C   0  0  0  0  0  0  0  0  0  0  0  0
   15.5912  -17.5796   24.8913 O   0  0  0  0  0  0  0  0  0  0  0  0
   15.2374  -17.4556   22.2288 C   0  0  0  0  0  0  0  0  0  0  0  0
   16.3280  -17.8040   22.7786 O   0  0  0  0  0  0  0  0  0  0  0  0
   13.7495  -17.9945   26.1946 O   0  0  0  0  0  0  0  0  0  0  0  0
   14.9226  -18.1299   21.0499 O   0  0  0  0  0  0  0  0  0  0  0  0
  2  1  1  0
  2  3  2  0
  4  3  1  0
  5  4  2  0
  6  5  1  0
  6  7  1  0
  7  8  1  1
  9  7  1  0
  9 13  1  0
 10  9  2  0
 11 12  2  0
 11  5  1  0
 12  2  1  0
 14 13  1  0
 15 14  1  0
 16 15  2  0
 17 15  1  0
 18 19  1  1
 18 17  1  0
 19 20  1  0
 20 24  1  0
 21 20  2  0
 22 18  1  0
 23 22  2  0
 25 22  1  0
M  END
$$$$
