YGD.pdb
     RDKit          3D

 25 25  0  0  1  0  0  0  0  0999 V2000
    4.8507  -11.1599   27.7269 O   0  0  0  0  0  0  0  0  0  0  0  0
    5.7690  -11.7774   26.8702 C   0  0  0  0  0  0  0  0  0  0  0  0
    7.0818  -11.9310   27.2415 C   0  0  0  0  0  0  0  0  0  0  0  0
    8.0012  -12.5375   26.4095 C   0  0  0  0  0  0  0  0  0  0  0  0
    7.5960  -13.0009   25.1766 C   0  0  0  0  0  0  0  0  0  0  0  0
    8.5865  -13.6509   24.2871 C   0  0  0  0  0  0  0  0  0  0  0  0
    7.8753  -14.7548   23.5399 C   0  0  2  0  0  0  0  0  0  0  0  0
    7.3276  -15.6534   24.5319 N   0  0  0  0  0  0  0  0  0  0  0  0
    8.7288  -15.4586   22.5931 C   0  0  0  0  0  0  0  0  0  0  0  0
    9.4130  -14.9274   21.6899 O   0  0  0  0  0  0  0  0  0  0  0  0
    6.2679  -12.8392   24.8153 C   0  0  0  0  0  0  0  0  0  0  0  0
    5.3366  -12.2331   25.6398 C   0  0  0  0  0  0  0  0  0  0  0  0
    8.8162  -16.8932   22.6760 N   0  0  0  0  0  0  0  0  0  0  0  0
    9.5569  -17.6691   21.7257 C   0  0  0  0  0  0  0  0  0  0  0  0
   10.9851  -17.7822   21.9421 C   0  0  0  0  0  0  0  0  0  0  0  0
   11.6806  -18.4968   21.1840 O   0  0  0  0  0  0  0  0  0  0  0  0
   11.6412  -17.1056   22.9905 N   0  0  0  0  0  0  0  0  0  0  0  0
   12.9832  -17.5058   23.4114 C   0  0  1  0  0  0  0  0  0  0  0  0
   13.9224  -16.3061   23.4376 C   0  0  0  0  0  0  0  0  0  0  0  0
   14.6069  -16.1392   22.1385 C   0  0  0  0  0  0  0  0  0  0  0  0
   15.7875  -15.6783   22.1058 O   0  0  0  0  0  0  0  0  0  0  0  0
   12.8851  -18.0901   24.7504 C   0  0  0  0  0  0  0  0  0  0  0  0
   13.8940  -18.5927   25.3359 O   0  0  0  0  0  0  0  0  0  0  0  0
   13.9824  -16.4780   20.9376 O   0  0  0  0  0  0  0  0  0  0  0  0
   11.6931  -18.1372   25.4718 O   0  0  0  0  0  0  0  0  0  0  0  0
  2  1  1  0
  2  3  2  0
  4  3  1  0
  5  4  2  0
  6  5  1  0
  6  7  1  0
  7  8  1  1
  9  7  1  0
  9 13  1  0
 10  9  2  0
 11 12  2  0
 11  5  1  0
 12  2  1  0
 14 13  1  0
 15 14  1  0
 16 15  2  0
 17 15  1  0
 18 19  1  1
 18 17  1  0
 19 20  1  0
 20 24  1  0
 21 20  2  0
 22 18  1  0
 23 22  2  0
 25 22  1  0
M  END
$$$$
