YGD.pdb
     RDKit          3D

 25 25  0  0  1  0  0  0  0  0999 V2000
    5.8028  -11.6094   28.1507 O   0  0  0  0  0  0  0  0  0  0  0  0
    6.2158  -12.0949   26.9048 C   0  0  0  0  0  0  0  0  0  0  0  0
    5.5649  -13.1478   26.3108 C   0  0  0  0  0  0  0  0  0  0  0  0
    5.9584  -13.6396   25.0826 C   0  0  0  0  0  0  0  0  0  0  0  0
    7.0292  -13.0633   24.4342 C   0  0  0  0  0  0  0  0  0  0  0  0
    7.4479  -13.5949   23.1163 C   0  0  0  0  0  0  0  0  0  0  0  0
    7.9212  -15.0144   23.3250 C   0  0  2  0  0  0  0  0  0  0  0  0
    9.1662  -14.9427   24.0573 N   0  0  0  0  0  0  0  0  0  0  0  0
    8.0713  -15.7646   22.0862 C   0  0  0  0  0  0  0  0  0  0  0  0
    7.2004  -16.4959   21.5636 O   0  0  0  0  0  0  0  0  0  0  0  0
    7.6765  -12.0014   25.0456 C   0  0  0  0  0  0  0  0  0  0  0  0
    7.2921  -11.4991   26.2762 C   0  0  0  0  0  0  0  0  0  0  0  0
    9.3195  -15.6796   21.3739 N   0  0  0  0  0  0  0  0  0  0  0  0
   10.5853  -15.8083   22.0334 C   0  0  0  0  0  0  0  0  0  0  0  0
   11.1012  -17.1512   22.2062 C   0  0  0  0  0  0  0  0  0  0  0  0
   11.2761  -17.8899   21.2098 O   0  0  0  0  0  0  0  0  0  0  0  0
   11.4247  -17.6735   23.4752 N   0  0  0  0  0  0  0  0  0  0  0  0
   12.7013  -17.3504   24.1110 C   0  0  1  0  0  0  0  0  0  0  0  0
   13.2728  -16.0542   23.5493 C   0  0  0  0  0  0  0  0  0  0  0  0
   14.6180  -16.2711   22.9772 C   0  0  0  0  0  0  0  0  0  0  0  0
   14.9229  -17.4067   22.5031 O   0  0  0  0  0  0  0  0  0  0  0  0
   12.4705  -17.2098   25.5501 C   0  0  0  0  0  0  0  0  0  0  0  0
   13.2764  -17.6898   26.4063 O   0  0  0  0  0  0  0  0  0  0  0  0
   15.5690  -15.2504   22.9456 O   0  0  0  0  0  0  0  0  0  0  0  0
   11.3638  -16.5474   26.0795 O   0  0  0  0  0  0  0  0  0  0  0  0
  2  1  1  0
  2  3  2  0
  4  3  1  0
  5  4  2  0
  6  5  1  0
  6  7  1  0
  7  8  1  6
  9  7  1  0
  9 13  1  0
 10  9  2  0
 11 12  2  0
 11  5  1  0
 12  2  1  0
 14 13  1  0
 15 14  1  0
 16 15  2  0
 17 15  1  0
 18 19  1  6
 18 17  1  0
 19 20  1  0
 20 24  1  0
 21 20  2  0
 22 18  1  0
 23 22  2  0
 25 22  1  0
M  END
$$$$
