YGD.pdb
     RDKit          3D

 25 25  0  0  1  0  0  0  0  0999 V2000
    4.9985  -11.0607   27.8857 O   0  0  0  0  0  0  0  0  0  0  0  0
    5.8631  -11.6568   26.9605 C   0  0  0  0  0  0  0  0  0  0  0  0
    6.8648  -12.4982   27.3769 C   0  0  0  0  0  0  0  0  0  0  0  0
    7.7265  -13.0948   26.4787 C   0  0  0  0  0  0  0  0  0  0  0  0
    7.5815  -12.8424   25.1318 C   0  0  0  0  0  0  0  0  0  0  0  0
    8.5090  -13.4849   24.1716 C   0  0  0  0  0  0  0  0  0  0  0  0
    7.8439  -14.7434   23.6654 C   0  0  2  0  0  0  0  0  0  0  0  0
    7.6072  -15.5893   24.8143 N   0  0  0  0  0  0  0  0  0  0  0  0
    8.6132  -15.4350   22.6408 C   0  0  0  0  0  0  0  0  0  0  0  0
    9.0186  -14.9346   21.5677 O   0  0  0  0  0  0  0  0  0  0  0  0
    6.5659  -11.9912   24.7260 C   0  0  0  0  0  0  0  0  0  0  0  0
    5.6957  -11.3869   25.6160 C   0  0  0  0  0  0  0  0  0  0  0  0
    8.9552  -16.8179   22.8492 N   0  0  0  0  0  0  0  0  0  0  0  0
    9.7136  -17.5693   21.8932 C   0  0  0  0  0  0  0  0  0  0  0  0
   11.1315  -17.7177   22.1516 C   0  0  0  0  0  0  0  0  0  0  0  0
   11.8405  -18.4101   21.3854 O   0  0  0  0  0  0  0  0  0  0  0  0
   11.7628  -17.1006   23.2509 N   0  0  0  0  0  0  0  0  0  0  0  0
   12.8933  -17.7439   23.9189 C   0  0  1  0  0  0  0  0  0  0  0  0
   14.0733  -16.7860   24.0289 C   0  0  0  0  0  0  0  0  0  0  0  0
   14.6599  -16.5114   22.7006 C   0  0  0  0  0  0  0  0  0  0  0  0
   14.5682  -17.3806   21.7821 O   0  0  0  0  0  0  0  0  0  0  0  0
   12.4590  -18.1538   25.2558 C   0  0  0  0  0  0  0  0  0  0  0  0
   11.3361  -17.7992   25.7317 O   0  0  0  0  0  0  0  0  0  0  0  0
   15.3177  -15.3112   22.4291 O   0  0  0  0  0  0  0  0  0  0  0  0
   13.2357  -18.9527   26.0938 O   0  0  0  0  0  0  0  0  0  0  0  0
  2  1  1  0
  2  3  2  0
  4  3  1  0
  5  4  2  0
  6  5  1  0
  6  7  1  0
  7  8  1  1
  9  7  1  0
  9 13  1  0
 10  9  2  0
 11 12  2  0
 11  5  1  0
 12  2  1  0
 14 13  1  0
 15 14  1  0
 16 15  2  0
 17 15  1  0
 18 19  1  1
 18 17  1  0
 19 20  1  0
 20 24  1  0
 21 20  2  0
 22 18  1  0
 23 22  2  0
 25 22  1  0
M  END
$$$$
