YGD.pdb
     RDKit          3D

 25 25  0  0  1  0  0  0  0  0999 V2000
    5.0686  -11.0990   27.5602 O   0  0  0  0  0  0  0  0  0  0  0  0
    5.9817  -11.7067   26.6909 C   0  0  0  0  0  0  0  0  0  0  0  0
    5.7719  -11.6976   25.3341 C   0  0  0  0  0  0  0  0  0  0  0  0
    6.6617  -12.2918   24.4621 C   0  0  0  0  0  0  0  0  0  0  0  0
    7.7879  -12.9097   24.9608 C   0  0  0  0  0  0  0  0  0  0  0  0
    8.7398  -13.5463   24.0208 C   0  0  0  0  0  0  0  0  0  0  0  0
    8.0999  -14.8169   23.5123 C   0  0  2  0  0  0  0  0  0  0  0  0
    7.8290  -15.6461   24.6658 N   0  0  0  0  0  0  0  0  0  0  0  0
    8.9080  -15.5196   22.5258 C   0  0  0  0  0  0  0  0  0  0  0  0
    9.3806  -15.0225   21.4790 O   0  0  0  0  0  0  0  0  0  0  0  0
    7.9867  -12.9111   26.3324 C   0  0  0  0  0  0  0  0  0  0  0  0
    7.1027  -12.3193   27.2171 C   0  0  0  0  0  0  0  0  0  0  0  0
    9.2090  -16.9105   22.7434 N   0  0  0  0  0  0  0  0  0  0  0  0
    9.9342  -17.6936   21.7870 C   0  0  0  0  0  0  0  0  0  0  0  0
   11.3713  -17.7682   21.9550 C   0  0  0  0  0  0  0  0  0  0  0  0
   12.0683  -18.4008   21.1285 O   0  0  0  0  0  0  0  0  0  0  0  0
   12.0347  -17.1435   23.0308 N   0  0  0  0  0  0  0  0  0  0  0  0
   13.4665  -17.3498   23.2447 C   0  0  1  0  0  0  0  0  0  0  0  0
   14.2213  -16.0284   23.1653 C   0  0  0  0  0  0  0  0  0  0  0  0
   15.6811  -16.2454   23.2425 C   0  0  0  0  0  0  0  0  0  0  0  0
   16.4669  -15.2519   23.1896 O   0  0  0  0  0  0  0  0  0  0  0  0
   13.6475  -17.9473   24.5691 C   0  0  0  0  0  0  0  0  0  0  0  0
   14.7915  -18.3022   24.9916 O   0  0  0  0  0  0  0  0  0  0  0  0
   16.2211  -17.5254   23.3724 O   0  0  0  0  0  0  0  0  0  0  0  0
   12.5916  -18.1679   25.4524 O   0  0  0  0  0  0  0  0  0  0  0  0
  2  1  1  0
  2  3  2  0
  4  3  1  0
  5  4  2  0
  6  5  1  0
  6  7  1  0
  7  8  1  1
  9  7  1  0
  9 13  1  0
 10  9  2  0
 11 12  2  0
 11  5  1  0
 12  2  1  0
 14 13  1  0
 15 14  1  0
 16 15  2  0
 17 15  1  0
 18 19  1  1
 18 17  1  0
 19 20  1  0
 20 24  1  0
 21 20  2  0
 22 18  1  0
 23 22  2  0
 25 22  1  0
M  END
$$$$
