YGD.pdb
     RDKit          3D

 25 25  0  0  1  0  0  0  0  0999 V2000
   11.0852  -15.0979   30.3995 O   0  0  0  0  0  0  0  0  0  0  0  0
   10.3126  -14.8936   29.2505 C   0  0  0  0  0  0  0  0  0  0  0  0
    9.9669  -13.6257   28.8535 C   0  0  0  0  0  0  0  0  0  0  0  0
    9.2058  -13.4055   27.7232 C   0  0  0  0  0  0  0  0  0  0  0  0
    8.7809  -14.4806   26.9732 C   0  0  0  0  0  0  0  0  0  0  0  0
    7.9640  -14.2391   25.7611 C   0  0  0  0  0  0  0  0  0  0  0  0
    8.3881  -15.2442   24.7159 C   0  0  2  0  0  0  0  0  0  0  0  0
    9.8017  -15.0444   24.4848 N   0  0  0  0  0  0  0  0  0  0  0  0
    7.6254  -15.1527   23.4790 C   0  0  0  0  0  0  0  0  0  0  0  0
    6.4062  -15.4046   23.3510 O   0  0  0  0  0  0  0  0  0  0  0  0
    9.1375  -15.7546   27.3859 C   0  0  0  0  0  0  0  0  0  0  0  0
    9.8998  -15.9889   28.5166 C   0  0  0  0  0  0  0  0  0  0  0  0
    8.3032  -14.7385   22.2783 N   0  0  0  0  0  0  0  0  0  0  0  0
    7.7215  -14.9003   20.9786 C   0  0  0  0  0  0  0  0  0  0  0  0
    8.0797  -16.0967   20.2440 C   0  0  0  0  0  0  0  0  0  0  0  0
    7.6789  -16.2552   19.0679 O   0  0  0  0  0  0  0  0  0  0  0  0
    8.8798  -17.1118   20.8071 N   0  0  0  0  0  0  0  0  0  0  0  0
    9.6206  -18.0378   19.9515 C   0  0  1  0  0  0  0  0  0  0  0  0
   10.1834  -17.3163   18.7330 C   0  0  0  0  0  0  0  0  0  0  0  0
    9.4805  -17.7286   17.5002 C   0  0  0  0  0  0  0  0  0  0  0  0
    8.4259  -18.4273   17.5828 O   0  0  0  0  0  0  0  0  0  0  0  0
   10.7138  -18.6103   20.7396 C   0  0  0  0  0  0  0  0  0  0  0  0
   10.9513  -18.2304   21.9280 O   0  0  0  0  0  0  0  0  0  0  0  0
    9.9516  -17.3663   16.2377 O   0  0  0  0  0  0  0  0  0  0  0  0
   11.5634  -19.6014   20.2501 O   0  0  0  0  0  0  0  0  0  0  0  0
  2  1  1  0
  2  3  2  0
  4  3  1  0
  5  4  2  0
  6  5  1  0
  6  7  1  0
  7  8  1  6
  9  7  1  0
  9 13  1  0
 10  9  2  0
 11 12  2  0
 11  5  1  0
 12  2  1  0
 14 13  1  0
 15 14  1  0
 16 15  2  0
 17 15  1  0
 18 19  1  6
 18 17  1  0
 19 20  1  0
 20 24  1  0
 21 20  2  0
 22 18  1  0
 23 22  2  0
 25 22  1  0
M  END
$$$$
