YGD.pdb
     RDKit          3D

 25 25  0  0  1  0  0  0  0  0999 V2000
    5.4897  -10.9907   28.1280 O   0  0  0  0  0  0  0  0  0  0  0  0
    6.2171  -11.6605   27.1376 C   0  0  0  0  0  0  0  0  0  0  0  0
    6.1366  -11.2714   25.8234 C   0  0  0  0  0  0  0  0  0  0  0  0
    6.8469  -11.9203   24.8336 C   0  0  0  0  0  0  0  0  0  0  0  0
    7.6566  -12.9839   25.1680 C   0  0  0  0  0  0  0  0  0  0  0  0
    8.4168  -13.6773   24.1019 C   0  0  0  0  0  0  0  0  0  0  0  0
    7.5243  -14.7538   23.5300 C   0  0  2  0  0  0  0  0  0  0  0  0
    7.3319  -15.7412   24.5690 N   0  0  0  0  0  0  0  0  0  0  0  0
    8.0469  -15.3543   22.3109 C   0  0  0  0  0  0  0  0  0  0  0  0
    8.2881  -14.7492   21.2423 O   0  0  0  0  0  0  0  0  0  0  0  0
    7.7282  -13.3655   26.4983 C   0  0  0  0  0  0  0  0  0  0  0  0
    7.0215  -12.7237   27.4999 C   0  0  0  0  0  0  0  0  0  0  0  0
    8.3218  -16.7675   22.2997 N   0  0  0  0  0  0  0  0  0  0  0  0
    8.8746  -17.4288   21.1548 C   0  0  0  0  0  0  0  0  0  0  0  0
   10.2976  -17.2732   20.9311 C   0  0  0  0  0  0  0  0  0  0  0  0
   10.8671  -17.9299   20.0291 O   0  0  0  0  0  0  0  0  0  0  0  0
   11.0865  -16.3933   21.6999 N   0  0  0  0  0  0  0  0  0  0  0  0
   12.4501  -16.7564   22.0832 C   0  0  1  0  0  0  0  0  0  0  0  0
   12.7775  -16.2347   23.4770 C   0  0  0  0  0  0  0  0  0  0  0  0
   14.1860  -16.5096   23.8296 C   0  0  0  0  0  0  0  0  0  0  0  0
   15.1124  -16.1423   23.0458 O   0  0  0  0  0  0  0  0  0  0  0  0
   12.5557  -18.2167   22.0611 C   0  0  0  0  0  0  0  0  0  0  0  0
   13.3412  -18.8181   21.2645 O   0  0  0  0  0  0  0  0  0  0  0  0
   14.5254  -17.1684   25.0119 O   0  0  0  0  0  0  0  0  0  0  0  0
   11.8119  -19.0436   22.9017 O   0  0  0  0  0  0  0  0  0  0  0  0
  2  1  1  0
  2  3  2  0
  4  3  1  0
  5  4  2  0
  6  5  1  0
  6  7  1  0
  7  8  1  1
  9  7  1  0
  9 13  1  0
 10  9  2  0
 11 12  2  0
 11  5  1  0
 12  2  1  0
 14 13  1  0
 15 14  1  0
 16 15  2  0
 17 15  1  0
 18 19  1  1
 18 17  1  0
 19 20  1  0
 20 24  1  0
 21 20  2  0
 22 18  1  0
 23 22  2  0
 25 22  1  0
M  END
$$$$
