YGD.pdb
     RDKit          3D

 25 25  0  0  1  0  0  0  0  0999 V2000
   10.8314  -15.2075   30.6457 O   0  0  0  0  0  0  0  0  0  0  0  0
   10.2605  -15.0321   29.3800 C   0  0  0  0  0  0  0  0  0  0  0  0
    9.8120  -16.1095   28.6568 C   0  0  0  0  0  0  0  0  0  0  0  0
    9.2464  -15.9551   27.4072 C   0  0  0  0  0  0  0  0  0  0  0  0
    9.1274  -14.6920   26.8693 C   0  0  0  0  0  0  0  0  0  0  0  0
    8.5199  -14.5316   25.5276 C   0  0  0  0  0  0  0  0  0  0  0  0
    8.8668  -15.7595   24.7186 C   0  0  2  0  0  0  0  0  0  0  0  0
   10.2920  -15.9659   24.8515 N   0  0  0  0  0  0  0  0  0  0  0  0
    8.4673  -15.6665   23.3216 C   0  0  0  0  0  0  0  0  0  0  0  0
    7.3227  -15.3782   22.9056 O   0  0  0  0  0  0  0  0  0  0  0  0
    9.5843  -13.6139   27.6106 C   0  0  0  0  0  0  0  0  0  0  0  0
   10.1531  -13.7550   28.8640 C   0  0  0  0  0  0  0  0  0  0  0  0
    9.4519  -15.9224   22.3029 N   0  0  0  0  0  0  0  0  0  0  0  0
    9.1745  -15.7374   20.9091 C   0  0  0  0  0  0  0  0  0  0  0  0
   10.2606  -15.9924   19.9848 C   0  0  0  0  0  0  0  0  0  0  0  0
   10.0823  -15.8541   18.7526 O   0  0  0  0  0  0  0  0  0  0  0  0
   11.5390  -16.3957   20.4216 N   0  0  0  0  0  0  0  0  0  0  0  0
   12.7190  -16.1618   19.5903 C   0  0  1  0  0  0  0  0  0  0  0  0
   13.0161  -14.6713   19.4795 C   0  0  0  0  0  0  0  0  0  0  0  0
   14.2544  -14.4325   18.7093 C   0  0  0  0  0  0  0  0  0  0  0  0
   14.8558  -15.4092   18.1692 O   0  0  0  0  0  0  0  0  0  0  0  0
   13.8543  -16.8508   20.2071 C   0  0  0  0  0  0  0  0  0  0  0  0
   13.9894  -16.9198   21.4681 O   0  0  0  0  0  0  0  0  0  0  0  0
   14.7834  -13.1499   18.5603 O   0  0  0  0  0  0  0  0  0  0  0  0
   14.8572  -17.4737   19.4656 O   0  0  0  0  0  0  0  0  0  0  0  0
  2  1  1  0
  2  3  2  0
  4  3  1  0
  5  4  2  0
  6  5  1  0
  6  7  1  0
  7  8  1  6
  9  7  1  0
  9 13  1  0
 10  9  2  0
 11 12  2  0
 11  5  1  0
 12  2  1  0
 14 13  1  0
 15 14  1  0
 16 15  2  0
 17 15  1  0
 18 19  1  1
 18 17  1  0
 19 20  1  0
 20 24  1  0
 21 20  2  0
 22 18  1  0
 23 22  2  0
 25 22  1  0
M  END
$$$$
