KQC.pdb
     RDKit          3D

 25 24  0  0  1  0  0  0  0  0999 V2000
   26.6204  -19.7362  -18.4128 N   0  0  0  0  0  0  0  0  0  0  0  0
   26.5268  -20.7213  -17.3642 C   0  0  1  0  0  0  0  0  0  0  0  0
   27.8156  -21.4139  -17.0363 C   0  0  0  0  0  0  0  0  0  0  0  0
   27.8731  -22.8425  -17.4448 C   0  0  0  0  0  0  0  0  0  0  0  0
   26.9781  -23.7843  -16.7174 C   0  0  0  0  0  0  0  0  0  0  0  0
   27.2238  -25.2326  -17.1797 C   0  0  0  0  0  0  0  0  0  0  0  0
   26.3266  -26.0549  -16.3970 N   0  0  0  0  0  0  0  0  0  0  0  0
   25.9638  -20.0367  -16.1540 C   0  0  0  0  0  0  0  0  0  0  0  0
   26.3869  -18.8992  -15.8660 O   0  0  0  0  0  0  0  0  0  0  0  0
   20.7456  -21.0536  -11.7485 N   0  0  0  0  0  0  0  0  0  0  0  0
   20.9620  -20.4361  -13.0102 C   0  0  0  0  0  0  0  0  0  0  0  0
   20.1709  -20.6758  -13.9626 O   0  0  0  0  0  0  0  0  0  0  0  0
   22.1296  -19.5023  -13.2045 C   0  0  0  0  0  0  0  0  0  0  0  0
   22.9332  -19.9525  -14.3881 C   0  0  0  0  0  0  0  0  0  0  0  0
   24.4231  -19.9593  -14.1620 C   0  0  2  0  0  0  0  0  0  0  0  0
   24.9851  -20.6321  -15.3446 N   0  0  0  0  0  0  0  0  0  0  0  0
   24.8609  -20.7029  -12.9835 C   0  0  0  0  0  0  0  0  0  0  0  0
   24.6790  -21.9442  -12.9215 O   0  0  0  0  0  0  0  0  0  0  0  0
   25.4923  -20.0885  -11.8832 N   0  0  0  0  0  0  0  0  0  0  0  0
   25.7466  -20.8186  -10.6401 C   0  0  1  0  0  0  0  0  0  0  0  0
   26.8515  -20.1027   -9.9065 C   0  0  0  0  0  0  0  0  0  0  0  0
   27.0363  -20.7437   -8.2327 S   0  0  0  0  0  0  0  0  0  0  0  0
   24.4935  -20.8402   -9.8423 C   0  0  0  0  0  0  0  0  0  0  0  0
   24.1875  -21.8922   -8.9953 O   0  0  0  0  0  0  0  0  0  0  0  0
   23.6714  -19.9025   -9.9121 O   0  0  0  0  0  0  0  0  0  0  0  0
  2  1  1  6
  3  2  1  0
  4  3  1  0
  5  4  1  0
  6  7  1  0
  6  5  1  0
  8  9  2  0
  8  2  1  0
 10 11  1  0
 11 12  2  0
 13 11  1  0
 13 14  1  0
 15 14  1  6
 15 16  1  0
 16  8  1  0
 17 15  1  0
 18 17  2  0
 19 17  1  0
 20 19  1  0
 21 22  1  0
 20 21  1  1
 23 20  1  0
 23 24  1  0
 25 23  2  0
M  END
$$$$
