KQC.pdb
     RDKit          3D

 25 24  0  0  1  0  0  0  0  0999 V2000
   17.9435  -12.2219  -14.5126 N   0  0  0  0  0  0  0  0  0  0  0  0
   17.2232  -10.9733  -14.5407 C   0  0  1  0  0  0  0  0  0  0  0  0
   15.7310  -11.1074  -14.4813 C   0  0  0  0  0  0  0  0  0  0  0  0
   15.1201  -11.7661  -15.6662 C   0  0  0  0  0  0  0  0  0  0  0  0
   13.6342  -11.8589  -15.6897 C   0  0  0  0  0  0  0  0  0  0  0  0
   13.1835  -13.3295  -15.7672 C   0  0  0  0  0  0  0  0  0  0  0  0
   13.9877  -13.9351  -16.8065 N   0  0  0  0  0  0  0  0  0  0  0  0
   17.7313  -10.1363  -13.4044 C   0  0  0  0  0  0  0  0  0  0  0  0
   17.9784  -10.6983  -12.3186 O   0  0  0  0  0  0  0  0  0  0  0  0
   21.5807   -5.6999  -14.2376 N   0  0  0  0  0  0  0  0  0  0  0  0
   21.3451   -5.4306  -12.8621 C   0  0  0  0  0  0  0  0  0  0  0  0
   22.0281   -4.5468  -12.2765 O   0  0  0  0  0  0  0  0  0  0  0  0
   20.2859   -6.1979  -12.1122 C   0  0  0  0  0  0  0  0  0  0  0  0
   19.5972   -7.1412  -13.0530 C   0  0  0  0  0  0  0  0  0  0  0  0
   18.4806   -7.9375  -12.4286 C   0  0  2  0  0  0  0  0  0  0  0  0
   17.9348   -8.7537  -13.5254 N   0  0  0  0  0  0  0  0  0  0  0  0
   17.3845   -7.1371  -11.8885 C   0  0  0  0  0  0  0  0  0  0  0  0
   16.5850   -6.5612  -12.6676 O   0  0  0  0  0  0  0  0  0  0  0  0
   17.1690   -6.9707  -10.5056 N   0  0  0  0  0  0  0  0  0  0  0  0
   16.1107   -6.0978   -9.9947 C   0  0  1  0  0  0  0  0  0  0  0  0
   15.6626   -6.6505   -8.6662 C   0  0  0  0  0  0  0  0  0  0  0  0
   14.9383   -8.2890   -8.8597 S   0  0  0  0  0  0  0  0  0  0  0  0
   16.6611   -4.7253   -9.8515 C   0  0  0  0  0  0  0  0  0  0  0  0
   15.8675   -3.6595   -9.4613 O   0  0  0  0  0  0  0  0  0  0  0  0
   17.8660   -4.4894  -10.0805 O   0  0  0  0  0  0  0  0  0  0  0  0
  2  1  1  1
  3  2  1  0
  4  3  1  0
  5  4  1  0
  6  7  1  0
  6  5  1  0
  8  9  2  0
  8  2  1  0
 10 11  1  0
 11 12  2  0
 13 11  1  0
 13 14  1  0
 15 14  1  6
 15 16  1  0
 16  8  1  0
 17 15  1  0
 18 17  2  0
 19 17  1  0
 20 19  1  0
 21 22  1  0
 20 21  1  1
 23 20  1  0
 23 24  1  0
 25 23  2  0
M  END
$$$$
