KQC.pdb
     RDKit          3D

 25 24  0  0  1  0  0  0  0  0999 V2000
   23.0705  -16.2124  -16.7740 N   0  0  0  0  0  0  0  0  0  0  0  0
   23.2645  -15.1464  -15.8229 C   0  0  1  0  0  0  0  0  0  0  0  0
   24.6606  -15.0275  -15.2889 C   0  0  0  0  0  0  0  0  0  0  0  0
   25.3772  -16.3210  -15.1334 C   0  0  0  0  0  0  0  0  0  0  0  0
   26.4850  -16.5929  -16.0904 C   0  0  0  0  0  0  0  0  0  0  0  0
   27.1736  -17.9297  -15.7577 C   0  0  0  0  0  0  0  0  0  0  0  0
   28.3231  -18.0107  -16.6329 N   0  0  0  0  0  0  0  0  0  0  0  0
   22.8337  -13.8708  -16.4842 C   0  0  0  0  0  0  0  0  0  0  0  0
   22.9832  -13.7630  -17.7178 O   0  0  0  0  0  0  0  0  0  0  0  0
   18.3072  -13.5467  -15.5157 N   0  0  0  0  0  0  0  0  0  0  0  0
   18.5146  -13.4206  -16.9161 C   0  0  0  0  0  0  0  0  0  0  0  0
   17.8157  -14.1057  -17.7115 O   0  0  0  0  0  0  0  0  0  0  0  0
   19.5632  -12.4740  -17.4429 C   0  0  0  0  0  0  0  0  0  0  0  0
   20.2166  -11.7677  -16.2925 C   0  0  0  0  0  0  0  0  0  0  0  0
   21.7102  -11.6164  -16.4230 C   0  0  2  0  0  0  0  0  0  0  0  0
   22.2731  -12.8061  -15.7634 N   0  0  0  0  0  0  0  0  0  0  0  0
   22.2676  -10.4406  -15.7594 C   0  0  0  0  0  0  0  0  0  0  0  0
   21.9236  -10.1615  -14.5840 O   0  0  0  0  0  0  0  0  0  0  0  0
   23.1941   -9.5794  -16.3812 N   0  0  0  0  0  0  0  0  0  0  0  0
   23.7333   -8.4067  -15.6905 C   0  0  1  0  0  0  0  0  0  0  0  0
   24.9423   -7.9385  -16.4588 C   0  0  0  0  0  0  0  0  0  0  0  0
   26.2079   -9.2198  -16.5148 S   0  0  0  0  0  0  0  0  0  0  0  0
   22.6802   -7.3597  -15.6488 C   0  0  0  0  0  0  0  0  0  0  0  0
   22.5492   -6.5010  -14.5703 O   0  0  0  0  0  0  0  0  0  0  0  0
   21.8745   -7.2212  -16.5932 O   0  0  0  0  0  0  0  0  0  0  0  0
  2  1  1  6
  3  2  1  0
  4  3  1  0
  5  4  1  0
  6  7  1  0
  6  5  1  0
  8  9  2  0
  8  2  1  0
 10 11  1  0
 11 12  2  0
 13 11  1  0
 13 14  1  0
 15 14  1  1
 15 16  1  0
 16  8  1  0
 17 15  1  0
 18 17  2  0
 19 17  1  0
 20 19  1  0
 21 22  1  0
 20 21  1  6
 23 20  1  0
 23 24  1  0
 25 23  2  0
M  END
$$$$
