KQC.pdb
     RDKit          3D

 25 24  0  0  1  0  0  0  0  0999 V2000
   19.9486  -14.2672  -15.5273 N   0  0  0  0  0  0  0  0  0  0  0  0
   20.1845  -13.2353  -16.5062 C   0  0  1  0  0  0  0  0  0  0  0  0
   18.9823  -12.8506  -17.3155 C   0  0  0  0  0  0  0  0  0  0  0  0
   18.4451  -13.9337  -18.1811 C   0  0  0  0  0  0  0  0  0  0  0  0
   19.4400  -14.7425  -18.9381 C   0  0  0  0  0  0  0  0  0  0  0  0
   18.7303  -15.7343  -19.8784 C   0  0  0  0  0  0  0  0  0  0  0  0
   19.7833  -16.4665  -20.5483 N   0  0  0  0  0  0  0  0  0  0  0  0
   20.7440  -12.0476  -15.7806 C   0  0  0  0  0  0  0  0  0  0  0  0
   20.3225  -11.8019  -14.6326 O   0  0  0  0  0  0  0  0  0  0  0  0
   26.4213  -10.2930  -16.5093 N   0  0  0  0  0  0  0  0  0  0  0  0
   25.9412  -11.2245  -15.5491 C   0  0  0  0  0  0  0  0  0  0  0  0
   26.7468  -12.0310  -15.0098 O   0  0  0  0  0  0  0  0  0  0  0  0
   24.4794  -11.2450  -15.1809 C   0  0  0  0  0  0  0  0  0  0  0  0
   23.7716  -10.1341  -15.8981 C   0  0  0  0  0  0  0  0  0  0  0  0
   22.2906  -10.0644  -15.6289 C   0  0  2  0  0  0  0  0  0  0  0  0
   21.7177  -11.2133  -16.3492 N   0  0  0  0  0  0  0  0  0  0  0  0
   21.6328   -8.8597  -16.1285 C   0  0  0  0  0  0  0  0  0  0  0  0
   21.6004   -8.6285  -17.3627 O   0  0  0  0  0  0  0  0  0  0  0  0
   21.0165   -7.9178  -15.2801 N   0  0  0  0  0  0  0  0  0  0  0  0
   20.3433   -6.7320  -15.8129 C   0  0  1  0  0  0  0  0  0  0  0  0
   18.9066   -6.7788  -15.3597 C   0  0  0  0  0  0  0  0  0  0  0  0
   18.0854   -8.2623  -15.9689 S   0  0  0  0  0  0  0  0  0  0  0  0
   21.0353   -5.5246  -15.2928 C   0  0  0  0  0  0  0  0  0  0  0  0
   20.7055   -4.2520  -15.7282 O   0  0  0  0  0  0  0  0  0  0  0  0
   21.9429   -5.6218  -14.4403 O   0  0  0  0  0  0  0  0  0  0  0  0
  2  1  1  1
  3  2  1  0
  4  3  1  0
  5  4  1  0
  6  7  1  0
  6  5  1  0
  8  9  2  0
  8  2  1  0
 10 11  1  0
 11 12  2  0
 13 11  1  0
 13 14  1  0
 15 14  1  6
 15 16  1  0
 16  8  1  0
 17 15  1  0
 18 17  2  0
 19 17  1  0
 20 19  1  0
 21 22  1  0
 20 21  1  1
 23 20  1  0
 23 24  1  0
 25 23  2  0
M  END
$$$$
