KQC.pdb
     RDKit          3D

 25 24  0  0  1  0  0  0  0  0999 V2000
   26.7252  -12.5072  -19.9299 N   0  0  0  0  0  0  0  0  0  0  0  0
   25.3430  -12.3571  -19.5480 C   0  0  1  0  0  0  0  0  0  0  0  0
   24.7697  -13.5199  -18.7946 C   0  0  0  0  0  0  0  0  0  0  0  0
   24.6287  -14.7668  -19.5923 C   0  0  0  0  0  0  0  0  0  0  0  0
   23.9728  -15.9221  -18.9200 C   0  0  0  0  0  0  0  0  0  0  0  0
   23.8787  -17.1249  -19.8771 C   0  0  0  0  0  0  0  0  0  0  0  0
   23.2703  -18.1919  -19.1123 N   0  0  0  0  0  0  0  0  0  0  0  0
   25.2332  -11.0935  -18.7472 C   0  0  0  0  0  0  0  0  0  0  0  0
   26.1088  -10.8564  -17.8912 O   0  0  0  0  0  0  0  0  0  0  0  0
   22.3338   -6.4760  -20.3243 N   0  0  0  0  0  0  0  0  0  0  0  0
   23.0450   -5.7800  -19.3095 C   0  0  0  0  0  0  0  0  0  0  0  0
   22.7062   -4.6028  -19.0098 O   0  0  0  0  0  0  0  0  0  0  0  0
   24.1952   -6.4474  -18.5991 C   0  0  0  0  0  0  0  0  0  0  0  0
   24.3770   -7.8332  -19.1429 C   0  0  0  0  0  0  0  0  0  0  0  0
   24.0808   -8.9325  -18.1555 C   0  0  2  0  0  0  0  0  0  0  0  0
   24.1851  -10.1796  -18.9308 N   0  0  0  0  0  0  0  0  0  0  0  0
   22.7425   -8.8881  -17.5720 C   0  0  0  0  0  0  0  0  0  0  0  0
   21.7420   -9.1782  -18.2739 O   0  0  0  0  0  0  0  0  0  0  0  0
   22.5055   -8.5281  -16.2300 N   0  0  0  0  0  0  0  0  0  0  0  0
   21.1470   -8.3917  -15.7018 C   0  0  1  0  0  0  0  0  0  0  0  0
   21.0017   -9.3605  -14.5565 C   0  0  0  0  0  0  0  0  0  0  0  0
   19.4653   -9.0744  -13.6598 S   0  0  0  0  0  0  0  0  0  0  0  0
   20.9559   -6.9891  -15.2512 C   0  0  0  0  0  0  0  0  0  0  0  0
   19.7235   -6.3617  -15.3257 O   0  0  0  0  0  0  0  0  0  0  0  0
   21.9088   -6.3279  -14.7877 O   0  0  0  0  0  0  0  0  0  0  0  0
  2  1  1  1
  3  2  1  0
  4  3  1  0
  5  4  1  0
  6  7  1  0
  6  5  1  0
  8  9  2  0
  8  2  1  0
 10 11  1  0
 11 12  2  0
 13 11  1  0
 13 14  1  0
 15 14  1  6
 15 16  1  0
 16  8  1  0
 17 15  1  0
 18 17  2  0
 19 17  1  0
 20 19  1  0
 21 22  1  0
 20 21  1  1
 23 20  1  0
 23 24  1  0
 25 23  2  0
M  END
$$$$
