KQC.pdb
     RDKit          3D

 25 24  0  0  1  0  0  0  0  0999 V2000
   27.8191  -23.2707  -17.0120 N   0  0  0  0  0  0  0  0  0  0  0  0
   27.8216  -22.1419  -16.1150 C   0  0  1  0  0  0  0  0  0  0  0  0
   27.8040  -20.8032  -16.7900 C   0  0  0  0  0  0  0  0  0  0  0  0
   27.4180  -20.8376  -18.2256 C   0  0  0  0  0  0  0  0  0  0  0  0
   27.5872  -19.5746  -18.9957 C   0  0  0  0  0  0  0  0  0  0  0  0
   27.1563  -19.7708  -20.4611 C   0  0  0  0  0  0  0  0  0  0  0  0
   27.3653  -18.4939  -21.1089 N   0  0  0  0  0  0  0  0  0  0  0  0
   26.6446  -22.2948  -15.1978 C   0  0  0  0  0  0  0  0  0  0  0  0
   25.6660  -22.9584  -15.5950 O   0  0  0  0  0  0  0  0  0  0  0  0
   26.1394  -19.6477   -9.8678 N   0  0  0  0  0  0  0  0  0  0  0  0
   25.1438  -20.6296   -9.6135 C   0  0  0  0  0  0  0  0  0  0  0  0
   24.3903  -20.5043   -8.6099 O   0  0  0  0  0  0  0  0  0  0  0  0
   24.9928  -21.8103  -10.5386 C   0  0  0  0  0  0  0  0  0  0  0  0
   26.0150  -21.7177  -11.6320 C   0  0  0  0  0  0  0  0  0  0  0  0
   25.4516  -21.8520  -13.0232 C   0  0  2  0  0  0  0  0  0  0  0  0
   26.6121  -21.7191  -13.9191 N   0  0  0  0  0  0  0  0  0  0  0  0
   24.4875  -20.8200  -13.3964 C   0  0  0  0  0  0  0  0  0  0  0  0
   24.8886  -19.6751  -13.7221 O   0  0  0  0  0  0  0  0  0  0  0  0
   23.0960  -21.0436  -13.4114 N   0  0  0  0  0  0  0  0  0  0  0  0
   22.1724  -20.0847  -14.0201 C   0  0  1  0  0  0  0  0  0  0  0  0
   22.4006  -20.1116  -15.5096 C   0  0  0  0  0  0  0  0  0  0  0  0
   21.1807  -19.1008  -16.3680 S   0  0  0  0  0  0  0  0  0  0  0  0
   20.7837  -20.4870  -13.6785 C   0  0  0  0  0  0  0  0  0  0  0  0
   19.7597  -19.5596  -13.5820 O   0  0  0  0  0  0  0  0  0  0  0  0
   20.4954  -21.6836  -13.4663 O   0  0  0  0  0  0  0  0  0  0  0  0
  2  1  1  6
  3  2  1  0
  4  3  1  0
  5  4  1  0
  6  7  1  0
  6  5  1  0
  8  9  2  0
  8  2  1  0
 10 11  1  0
 11 12  2  0
 13 11  1  0
 13 14  1  0
 15 14  1  1
 15 16  1  0
 16  8  1  0
 17 15  1  0
 18 17  2  0
 19 17  1  0
 20 19  1  0
 21 22  1  0
 20 21  1  6
 23 20  1  0
 23 24  1  0
 25 23  2  0
M  END
$$$$
