KQC.pdb
     RDKit          3D

 25 24  0  0  1  0  0  0  0  0999 V2000
   16.5646  -14.7487  -17.6022 N   0  0  0  0  0  0  0  0  0  0  0  0
   17.2126  -14.1385  -16.4680 C   0  0  1  0  0  0  0  0  0  0  0  0
   18.4596  -14.8328  -16.0085 C   0  0  0  0  0  0  0  0  0  0  0  0
   18.2505  -16.2187  -15.5119 C   0  0  0  0  0  0  0  0  0  0  0  0
   19.4591  -16.9536  -15.0468 C   0  0  0  0  0  0  0  0  0  0  0  0
   19.0937  -18.3907  -14.6309 C   0  0  0  0  0  0  0  0  0  0  0  0
   19.8708  -18.6678  -13.4422 N   0  0  0  0  0  0  0  0  0  0  0  0
   17.4965  -12.7103  -16.8279 C   0  0  0  0  0  0  0  0  0  0  0  0
   17.9918  -12.4683  -17.9468 O   0  0  0  0  0  0  0  0  0  0  0  0
   13.4346  -10.0651  -15.6770 N   0  0  0  0  0  0  0  0  0  0  0  0
   13.7895   -9.9644  -17.0496 C   0  0  0  0  0  0  0  0  0  0  0  0
   12.8987  -10.0961  -17.9325 O   0  0  0  0  0  0  0  0  0  0  0  0
   15.2211   -9.7021  -17.4430 C   0  0  0  0  0  0  0  0  0  0  0  0
   16.0652   -9.6049  -16.2071 C   0  0  0  0  0  0  0  0  0  0  0  0
   17.4256  -10.2411  -16.3316 C   0  0  2  0  0  0  0  0  0  0  0  0
   17.2241  -11.6491  -15.9520 N   0  0  0  0  0  0  0  0  0  0  0  0
   18.4447   -9.6877  -15.4435 C   0  0  0  0  0  0  0  0  0  0  0  0
   18.4520   -9.9983  -14.2264 O   0  0  0  0  0  0  0  0  0  0  0  0
   19.4462   -8.8013  -15.8882 N   0  0  0  0  0  0  0  0  0  0  0  0
   20.3928   -8.1851  -14.9568 C   0  0  1  0  0  0  0  0  0  0  0  0
   21.7566   -8.7589  -15.2435 C   0  0  0  0  0  0  0  0  0  0  0  0
   23.0245   -7.9279  -14.2697 S   0  0  0  0  0  0  0  0  0  0  0  0
   20.3698   -6.7146  -15.1666 C   0  0  0  0  0  0  0  0  0  0  0  0
   20.6247   -5.8276  -14.1341 O   0  0  0  0  0  0  0  0  0  0  0  0
   20.1179   -6.2300  -16.2899 O   0  0  0  0  0  0  0  0  0  0  0  0
  2  1  1  6
  3  2  1  0
  4  3  1  0
  5  4  1  0
  6  7  1  0
  6  5  1  0
  8  9  2  0
  8  2  1  0
 10 11  1  0
 11 12  2  0
 13 11  1  0
 13 14  1  0
 15 14  1  1
 15 16  1  0
 16  8  1  0
 17 15  1  0
 18 17  2  0
 19 17  1  0
 20 19  1  0
 21 22  1  0
 20 21  1  6
 23 20  1  0
 23 24  1  0
 25 23  2  0
M  END
$$$$
