KQC.pdb
     RDKit          3D

 25 24  0  0  1  0  0  0  0  0999 V2000
   27.3414  -23.5290  -16.1362 N   0  0  0  0  0  0  0  0  0  0  0  0
   26.5214  -22.3464  -16.0472 C   0  0  1  0  0  0  0  0  0  0  0  0
   26.0754  -21.7906  -17.3665 C   0  0  0  0  0  0  0  0  0  0  0  0
   27.1575  -21.1695  -18.1754 C   0  0  0  0  0  0  0  0  0  0  0  0
   28.3918  -21.9775  -18.3769 C   0  0  0  0  0  0  0  0  0  0  0  0
   29.3928  -21.2248  -19.2731 C   0  0  0  0  0  0  0  0  0  0  0  0
   30.5860  -22.0427  -19.3065 N   0  0  0  0  0  0  0  0  0  0  0  0
   25.3433  -22.6812  -15.1813 C   0  0  0  0  0  0  0  0  0  0  0  0
   24.8899  -23.8425  -15.2204 O   0  0  0  0  0  0  0  0  0  0  0  0
   24.6225  -20.3625   -9.6707 N   0  0  0  0  0  0  0  0  0  0  0  0
   25.5973  -21.2406  -10.2171 C   0  0  0  0  0  0  0  0  0  0  0  0
   26.6686  -21.4494   -9.5854 O   0  0  0  0  0  0  0  0  0  0  0  0
   25.3487  -21.9155  -11.5421 C   0  0  0  0  0  0  0  0  0  0  0  0
   24.0377  -21.4466  -12.0994 C   0  0  0  0  0  0  0  0  0  0  0  0
   23.6542  -22.0859  -13.4090 C   0  0  2  0  0  0  0  0  0  0  0  0
   24.7421  -21.7360  -14.3370 N   0  0  0  0  0  0  0  0  0  0  0  0
   22.4067  -21.5950  -13.9888 C   0  0  0  0  0  0  0  0  0  0  0  0
   22.3753  -20.4725  -14.5516 O   0  0  0  0  0  0  0  0  0  0  0  0
   21.2048  -22.3303  -13.9505 N   0  0  0  0  0  0  0  0  0  0  0  0
   20.0047  -21.8740  -14.6538 C   0  0  1  0  0  0  0  0  0  0  0  0
   19.3792  -23.0737  -15.3179 C   0  0  0  0  0  0  0  0  0  0  0  0
   20.5666  -23.9167  -16.3789 S   0  0  0  0  0  0  0  0  0  0  0  0
   19.0824  -21.2624  -13.6627 C   0  0  0  0  0  0  0  0  0  0  0  0
   17.9332  -20.5949  -14.0524 O   0  0  0  0  0  0  0  0  0  0  0  0
   19.3175  -21.3323  -12.4381 O   0  0  0  0  0  0  0  0  0  0  0  0
  2  1  1  6
  3  2  1  0
  4  3  1  0
  5  4  1  0
  6  7  1  0
  6  5  1  0
  8  9  2  0
  8  2  1  0
 10 11  1  0
 11 12  2  0
 13 11  1  0
 13 14  1  0
 15 14  1  1
 15 16  1  0
 16  8  1  0
 17 15  1  0
 18 17  2  0
 19 17  1  0
 20 19  1  0
 21 22  1  0
 20 21  1  1
 23 20  1  0
 23 24  1  0
 25 23  2  0
M  END
$$$$
