KQC.pdb
     RDKit          3D

 25 24  0  0  1  0  0  0  0  0999 V2000
   19.3944  -25.1009  -13.3925 N   0  0  0  0  0  0  0  0  0  0  0  0
   18.3668  -24.0923  -13.4669 C   0  0  1  0  0  0  0  0  0  0  0  0
   17.5856  -23.8970  -12.2021 C   0  0  0  0  0  0  0  0  0  0  0  0
   16.9094  -25.1207  -11.6958 C   0  0  0  0  0  0  0  0  0  0  0  0
   15.6959  -25.5696  -12.4326 C   0  0  0  0  0  0  0  0  0  0  0  0
   15.0373  -26.7636  -11.7169 C   0  0  0  0  0  0  0  0  0  0  0  0
   13.9232  -27.1590  -12.5513 N   0  0  0  0  0  0  0  0  0  0  0  0
   19.0236  -22.8130  -13.8936 C   0  0  0  0  0  0  0  0  0  0  0  0
   18.3428  -21.7678  -13.8911 O   0  0  0  0  0  0  0  0  0  0  0  0
   25.1739  -21.7974  -13.9944 N   0  0  0  0  0  0  0  0  0  0  0  0
   24.6468  -22.7002  -14.9573 C   0  0  0  0  0  0  0  0  0  0  0  0
   25.4186  -23.5153  -15.5320 O   0  0  0  0  0  0  0  0  0  0  0  0
   23.1757  -22.6804  -15.2863 C   0  0  0  0  0  0  0  0  0  0  0  0
   22.4797  -21.7013  -14.3884 C   0  0  0  0  0  0  0  0  0  0  0  0
   21.0187  -21.5021  -14.6993 C   0  0  2  0  0  0  0  0  0  0  0  0
   20.3675  -22.7578  -14.2915 N   0  0  0  0  0  0  0  0  0  0  0  0
   20.7162  -21.2886  -16.1123 C   0  0  0  0  0  0  0  0  0  0  0  0
   20.5917  -22.2726  -16.8830 O   0  0  0  0  0  0  0  0  0  0  0  0
   20.5522  -20.0060  -16.6734 N   0  0  0  0  0  0  0  0  0  0  0  0
   20.2062  -19.8256  -18.0843 C   0  0  1  0  0  0  0  0  0  0  0  0
   19.1164  -18.7872  -18.1593 C   0  0  0  0  0  0  0  0  0  0  0  0
   18.7351  -18.3737  -19.8711 S   0  0  0  0  0  0  0  0  0  0  0  0
   21.4229  -19.3862  -18.8148 C   0  0  0  0  0  0  0  0  0  0  0  0
   21.7425  -19.8879  -20.0654 O   0  0  0  0  0  0  0  0  0  0  0  0
   22.2007  -18.5441  -18.3188 O   0  0  0  0  0  0  0  0  0  0  0  0
  2  1  1  1
  3  2  1  0
  4  3  1  0
  5  4  1  0
  6  7  1  0
  6  5  1  0
  8  9  2  0
  8  2  1  0
 10 11  1  0
 11 12  2  0
 13 11  1  0
 13 14  1  0
 15 14  1  6
 15 16  1  0
 16  8  1  0
 17 15  1  0
 18 17  2  0
 19 17  1  0
 20 19  1  0
 21 22  1  0
 20 21  1  1
 23 20  1  0
 23 24  1  0
 25 23  2  0
M  END
$$$$
