KQC.pdb
     RDKit          3D

 25 24  0  0  1  0  0  0  0  0999 V2000
   19.5693  -20.4076  -13.3570 N   0  0  0  0  0  0  0  0  0  0  0  0
   20.3258  -21.1645  -12.3909 C   0  0  1  0  0  0  0  0  0  0  0  0
   19.8281  -22.5594  -12.1566 C   0  0  0  0  0  0  0  0  0  0  0  0
   18.3843  -22.6532  -11.8137 C   0  0  0  0  0  0  0  0  0  0  0  0
   18.0513  -23.0244  -10.4107 C   0  0  0  0  0  0  0  0  0  0  0  0
   17.1309  -24.2587  -10.3799 C   0  0  0  0  0  0  0  0  0  0  0  0
   16.8691  -24.5217   -8.9814 N   0  0  0  0  0  0  0  0  0  0  0  0
   21.7544  -21.1753  -12.8481 C   0  0  0  0  0  0  0  0  0  0  0  0
   22.6127  -21.6830  -12.0988 O   0  0  0  0  0  0  0  0  0  0  0  0
   25.9609  -22.7559  -14.9450 N   0  0  0  0  0  0  0  0  0  0  0  0
   24.8314  -23.6175  -14.9023 C   0  0  0  0  0  0  0  0  0  0  0  0
   24.9860  -24.8286  -14.5862 O   0  0  0  0  0  0  0  0  0  0  0  0
   23.4607  -23.0840  -15.2330 C   0  0  0  0  0  0  0  0  0  0  0  0
   23.5769  -21.6534  -15.6679 C   0  0  0  0  0  0  0  0  0  0  0  0
   23.5491  -20.6560  -14.5386 C   0  0  2  0  0  0  0  0  0  0  0  0
   22.1499  -20.6367  -14.0814 N   0  0  0  0  0  0  0  0  0  0  0  0
   23.9069  -19.2913  -14.9170 C   0  0  0  0  0  0  0  0  0  0  0  0
   23.0068  -18.4623  -15.2005 O   0  0  0  0  0  0  0  0  0  0  0  0
   25.2411  -18.8417  -14.9836 N   0  0  0  0  0  0  0  0  0  0  0  0
   25.5678  -17.4658  -15.3621 C   0  0  1  0  0  0  0  0  0  0  0  0
   26.6698  -16.9896  -14.4509 C   0  0  0  0  0  0  0  0  0  0  0  0
   27.2032  -15.3273  -14.8966 S   0  0  0  0  0  0  0  0  0  0  0  0
   26.0006  -17.4589  -16.7833 C   0  0  0  0  0  0  0  0  0  0  0  0
   25.8779  -16.3303  -17.5765 O   0  0  0  0  0  0  0  0  0  0  0  0
   26.4923  -18.4791  -17.3099 O   0  0  0  0  0  0  0  0  0  0  0  0
  2  1  1  6
  3  2  1  0
  4  3  1  0
  5  4  1  0
  6  7  1  0
  6  5  1  0
  8  9  2  0
  8  2  1  0
 10 11  1  0
 11 12  2  0
 13 11  1  0
 13 14  1  0
 15 14  1  6
 15 16  1  0
 16  8  1  0
 17 15  1  0
 18 17  2  0
 19 17  1  0
 20 19  1  0
 21 22  1  0
 20 21  1  1
 23 20  1  0
 23 24  1  0
 25 23  2  0
M  END
$$$$
