KQC.pdb
     RDKit          3D

 25 24  0  0  1  0  0  0  0  0999 V2000
   27.3597  -22.7083  -15.6356 N   0  0  0  0  0  0  0  0  0  0  0  0
   26.0444  -23.0520  -16.1158 C   0  0  1  0  0  0  0  0  0  0  0  0
   25.7884  -24.5235  -16.2473 C   0  0  0  0  0  0  0  0  0  0  0  0
   26.6387  -25.2134  -17.2533 C   0  0  0  0  0  0  0  0  0  0  0  0
   27.9441  -25.7467  -16.7752 C   0  0  0  0  0  0  0  0  0  0  0  0
   28.7494  -26.3401  -17.9461 C   0  0  0  0  0  0  0  0  0  0  0  0
   30.0008  -26.7912  -17.3766 N   0  0  0  0  0  0  0  0  0  0  0  0
   25.0487  -22.4156  -15.1920 C   0  0  0  0  0  0  0  0  0  0  0  0
   25.3475  -22.3014  -13.9863 O   0  0  0  0  0  0  0  0  0  0  0  0
   22.2060  -17.5227  -16.6157 N   0  0  0  0  0  0  0  0  0  0  0  0
   21.4850  -17.7459  -15.4114 C   0  0  0  0  0  0  0  0  0  0  0  0
   20.7342  -16.8387  -14.9600 O   0  0  0  0  0  0  0  0  0  0  0  0
   21.6194  -19.0586  -14.6821 C   0  0  0  0  0  0  0  0  0  0  0  0
   22.6501  -19.9043  -15.3689 C   0  0  0  0  0  0  0  0  0  0  0  0
   22.8520  -21.2634  -14.7501 C   0  0  2  0  0  0  0  0  0  0  0  0
   23.8037  -21.9496  -15.6394 N   0  0  0  0  0  0  0  0  0  0  0  0
   21.6484  -22.0874  -14.6743 C   0  0  0  0  0  0  0  0  0  0  0  0
   21.1417  -22.5561  -15.7239 O   0  0  0  0  0  0  0  0  0  0  0  0
   21.0072  -22.3935  -13.4570 N   0  0  0  0  0  0  0  0  0  0  0  0
   19.7948  -23.2130  -13.4146 C   0  0  1  0  0  0  0  0  0  0  0  0
   19.9701  -24.2336  -12.3196 C   0  0  0  0  0  0  0  0  0  0  0  0
   18.4785  -25.2234  -12.1146 S   0  0  0  0  0  0  0  0  0  0  0  0
   18.6354  -22.3242  -13.1448 C   0  0  0  0  0  0  0  0  0  0  0  0
   17.3464  -22.6787  -13.5065 O   0  0  0  0  0  0  0  0  0  0  0  0
   18.7894  -21.2214  -12.5790 O   0  0  0  0  0  0  0  0  0  0  0  0
  2  1  1  1
  3  2  1  0
  4  3  1  0
  5  4  1  0
  6  7  1  0
  6  5  1  0
  8  9  2  0
  8  2  1  0
 10 11  1  0
 11 12  2  0
 13 11  1  0
 13 14  1  0
 15 14  1  6
 15 16  1  0
 16  8  1  0
 17 15  1  0
 18 17  2  0
 19 17  1  0
 20 19  1  0
 21 22  1  0
 20 21  1  1
 23 20  1  0
 23 24  1  0
 25 23  2  0
M  END
$$$$
