MAP.pdb
     RDKit          3D

 21 21  0  0  1  0  0  0  0  0999 V2000
   24.8934  -22.2250  -20.9632 C   0  0  0  0  0  0  0  0  0  0  0  0
   25.0311  -21.6361  -19.2915 S   0  0  0  0  0  0  0  0  0  0  0  0
   25.4401  -22.8106  -18.0431 C   0  0  0  0  0  0  0  0  0  0  0  0
   24.3594  -23.5125  -17.3003 C   0  0  0  0  0  0  0  0  0  0  0  0
   23.5856  -24.5099  -18.0672 C   0  0  2  0  0  0  0  0  0  0  0  0
   22.1870  -24.4277  -17.7274 N   0  0  0  0  0  0  0  0  0  0  0  0
   24.0281  -25.9144  -17.7777 C   0  0  0  0  0  0  0  0  0  0  0  0
   23.8732  -26.3703  -16.6248 O   0  0  0  0  0  0  0  0  0  0  0  0
   24.6600  -28.9177  -19.7545 C   0  0  0  0  0  0  0  0  0  0  0  0
   25.0234  -28.1117  -18.5079 C   0  0  2  0  0  0  0  0  0  0  0  0
   24.6147  -26.7519  -18.7495 N   0  0  0  0  0  0  0  0  0  0  0  0
   26.4928  -28.2276  -18.3375 C   0  0  0  0  0  0  0  0  0  0  0  0
   27.2080  -27.3429  -18.8617 O   0  0  0  0  0  0  0  0  0  0  0  0
   27.0468  -29.3035  -17.6073 N   0  0  0  0  0  0  0  0  0  0  0  0
   26.2925  -30.3256  -16.8979 C   0  0  0  0  0  0  0  0  0  0  0  0
   27.3006  -31.0121  -15.9901 C   0  0  0  0  0  0  0  0  0  0  0  0
   28.5396  -30.9570  -16.8474 C   0  0  0  0  0  0  0  0  0  0  0  0
   28.4512  -29.5673  -17.4425 C   0  0  1  0  0  0  0  0  0  0  0  0
   29.1848  -29.5953  -18.7259 C   0  0  0  0  0  0  0  0  0  0  0  0
   28.5171  -29.6096  -19.7861 O   0  0  0  0  0  0  0  0  0  0  0  0
   30.5638  -29.6066  -18.8220 O   0  0  0  0  0  0  0  0  0  0  0  0
  2  1  1  0
  3  2  1  0
  4  5  1  0
  4  3  1  0
  5  6  1  1
  7  5  1  0
  8  7  2  0
 10  9  1  6
 10 12  1  0
 10 11  1  0
 11  7  1  0
 12 14  1  0
 13 12  2  0
 14 18  1  0
 14 15  1  0
 15 16  1  0
 17 16  1  0
 18 17  1  0
 19 21  1  0
 18 19  1  6
 20 19  2  0
M  END
$$$$
