MAP.pdb
     RDKit          3D

 21 21  0  0  1  0  0  0  0  0999 V2000
   17.7206  -24.3533  -13.9127 C   0  0  0  0  0  0  0  0  0  0  0  0
   18.9033  -23.0426  -13.7034 S   0  0  0  0  0  0  0  0  0  0  0  0
   20.2299  -22.9475  -14.8593 C   0  0  0  0  0  0  0  0  0  0  0  0
   21.2081  -21.8300  -14.7779 C   0  0  0  0  0  0  0  0  0  0  0  0
   21.5135  -21.3313  -13.4215 C   0  0  2  0  0  0  0  0  0  0  0  0
   20.5600  -20.3224  -13.0324 N   0  0  0  0  0  0  0  0  0  0  0  0
   22.8752  -20.7055  -13.3416 C   0  0  0  0  0  0  0  0  0  0  0  0
   23.0337  -19.5471  -13.7821 O   0  0  0  0  0  0  0  0  0  0  0  0
   26.1897  -21.7282  -11.9248 C   0  0  0  0  0  0  0  0  0  0  0  0
   25.3451  -20.8731  -12.8689 C   0  0  2  0  0  0  0  0  0  0  0  0
   23.9937  -21.3648  -12.7898 N   0  0  0  0  0  0  0  0  0  0  0  0
   25.9187  -21.0424  -14.2268 C   0  0  0  0  0  0  0  0  0  0  0  0
   25.6523  -22.1018  -14.8399 O   0  0  0  0  0  0  0  0  0  0  0  0
   26.7332  -20.0347  -14.7914 N   0  0  0  0  0  0  0  0  0  0  0  0
   26.9482  -18.7069  -14.2365 C   0  0  0  0  0  0  0  0  0  0  0  0
   27.5728  -17.8971  -15.3615 C   0  0  0  0  0  0  0  0  0  0  0  0
   28.4075  -18.9521  -16.0424 C   0  0  0  0  0  0  0  0  0  0  0  0
   27.4861  -20.1534  -16.0113 C   0  0  1  0  0  0  0  0  0  0  0  0
   28.3410  -21.3593  -16.0435 C   0  0  0  0  0  0  0  0  0  0  0  0
   28.5427  -21.9677  -14.9668 O   0  0  0  0  0  0  0  0  0  0  0  0
   28.9296  -21.8527  -17.1930 O   0  0  0  0  0  0  0  0  0  0  0  0
  2  1  1  0
  3  2  1  0
  4  5  1  0
  4  3  1  0
  5  6  1  6
  7  5  1  0
  8  7  2  0
 10  9  1  1
 10 12  1  0
 10 11  1  0
 11  7  1  0
 12 14  1  0
 13 12  2  0
 14 18  1  0
 14 15  1  0
 15 16  1  0
 17 16  1  0
 18 17  1  0
 19 21  1  0
 18 19  1  1
 20 19  2  0
M  END
$$$$
