MAP.pdb
     RDKit          3D

 21 21  0  0  1  0  0  0  0  0999 V2000
   20.4869  -23.3533    5.2480 C   0  0  0  0  0  0  0  0  0  0  0  0
   19.7517  -24.5713    4.1820 S   0  0  0  0  0  0  0  0  0  0  0  0
   18.3749  -24.0736    3.2011 C   0  0  0  0  0  0  0  0  0  0  0  0
   17.0486  -23.8556    3.8380 C   0  0  0  0  0  0  0  0  0  0  0  0
   15.9592  -23.4236    2.9391 C   0  0  2  0  0  0  0  0  0  0  0  0
   16.0280  -24.1387    1.6892 N   0  0  0  0  0  0  0  0  0  0  0  0
   16.0390  -21.9604    2.6151 C   0  0  0  0  0  0  0  0  0  0  0  0
   16.8826  -21.5726    1.7791 O   0  0  0  0  0  0  0  0  0  0  0  0
   13.8892  -19.0020    3.3174 C   0  0  0  0  0  0  0  0  0  0  0  0
   15.2378  -19.5879    2.9001 C   0  0  2  0  0  0  0  0  0  0  0  0
   15.2028  -20.9936    3.2119 N   0  0  0  0  0  0  0  0  0  0  0  0
   16.2752  -18.8715    3.6826 C   0  0  0  0  0  0  0  0  0  0  0  0
   16.6433  -19.3862    4.7637 O   0  0  0  0  0  0  0  0  0  0  0  0
   16.8166  -17.6547    3.2095 N   0  0  0  0  0  0  0  0  0  0  0  0
   16.5680  -17.0663    1.9022 C   0  0  0  0  0  0  0  0  0  0  0  0
   17.6340  -15.9954    1.7338 C   0  0  0  0  0  0  0  0  0  0  0  0
   17.7702  -15.5035    3.1525 C   0  0  0  0  0  0  0  0  0  0  0  0
   17.7060  -16.7939    3.9424 C   0  0  1  0  0  0  0  0  0  0  0  0
   17.1979  -16.4557    5.2891 C   0  0  0  0  0  0  0  0  0  0  0  0
   15.9696  -16.5797    5.5038 O   0  0  0  0  0  0  0  0  0  0  0  0
   18.0004  -16.0111    6.3232 O   0  0  0  0  0  0  0  0  0  0  0  0
  2  1  1  0
  3  2  1  0
  4  5  1  0
  4  3  1  0
  5  6  1  6
  7  5  1  0
  8  7  2  0
 10  9  1  1
 10 12  1  0
 10 11  1  0
 11  7  1  0
 12 14  1  0
 13 12  2  0
 14 18  1  0
 14 15  1  0
 15 16  1  0
 17 16  1  0
 18 17  1  0
 19 21  1  0
 18 19  1  1
 20 19  2  0
M  END
$$$$
