MAP.pdb
     RDKit          3D

 21 21  0  0  1  0  0  0  0  0999 V2000
   23.7301  -25.1231  -20.0824 C   0  0  0  0  0  0  0  0  0  0  0  0
   22.5288  -23.9839  -20.7300 S   0  0  0  0  0  0  0  0  0  0  0  0
   22.8309  -22.2626  -20.5042 C   0  0  0  0  0  0  0  0  0  0  0  0
   23.7211  -21.8021  -19.4051 C   0  0  0  0  0  0  0  0  0  0  0  0
   23.9129  -20.3419  -19.2928 C   0  0  2  0  0  0  0  0  0  0  0  0
   24.6349  -19.8422  -20.4363 N   0  0  0  0  0  0  0  0  0  0  0  0
   24.7035  -19.9667  -18.0737 C   0  0  0  0  0  0  0  0  0  0  0  0
   25.9461  -20.0947  -18.0972 O   0  0  0  0  0  0  0  0  0  0  0  0
   24.1699  -17.9183  -15.0817 C   0  0  0  0  0  0  0  0  0  0  0  0
   24.8370  -19.1499  -15.6931 C   0  0  2  0  0  0  0  0  0  0  0  0
   24.1093  -19.4731  -16.8932 N   0  0  0  0  0  0  0  0  0  0  0  0
   24.7466  -20.2313  -14.6811 C   0  0  0  0  0  0  0  0  0  0  0  0
   23.6788  -20.8836  -14.6246 O   0  0  0  0  0  0  0  0  0  0  0  0
   25.8356  -20.5010  -13.8213 N   0  0  0  0  0  0  0  0  0  0  0  0
   27.1417  -19.8625  -13.8799 C   0  0  0  0  0  0  0  0  0  0  0  0
   28.0521  -20.7301  -13.0254 C   0  0  0  0  0  0  0  0  0  0  0  0
   27.0938  -21.1757  -11.9501 C   0  0  0  0  0  0  0  0  0  0  0  0
   25.8346  -21.4538  -12.7439 C   0  0  1  0  0  0  0  0  0  0  0  0
   24.6912  -21.2783  -11.8230 C   0  0  0  0  0  0  0  0  0  0  0  0
   24.4247  -22.2111  -11.0300 O   0  0  0  0  0  0  0  0  0  0  0  0
   23.9009  -20.1446  -11.7875 O   0  0  0  0  0  0  0  0  0  0  0  0
  2  1  1  0
  3  2  1  0
  4  5  1  0
  4  3  1  0
  5  6  1  6
  7  5  1  0
  8  7  2  0
 10  9  1  1
 10 12  1  0
 10 11  1  0
 11  7  1  0
 12 14  1  0
 13 12  2  0
 14 18  1  0
 14 15  1  0
 15 16  1  0
 17 16  1  0
 18 17  1  0
 19 21  1  0
 18 19  1  1
 20 19  2  0
M  END
$$$$
