MAP.pdb
     RDKit          3D

 21 21  0  0  1  0  0  0  0  0999 V2000
   29.2339  -21.2021   -8.6090 C   0  0  0  0  0  0  0  0  0  0  0  0
   30.0872  -21.7999  -10.0494 S   0  0  0  0  0  0  0  0  0  0  0  0
   29.3761  -21.4507  -11.6234 C   0  0  0  0  0  0  0  0  0  0  0  0
   28.0246  -20.8354  -11.7085 C   0  0  0  0  0  0  0  0  0  0  0  0
   27.5091  -20.5850  -13.0698 C   0  0  2  0  0  0  0  0  0  0  0  0
   28.3724  -19.6682  -13.7715 N   0  0  0  0  0  0  0  0  0  0  0  0
   26.1382  -19.9746  -13.0528 C   0  0  0  0  0  0  0  0  0  0  0  0
   25.9764  -18.8701  -12.4918 O   0  0  0  0  0  0  0  0  0  0  0  0
   23.3609  -19.5936  -15.0484 C   0  0  0  0  0  0  0  0  0  0  0  0
   23.6839  -20.0393  -13.6226 C   0  0  2  0  0  0  0  0  0  0  0  0
   25.0145  -20.5903  -13.6430 N   0  0  0  0  0  0  0  0  0  0  0  0
   22.6681  -21.0554  -13.2522 C   0  0  0  0  0  0  0  0  0  0  0  0
   22.7935  -22.2032  -13.7379 O   0  0  0  0  0  0  0  0  0  0  0  0
   21.6053  -20.7222  -12.3821 N   0  0  0  0  0  0  0  0  0  0  0  0
   21.4184  -19.4384  -11.7233 C   0  0  0  0  0  0  0  0  0  0  0  0
   20.3837  -19.6901  -10.6380 C   0  0  0  0  0  0  0  0  0  0  0  0
   19.5095  -20.7177  -11.3109 C   0  0  0  0  0  0  0  0  0  0  0  0
   20.5300  -21.5982  -12.0013 C   0  0  1  0  0  0  0  0  0  0  0  0
   19.8562  -22.2187  -13.1619 C   0  0  0  0  0  0  0  0  0  0  0  0
   19.9673  -21.6579  -14.2769 O   0  0  0  0  0  0  0  0  0  0  0  0
   19.1116  -23.3810  -13.0864 O   0  0  0  0  0  0  0  0  0  0  0  0
  2  1  1  0
  3  2  1  0
  4  5  1  0
  4  3  1  0
  5  6  1  1
  7  5  1  0
  8  7  2  0
 10  9  1  6
 10 12  1  0
 10 11  1  0
 11  7  1  0
 12 14  1  0
 13 12  2  0
 14 18  1  0
 14 15  1  0
 15 16  1  0
 17 16  1  0
 18 17  1  0
 19 21  1  0
 18 19  1  6
 20 19  2  0
M  END
$$$$
