MAP.pdb
     RDKit          3D

 21 21  0  0  1  0  0  0  0  0999 V2000
   16.5303  -16.2238  -16.0551 C   0  0  0  0  0  0  0  0  0  0  0  0
   17.7058  -14.9725  -15.5934 S   0  0  0  0  0  0  0  0  0  0  0  0
   18.8008  -14.3809  -16.8408 C   0  0  0  0  0  0  0  0  0  0  0  0
   19.8197  -13.3498  -16.5074 C   0  0  0  0  0  0  0  0  0  0  0  0
   20.6430  -12.8620  -17.6326 C   0  0  2  0  0  0  0  0  0  0  0  0
   21.6653  -13.8246  -17.9593 N   0  0  0  0  0  0  0  0  0  0  0  0
   21.3388  -11.5726  -17.3078 C   0  0  0  0  0  0  0  0  0  0  0  0
   22.4499  -11.6134  -16.7380 O   0  0  0  0  0  0  0  0  0  0  0  0
   21.4873   -8.2732  -18.6597 C   0  0  0  0  0  0  0  0  0  0  0  0
   21.4563   -9.0553  -17.3470 C   0  0  2  0  0  0  0  0  0  0  0  0
   20.7968  -10.3071  -17.6161 N   0  0  0  0  0  0  0  0  0  0  0  0
   20.7007   -8.2277  -16.3745 C   0  0  0  0  0  0  0  0  0  0  0  0
   19.4558   -8.3625  -16.3437 O   0  0  0  0  0  0  0  0  0  0  0  0
   21.3779   -7.3262  -15.5223 N   0  0  0  0  0  0  0  0  0  0  0  0
   22.8164   -7.1107  -15.4855 C   0  0  0  0  0  0  0  0  0  0  0  0
   23.0769   -6.3548  -14.1922 C   0  0  0  0  0  0  0  0  0  0  0  0
   21.8355   -5.5037  -14.1048 C   0  0  0  0  0  0  0  0  0  0  0  0
   20.7571   -6.4706  -14.5468 C   0  0  1  0  0  0  0  0  0  0  0  0
   19.6530   -5.6643  -15.1098 C   0  0  0  0  0  0  0  0  0  0  0  0
   18.7361   -5.3000  -14.3374 O   0  0  0  0  0  0  0  0  0  0  0  0
   19.5754   -5.2902  -16.4384 O   0  0  0  0  0  0  0  0  0  0  0  0
  2  1  1  0
  3  2  1  0
  4  5  1  0
  4  3  1  0
  5  6  1  1
  7  5  1  0
  8  7  2  0
 10  9  1  6
 10 12  1  0
 10 11  1  0
 11  7  1  0
 12 14  1  0
 13 12  2  0
 14 18  1  0
 14 15  1  0
 15 16  1  0
 17 16  1  0
 18 17  1  0
 19 21  1  0
 18 19  1  6
 20 19  2  0
M  END
$$$$
