MAP.pdb
     RDKit          3D

 21 21  0  0  1  0  0  0  0  0999 V2000
   17.2737  -21.7946  -14.6695 C   0  0  0  0  0  0  0  0  0  0  0  0
   18.6186  -22.8992  -14.3068 S   0  0  0  0  0  0  0  0  0  0  0  0
   20.1935  -22.5244  -15.0027 C   0  0  0  0  0  0  0  0  0  0  0  0
   20.8592  -21.2333  -14.6830 C   0  0  0  0  0  0  0  0  0  0  0  0
   21.2825  -21.0505  -13.2797 C   0  0  2  0  0  0  0  0  0  0  0  0
   20.4012  -20.1292  -12.6068 N   0  0  0  0  0  0  0  0  0  0  0  0
   22.6704  -20.4891  -13.1754 C   0  0  0  0  0  0  0  0  0  0  0  0
   22.8700  -19.3051  -13.5209 O   0  0  0  0  0  0  0  0  0  0  0  0
   25.9165  -21.6664  -11.7503 C   0  0  0  0  0  0  0  0  0  0  0  0
   25.1305  -20.7663  -12.7031 C   0  0  2  0  0  0  0  0  0  0  0  0
   23.7693  -21.2371  -12.7033 N   0  0  0  0  0  0  0  0  0  0  0  0
   25.7643  -20.9006  -14.0380 C   0  0  0  0  0  0  0  0  0  0  0  0
   25.4913  -21.9229  -14.7083 O   0  0  0  0  0  0  0  0  0  0  0  0
   26.6410  -19.9016  -14.5187 N   0  0  0  0  0  0  0  0  0  0  0  0
   27.0171  -18.6889  -13.8082 C   0  0  0  0  0  0  0  0  0  0  0  0
   27.6539  -17.7899  -14.8562 C   0  0  0  0  0  0  0  0  0  0  0  0
   28.3403  -18.8107  -15.7279 C   0  0  0  0  0  0  0  0  0  0  0  0
   27.3081  -19.9168  -15.7929 C   0  0  1  0  0  0  0  0  0  0  0  0
   28.0366  -21.1785  -16.0450 C   0  0  0  0  0  0  0  0  0  0  0  0
   28.3854  -21.8650  -15.0565 O   0  0  0  0  0  0  0  0  0  0  0  0
   28.3541  -21.6427  -17.3078 O   0  0  0  0  0  0  0  0  0  0  0  0
  2  1  1  0
  3  2  1  0
  4  5  1  0
  4  3  1  0
  5  6  1  6
  7  5  1  0
  8  7  2  0
 10  9  1  1
 10 12  1  0
 10 11  1  0
 11  7  1  0
 12 14  1  0
 13 12  2  0
 14 18  1  0
 14 15  1  0
 15 16  1  0
 17 16  1  0
 18 17  1  0
 19 21  1  0
 18 19  1  1
 20 19  2  0
M  END
$$$$
