MAP.pdb
     RDKit          3D

 21 21  0  0  1  0  0  0  0  0999 V2000
   25.5268  -23.3503  -15.2642 C   0  0  0  0  0  0  0  0  0  0  0  0
   26.6505  -22.2084  -16.0348 S   0  0  0  0  0  0  0  0  0  0  0  0
   27.7493  -21.3123  -14.9884 C   0  0  0  0  0  0  0  0  0  0  0  0
   27.2080  -20.4822  -13.8792 C   0  0  0  0  0  0  0  0  0  0  0  0
   26.5817  -21.2185  -12.7624 C   0  0  2  0  0  0  0  0  0  0  0  0
   25.3039  -21.7496  -13.1667 N   0  0  0  0  0  0  0  0  0  0  0  0
   26.3369  -20.3392  -11.5711 C   0  0  0  0  0  0  0  0  0  0  0  0
   26.0299  -19.1425  -11.7573 O   0  0  0  0  0  0  0  0  0  0  0  0
   24.5769  -20.0817   -8.9269 C   0  0  0  0  0  0  0  0  0  0  0  0
   26.0957  -20.0142   -9.0834 C   0  0  2  0  0  0  0  0  0  0  0  0
   26.4368  -20.7998  -10.2414 N   0  0  0  0  0  0  0  0  0  0  0  0
   26.6787  -20.5762   -7.8401 C   0  0  0  0  0  0  0  0  0  0  0  0
   26.4188  -21.7708   -7.5673 O   0  0  0  0  0  0  0  0  0  0  0  0
   27.4951  -19.7780   -7.0070 N   0  0  0  0  0  0  0  0  0  0  0  0
   27.8718  -18.3957   -7.2604 C   0  0  0  0  0  0  0  0  0  0  0  0
   29.0217  -18.1110   -6.3073 C   0  0  0  0  0  0  0  0  0  0  0  0
   28.6142  -18.9380   -5.1144 C   0  0  0  0  0  0  0  0  0  0  0  0
   28.0913  -20.2000   -5.7679 C   0  0  1  0  0  0  0  0  0  0  0  0
   27.1138  -20.8009   -4.8354 C   0  0  0  0  0  0  0  0  0  0  0  0
   27.5523  -21.3786   -3.8136 O   0  0  0  0  0  0  0  0  0  0  0  0
   25.7453  -20.7612   -5.0269 O   0  0  0  0  0  0  0  0  0  0  0  0
  2  1  1  0
  3  2  1  0
  4  5  1  0
  4  3  1  0
  5  6  1  6
  7  5  1  0
  8  7  2  0
 10  9  1  1
 10 12  1  0
 10 11  1  0
 11  7  1  0
 12 14  1  0
 13 12  2  0
 14 18  1  0
 14 15  1  0
 15 16  1  0
 17 16  1  0
 18 17  1  0
 19 21  1  0
 18 19  1  1
 20 19  2  0
M  END
$$$$
