MAP.pdb
     RDKit          3D

 21 21  0  0  1  0  0  0  0  0999 V2000
   15.8194   -8.6902  -19.6944 C   0  0  0  0  0  0  0  0  0  0  0  0
   15.5637  -10.4283  -19.4222 S   0  0  0  0  0  0  0  0  0  0  0  0
   16.7324  -11.2774  -18.4131 C   0  0  0  0  0  0  0  0  0  0  0  0
   17.3319  -10.5950  -17.2353 C   0  0  0  0  0  0  0  0  0  0  0  0
   18.3612  -11.3556  -16.4978 C   0  0  2  0  0  0  0  0  0  0  0  0
   17.7414  -12.2477  -15.5499 N   0  0  0  0  0  0  0  0  0  0  0  0
   19.2814  -10.4586  -15.7228 C   0  0  0  0  0  0  0  0  0  0  0  0
   18.8506   -9.8960  -14.6938 O   0  0  0  0  0  0  0  0  0  0  0  0
   22.9203   -9.6195  -15.8788 C   0  0  0  0  0  0  0  0  0  0  0  0
   21.4962   -9.2914  -15.4316 C   0  0  2  0  0  0  0  0  0  0  0  0
   20.6189  -10.2170  -16.1010 N   0  0  0  0  0  0  0  0  0  0  0  0
   21.2344   -7.8877  -15.8353 C   0  0  0  0  0  0  0  0  0  0  0  0
   20.7515   -7.6935  -16.9747 O   0  0  0  0  0  0  0  0  0  0  0  0
   21.5254   -6.8223  -14.9534 N   0  0  0  0  0  0  0  0  0  0  0  0
   21.9746   -6.9589  -13.5762 C   0  0  0  0  0  0  0  0  0  0  0  0
   21.7911   -5.5834  -12.9550 C   0  0  0  0  0  0  0  0  0  0  0  0
   22.1079   -4.6951  -14.1313 C   0  0  0  0  0  0  0  0  0  0  0  0
   21.4252   -5.4229  -15.2704 C   0  0  1  0  0  0  0  0  0  0  0  0
   22.1438   -5.0621  -16.5111 C   0  0  0  0  0  0  0  0  0  0  0  0
   21.6929   -4.1173  -17.1997 O   0  0  0  0  0  0  0  0  0  0  0  0
   23.2836   -5.7073  -16.9536 O   0  0  0  0  0  0  0  0  0  0  0  0
  2  1  1  0
  3  2  1  0
  4  5  1  0
  4  3  1  0
  5  6  1  1
  7  5  1  0
  8  7  2  0
 10  9  1  6
 10 12  1  0
 10 11  1  0
 11  7  1  0
 12 14  1  0
 13 12  2  0
 14 18  1  0
 14 15  1  0
 15 16  1  0
 17 16  1  0
 18 17  1  0
 19 21  1  0
 18 19  1  6
 20 19  2  0
M  END
$$$$
