AYG.pdb
     RDKit          3D

 22 22  0  0  1  0  0  0  0  0999 V2000
    9.5787  -17.7081   20.3835 C   0  0  0  0  0  0  0  0  0  0  0  0
    9.6916  -16.2184   20.6396 C   0  0  2  0  0  0  0  0  0  0  0  0
   10.5326  -15.6004   19.6221 N   0  0  0  0  0  0  0  0  0  0  0  0
   10.2838  -15.9874   21.9835 C   0  0  0  0  0  0  0  0  0  0  0  0
   11.5201  -15.9305   22.1183 O   0  0  0  0  0  0  0  0  0  0  0  0
   10.8769  -15.1547   30.7072 O   0  0  0  0  0  0  0  0  0  0  0  0
   10.4045  -15.1682   29.4051 C   0  0  0  0  0  0  0  0  0  0  0  0
    9.8394  -16.2910   28.8501 C   0  0  0  0  0  0  0  0  0  0  0  0
    9.3875  -16.2477   27.5535 C   0  0  0  0  0  0  0  0  0  0  0  0
    9.4757  -15.1124   26.7705 C   0  0  0  0  0  0  0  0  0  0  0  0
    8.9933  -15.0566   25.3781 C   0  0  0  0  0  0  0  0  0  0  0  0
    9.9668  -15.6969   24.4118 C   0  0  2  0  0  0  0  0  0  0  0  0
    9.4275  -15.8353   23.0941 N   0  0  0  0  0  0  0  0  0  0  0  0
   10.3219  -17.0429   24.9403 C   0  0  0  0  0  0  0  0  0  0  0  0
    9.5911  -18.0456   24.7069 O   0  0  0  0  0  0  0  0  0  0  0  0
   10.0463  -13.9978   27.3482 C   0  0  0  0  0  0  0  0  0  0  0  0
   10.5105  -13.9996   28.6413 C   0  0  0  0  0  0  0  0  0  0  0  0
   11.4830  -17.2531   25.7195 N   0  0  0  0  0  0  0  0  0  0  0  0
   12.5756  -18.0627   25.2459 C   0  0  0  0  0  0  0  0  0  0  0  0
   12.3236  -19.4977   25.5353 C   0  0  0  0  0  0  0  0  0  0  0  0
   11.2385  -20.0413   25.2066 O   0  0  0  0  0  0  0  0  0  0  0  0
   13.2862  -20.2656   26.1762 O   0  0  0  0  0  0  0  0  0  0  0  0
  2  1  1  6
  2  4  1  0
  3  2  1  0
  4 13  1  0
  4  5  2  0
  7  6  1  0
  8  7  2  0
  9  8  1  0
 10 16  1  0
 10  9  2  0
 11 10  1  0
 12 11  1  1
 13 12  1  0
 14 12  1  0
 14 18  1  0
 15 14  2  0
 16 17  2  0
 17  7  1  0
 19 18  1  0
 19 20  1  0
 20 21  2  0
 20 22  1  0
M  END
$$$$
