AYG.pdb
     RDKit          3D

 22 22  0  0  1  0  0  0  0  0999 V2000
    7.5270  -12.9447   20.3349 C   0  0  0  0  0  0  0  0  0  0  0  0
    8.0503  -14.3466   20.5770 C   0  0  2  0  0  0  0  0  0  0  0  0
    6.9379  -15.2832   20.6765 N   0  0  0  0  0  0  0  0  0  0  0  0
    8.8387  -14.3733   21.8371 C   0  0  0  0  0  0  0  0  0  0  0  0
    9.8619  -13.6728   21.9470 O   0  0  0  0  0  0  0  0  0  0  0  0
    5.9905  -10.4746   26.9689 O   0  0  0  0  0  0  0  0  0  0  0  0
    6.5030  -11.6956   26.5624 C   0  0  0  0  0  0  0  0  0  0  0  0
    5.6879  -12.7327   26.1779 C   0  0  0  0  0  0  0  0  0  0  0  0
    6.2508  -13.9223   25.7839 C   0  0  0  0  0  0  0  0  0  0  0  0
    7.6171  -14.1277   25.7556 C   0  0  0  0  0  0  0  0  0  0  0  0
    8.2303  -15.4009   25.3342 C   0  0  0  0  0  0  0  0  0  0  0  0
    9.1331  -15.2279   24.1316 C   0  0  2  0  0  0  0  0  0  0  0  0
    8.4106  -15.1995   22.8973 N   0  0  0  0  0  0  0  0  0  0  0  0
   10.0951  -16.3644   24.1108 C   0  0  0  0  0  0  0  0  0  0  0  0
   10.7820  -16.6523   25.1303 O   0  0  0  0  0  0  0  0  0  0  0  0
    8.4156  -13.0731   26.1456 C   0  0  0  0  0  0  0  0  0  0  0  0
    7.8925  -11.8676   26.5464 C   0  0  0  0  0  0  0  0  0  0  0  0
   10.2782  -17.1624   22.9579 N   0  0  0  0  0  0  0  0  0  0  0  0
   11.1159  -18.3336   22.9738 C   0  0  0  0  0  0  0  0  0  0  0  0
   12.4832  -18.0019   22.4973 C   0  0  0  0  0  0  0  0  0  0  0  0
   13.3335  -18.9061   22.2968 O   0  0  0  0  0  0  0  0  0  0  0  0
   12.8462  -16.6824   22.2646 O   0  0  0  0  0  0  0  0  0  0  0  0
  2  1  1  1
  2  4  1  0
  3  2  1  0
  4 13  1  0
  4  5  2  0
  7  6  1  0
  8  7  2  0
  9  8  1  0
 10 16  1  0
 10  9  2  0
 11 10  1  0
 12 11  1  1
 13 12  1  0
 14 12  1  0
 14 18  1  0
 15 14  2  0
 16 17  2  0
 17  7  1  0
 19 18  1  0
 19 20  1  0
 20 21  2  0
 20 22  1  0
M  END
$$$$
