AYG.pdb
     RDKit          3D

 22 22  0  0  1  0  0  0  0  0999 V2000
    7.5464  -15.0988   19.4794 C   0  0  0  0  0  0  0  0  0  0  0  0
    7.6697  -13.8283   20.2969 C   0  0  2  0  0  0  0  0  0  0  0  0
    8.2184  -12.7577   19.4740 N   0  0  0  0  0  0  0  0  0  0  0  0
    8.5624  -14.0697   21.4610 C   0  0  0  0  0  0  0  0  0  0  0  0
    9.6997  -13.5643   21.4895 O   0  0  0  0  0  0  0  0  0  0  0  0
    5.9116  -10.5460   27.1281 O   0  0  0  0  0  0  0  0  0  0  0  0
    6.3959  -11.7256   26.5871 C   0  0  0  0  0  0  0  0  0  0  0  0
    5.5576  -12.7385   26.1881 C   0  0  0  0  0  0  0  0  0  0  0  0
    6.0929  -13.8873   25.6579 C   0  0  0  0  0  0  0  0  0  0  0  0
    7.4536  -14.0745   25.5049 C   0  0  0  0  0  0  0  0  0  0  0  0
    8.0372  -15.3039   24.9369 C   0  0  0  0  0  0  0  0  0  0  0  0
    8.8826  -15.0208   23.7137 C   0  0  2  0  0  0  0  0  0  0  0  0
    8.1020  -14.8748   22.5238 N   0  0  0  0  0  0  0  0  0  0  0  0
    9.8346  -16.1525   23.5400 C   0  0  0  0  0  0  0  0  0  0  0  0
   10.6266  -16.4826   24.4661 O   0  0  0  0  0  0  0  0  0  0  0  0
    8.2756  -13.0448   25.9121 C   0  0  0  0  0  0  0  0  0  0  0  0
    7.7804  -11.8803   26.4471 C   0  0  0  0  0  0  0  0  0  0  0  0
    9.8911  -16.8990   22.3403 N   0  0  0  0  0  0  0  0  0  0  0  0
   10.7965  -18.0075   22.1810 C   0  0  0  0  0  0  0  0  0  0  0  0
   10.5620  -18.6884   20.8819 C   0  0  0  0  0  0  0  0  0  0  0  0
    9.7205  -18.2411   20.0617 O   0  0  0  0  0  0  0  0  0  0  0  0
   11.2712  -19.8348   20.5504 O   0  0  0  0  0  0  0  0  0  0  0  0
  2  1  1  6
  2  4  1  0
  3  2  1  0
  4 13  1  0
  4  5  2  0
  7  6  1  0
  8  7  2  0
  9  8  1  0
 10 16  1  0
 10  9  2  0
 11 10  1  0
 12 11  1  1
 13 12  1  0
 14 12  1  0
 14 18  1  0
 15 14  2  0
 16 17  2  0
 17  7  1  0
 19 18  1  0
 19 20  1  0
 20 21  2  0
 20 22  1  0
M  END
$$$$
