AYG.pdb
     RDKit          3D

 22 22  0  0  1  0  0  0  0  0999 V2000
    7.2297  -15.1069   19.8095 C   0  0  0  0  0  0  0  0  0  0  0  0
    7.4324  -13.7881   20.5288 C   0  0  2  0  0  0  0  0  0  0  0  0
    8.0659  -12.8260   19.6358 N   0  0  0  0  0  0  0  0  0  0  0  0
    8.2909  -13.9994   21.7240 C   0  0  0  0  0  0  0  0  0  0  0  0
    9.5275  -13.8901   21.6302 O   0  0  0  0  0  0  0  0  0  0  0  0
   10.9705  -14.9118   29.9823 O   0  0  0  0  0  0  0  0  0  0  0  0
   10.1592  -14.8416   28.8618 C   0  0  0  0  0  0  0  0  0  0  0  0
    9.5581  -15.9571   28.3305 C   0  0  0  0  0  0  0  0  0  0  0  0
    8.7631  -15.8291   27.2174 C   0  0  0  0  0  0  0  0  0  0  0  0
    8.5365  -14.6145   26.5984 C   0  0  0  0  0  0  0  0  0  0  0  0
    7.6850  -14.4674   25.4035 C   0  0  0  0  0  0  0  0  0  0  0  0
    8.4846  -14.5466   24.1208 C   0  0  2  0  0  0  0  0  0  0  0  0
    7.6849  -14.3231   22.9560 N   0  0  0  0  0  0  0  0  0  0  0  0
    9.0967  -15.9018   24.0428 C   0  0  0  0  0  0  0  0  0  0  0  0
    8.3803  -16.9300   23.8891 O   0  0  0  0  0  0  0  0  0  0  0  0
    9.1499  -13.5087   27.1489 C   0  0  0  0  0  0  0  0  0  0  0  0
    9.9522  -13.5940   28.2610 C   0  0  0  0  0  0  0  0  0  0  0  0
   10.4947  -16.0927   24.1369 N   0  0  0  0  0  0  0  0  0  0  0  0
   11.0990  -17.3807   23.9145 C   0  0  0  0  0  0  0  0  0  0  0  0
   11.5777  -17.9593   25.1961 C   0  0  0  0  0  0  0  0  0  0  0  0
   10.8043  -18.6215   25.9338 O   0  0  0  0  0  0  0  0  0  0  0  0
   12.8927  -17.7775   25.6022 O   0  0  0  0  0  0  0  0  0  0  0  0
  2  1  1  6
  2  4  1  0
  3  2  1  0
  4 13  1  0
  4  5  2  0
  7  6  1  0
  8  7  2  0
  9  8  1  0
 10 16  1  0
 10  9  2  0
 11 10  1  0
 12 11  1  1
 13 12  1  0
 14 12  1  0
 14 18  1  0
 15 14  2  0
 16 17  2  0
 17  7  1  0
 19 18  1  0
 19 20  1  0
 20 21  2  0
 20 22  1  0
M  END
$$$$
