AYG.pdb
     RDKit          3D

 22 22  0  0  1  0  0  0  0  0999 V2000
    7.4667  -13.1125   20.2912 C   0  0  0  0  0  0  0  0  0  0  0  0
    7.9308  -14.5112   20.6459 C   0  0  2  0  0  0  0  0  0  0  0  0
    6.7819  -15.3550   20.9501 N   0  0  0  0  0  0  0  0  0  0  0  0
    8.8326  -14.4524   21.8264 C   0  0  0  0  0  0  0  0  0  0  0  0
    9.8802  -13.7816   21.7775 O   0  0  0  0  0  0  0  0  0  0  0  0
    5.7380  -10.4659   26.8258 O   0  0  0  0  0  0  0  0  0  0  0  0
    6.4449  -11.6104   26.4954 C   0  0  0  0  0  0  0  0  0  0  0  0
    7.8161  -11.6616   26.5653 C   0  0  0  0  0  0  0  0  0  0  0  0
    8.4657  -12.8235   26.2256 C   0  0  0  0  0  0  0  0  0  0  0  0
    7.7955  -13.9588   25.8111 C   0  0  0  0  0  0  0  0  0  0  0  0
    8.4840  -15.2102   25.4446 C   0  0  0  0  0  0  0  0  0  0  0  0
    9.2892  -15.0655   24.1710 C   0  0  2  0  0  0  0  0  0  0  0  0
    8.4833  -15.1640   22.9932 N   0  0  0  0  0  0  0  0  0  0  0  0
   10.3186  -16.1413   24.1524 C   0  0  0  0  0  0  0  0  0  0  0  0
   11.2495  -16.1639   25.0049 O   0  0  0  0  0  0  0  0  0  0  0  0
    6.4198  -13.8843   25.7486 C   0  0  0  0  0  0  0  0  0  0  0  0
    5.7325  -12.7417   26.0796 C   0  0  0  0  0  0  0  0  0  0  0  0
   10.2970  -17.1743   23.1870 N   0  0  0  0  0  0  0  0  0  0  0  0
   11.2989  -18.2083   23.1629 C   0  0  0  0  0  0  0  0  0  0  0  0
   10.9937  -19.2524   24.1745 C   0  0  0  0  0  0  0  0  0  0  0  0
    9.9318  -19.2088   24.8464 O   0  0  0  0  0  0  0  0  0  0  0  0
   11.8796  -20.2980   24.3956 O   0  0  0  0  0  0  0  0  0  0  0  0
  2  1  1  1
  2  4  1  0
  3  2  1  0
  4 13  1  0
  4  5  2  0
  7  6  1  0
  8  7  2  0
  9  8  1  0
 10 16  1  0
 10  9  2  0
 11 10  1  0
 12 11  1  1
 13 12  1  0
 14 12  1  0
 14 18  1  0
 15 14  2  0
 16 17  2  0
 17  7  1  0
 19 18  1  0
 19 20  1  0
 20 21  2  0
 20 22  1  0
M  END
$$$$
