AYG.pdb
     RDKit          3D

 22 22  0  0  1  0  0  0  0  0999 V2000
    6.4654  -17.6937   21.3591 C   0  0  0  0  0  0  0  0  0  0  0  0
    6.1890  -16.3629   22.0302 C   0  0  2  0  0  0  0  0  0  0  0  0
    5.6796  -15.4087   21.0532 N   0  0  0  0  0  0  0  0  0  0  0  0
    7.4432  -15.8385   22.6320 C   0  0  0  0  0  0  0  0  0  0  0  0
    8.1610  -15.0505   21.9889 O   0  0  0  0  0  0  0  0  0  0  0  0
    5.7428  -10.6533   26.7738 O   0  0  0  0  0  0  0  0  0  0  0  0
    6.4422  -11.8357   26.5962 C   0  0  0  0  0  0  0  0  0  0  0  0
    5.8134  -13.0574   26.5969 C   0  0  0  0  0  0  0  0  0  0  0  0
    6.5569  -14.1984   26.4161 C   0  0  0  0  0  0  0  0  0  0  0  0
    7.9262  -14.1748   26.2311 C   0  0  0  0  0  0  0  0  0  0  0  0
    8.7324  -15.3942   26.0363 C   0  0  0  0  0  0  0  0  0  0  0  0
    8.9603  -15.6985   24.5712 C   0  0  2  0  0  0  0  0  0  0  0  0
    7.8027  -16.2462   23.9337 N   0  0  0  0  0  0  0  0  0  0  0  0
   10.0819  -16.6729   24.4724 C   0  0  0  0  0  0  0  0  0  0  0  0
   10.0706  -17.7456   25.1383 O   0  0  0  0  0  0  0  0  0  0  0  0
    8.5358  -12.9378   26.2341 C   0  0  0  0  0  0  0  0  0  0  0  0
    7.8286  -11.7733   26.4115 C   0  0  0  0  0  0  0  0  0  0  0  0
   11.1977  -16.4398   23.6356 N   0  0  0  0  0  0  0  0  0  0  0  0
   12.2987  -17.3655   23.5675 C   0  0  0  0  0  0  0  0  0  0  0  0
   13.5862  -16.6603   23.7942 C   0  0  0  0  0  0  0  0  0  0  0  0
   13.6435  -15.4043   23.7891 O   0  0  0  0  0  0  0  0  0  0  0  0
   14.7525  -17.3797   24.0165 O   0  0  0  0  0  0  0  0  0  0  0  0
  2  1  1  6
  2  4  1  0
  3  2  1  0
  4 13  1  0
  4  5  2  0
  7  6  1  0
  8  7  2  0
  9  8  1  0
 10 16  1  0
 10  9  2  0
 11 10  1  0
 12 11  1  1
 13 12  1  0
 14 12  1  0
 14 18  1  0
 15 14  2  0
 16 17  2  0
 17  7  1  0
 19 18  1  0
 19 20  1  0
 20 21  2  0
 20 22  1  0
M  END
$$$$
