AYG.pdb
     RDKit          3D

 22 22  0  0  1  0  0  0  0  0999 V2000
    7.6031  -15.3198   19.7865 C   0  0  0  0  0  0  0  0  0  0  0  0
    7.5202  -14.0258   20.5715 C   0  0  2  0  0  0  0  0  0  0  0  0
    7.9220  -12.9058   19.7296 N   0  0  0  0  0  0  0  0  0  0  0  0
    8.4140  -14.1040   21.7569 C   0  0  0  0  0  0  0  0  0  0  0  0
    9.4942  -13.4853   21.7648 O   0  0  0  0  0  0  0  0  0  0  0  0
    5.7999  -10.3751   27.5990 O   0  0  0  0  0  0  0  0  0  0  0  0
    6.3484  -11.5160   27.0367 C   0  0  0  0  0  0  0  0  0  0  0  0
    7.6907  -11.6154   26.7608 C   0  0  0  0  0  0  0  0  0  0  0  0
    8.1806  -12.7712   26.2027 C   0  0  0  0  0  0  0  0  0  0  0  0
    7.3756  -13.8535   25.9016 C   0  0  0  0  0  0  0  0  0  0  0  0
    7.8923  -15.0979   25.3026 C   0  0  0  0  0  0  0  0  0  0  0  0
    8.7560  -14.8301   24.0887 C   0  0  2  0  0  0  0  0  0  0  0  0
    8.0200  -14.8852   22.8634 N   0  0  0  0  0  0  0  0  0  0  0  0
    9.8371  -15.8537   24.0580 C   0  0  0  0  0  0  0  0  0  0  0  0
   10.4501  -16.1824   25.1116 O   0  0  0  0  0  0  0  0  0  0  0  0
    6.0319  -13.7312   26.1870 C   0  0  0  0  0  0  0  0  0  0  0  0
    5.5024  -12.5928   26.7450 C   0  0  0  0  0  0  0  0  0  0  0  0
   10.2194  -16.4955   22.8573 N   0  0  0  0  0  0  0  0  0  0  0  0
   11.3019  -17.4443   22.8182 C   0  0  0  0  0  0  0  0  0  0  0  0
   11.4445  -18.0152   21.4543 C   0  0  0  0  0  0  0  0  0  0  0  0
   12.3645  -18.8301   21.1889 O   0  0  0  0  0  0  0  0  0  0  0  0
   10.5604  -17.6568   20.4457 O   0  0  0  0  0  0  0  0  0  0  0  0
  2  1  1  6
  2  4  1  0
  3  2  1  0
  4 13  1  0
  4  5  2  0
  7  6  1  0
  8  7  2  0
  9  8  1  0
 10 16  1  0
 10  9  2  0
 11 10  1  0
 12 11  1  1
 13 12  1  0
 14 12  1  0
 14 18  1  0
 15 14  2  0
 16 17  2  0
 17  7  1  0
 19 18  1  0
 19 20  1  0
 20 21  2  0
 20 22  1  0
M  END
$$$$
