AYG.pdb
     RDKit          3D

 22 22  0  0  1  0  0  0  0  0999 V2000
   10.5162  -20.0644   20.5216 C   0  0  0  0  0  0  0  0  0  0  0  0
    9.9887  -18.7694   19.9365 C   0  0  2  0  0  0  0  0  0  0  0  0
   10.3473  -18.6772   18.5268 N   0  0  0  0  0  0  0  0  0  0  0  0
   10.5685  -17.6166   20.6748 C   0  0  0  0  0  0  0  0  0  0  0  0
   11.6784  -17.1597   20.3446 O   0  0  0  0  0  0  0  0  0  0  0  0
    6.3157  -12.6379   18.8105 O   0  0  0  0  0  0  0  0  0  0  0  0
    7.0113  -13.2447   19.8433 C   0  0  0  0  0  0  0  0  0  0  0  0
    6.4545  -14.2448   20.6035 C   0  0  0  0  0  0  0  0  0  0  0  0
    7.1904  -14.8114   21.6157 C   0  0  0  0  0  0  0  0  0  0  0  0
    8.4822  -14.4175   21.9093 C   0  0  0  0  0  0  0  0  0  0  0  0
    9.2796  -15.0199   22.9936 C   0  0  0  0  0  0  0  0  0  0  0  0
   10.3660  -15.9308   22.4634 C   0  0  2  0  0  0  0  0  0  0  0  0
    9.8449  -17.0541   21.7472 N   0  0  0  0  0  0  0  0  0  0  0  0
   11.1661  -16.4159   23.6217 C   0  0  0  0  0  0  0  0  0  0  0  0
   10.6108  -16.7094   24.7170 O   0  0  0  0  0  0  0  0  0  0  0  0
    9.0204  -13.4124   21.1335 C   0  0  0  0  0  0  0  0  0  0  0  0
    8.3180  -12.8198   20.1121 C   0  0  0  0  0  0  0  0  0  0  0  0
   12.5700  -16.5669   23.5445 N   0  0  0  0  0  0  0  0  0  0  0  0
   13.3266  -17.1642   24.6143 C   0  0  0  0  0  0  0  0  0  0  0  0
   14.4305  -16.2645   25.0364 C   0  0  0  0  0  0  0  0  0  0  0  0
   15.0843  -15.6042   24.1893 O   0  0  0  0  0  0  0  0  0  0  0  0
   14.7600  -16.1372   26.3789 O   0  0  0  0  0  0  0  0  0  0  0  0
  2  1  1  1
  2  4  1  0
  3  2  1  0
  4 13  1  0
  4  5  2  0
  7  6  1  0
  8  7  2  0
  9  8  1  0
 10 16  1  0
 10  9  2  0
 11 10  1  0
 12 11  1  1
 13 12  1  0
 14 12  1  0
 14 18  1  0
 15 14  2  0
 16 17  2  0
 17  7  1  0
 19 18  1  0
 19 20  1  0
 20 21  2  0
 20 22  1  0
M  END
$$$$
