AYG.pdb
     RDKit          3D

 22 22  0  0  1  0  0  0  0  0999 V2000
    7.4622  -17.3396   20.6158 C   0  0  0  0  0  0  0  0  0  0  0  0
    6.7827  -16.2366   21.4027 C   0  0  2  0  0  0  0  0  0  0  0  0
    6.1671  -15.2807   20.4906 N   0  0  0  0  0  0  0  0  0  0  0  0
    7.7848  -15.5408   22.2523 C   0  0  0  0  0  0  0  0  0  0  0  0
    8.3906  -14.5458   21.8132 O   0  0  0  0  0  0  0  0  0  0  0  0
    5.5571  -10.4521   26.8846 O   0  0  0  0  0  0  0  0  0  0  0  0
    6.2809  -11.6046   26.6265 C   0  0  0  0  0  0  0  0  0  0  0  0
    7.6250  -11.5689   26.3439 C   0  0  0  0  0  0  0  0  0  0  0  0
    8.2933  -12.7432   26.0957 C   0  0  0  0  0  0  0  0  0  0  0  0
    7.6684  -13.9757   26.1172 C   0  0  0  0  0  0  0  0  0  0  0  0
    8.3774  -15.2413   25.8521 C   0  0  0  0  0  0  0  0  0  0  0  0
    8.9075  -15.3116   24.4360 C   0  0  2  0  0  0  0  0  0  0  0  0
    8.0351  -16.0237   23.5538 N   0  0  0  0  0  0  0  0  0  0  0  0
   10.2308  -15.9934   24.4731 C   0  0  0  0  0  0  0  0  0  0  0  0
   11.2273  -15.4473   25.0233 O   0  0  0  0  0  0  0  0  0  0  0  0
    6.3194  -13.9874   26.4030 C   0  0  0  0  0  0  0  0  0  0  0  0
    5.6147  -12.8356   26.6569 C   0  0  0  0  0  0  0  0  0  0  0  0
   10.4254  -17.2706   23.8984 N   0  0  0  0  0  0  0  0  0  0  0  0
   11.7010  -17.9369   23.9498 C   0  0  0  0  0  0  0  0  0  0  0  0
   11.6189  -19.1536   24.7979 C   0  0  0  0  0  0  0  0  0  0  0  0
   10.5058  -19.6446   25.1156 O   0  0  0  0  0  0  0  0  0  0  0  0
   12.7747  -19.7712   25.2558 O   0  0  0  0  0  0  0  0  0  0  0  0
  2  1  1  6
  2  4  1  0
  3  2  1  0
  4 13  1  0
  4  5  2  0
  7  6  1  0
  8  7  2  0
  9  8  1  0
 10 16  1  0
 10  9  2  0
 11 10  1  0
 12 11  1  1
 13 12  1  0
 14 12  1  0
 14 18  1  0
 15 14  2  0
 16 17  2  0
 17  7  1  0
 19 18  1  0
 19 20  1  0
 20 21  2  0
 20 22  1  0
M  END
$$$$
