AYG.pdb
     RDKit          3D

 22 22  0  0  1  0  0  0  0  0999 V2000
    7.4736  -13.1480   19.9599 C   0  0  0  0  0  0  0  0  0  0  0  0
    8.1015  -14.4764   20.3322 C   0  0  2  0  0  0  0  0  0  0  0  0
    7.0714  -15.5023   20.4372 N   0  0  0  0  0  0  0  0  0  0  0  0
    8.8092  -14.3457   21.6332 C   0  0  0  0  0  0  0  0  0  0  0  0
    9.7362  -13.5243   21.7585 O   0  0  0  0  0  0  0  0  0  0  0  0
    5.8481  -10.6884   27.3064 O   0  0  0  0  0  0  0  0  0  0  0  0
    6.3772  -11.8538   26.7766 C   0  0  0  0  0  0  0  0  0  0  0  0
    5.5954  -12.9542   26.5202 C   0  0  0  0  0  0  0  0  0  0  0  0
    6.1734  -14.0841   25.9942 C   0  0  0  0  0  0  0  0  0  0  0  0
    7.5226  -14.1670   25.7070 C   0  0  0  0  0  0  0  0  0  0  0  0
    8.1518  -15.3753   25.1423 C   0  0  0  0  0  0  0  0  0  0  0  0
    9.0681  -15.0512   23.9819 C   0  0  2  0  0  0  0  0  0  0  0  0
    8.4151  -15.1619   22.7140 N   0  0  0  0  0  0  0  0  0  0  0  0
   10.2181  -15.9962   24.0256 C   0  0  0  0  0  0  0  0  0  0  0  0
   10.9575  -16.0723   25.0460 O   0  0  0  0  0  0  0  0  0  0  0  0
    8.2876  -13.0507   25.9725 C   0  0  0  0  0  0  0  0  0  0  0  0
    7.7484  -11.9015   26.4982 C   0  0  0  0  0  0  0  0  0  0  0  0
   10.5277  -16.8412   22.9348 N   0  0  0  0  0  0  0  0  0  0  0  0
   11.5866  -17.8143   23.0086 C   0  0  0  0  0  0  0  0  0  0  0  0
   11.6690  -18.5906   21.7448 C   0  0  0  0  0  0  0  0  0  0  0  0
   12.4480  -19.5720   21.6401 O   0  0  0  0  0  0  0  0  0  0  0  0
   10.8837  -18.2439   20.6539 O   0  0  0  0  0  0  0  0  0  0  0  0
  2  1  1  1
  2  4  1  0
  3  2  1  0
  4 13  1  0
  4  5  2  0
  7  6  1  0
  8  7  2  0
  9  8  1  0
 10 16  1  0
 10  9  2  0
 11 10  1  0
 12 11  1  1
 13 12  1  0
 14 12  1  0
 14 18  1  0
 15 14  2  0
 16 17  2  0
 17  7  1  0
 19 18  1  0
 19 20  1  0
 20 21  2  0
 20 22  1  0
M  END
$$$$
