AYG.pdb
     RDKit          3D

 22 22  0  0  1  0  0  0  0  0999 V2000
    7.2245  -13.4057   20.4267 C   0  0  0  0  0  0  0  0  0  0  0  0
    7.9358  -14.7039   20.7528 C   0  0  2  0  0  0  0  0  0  0  0  0
    6.9604  -15.7630   20.9793 N   0  0  0  0  0  0  0  0  0  0  0  0
    8.7678  -14.5235   21.9715 C   0  0  0  0  0  0  0  0  0  0  0  0
    9.6615  -13.6571   21.9934 O   0  0  0  0  0  0  0  0  0  0  0  0
    5.6822  -10.5177   26.8884 O   0  0  0  0  0  0  0  0  0  0  0  0
    6.3770  -11.6745   26.5754 C   0  0  0  0  0  0  0  0  0  0  0  0
    7.6932  -11.8482   26.9295 C   0  0  0  0  0  0  0  0  0  0  0  0
    8.3333  -13.0163   26.5931 C   0  0  0  0  0  0  0  0  0  0  0  0
    7.7070  -14.0388   25.9060 C   0  0  0  0  0  0  0  0  0  0  0  0
    8.3858  -15.2959   25.5407 C   0  0  0  0  0  0  0  0  0  0  0  0
    9.2529  -15.1384   24.3100 C   0  0  2  0  0  0  0  0  0  0  0  0
    8.5289  -15.3444   23.0935 N   0  0  0  0  0  0  0  0  0  0  0  0
   10.3595  -16.1310   24.3963 C   0  0  0  0  0  0  0  0  0  0  0  0
   11.0339  -16.2610   25.4557 O   0  0  0  0  0  0  0  0  0  0  0  0
    6.3862  -13.8424   25.5610 C   0  0  0  0  0  0  0  0  0  0  0  0
    5.7102  -12.6892   25.8784 C   0  0  0  0  0  0  0  0  0  0  0  0
   10.6988  -16.9629   23.3044 N   0  0  0  0  0  0  0  0  0  0  0  0
   11.7204  -17.9721   23.4111 C   0  0  0  0  0  0  0  0  0  0  0  0
   11.8587  -18.7103   22.1295 C   0  0  0  0  0  0  0  0  0  0  0  0
   11.1786  -18.3874   21.1225 O   0  0  0  0  0  0  0  0  0  0  0  0
   12.7450  -19.7733   22.0221 O   0  0  0  0  0  0  0  0  0  0  0  0
  2  1  1  1
  2  4  1  0
  3  2  1  0
  4 13  1  0
  4  5  2  0
  7  6  1  0
  8  7  2  0
  9  8  1  0
 10 16  1  0
 10  9  2  0
 11 10  1  0
 12 11  1  1
 13 12  1  0
 14 12  1  0
 14 18  1  0
 15 14  2  0
 16 17  2  0
 17  7  1  0
 19 18  1  0
 19 20  1  0
 20 21  2  0
 20 22  1  0
M  END
$$$$
