AYG.pdb
     RDKit          3D

 22 22  0  0  1  0  0  0  0  0999 V2000
    9.8046  -18.1095   19.2023 C   0  0  0  0  0  0  0  0  0  0  0  0
   10.0569  -18.4653   20.6540 C   0  0  2  0  0  0  0  0  0  0  0  0
    8.8938  -19.1458   21.2094 N   0  0  0  0  0  0  0  0  0  0  0  0
   10.3278  -17.2268   21.4305 C   0  0  0  0  0  0  0  0  0  0  0  0
   11.3061  -16.5126   21.1432 O   0  0  0  0  0  0  0  0  0  0  0  0
    6.7123  -13.1231   18.0842 O   0  0  0  0  0  0  0  0  0  0  0  0
    7.0836  -13.5692   19.3419 C   0  0  0  0  0  0  0  0  0  0  0  0
    6.4701  -14.6428   19.9411 C   0  0  0  0  0  0  0  0  0  0  0  0
    6.8789  -15.0421   21.1904 C   0  0  0  0  0  0  0  0  0  0  0  0
    7.8921  -14.4060   21.8822 C   0  0  0  0  0  0  0  0  0  0  0  0
    8.3377  -14.8275   23.2233 C   0  0  0  0  0  0  0  0  0  0  0  0
    9.6200  -15.6301   23.1715 C   0  0  2  0  0  0  0  0  0  0  0  0
    9.4641  -16.8780   22.4898 N   0  0  0  0  0  0  0  0  0  0  0  0
   10.0590  -15.8872   24.5709 C   0  0  0  0  0  0  0  0  0  0  0  0
   10.1649  -14.9427   25.4021 O   0  0  0  0  0  0  0  0  0  0  0  0
    8.4934  -13.3313   21.2615 C   0  0  0  0  0  0  0  0  0  0  0  0
    8.1142  -12.9003   20.0133 C   0  0  0  0  0  0  0  0  0  0  0  0
   10.3733  -17.1893   25.0242 N   0  0  0  0  0  0  0  0  0  0  0  0
   10.7794  -17.4399   26.3829 C   0  0  0  0  0  0  0  0  0  0  0  0
   11.0238  -18.8898   26.5940 C   0  0  0  0  0  0  0  0  0  0  0  0
   10.9332  -19.7047   25.6408 O   0  0  0  0  0  0  0  0  0  0  0  0
   11.3576  -19.3709   27.8526 O   0  0  0  0  0  0  0  0  0  0  0  0
  2  1  1  6
  2  4  1  0
  3  2  1  0
  4 13  1  0
  4  5  2  0
  7  6  1  0
  8  7  2  0
  9  8  1  0
 10 16  1  0
 10  9  2  0
 11 10  1  0
 12 11  1  1
 13 12  1  0
 14 12  1  0
 14 18  1  0
 15 14  2  0
 16 17  2  0
 17  7  1  0
 19 18  1  0
 19 20  1  0
 20 21  2  0
 20 22  1  0
M  END
$$$$
