AYG.pdb
     RDKit          3D

 22 22  0  0  1  0  0  0  0  0999 V2000
    7.1535  -13.5457   20.8173 C   0  0  0  0  0  0  0  0  0  0  0  0
    7.7872  -14.8995   21.0688 C   0  0  2  0  0  0  0  0  0  0  0  0
    6.7594  -15.8749   21.4105 N   0  0  0  0  0  0  0  0  0  0  0  0
    8.7639  -14.7928   22.1846 C   0  0  0  0  0  0  0  0  0  0  0  0
    9.7436  -14.0312   22.0845 O   0  0  0  0  0  0  0  0  0  0  0  0
    5.7528  -10.6398   26.8588 O   0  0  0  0  0  0  0  0  0  0  0  0
    6.4063  -11.8320   26.5935 C   0  0  0  0  0  0  0  0  0  0  0  0
    5.7201  -12.9863   26.3027 C   0  0  0  0  0  0  0  0  0  0  0  0
    6.4198  -14.1406   26.0475 C   0  0  0  0  0  0  0  0  0  0  0  0
    7.8005  -14.1961   26.0699 C   0  0  0  0  0  0  0  0  0  0  0  0
    8.5601  -15.4303   25.7973 C   0  0  0  0  0  0  0  0  0  0  0  0
    9.3593  -15.3360   24.5152 C   0  0  2  0  0  0  0  0  0  0  0  0
    8.5626  -15.5631   23.3491 N   0  0  0  0  0  0  0  0  0  0  0  0
   10.4448  -16.3537   24.5735 C   0  0  0  0  0  0  0  0  0  0  0  0
   11.2128  -16.4273   25.5729 O   0  0  0  0  0  0  0  0  0  0  0  0
    8.4682  -13.0258   26.3639 C   0  0  0  0  0  0  0  0  0  0  0  0
    7.8059  -11.8507   26.6250 C   0  0  0  0  0  0  0  0  0  0  0  0
   10.6594  -17.2729   23.5206 N   0  0  0  0  0  0  0  0  0  0  0  0
   11.6432  -18.3199   23.6192 C   0  0  0  0  0  0  0  0  0  0  0  0
   12.9918  -17.8008   23.2756 C   0  0  0  0  0  0  0  0  0  0  0  0
   13.1576  -16.5954   22.9585 O   0  0  0  0  0  0  0  0  0  0  0  0
   14.0962  -18.6415   23.2992 O   0  0  0  0  0  0  0  0  0  0  0  0
  2  1  1  1
  2  4  1  0
  3  2  1  0
  4 13  1  0
  4  5  2  0
  7  6  1  0
  8  7  2  0
  9  8  1  0
 10 16  1  0
 10  9  2  0
 11 10  1  0
 12 11  1  1
 13 12  1  0
 14 12  1  0
 14 18  1  0
 15 14  2  0
 16 17  2  0
 17  7  1  0
 19 18  1  0
 19 20  1  0
 20 21  2  0
 20 22  1  0
M  END
$$$$
