AYG.pdb
     RDKit          3D

 22 22  0  0  1  0  0  0  0  0999 V2000
    9.1355  -20.2369   21.8077 C   0  0  0  0  0  0  0  0  0  0  0  0
    8.5872  -19.0123   21.1024 C   0  0  2  0  0  0  0  0  0  0  0  0
    8.6780  -19.1870   19.6582 N   0  0  0  0  0  0  0  0  0  0  0  0
    9.3655  -17.8128   21.5093 C   0  0  0  0  0  0  0  0  0  0  0  0
   10.4528  -17.5592   20.9587 O   0  0  0  0  0  0  0  0  0  0  0  0
    6.2188  -12.7282   18.3361 O   0  0  0  0  0  0  0  0  0  0  0  0
    6.8291  -13.1677   19.4993 C   0  0  0  0  0  0  0  0  0  0  0  0
    8.0827  -12.7415   19.8664 C   0  0  0  0  0  0  0  0  0  0  0  0
    8.6400  -13.2103   21.0313 C   0  0  0  0  0  0  0  0  0  0  0  0
    7.9899  -14.1025   21.8627 C   0  0  0  0  0  0  0  0  0  0  0  0
    8.5800  -14.6110   23.1148 C   0  0  0  0  0  0  0  0  0  0  0  0
    9.5312  -15.7627   22.8699 C   0  0  2  0  0  0  0  0  0  0  0  0
    8.8547  -16.9741   22.5219 N   0  0  0  0  0  0  0  0  0  0  0  0
   10.3198  -15.9812   24.1140 C   0  0  0  0  0  0  0  0  0  0  0  0
    9.7701  -16.4204   25.1623 O   0  0  0  0  0  0  0  0  0  0  0  0
    6.7330  -14.5163   21.4744 C   0  0  0  0  0  0  0  0  0  0  0  0
    6.1406  -14.0715   20.3174 C   0  0  0  0  0  0  0  0  0  0  0  0
   11.7060  -15.7082   24.1731 N   0  0  0  0  0  0  0  0  0  0  0  0
   12.4854  -16.0019   25.3478 C   0  0  0  0  0  0  0  0  0  0  0  0
   13.3627  -17.1767   25.1099 C   0  0  0  0  0  0  0  0  0  0  0  0
   14.5967  -17.0318   24.9173 O   0  0  0  0  0  0  0  0  0  0  0  0
   12.8323  -18.4594   25.0964 O   0  0  0  0  0  0  0  0  0  0  0  0
  2  1  1  1
  2  4  1  0
  3  2  1  0
  4 13  1  0
  4  5  2  0
  7  6  1  0
  8  7  2  0
  9  8  1  0
 10 16  1  0
 10  9  2  0
 11 10  1  0
 12 11  1  1
 13 12  1  0
 14 12  1  0
 14 18  1  0
 15 14  2  0
 16 17  2  0
 17  7  1  0
 19 18  1  0
 19 20  1  0
 20 21  2  0
 20 22  1  0
M  END
$$$$
