AYG.pdb
     RDKit          3D

 22 22  0  0  1  0  0  0  0  0999 V2000
    8.7287  -15.9978   18.6861 C   0  0  0  0  0  0  0  0  0  0  0  0
    7.9793  -14.7251   19.0273 C   0  0  2  0  0  0  0  0  0  0  0  0
    8.2719  -13.6946   18.0389 N   0  0  0  0  0  0  0  0  0  0  0  0
    8.3885  -14.2525   20.3762 C   0  0  0  0  0  0  0  0  0  0  0  0
    9.3197  -13.4348   20.4941 O   0  0  0  0  0  0  0  0  0  0  0  0
    7.2343  -11.3757   28.5145 O   0  0  0  0  0  0  0  0  0  0  0  0
    7.1243  -12.1079   27.3437 C   0  0  0  0  0  0  0  0  0  0  0  0
    7.8390  -13.2637   27.1411 C   0  0  0  0  0  0  0  0  0  0  0  0
    7.6908  -13.9499   25.9603 C   0  0  0  0  0  0  0  0  0  0  0  0
    6.8449  -13.5264   24.9528 C   0  0  0  0  0  0  0  0  0  0  0  0
    6.6792  -14.2563   23.6822 C   0  0  0  0  0  0  0  0  0  0  0  0
    7.8948  -14.1287   22.7892 C   0  0  2  0  0  0  0  0  0  0  0  0
    7.7086  -14.7429   21.5108 N   0  0  0  0  0  0  0  0  0  0  0  0
    9.0442  -14.7748   23.4811 C   0  0  0  0  0  0  0  0  0  0  0  0
    9.3903  -14.4139   24.6404 O   0  0  0  0  0  0  0  0  0  0  0  0
    6.1377  -12.3641   25.1780 C   0  0  0  0  0  0  0  0  0  0  0  0
    6.2575  -11.6485   26.3448 C   0  0  0  0  0  0  0  0  0  0  0  0
    9.7903  -15.8112   22.8738 N   0  0  0  0  0  0  0  0  0  0  0  0
   10.9173  -16.4184   23.5332 C   0  0  0  0  0  0  0  0  0  0  0  0
   11.5899  -17.3862   22.6290 C   0  0  0  0  0  0  0  0  0  0  0  0
   11.2919  -18.6074   22.6547 O   0  0  0  0  0  0  0  0  0  0  0  0
   12.5627  -16.9562   21.7369 O   0  0  0  0  0  0  0  0  0  0  0  0
  2  1  1  6
  2  4  1  0
  3  2  1  0
  4 13  1  0
  4  5  2  0
  7  6  1  0
  8  7  2  0
  9  8  1  0
 10 16  1  0
 10  9  2  0
 11 10  1  0
 12 11  1  1
 13 12  1  0
 14 12  1  0
 14 18  1  0
 15 14  2  0
 16 17  2  0
 17  7  1  0
 19 18  1  0
 19 20  1  0
 20 21  2  0
 20 22  1  0
M  END
$$$$
