FHE.pdb
     RDKit          3D

 31 32  0  0  1  0  0  0  0  0999 V2000
    6.1960  -16.3539   25.6015 N   0  0  0  0  0  0  0  0  0  0  0  0
    7.1666  -15.7361   24.7500 C   0  0  1  0  0  0  0  0  0  0  0  0
    7.9608  -14.6764   25.4820 C   0  0  0  0  0  0  0  0  0  0  0  0
    7.1650  -13.4688   25.7738 C   0  0  0  0  0  0  0  0  0  0  0  0
    7.1103  -12.4069   24.8974 C   0  0  0  0  0  0  0  0  0  0  0  0
    6.3690  -11.2775   25.1635 C   0  0  0  0  0  0  0  0  0  0  0  0
    5.6561  -11.2137   26.3553 C   0  0  0  0  0  0  0  0  0  0  0  0
    5.6841  -12.2605   27.2644 C   0  0  0  0  0  0  0  0  0  0  0  0
    6.4407  -13.3787   26.9611 C   0  0  0  0  0  0  0  0  0  0  0  0
    8.0772  -16.7546   24.1650 C   0  0  0  0  0  0  0  0  0  0  0  0
    8.3938  -17.7936   24.7826 O   0  0  0  0  0  0  0  0  0  0  0  0
    8.6010  -16.5284   22.8552 N   0  0  0  0  0  0  0  0  0  0  0  0
    9.6673  -17.3153   22.2963 C   0  0  1  0  0  0  0  0  0  0  0  0
    9.9949  -16.9220   20.8738 C   0  0  0  0  0  0  0  0  0  0  0  0
   10.9379  -17.8962   20.2454 C   0  0  0  0  0  0  0  0  0  0  0  0
   11.4345  -19.0088   20.8878 C   0  0  0  0  0  0  0  0  0  0  0  0
   12.2383  -19.6438   20.0337 N   0  0  0  0  0  0  0  0  0  0  0  0
   12.2608  -18.9588   18.8685 C   0  0  0  0  0  0  0  0  0  0  0  0
   11.4613  -17.9023   19.0276 N   0  0  0  0  0  0  0  0  0  0  0  0
   10.9044  -17.2443   23.0830 C   0  0  0  0  0  0  0  0  0  0  0  0
   11.2420  -16.1484   23.5889 O   0  0  0  0  0  0  0  0  0  0  0  0
   11.7032  -18.3978   23.2667 N   0  0  0  0  0  0  0  0  0  0  0  0
   12.3446  -18.6517   24.5452 C   0  0  1  0  0  0  0  0  0  0  0  0
   11.2485  -18.8296   25.5729 C   0  0  0  0  0  0  0  0  0  0  0  0
   11.4865  -18.0016   26.7952 C   0  0  0  0  0  0  0  0  0  0  0  0
   11.3360  -18.9144   27.9797 C   0  0  0  0  0  0  0  0  0  0  0  0
   11.4514  -20.1392   27.7546 O   0  0  0  0  0  0  0  0  0  0  0  0
   13.2159  -19.8252   24.4463 C   0  0  0  0  0  0  0  0  0  0  0  0
   12.8221  -21.0260   23.8523 O   0  0  0  0  0  0  0  0  0  0  0  0
   11.0847  -18.4376   29.2474 O   0  0  0  0  0  0  0  0  0  0  0  0
   14.3782  -19.7711   24.9123 O   0  0  0  0  0  0  0  0  0  0  0  0
  2  1  1  1
  2  3  1  0
  3  4  1  0
  4  5  2  0
  5  6  1  0
  7  6  2  0
  8  7  1  0
  9  8  2  0
  9  4  1  0
 10 11  2  0
 10  2  1  0
 12 10  1  0
 13 12  1  0
 13 14  1  6
 15 16  2  0
 15 14  1  0
 17 16  1  0
 18 19  2  0
 18 17  1  0
 19 15  1  0
 20 13  1  0
 20 22  1  0
 21 20  2  0
 23 22  1  0
 23 28  1  0
 23 24  1  1
 25 24  1  0
 26 27  2  0
 26 25  1  0
 28 29  1  0
 30 26  1  0
 31 28  2  0
M  END
$$$$
