FHE.pdb
     RDKit          3D

 31 32  0  0  1  0  0  0  0  0999 V2000
    5.5561  -17.0709   24.6186 N   0  0  0  0  0  0  0  0  0  0  0  0
    6.6199  -16.1144   24.6667 C   0  0  1  0  0  0  0  0  0  0  0  0
    6.8611  -15.6148   26.0744 C   0  0  0  0  0  0  0  0  0  0  0  0
    6.7949  -14.1444   26.1757 C   0  0  0  0  0  0  0  0  0  0  0  0
    7.8840  -13.3483   25.8949 C   0  0  0  0  0  0  0  0  0  0  0  0
    7.8285  -11.9756   25.9868 C   0  0  0  0  0  0  0  0  0  0  0  0
    6.6332  -11.3814   26.3755 C   0  0  0  0  0  0  0  0  0  0  0  0
    5.5139  -12.1463   26.6670 C   0  0  0  0  0  0  0  0  0  0  0  0
    5.6091  -13.5229   26.5630 C   0  0  0  0  0  0  0  0  0  0  0  0
    7.8682  -16.6873   24.0989 C   0  0  0  0  0  0  0  0  0  0  0  0
    8.2403  -17.8519   24.3568 O   0  0  0  0  0  0  0  0  0  0  0  0
    8.6595  -15.8722   23.2326 N   0  0  0  0  0  0  0  0  0  0  0  0
    9.8749  -16.3378   22.6204 C   0  0  1  0  0  0  0  0  0  0  0  0
   10.2785  -15.5055   21.4247 C   0  0  0  0  0  0  0  0  0  0  0  0
    9.2812  -15.6264   20.3183 C   0  0  0  0  0  0  0  0  0  0  0  0
    8.2276  -16.5135   20.3270 C   0  0  0  0  0  0  0  0  0  0  0  0
    7.5497  -16.3473   19.1905 N   0  0  0  0  0  0  0  0  0  0  0  0
    8.1502  -15.3772   18.4654 C   0  0  0  0  0  0  0  0  0  0  0  0
    9.1990  -14.9586   19.1763 N   0  0  0  0  0  0  0  0  0  0  0  0
   11.0084  -16.3727   23.5523 C   0  0  0  0  0  0  0  0  0  0  0  0
   11.5709  -15.2979   23.8671 O   0  0  0  0  0  0  0  0  0  0  0  0
   11.4582  -17.6034   24.0867 N   0  0  0  0  0  0  0  0  0  0  0  0
   12.6109  -17.6438   24.9697 C   0  0  1  0  0  0  0  0  0  0  0  0
   12.2989  -18.6288   26.0751 C   0  0  0  0  0  0  0  0  0  0  0  0
   11.0011  -18.3202   26.7510 C   0  0  0  0  0  0  0  0  0  0  0  0
   10.7635  -19.4068   27.7617 C   0  0  0  0  0  0  0  0  0  0  0  0
    9.5699  -19.6486   28.0461 O   0  0  0  0  0  0  0  0  0  0  0  0
   13.8108  -18.0114   24.2139 C   0  0  0  0  0  0  0  0  0  0  0  0
   15.1035  -17.9213   24.7341 O   0  0  0  0  0  0  0  0  0  0  0  0
   11.7970  -20.1036   28.3480 O   0  0  0  0  0  0  0  0  0  0  0  0
   13.6945  -18.4306   23.0385 O   0  0  0  0  0  0  0  0  0  0  0  0
  2  1  1  1
  2  3  1  0
  3  4  1  0
  4  5  2  0
  5  6  1  0
  7  6  2  0
  8  7  1  0
  9  8  2  0
  9  4  1  0
 10 11  2  0
 10  2  1  0
 12 10  1  0
 13 12  1  0
 13 14  1  6
 15 16  2  0
 15 14  1  0
 17 16  1  0
 18 19  2  0
 18 17  1  0
 19 15  1  0
 20 13  1  0
 20 22  1  0
 21 20  2  0
 23 22  1  0
 23 28  1  0
 23 24  1  1
 25 24  1  0
 26 27  2  0
 26 25  1  0
 28 29  1  0
 30 26  1  0
 31 28  2  0
M  END
$$$$
