FHE.pdb
     RDKit          3D

 31 32  0  0  1  0  0  0  0  0999 V2000
    5.8907  -16.7393   24.8569 N   0  0  0  0  0  0  0  0  0  0  0  0
    7.0322  -15.8890   24.7062 C   0  0  1  0  0  0  0  0  0  0  0  0
    7.4600  -15.2859   26.0264 C   0  0  0  0  0  0  0  0  0  0  0  0
    7.0498  -13.8759   26.1676 C   0  0  0  0  0  0  0  0  0  0  0  0
    7.6198  -12.8754   25.4107 C   0  0  0  0  0  0  0  0  0  0  0  0
    7.2409  -11.5577   25.5371 C   0  0  0  0  0  0  0  0  0  0  0  0
    6.2520  -11.2340   26.4591 C   0  0  0  0  0  0  0  0  0  0  0  0
    5.6528  -12.2107   27.2403 C   0  0  0  0  0  0  0  0  0  0  0  0
    6.0607  -13.5237   27.0842 C   0  0  0  0  0  0  0  0  0  0  0  0
    8.1610  -16.6293   24.0846 C   0  0  0  0  0  0  0  0  0  0  0  0
    8.4631  -17.7910   24.4317 O   0  0  0  0  0  0  0  0  0  0  0  0
    8.9173  -15.9831   23.0591 N   0  0  0  0  0  0  0  0  0  0  0  0
   10.0309  -16.6108   22.3999 C   0  0  1  0  0  0  0  0  0  0  0  0
   10.4577  -15.8727   21.1515 C   0  0  0  0  0  0  0  0  0  0  0  0
    9.3912  -15.9144   20.1055 C   0  0  0  0  0  0  0  0  0  0  0  0
    8.5756  -17.0017   19.8826 C   0  0  0  0  0  0  0  0  0  0  0  0
    7.7490  -16.6891   18.8838 N   0  0  0  0  0  0  0  0  0  0  0  0
    8.0235  -15.4314   18.4713 C   0  0  0  0  0  0  0  0  0  0  0  0
    9.0255  -14.9869   19.2322 N   0  0  0  0  0  0  0  0  0  0  0  0
   11.2059  -16.7504   23.2684 C   0  0  0  0  0  0  0  0  0  0  0  0
   12.0064  -15.7912   23.3682 O   0  0  0  0  0  0  0  0  0  0  0  0
   11.4299  -17.9515   23.9823 N   0  0  0  0  0  0  0  0  0  0  0  0
   12.3712  -17.9846   25.0882 C   0  0  1  0  0  0  0  0  0  0  0  0
   11.7575  -18.8357   26.1784 C   0  0  0  0  0  0  0  0  0  0  0  0
   12.6946  -19.0379   27.3260 C   0  0  0  0  0  0  0  0  0  0  0  0
   11.9507  -19.8276   28.3661 C   0  0  0  0  0  0  0  0  0  0  0  0
   10.8779  -19.3327   28.7764 O   0  0  0  0  0  0  0  0  0  0  0  0
   13.6635  -18.5032   24.6332 C   0  0  0  0  0  0  0  0  0  0  0  0
   13.7963  -19.4406   23.6068 O   0  0  0  0  0  0  0  0  0  0  0  0
   12.4168  -21.0313   28.8472 O   0  0  0  0  0  0  0  0  0  0  0  0
   14.7167  -18.0988   25.1791 O   0  0  0  0  0  0  0  0  0  0  0  0
  2  1  1  1
  2  3  1  0
  3  4  1  0
  4  5  2  0
  5  6  1  0
  7  6  2  0
  8  7  1  0
  9  8  2  0
  9  4  1  0
 10 11  2  0
 10  2  1  0
 12 10  1  0
 13 12  1  0
 13 14  1  6
 15 16  2  0
 15 14  1  0
 17 16  1  0
 18 19  2  0
 18 17  1  0
 19 15  1  0
 20 13  1  0
 20 22  1  0
 21 20  2  0
 23 22  1  0
 23 28  1  0
 23 24  1  1
 25 24  1  0
 26 27  2  0
 26 25  1  0
 28 29  1  0
 30 26  1  0
 31 28  2  0
M  END
$$$$
