FHE.pdb
     RDKit          3D

 31 32  0  0  1  0  0  0  0  0999 V2000
    6.1117  -16.2725   24.8585 N   0  0  0  0  0  0  0  0  0  0  0  0
    7.2798  -15.5250   24.5043 C   0  0  1  0  0  0  0  0  0  0  0  0
    7.8899  -14.8361   25.7055 C   0  0  0  0  0  0  0  0  0  0  0  0
    7.2393  -13.5486   26.0146 C   0  0  0  0  0  0  0  0  0  0  0  0
    7.4337  -12.4313   25.2319 C   0  0  0  0  0  0  0  0  0  0  0  0
    6.8289  -11.2271   25.5146 C   0  0  0  0  0  0  0  0  0  0  0  0
    5.9976  -11.1433   26.6257 C   0  0  0  0  0  0  0  0  0  0  0  0
    5.7752  -12.2441   27.4393 C   0  0  0  0  0  0  0  0  0  0  0  0
    6.4009  -13.4369   27.1224 C   0  0  0  0  0  0  0  0  0  0  0  0
    8.2833  -16.3994   23.8431 C   0  0  0  0  0  0  0  0  0  0  0  0
    8.4704  -17.5819   24.2008 O   0  0  0  0  0  0  0  0  0  0  0  0
    9.0523  -15.8608   22.7662 N   0  0  0  0  0  0  0  0  0  0  0  0
   10.0988  -16.5987   22.1113 C   0  0  1  0  0  0  0  0  0  0  0  0
   10.5128  -15.9767   20.7972 C   0  0  0  0  0  0  0  0  0  0  0  0
    9.4793  -16.2012   19.7414 C   0  0  0  0  0  0  0  0  0  0  0  0
    8.3591  -16.9832   19.9167 C   0  0  0  0  0  0  0  0  0  0  0  0
    7.6659  -16.9576   18.7776 N   0  0  0  0  0  0  0  0  0  0  0  0
    8.3216  -16.1787   17.8884 C   0  0  0  0  0  0  0  0  0  0  0  0
    9.4193  -15.7335   18.5027 N   0  0  0  0  0  0  0  0  0  0  0  0
   11.3002  -16.7475   22.9413 C   0  0  0  0  0  0  0  0  0  0  0  0
   12.0320  -15.7490   23.1374 O   0  0  0  0  0  0  0  0  0  0  0  0
   11.6259  -18.0011   23.5112 N   0  0  0  0  0  0  0  0  0  0  0  0
   12.5997  -18.0893   24.5855 C   0  0  1  0  0  0  0  0  0  0  0  0
   12.0144  -18.9877   25.6531 C   0  0  0  0  0  0  0  0  0  0  0  0
   12.9932  -19.2680   26.7484 C   0  0  0  0  0  0  0  0  0  0  0  0
   12.3006  -20.1628   27.7375 C   0  0  0  0  0  0  0  0  0  0  0  0
   12.4320  -21.3937   27.5591 O   0  0  0  0  0  0  0  0  0  0  0  0
   13.8751  -18.5913   24.0682 C   0  0  0  0  0  0  0  0  0  0  0  0
   13.9756  -19.4332   22.9587 O   0  0  0  0  0  0  0  0  0  0  0  0
   11.5596  -19.6640   28.7861 O   0  0  0  0  0  0  0  0  0  0  0  0
   14.9431  -18.2611   24.6350 O   0  0  0  0  0  0  0  0  0  0  0  0
  2  1  1  1
  2  3  1  0
  3  4  1  0
  4  5  2  0
  5  6  1  0
  7  6  2  0
  8  7  1  0
  9  8  2  0
  9  4  1  0
 10 11  2  0
 10  2  1  0
 12 10  1  0
 13 12  1  0
 13 14  1  6
 15 16  2  0
 15 14  1  0
 17 16  1  0
 18 19  2  0
 18 17  1  0
 19 15  1  0
 20 13  1  0
 20 22  1  0
 21 20  2  0
 23 22  1  0
 23 28  1  0
 23 24  1  1
 25 24  1  0
 26 27  2  0
 26 25  1  0
 28 29  1  0
 30 26  1  0
 31 28  2  0
M  END
$$$$
