FHE.pdb
     RDKit          3D

 31 32  0  0  1  0  0  0  0  0999 V2000
    5.9868  -17.7769   25.8523 N   0  0  0  0  0  0  0  0  0  0  0  0
    6.2815  -16.4102   25.5457 C   0  0  1  0  0  0  0  0  0  0  0  0
    6.9330  -15.7018   26.7134 C   0  0  0  0  0  0  0  0  0  0  0  0
    6.6095  -14.2632   26.7588 C   0  0  0  0  0  0  0  0  0  0  0  0
    5.3087  -13.8142   26.8311 C   0  0  0  0  0  0  0  0  0  0  0  0
    5.0002  -12.4730   26.8745 C   0  0  0  0  0  0  0  0  0  0  0  0
    6.0384  -11.5489   26.8442 C   0  0  0  0  0  0  0  0  0  0  0  0
    7.3612  -11.9589   26.7717 C   0  0  0  0  0  0  0  0  0  0  0  0
    7.6309  -13.3154   26.7299 C   0  0  0  0  0  0  0  0  0  0  0  0
    7.1412  -16.3159   24.3371 C   0  0  0  0  0  0  0  0  0  0  0  0
    8.0716  -17.1214   24.1209 O   0  0  0  0  0  0  0  0  0  0  0  0
    6.8870  -15.2678   23.4001 N   0  0  0  0  0  0  0  0  0  0  0  0
    7.6673  -15.0847   22.2058 C   0  0  1  0  0  0  0  0  0  0  0  0
    7.2403  -13.8698   21.4140 C   0  0  0  0  0  0  0  0  0  0  0  0
    8.0268  -13.7427   20.1497 C   0  0  0  0  0  0  0  0  0  0  0  0
    7.6288  -14.2691   18.9408 C   0  0  0  0  0  0  0  0  0  0  0  0
    8.5648  -13.9664   18.0402 N   0  0  0  0  0  0  0  0  0  0  0  0
    9.5434  -13.2623   18.6517 C   0  0  0  0  0  0  0  0  0  0  0  0
    9.1885  -13.1424   19.9324 N   0  0  0  0  0  0  0  0  0  0  0  0
    9.1058  -14.9689   22.4739 C   0  0  0  0  0  0  0  0  0  0  0  0
    9.5012  -14.1399   23.3267 O   0  0  0  0  0  0  0  0  0  0  0  0
   10.0314  -15.7826   21.7785 N   0  0  0  0  0  0  0  0  0  0  0  0
   11.4591  -15.5480   21.9087 C   0  0  1  0  0  0  0  0  0  0  0  0
   12.0111  -16.6186   22.8244 C   0  0  0  0  0  0  0  0  0  0  0  0
   11.5779  -17.9886   22.4101 C   0  0  0  0  0  0  0  0  0  0  0  0
   12.3369  -18.9656   23.2633 C   0  0  0  0  0  0  0  0  0  0  0  0
   13.2173  -18.4837   24.0094 O   0  0  0  0  0  0  0  0  0  0  0  0
   12.0929  -15.5589   20.5880 C   0  0  0  0  0  0  0  0  0  0  0  0
   11.4121  -15.8815   19.4123 O   0  0  0  0  0  0  0  0  0  0  0  0
   12.0840  -20.3193   23.2322 O   0  0  0  0  0  0  0  0  0  0  0  0
   13.3074  -15.2672   20.4847 O   0  0  0  0  0  0  0  0  0  0  0  0
  2  1  1  1
  2  3  1  0
  3  4  1  0
  4  5  2  0
  5  6  1  0
  7  6  2  0
  8  7  1  0
  9  8  2  0
  9  4  1  0
 10 11  2  0
 10  2  1  0
 12 10  1  0
 13 12  1  0
 13 14  1  1
 15 16  2  0
 15 14  1  0
 17 16  1  0
 18 19  2  0
 18 17  1  0
 19 15  1  0
 20 13  1  0
 20 22  1  0
 21 20  2  0
 23 22  1  0
 23 28  1  0
 23 24  1  1
 25 24  1  0
 26 27  2  0
 26 25  1  0
 28 29  1  0
 30 26  1  0
 31 28  2  0
M  END
$$$$
