FHE.pdb
     RDKit          3D

 31 32  0  0  1  0  0  0  0  0999 V2000
    5.9112  -17.5274   25.8348 N   0  0  0  0  0  0  0  0  0  0  0  0
    6.5227  -16.3698   25.2560 C   0  0  1  0  0  0  0  0  0  0  0  0
    7.3798  -15.6283   26.2586 C   0  0  0  0  0  0  0  0  0  0  0  0
    6.9972  -14.2101   26.3959 C   0  0  0  0  0  0  0  0  0  0  0  0
    6.0724  -13.7955   27.3295 C   0  0  0  0  0  0  0  0  0  0  0  0
    5.7116  -12.4734   27.4631 C   0  0  0  0  0  0  0  0  0  0  0  0
    6.3028  -11.5333   26.6267 C   0  0  0  0  0  0  0  0  0  0  0  0
    7.2380  -11.9088   25.6741 C   0  0  0  0  0  0  0  0  0  0  0  0
    7.5745  -13.2470   25.5704 C   0  0  0  0  0  0  0  0  0  0  0  0
    7.3257  -16.7409   24.0618 C   0  0  0  0  0  0  0  0  0  0  0  0
    7.9601  -17.8155   23.9972 O   0  0  0  0  0  0  0  0  0  0  0  0
    7.3663  -15.8334   22.9591 N   0  0  0  0  0  0  0  0  0  0  0  0
    8.2645  -15.9978   21.8479 C   0  0  1  0  0  0  0  0  0  0  0  0
    8.0112  -14.9970   20.7436 C   0  0  0  0  0  0  0  0  0  0  0  0
    8.8725  -15.2725   19.5539 C   0  0  0  0  0  0  0  0  0  0  0  0
    9.9087  -14.4598   19.1506 C   0  0  0  0  0  0  0  0  0  0  0  0
   10.4530  -15.0079   18.0634 N   0  0  0  0  0  0  0  0  0  0  0  0
    9.7852  -16.1463   17.7712 C   0  0  0  0  0  0  0  0  0  0  0  0
    8.8309  -16.2805   18.6941 N   0  0  0  0  0  0  0  0  0  0  0  0
    9.6772  -15.8993   22.2341 C   0  0  0  0  0  0  0  0  0  0  0  0
   10.0239  -15.0170   23.0541 O   0  0  0  0  0  0  0  0  0  0  0  0
   10.6326  -16.7886   21.6875 N   0  0  0  0  0  0  0  0  0  0  0  0
   12.0131  -16.7522   22.1384 C   0  0  1  0  0  0  0  0  0  0  0  0
   12.0181  -17.1145   23.6074 C   0  0  0  0  0  0  0  0  0  0  0  0
   11.7074  -18.5604   23.8292 C   0  0  0  0  0  0  0  0  0  0  0  0
   11.9454  -18.8419   25.2862 C   0  0  0  0  0  0  0  0  0  0  0  0
   12.4183  -17.9025   25.9628 O   0  0  0  0  0  0  0  0  0  0  0  0
   12.8292  -17.6644   21.3335 C   0  0  0  0  0  0  0  0  0  0  0  0
   14.2253  -17.6710   21.3591 O   0  0  0  0  0  0  0  0  0  0  0  0
   11.6614  -20.0643   25.8542 O   0  0  0  0  0  0  0  0  0  0  0  0
   12.2665  -18.4893   20.5760 O   0  0  0  0  0  0  0  0  0  0  0  0
  2  1  1  1
  2  3  1  0
  3  4  1  0
  4  5  2  0
  5  6  1  0
  7  6  2  0
  8  7  1  0
  9  8  2  0
  9  4  1  0
 10 11  2  0
 10  2  1  0
 12 10  1  0
 13 12  1  0
 13 14  1  6
 15 16  2  0
 15 14  1  0
 17 16  1  0
 18 19  2  0
 18 17  1  0
 19 15  1  0
 20 13  1  0
 20 22  1  0
 21 20  2  0
 23 22  1  0
 23 28  1  0
 23 24  1  1
 25 24  1  0
 26 27  2  0
 26 25  1  0
 28 29  1  0
 30 26  1  0
 31 28  2  0
M  END
$$$$
