FHE.pdb
     RDKit          3D

 31 32  0  0  1  0  0  0  0  0999 V2000
    9.7248  -16.2162   18.8530 N   0  0  0  0  0  0  0  0  0  0  0  0
   10.5980  -15.0830   18.8991 C   0  0  1  0  0  0  0  0  0  0  0  0
   10.2962  -14.1907   20.0834 C   0  0  0  0  0  0  0  0  0  0  0  0
    8.9218  -13.6551   20.0568 C   0  0  0  0  0  0  0  0  0  0  0  0
    7.9854  -14.0132   21.0023 C   0  0  0  0  0  0  0  0  0  0  0  0
    6.7014  -13.5163   20.9835 C   0  0  0  0  0  0  0  0  0  0  0  0
    6.3458  -12.6263   19.9765 C   0  0  0  0  0  0  0  0  0  0  0  0
    7.2579  -12.2402   19.0059 C   0  0  0  0  0  0  0  0  0  0  0  0
    8.5387  -12.7612   19.0585 C   0  0  0  0  0  0  0  0  0  0  0  0
   12.0197  -15.5153   18.9250 C   0  0  0  0  0  0  0  0  0  0  0  0
   12.3787  -16.5812   19.4693 O   0  0  0  0  0  0  0  0  0  0  0  0
   12.9978  -14.6786   18.3050 N   0  0  0  0  0  0  0  0  0  0  0  0
   14.4112  -14.8506   18.5082 C   0  0  1  0  0  0  0  0  0  0  0  0
   15.2398  -13.9842   17.5872 C   0  0  0  0  0  0  0  0  0  0  0  0
   16.6698  -14.4179   17.5757 C   0  0  0  0  0  0  0  0  0  0  0  0
   17.0737  -15.7345   17.5968 C   0  0  0  0  0  0  0  0  0  0  0  0
   18.4073  -15.7487   17.5779 N   0  0  0  0  0  0  0  0  0  0  0  0
   18.8540  -14.4733   17.5455 C   0  0  0  0  0  0  0  0  0  0  0  0
   17.7755  -13.6875   17.5450 N   0  0  0  0  0  0  0  0  0  0  0  0
   14.8290  -14.5750   19.8881 C   0  0  0  0  0  0  0  0  0  0  0  0
   14.5928  -13.4475   20.3818 O   0  0  0  0  0  0  0  0  0  0  0  0
   15.4889  -15.5693   20.6485 N   0  0  0  0  0  0  0  0  0  0  0  0
   15.9585  -15.2766   21.9916 C   0  0  1  0  0  0  0  0  0  0  0  0
   14.9821  -15.9088   22.9593 C   0  0  0  0  0  0  0  0  0  0  0  0
   14.7883  -17.3665   22.6877 C   0  0  0  0  0  0  0  0  0  0  0  0
   14.0574  -17.9396   23.8692 C   0  0  0  0  0  0  0  0  0  0  0  0
   13.8311  -17.1544   24.8159 O   0  0  0  0  0  0  0  0  0  0  0  0
   17.3243  -15.7765   22.1669 C   0  0  0  0  0  0  0  0  0  0  0  0
   18.1069  -15.4950   23.2887 O   0  0  0  0  0  0  0  0  0  0  0  0
   13.6548  -19.2561   23.9161 O   0  0  0  0  0  0  0  0  0  0  0  0
   17.8366  -16.4953   21.2771 O   0  0  0  0  0  0  0  0  0  0  0  0
  2  1  1  1
  2  3  1  0
  3  4  1  0
  4  5  2  0
  5  6  1  0
  7  6  2  0
  8  7  1  0
  9  8  2  0
  9  4  1  0
 10 11  2  0
 10  2  1  0
 12 10  1  0
 13 12  1  0
 13 14  1  6
 15 16  2  0
 15 14  1  0
 17 16  1  0
 18 19  2  0
 18 17  1  0
 19 15  1  0
 20 13  1  0
 20 22  1  0
 21 20  2  0
 23 22  1  0
 23 28  1  0
 23 24  1  1
 25 24  1  0
 26 27  2  0
 26 25  1  0
 28 29  1  0
 30 26  1  0
 31 28  2  0
M  END
$$$$
