FHE.pdb
     RDKit          3D

 31 32  0  0  1  0  0  0  0  0999 V2000
    5.3505  -16.8851   24.2600 N   0  0  0  0  0  0  0  0  0  0  0  0
    6.3612  -15.8892   24.4481 C   0  0  1  0  0  0  0  0  0  0  0  0
    6.6823  -15.6862   25.9129 C   0  0  0  0  0  0  0  0  0  0  0  0
    6.8449  -14.2635   26.2681 C   0  0  0  0  0  0  0  0  0  0  0  0
    5.8065  -13.5230   26.7899 C   0  0  0  0  0  0  0  0  0  0  0  0
    5.9520  -12.1952   27.1241 C   0  0  0  0  0  0  0  0  0  0  0  0
    7.1877  -11.5896   26.9263 C   0  0  0  0  0  0  0  0  0  0  0  0
    8.2584  -12.2993   26.4038 C   0  0  0  0  0  0  0  0  0  0  0  0
    8.0729  -13.6318   26.0802 C   0  0  0  0  0  0  0  0  0  0  0  0
    7.5916  -16.2392   23.6915 C   0  0  0  0  0  0  0  0  0  0  0  0
    7.9526  -17.4236   23.5242 O   0  0  0  0  0  0  0  0  0  0  0  0
    8.3784  -15.1804   23.1427 N   0  0  0  0  0  0  0  0  0  0  0  0
    9.5809  -15.4139   22.3891 C   0  0  1  0  0  0  0  0  0  0  0  0
    9.8527  -14.3241   21.3772 C   0  0  0  0  0  0  0  0  0  0  0  0
    8.8222  -14.3198   20.2950 C   0  0  0  0  0  0  0  0  0  0  0  0
    7.9168  -13.3003   20.1001 C   0  0  0  0  0  0  0  0  0  0  0  0
    7.1568  -13.6289   19.0545 N   0  0  0  0  0  0  0  0  0  0  0  0
    7.5608  -14.8306   18.5854 C   0  0  0  0  0  0  0  0  0  0  0  0
    8.5738  -15.2251   19.3592 N   0  0  0  0  0  0  0  0  0  0  0  0
   10.7707  -15.5520   23.2376 C   0  0  0  0  0  0  0  0  0  0  0  0
   11.0057  -14.6769   24.1035 O   0  0  0  0  0  0  0  0  0  0  0  0
   11.6388  -16.6582   23.0787 N   0  0  0  0  0  0  0  0  0  0  0  0
   12.7335  -16.8730   24.0092 C   0  0  1  0  0  0  0  0  0  0  0  0
   12.5399  -18.2408   24.6264 C   0  0  0  0  0  0  0  0  0  0  0  0
   12.1440  -18.1552   26.0659 C   0  0  0  0  0  0  0  0  0  0  0  0
   12.1214  -19.5602   26.5991 C   0  0  0  0  0  0  0  0  0  0  0  0
   12.4799  -20.4598   25.8078 O   0  0  0  0  0  0  0  0  0  0  0  0
   14.0166  -16.7488   23.3132 C   0  0  0  0  0  0  0  0  0  0  0  0
   15.2393  -16.6174   23.9748 O   0  0  0  0  0  0  0  0  0  0  0  0
   11.7288  -19.8510   27.8870 O   0  0  0  0  0  0  0  0  0  0  0  0
   14.0417  -16.7584   22.0602 O   0  0  0  0  0  0  0  0  0  0  0  0
  2  1  1  1
  2  3  1  0
  3  4  1  0
  4  5  2  0
  5  6  1  0
  7  6  2  0
  8  7  1  0
  9  8  2  0
  9  4  1  0
 10 11  2  0
 10  2  1  0
 12 10  1  0
 13 12  1  0
 13 14  1  6
 15 16  2  0
 15 14  1  0
 17 16  1  0
 18 19  2  0
 18 17  1  0
 19 15  1  0
 20 13  1  0
 20 22  1  0
 21 20  2  0
 23 22  1  0
 23 28  1  0
 23 24  1  6
 25 24  1  0
 26 27  2  0
 26 25  1  0
 28 29  1  0
 30 26  1  0
 31 28  2  0
M  END
$$$$
