FHE.pdb
     RDKit          3D

 31 32  0  0  1  0  0  0  0  0999 V2000
    6.6841  -15.7807   25.3808 N   0  0  0  0  0  0  0  0  0  0  0  0
    7.4655  -14.9498   24.5160 C   0  0  1  0  0  0  0  0  0  0  0  0
    8.2177  -13.8880   25.2883 C   0  0  0  0  0  0  0  0  0  0  0  0
    7.3197  -12.9458   25.9828 C   0  0  0  0  0  0  0  0  0  0  0  0
    6.4136  -12.1674   25.2958 C   0  0  0  0  0  0  0  0  0  0  0  0
    5.5723  -11.2867   25.9380 C   0  0  0  0  0  0  0  0  0  0  0  0
    5.6449  -11.1850   27.3227 C   0  0  0  0  0  0  0  0  0  0  0  0
    6.5426  -11.9504   28.0516 C   0  0  0  0  0  0  0  0  0  0  0  0
    7.3715  -12.8241   27.3702 C   0  0  0  0  0  0  0  0  0  0  0  0
    8.4073  -15.7691   23.7095 C   0  0  0  0  0  0  0  0  0  0  0  0
    8.6433  -16.9661   23.9793 O   0  0  0  0  0  0  0  0  0  0  0  0
    9.0574  -15.1589   22.5931 N   0  0  0  0  0  0  0  0  0  0  0  0
   10.0718  -15.8263   21.8224 C   0  0  1  0  0  0  0  0  0  0  0  0
   10.4385  -15.0694   20.5662 C   0  0  0  0  0  0  0  0  0  0  0  0
    9.2284  -14.7641   19.7443 C   0  0  0  0  0  0  0  0  0  0  0  0
    7.9629  -15.2196   20.0411 C   0  0  0  0  0  0  0  0  0  0  0  0
    7.1362  -14.7577   19.1020 N   0  0  0  0  0  0  0  0  0  0  0  0
    7.8495  -14.0222   18.2202 C   0  0  0  0  0  0  0  0  0  0  0  0
    9.1170  -14.0445   18.6367 N   0  0  0  0  0  0  0  0  0  0  0  0
   11.3038  -16.0664   22.5833 C   0  0  0  0  0  0  0  0  0  0  0  0
   12.1712  -15.1634   22.6379 O   0  0  0  0  0  0  0  0  0  0  0  0
   11.5074  -17.3004   23.2453 N   0  0  0  0  0  0  0  0  0  0  0  0
   12.6460  -17.4813   24.1291 C   0  0  1  0  0  0  0  0  0  0  0  0
   12.1083  -17.9138   25.4757 C   0  0  0  0  0  0  0  0  0  0  0  0
   11.1557  -19.0604   25.3568 C   0  0  0  0  0  0  0  0  0  0  0  0
   10.8971  -19.5622   26.7496 C   0  0  0  0  0  0  0  0  0  0  0  0
   10.4239  -20.7159   26.8449 O   0  0  0  0  0  0  0  0  0  0  0  0
   13.5763  -18.4579   23.5573 C   0  0  0  0  0  0  0  0  0  0  0  0
   13.3136  -19.1755   22.3885 O   0  0  0  0  0  0  0  0  0  0  0  0
   11.1632  -18.8006   27.8662 O   0  0  0  0  0  0  0  0  0  0  0  0
   14.6696  -18.6764   24.1298 O   0  0  0  0  0  0  0  0  0  0  0  0
  2  1  1  1
  2  3  1  0
  3  4  1  0
  4  5  2  0
  5  6  1  0
  7  6  2  0
  8  7  1  0
  9  8  2  0
  9  4  1  0
 10 11  2  0
 10  2  1  0
 12 10  1  0
 13 12  1  0
 13 14  1  6
 15 16  2  0
 15 14  1  0
 17 16  1  0
 18 19  2  0
 18 17  1  0
 19 15  1  0
 20 13  1  0
 20 22  1  0
 21 20  2  0
 23 22  1  0
 23 28  1  0
 23 24  1  1
 25 24  1  0
 26 27  2  0
 26 25  1  0
 28 29  1  0
 30 26  1  0
 31 28  2  0
M  END
$$$$
