SCL.pdb
     RDKit          3D

 21 20  0  0  1  0  0  0  0  0999 V2000
   17.5239  -12.1926  -15.1658 O   0  0  0  0  0  0  0  0  0  0  0  0
   18.0568  -11.0920  -14.5412 C   0  0  0  0  0  0  0  0  0  0  0  0
   17.9504   -9.8813  -15.4412 C   0  0  2  0  0  0  0  0  0  0  0  0
   18.8060  -10.1413  -16.5844 N   0  0  0  0  0  0  0  0  0  0  0  0
   18.4384   -8.6529  -14.7760 C   0  0  0  0  0  0  0  0  0  0  0  0
   17.9228   -8.2371  -13.7052 O   0  0  0  0  0  0  0  0  0  0  0  0
   19.5109   -7.8653  -15.2926 N   0  0  0  0  0  0  0  0  0  0  0  0
   20.0416   -6.7056  -14.5880 C   0  0  1  0  0  0  0  0  0  0  0  0
   21.5520   -6.7412  -14.7039 C   0  0  0  0  0  0  0  0  0  0  0  0
   22.2817   -7.9924  -13.6198 S   0  0  0  0  0  0  0  0  0  0  0  0
   19.6046   -5.4380  -15.2582 C   0  0  0  0  0  0  0  0  0  0  0  0
   19.7506   -5.3196  -16.5005 O   0  0  0  0  0  0  0  0  0  0  0  0
   15.0361   -3.1928  -13.8277 C   0  0  0  0  0  0  0  0  0  0  0  0
   16.2081   -3.5411  -14.7292 C   0  0  1  0  0  0  0  0  0  0  0  0
   15.8067   -3.4760  -16.1874 C   0  0  0  0  0  0  0  0  0  0  0  0
   17.3412   -2.5741  -14.5038 C   0  0  0  0  0  0  0  0  0  0  0  0
   18.5805   -3.1161  -15.1344 C   0  0  2  0  0  0  0  0  0  0  0  0
   19.0315   -4.3624  -14.5488 N   0  0  0  0  0  0  0  0  0  0  0  0
   19.7211   -2.1416  -14.9883 C   0  0  0  0  0  0  0  0  0  0  0  0
   19.6704   -1.0513  -15.6048 O   0  0  0  0  0  0  0  0  0  0  0  0
   20.7992   -2.4305  -14.1994 O   0  0  0  0  0  0  0  0  0  0  0  0
  2  1  1  0
  3  2  1  0
  3  4  1  6
  5  3  1  0
  5  6  2  0
  7  5  1  0
  8  7  1  0
  9 10  1  0
  8  9  1  6
 11 12  2  0
 11  8  1  0
 14 13  1  1
 14 15  1  0
 16 14  1  0
 17 18  1  0
 17 16  1  1
 18 11  1  0
 19 17  1  0
 20 19  2  0
 21 19  1  0
M  END
$$$$
