SCL.pdb
     RDKit          3D

 21 20  0  0  1  0  0  0  0  0999 V2000
   26.6070  -19.5063  -16.4947 O   0  0  0  0  0  0  0  0  0  0  0  0
   27.7034  -19.4532  -15.6698 C   0  0  0  0  0  0  0  0  0  0  0  0
   28.0200  -20.8326  -15.1367 C   0  0  2  0  0  0  0  0  0  0  0  0
   28.0780  -21.7156  -16.2870 N   0  0  0  0  0  0  0  0  0  0  0  0
   26.9617  -21.3319  -14.2309 C   0  0  0  0  0  0  0  0  0  0  0  0
   26.1084  -22.1725  -14.6188 O   0  0  0  0  0  0  0  0  0  0  0  0
   26.8354  -20.9028  -12.8754 N   0  0  0  0  0  0  0  0  0  0  0  0
   25.6765  -21.2294  -12.0548 C   0  0  1  0  0  0  0  0  0  0  0  0
   25.9736  -20.7931  -10.6345 C   0  0  0  0  0  0  0  0  0  0  0  0
   24.6123  -21.1873   -9.5099 S   0  0  0  0  0  0  0  0  0  0  0  0
   24.4828  -20.4346  -12.4911 C   0  0  0  0  0  0  0  0  0  0  0  0
   24.5627  -19.1814  -12.5330 O   0  0  0  0  0  0  0  0  0  0  0  0
   22.4635  -21.1023  -16.9074 C   0  0  0  0  0  0  0  0  0  0  0  0
   22.7148  -20.3715  -15.5997 C   0  0  1  0  0  0  0  0  0  0  0  0
   22.7979  -18.8765  -15.8230 C   0  0  0  0  0  0  0  0  0  0  0  0
   21.5963  -20.6463  -14.6285 C   0  0  0  0  0  0  0  0  0  0  0  0
   22.0590  -20.3287  -13.2457 C   0  0  2  0  0  0  0  0  0  0  0  0
   23.2625  -21.0375  -12.8600 N   0  0  0  0  0  0  0  0  0  0  0  0
   21.0052  -20.7003  -12.2340 C   0  0  0  0  0  0  0  0  0  0  0  0
   19.9336  -20.0504  -12.2075 O   0  0  0  0  0  0  0  0  0  0  0  0
   21.2029  -21.7274  -11.3542 O   0  0  0  0  0  0  0  0  0  0  0  0
  2  1  1  0
  3  2  1  0
  3  4  1  6
  5  3  1  0
  5  6  2  0
  7  5  1  0
  8  7  1  0
  9 10  1  0
  8  9  1  1
 11 12  2  0
 11  8  1  0
 14 13  1  6
 14 15  1  0
 16 14  1  0
 17 18  1  0
 17 16  1  6
 18 11  1  0
 19 17  1  0
 20 19  2  0
 21 19  1  0
M  END
$$$$
