SCL.pdb
     RDKit          3D

 21 20  0  0  1  0  0  0  0  0999 V2000
   18.6601  -16.5814  -14.0512 O   0  0  0  0  0  0  0  0  0  0  0  0
   19.4366  -15.6093  -14.6324 C   0  0  0  0  0  0  0  0  0  0  0  0
   18.8036  -15.1416  -15.9238 C   0  0  2  0  0  0  0  0  0  0  0  0
   18.9556  -16.2278  -16.8742 N   0  0  0  0  0  0  0  0  0  0  0  0
   19.4887  -13.9522  -16.4766 C   0  0  0  0  0  0  0  0  0  0  0  0
   20.5835  -14.0513  -17.0904 O   0  0  0  0  0  0  0  0  0  0  0  0
   18.9653  -12.6298  -16.3551 N   0  0  0  0  0  0  0  0  0  0  0  0
   19.6593  -11.4610  -16.8799 C   0  0  1  0  0  0  0  0  0  0  0  0
   18.6202  -10.5256  -17.4642 C   0  0  0  0  0  0  0  0  0  0  0  0
   19.3612   -8.9917  -18.0734 S   0  0  0  0  0  0  0  0  0  0  0  0
   20.3229  -10.7018  -15.7707 C   0  0  0  0  0  0  0  0  0  0  0  0
   19.7149  -10.5512  -14.6816 O   0  0  0  0  0  0  0  0  0  0  0  0
   25.7412  -11.0143  -15.3266 C   0  0  0  0  0  0  0  0  0  0  0  0
   24.2566  -10.9290  -15.0167 C   0  0  1  0  0  0  0  0  0  0  0  0
   23.9509  -11.5345  -13.6633 C   0  0  0  0  0  0  0  0  0  0  0  0
   23.8107   -9.4899  -15.0060 C   0  0  0  0  0  0  0  0  0  0  0  0
   22.3271   -9.4378  -14.8536 C   0  0  2  0  0  0  0  0  0  0  0  0
   21.6119  -10.1440  -15.8974 N   0  0  0  0  0  0  0  0  0  0  0  0
   21.8382   -8.0125  -14.8942 C   0  0  0  0  0  0  0  0  0  0  0  0
   22.0283   -7.2772  -13.8969 O   0  0  0  0  0  0  0  0  0  0  0  0
   21.1964   -7.5179  -15.9950 O   0  0  0  0  0  0  0  0  0  0  0  0
  2  1  1  0
  3  2  1  0
  3  4  1  6
  5  3  1  0
  5  6  2  0
  7  5  1  0
  8  7  1  0
  9 10  1  0
  8  9  1  1
 11 12  2  0
 11  8  1  0
 14 13  1  1
 14 15  1  0
 16 14  1  0
 17 18  1  0
 17 16  1  6
 18 11  1  0
 19 17  1  0
 20 19  2  0
 21 19  1  0
M  END
$$$$
