SCL.pdb
     RDKit          3D

 21 20  0  0  1  0  0  0  0  0999 V2000
   22.9678  -20.2505  -10.1681 O   0  0  0  0  0  0  0  0  0  0  0  0
   23.7020  -21.4052  -10.0530 C   0  0  0  0  0  0  0  0  0  0  0  0
   25.1798  -21.0840  -10.0580 C   0  0  2  0  0  0  0  0  0  0  0  0
   25.3922  -20.1047   -9.0081 N   0  0  0  0  0  0  0  0  0  0  0  0
   25.6105  -20.4807  -11.3387 C   0  0  0  0  0  0  0  0  0  0  0  0
   25.6592  -19.2320  -11.4926 O   0  0  0  0  0  0  0  0  0  0  0  0
   25.9950  -21.2590  -12.4718 N   0  0  0  0  0  0  0  0  0  0  0  0
   26.3731  -20.6575  -13.7439 C   0  0  1  0  0  0  0  0  0  0  0  0
   27.5080  -21.4750  -14.3267 C   0  0  0  0  0  0  0  0  0  0  0  0
   28.0045  -20.8713  -15.9583 S   0  0  0  0  0  0  0  0  0  0  0  0
   25.2455  -20.7544  -14.7269 C   0  0  0  0  0  0  0  0  0  0  0  0
   24.6673  -21.8579  -14.8895 O   0  0  0  0  0  0  0  0  0  0  0  0
   21.2918  -17.0260  -15.3263 C   0  0  0  0  0  0  0  0  0  0  0  0
   22.1221  -18.2973  -15.2812 C   0  0  1  0  0  0  0  0  0  0  0  0
   21.2351  -19.5187  -15.1656 C   0  0  0  0  0  0  0  0  0  0  0  0
   22.9454  -18.4240  -16.5366 C   0  0  0  0  0  0  0  0  0  0  0  0
   23.7435  -19.6835  -16.4740 C   0  0  2  0  0  0  0  0  0  0  0  0
   24.8013  -19.6509  -15.4842 N   0  0  0  0  0  0  0  0  0  0  0  0
   24.4098  -19.9569  -17.7980 C   0  0  0  0  0  0  0  0  0  0  0  0
   23.6963  -20.2369  -18.7900 O   0  0  0  0  0  0  0  0  0  0  0  0
   25.7694  -19.9037  -17.9280 O   0  0  0  0  0  0  0  0  0  0  0  0
  2  1  1  0
  3  2  1  0
  3  4  1  1
  5  3  1  0
  5  6  2  0
  7  5  1  0
  8  7  1  0
  9 10  1  0
  8  9  1  6
 11 12  2  0
 11  8  1  0
 14 13  1  6
 14 15  1  0
 16 14  1  0
 17 18  1  0
 17 16  1  6
 18 11  1  0
 19 17  1  0
 20 19  2  0
 21 19  1  0
M  END
$$$$
