SCL.pdb
     RDKit          3D

 21 20  0  0  1  0  0  0  0  0999 V2000
   18.7019  -12.9915    2.9562 O   0  0  0  0  0  0  0  0  0  0  0  0
   18.7926  -13.4388    4.2513 C   0  0  0  0  0  0  0  0  0  0  0  0
   17.4779  -13.2264    4.9679 C   0  0  2  0  0  0  0  0  0  0  0  0
   17.3052  -11.7910    5.0951 N   0  0  0  0  0  0  0  0  0  0  0  0
   17.4896  -13.8071    6.3289 C   0  0  0  0  0  0  0  0  0  0  0  0
   17.5447  -13.0775    7.3535 O   0  0  0  0  0  0  0  0  0  0  0  0
   17.4399  -15.2127    6.5724 N   0  0  0  0  0  0  0  0  0  0  0  0
   17.5682  -15.7817    7.9076 C   0  0  1  0  0  0  0  0  0  0  0  0
   16.7434  -17.0519    7.9540 C   0  0  0  0  0  0  0  0  0  0  0  0
   16.9270  -17.9172    9.5323 S   0  0  0  0  0  0  0  0  0  0  0  0
   18.9846  -16.1980    8.1677 C   0  0  0  0  0  0  0  0  0  0  0  0
   19.6771  -16.6422    7.2181 O   0  0  0  0  0  0  0  0  0  0  0  0
   23.2654  -16.4121   11.1975 C   0  0  0  0  0  0  0  0  0  0  0  0
   23.3010  -15.7306    9.8403 C   0  0  1  0  0  0  0  0  0  0  0  0
   23.8600  -16.6592    8.7834 C   0  0  0  0  0  0  0  0  0  0  0  0
   21.9105  -15.3226    9.4280 C   0  0  0  0  0  0  0  0  0  0  0  0
   20.9603  -16.4278    9.7486 C   0  0  2  0  0  0  0  0  0  0  0  0
   19.5794  -16.1120    9.4434 N   0  0  0  0  0  0  0  0  0  0  0  0
   21.0050  -16.7576   11.2187 C   0  0  0  0  0  0  0  0  0  0  0  0
   20.2735  -16.1140   12.0075 O   0  0  0  0  0  0  0  0  0  0  0  0
   21.8258  -17.7405   11.6966 O   0  0  0  0  0  0  0  0  0  0  0  0
  2  1  1  0
  3  2  1  0
  3  4  1  1
  5  3  1  0
  5  6  2  0
  7  5  1  0
  8  7  1  0
  9 10  1  0
  8  9  1  6
 11 12  2  0
 11  8  1  0
 14 13  1  1
 14 15  1  0
 16 14  1  0
 17 18  1  0
 17 16  1  1
 18 11  1  0
 19 17  1  0
 20 19  2  0
 21 19  1  0
M  END
$$$$
