SCL.pdb
     RDKit          3D

 21 20  0  0  1  0  0  0  0  0999 V2000
   23.8988  -12.8028  -17.1771 O   0  0  0  0  0  0  0  0  0  0  0  0
   23.4203  -11.5160  -17.1540 C   0  0  0  0  0  0  0  0  0  0  0  0
   21.9281  -11.5119  -17.4003 C   0  0  2  0  0  0  0  0  0  0  0  0
   21.7460  -11.6857  -18.8296 N   0  0  0  0  0  0  0  0  0  0  0  0
   21.3072  -10.2254  -17.0141 C   0  0  0  0  0  0  0  0  0  0  0  0
   21.0736   -9.3276  -17.8653 O   0  0  0  0  0  0  0  0  0  0  0  0
   20.9352   -9.9164  -15.6711 N   0  0  0  0  0  0  0  0  0  0  0  0
   20.2605   -8.6764  -15.3105 C   0  0  1  0  0  0  0  0  0  0  0  0
   19.5332   -8.9056  -14.0011 C   0  0  0  0  0  0  0  0  0  0  0  0
   18.1436  -10.0480  -14.1933 S   0  0  0  0  0  0  0  0  0  0  0  0
   21.2606   -7.5920  -15.0444 C   0  0  0  0  0  0  0  0  0  0  0  0
   22.2678   -7.8469  -14.3379 O   0  0  0  0  0  0  0  0  0  0  0  0
   24.8682   -4.1302  -16.1021 C   0  0  0  0  0  0  0  0  0  0  0  0
   23.5599   -3.6760  -16.7264 C   0  0  1  0  0  0  0  0  0  0  0  0
   23.7938   -3.0778  -18.0973 C   0  0  0  0  0  0  0  0  0  0  0  0
   22.6208   -4.8452  -16.8712 C   0  0  0  0  0  0  0  0  0  0  0  0
   22.1369   -5.2550  -15.5202 C   0  0  2  0  0  0  0  0  0  0  0  0
   21.1192   -6.2859  -15.5571 N   0  0  0  0  0  0  0  0  0  0  0  0
   21.5267   -4.0824  -14.7958 C   0  0  0  0  0  0  0  0  0  0  0  0
   20.3222   -3.8024  -15.0010 O   0  0  0  0  0  0  0  0  0  0  0  0
   22.2645   -3.3288  -13.9264 O   0  0  0  0  0  0  0  0  0  0  0  0
  2  1  1  0
  3  2  1  0
  3  4  1  6
  5  3  1  0
  5  6  2  0
  7  5  1  0
  8  7  1  0
  9 10  1  0
  8  9  1  1
 11 12  2  0
 11  8  1  0
 14 13  1  6
 14 15  1  0
 16 14  1  0
 17 18  1  0
 17 16  1  6
 18 11  1  0
 19 17  1  0
 20 19  2  0
 21 19  1  0
M  END
$$$$
