SCL.pdb
     RDKit          3D

 21 20  0  0  1  0  0  0  0  0999 V2000
   23.0540  -31.0615  -15.8883 O   0  0  0  0  0  0  0  0  0  0  0  0
   23.8930  -29.9850  -16.0389 C   0  0  0  0  0  0  0  0  0  0  0  0
   24.8915  -30.2546  -17.1423 C   0  0  2  0  0  0  0  0  0  0  0  0
   24.1195  -30.4817  -18.3501 N   0  0  0  0  0  0  0  0  0  0  0  0
   25.6933  -31.4699  -16.8779 C   0  0  0  0  0  0  0  0  0  0  0  0
   25.4139  -32.5715  -17.4199 O   0  0  0  0  0  0  0  0  0  0  0  0
   26.8218  -31.4792  -16.0040 N   0  0  0  0  0  0  0  0  0  0  0  0
   27.6078  -32.6798  -15.7517 C   0  0  1  0  0  0  0  0  0  0  0  0
   29.0564  -32.2639  -15.5950 C   0  0  0  0  0  0  0  0  0  0  0  0
   29.8739  -32.0538  -17.1953 S   0  0  0  0  0  0  0  0  0  0  0  0
   27.2123  -33.3025  -14.4468 C   0  0  0  0  0  0  0  0  0  0  0  0
   27.4888  -32.7078  -13.3751 O   0  0  0  0  0  0  0  0  0  0  0  0
   22.4490  -34.2795  -12.9559 C   0  0  0  0  0  0  0  0  0  0  0  0
   23.9554  -34.0888  -12.9114 C   0  0  1  0  0  0  0  0  0  0  0  0
   24.3829  -33.4642  -11.6003 C   0  0  0  0  0  0  0  0  0  0  0  0
   24.6510  -35.4175  -13.0548 C   0  0  0  0  0  0  0  0  0  0  0  0
   26.1236  -35.1925  -13.1437 C   0  0  2  0  0  0  0  0  0  0  0  0
   26.5371  -34.5381  -14.3686 N   0  0  0  0  0  0  0  0  0  0  0  0
   26.8658  -36.5034  -13.0918 C   0  0  0  0  0  0  0  0  0  0  0  0
   26.8447  -37.1710  -12.0310 O   0  0  0  0  0  0  0  0  0  0  0  0
   27.5545  -36.9676  -14.1773 O   0  0  0  0  0  0  0  0  0  0  0  0
  2  1  1  0
  3  2  1  0
  3  4  1  6
  5  3  1  0
  5  6  2  0
  7  5  1  0
  8  7  1  0
  9 10  1  0
  8  9  1  1
 11 12  2  0
 11  8  1  0
 14 13  1  1
 14 15  1  0
 16 14  1  0
 17 18  1  0
 17 16  1  6
 18 11  1  0
 19 17  1  0
 20 19  2  0
 21 19  1  0
M  END
$$$$
