SCL.pdb
     RDKit          3D

 21 20  0  0  1  0  0  0  0  0999 V2000
   16.9777  -27.8381   -9.7002 O   0  0  0  0  0  0  0  0  0  0  0  0
   17.8149  -26.9389   -9.0869 C   0  0  0  0  0  0  0  0  0  0  0  0
   17.0772  -25.6485   -8.8082 C   0  0  2  0  0  0  0  0  0  0  0  0
   17.6322  -24.6540   -9.7078 N   0  0  0  0  0  0  0  0  0  0  0  0
   17.2896  -25.1784   -7.4212 C   0  0  0  0  0  0  0  0  0  0  0  0
   18.2568  -24.4296   -7.1227 O   0  0  0  0  0  0  0  0  0  0  0  0
   16.4270  -25.5349   -6.3412 N   0  0  0  0  0  0  0  0  0  0  0  0
   16.6433  -25.0670   -4.9783 C   0  0  1  0  0  0  0  0  0  0  0  0
   15.5021  -24.1376   -4.6182 C   0  0  0  0  0  0  0  0  0  0  0  0
   13.9422  -24.6639   -5.3686 S   0  0  0  0  0  0  0  0  0  0  0  0
   16.5671  -26.2103   -4.0118 C   0  0  0  0  0  0  0  0  0  0  0  0
   15.7200  -27.1184   -4.2022 O   0  0  0  0  0  0  0  0  0  0  0  0
   21.0859  -27.8828   -1.3724 C   0  0  0  0  0  0  0  0  0  0  0  0
   19.7507  -27.8734   -2.0968 C   0  0  1  0  0  0  0  0  0  0  0  0
   19.4544  -29.2288   -2.7024 C   0  0  0  0  0  0  0  0  0  0  0  0
   18.6420  -27.5284   -1.1367 C   0  0  0  0  0  0  0  0  0  0  0  0
   17.3678  -27.3684   -1.8968 C   0  0  2  0  0  0  0  0  0  0  0  0
   17.4125  -26.3121   -2.8877 N   0  0  0  0  0  0  0  0  0  0  0  0
   16.2323  -27.0286   -0.9656 C   0  0  0  0  0  0  0  0  0  0  0  0
   15.7389  -27.9353   -0.2543 O   0  0  0  0  0  0  0  0  0  0  0  0
   15.7396  -25.7560   -0.8887 O   0  0  0  0  0  0  0  0  0  0  0  0
  2  1  1  0
  3  2  1  0
  3  4  1  6
  5  3  1  0
  5  6  2  0
  7  5  1  0
  8  7  1  0
  9 10  1  0
  8  9  1  1
 11 12  2  0
 11  8  1  0
 14 13  1  1
 14 15  1  0
 16 14  1  0
 17 18  1  0
 17 16  1  1
 18 11  1  0
 19 17  1  0
 20 19  2  0
 21 19  1  0
M  END
$$$$
