SCL.pdb
     RDKit          3D

 21 20  0  0  1  0  0  0  0  0999 V2000
   16.6630   -6.1273   -8.3659 O   0  0  0  0  0  0  0  0  0  0  0  0
   15.4844   -5.8421   -9.0104 C   0  0  0  0  0  0  0  0  0  0  0  0
   14.8576   -7.1148   -9.5345 C   0  0  2  0  0  0  0  0  0  0  0  0
   14.8169   -8.0434   -8.4199 N   0  0  0  0  0  0  0  0  0  0  0  0
   15.6679   -7.7281  -10.6102 C   0  0  0  0  0  0  0  0  0  0  0  0
   16.4157   -8.7161  -10.3867 O   0  0  0  0  0  0  0  0  0  0  0  0
   15.6590   -7.2508  -11.9554 N   0  0  0  0  0  0  0  0  0  0  0  0
   16.4276   -7.8866  -13.0175 C   0  0  1  0  0  0  0  0  0  0  0  0
   15.6256   -7.7830  -14.2989 C   0  0  0  0  0  0  0  0  0  0  0  0
   16.3855   -8.7203  -15.6471 S   0  0  0  0  0  0  0  0  0  0  0  0
   17.7021   -7.1373  -13.2649 C   0  0  0  0  0  0  0  0  0  0  0  0
   17.7475   -5.9065  -13.0170 O   0  0  0  0  0  0  0  0  0  0  0  0
   22.6603   -9.8158  -13.4187 C   0  0  0  0  0  0  0  0  0  0  0  0
   21.5389   -8.8311  -13.1352 C   0  0  1  0  0  0  0  0  0  0  0  0
   21.9227   -7.8806  -12.0211 C   0  0  0  0  0  0  0  0  0  0  0  0
   21.2356   -8.0210  -14.3687 C   0  0  0  0  0  0  0  0  0  0  0  0
   20.1092   -7.0867  -14.0765 C   0  0  2  0  0  0  0  0  0  0  0  0
   18.8632   -7.7592  -13.7686 N   0  0  0  0  0  0  0  0  0  0  0  0
   19.8310   -6.2014  -15.2643 C   0  0  0  0  0  0  0  0  0  0  0  0
   19.0320   -6.6000  -16.1442 O   0  0  0  0  0  0  0  0  0  0  0  0
   20.4340   -4.9814  -15.3916 O   0  0  0  0  0  0  0  0  0  0  0  0
  2  1  1  0
  3  2  1  0
  3  4  1  1
  5  3  1  0
  5  6  2  0
  7  5  1  0
  8  7  1  0
  9 10  1  0
  8  9  1  6
 11 12  2  0
 11  8  1  0
 14 13  1  6
 14 15  1  0
 16 14  1  0
 17 18  1  0
 17 16  1  6
 18 11  1  0
 19 17  1  0
 20 19  2  0
 21 19  1  0
M  END
$$$$
