SCL.pdb
     RDKit          3D

 21 20  0  0  1  0  0  0  0  0999 V2000
   32.7448  -37.9858   -5.5766 O   0  0  0  0  0  0  0  0  0  0  0  0
   32.5679  -37.2625   -6.7303 C   0  0  0  0  0  0  0  0  0  0  0  0
   32.8649  -35.8012   -6.4783 C   0  0  2  0  0  0  0  0  0  0  0  0
   34.2657  -35.7236   -6.1065 N   0  0  0  0  0  0  0  0  0  0  0  0
   32.0646  -35.2594   -5.3577 C   0  0  0  0  0  0  0  0  0  0  0  0
   32.5858  -35.0106   -4.2389 O   0  0  0  0  0  0  0  0  0  0  0  0
   30.6679  -34.9848   -5.4642 N   0  0  0  0  0  0  0  0  0  0  0  0
   29.8931  -34.4256   -4.3642 C   0  0  1  0  0  0  0  0  0  0  0  0
   28.5347  -34.0288   -4.9057 C   0  0  0  0  0  0  0  0  0  0  0  0
   27.5297  -33.1912   -3.6560 S   0  0  0  0  0  0  0  0  0  0  0  0
   29.6339  -35.4693   -3.3200 C   0  0  0  0  0  0  0  0  0  0  0  0
   29.3187  -36.6311   -3.6796 O   0  0  0  0  0  0  0  0  0  0  0  0
   30.3090  -38.7971    0.3591 C   0  0  0  0  0  0  0  0  0  0  0  0
   30.4111  -37.4305    1.0146 C   0  0  1  0  0  0  0  0  0  0  0  0
   31.5069  -37.4123    2.0590 C   0  0  0  0  0  0  0  0  0  0  0  0
   30.7225  -36.3808   -0.0203 C   0  0  0  0  0  0  0  0  0  0  0  0
   29.5212  -36.1690   -0.8800 C   0  0  2  0  0  0  0  0  0  0  0  0
   29.7292  -35.2017   -1.9386 N   0  0  0  0  0  0  0  0  0  0  0  0
   28.3640  -35.6583   -0.0602 C   0  0  0  0  0  0  0  0  0  0  0  0
   27.9433  -36.3534    0.8945 O   0  0  0  0  0  0  0  0  0  0  0  0
   27.7743  -34.4581   -0.3430 O   0  0  0  0  0  0  0  0  0  0  0  0
  2  1  1  0
  3  2  1  0
  3  4  1  1
  5  3  1  0
  5  6  2  0
  7  5  1  0
  8  7  1  0
  9 10  1  0
  8  9  1  6
 11 12  2  0
 11  8  1  0
 14 13  1  6
 14 15  1  0
 16 14  1  0
 17 18  1  0
 17 16  1  1
 18 11  1  0
 19 17  1  0
 20 19  2  0
 21 19  1  0
M  END
$$$$
