SCL.pdb
     RDKit          3D

 21 20  0  0  1  0  0  0  0  0999 V2000
   15.9712   -9.9620  -13.1961 O   0  0  0  0  0  0  0  0  0  0  0  0
   16.7096  -10.1640  -12.0561 C   0  0  0  0  0  0  0  0  0  0  0  0
   15.8076  -10.1448  -10.8424 C   0  0  2  0  0  0  0  0  0  0  0  0
   14.6697  -10.9874  -11.1614 N   0  0  0  0  0  0  0  0  0  0  0  0
   15.3012   -8.7853  -10.5510 C   0  0  0  0  0  0  0  0  0  0  0  0
   14.2722   -8.3325  -11.1178 O   0  0  0  0  0  0  0  0  0  0  0  0
   15.9334   -7.9053   -9.6217 N   0  0  0  0  0  0  0  0  0  0  0  0
   15.4666   -6.5448   -9.3888 C   0  0  1  0  0  0  0  0  0  0  0  0
   16.0651   -6.0642   -8.0823 C   0  0  0  0  0  0  0  0  0  0  0  0
   15.2629   -6.8289   -6.6522 S   0  0  0  0  0  0  0  0  0  0  0  0
   15.9888   -5.6215  -10.4479 C   0  0  0  0  0  0  0  0  0  0  0  0
   17.1263   -5.8319  -10.9382 O   0  0  0  0  0  0  0  0  0  0  0  0
   16.5129   -3.3699  -14.8882 C   0  0  0  0  0  0  0  0  0  0  0  0
   15.2252   -2.8328  -14.2873 C   0  0  1  0  0  0  0  0  0  0  0  0
   14.1458   -2.7116  -15.3418 C   0  0  0  0  0  0  0  0  0  0  0  0
   14.7320   -3.7583  -13.2055 C   0  0  0  0  0  0  0  0  0  0  0  0
   15.6404   -3.6605  -12.0255 C   0  0  2  0  0  0  0  0  0  0  0  0
   15.2523   -4.5165  -10.9227 N   0  0  0  0  0  0  0  0  0  0  0  0
   15.6591   -2.2538  -11.4842 C   0  0  0  0  0  0  0  0  0  0  0  0
   14.7905   -1.9143  -10.6466 O   0  0  0  0  0  0  0  0  0  0  0  0
   16.6030   -1.3534  -11.8923 O   0  0  0  0  0  0  0  0  0  0  0  0
  2  1  1  0
  3  2  1  0
  3  4  1  6
  5  3  1  0
  5  6  2  0
  7  5  1  0
  8  7  1  0
  9 10  1  0
  8  9  1  1
 11 12  2  0
 11  8  1  0
 14 13  1  6
 14 15  1  0
 16 14  1  0
 17 18  1  0
 17 16  1  6
 18 11  1  0
 19 17  1  0
 20 19  2  0
 21 19  1  0
M  END
$$$$
