SCL.pdb
     RDKit          3D

 21 20  0  0  1  0  0  0  0  0999 V2000
   18.8797  -11.7299  -20.7532 O   0  0  0  0  0  0  0  0  0  0  0  0
   19.5949  -11.0030  -19.8336 C   0  0  0  0  0  0  0  0  0  0  0  0
   20.8172  -10.3976  -20.4868 C   0  0  2  0  0  0  0  0  0  0  0  0
   21.7484  -11.4884  -20.7093 N   0  0  0  0  0  0  0  0  0  0  0  0
   21.4781   -9.4049  -19.6108 C   0  0  0  0  0  0  0  0  0  0  0  0
   22.5541   -9.6700  -19.0132 O   0  0  0  0  0  0  0  0  0  0  0  0
   20.9510   -8.0977  -19.3849 N   0  0  0  0  0  0  0  0  0  0  0  0
   21.6145   -7.1221  -18.5299 C   0  0  1  0  0  0  0  0  0  0  0  0
   21.2158   -5.7394  -19.0043 C   0  0  0  0  0  0  0  0  0  0  0  0
   21.8728   -4.4423  -17.9277 S   0  0  0  0  0  0  0  0  0  0  0  0
   21.1183   -7.2353  -17.1200 C   0  0  0  0  0  0  0  0  0  0  0  0
   19.8846   -7.3503  -16.9117 O   0  0  0  0  0  0  0  0  0  0  0  0
   20.3559   -9.0827  -12.4761 C   0  0  0  0  0  0  0  0  0  0  0  0
   21.7937   -8.5936  -12.5097 C   0  0  1  0  0  0  0  0  0  0  0  0
   22.7028   -9.5341  -11.7477 C   0  0  0  0  0  0  0  0  0  0  0  0
   22.2803   -8.5105  -13.9332 C   0  0  0  0  0  0  0  0  0  0  0  0
   21.5786   -7.3903  -14.6261 C   0  0  2  0  0  0  0  0  0  0  0  0
   21.9837   -7.2183  -16.0066 N   0  0  0  0  0  0  0  0  0  0  0  0
   21.8580   -6.0799  -13.9356 C   0  0  0  0  0  0  0  0  0  0  0  0
   22.8628   -5.4144  -14.2806 O   0  0  0  0  0  0  0  0  0  0  0  0
   21.0365   -5.6138  -12.9476 O   0  0  0  0  0  0  0  0  0  0  0  0
  2  1  1  0
  3  2  1  0
  3  4  1  1
  5  3  1  0
  5  6  2  0
  7  5  1  0
  8  7  1  0
  9 10  1  0
  8  9  1  6
 11 12  2  0
 11  8  1  0
 14 13  1  6
 14 15  1  0
 16 14  1  0
 17 18  1  0
 17 16  1  1
 18 11  1  0
 19 17  1  0
 20 19  2  0
 21 19  1  0
M  END
$$$$
