SCL.pdb
     RDKit          3D

 21 20  0  0  1  0  0  0  0  0999 V2000
   14.7522   -9.1019  -17.7727 O   0  0  0  0  0  0  0  0  0  0  0  0
   15.5180   -8.9082  -16.6495 C   0  0  0  0  0  0  0  0  0  0  0  0
   16.4810  -10.0608  -16.4720 C   0  0  2  0  0  0  0  0  0  0  0  0
   15.7434  -11.1140  -15.7989 N   0  0  0  0  0  0  0  0  0  0  0  0
   17.6326   -9.6930  -15.6186 C   0  0  0  0  0  0  0  0  0  0  0  0
   17.5229   -9.6126  -14.3669 O   0  0  0  0  0  0  0  0  0  0  0  0
   18.9282   -9.4081  -16.1455 N   0  0  0  0  0  0  0  0  0  0  0  0
   20.0253   -8.9321  -15.3132 C   0  0  1  0  0  0  0  0  0  0  0  0
   21.2323   -9.8056  -15.5891 C   0  0  0  0  0  0  0  0  0  0  0  0
   22.6958   -9.2358  -14.6908 S   0  0  0  0  0  0  0  0  0  0  0  0
   20.4210   -7.5417  -15.7099 C   0  0  0  0  0  0  0  0  0  0  0  0
   20.6162   -7.2827  -16.9237 O   0  0  0  0  0  0  0  0  0  0  0  0
   20.5886   -2.7992  -16.8364 C   0  0  0  0  0  0  0  0  0  0  0  0
   20.3438   -2.7916  -15.3372 C   0  0  1  0  0  0  0  0  0  0  0  0
   19.2891   -1.7708  -14.9667 C   0  0  0  0  0  0  0  0  0  0  0  0
   19.8737   -4.1486  -14.8815 C   0  0  0  0  0  0  0  0  0  0  0  0
   20.9697   -5.1407  -15.0858 C   0  0  2  0  0  0  0  0  0  0  0  0
   20.5854   -6.5020  -14.7714 N   0  0  0  0  0  0  0  0  0  0  0  0
   22.1493   -4.8187  -14.2045 C   0  0  0  0  0  0  0  0  0  0  0  0
   22.1646   -5.2529  -13.0286 O   0  0  0  0  0  0  0  0  0  0  0  0
   23.1920   -4.0664  -14.6682 O   0  0  0  0  0  0  0  0  0  0  0  0
  2  1  1  0
  3  2  1  0
  3  4  1  1
  5  3  1  0
  5  6  2  0
  7  5  1  0
  8  7  1  0
  9 10  1  0
  8  9  1  6
 11 12  2  0
 11  8  1  0
 14 13  1  6
 14 15  1  0
 16 14  1  0
 17 18  1  0
 17 16  1  1
 18 11  1  0
 19 17  1  0
 20 19  2  0
 21 19  1  0
M  END
$$$$
