SCL.pdb
     RDKit          3D

 21 20  0  0  1  0  0  0  0  0999 V2000
   13.8728  -13.3412  -14.4687 O   0  0  0  0  0  0  0  0  0  0  0  0
   13.3786  -12.2143  -13.8592 C   0  0  0  0  0  0  0  0  0  0  0  0
   13.5445  -11.0168  -14.7679 C   0  0  2  0  0  0  0  0  0  0  0  0
   14.0871  -11.5192  -16.0167 N   0  0  0  0  0  0  0  0  0  0  0  0
   14.5028  -10.0329  -14.2170 C   0  0  0  0  0  0  0  0  0  0  0  0
   14.2978   -9.4645  -13.1124 O   0  0  0  0  0  0  0  0  0  0  0  0
   15.7077   -9.6648  -14.8879 N   0  0  0  0  0  0  0  0  0  0  0  0
   16.6307   -8.6724  -14.3530 C   0  0  1  0  0  0  0  0  0  0  0  0
   17.9865   -8.9076  -14.9873 C   0  0  0  0  0  0  0  0  0  0  0  0
   19.1807   -7.6324  -14.5170 S   0  0  0  0  0  0  0  0  0  0  0  0
   16.2148   -7.2922  -14.7643 C   0  0  0  0  0  0  0  0  0  0  0  0
   15.9955   -7.0544  -15.9784 O   0  0  0  0  0  0  0  0  0  0  0  0
   13.5655   -2.9128  -14.7614 C   0  0  0  0  0  0  0  0  0  0  0  0
   14.4975   -2.8267  -13.5649 C   0  0  1  0  0  0  0  0  0  0  0  0
   13.8333   -2.1027  -12.4131 C   0  0  0  0  0  0  0  0  0  0  0  0
   14.8771   -4.2094  -13.1024 C   0  0  0  0  0  0  0  0  0  0  0  0
   15.6730   -4.8820  -14.1707 C   0  0  2  0  0  0  0  0  0  0  0  0
   16.0575   -6.2392  -13.8396 N   0  0  0  0  0  0  0  0  0  0  0  0
   16.9530   -4.1304  -14.4328 C   0  0  0  0  0  0  0  0  0  0  0  0
   16.9638   -3.2392  -15.3143 O   0  0  0  0  0  0  0  0  0  0  0  0
   18.0906   -4.4069  -13.7274 O   0  0  0  0  0  0  0  0  0  0  0  0
  2  1  1  0
  3  2  1  0
  3  4  1  6
  5  3  1  0
  5  6  2  0
  7  5  1  0
  8  7  1  0
  9 10  1  0
  8  9  1  6
 11 12  2  0
 11  8  1  0
 14 13  1  6
 14 15  1  0
 16 14  1  0
 17 18  1  0
 17 16  1  1
 18 11  1  0
 19 17  1  0
 20 19  2  0
 21 19  1  0
M  END
$$$$
