SRM.pdb
     RDKit          3D

 26 25  0  0  1  0  0  0  0  0999 V2000
   19.5411  -21.1167  -12.6769 O   0  0  0  0  0  0  0  0  0  0  0  0
   19.3880  -21.4683  -14.0283 C   0  0  0  0  0  0  0  0  0  0  0  0
   19.6630  -22.9439  -14.2286 C   0  0  2  0  0  0  0  0  0  0  0  0
   18.7092  -23.6433  -13.3567 N   0  0  0  0  0  0  0  0  0  0  0  0
   21.0549  -23.2402  -13.8376 C   0  0  0  0  0  0  0  0  0  0  0  0
   21.2864  -23.6028  -12.6591 O   0  0  0  0  0  0  0  0  0  0  0  0
   28.2681  -26.9817  -15.9172 N   0  0  0  0  0  0  0  0  0  0  0  0
   26.9767  -27.2094  -16.4632 C   0  0  0  0  0  0  0  0  0  0  0  0
   26.6177  -28.4242  -16.6741 N   0  0  0  0  0  0  0  0  0  0  0  0
   26.0885  -26.1439  -16.7757 N   0  0  0  0  0  0  0  0  0  0  0  0
   26.3964  -24.7710  -16.4928 C   0  0  0  0  0  0  0  0  0  0  0  0
   25.7449  -24.2493  -15.2546 C   0  0  0  0  0  0  0  0  0  0  0  0
   24.2814  -23.9987  -15.5366 C   0  0  0  0  0  0  0  0  0  0  0  0
   23.5053  -23.4775  -14.3745 C   0  0  2  0  0  0  0  0  0  0  0  0
   22.1461  -23.1351  -14.7317 N   0  0  0  0  0  0  0  0  0  0  0  0
   24.2458  -22.2513  -13.8967 C   0  0  0  0  0  0  0  0  0  0  0  0
   24.0202  -21.1702  -14.4914 O   0  0  0  0  0  0  0  0  0  0  0  0
   25.6743  -28.6835  -17.0332 C   0  0  0  0  0  0  0  0  0  0  0  0
   27.0738  -20.5281   -7.2701 S   0  0  0  0  0  0  0  0  0  0  0  0
   25.6532  -20.9317   -8.3456 C   0  0  0  0  0  0  0  0  0  0  0  0
   25.7920  -20.3350   -9.9925 C   0  0  0  0  0  0  0  0  0  0  0  0
   26.3974  -21.1593  -11.0285 C   0  0  2  0  0  0  0  0  0  0  0  0
   25.8929  -21.1450  -12.3940 N   0  0  0  0  0  0  0  0  0  0  0  0
   25.1536  -22.3030  -12.8320 C   0  0  0  0  0  0  0  0  0  0  0  0
   26.7338  -20.6707  -13.4881 O   0  0  0  0  0  0  0  0  0  0  0  0
   26.8214  -19.2641  -13.6637 O   0  0  0  0  0  0  0  0  0  0  0  0
  1  2  1  0
  2  3  1  0
  3  4  1  1
  5  3  1  0
  5  6  2  0
  7  8  1  0
  8 10  1  0
  9  8  2  0
 10 11  1  0
 11 12  1  0
 12 13  1  0
 14 15  1  0
 14 13  1  6
 15  5  1  0
 16 14  1  0
 17 16  2  0
 18 19  1  0
 20 21  1  0
 20 19  1  0
 22 21  1  1
 22 24  1  0
 22 23  1  0
 23 16  1  0
 24 25  1  0
 26 24  2  0
M  END
$$$$
