SRM.pdb
     RDKit          3D

 26 25  0  0  1  0  0  0  0  0999 V2000
   19.3918  -24.3893  -16.8491 O   0  0  0  0  0  0  0  0  0  0  0  0
   19.1577  -24.6447  -15.4877 C   0  0  0  0  0  0  0  0  0  0  0  0
   20.4427  -24.5261  -14.6955 C   0  0  2  0  0  0  0  0  0  0  0  0
   20.1107  -24.9793  -13.3378 N   0  0  0  0  0  0  0  0  0  0  0  0
   20.8873  -23.1188  -14.6911 C   0  0  0  0  0  0  0  0  0  0  0  0
   20.0788  -22.2318  -14.3257 O   0  0  0  0  0  0  0  0  0  0  0  0
   26.2338  -21.7081  -11.0636 N   0  0  0  0  0  0  0  0  0  0  0  0
   25.1597  -21.1198  -10.3439 C   0  0  0  0  0  0  0  0  0  0  0  0
   25.0532  -21.3904   -9.0931 N   0  0  0  0  0  0  0  0  0  0  0  0
   24.2174  -20.2543  -10.9642 N   0  0  0  0  0  0  0  0  0  0  0  0
   24.0307  -20.2045  -12.3863 C   0  0  0  0  0  0  0  0  0  0  0  0
   24.3703  -21.4802  -13.0844 C   0  0  0  0  0  0  0  0  0  0  0  0
   24.1143  -21.3145  -14.5646 C   0  0  0  0  0  0  0  0  0  0  0  0
   22.6758  -21.3638  -14.9555 C   0  0  2  0  0  0  0  0  0  0  0  0
   22.1874  -22.7195  -15.0804 N   0  0  0  0  0  0  0  0  0  0  0  0
   22.5811  -20.6488  -16.2822 C   0  0  0  0  0  0  0  0  0  0  0  0
   22.9756  -21.2646  -17.3013 O   0  0  0  0  0  0  0  0  0  0  0  0
   24.2884  -21.0137   -8.4936 C   0  0  0  0  0  0  0  0  0  0  0  0
   17.5992  -16.5944  -18.7875 S   0  0  0  0  0  0  0  0  0  0  0  0
   19.2448  -15.9029  -19.1771 C   0  0  0  0  0  0  0  0  0  0  0  0
   20.5686  -17.0508  -19.0448 C   0  0  0  0  0  0  0  0  0  0  0  0
   20.8265  -17.7397  -17.7886 C   0  0  2  0  0  0  0  0  0  0  0  0
   21.9321  -18.6775  -17.6562 N   0  0  0  0  0  0  0  0  0  0  0  0
   22.0751  -19.3476  -16.3873 C   0  0  0  0  0  0  0  0  0  0  0  0
   23.2545  -18.3393  -18.1718 O   0  0  0  0  0  0  0  0  0  0  0  0
   23.5164  -18.6716  -19.5275 O   0  0  0  0  0  0  0  0  0  0  0  0
  1  2  1  0
  2  3  1  0
  3  4  1  1
  5  3  1  0
  5  6  2  0
  7  8  1  0
  8 10  1  0
  9  8  2  0
 10 11  1  0
 11 12  1  0
 12 13  1  0
 14 15  1  0
 14 13  1  6
 15  5  1  0
 16 14  1  0
 17 16  2  0
 18 19  1  0
 20 21  1  0
 20 19  1  0
 22 21  1  6
 22 24  1  0
 22 23  1  0
 23 16  1  0
 24 25  1  0
 26 24  2  0
M  END
$$$$
