SRM.pdb
     RDKit          3D

 26 25  0  0  1  0  0  0  0  0999 V2000
   29.3340  -18.5256  -15.4406 O   0  0  0  0  0  0  0  0  0  0  0  0
   28.5389  -19.0252  -16.4853 C   0  0  0  0  0  0  0  0  0  0  0  0
   27.2675  -18.2138  -16.6211 C   0  0  2  0  0  0  0  0  0  0  0  0
   27.7066  -16.8283  -16.8366 N   0  0  0  0  0  0  0  0  0  0  0  0
   26.4758  -18.3327  -15.3813 C   0  0  0  0  0  0  0  0  0  0  0  0
   26.4534  -17.3639  -14.5845 O   0  0  0  0  0  0  0  0  0  0  0  0
   18.8431  -20.2284  -13.1480 N   0  0  0  0  0  0  0  0  0  0  0  0
   19.4959  -20.4775  -14.3847 C   0  0  0  0  0  0  0  0  0  0  0  0
   18.8025  -20.3825  -15.4615 N   0  0  0  0  0  0  0  0  0  0  0  0
   20.8733  -20.8228  -14.4574 N   0  0  0  0  0  0  0  0  0  0  0  0
   21.5813  -21.4177  -13.3599 C   0  0  0  0  0  0  0  0  0  0  0  0
   22.7951  -20.6554  -12.9409 C   0  0  0  0  0  0  0  0  0  0  0  0
   23.6320  -20.3522  -14.1623 C   0  0  0  0  0  0  0  0  0  0  0  0
   24.8788  -19.5819  -13.8854 C   0  0  2  0  0  0  0  0  0  0  0  0
   25.7371  -19.4916  -15.0462 N   0  0  0  0  0  0  0  0  0  0  0  0
   25.5823  -20.3174  -12.7699 C   0  0  0  0  0  0  0  0  0  0  0  0
   26.2034  -21.3654  -13.0687 O   0  0  0  0  0  0  0  0  0  0  0  0
   19.2008  -20.5488  -16.4101 C   0  0  0  0  0  0  0  0  0  0  0  0
   28.3018  -17.8969   -7.2041 S   0  0  0  0  0  0  0  0  0  0  0  0
   28.1719  -19.6923   -6.8923 C   0  0  0  0  0  0  0  0  0  0  0  0
   27.3047  -20.5873   -8.1311 C   0  0  0  0  0  0  0  0  0  0  0  0
   26.8237  -19.9141   -9.3289 C   0  0  1  0  0  0  0  0  0  0  0  0
   26.0805  -20.6352  -10.3520 N   0  0  0  0  0  0  0  0  0  0  0  0
   25.5514  -19.8601  -11.4469 C   0  0  0  0  0  0  0  0  0  0  0  0
   25.1119  -21.6605   -9.9781 O   0  0  0  0  0  0  0  0  0  0  0  0
   25.6333  -22.9311   -9.6164 O   0  0  0  0  0  0  0  0  0  0  0  0
  1  2  1  0
  2  3  1  0
  3  4  1  1
  5  3  1  0
  5  6  2  0
  7  8  1  0
  8 10  1  0
  9  8  2  0
 10 11  1  0
 11 12  1  0
 12 13  1  0
 14 15  1  0
 14 13  1  6
 15  5  1  0
 16 14  1  0
 17 16  2  0
 18 19  1  0
 20 21  1  0
 20 19  1  0
 22 21  1  6
 22 24  1  0
 22 23  1  0
 23 16  1  0
 24 25  1  0
 26 24  2  0
M  END
$$$$
