SRM.pdb
     RDKit          3D

 26 25  0  0  1  0  0  0  0  0999 V2000
   19.3660  -18.0775  -13.1196 O   0  0  0  0  0  0  0  0  0  0  0  0
   20.3357  -18.9655  -12.6250 C   0  0  0  0  0  0  0  0  0  0  0  0
   20.1488  -20.3442  -13.2227 C   0  0  2  0  0  0  0  0  0  0  0  0
   19.0058  -20.9303  -12.5092 N   0  0  0  0  0  0  0  0  0  0  0  0
   21.3727  -21.1407  -13.0088 C   0  0  0  0  0  0  0  0  0  0  0  0
   21.5612  -21.6675  -11.8860 O   0  0  0  0  0  0  0  0  0  0  0  0
   27.7449  -25.9120  -16.1404 N   0  0  0  0  0  0  0  0  0  0  0  0
   26.3957  -25.9753  -16.5803 C   0  0  0  0  0  0  0  0  0  0  0  0
   25.8952  -27.1328  -16.8229 N   0  0  0  0  0  0  0  0  0  0  0  0
   25.6011  -24.8092  -16.7547 N   0  0  0  0  0  0  0  0  0  0  0  0
   26.0335  -23.5073  -16.3330 C   0  0  0  0  0  0  0  0  0  0  0  0
   25.5543  -23.1240  -14.9715 C   0  0  0  0  0  0  0  0  0  0  0  0
   24.1308  -22.6264  -15.0727 C   0  0  0  0  0  0  0  0  0  0  0  0
   23.5707  -22.0840  -13.8013 C   0  0  2  0  0  0  0  0  0  0  0  0
   22.3483  -21.3403  -14.0136 N   0  0  0  0  0  0  0  0  0  0  0  0
   24.6386  -21.1834  -13.2277 C   0  0  0  0  0  0  0  0  0  0  0  0
   24.7542  -20.0357  -13.7206 O   0  0  0  0  0  0  0  0  0  0  0  0
   24.9215  -27.2694  -17.1687 C   0  0  0  0  0  0  0  0  0  0  0  0
   26.2353  -20.2995   -7.0319 S   0  0  0  0  0  0  0  0  0  0  0  0
   27.7724  -19.7572   -7.8572 C   0  0  0  0  0  0  0  0  0  0  0  0
   27.8013  -20.0235   -9.5938 C   0  0  0  0  0  0  0  0  0  0  0  0
   26.7936  -20.8595  -10.2301 C   0  0  2  0  0  0  0  0  0  0  0  0
   26.5217  -20.7588  -11.6566 N   0  0  0  0  0  0  0  0  0  0  0  0
   25.4762  -21.5992  -12.1858 C   0  0  0  0  0  0  0  0  0  0  0  0
   27.6193  -20.6970  -12.6162 O   0  0  0  0  0  0  0  0  0  0  0  0
   28.1224  -19.4065  -12.9299 O   0  0  0  0  0  0  0  0  0  0  0  0
  1  2  1  0
  2  3  1  0
  3  4  1  1
  5  3  1  0
  5  6  2  0
  7  8  1  0
  8 10  1  0
  9  8  2  0
 10 11  1  0
 11 12  1  0
 12 13  1  0
 14 15  1  0
 14 13  1  6
 15  5  1  0
 16 14  1  0
 17 16  2  0
 18 19  1  0
 20 21  1  0
 20 19  1  0
 22 21  1  1
 22 24  1  0
 22 23  1  0
 23 16  1  0
 24 25  1  0
 26 24  2  0
M  END
$$$$
