SRM.pdb
     RDKit          3D

 26 25  0  0  1  0  0  0  0  0999 V2000
   24.0438  -16.2384  -17.6625 O   0  0  0  0  0  0  0  0  0  0  0  0
   25.1141  -16.3485  -16.7594 C   0  0  0  0  0  0  0  0  0  0  0  0
   25.6676  -17.7580  -16.7596 C   0  0  2  0  0  0  0  0  0  0  0  0
   26.0261  -18.0393  -18.1565 N   0  0  0  0  0  0  0  0  0  0  0  0
   24.6301  -18.6916  -16.2799 C   0  0  0  0  0  0  0  0  0  0  0  0
   24.0439  -19.4226  -17.1140 O   0  0  0  0  0  0  0  0  0  0  0  0
   27.1105  -21.3281  -12.7808 N   0  0  0  0  0  0  0  0  0  0  0  0
   27.1211  -21.2533  -11.3624 C   0  0  0  0  0  0  0  0  0  0  0  0
   28.2587  -21.1722  -10.7721 N   0  0  0  0  0  0  0  0  0  0  0  0
   25.9241  -21.2656  -10.5949 N   0  0  0  0  0  0  0  0  0  0  0  0
   24.6681  -20.8019  -11.1118 C   0  0  0  0  0  0  0  0  0  0  0  0
   24.6919  -20.5003  -12.5742 C   0  0  0  0  0  0  0  0  0  0  0  0
   23.3363  -19.9780  -12.9911 C   0  0  0  0  0  0  0  0  0  0  0  0
   23.2087  -19.6732  -14.4455 C   0  0  2  0  0  0  0  0  0  0  0  0
   24.2630  -18.8030  -14.9182 N   0  0  0  0  0  0  0  0  0  0  0  0
   21.8644  -19.0062  -14.6138 C   0  0  0  0  0  0  0  0  0  0  0  0
   21.7003  -17.8884  -14.0687 O   0  0  0  0  0  0  0  0  0  0  0  0
   28.3584  -21.1155   -9.7362 C   0  0  0  0  0  0  0  0  0  0  0  0
   19.4492  -16.2320  -19.5311 S   0  0  0  0  0  0  0  0  0  0  0  0
   17.9233  -16.9772  -18.8573 C   0  0  0  0  0  0  0  0  0  0  0  0
   18.1142  -17.7336  -17.2828 C   0  0  0  0  0  0  0  0  0  0  0  0
   19.3601  -18.3977  -16.9282 C   0  0  1  0  0  0  0  0  0  0  0  0
   19.5764  -18.9304  -15.5908 N   0  0  0  0  0  0  0  0  0  0  0  0
   20.8299  -19.6003  -15.3467 C   0  0  0  0  0  0  0  0  0  0  0  0
   18.5087  -19.6429  -14.8969 O   0  0  0  0  0  0  0  0  0  0  0  0
   17.2306  -19.0237  -14.8834 O   0  0  0  0  0  0  0  0  0  0  0  0
  1  2  1  0
  2  3  1  0
  3  4  1  6
  5  3  1  0
  5  6  2  0
  7  8  1  0
  8 10  1  0
  9  8  2  0
 10 11  1  0
 11 12  1  0
 12 13  1  0
 14 15  1  0
 14 13  1  1
 15  5  1  0
 16 14  1  0
 17 16  2  0
 18 19  1  0
 20 21  1  0
 20 19  1  0
 22 21  1  1
 22 24  1  0
 22 23  1  0
 23 16  1  0
 24 25  1  0
 26 24  2  0
M  END
$$$$
