SRM.pdb
     RDKit          3D

 26 25  0  0  1  0  0  0  0  0999 V2000
   17.2074   -9.0979  -16.0491 O   0  0  0  0  0  0  0  0  0  0  0  0
   17.4340  -10.2244  -16.8572 C   0  0  0  0  0  0  0  0  0  0  0  0
   18.0973  -11.3271  -16.0591 C   0  0  2  0  0  0  0  0  0  0  0  0
   17.2502  -11.5184  -14.8738 N   0  0  0  0  0  0  0  0  0  0  0  0
   19.4581  -10.9036  -15.6758 C   0  0  0  0  0  0  0  0  0  0  0  0
   19.6374  -10.4067  -14.5378 O   0  0  0  0  0  0  0  0  0  0  0  0
   27.5610  -13.3355  -16.7158 N   0  0  0  0  0  0  0  0  0  0  0  0
   27.5627  -12.0935  -16.0265 C   0  0  0  0  0  0  0  0  0  0  0  0
   28.6690  -11.4451  -15.9567 N   0  0  0  0  0  0  0  0  0  0  0  0
   26.3903  -11.5610  -15.4235 N   0  0  0  0  0  0  0  0  0  0  0  0
   25.0682  -11.9432  -15.8306 C   0  0  0  0  0  0  0  0  0  0  0  0
   24.3757  -10.9200  -16.6693 C   0  0  0  0  0  0  0  0  0  0  0  0
   22.9585  -11.3753  -16.9311 C   0  0  0  0  0  0  0  0  0  0  0  0
   21.9166  -10.6380  -16.1596 C   0  0  2  0  0  0  0  0  0  0  0  0
   20.5759  -11.0318  -16.5333 N   0  0  0  0  0  0  0  0  0  0  0  0
   22.1354   -9.1743  -16.4600 C   0  0  0  0  0  0  0  0  0  0  0  0
   21.7847   -8.7564  -17.5895 O   0  0  0  0  0  0  0  0  0  0  0  0
   28.7336  -10.4691  -15.5968 C   0  0  0  0  0  0  0  0  0  0  0  0
   20.8263   -4.1747  -12.5512 S   0  0  0  0  0  0  0  0  0  0  0  0
   21.5714   -3.3968  -14.0268 C   0  0  0  0  0  0  0  0  0  0  0  0
   22.2949   -4.5273  -15.1610 C   0  0  0  0  0  0  0  0  0  0  0  0
   22.3219   -5.9529  -14.8676 C   0  0  2  0  0  0  0  0  0  0  0  0
   22.9110   -6.9034  -15.7997 N   0  0  0  0  0  0  0  0  0  0  0  0
   22.7072   -8.3041  -15.5241 C   0  0  0  0  0  0  0  0  0  0  0  0
   24.2676   -6.7052  -16.2994 O   0  0  0  0  0  0  0  0  0  0  0  0
   24.5415   -5.4624  -16.9299 O   0  0  0  0  0  0  0  0  0  0  0  0
  1  2  1  0
  2  3  1  0
  3  4  1  1
  5  3  1  0
  5  6  2  0
  7  8  1  0
  8 10  1  0
  9  8  2  0
 10 11  1  0
 11 12  1  0
 12 13  1  0
 14 15  1  0
 14 13  1  6
 15  5  1  0
 16 14  1  0
 17 16  2  0
 18 19  1  0
 20 21  1  0
 20 19  1  0
 22 21  1  6
 22 24  1  0
 22 23  1  0
 23 16  1  0
 24 25  1  0
 26 24  2  0
M  END
$$$$
