SRM.pdb
     RDKit          3D

 26 25  0  0  1  0  0  0  0  0999 V2000
   25.5233  -15.4472  -16.1180 O   0  0  0  0  0  0  0  0  0  0  0  0
   26.6847  -15.5002  -15.3297 C   0  0  0  0  0  0  0  0  0  0  0  0
   27.6065  -16.5998  -15.8136 C   0  0  2  0  0  0  0  0  0  0  0  0
   27.7687  -16.3704  -17.2559 N   0  0  0  0  0  0  0  0  0  0  0  0
   26.9833  -17.9118  -15.5520 C   0  0  0  0  0  0  0  0  0  0  0  0
   26.7284  -18.6632  -16.5237 O   0  0  0  0  0  0  0  0  0  0  0  0
   29.1557  -21.3533   -8.8945 N   0  0  0  0  0  0  0  0  0  0  0  0
   29.5079  -21.4533  -10.2670 C   0  0  0  0  0  0  0  0  0  0  0  0
   30.7528  -21.5622  -10.5628 N   0  0  0  0  0  0  0  0  0  0  0  0
   28.5328  -21.4365  -11.3017 N   0  0  0  0  0  0  0  0  0  0  0  0
   27.1238  -21.5103  -11.0392 C   0  0  0  0  0  0  0  0  0  0  0  0
   26.2762  -21.4206  -12.2653 C   0  0  0  0  0  0  0  0  0  0  0  0
   25.9687  -19.9678  -12.5460 C   0  0  0  0  0  0  0  0  0  0  0  0
   25.9567  -19.6036  -13.9923 C   0  0  2  0  0  0  0  0  0  0  0  0
   26.6583  -18.3657  -14.2522 N   0  0  0  0  0  0  0  0  0  0  0  0
   24.5020  -19.4714  -14.3753 C   0  0  0  0  0  0  0  0  0  0  0  0
   23.8435  -18.5484  -13.8389 O   0  0  0  0  0  0  0  0  0  0  0  0
   31.1006  -21.6204  -11.5436 C   0  0  0  0  0  0  0  0  0  0  0  0
   17.3439  -18.6723  -14.5248 S   0  0  0  0  0  0  0  0  0  0  0  0
   19.1085  -18.5595  -14.0653 C   0  0  0  0  0  0  0  0  0  0  0  0
   20.1981  -19.4292  -15.1349 C   0  0  0  0  0  0  0  0  0  0  0  0
   21.6312  -19.4409  -14.8794 C   0  0  2  0  0  0  0  0  0  0  0  0
   22.5497  -20.1383  -15.7677 N   0  0  0  0  0  0  0  0  0  0  0  0
   23.8963  -20.3387  -15.2925 C   0  0  0  0  0  0  0  0  0  0  0  0
   22.5857  -19.8210  -17.1915 O   0  0  0  0  0  0  0  0  0  0  0  0
   21.4474  -20.1881  -17.9574 O   0  0  0  0  0  0  0  0  0  0  0  0
  1  2  1  0
  2  3  1  0
  3  4  1  6
  5  3  1  0
  5  6  2  0
  7  8  1  0
  8 10  1  0
  9  8  2  0
 10 11  1  0
 11 12  1  0
 12 13  1  0
 14 15  1  0
 14 13  1  1
 15  5  1  0
 16 14  1  0
 17 16  2  0
 18 19  1  0
 20 21  1  0
 20 19  1  0
 22 21  1  1
 22 24  1  0
 22 23  1  0
 23 16  1  0
 24 25  1  0
 26 24  2  0
M  END
$$$$
