SRM.pdb
     RDKit          3D

 26 25  0  0  1  0  0  0  0  0999 V2000
   18.8523   -6.0244  -23.4402 O   0  0  0  0  0  0  0  0  0  0  0  0
   18.8096   -5.3641  -22.2010 C   0  0  0  0  0  0  0  0  0  0  0  0
   18.2607   -6.2811  -21.1282 C   0  0  2  0  0  0  0  0  0  0  0  0
   16.8276   -6.4169  -21.4228 N   0  0  0  0  0  0  0  0  0  0  0  0
   18.4741   -5.6674  -19.8031 C   0  0  0  0  0  0  0  0  0  0  0  0
   17.4938   -5.1566  -19.2099 O   0  0  0  0  0  0  0  0  0  0  0  0
   23.2707   -9.9020  -14.5416 N   0  0  0  0  0  0  0  0  0  0  0  0
   21.9061  -10.2211  -14.7739 C   0  0  0  0  0  0  0  0  0  0  0  0
   21.4609  -11.3338  -14.3126 N   0  0  0  0  0  0  0  0  0  0  0  0
   21.0377   -9.3535  -15.4914 N   0  0  0  0  0  0  0  0  0  0  0  0
   21.4305   -8.0385  -15.9114 C   0  0  0  0  0  0  0  0  0  0  0  0
   20.3755   -7.3093  -16.6764 C   0  0  0  0  0  0  0  0  0  0  0  0
   20.8912   -5.9357  -17.0390 C   0  0  0  0  0  0  0  0  0  0  0  0
   19.9404   -5.1049  -17.8328 C   0  0  2  0  0  0  0  0  0  0  0  0
   19.7365   -5.6273  -19.1661 N   0  0  0  0  0  0  0  0  0  0  0  0
   20.5497   -3.7247  -17.8987 C   0  0  0  0  0  0  0  0  0  0  0  0
   21.4929   -3.5461  -18.7060 O   0  0  0  0  0  0  0  0  0  0  0  0
   20.4841  -11.6627  -14.4675 C   0  0  0  0  0  0  0  0  0  0  0  0
   19.7068    4.1314  -17.2261 S   0  0  0  0  0  0  0  0  0  0  0  0
   18.9669    2.4635  -17.1349 C   0  0  0  0  0  0  0  0  0  0  0  0
   20.1311    1.1474  -17.1396 C   0  0  0  0  0  0  0  0  0  0  0  0
   19.6818   -0.2367  -17.1014 C   0  0  1  0  0  0  0  0  0  0  0  0
   20.6280   -1.3393  -17.1926 N   0  0  0  0  0  0  0  0  0  0  0  0
   20.0908   -2.6740  -17.0952 C   0  0  0  0  0  0  0  0  0  0  0  0
   21.9014   -1.2817  -16.4826 O   0  0  0  0  0  0  0  0  0  0  0  0
   22.8958   -0.4229  -17.0218 O   0  0  0  0  0  0  0  0  0  0  0  0
  1  2  1  0
  2  3  1  0
  3  4  1  6
  5  3  1  0
  5  6  2  0
  7  8  1  0
  8 10  1  0
  9  8  2  0
 10 11  1  0
 11 12  1  0
 12 13  1  0
 14 15  1  0
 14 13  1  1
 15  5  1  0
 16 14  1  0
 17 16  2  0
 18 19  1  0
 20 21  1  0
 20 19  1  0
 22 21  1  6
 22 24  1  0
 22 23  1  0
 23 16  1  0
 24 25  1  0
 26 24  2  0
M  END
$$$$
