SRM.pdb
     RDKit          3D

 26 25  0  0  1  0  0  0  0  0999 V2000
   26.4179  -18.9723  -17.7755 O   0  0  0  0  0  0  0  0  0  0  0  0
   27.6507  -19.0618  -17.1080 C   0  0  0  0  0  0  0  0  0  0  0  0
   28.0179  -20.5099  -16.8605 C   0  0  2  0  0  0  0  0  0  0  0  0
   27.7691  -21.2015  -18.1328 N   0  0  0  0  0  0  0  0  0  0  0  0
   27.1659  -21.0542  -15.7853 C   0  0  0  0  0  0  0  0  0  0  0  0
   26.2062  -21.8003  -16.0954 O   0  0  0  0  0  0  0  0  0  0  0  0
   26.4856  -19.3940   -6.9081 N   0  0  0  0  0  0  0  0  0  0  0  0
   25.6258  -20.4343   -7.3513 C   0  0  0  0  0  0  0  0  0  0  0  0
   24.5064  -20.5909   -6.7419 N   0  0  0  0  0  0  0  0  0  0  0  0
   25.9689  -21.2901   -8.4337 N   0  0  0  0  0  0  0  0  0  0  0  0
   26.6887  -20.8297   -9.5868 C   0  0  0  0  0  0  0  0  0  0  0  0
   26.0189  -21.1482  -10.8829 C   0  0  0  0  0  0  0  0  0  0  0  0
   26.9196  -20.7235  -12.0198 C   0  0  0  0  0  0  0  0  0  0  0  0
   26.4310  -21.1069  -13.3758 C   0  0  2  0  0  0  0  0  0  0  0  0
   27.3803  -20.7745  -14.4153 N   0  0  0  0  0  0  0  0  0  0  0  0
   25.1414  -20.3489  -13.5824 C   0  0  0  0  0  0  0  0  0  0  0  0
   25.2110  -19.0992  -13.6637 O   0  0  0  0  0  0  0  0  0  0  0  0
   23.8387  -21.3584   -6.9688 C   0  0  0  0  0  0  0  0  0  0  0  0
   22.7681  -17.3907  -17.7119 S   0  0  0  0  0  0  0  0  0  0  0  0
   21.1897  -18.0965  -17.1216 C   0  0  0  0  0  0  0  0  0  0  0  0
   21.3031  -18.9652  -15.5984 C   0  0  0  0  0  0  0  0  0  0  0  0
   22.5352  -19.6447  -15.2252 C   0  0  1  0  0  0  0  0  0  0  0  0
   22.6772  -20.2899  -13.9280 N   0  0  0  0  0  0  0  0  0  0  0  0
   23.9067  -21.0018  -13.6809 C   0  0  0  0  0  0  0  0  0  0  0  0
   21.5658  -21.0364  -13.3477 O   0  0  0  0  0  0  0  0  0  0  0  0
   20.3216  -20.3584  -13.2509 O   0  0  0  0  0  0  0  0  0  0  0  0
  1  2  1  0
  2  3  1  0
  3  4  1  6
  5  3  1  0
  5  6  2  0
  7  8  1  0
  8 10  1  0
  9  8  2  0
 10 11  1  0
 11 12  1  0
 12 13  1  0
 14 15  1  0
 14 13  1  1
 15  5  1  0
 16 14  1  0
 17 16  2  0
 18 19  1  0
 20 21  1  0
 20 19  1  0
 22 21  1  1
 22 24  1  0
 22 23  1  0
 23 16  1  0
 24 25  1  0
 26 24  2  0
M  END
$$$$
