SRM.pdb
     RDKit          3D

 26 25  0  0  1  0  0  0  0  0999 V2000
   26.2221  -13.7155  -17.3126 O   0  0  0  0  0  0  0  0  0  0  0  0
   27.2618  -12.7830  -17.4630 C   0  0  0  0  0  0  0  0  0  0  0  0
   27.0624  -11.6084  -16.5283 C   0  0  2  0  0  0  0  0  0  0  0  0
   26.9917  -12.1870  -15.1795 N   0  0  0  0  0  0  0  0  0  0  0  0
   25.8066  -10.9147  -16.8744 C   0  0  0  0  0  0  0  0  0  0  0  0
   25.7230  -10.3362  -17.9844 O   0  0  0  0  0  0  0  0  0  0  0  0
   17.3807  -12.3648  -14.4813 N   0  0  0  0  0  0  0  0  0  0  0  0
   17.3411  -11.2070  -15.3032 C   0  0  0  0  0  0  0  0  0  0  0  0
   16.1912  -10.7653  -15.6664 N   0  0  0  0  0  0  0  0  0  0  0  0
   18.5225  -10.5377  -15.7252 N   0  0  0  0  0  0  0  0  0  0  0  0
   19.8380  -11.0402  -15.4483 C   0  0  0  0  0  0  0  0  0  0  0  0
   20.9300  -10.2750  -16.1206 C   0  0  0  0  0  0  0  0  0  0  0  0
   22.2607  -10.8894  -15.7519 C   0  0  0  0  0  0  0  0  0  0  0  0
   23.4459  -10.2081  -16.3482 C   0  0  2  0  0  0  0  0  0  0  0  0
   24.6867  -10.8707  -16.0112 N   0  0  0  0  0  0  0  0  0  0  0  0
   23.4371   -8.8018  -15.7982 C   0  0  0  0  0  0  0  0  0  0  0  0
   23.9266   -8.6232  -14.6573 O   0  0  0  0  0  0  0  0  0  0  0  0
   16.0709   -9.9317  -16.2802 C   0  0  0  0  0  0  0  0  0  0  0  0
   25.4279   -1.4019  -16.8122 S   0  0  0  0  0  0  0  0  0  0  0  0
   25.4020   -3.1635  -17.2955 C   0  0  0  0  0  0  0  0  0  0  0  0
   24.2144   -4.1372  -16.4416 C   0  0  0  0  0  0  0  0  0  0  0  0
   24.0112   -5.5343  -16.7967 C   0  0  1  0  0  0  0  0  0  0  0  0
   23.0467   -6.3604  -16.0849 N   0  0  0  0  0  0  0  0  0  0  0  0
   22.9057   -7.7274  -16.5218 C   0  0  0  0  0  0  0  0  0  0  0  0
   21.7326   -5.8299  -15.7372 O   0  0  0  0  0  0  0  0  0  0  0  0
   21.6841   -4.8863  -14.6769 O   0  0  0  0  0  0  0  0  0  0  0  0
  1  2  1  0
  2  3  1  0
  3  4  1  1
  5  3  1  0
  5  6  2  0
  7  8  1  0
  8 10  1  0
  9  8  2  0
 10 11  1  0
 11 12  1  0
 12 13  1  0
 14 15  1  0
 14 13  1  1
 15  5  1  0
 16 14  1  0
 17 16  2  0
 18 19  1  0
 20 21  1  0
 20 19  1  0
 22 21  1  1
 22 24  1  0
 22 23  1  0
 23 16  1  0
 24 25  1  0
 26 24  2  0
M  END
$$$$
