SRM.pdb
     RDKit          3D

 26 25  0  0  1  0  0  0  0  0999 V2000
   21.4721  -21.4493  -18.3463 O   0  0  0  0  0  0  0  0  0  0  0  0
   22.5370  -22.2765  -18.7402 C   0  0  0  0  0  0  0  0  0  0  0  0
   22.6691  -23.4571  -17.8012 C   0  0  2  0  0  0  0  0  0  0  0  0
   21.5072  -24.3125  -18.0794 N   0  0  0  0  0  0  0  0  0  0  0  0
   22.6526  -22.9773  -16.4057 C   0  0  0  0  0  0  0  0  0  0  0  0
   21.8230  -23.4743  -15.6066 O   0  0  0  0  0  0  0  0  0  0  0  0
   26.3687  -20.6225   -9.5035 N   0  0  0  0  0  0  0  0  0  0  0  0
   27.3898  -21.2397  -10.2744 C   0  0  0  0  0  0  0  0  0  0  0  0
   28.3589  -21.8040   -9.6487 N   0  0  0  0  0  0  0  0  0  0  0  0
   27.3645  -21.2475  -11.6960 N   0  0  0  0  0  0  0  0  0  0  0  0
   26.5574  -20.3404  -12.4611 C   0  0  0  0  0  0  0  0  0  0  0  0
   25.1617  -20.8201  -12.6892 C   0  0  0  0  0  0  0  0  0  0  0  0
   24.9674  -21.0858  -14.1643 C   0  0  0  0  0  0  0  0  0  0  0  0
   23.6148  -21.5964  -14.5305 C   0  0  2  0  0  0  0  0  0  0  0  0
   23.5314  -21.9794  -15.9228 N   0  0  0  0  0  0  0  0  0  0  0  0
   22.6525  -20.4698  -14.2388 C   0  0  0  0  0  0  0  0  0  0  0  0
   22.6542  -19.4896  -15.0214 O   0  0  0  0  0  0  0  0  0  0  0  0
   29.1300  -22.3101  -10.1337 C   0  0  0  0  0  0  0  0  0  0  0  0
   19.4060  -16.1605  -15.0637 S   0  0  0  0  0  0  0  0  0  0  0  0
   18.1322  -17.3527  -14.5219 C   0  0  0  0  0  0  0  0  0  0  0  0
   18.6022  -19.0396  -14.6681 C   0  0  0  0  0  0  0  0  0  0  0  0
   19.9857  -19.4418  -14.4604 C   0  0  1  0  0  0  0  0  0  0  0  0
   20.3969  -20.1274  -13.2438 N   0  0  0  0  0  0  0  0  0  0  0  0
   21.7853  -20.5029  -13.1401 C   0  0  0  0  0  0  0  0  0  0  0  0
   19.5697  -21.1872  -12.6765 O   0  0  0  0  0  0  0  0  0  0  0  0
   19.4818  -22.3956  -13.4175 O   0  0  0  0  0  0  0  0  0  0  0  0
  1  2  1  0
  2  3  1  0
  3  4  1  1
  5  3  1  0
  5  6  2  0
  7  8  1  0
  8 10  1  0
  9  8  2  0
 10 11  1  0
 11 12  1  0
 12 13  1  0
 14 15  1  0
 14 13  1  6
 15  5  1  0
 16 14  1  0
 17 16  2  0
 18 19  1  0
 20 21  1  0
 20 19  1  0
 22 21  1  1
 22 24  1  0
 22 23  1  0
 23 16  1  0
 24 25  1  0
 26 24  2  0
M  END
$$$$
