LSW.pdb
     RDKit          3D

 29 30  0  0  1  0  0  0  0  0999 V2000
   27.9414  -25.7190  -16.8978 C   0  0  0  0  0  0  0  0  0  0  0  0
   27.1442  -24.8017  -17.8031 C   0  0  2  0  0  0  0  0  0  0  0  0
   27.9563  -24.5510  -19.0334 C   0  0  0  0  0  0  0  0  0  0  0  0
   26.7717  -23.5924  -17.0238 C   0  0  0  0  0  0  0  0  0  0  0  0
   25.8957  -23.8799  -15.8402 C   0  0  2  0  0  0  0  0  0  0  0  0
   26.3374  -25.1908  -15.3305 N   0  0  0  0  0  0  0  0  0  0  0  0
   24.4812  -24.0080  -16.1497 C   0  0  0  0  0  0  0  0  0  0  0  0
   23.9108  -22.9485  -16.5970 O   0  0  0  0  0  0  0  0  0  0  0  0
   22.4053  -27.1090  -14.9285 O   0  0  0  0  0  0  0  0  0  0  0  0
   21.8401  -26.6430  -16.1226 C   0  0  0  0  0  0  0  0  0  0  0  0
   22.2548  -25.1843  -16.3817 C   0  0  2  0  0  0  0  0  0  0  0  0
   23.6589  -25.1323  -16.0255 N   0  0  0  0  0  0  0  0  0  0  0  0
   21.4361  -24.3670  -15.4479 C   0  0  0  0  0  0  0  0  0  0  0  0
   21.8505  -24.1328  -14.2789 O   0  0  0  0  0  0  0  0  0  0  0  0
   20.1784  -23.8242  -15.8186 N   0  0  0  0  0  0  0  0  0  0  0  0
   19.3675  -23.0305  -14.8638 C   0  0  1  0  0  0  0  0  0  0  0  0
   19.2489  -21.6744  -15.4474 C   0  0  0  0  0  0  0  0  0  0  0  0
   20.5034  -20.8973  -15.4810 C   0  0  0  0  0  0  0  0  0  0  0  0
   21.0969  -20.2799  -14.3612 C   0  0  0  0  0  0  0  0  0  0  0  0
   22.1927  -19.6377  -14.7858 N   0  0  0  0  0  0  0  0  0  0  0  0
   22.3621  -19.7886  -16.0970 C   0  0  0  0  0  0  0  0  0  0  0  0
   23.3538  -19.3250  -16.9566 C   0  0  0  0  0  0  0  0  0  0  0  0
   23.2671  -19.6705  -18.2753 C   0  0  0  0  0  0  0  0  0  0  0  0
   22.2291  -20.4603  -18.7663 C   0  0  0  0  0  0  0  0  0  0  0  0
   21.2717  -20.8957  -17.8848 C   0  0  0  0  0  0  0  0  0  0  0  0
   21.3175  -20.5693  -16.5347 C   0  0  0  0  0  0  0  0  0  0  0  0
   18.0811  -23.6707  -14.6232 C   0  0  0  0  0  0  0  0  0  0  0  0
   17.6506  -24.6810  -15.2137 O   0  0  0  0  0  0  0  0  0  0  0  0
   17.2310  -23.1296  -13.6513 O   0  0  0  0  0  0  0  0  0  0  0  0
  2  1  1  1
  2  4  1  0
  3  2  1  0
  5  4  1  0
  5  7  1  0
  5  6  1  6
  7  8  2  0
  7 12  1  0
  9 10  1  0
 11 10  1  1
 11 13  1  0
 12 11  1  0
 13 15  1  0
 14 13  2  0
 15 16  1  0
 16 17  1  6
 16 27  1  0
 18 17  1  0
 19 18  2  0
 20 19  1  0
 21 20  1  0
 21 26  2  0
 22 23  2  0
 22 21  1  0
 23 24  1  0
 24 25  2  0
 26 25  1  0
 26 18  1  0
 27 28  2  0
 27 29  1  0
M  END
$$$$
