LSW.pdb
     RDKit          3D

 29 30  0  0  1  0  0  0  0  0999 V2000
   29.7184  -18.7071  -17.7061 C   0  0  0  0  0  0  0  0  0  0  0  0
   28.5210  -17.8522  -17.3428 C   0  0  2  0  0  0  0  0  0  0  0  0
   28.6018  -16.5872  -18.1361 C   0  0  0  0  0  0  0  0  0  0  0  0
   28.5047  -17.6827  -15.8665 C   0  0  0  0  0  0  0  0  0  0  0  0
   28.4357  -18.9757  -15.1085 C   0  0  2  0  0  0  0  0  0  0  0  0
   28.1718  -20.0140  -16.1212 N   0  0  0  0  0  0  0  0  0  0  0  0
   27.3547  -19.0536  -14.1398 C   0  0  0  0  0  0  0  0  0  0  0  0
   27.3638  -18.1563  -13.2217 O   0  0  0  0  0  0  0  0  0  0  0  0
   22.9976  -20.8689  -12.9047 O   0  0  0  0  0  0  0  0  0  0  0  0
   24.1355  -20.8509  -13.7216 C   0  0  0  0  0  0  0  0  0  0  0  0
   25.2172  -19.9380  -13.1186 C   0  0  2  0  0  0  0  0  0  0  0  0
   26.3056  -19.9760  -14.0751 N   0  0  0  0  0  0  0  0  0  0  0  0
   25.6098  -20.5810  -11.8368 C   0  0  0  0  0  0  0  0  0  0  0  0
   26.4667  -21.5077  -11.8278 O   0  0  0  0  0  0  0  0  0  0  0  0
   25.0517  -20.1919  -10.5914 N   0  0  0  0  0  0  0  0  0  0  0  0
   25.3861  -20.9086   -9.3370 C   0  0  1  0  0  0  0  0  0  0  0  0
   26.5266  -20.1806   -8.7346 C   0  0  0  0  0  0  0  0  0  0  0  0
   26.8847  -20.6035   -7.3665 C   0  0  0  0  0  0  0  0  0  0  0  0
   26.3982  -21.7638   -6.7305 C   0  0  0  0  0  0  0  0  0  0  0  0
   26.9084  -21.7915   -5.4926 N   0  0  0  0  0  0  0  0  0  0  0  0
   27.6919  -20.7392   -5.2705 C   0  0  0  0  0  0  0  0  0  0  0  0
   28.4360  -20.3644   -4.1556 C   0  0  0  0  0  0  0  0  0  0  0  0
   29.1749  -19.2184   -4.2380 C   0  0  0  0  0  0  0  0  0  0  0  0
   29.1982  -18.4347   -5.3902 C   0  0  0  0  0  0  0  0  0  0  0  0
   28.4496  -18.8402   -6.4665 C   0  0  0  0  0  0  0  0  0  0  0  0
   27.6818  -19.9979   -6.4292 C   0  0  0  0  0  0  0  0  0  0  0  0
   24.2237  -20.9872   -8.4623 C   0  0  0  0  0  0  0  0  0  0  0  0
   23.2076  -20.2686   -8.5380 O   0  0  0  0  0  0  0  0  0  0  0  0
   24.2150  -21.9416   -7.4381 O   0  0  0  0  0  0  0  0  0  0  0  0
  2  1  1  1
  2  4  1  0
  3  2  1  0
  5  4  1  0
  5  7  1  0
  5  6  1  6
  7  8  2  0
  7 12  1  0
  9 10  1  0
 11 10  1  6
 11 13  1  0
 12 11  1  0
 13 15  1  0
 14 13  2  0
 15 16  1  0
 16 17  1  1
 16 27  1  0
 18 17  1  0
 19 18  2  0
 20 19  1  0
 21 20  1  0
 21 26  2  0
 22 23  2  0
 22 21  1  0
 23 24  1  0
 24 25  2  0
 26 25  1  0
 26 18  1  0
 27 28  2  0
 27 29  1  0
M  END
$$$$
