LSW.pdb
     RDKit          3D

 29 30  0  0  1  0  0  0  0  0999 V2000
   27.2891  -21.8534   -9.8984 C   0  0  0  0  0  0  0  0  0  0  0  0
   27.9169  -21.9929  -11.2705 C   0  0  2  0  0  0  0  0  0  0  0  0
   29.2609  -21.3389  -11.2297 C   0  0  0  0  0  0  0  0  0  0  0  0
   26.9667  -21.4425  -12.2719 C   0  0  0  0  0  0  0  0  0  0  0  0
   25.5948  -22.0458  -12.2014 C   0  0  2  0  0  0  0  0  0  0  0  0
   25.7558  -23.4459  -12.6340 N   0  0  0  0  0  0  0  0  0  0  0  0
   24.6205  -21.4425  -13.0958 C   0  0  0  0  0  0  0  0  0  0  0  0
   25.0234  -21.2290  -14.2959 O   0  0  0  0  0  0  0  0  0  0  0  0
   20.9614  -19.9418  -11.9107 O   0  0  0  0  0  0  0  0  0  0  0  0
   20.9947  -20.6365  -13.1268 C   0  0  0  0  0  0  0  0  0  0  0  0
   22.3777  -20.5011  -13.7870 C   0  0  2  0  0  0  0  0  0  0  0  0
   23.3022  -21.0640  -12.8229 N   0  0  0  0  0  0  0  0  0  0  0  0
   22.5989  -19.0399  -13.9490 C   0  0  0  0  0  0  0  0  0  0  0  0
   22.8078  -18.3135  -12.9381 O   0  0  0  0  0  0  0  0  0  0  0  0
   22.5854  -18.4073  -15.2193 N   0  0  0  0  0  0  0  0  0  0  0  0
   22.6797  -16.9331  -15.3496 C   0  0  1  0  0  0  0  0  0  0  0  0
   24.0519  -16.6457  -15.8269 C   0  0  0  0  0  0  0  0  0  0  0  0
   24.3289  -15.2241  -16.1118 C   0  0  0  0  0  0  0  0  0  0  0  0
   24.6405  -14.2547  -15.1369 C   0  0  0  0  0  0  0  0  0  0  0  0
   24.7849  -13.0806  -15.7646 N   0  0  0  0  0  0  0  0  0  0  0  0
   24.5928  -13.2078  -17.0752 C   0  0  0  0  0  0  0  0  0  0  0  0
   24.6569  -12.2787  -18.1096 C   0  0  0  0  0  0  0  0  0  0  0  0
   24.4287  -12.7233  -19.3809 C   0  0  0  0  0  0  0  0  0  0  0  0
   24.1395  -14.0584  -19.6569 C   0  0  0  0  0  0  0  0  0  0  0  0
   24.0853  -14.9412  -18.6077 C   0  0  0  0  0  0  0  0  0  0  0  0
   24.3097  -14.5354  -17.2976 C   0  0  0  0  0  0  0  0  0  0  0  0
   21.6411  -16.4264  -16.2368 C   0  0  0  0  0  0  0  0  0  0  0  0
   21.1518  -17.0384  -17.2067 O   0  0  0  0  0  0  0  0  0  0  0  0
   21.1263  -15.1447  -16.0079 O   0  0  0  0  0  0  0  0  0  0  0  0
  2  1  1  1
  2  4  1  0
  3  2  1  0
  5  4  1  0
  5  7  1  0
  5  6  1  6
  7  8  2  0
  7 12  1  0
  9 10  1  0
 11 10  1  1
 11 13  1  0
 12 11  1  0
 13 15  1  0
 14 13  2  0
 15 16  1  0
 16 17  1  6
 16 27  1  0
 18 17  1  0
 19 18  2  0
 20 19  1  0
 21 20  1  0
 21 26  2  0
 22 23  2  0
 22 21  1  0
 23 24  1  0
 24 25  2  0
 26 25  1  0
 26 18  1  0
 27 28  2  0
 27 29  1  0
M  END
$$$$
