LSW.pdb
     RDKit          3D

 29 30  0  0  1  0  0  0  0  0999 V2000
   25.4650  -14.6322  -16.3442 C   0  0  0  0  0  0  0  0  0  0  0  0
   25.0899  -15.0687  -17.7461 C   0  0  2  0  0  0  0  0  0  0  0  0
   24.5650  -13.8731  -18.4747 C   0  0  0  0  0  0  0  0  0  0  0  0
   24.1514  -16.2159  -17.6377 C   0  0  0  0  0  0  0  0  0  0  0  0
   24.6535  -17.3297  -16.7668 C   0  0  2  0  0  0  0  0  0  0  0  0
   25.8238  -17.8850  -17.4706 N   0  0  0  0  0  0  0  0  0  0  0  0
   23.7170  -18.4265  -16.5851 C   0  0  0  0  0  0  0  0  0  0  0  0
   22.9408  -18.6665  -17.5791 O   0  0  0  0  0  0  0  0  0  0  0  0
   23.9636  -20.9967  -13.4671 O   0  0  0  0  0  0  0  0  0  0  0  0
   23.4542  -21.4829  -14.6782 C   0  0  0  0  0  0  0  0  0  0  0  0
   22.6493  -20.3896  -15.4018 C   0  0  2  0  0  0  0  0  0  0  0  0
   23.5493  -19.2556  -15.4715 N   0  0  0  0  0  0  0  0  0  0  0  0
   21.4906  -20.0985  -14.5170 C   0  0  0  0  0  0  0  0  0  0  0  0
   21.6413  -19.3822  -13.4887 O   0  0  0  0  0  0  0  0  0  0  0  0
   20.1899  -20.6012  -14.7810 N   0  0  0  0  0  0  0  0  0  0  0  0
   19.0364  -20.2520  -13.9170 C   0  0  1  0  0  0  0  0  0  0  0  0
   18.7914  -18.8050  -14.1167 C   0  0  0  0  0  0  0  0  0  0  0  0
   18.3820  -18.4239  -15.4827 C   0  0  0  0  0  0  0  0  0  0  0  0
   17.4295  -19.1152  -16.2588 C   0  0  0  0  0  0  0  0  0  0  0  0
   17.3537  -18.5028  -17.4473 N   0  0  0  0  0  0  0  0  0  0  0  0
   18.1825  -17.4634  -17.5078 C   0  0  0  0  0  0  0  0  0  0  0  0
   18.4268  -16.5383  -18.5185 C   0  0  0  0  0  0  0  0  0  0  0  0
   19.3372  -15.5502  -18.2720 C   0  0  0  0  0  0  0  0  0  0  0  0
   20.0111  -15.4519  -17.0561 C   0  0  0  0  0  0  0  0  0  0  0  0
   19.7409  -16.3851  -16.0868 C   0  0  0  0  0  0  0  0  0  0  0  0
   18.8235  -17.4086  -16.2920 C   0  0  0  0  0  0  0  0  0  0  0  0
   17.8830  -21.0829  -14.2360 C   0  0  0  0  0  0  0  0  0  0  0  0
   16.7890  -21.0678  -13.6380 O   0  0  0  0  0  0  0  0  0  0  0  0
   17.9782  -21.9869  -15.3008 O   0  0  0  0  0  0  0  0  0  0  0  0
  2  1  1  1
  2  4  1  0
  3  2  1  0
  5  4  1  0
  5  7  1  0
  5  6  1  6
  7  8  2  0
  7 12  1  0
  9 10  1  0
 11 10  1  1
 11 13  1  0
 12 11  1  0
 13 15  1  0
 14 13  2  0
 15 16  1  0
 16 17  1  6
 16 27  1  0
 18 17  1  0
 19 18  2  0
 20 19  1  0
 21 20  1  0
 21 26  2  0
 22 23  2  0
 22 21  1  0
 23 24  1  0
 24 25  2  0
 26 25  1  0
 26 18  1  0
 27 28  2  0
 27 29  1  0
M  END
$$$$
