LSW.pdb
     RDKit          3D

 29 30  0  0  1  0  0  0  0  0999 V2000
   28.3335  -17.4035  -16.0591 C   0  0  0  0  0  0  0  0  0  0  0  0
   28.3674  -18.7860  -16.6788 C   0  0  2  0  0  0  0  0  0  0  0  0
   28.3303  -18.6246  -18.1649 C   0  0  0  0  0  0  0  0  0  0  0  0
   27.2580  -19.5827  -16.0930 C   0  0  0  0  0  0  0  0  0  0  0  0
   27.2630  -19.6177  -14.5931 C   0  0  2  0  0  0  0  0  0  0  0  0
   28.5389  -20.2530  -14.2166 N   0  0  0  0  0  0  0  0  0  0  0  0
   26.2063  -20.4219  -14.0019 C   0  0  0  0  0  0  0  0  0  0  0  0
   25.4841  -21.0875  -14.8287 O   0  0  0  0  0  0  0  0  0  0  0  0
   25.5755  -20.2892  -10.1479 O   0  0  0  0  0  0  0  0  0  0  0  0
   25.1245  -21.5277  -10.6223 C   0  0  0  0  0  0  0  0  0  0  0  0
   24.8521  -21.4586  -12.1349 C   0  0  2  0  0  0  0  0  0  0  0  0
   25.8718  -20.5676  -12.6518 N   0  0  0  0  0  0  0  0  0  0  0  0
   23.4993  -20.8565  -12.2675 C   0  0  0  0  0  0  0  0  0  0  0  0
   23.2860  -19.6796  -11.8641 O   0  0  0  0  0  0  0  0  0  0  0  0
   22.4088  -21.5609  -12.8407 N   0  0  0  0  0  0  0  0  0  0  0  0
   21.0795  -20.9249  -13.0065 C   0  0  1  0  0  0  0  0  0  0  0  0
   20.8379  -20.8426  -14.4654 C   0  0  0  0  0  0  0  0  0  0  0  0
   21.6585  -19.8443  -15.1788 C   0  0  0  0  0  0  0  0  0  0  0  0
   21.6031  -18.4529  -14.9586 C   0  0  0  0  0  0  0  0  0  0  0  0
   22.4555  -17.8732  -15.8135 N   0  0  0  0  0  0  0  0  0  0  0  0
   23.0649  -18.7786  -16.5750 C   0  0  0  0  0  0  0  0  0  0  0  0
   24.0267  -18.6456  -17.5722 C   0  0  0  0  0  0  0  0  0  0  0  0
   24.4863  -19.7844  -18.1705 C   0  0  0  0  0  0  0  0  0  0  0  0
   24.0221  -21.0481  -17.8105 C   0  0  0  0  0  0  0  0  0  0  0  0
   23.0731  -21.1342  -16.8230 C   0  0  0  0  0  0  0  0  0  0  0  0
   22.5751  -20.0038  -16.1862 C   0  0  0  0  0  0  0  0  0  0  0  0
   20.0556  -21.6764  -12.2926 C   0  0  0  0  0  0  0  0  0  0  0  0
   20.2155  -22.7877  -11.7504 O   0  0  0  0  0  0  0  0  0  0  0  0
   18.7703  -21.1314  -12.1882 O   0  0  0  0  0  0  0  0  0  0  0  0
  2  1  1  1
  2  4  1  0
  3  2  1  0
  5  4  1  0
  5  7  1  0
  5  6  1  6
  7  8  2  0
  7 12  1  0
  9 10  1  0
 11 10  1  1
 11 13  1  0
 12 11  1  0
 13 15  1  0
 14 13  2  0
 15 16  1  0
 16 17  1  6
 16 27  1  0
 18 17  1  0
 19 18  2  0
 20 19  1  0
 21 20  1  0
 21 26  2  0
 22 23  2  0
 22 21  1  0
 23 24  1  0
 24 25  2  0
 26 25  1  0
 26 18  1  0
 27 28  2  0
 27 29  1  0
M  END
$$$$
