LSW.pdb
     RDKit          3D

 29 30  0  0  1  0  0  0  0  0999 V2000
   30.2420  -30.9576  -18.8272 C   0  0  0  0  0  0  0  0  0  0  0  0
   30.6165  -32.1663  -17.9934 C   0  0  2  0  0  0  0  0  0  0  0  0
   31.4423  -33.0752  -18.8466 C   0  0  0  0  0  0  0  0  0  0  0  0
   29.3666  -32.7583  -17.4496 C   0  0  0  0  0  0  0  0  0  0  0  0
   28.5443  -31.7998  -16.6396 C   0  0  2  0  0  0  0  0  0  0  0  0
   29.2171  -31.7095  -15.3309 N   0  0  0  0  0  0  0  0  0  0  0  0
   27.1831  -32.2387  -16.3791 C   0  0  0  0  0  0  0  0  0  0  0  0
   26.3838  -32.1998  -17.3830 O   0  0  0  0  0  0  0  0  0  0  0  0
   26.4445  -33.5685  -12.9493 O   0  0  0  0  0  0  0  0  0  0  0  0
   25.1755  -33.5947  -13.5420 C   0  0  0  0  0  0  0  0  0  0  0  0
   25.2540  -33.1232  -15.0044 C   0  0  2  0  0  0  0  0  0  0  0  0
   26.6285  -32.6982  -15.1804 N   0  0  0  0  0  0  0  0  0  0  0  0
   24.3215  -31.9692  -15.1000 C   0  0  0  0  0  0  0  0  0  0  0  0
   24.6328  -30.8576  -14.5896 O   0  0  0  0  0  0  0  0  0  0  0  0
   23.0657  -32.0615  -15.7546 N   0  0  0  0  0  0  0  0  0  0  0  0
   22.1689  -30.8867  -15.8750 C   0  0  1  0  0  0  0  0  0  0  0  0
   21.8120  -30.7823  -17.3087 C   0  0  0  0  0  0  0  0  0  0  0  0
   22.8474  -30.1742  -18.1671 C   0  0  0  0  0  0  0  0  0  0  0  0
   24.0477  -29.6032  -17.6973 C   0  0  0  0  0  0  0  0  0  0  0  0
   24.7090  -29.1208  -18.7572 N   0  0  0  0  0  0  0  0  0  0  0  0
   24.0341  -29.3334  -19.8841 C   0  0  0  0  0  0  0  0  0  0  0  0
   24.3343  -29.0282  -21.2085 C   0  0  0  0  0  0  0  0  0  0  0  0
   23.4363  -29.4010  -22.1679 C   0  0  0  0  0  0  0  0  0  0  0  0
   22.2523  -30.0660  -21.8545 C   0  0  0  0  0  0  0  0  0  0  0  0
   21.9950  -30.3470  -20.5361 C   0  0  0  0  0  0  0  0  0  0  0  0
   22.8781  -29.9868  -19.5253 C   0  0  0  0  0  0  0  0  0  0  0  0
   21.0124  -31.0290  -15.0005 C   0  0  0  0  0  0  0  0  0  0  0  0
   20.8196  -31.9628  -14.1971 O   0  0  0  0  0  0  0  0  0  0  0  0
   20.0130  -30.0493  -15.0409 O   0  0  0  0  0  0  0  0  0  0  0  0
  2  1  1  6
  2  4  1  0
  3  2  1  0
  5  4  1  0
  5  7  1  0
  5  6  1  1
  7  8  2  0
  7 12  1  0
  9 10  1  0
 11 10  1  1
 11 13  1  0
 12 11  1  0
 13 15  1  0
 14 13  2  0
 15 16  1  0
 16 17  1  6
 16 27  1  0
 18 17  1  0
 19 18  2  0
 20 19  1  0
 21 20  1  0
 21 26  2  0
 22 23  2  0
 22 21  1  0
 23 24  1  0
 24 25  2  0
 26 25  1  0
 26 18  1  0
 27 28  2  0
 27 29  1  0
M  END
$$$$
