LSW.pdb
     RDKit          3D

 29 30  0  0  1  0  0  0  0  0999 V2000
   28.6619  -16.8222  -16.5235 C   0  0  0  0  0  0  0  0  0  0  0  0
   27.4288  -16.0845  -16.0422 C   0  0  2  0  0  0  0  0  0  0  0  0
   27.8517  -14.7181  -15.6061 C   0  0  0  0  0  0  0  0  0  0  0  0
   26.7706  -16.9146  -15.0000 C   0  0  0  0  0  0  0  0  0  0  0  0
   26.4609  -18.3134  -15.4453 C   0  0  2  0  0  0  0  0  0  0  0  0
   25.5282  -18.1705  -16.5780 N   0  0  0  0  0  0  0  0  0  0  0  0
   25.7865  -19.1311  -14.4505 C   0  0  0  0  0  0  0  0  0  0  0  0
   24.8173  -18.5643  -13.8280 O   0  0  0  0  0  0  0  0  0  0  0  0
   26.8637  -22.8786  -13.9123 O   0  0  0  0  0  0  0  0  0  0  0  0
   25.5240  -22.6968  -13.5453 C   0  0  0  0  0  0  0  0  0  0  0  0
   25.2691  -21.2335  -13.1443 C   0  0  2  0  0  0  0  0  0  0  0  0
   26.0527  -20.4535  -14.0816 N   0  0  0  0  0  0  0  0  0  0  0  0
   25.8023  -21.1019  -11.7628 C   0  0  0  0  0  0  0  0  0  0  0  0
   27.0087  -21.3815  -11.5186 O   0  0  0  0  0  0  0  0  0  0  0  0
   24.9979  -20.6658  -10.6780 N   0  0  0  0  0  0  0  0  0  0  0  0
   25.3857  -20.9332   -9.2719 C   0  0  1  0  0  0  0  0  0  0  0  0
   26.1896  -19.7687   -8.8346 C   0  0  0  0  0  0  0  0  0  0  0  0
   27.5075  -20.1007   -8.2586 C   0  0  0  0  0  0  0  0  0  0  0  0
   28.4826  -20.8994   -8.8900 C   0  0  0  0  0  0  0  0  0  0  0  0
   29.5204  -21.0107   -8.0510 N   0  0  0  0  0  0  0  0  0  0  0  0
   29.2996  -20.3452   -6.9201 C   0  0  0  0  0  0  0  0  0  0  0  0
   30.0893  -20.1659   -5.7881 C   0  0  0  0  0  0  0  0  0  0  0  0
   29.5890  -19.3954   -4.7772 C   0  0  0  0  0  0  0  0  0  0  0  0
   28.3321  -18.7986   -4.8547 C   0  0  0  0  0  0  0  0  0  0  0  0
   27.5857  -19.0016   -5.9883 C   0  0  0  0  0  0  0  0  0  0  0  0
   28.0524  -19.7780   -7.0422 C   0  0  0  0  0  0  0  0  0  0  0  0
   24.2073  -21.1646   -8.4470 C   0  0  0  0  0  0  0  0  0  0  0  0
   23.0238  -21.0655   -8.8267 O   0  0  0  0  0  0  0  0  0  0  0  0
   24.3845  -21.5317   -7.1077 O   0  0  0  0  0  0  0  0  0  0  0  0
  2  1  1  1
  2  4  1  0
  3  2  1  0
  5  4  1  0
  5  7  1  0
  5  6  1  6
  7  8  2  0
  7 12  1  0
  9 10  1  0
 11 10  1  6
 11 13  1  0
 12 11  1  0
 13 15  1  0
 14 13  2  0
 15 16  1  0
 16 17  1  1
 16 27  1  0
 18 17  1  0
 19 18  2  0
 20 19  1  0
 21 20  1  0
 21 26  2  0
 22 23  2  0
 22 21  1  0
 23 24  1  0
 24 25  2  0
 26 25  1  0
 26 18  1  0
 27 28  2  0
 27 29  1  0
M  END
$$$$
