FVP.pdb
     RDKit          3D

 26 27  0  0  1  0  0  0  0  0999 V2000
    9.2108  -14.4731   24.4565 N   0  0  0  0  0  0  0  0  0  0  0  0
    8.2051  -15.5115   24.3893 C   0  0  1  0  0  0  0  0  0  0  0  0
    7.0881  -15.1105   25.3306 C   0  0  0  0  0  0  0  0  0  0  0  0
    7.7061  -14.3215   26.4263 C   0  0  0  0  0  0  0  0  0  0  0  0
    7.1774  -13.1058   26.7927 C   0  0  0  0  0  0  0  0  0  0  0  0
    7.7375  -12.3468   27.8161 C   0  0  0  0  0  0  0  0  0  0  0  0
    8.8431  -12.8583   28.4501 C   0  0  0  0  0  0  0  0  0  0  0  0
    9.3771  -14.0756   28.0874 C   0  0  0  0  0  0  0  0  0  0  0  0
    8.8149  -14.8273   27.0673 C   0  0  0  0  0  0  0  0  0  0  0  0
    7.7035  -15.5799   22.9732 C   0  0  0  0  0  0  0  0  0  0  0  0
    6.7007  -16.2743   22.6809 O   0  0  0  0  0  0  0  0  0  0  0  0
    6.9129  -12.9916   20.4184 C   0  0  0  0  0  0  0  0  0  0  0  0
    7.9714  -13.8979   19.8128 C   0  0  1  0  0  0  0  0  0  0  0  0
    9.3247  -13.2395   19.7376 C   0  0  0  0  0  0  0  0  0  0  0  0
    8.0400  -15.2200   20.5550 C   0  0  2  0  0  0  0  0  0  0  0  0
    8.3519  -14.8626   21.9410 N   0  0  0  0  0  0  0  0  0  0  0  0
    9.1112  -16.0621   19.9796 C   0  0  0  0  0  0  0  0  0  0  0  0
   10.2495  -16.0200   20.5708 O   0  0  0  0  0  0  0  0  0  0  0  0
    8.9390  -16.8788   18.8560 N   0  0  0  0  0  0  0  0  0  0  0  0
    7.7912  -16.9942   17.9960 C   0  0  0  0  0  0  0  0  0  0  0  0
    7.9284  -18.3561   17.3228 C   0  0  0  0  0  0  0  0  0  0  0  0
    9.0327  -19.0145   18.0888 C   0  0  0  0  0  0  0  0  0  0  0  0
    9.9617  -17.8204   18.3662 C   0  0  1  0  0  0  0  0  0  0  0  0
   10.5053  -17.3872   17.0688 C   0  0  0  0  0  0  0  0  0  0  0  0
   11.5950  -18.0814   16.5670 O   0  0  0  0  0  0  0  0  0  0  0  0
   10.0569  -16.4374   16.3836 O   0  0  0  0  0  0  0  0  0  0  0  0
  2 10  1  0
  2  1  1  6
  3  2  1  0
  4  5  2  0
  4  3  1  0
  6  5  1  0
  7  6  2  0
  8  7  1  0
  8  9  2  0
  9  4  1  0
 10 11  2  0
 13 14  1  1
 13 12  1  0
 15 13  1  0
 16 10  1  0
 15 16  1  1
 17 15  1  0
 18 17  2  0
 19 17  1  0
 19 23  1  0
 20 21  1  0
 20 19  1  0
 21 22  1  0
 22 23  1  0
 24 25  1  0
 23 24  1  6
 26 24  2  0
M  END
$$$$
