FVP.pdb
     RDKit          3D

 26 27  0  0  1  0  0  0  0  0999 V2000
    7.2353  -18.8244   27.6521 N   0  0  0  0  0  0  0  0  0  0  0  0
    7.7465  -17.4710   27.6172 C   0  0  1  0  0  0  0  0  0  0  0  0
    9.2571  -17.5643   27.6813 C   0  0  0  0  0  0  0  0  0  0  0  0
    9.7361  -16.3585   28.4034 C   0  0  0  0  0  0  0  0  0  0  0  0
    9.8961  -15.1658   27.7373 C   0  0  0  0  0  0  0  0  0  0  0  0
   10.3435  -14.0212   28.3905 C   0  0  0  0  0  0  0  0  0  0  0  0
   10.6209  -14.1262   29.7314 C   0  0  0  0  0  0  0  0  0  0  0  0
   10.4626  -15.3184   30.4039 C   0  0  0  0  0  0  0  0  0  0  0  0
   10.0166  -16.4552   29.7480 C   0  0  0  0  0  0  0  0  0  0  0  0
    7.3106  -16.8443   26.3216 C   0  0  0  0  0  0  0  0  0  0  0  0
    6.9418  -17.5561   25.3569 O   0  0  0  0  0  0  0  0  0  0  0  0
    5.7910  -13.0568   26.0850 C   0  0  0  0  0  0  0  0  0  0  0  0
    6.8566  -13.3953   25.0562 C   0  0  1  0  0  0  0  0  0  0  0  0
    8.1994  -12.8014   25.3950 C   0  0  0  0  0  0  0  0  0  0  0  0
    6.9516  -14.8959   24.8499 C   0  0  2  0  0  0  0  0  0  0  0  0
    7.3071  -15.4388   26.1633 N   0  0  0  0  0  0  0  0  0  0  0  0
    8.0055  -15.1991   23.8575 C   0  0  0  0  0  0  0  0  0  0  0  0
    9.0710  -15.7544   24.3083 O   0  0  0  0  0  0  0  0  0  0  0  0
    7.8907  -14.9176   22.4911 N   0  0  0  0  0  0  0  0  0  0  0  0
    7.0252  -13.9719   21.8378 C   0  0  0  0  0  0  0  0  0  0  0  0
    6.9126  -14.4588   20.3966 C   0  0  0  0  0  0  0  0  0  0  0  0
    7.5281  -15.8222   20.4395 C   0  0  0  0  0  0  0  0  0  0  0  0
    8.6702  -15.6065   21.4470 C   0  0  1  0  0  0  0  0  0  0  0  0
    9.6355  -14.6929   20.8146 C   0  0  0  0  0  0  0  0  0  0  0  0
   10.5800  -15.2472   19.9650 O   0  0  0  0  0  0  0  0  0  0  0  0
    9.6677  -13.4512   20.9866 O   0  0  0  0  0  0  0  0  0  0  0  0
  2 10  1  0
  2  1  1  6
  3  2  1  0
  4  5  2  0
  4  3  1  0
  6  5  1  0
  7  6  2  0
  8  7  1  0
  8  9  2  0
  9  4  1  0
 10 11  2  0
 13 14  1  1
 13 12  1  0
 15 13  1  0
 16 10  1  0
 15 16  1  1
 17 15  1  0
 18 17  2  0
 19 17  1  0
 19 23  1  0
 20 21  1  0
 20 19  1  0
 21 22  1  0
 22 23  1  0
 24 25  1  0
 23 24  1  6
 26 24  2  0
M  END
$$$$
