FVP.pdb
     RDKit          3D

 26 27  0  0  1  0  0  0  0  0999 V2000
    7.0508  -18.9517   27.2778 N   0  0  0  0  0  0  0  0  0  0  0  0
    7.6222  -17.6255   27.3718 C   0  0  1  0  0  0  0  0  0  0  0  0
    9.1281  -17.7888   27.3693 C   0  0  0  0  0  0  0  0  0  0  0  0
    9.6938  -16.6091   28.0715 C   0  0  0  0  0  0  0  0  0  0  0  0
    8.8642  -15.7044   28.6921 C   0  0  0  0  0  0  0  0  0  0  0  0
    9.3688  -14.5907   29.3570 C   0  0  0  0  0  0  0  0  0  0  0  0
   10.7322  -14.4268   29.3711 C   0  0  0  0  0  0  0  0  0  0  0  0
   11.5682  -15.3298   28.7512 C   0  0  0  0  0  0  0  0  0  0  0  0
   11.0599  -16.4374   28.0904 C   0  0  0  0  0  0  0  0  0  0  0  0
    7.1739  -16.8415   26.1694 C   0  0  0  0  0  0  0  0  0  0  0  0
    6.8788  -17.4232   25.0980 O   0  0  0  0  0  0  0  0  0  0  0  0
    7.2928  -12.3633   24.1054 C   0  0  0  0  0  0  0  0  0  0  0  0
    7.1226  -13.2355   25.3378 C   0  0  1  0  0  0  0  0  0  0  0  0
    5.9607  -12.8066   26.1961 C   0  0  0  0  0  0  0  0  0  0  0  0
    7.0154  -14.6998   24.9533 C   0  0  2  0  0  0  0  0  0  0  0  0
    7.0756  -15.4315   26.2211 N   0  0  0  0  0  0  0  0  0  0  0  0
    8.1503  -15.0728   24.0813 C   0  0  0  0  0  0  0  0  0  0  0  0
    9.1939  -15.5336   24.6691 O   0  0  0  0  0  0  0  0  0  0  0  0
    8.1320  -14.9512   22.6870 N   0  0  0  0  0  0  0  0  0  0  0  0
    7.2617  -14.1522   21.8657 C   0  0  0  0  0  0  0  0  0  0  0  0
    7.3047  -14.8000   20.4854 C   0  0  0  0  0  0  0  0  0  0  0  0
    8.0066  -16.0987   20.7309 C   0  0  0  0  0  0  0  0  0  0  0  0
    9.0422  -15.6867   21.7909 C   0  0  1  0  0  0  0  0  0  0  0  0
    9.9923  -14.7751   21.1334 C   0  0  0  0  0  0  0  0  0  0  0  0
   11.0515  -15.3430   20.4430 O   0  0  0  0  0  0  0  0  0  0  0  0
    9.9156  -13.5235   21.1508 O   0  0  0  0  0  0  0  0  0  0  0  0
  2 10  1  0
  2  1  1  6
  3  2  1  0
  4  5  2  0
  4  3  1  0
  6  5  1  0
  7  6  2  0
  8  7  1  0
  8  9  2  0
  9  4  1  0
 10 11  2  0
 13 14  1  6
 13 12  1  0
 15 13  1  0
 16 10  1  0
 15 16  1  1
 17 15  1  0
 18 17  2  0
 19 17  1  0
 19 23  1  0
 20 21  1  0
 20 19  1  0
 21 22  1  0
 22 23  1  0
 24 25  1  0
 23 24  1  6
 26 24  2  0
M  END
$$$$
