FVP.pdb
     RDKit          3D

 26 27  0  0  1  0  0  0  0  0999 V2000
   11.5429  -17.7997   20.7852 N   0  0  0  0  0  0  0  0  0  0  0  0
   10.2246  -17.8202   21.3817 C   0  0  1  0  0  0  0  0  0  0  0  0
   10.2608  -18.8351   22.5056 C   0  0  0  0  0  0  0  0  0  0  0  0
   10.1658  -20.1787   21.8804 C   0  0  0  0  0  0  0  0  0  0  0  0
    8.9747  -20.6175   21.3509 C   0  0  0  0  0  0  0  0  0  0  0  0
    8.8590  -21.8721   20.7595 C   0  0  0  0  0  0  0  0  0  0  0  0
    9.9831  -22.6601   20.7236 C   0  0  0  0  0  0  0  0  0  0  0  0
   11.1790  -22.2258   21.2525 C   0  0  0  0  0  0  0  0  0  0  0  0
   11.2883  -20.9751   21.8403 C   0  0  0  0  0  0  0  0  0  0  0  0
    9.9381  -16.4457   21.9202 C   0  0  0  0  0  0  0  0  0  0  0  0
   10.7688  -15.8584   22.6539 O   0  0  0  0  0  0  0  0  0  0  0  0
    6.8498  -12.5969   22.1365 C   0  0  0  0  0  0  0  0  0  0  0  0
    7.3493  -13.8654   21.4658 C   0  0  1  0  0  0  0  0  0  0  0  0
    7.8065  -13.6312   20.0492 C   0  0  0  0  0  0  0  0  0  0  0  0
    8.4359  -14.5240   22.2959 C   0  0  2  0  0  0  0  0  0  0  0  0
    8.7260  -15.7860   21.6107 N   0  0  0  0  0  0  0  0  0  0  0  0
    7.9362  -14.7766   23.6649 C   0  0  0  0  0  0  0  0  0  0  0  0
    7.6094  -15.9870   23.9387 O   0  0  0  0  0  0  0  0  0  0  0  0
    7.8125  -13.7829   24.6429 N   0  0  0  0  0  0  0  0  0  0  0  0
    7.9600  -12.3587   24.5010 C   0  0  0  0  0  0  0  0  0  0  0  0
    8.2670  -11.8444   25.9039 C   0  0  0  0  0  0  0  0  0  0  0  0
    8.5359  -13.0937   26.6826 C   0  0  0  0  0  0  0  0  0  0  0  0
    7.5173  -14.0633   26.0595 C   0  0  1  0  0  0  0  0  0  0  0  0
    6.1782  -13.5776   26.4296 C   0  0  0  0  0  0  0  0  0  0  0  0
    5.6774  -13.9588   27.6646 O   0  0  0  0  0  0  0  0  0  0  0  0
    5.4564  -12.8451   25.7120 O   0  0  0  0  0  0  0  0  0  0  0  0
  2 10  1  0
  2  1  1  1
  3  2  1  0
  4  5  2  0
  4  3  1  0
  6  5  1  0
  7  6  2  0
  8  7  1  0
  8  9  2  0
  9  4  1  0
 10 11  2  0
 13 14  1  6
 13 12  1  0
 15 13  1  0
 16 10  1  0
 15 16  1  6
 17 15  1  0
 18 17  2  0
 19 17  1  0
 19 23  1  0
 20 21  1  0
 20 19  1  0
 21 22  1  0
 22 23  1  0
 24 25  1  0
 23 24  1  6
 26 24  2  0
M  END
$$$$
