FVP.pdb
     RDKit          3D

 26 27  0  0  1  0  0  0  0  0999 V2000
    6.9040  -18.9557   27.3251 N   0  0  0  0  0  0  0  0  0  0  0  0
    7.5532  -17.6740   27.4983 C   0  0  1  0  0  0  0  0  0  0  0  0
    9.0381  -17.9418   27.6315 C   0  0  0  0  0  0  0  0  0  0  0  0
    9.6375  -16.7495   28.2826 C   0  0  0  0  0  0  0  0  0  0  0  0
   10.9550  -16.7604   28.6774 C   0  0  0  0  0  0  0  0  0  0  0  0
   11.5409  -15.6564   29.2897 C   0  0  0  0  0  0  0  0  0  0  0  0
   10.7517  -14.5498   29.4864 C   0  0  0  0  0  0  0  0  0  0  0  0
    9.4313  -14.5331   29.0931 C   0  0  0  0  0  0  0  0  0  0  0  0
    8.8531  -15.6358   28.4837 C   0  0  0  0  0  0  0  0  0  0  0  0
    7.2737  -16.8439   26.2758 C   0  0  0  0  0  0  0  0  0  0  0  0
    7.1103  -17.3857   25.1564 O   0  0  0  0  0  0  0  0  0  0  0  0
    7.3098  -12.3164   24.3218 C   0  0  0  0  0  0  0  0  0  0  0  0
    7.1387  -13.2181   25.5326 C   0  0  1  0  0  0  0  0  0  0  0  0
    5.9554  -12.8312   26.3816 C   0  0  0  0  0  0  0  0  0  0  0  0
    7.0671  -14.6756   25.1154 C   0  0  2  0  0  0  0  0  0  0  0  0
    7.1892  -15.4348   26.3625 N   0  0  0  0  0  0  0  0  0  0  0  0
    8.1867  -14.9903   24.2015 C   0  0  0  0  0  0  0  0  0  0  0  0
    9.2566  -15.4446   24.7453 O   0  0  0  0  0  0  0  0  0  0  0  0
    8.1276  -14.8218   22.8132 N   0  0  0  0  0  0  0  0  0  0  0  0
    7.2751  -13.9503   22.0489 C   0  0  0  0  0  0  0  0  0  0  0  0
    7.2354  -14.5534   20.6484 C   0  0  0  0  0  0  0  0  0  0  0  0
    7.8728  -15.8955   20.8280 C   0  0  0  0  0  0  0  0  0  0  0  0
    8.9650  -15.5753   21.8626 C   0  0  1  0  0  0  0  0  0  0  0  0
    9.9409  -14.6948   21.2002 C   0  0  0  0  0  0  0  0  0  0  0  0
    9.8953  -13.3437   21.5060 O   0  0  0  0  0  0  0  0  0  0  0  0
   10.8102  -15.0750   20.3803 O   0  0  0  0  0  0  0  0  0  0  0  0
  2 10  1  0
  2  1  1  6
  3  2  1  0
  4  5  2  0
  4  3  1  0
  6  5  1  0
  7  6  2  0
  8  7  1  0
  8  9  2  0
  9  4  1  0
 10 11  2  0
 13 14  1  6
 13 12  1  0
 15 13  1  0
 16 10  1  0
 15 16  1  1
 17 15  1  0
 18 17  2  0
 19 17  1  0
 19 23  1  0
 20 21  1  0
 20 19  1  0
 21 22  1  0
 22 23  1  0
 24 25  1  0
 23 24  1  6
 26 24  2  0
M  END
$$$$
