FVP.pdb
     RDKit          3D

 26 27  0  0  1  0  0  0  0  0999 V2000
    8.0291  -16.3823   21.0794 N   0  0  0  0  0  0  0  0  0  0  0  0
    7.6747  -16.7833   22.4239 C   0  0  1  0  0  0  0  0  0  0  0  0
    8.3674  -18.1036   22.6914 C   0  0  0  0  0  0  0  0  0  0  0  0
    7.3035  -19.1098   22.9379 C   0  0  0  0  0  0  0  0  0  0  0  0
    6.7671  -19.8260   21.8934 C   0  0  0  0  0  0  0  0  0  0  0  0
    5.7692  -20.7745   22.0973 C   0  0  0  0  0  0  0  0  0  0  0  0
    5.3373  -20.9706   23.3861 C   0  0  0  0  0  0  0  0  0  0  0  0
    5.8710  -20.2560   24.4364 C   0  0  0  0  0  0  0  0  0  0  0  0
    6.8647  -19.3125   24.2272 C   0  0  0  0  0  0  0  0  0  0  0  0
    8.1719  -15.7249   23.3694 C   0  0  0  0  0  0  0  0  0  0  0  0
    9.3519  -15.3052   23.2992 O   0  0  0  0  0  0  0  0  0  0  0  0
    7.1770  -13.0961   27.4334 C   0  0  0  0  0  0  0  0  0  0  0  0
    6.7950  -13.6197   26.0593 C   0  0  1  0  0  0  0  0  0  0  0  0
    6.3329  -12.5272   25.1301 C   0  0  0  0  0  0  0  0  0  0  0  0
    7.9319  -14.4197   25.4502 C   0  0  2  0  0  0  0  0  0  0  0  0
    7.3196  -15.1802   24.3580 N   0  0  0  0  0  0  0  0  0  0  0  0
    8.5022  -15.3318   26.4653 C   0  0  0  0  0  0  0  0  0  0  0  0
    8.0735  -16.5414   26.4506 O   0  0  0  0  0  0  0  0  0  0  0  0
    9.4613  -14.9435   27.4080 N   0  0  0  0  0  0  0  0  0  0  0  0
    9.6305  -13.6637   28.0434 C   0  0  0  0  0  0  0  0  0  0  0  0
   11.0814  -13.6368   28.5134 C   0  0  0  0  0  0  0  0  0  0  0  0
   11.6874  -14.8303   27.8442 C   0  0  0  0  0  0  0  0  0  0  0  0
   10.5242  -15.8347   27.9065 C   0  0  1  0  0  0  0  0  0  0  0  0
   10.3173  -16.1667   29.3254 C   0  0  0  0  0  0  0  0  0  0  0  0
    9.2059  -15.6274   29.9540 O   0  0  0  0  0  0  0  0  0  0  0  0
   11.0708  -16.9006   30.0083 O   0  0  0  0  0  0  0  0  0  0  0  0
  2 10  1  0
  2  1  1  6
  3  2  1  0
  4  5  2  0
  4  3  1  0
  6  5  1  0
  7  6  2  0
  8  7  1  0
  8  9  2  0
  9  4  1  0
 10 11  2  0
 13 14  1  6
 13 12  1  0
 15 13  1  0
 16 10  1  0
 15 16  1  6
 17 15  1  0
 18 17  2  0
 19 17  1  0
 19 23  1  0
 20 21  1  0
 20 19  1  0
 21 22  1  0
 22 23  1  0
 24 25  1  0
 23 24  1  1
 26 24  2  0
M  END
$$$$
