FVP.pdb
     RDKit          3D

 26 27  0  0  1  0  0  0  0  0999 V2000
    6.9690  -18.9712   27.6499 N   0  0  0  0  0  0  0  0  0  0  0  0
    7.6117  -17.6781   27.7455 C   0  0  1  0  0  0  0  0  0  0  0  0
    9.0964  -17.9303   27.9083 C   0  0  0  0  0  0  0  0  0  0  0  0
    9.7212  -16.6304   28.2617 C   0  0  0  0  0  0  0  0  0  0  0  0
   10.3908  -15.8980   27.3094 C   0  0  0  0  0  0  0  0  0  0  0  0
   10.9851  -14.6771   27.6145 C   0  0  0  0  0  0  0  0  0  0  0  0
   10.8781  -14.2276   28.9078 C   0  0  0  0  0  0  0  0  0  0  0  0
   10.2086  -14.9570   29.8661 C   0  0  0  0  0  0  0  0  0  0  0  0
    9.6186  -16.1726   29.5563 C   0  0  0  0  0  0  0  0  0  0  0  0
    7.3397  -16.9300   26.4696 C   0  0  0  0  0  0  0  0  0  0  0  0
    7.2196  -17.5412   25.3809 O   0  0  0  0  0  0  0  0  0  0  0  0
    7.0020  -12.5239   24.2592 C   0  0  0  0  0  0  0  0  0  0  0  0
    6.9432  -13.3699   25.5198 C   0  0  1  0  0  0  0  0  0  0  0  0
    5.7357  -13.0643   26.3679 C   0  0  0  0  0  0  0  0  0  0  0  0
    7.0230  -14.8478   25.1833 C   0  0  2  0  0  0  0  0  0  0  0  0
    7.2137  -15.5213   26.4703 N   0  0  0  0  0  0  0  0  0  0  0  0
    8.1746  -15.0961   24.2889 C   0  0  0  0  0  0  0  0  0  0  0  0
    9.2868  -15.3883   24.8586 O   0  0  0  0  0  0  0  0  0  0  0  0
    8.1025  -15.0310   22.8926 N   0  0  0  0  0  0  0  0  0  0  0  0
    7.1325  -14.3544   22.0731 C   0  0  0  0  0  0  0  0  0  0  0  0
    7.1987  -15.0477   20.7160 C   0  0  0  0  0  0  0  0  0  0  0  0
    8.0341  -16.2602   20.9839 C   0  0  0  0  0  0  0  0  0  0  0  0
    9.0545  -15.7072   21.9932 C   0  0  1  0  0  0  0  0  0  0  0  0
    9.8886  -14.7322   21.2720 C   0  0  0  0  0  0  0  0  0  0  0  0
   10.9872  -15.2172   20.5799 O   0  0  0  0  0  0  0  0  0  0  0  0
    9.6801  -13.4961   21.2367 O   0  0  0  0  0  0  0  0  0  0  0  0
  2 10  1  0
  2  1  1  6
  3  2  1  0
  4  5  2  0
  4  3  1  0
  6  5  1  0
  7  6  2  0
  8  7  1  0
  8  9  2  0
  9  4  1  0
 10 11  2  0
 13 14  1  6
 13 12  1  0
 15 13  1  0
 16 10  1  0
 15 16  1  1
 17 15  1  0
 18 17  2  0
 19 17  1  0
 19 23  1  0
 20 21  1  0
 20 19  1  0
 21 22  1  0
 22 23  1  0
 24 25  1  0
 23 24  1  6
 26 24  2  0
M  END
$$$$
