FVP.pdb
     RDKit          3D

 26 27  0  0  1  0  0  0  0  0999 V2000
    7.4573  -18.8870   27.5042 N   0  0  0  0  0  0  0  0  0  0  0  0
    7.9277  -17.5187   27.5316 C   0  0  1  0  0  0  0  0  0  0  0  0
    9.4338  -17.5691   27.6857 C   0  0  0  0  0  0  0  0  0  0  0  0
    9.8461  -16.3001   28.3371 C   0  0  0  0  0  0  0  0  0  0  0  0
   10.1854  -15.2054   27.5767 C   0  0  0  0  0  0  0  0  0  0  0  0
   10.5752  -14.0045   28.1624 C   0  0  0  0  0  0  0  0  0  0  0  0
   10.6090  -13.9518   29.5342 C   0  0  0  0  0  0  0  0  0  0  0  0
   10.2702  -15.0453   30.3011 C   0  0  0  0  0  0  0  0  0  0  0  0
    9.8827  -16.2388   29.7123 C   0  0  0  0  0  0  0  0  0  0  0  0
    7.5516  -16.8732   26.2265 C   0  0  0  0  0  0  0  0  0  0  0  0
    7.4014  -17.5629   25.1896 O   0  0  0  0  0  0  0  0  0  0  0  0
    6.0086  -13.0287   26.0917 C   0  0  0  0  0  0  0  0  0  0  0  0
    7.0476  -13.3983   25.0466 C   0  0  1  0  0  0  0  0  0  0  0  0
    8.4173  -12.8634   25.3757 C   0  0  0  0  0  0  0  0  0  0  0  0
    7.0790  -14.8992   24.8227 C   0  0  2  0  0  0  0  0  0  0  0  0
    7.3592  -15.4746   26.1405 N   0  0  0  0  0  0  0  0  0  0  0  0
    8.1536  -15.2401   23.8654 C   0  0  0  0  0  0  0  0  0  0  0  0
    9.1806  -15.8381   24.3498 O   0  0  0  0  0  0  0  0  0  0  0  0
    8.0967  -14.9501   22.4972 N   0  0  0  0  0  0  0  0  0  0  0  0
    7.3330  -13.9326   21.8250 C   0  0  0  0  0  0  0  0  0  0  0  0
    7.2130  -14.4082   20.3806 C   0  0  0  0  0  0  0  0  0  0  0  0
    7.7057  -15.8202   20.4359 C   0  0  0  0  0  0  0  0  0  0  0  0
    8.8378  -15.7048   21.4707 C   0  0  1  0  0  0  0  0  0  0  0  0
    9.8942  -14.8794   20.8633 C   0  0  0  0  0  0  0  0  0  0  0  0
   10.0017  -13.5638   21.2864 O   0  0  0  0  0  0  0  0  0  0  0  0
   10.7040  -15.2766   19.9921 O   0  0  0  0  0  0  0  0  0  0  0  0
  2 10  1  0
  2  1  1  6
  3  2  1  0
  4  5  2  0
  4  3  1  0
  6  5  1  0
  7  6  2  0
  8  7  1  0
  8  9  2  0
  9  4  1  0
 10 11  2  0
 13 14  1  1
 13 12  1  0
 15 13  1  0
 16 10  1  0
 15 16  1  1
 17 15  1  0
 18 17  2  0
 19 17  1  0
 19 23  1  0
 20 21  1  0
 20 19  1  0
 21 22  1  0
 22 23  1  0
 24 25  1  0
 23 24  1  6
 26 24  2  0
M  END
$$$$
