FVP.pdb
     RDKit          3D

 26 27  0  0  1  0  0  0  0  0999 V2000
    5.9232  -17.6418   26.0879 N   0  0  0  0  0  0  0  0  0  0  0  0
    6.4741  -16.4254   25.5300 C   0  0  1  0  0  0  0  0  0  0  0  0
    7.4814  -15.8943   26.5289 C   0  0  0  0  0  0  0  0  0  0  0  0
    7.2373  -14.4352   26.6573 C   0  0  0  0  0  0  0  0  0  0  0  0
    8.2543  -13.5897   27.0350 C   0  0  0  0  0  0  0  0  0  0  0  0
    8.0519  -12.2187   27.1627 C   0  0  0  0  0  0  0  0  0  0  0  0
    6.7933  -11.7379   26.8965 C   0  0  0  0  0  0  0  0  0  0  0  0
    5.7707  -12.5801   26.5177 C   0  0  0  0  0  0  0  0  0  0  0  0
    5.9781  -13.9450   26.3921 C   0  0  0  0  0  0  0  0  0  0  0  0
    7.1503  -16.7752   24.2331 C   0  0  0  0  0  0  0  0  0  0  0  0
    7.5190  -17.9510   23.9988 O   0  0  0  0  0  0  0  0  0  0  0  0
    6.4407  -14.8171   20.7499 C   0  0  0  0  0  0  0  0  0  0  0  0
    7.9113  -15.0217   21.0720 C   0  0  1  0  0  0  0  0  0  0  0  0
    8.5719  -13.7694   21.5878 C   0  0  0  0  0  0  0  0  0  0  0  0
    8.0980  -16.1815   22.0330 C   0  0  2  0  0  0  0  0  0  0  0  0
    7.3849  -15.7858   23.2501 N   0  0  0  0  0  0  0  0  0  0  0  0
    9.5378  -16.3743   22.3114 C   0  0  0  0  0  0  0  0  0  0  0  0
    9.9861  -15.8444   23.3909 O   0  0  0  0  0  0  0  0  0  0  0  0
   10.4021  -17.0903   21.4751 N   0  0  0  0  0  0  0  0  0  0  0  0
   10.1491  -17.6173   20.1603 C   0  0  0  0  0  0  0  0  0  0  0  0
   11.1774  -18.7273   19.9673 C   0  0  0  0  0  0  0  0  0  0  0  0
   11.7581  -18.9070   21.3348 C   0  0  0  0  0  0  0  0  0  0  0  0
   11.7807  -17.4566   21.8464 C   0  0  1  0  0  0  0  0  0  0  0  0
   12.7631  -16.7267   21.0289 C   0  0  0  0  0  0  0  0  0  0  0  0
   14.0921  -16.7887   21.4177 O   0  0  0  0  0  0  0  0  0  0  0  0
   12.4884  -16.0532   20.0074 O   0  0  0  0  0  0  0  0  0  0  0  0
  2 10  1  0
  2  1  1  1
  3  2  1  0
  4  5  2  0
  4  3  1  0
  6  5  1  0
  7  6  2  0
  8  7  1  0
  8  9  2  0
  9  4  1  0
 10 11  2  0
 13 14  1  1
 13 12  1  0
 15 13  1  0
 16 10  1  0
 15 16  1  1
 17 15  1  0
 18 17  2  0
 19 17  1  0
 19 23  1  0
 20 21  1  0
 20 19  1  0
 21 22  1  0
 22 23  1  0
 24 25  1  0
 23 24  1  6
 26 24  2  0
M  END
$$$$
