FVP.pdb
     RDKit          3D

 26 27  0  0  1  0  0  0  0  0999 V2000
    5.8710  -17.9713   25.5165 N   0  0  0  0  0  0  0  0  0  0  0  0
    6.3069  -16.6046   25.3260 C   0  0  1  0  0  0  0  0  0  0  0  0
    7.0576  -16.1986   26.5775 C   0  0  0  0  0  0  0  0  0  0  0  0
    6.9369  -14.7235   26.6967 C   0  0  0  0  0  0  0  0  0  0  0  0
    5.7003  -14.1218   26.6716 C   0  0  0  0  0  0  0  0  0  0  0  0
    5.5597  -12.7415   26.7815 C   0  0  0  0  0  0  0  0  0  0  0  0
    6.7064  -11.9980   26.9165 C   0  0  0  0  0  0  0  0  0  0  0  0
    7.9478  -12.5952   26.9423 C   0  0  0  0  0  0  0  0  0  0  0  0
    8.0818  -13.9706   26.8325 C   0  0  0  0  0  0  0  0  0  0  0  0
    7.2175  -16.5711   24.1297 C   0  0  0  0  0  0  0  0  0  0  0  0
    7.9141  -17.5689   23.8257 O   0  0  0  0  0  0  0  0  0  0  0  0
    8.9077  -14.0035   20.2515 C   0  0  0  0  0  0  0  0  0  0  0  0
    8.0264  -14.1043   21.4850 C   0  0  1  0  0  0  0  0  0  0  0  0
    6.5956  -13.7210   21.2086 C   0  0  0  0  0  0  0  0  0  0  0  0
    8.1190  -15.4869   22.1041 C   0  0  2  0  0  0  0  0  0  0  0  0
    7.3077  -15.4136   23.3218 N   0  0  0  0  0  0  0  0  0  0  0  0
    9.5276  -15.7947   22.4335 C   0  0  0  0  0  0  0  0  0  0  0  0
   10.0004  -15.2412   23.4905 O   0  0  0  0  0  0  0  0  0  0  0  0
   10.3384  -16.6398   21.6669 N   0  0  0  0  0  0  0  0  0  0  0  0
   10.0414  -17.2728   20.4094 C   0  0  0  0  0  0  0  0  0  0  0  0
   10.9972  -18.4583   20.3203 C   0  0  0  0  0  0  0  0  0  0  0  0
   11.5778  -18.5428   21.6970 C   0  0  0  0  0  0  0  0  0  0  0  0
   11.6948  -17.0546   22.0675 C   0  0  1  0  0  0  0  0  0  0  0  0
   12.7133  -16.4688   21.1810 C   0  0  0  0  0  0  0  0  0  0  0  0
   14.0186  -16.4264   21.6453 O   0  0  0  0  0  0  0  0  0  0  0  0
   12.4890  -16.0053   20.0375 O   0  0  0  0  0  0  0  0  0  0  0  0
  2 10  1  0
  2  1  1  1
  3  2  1  0
  4  5  2  0
  4  3  1  0
  6  5  1  0
  7  6  2  0
  8  7  1  0
  8  9  2  0
  9  4  1  0
 10 11  2  0
 13 14  1  6
 13 12  1  0
 15 13  1  0
 16 10  1  0
 15 16  1  1
 17 15  1  0
 18 17  2  0
 19 17  1  0
 19 23  1  0
 20 21  1  0
 20 19  1  0
 21 22  1  0
 22 23  1  0
 24 25  1  0
 23 24  1  6
 26 24  2  0
M  END
$$$$
