FVP.pdb
     RDKit          3D

 26 27  0  0  1  0  0  0  0  0999 V2000
    5.8364  -17.8208   26.0809 N   0  0  0  0  0  0  0  0  0  0  0  0
    6.4427  -16.5511   25.7426 C   0  0  1  0  0  0  0  0  0  0  0  0
    7.3305  -16.1583   26.9054 C   0  0  0  0  0  0  0  0  0  0  0  0
    7.3321  -14.6747   26.9683 C   0  0  0  0  0  0  0  0  0  0  0  0
    6.1496  -13.9813   27.0805 C   0  0  0  0  0  0  0  0  0  0  0  0
    6.1236  -12.5911   27.1414 C   0  0  0  0  0  0  0  0  0  0  0  0
    7.3278  -11.9332   27.0852 C   0  0  0  0  0  0  0  0  0  0  0  0
    8.5155  -12.6226   26.9728 C   0  0  0  0  0  0  0  0  0  0  0  0
    8.5353  -14.0074   26.9126 C   0  0  0  0  0  0  0  0  0  0  0  0
    7.2607  -16.7458   24.4958 C   0  0  0  0  0  0  0  0  0  0  0  0
    7.8886  -17.8140   24.3010 O   0  0  0  0  0  0  0  0  0  0  0  0
    6.5082  -14.6548   21.0356 C   0  0  0  0  0  0  0  0  0  0  0  0
    7.9665  -14.7615   21.4485 C   0  0  1  0  0  0  0  0  0  0  0  0
    8.4825  -13.4982   22.0875 C   0  0  0  0  0  0  0  0  0  0  0  0
    8.1877  -15.9655   22.3458 C   0  0  2  0  0  0  0  0  0  0  0  0
    7.3392  -15.7285   23.5164 N   0  0  0  0  0  0  0  0  0  0  0  0
    9.6112  -16.0413   22.7400 C   0  0  0  0  0  0  0  0  0  0  0  0
    9.9433  -15.4047   23.8037 O   0  0  0  0  0  0  0  0  0  0  0  0
   10.5784  -16.7582   22.0260 N   0  0  0  0  0  0  0  0  0  0  0  0
   10.4359  -17.4656   20.7812 C   0  0  0  0  0  0  0  0  0  0  0  0
   11.5791  -18.4753   20.7594 C   0  0  0  0  0  0  0  0  0  0  0  0
   12.1169  -18.4240   22.1549 C   0  0  0  0  0  0  0  0  0  0  0  0
   11.9702  -16.9279   22.4804 C   0  0  1  0  0  0  0  0  0  0  0  0
   12.9068  -16.2031   21.6066 C   0  0  0  0  0  0  0  0  0  0  0  0
   14.1883  -15.9809   22.0857 O   0  0  0  0  0  0  0  0  0  0  0  0
   12.6327  -15.7715   20.4615 O   0  0  0  0  0  0  0  0  0  0  0  0
  2 10  1  0
  2  1  1  1
  3  2  1  0
  4  5  2  0
  4  3  1  0
  6  5  1  0
  7  6  2  0
  8  7  1  0
  8  9  2  0
  9  4  1  0
 10 11  2  0
 13 14  1  1
 13 12  1  0
 15 13  1  0
 16 10  1  0
 15 16  1  1
 17 15  1  0
 18 17  2  0
 19 17  1  0
 19 23  1  0
 20 21  1  0
 20 19  1  0
 21 22  1  0
 22 23  1  0
 24 25  1  0
 23 24  1  6
 26 24  2  0
M  END
$$$$
