HLQ.pdb
     RDKit          3D

 28 28  0  0  1  0  0  0  0  0999 V2000
   10.2630  -17.6158   16.2963 N   0  0  0  0  0  0  0  0  0  0  0  0
    9.4708  -17.9450   17.4561 C   0  0  1  0  0  0  0  0  0  0  0  0
    9.8337  -19.3013   18.0210 C   0  0  0  0  0  0  0  0  0  0  0  0
    9.0493  -20.3238   17.2998 C   0  0  0  0  0  0  0  0  0  0  0  0
    8.0924  -20.0592   16.3457 C   0  0  0  0  0  0  0  0  0  0  0  0
    7.6308  -21.2529   15.9503 N   0  0  0  0  0  0  0  0  0  0  0  0
    8.2801  -22.2102   16.6357 C   0  0  0  0  0  0  0  0  0  0  0  0
    9.1760  -21.6399   17.4888 N   0  0  0  0  0  0  0  0  0  0  0  0
    9.8113  -16.9443   18.5224 C   0  0  0  0  0  0  0  0  0  0  0  0
   11.0090  -16.5375   18.6941 O   0  0  0  0  0  0  0  0  0  0  0  0
    6.1968  -13.0835   20.5051 C   0  0  0  0  0  0  0  0  0  0  0  0
    7.4420  -13.7492   20.0444 C   0  0  1  0  0  0  0  0  0  0  0  0
    8.4820  -12.7560   19.5445 C   0  0  0  0  0  0  0  0  0  0  0  0
    8.0834  -14.7038   21.0043 C   0  0  0  0  0  0  0  0  0  0  0  0
    9.1961  -15.5027   20.4348 C   0  0  2  0  0  0  0  0  0  0  0  0
    8.8312  -16.4072   19.3822 N   0  0  0  0  0  0  0  0  0  0  0  0
    9.9466  -16.2565   21.4997 C   0  0  0  0  0  0  0  0  0  0  0  0
    9.6086  -17.3896   21.8813 O   0  0  0  0  0  0  0  0  0  0  0  0
   15.9866  -15.6115   22.7191 N   0  0  0  0  0  0  0  0  0  0  0  0
   15.5571  -16.2416   23.9098 C   0  0  0  0  0  0  0  0  0  0  0  0
   16.4158  -16.7418   24.6625 O   0  0  0  0  0  0  0  0  0  0  0  0
   14.1416  -16.2993   24.2386 C   0  0  0  0  0  0  0  0  0  0  0  0
   13.2121  -15.6861   23.2550 C   0  0  0  0  0  0  0  0  0  0  0  0
   11.8892  -16.3708   23.0987 C   0  0  2  0  0  0  0  0  0  0  0  0
   11.0829  -15.6586   22.0950 N   0  0  0  0  0  0  0  0  0  0  0  0
   11.0885  -16.4077   24.3410 C   0  0  0  0  0  0  0  0  0  0  0  0
   11.0835  -17.4843   25.2140 O   0  0  0  0  0  0  0  0  0  0  0  0
   10.3713  -15.4269   24.6383 O   0  0  0  0  0  0  0  0  0  0  0  0
  2  1  1  6
  3  4  1  0
  3  2  1  0
  4  5  2  0
  6  5  1  0
  7  6  1  0
  8  7  2  0
  8  4  1  0
  9  2  1  0
  9 16  1  0
 10  9  2  0
 12 11  1  1
 12 14  1  0
 13 12  1  0
 15 16  1  0
 15 14  1  1
 17 15  1  0
 18 17  2  0
 19 20  1  0
 20 21  2  0
 20 22  1  0
 22 23  1  0
 24 23  1  1
 24 26  1  0
 24 25  1  0
 25 17  1  0
 26 27  1  0
 28 26  2  0
M  END
$$$$
