HLQ.pdb
     RDKit          3D

 28 28  0  0  1  0  0  0  0  0999 V2000
    9.1124  -15.3414   20.4833 N   0  0  0  0  0  0  0  0  0  0  0  0
    8.0413  -15.7331   21.3667 C   0  0  1  0  0  0  0  0  0  0  0  0
    7.8098  -17.2285   21.3446 C   0  0  0  0  0  0  0  0  0  0  0  0
    7.2597  -17.5884   20.0222 C   0  0  0  0  0  0  0  0  0  0  0  0
    7.1656  -16.7350   18.9457 C   0  0  0  0  0  0  0  0  0  0  0  0
    6.6160  -17.4528   17.9573 N   0  0  0  0  0  0  0  0  0  0  0  0
    6.3829  -18.6967   18.4115 C   0  0  0  0  0  0  0  0  0  0  0  0
    6.7832  -18.7964   19.7097 N   0  0  0  0  0  0  0  0  0  0  0  0
    8.4765  -15.3990   22.7642 C   0  0  0  0  0  0  0  0  0  0  0  0
    9.6851  -15.5627   23.1411 O   0  0  0  0  0  0  0  0  0  0  0  0
    5.7763  -11.7758   26.1665 C   0  0  0  0  0  0  0  0  0  0  0  0
    6.9024  -12.5216   25.5485 C   0  0  1  0  0  0  0  0  0  0  0  0
    8.2358  -11.8062   25.7167 C   0  0  0  0  0  0  0  0  0  0  0  0
    7.0517  -13.9575   25.9481 C   0  0  0  0  0  0  0  0  0  0  0  0
    7.9749  -14.7462   25.0958 C   0  0  2  0  0  0  0  0  0  0  0  0
    7.5777  -14.8907   23.7245 N   0  0  0  0  0  0  0  0  0  0  0  0
    8.2515  -16.1059   25.6789 C   0  0  0  0  0  0  0  0  0  0  0  0
    7.4464  -17.0481   25.5905 O   0  0  0  0  0  0  0  0  0  0  0  0
   13.0621  -19.2968   24.4067 N   0  0  0  0  0  0  0  0  0  0  0  0
   12.6837  -19.9715   25.5902 C   0  0  0  0  0  0  0  0  0  0  0  0
   13.3104  -20.9985   25.9170 O   0  0  0  0  0  0  0  0  0  0  0  0
   11.5855  -19.4694   26.4005 C   0  0  0  0  0  0  0  0  0  0  0  0
   10.9568  -18.2028   25.9446 C   0  0  0  0  0  0  0  0  0  0  0  0
    9.8635  -17.6701   26.8186 C   0  0  2  0  0  0  0  0  0  0  0  0
    9.4742  -16.3287   26.3561 N   0  0  0  0  0  0  0  0  0  0  0  0
   10.2503  -17.5358   28.2392 C   0  0  0  0  0  0  0  0  0  0  0  0
   10.3378  -18.6098   29.1111 O   0  0  0  0  0  0  0  0  0  0  0  0
   10.5163  -16.4031   28.6985 O   0  0  0  0  0  0  0  0  0  0  0  0
  2  1  1  6
  3  4  1  0
  3  2  1  0
  4  5  2  0
  6  5  1  0
  7  6  1  0
  8  7  2  0
  8  4  1  0
  9  2  1  0
  9 16  1  0
 10  9  2  0
 12 11  1  1
 12 14  1  0
 13 12  1  0
 15 16  1  0
 15 14  1  1
 17 15  1  0
 18 17  2  0
 19 20  1  0
 20 21  2  0
 20 22  1  0
 22 23  1  0
 24 23  1  6
 24 26  1  0
 24 25  1  0
 25 17  1  0
 26 27  1  0
 28 26  2  0
M  END
$$$$
