HLQ.pdb
     RDKit          3D

 28 28  0  0  1  0  0  0  0  0999 V2000
   13.9714  -14.2854   17.4354 N   0  0  0  0  0  0  0  0  0  0  0  0
   12.7559  -15.0620   17.4613 C   0  0  1  0  0  0  0  0  0  0  0  0
   13.0262  -16.5394   17.2753 C   0  0  0  0  0  0  0  0  0  0  0  0
   13.2956  -16.7801   15.8433 C   0  0  0  0  0  0  0  0  0  0  0  0
   14.4233  -16.3664   15.1701 C   0  0  0  0  0  0  0  0  0  0  0  0
   14.2690  -16.7850   13.9071 N   0  0  0  0  0  0  0  0  0  0  0  0
   13.0929  -17.4295   13.8115 C   0  0  0  0  0  0  0  0  0  0  0  0
   12.4694  -17.4342   15.0226 N   0  0  0  0  0  0  0  0  0  0  0  0
   12.1669  -14.9153   18.8345 C   0  0  0  0  0  0  0  0  0  0  0  0
   12.9079  -14.7650   19.8630 O   0  0  0  0  0  0  0  0  0  0  0  0
    6.8638  -13.0819   19.3248 C   0  0  0  0  0  0  0  0  0  0  0  0
    8.3284  -13.3112   19.4171 C   0  0  1  0  0  0  0  0  0  0  0  0
    9.1048  -12.0238   19.6573 C   0  0  0  0  0  0  0  0  0  0  0  0
    8.7807  -14.3566   20.3900 C   0  0  0  0  0  0  0  0  0  0  0  0
   10.2342  -14.6507   20.3539 C   0  0  2  0  0  0  0  0  0  0  0  0
   10.7745  -14.9361   19.0555 N   0  0  0  0  0  0  0  0  0  0  0  0
   10.6049  -15.7602   21.3011 C   0  0  0  0  0  0  0  0  0  0  0  0
   10.4224  -16.9592   21.0310 O   0  0  0  0  0  0  0  0  0  0  0  0
   16.3843  -16.3269   22.1756 N   0  0  0  0  0  0  0  0  0  0  0  0
   15.3098  -15.9566   23.0168 C   0  0  0  0  0  0  0  0  0  0  0  0
   15.5125  -15.1013   23.9008 O   0  0  0  0  0  0  0  0  0  0  0  0
   14.0012  -16.5675   22.8453 C   0  0  0  0  0  0  0  0  0  0  0  0
   13.0013  -16.2904   23.9087 C   0  0  0  0  0  0  0  0  0  0  0  0
   11.5681  -16.4760   23.5155 C   0  0  2  0  0  0  0  0  0  0  0  0
   11.1844  -15.4338   22.5504 N   0  0  0  0  0  0  0  0  0  0  0  0
   10.6232  -16.3770   24.6483 C   0  0  0  0  0  0  0  0  0  0  0  0
   10.6103  -17.2666   25.7113 O   0  0  0  0  0  0  0  0  0  0  0  0
    9.7836  -15.4500   24.6680 O   0  0  0  0  0  0  0  0  0  0  0  0
  2  1  1  1
  3  4  1  0
  3  2  1  0
  4  5  2  0
  6  5  1  0
  7  6  1  0
  8  7  2  0
  8  4  1  0
  9  2  1  0
  9 16  1  0
 10  9  2  0
 12 11  1  1
 12 14  1  0
 13 12  1  0
 15 16  1  0
 15 14  1  6
 17 15  1  0
 18 17  2  0
 19 20  1  0
 20 21  2  0
 20 22  1  0
 22 23  1  0
 24 23  1  1
 24 26  1  0
 24 25  1  0
 25 17  1  0
 26 27  1  0
 28 26  2  0
M  END
$$$$
