HLQ.pdb
     RDKit          3D

 28 28  0  0  1  0  0  0  0  0999 V2000
    9.8565  -15.6353   20.2061 N   0  0  0  0  0  0  0  0  0  0  0  0
    8.6139  -15.8317   20.9121 C   0  0  1  0  0  0  0  0  0  0  0  0
    8.2975  -17.2997   21.1000 C   0  0  0  0  0  0  0  0  0  0  0  0
    7.9733  -17.8723   19.7778 C   0  0  0  0  0  0  0  0  0  0  0  0
    6.9967  -17.4006   18.9294 C   0  0  0  0  0  0  0  0  0  0  0  0
    7.0334  -18.1957   17.8521 N   0  0  0  0  0  0  0  0  0  0  0  0
    7.9950  -19.1176   18.0343 C   0  0  0  0  0  0  0  0  0  0  0  0
    8.5949  -18.9262   19.2422 N   0  0  0  0  0  0  0  0  0  0  0  0
    8.7941  -15.2641   22.2903 C   0  0  0  0  0  0  0  0  0  0  0  0
    9.9120  -15.3446   22.9014 O   0  0  0  0  0  0  0  0  0  0  0  0
    6.2372  -11.3838   26.4830 C   0  0  0  0  0  0  0  0  0  0  0  0
    7.1947  -12.4297   26.0411 C   0  0  1  0  0  0  0  0  0  0  0  0
    7.3411  -13.5521   27.0593 C   0  0  0  0  0  0  0  0  0  0  0  0
    6.9640  -13.0151   24.6817 C   0  0  0  0  0  0  0  0  0  0  0  0
    7.9631  -14.0293   24.2648 C   0  0  2  0  0  0  0  0  0  0  0  0
    7.7441  -14.6178   22.9745 N   0  0  0  0  0  0  0  0  0  0  0  0
    8.1143  -15.1211   25.2898 C   0  0  0  0  0  0  0  0  0  0  0  0
    7.1722  -15.8582   25.6258 O   0  0  0  0  0  0  0  0  0  0  0  0
   11.7867  -19.3788   23.3275 N   0  0  0  0  0  0  0  0  0  0  0  0
   11.8300  -19.1628   24.7242 C   0  0  0  0  0  0  0  0  0  0  0  0
   12.8583  -19.4933   25.3466 O   0  0  0  0  0  0  0  0  0  0  0  0
   10.6934  -18.5677   25.4090 C   0  0  0  0  0  0  0  0  0  0  0  0
   10.9006  -17.2067   25.9677 C   0  0  0  0  0  0  0  0  0  0  0  0
    9.6988  -16.5755   26.6004 C   0  0  2  0  0  0  0  0  0  0  0  0
    9.3754  -15.3228   25.8996 N   0  0  0  0  0  0  0  0  0  0  0  0
    9.8894  -16.2302   28.0252 C   0  0  0  0  0  0  0  0  0  0  0  0
    9.9291  -14.9270   28.4959 O   0  0  0  0  0  0  0  0  0  0  0  0
   10.0241  -17.1464   28.8661 O   0  0  0  0  0  0  0  0  0  0  0  0
  2  1  1  6
  3  4  1  0
  3  2  1  0
  4  5  2  0
  6  5  1  0
  7  6  1  0
  8  7  2  0
  8  4  1  0
  9  2  1  0
  9 16  1  0
 10  9  2  0
 12 11  1  1
 12 14  1  0
 13 12  1  0
 15 16  1  0
 15 14  1  1
 17 15  1  0
 18 17  2  0
 19 20  1  0
 20 21  2  0
 20 22  1  0
 22 23  1  0
 24 23  1  6
 24 26  1  0
 24 25  1  0
 25 17  1  0
 26 27  1  0
 28 26  2  0
M  END
$$$$
