HLQ.pdb
     RDKit          3D

 28 28  0  0  1  0  0  0  0  0999 V2000
    9.2977  -15.4701   19.8465 N   0  0  0  0  0  0  0  0  0  0  0  0
    8.1711  -15.7634   20.6984 C   0  0  1  0  0  0  0  0  0  0  0  0
    7.9112  -17.2510   20.7983 C   0  0  0  0  0  0  0  0  0  0  0  0
    7.3439  -17.7053   19.5127 C   0  0  0  0  0  0  0  0  0  0  0  0
    7.1162  -16.8993   18.4197 C   0  0  0  0  0  0  0  0  0  0  0  0
    6.6006  -17.6991   17.4771 N   0  0  0  0  0  0  0  0  0  0  0  0
    6.5162  -18.9456   17.9740 C   0  0  0  0  0  0  0  0  0  0  0  0
    6.9806  -18.9643   19.2544 N   0  0  0  0  0  0  0  0  0  0  0  0
    8.5339  -15.3095   22.0828 C   0  0  0  0  0  0  0  0  0  0  0  0
    9.7262  -15.4165   22.5263 O   0  0  0  0  0  0  0  0  0  0  0  0
    8.4749  -12.1262   26.5235 C   0  0  0  0  0  0  0  0  0  0  0  0
    7.3403  -13.0717   26.3662 C   0  0  1  0  0  0  0  0  0  0  0  0
    6.0955  -12.6164   27.1153 C   0  0  0  0  0  0  0  0  0  0  0  0
    6.9709  -13.4443   24.9631 C   0  0  0  0  0  0  0  0  0  0  0  0
    7.9634  -14.2985   24.2660 C   0  0  2  0  0  0  0  0  0  0  0  0
    7.5819  -14.7458   22.9569 N   0  0  0  0  0  0  0  0  0  0  0  0
    8.3642  -15.4859   25.0996 C   0  0  0  0  0  0  0  0  0  0  0  0
    7.5541  -16.3594   25.4526 O   0  0  0  0  0  0  0  0  0  0  0  0
   13.5800  -20.0861   24.8157 N   0  0  0  0  0  0  0  0  0  0  0  0
   12.3415  -19.5285   25.2090 C   0  0  0  0  0  0  0  0  0  0  0  0
   11.2913  -20.0865   24.8352 O   0  0  0  0  0  0  0  0  0  0  0  0
   12.3061  -18.3295   26.0312 C   0  0  0  0  0  0  0  0  0  0  0  0
   11.5863  -17.1615   25.4610 C   0  0  0  0  0  0  0  0  0  0  0  0
   10.2332  -16.8871   26.0414 C   0  0  2  0  0  0  0  0  0  0  0  0
    9.7145  -15.6205   25.5014 N   0  0  0  0  0  0  0  0  0  0  0  0
   10.2337  -16.7544   27.5139 C   0  0  0  0  0  0  0  0  0  0  0  0
   10.3417  -15.5385   28.1706 O   0  0  0  0  0  0  0  0  0  0  0  0
   10.1328  -17.7802   28.2226 O   0  0  0  0  0  0  0  0  0  0  0  0
  2  1  1  6
  3  4  1  0
  3  2  1  0
  4  5  2  0
  6  5  1  0
  7  6  1  0
  8  7  2  0
  8  4  1  0
  9  2  1  0
  9 16  1  0
 10  9  2  0
 12 11  1  6
 12 14  1  0
 13 12  1  0
 15 16  1  0
 15 14  1  1
 17 15  1  0
 18 17  2  0
 19 20  1  0
 20 21  2  0
 20 22  1  0
 22 23  1  0
 24 23  1  6
 24 26  1  0
 24 25  1  0
 25 17  1  0
 26 27  1  0
 28 26  2  0
M  END
$$$$
