HLQ.pdb
     RDKit          3D

 28 28  0  0  1  0  0  0  0  0999 V2000
   10.0943  -13.9482   19.9879 N   0  0  0  0  0  0  0  0  0  0  0  0
    8.8051  -14.3742   20.4754 C   0  0  1  0  0  0  0  0  0  0  0  0
    8.4899  -15.7974   20.0683 C   0  0  0  0  0  0  0  0  0  0  0  0
    8.1185  -15.7943   18.6389 C   0  0  0  0  0  0  0  0  0  0  0  0
    8.8608  -15.2225   17.6300 C   0  0  0  0  0  0  0  0  0  0  0  0
    8.1743  -15.4431   16.5012 N   0  0  0  0  0  0  0  0  0  0  0  0
    7.0558  -16.1234   16.8076 C   0  0  0  0  0  0  0  0  0  0  0  0
    7.0075  -16.3514   18.1498 N   0  0  0  0  0  0  0  0  0  0  0  0
    8.8782  -14.3758   21.9750 C   0  0  0  0  0  0  0  0  0  0  0  0
    9.8627  -14.9046   22.5920 O   0  0  0  0  0  0  0  0  0  0  0  0
    8.4798  -12.2891   26.8650 C   0  0  0  0  0  0  0  0  0  0  0  0
    7.1884  -12.8532   26.3958 C   0  0  1  0  0  0  0  0  0  0  0  0
    5.9879  -12.1627   27.0282 C   0  0  0  0  0  0  0  0  0  0  0  0
    6.9945  -12.9341   24.9126 C   0  0  0  0  0  0  0  0  0  0  0  0
    7.9850  -13.7797   24.2023 C   0  0  2  0  0  0  0  0  0  0  0  0
    7.8693  -13.7970   22.7721 N   0  0  0  0  0  0  0  0  0  0  0  0
    7.9864  -15.1937   24.7179 C   0  0  0  0  0  0  0  0  0  0  0  0
    7.0448  -15.9794   24.5184 O   0  0  0  0  0  0  0  0  0  0  0  0
   11.9854  -19.2149   23.3416 N   0  0  0  0  0  0  0  0  0  0  0  0
   11.4580  -19.8577   24.4854 C   0  0  0  0  0  0  0  0  0  0  0  0
   11.8454  -21.0122   24.7518 O   0  0  0  0  0  0  0  0  0  0  0  0
   10.4849  -19.1770   25.3248 C   0  0  0  0  0  0  0  0  0  0  0  0
   10.1631  -17.7746   24.9546 C   0  0  0  0  0  0  0  0  0  0  0  0
    9.2192  -17.0617   25.8732 C   0  0  2  0  0  0  0  0  0  0  0  0
    9.1000  -15.6546   25.4599 N   0  0  0  0  0  0  0  0  0  0  0  0
    9.6553  -17.0557   27.2859 C   0  0  0  0  0  0  0  0  0  0  0  0
   10.3465  -16.0040   27.8668 O   0  0  0  0  0  0  0  0  0  0  0  0
    9.3975  -18.0412   28.0119 O   0  0  0  0  0  0  0  0  0  0  0  0
  2  1  1  6
  3  4  1  0
  3  2  1  0
  4  5  2  0
  6  5  1  0
  7  6  1  0
  8  7  2  0
  8  4  1  0
  9  2  1  0
  9 16  1  0
 10  9  2  0
 12 11  1  6
 12 14  1  0
 13 12  1  0
 15 16  1  0
 15 14  1  1
 17 15  1  0
 18 17  2  0
 19 20  1  0
 20 21  2  0
 20 22  1  0
 22 23  1  0
 24 23  1  6
 24 26  1  0
 24 25  1  0
 25 17  1  0
 26 27  1  0
 28 26  2  0
M  END
$$$$
