HLQ.pdb
     RDKit          3D

 28 28  0  0  1  0  0  0  0  0999 V2000
    9.6415  -16.6023   20.7272 N   0  0  0  0  0  0  0  0  0  0  0  0
    8.5041  -16.7949   21.5934 C   0  0  1  0  0  0  0  0  0  0  0  0
    8.4213  -18.2153   22.1090 C   0  0  0  0  0  0  0  0  0  0  0  0
    8.0651  -19.0945   20.9771 C   0  0  0  0  0  0  0  0  0  0  0  0
    7.2382  -18.7443   19.9333 C   0  0  0  0  0  0  0  0  0  0  0  0
    7.1821  -19.8187   19.1353 N   0  0  0  0  0  0  0  0  0  0  0  0
    7.9449  -20.7882   19.6701 C   0  0  0  0  0  0  0  0  0  0  0  0
    8.5068  -20.3463   20.8296 N   0  0  0  0  0  0  0  0  0  0  0  0
    8.7144  -15.9251   22.7990 C   0  0  0  0  0  0  0  0  0  0  0  0
    9.8847  -15.6815   23.2469 O   0  0  0  0  0  0  0  0  0  0  0  0
    5.8795  -11.8517   26.5970 C   0  0  0  0  0  0  0  0  0  0  0  0
    7.0510  -12.4677   25.9231 C   0  0  1  0  0  0  0  0  0  0  0  0
    8.0560  -13.0416   26.9123 C   0  0  0  0  0  0  0  0  0  0  0  0
    6.7539  -13.4856   24.8651 C   0  0  0  0  0  0  0  0  0  0  0  0
    7.8717  -14.4136   24.5651 C   0  0  2  0  0  0  0  0  0  0  0  0
    7.6365  -15.3374   23.4925 N   0  0  0  0  0  0  0  0  0  0  0  0
    8.3123  -15.1733   25.7875 C   0  0  0  0  0  0  0  0  0  0  0  0
    8.7927  -14.6124   26.7866 O   0  0  0  0  0  0  0  0  0  0  0  0
    7.8947  -21.0626   25.1594 N   0  0  0  0  0  0  0  0  0  0  0  0
    6.8338  -20.1300   25.0943 C   0  0  0  0  0  0  0  0  0  0  0  0
    5.9070  -20.3373   24.2869 O   0  0  0  0  0  0  0  0  0  0  0  0
    6.8350  -18.9580   25.9552 C   0  0  0  0  0  0  0  0  0  0  0  0
    8.0282  -18.7795   26.8222 C   0  0  0  0  0  0  0  0  0  0  0  0
    8.4846  -17.3661   27.0146 C   0  0  2  0  0  0  0  0  0  0  0  0
    8.1777  -16.5820   25.8079 N   0  0  0  0  0  0  0  0  0  0  0  0
    9.9388  -17.2375   27.2483 C   0  0  0  0  0  0  0  0  0  0  0  0
   10.5266  -17.3781   28.4958 O   0  0  0  0  0  0  0  0  0  0  0  0
   10.6958  -16.9889   26.2841 O   0  0  0  0  0  0  0  0  0  0  0  0
  2  1  1  6
  3  4  1  0
  3  2  1  0
  4  5  2  0
  6  5  1  0
  7  6  1  0
  8  7  2  0
  8  4  1  0
  9  2  1  0
  9 16  1  0
 10  9  2  0
 12 11  1  1
 12 14  1  0
 13 12  1  0
 15 16  1  0
 15 14  1  1
 17 15  1  0
 18 17  2  0
 19 20  1  0
 20 21  2  0
 20 22  1  0
 22 23  1  0
 24 23  1  6
 24 26  1  0
 24 25  1  0
 25 17  1  0
 26 27  1  0
 28 26  2  0
M  END
$$$$
