HLQ.pdb
     RDKit          3D

 28 28  0  0  1  0  0  0  0  0999 V2000
    9.8323  -16.1382   20.3449 N   0  0  0  0  0  0  0  0  0  0  0  0
    8.5271  -16.0516   20.9532 C   0  0  1  0  0  0  0  0  0  0  0  0
    7.8519  -17.4035   21.0353 C   0  0  0  0  0  0  0  0  0  0  0  0
    7.3229  -17.7345   19.6968 C   0  0  0  0  0  0  0  0  0  0  0  0
    7.5036  -16.9726   18.5642 C   0  0  0  0  0  0  0  0  0  0  0  0
    6.8690  -17.6237   17.5806 N   0  0  0  0  0  0  0  0  0  0  0  0
    6.3215  -18.7404   18.0916 C   0  0  0  0  0  0  0  0  0  0  0  0
    6.5992  -18.8231   19.4226 N   0  0  0  0  0  0  0  0  0  0  0  0
    8.7293  -15.5995   22.3705 C   0  0  0  0  0  0  0  0  0  0  0  0
    9.7301  -15.9939   23.0577 O   0  0  0  0  0  0  0  0  0  0  0  0
    8.6192  -12.3448   26.6695 C   0  0  0  0  0  0  0  0  0  0  0  0
    7.3030  -12.9471   26.3362 C   0  0  1  0  0  0  0  0  0  0  0  0
    6.1355  -12.0989   26.8213 C   0  0  0  0  0  0  0  0  0  0  0  0
    7.0850  -13.3246   24.9031 C   0  0  0  0  0  0  0  0  0  0  0  0
    8.0064  -14.3673   24.3888 C   0  0  2  0  0  0  0  0  0  0  0  0
    7.8293  -14.7220   23.0096 N   0  0  0  0  0  0  0  0  0  0  0  0
    7.9679  -15.6138   25.2314 C   0  0  0  0  0  0  0  0  0  0  0  0
    6.9571  -16.3308   25.3193 O   0  0  0  0  0  0  0  0  0  0  0  0
   11.3529  -19.9368   23.7303 N   0  0  0  0  0  0  0  0  0  0  0  0
   11.0244  -20.4292   25.0144 C   0  0  0  0  0  0  0  0  0  0  0  0
   11.3789  -21.5851   25.3180 O   0  0  0  0  0  0  0  0  0  0  0  0
   10.2882  -19.5963   25.9521 C   0  0  0  0  0  0  0  0  0  0  0  0
    9.9748  -18.2160   25.5006 C   0  0  0  0  0  0  0  0  0  0  0  0
    9.2790  -17.3479   26.5032 C   0  0  2  0  0  0  0  0  0  0  0  0
    9.1241  -15.9913   25.9552 N   0  0  0  0  0  0  0  0  0  0  0  0
   10.0110  -17.2109   27.7805 C   0  0  0  0  0  0  0  0  0  0  0  0
   10.8261  -16.1308   28.0808 O   0  0  0  0  0  0  0  0  0  0  0  0
    9.9030  -18.1050   28.6486 O   0  0  0  0  0  0  0  0  0  0  0  0
  2  1  1  1
  3  4  1  0
  3  2  1  0
  4  5  2  0
  6  5  1  0
  7  6  1  0
  8  7  2  0
  8  4  1  0
  9  2  1  0
  9 16  1  0
 10  9  2  0
 12 11  1  6
 12 14  1  0
 13 12  1  0
 15 16  1  0
 15 14  1  1
 17 15  1  0
 18 17  2  0
 19 20  1  0
 20 21  2  0
 20 22  1  0
 22 23  1  0
 24 23  1  6
 24 26  1  0
 24 25  1  0
 25 17  1  0
 26 27  1  0
 28 26  2  0
M  END
$$$$
