HLQ.pdb
     RDKit          3D

 28 28  0  0  1  0  0  0  0  0999 V2000
   10.4664  -14.5610   21.5159 N   0  0  0  0  0  0  0  0  0  0  0  0
    9.1059  -14.5852   21.9948 C   0  0  1  0  0  0  0  0  0  0  0  0
    8.1841  -15.3122   21.0397 C   0  0  0  0  0  0  0  0  0  0  0  0
    7.9905  -14.4592   19.8499 C   0  0  0  0  0  0  0  0  0  0  0  0
    8.9444  -13.6254   19.3106 C   0  0  0  0  0  0  0  0  0  0  0  0
    8.3644  -13.0424   18.2532 N   0  0  0  0  0  0  0  0  0  0  0  0
    7.1050  -13.5016   18.1498 C   0  0  0  0  0  0  0  0  0  0  0  0
    6.8558  -14.3942   19.1482 N   0  0  0  0  0  0  0  0  0  0  0  0
    9.0996  -15.3812   23.2678 C   0  0  0  0  0  0  0  0  0  0  0  0
   10.1293  -16.0317   23.6501 O   0  0  0  0  0  0  0  0  0  0  0  0
    5.9894  -11.9201   26.3145 C   0  0  0  0  0  0  0  0  0  0  0  0
    7.1119  -12.7787   25.8573 C   0  0  1  0  0  0  0  0  0  0  0  0
    8.4413  -12.3805   26.4833 C   0  0  0  0  0  0  0  0  0  0  0  0
    6.9190  -14.2580   25.9922 C   0  0  0  0  0  0  0  0  0  0  0  0
    8.0447  -15.0797   25.4837 C   0  0  2  0  0  0  0  0  0  0  0  0
    7.9631  -15.4497   24.0996 N   0  0  0  0  0  0  0  0  0  0  0  0
    8.2573  -16.3151   26.3167 C   0  0  0  0  0  0  0  0  0  0  0  0
    8.4242  -16.2717   27.5471 O   0  0  0  0  0  0  0  0  0  0  0  0
   10.9100  -20.2921   22.7539 N   0  0  0  0  0  0  0  0  0  0  0  0
   11.8857  -20.0516   23.7487 C   0  0  0  0  0  0  0  0  0  0  0  0
   12.9592  -20.6831   23.6954 O   0  0  0  0  0  0  0  0  0  0  0  0
   11.6310  -19.0867   24.8065 C   0  0  0  0  0  0  0  0  0  0  0  0
   10.3623  -18.3201   24.7064 C   0  0  0  0  0  0  0  0  0  0  0  0
    9.3999  -18.5082   25.8384 C   0  0  2  0  0  0  0  0  0  0  0  0
    8.2692  -17.5798   25.6815 N   0  0  0  0  0  0  0  0  0  0  0  0
    9.9878  -18.2432   27.1688 C   0  0  0  0  0  0  0  0  0  0  0  0
    9.2937  -17.6336   28.2022 O   0  0  0  0  0  0  0  0  0  0  0  0
   11.1717  -18.5784   27.3944 O   0  0  0  0  0  0  0  0  0  0  0  0
  2  1  1  6
  3  4  1  0
  3  2  1  0
  4  5  2  0
  6  5  1  0
  7  6  1  0
  8  7  2  0
  8  4  1  0
  9  2  1  0
  9 16  1  0
 10  9  2  0
 12 11  1  1
 12 14  1  0
 13 12  1  0
 15 16  1  0
 15 14  1  1
 17 15  1  0
 18 17  2  0
 19 20  1  0
 20 21  2  0
 20 22  1  0
 22 23  1  0
 24 23  1  6
 24 26  1  0
 24 25  1  0
 25 17  1  0
 26 27  1  0
 28 26  2  0
M  END
$$$$
