VLN.pdb
     RDKit          3D

 24 23  0  0  1  0  0  0  0  0999 V2000
   24.6699  -16.2029  -16.2933 C   0  0  0  0  0  0  0  0  0  0  0  0
   25.8856  -16.2544  -15.4249 C   0  0  2  0  0  0  0  0  0  0  0  0
   26.8715  -15.1686  -15.8017 C   0  0  0  0  0  0  0  0  0  0  0  0
   26.6012  -17.5829  -15.5097 C   0  0  2  0  0  0  0  0  0  0  0  0
   27.1467  -17.7994  -16.8226 N   0  0  0  0  0  0  0  0  0  0  0  0
   25.7426  -18.7106  -15.0769 C   0  0  0  0  0  0  0  0  0  0  0  0
   25.1667  -19.3857  -15.9425 O   0  0  0  0  0  0  0  0  0  0  0  0
   27.3228  -21.2100  -12.4898 C   0  0  0  0  0  0  0  0  0  0  0  0
   26.1798  -21.4000  -11.5050 C   0  0  1  0  0  0  0  0  0  0  0  0
   26.7554  -21.4396  -10.1261 C   0  0  0  0  0  0  0  0  0  0  0  0
   25.0797  -20.4102  -11.7228 C   0  0  0  0  0  0  0  0  0  0  0  0
   24.8249  -20.0442  -13.1591 C   0  0  2  0  0  0  0  0  0  0  0  0
   25.6045  -18.9844  -13.6935 N   0  0  0  0  0  0  0  0  0  0  0  0
   23.4027  -19.8793  -13.4742 C   0  0  0  0  0  0  0  0  0  0  0  0
   22.8955  -18.7226  -13.4565 O   0  0  0  0  0  0  0  0  0  0  0  0
   20.7242  -17.4035  -15.6538 N   0  0  0  0  0  0  0  0  0  0  0  0
   20.2204  -18.6520  -15.2120 C   0  0  0  0  0  0  0  0  0  0  0  0
   19.0736  -18.6567  -14.7009 O   0  0  0  0  0  0  0  0  0  0  0  0
   21.0706  -19.8396  -15.3833 C   0  0  0  0  0  0  0  0  0  0  0  0
   21.1368  -20.7200  -14.1743 C   0  0  2  0  0  0  0  0  0  0  0  0
   22.5320  -20.9512  -13.8062 N   0  0  0  0  0  0  0  0  0  0  0  0
   20.4190  -22.0051  -14.3602 C   0  0  0  0  0  0  0  0  0  0  0  0
   19.0572  -22.0186  -14.6169 O   0  0  0  0  0  0  0  0  0  0  0  0
   21.0064  -23.1110  -14.2936 O   0  0  0  0  0  0  0  0  0  0  0  0
  2  1  1  6
  2  3  1  0
  4  2  1  0
  4  5  1  6
  6  4  1  0
  6  7  2  0
  9 10  1  1
  9  8  1  0
 11  9  1  0
 12 11  1  1
 12 13  1  0
 13  6  1  0
 14 12  1  0
 15 14  2  0
 17 18  2  0
 17 16  1  0
 19 17  1  0
 20 19  1  6
 20 21  1  0
 20 22  1  0
 21 14  1  0
 22 23  1  0
 24 22  2  0
M  END
$$$$
