VLN.pdb
     RDKit          3D

 24 23  0  0  1  0  0  0  0  0999 V2000
   25.2280  -17.1913  -16.5605 C   0  0  0  0  0  0  0  0  0  0  0  0
   26.2657  -17.1279  -15.4862 C   0  0  2  0  0  0  0  0  0  0  0  0
   27.3594  -16.1428  -15.8418 C   0  0  0  0  0  0  0  0  0  0  0  0
   26.9131  -18.4688  -15.2274 C   0  0  2  0  0  0  0  0  0  0  0  0
   27.6175  -18.9415  -16.3885 N   0  0  0  0  0  0  0  0  0  0  0  0
   25.9441  -19.4711  -14.7247 C   0  0  0  0  0  0  0  0  0  0  0  0
   25.5572  -20.3623  -15.4945 O   0  0  0  0  0  0  0  0  0  0  0  0
   25.9014  -20.8152   -9.2252 C   0  0  0  0  0  0  0  0  0  0  0  0
   25.8769  -20.8762  -10.7445 C   0  0  1  0  0  0  0  0  0  0  0  0
   26.3004  -22.2475  -11.1619 C   0  0  0  0  0  0  0  0  0  0  0  0
   24.5753  -20.3981  -11.3053 C   0  0  0  0  0  0  0  0  0  0  0  0
   24.5367  -20.2606  -12.8025 C   0  0  2  0  0  0  0  0  0  0  0  0
   25.4892  -19.3835  -13.3855 N   0  0  0  0  0  0  0  0  0  0  0  0
   23.1901  -20.0223  -13.3307 C   0  0  0  0  0  0  0  0  0  0  0  0
   22.7127  -18.8533  -13.3020 O   0  0  0  0  0  0  0  0  0  0  0  0
   19.1504  -21.4729  -17.4856 N   0  0  0  0  0  0  0  0  0  0  0  0
   19.6154  -20.6658  -16.4178 C   0  0  0  0  0  0  0  0  0  0  0  0
   18.8676  -19.7302  -16.0413 O   0  0  0  0  0  0  0  0  0  0  0  0
   20.9281  -20.9809  -15.8346 C   0  0  0  0  0  0  0  0  0  0  0  0
   21.0104  -20.7459  -14.3584 C   0  0  2  0  0  0  0  0  0  0  0  0
   22.3628  -21.0345  -13.8859 N   0  0  0  0  0  0  0  0  0  0  0  0
   20.0057  -21.5274  -13.5961 C   0  0  0  0  0  0  0  0  0  0  0  0
   18.6836  -21.1148  -13.5479 O   0  0  0  0  0  0  0  0  0  0  0  0
   20.3083  -22.5744  -12.9758 O   0  0  0  0  0  0  0  0  0  0  0  0
  2  1  1  6
  2  3  1  0
  4  2  1  0
  4  5  1  6
  6  4  1  0
  6  7  2  0
  9 10  1  1
  9  8  1  0
 11  9  1  0
 12 11  1  1
 12 13  1  0
 13  6  1  0
 14 12  1  0
 15 14  2  0
 17 18  2  0
 17 16  1  0
 19 17  1  0
 20 19  1  6
 20 21  1  0
 20 22  1  0
 21 14  1  0
 22 23  1  0
 24 22  2  0
M  END
$$$$
