VLN.pdb
     RDKit          3D

 24 23  0  0  1  0  0  0  0  0999 V2000
   22.6297  -21.5654  -15.6764 C   0  0  0  0  0  0  0  0  0  0  0  0
   21.8321  -21.2922  -14.4419 C   0  0  2  0  0  0  0  0  0  0  0  0
   20.3487  -21.2691  -14.7450 C   0  0  0  0  0  0  0  0  0  0  0  0
   22.1962  -19.9743  -13.7979 C   0  0  2  0  0  0  0  0  0  0  0  0
   21.7899  -18.8634  -14.6157 N   0  0  0  0  0  0  0  0  0  0  0  0
   23.6335  -19.9016  -13.4443 C   0  0  0  0  0  0  0  0  0  0  0  0
   24.3526  -19.0880  -14.0424 O   0  0  0  0  0  0  0  0  0  0  0  0
   25.0653  -21.1192   -8.1617 C   0  0  0  0  0  0  0  0  0  0  0  0
   24.9503  -20.4673   -9.5307 C   0  0  1  0  0  0  0  0  0  0  0  0
   25.2764  -19.0160   -9.3838 C   0  0  0  0  0  0  0  0  0  0  0  0
   25.7281  -21.2069  -10.5725 C   0  0  0  0  0  0  0  0  0  0  0  0
   25.4900  -20.7562  -11.9875 C   0  0  2  0  0  0  0  0  0  0  0  0
   24.1433  -20.7592  -12.4380 N   0  0  0  0  0  0  0  0  0  0  0  0
   26.3851  -21.3915  -12.9592 C   0  0  0  0  0  0  0  0  0  0  0  0
   26.8441  -22.5429  -12.7163 O   0  0  0  0  0  0  0  0  0  0  0  0
   25.8933  -22.9699  -18.1221 N   0  0  0  0  0  0  0  0  0  0  0  0
   26.3567  -23.3979  -16.8533 C   0  0  0  0  0  0  0  0  0  0  0  0
   26.9873  -24.4828  -16.8116 O   0  0  0  0  0  0  0  0  0  0  0  0
   26.0674  -22.5472  -15.6892 C   0  0  0  0  0  0  0  0  0  0  0  0
   27.1705  -21.5969  -15.3408 C   0  0  2  0  0  0  0  0  0  0  0  0
   26.7838  -20.7924  -14.1837 N   0  0  0  0  0  0  0  0  0  0  0  0
   27.5628  -20.7308  -16.4798 C   0  0  0  0  0  0  0  0  0  0  0  0
   26.7971  -19.6268  -16.8195 O   0  0  0  0  0  0  0  0  0  0  0  0
   28.5856  -20.9599  -17.1683 O   0  0  0  0  0  0  0  0  0  0  0  0
  2  1  1  6
  2  3  1  0
  4  2  1  0
  4  5  1  6
  6  4  1  0
  6  7  2  0
  9 10  1  1
  9  8  1  0
 11  9  1  0
 12 11  1  1
 12 13  1  0
 13  6  1  0
 14 12  1  0
 15 14  2  0
 17 18  2  0
 17 16  1  0
 19 17  1  0
 20 19  1  6
 20 21  1  0
 20 22  1  0
 21 14  1  0
 22 23  1  0
 24 22  2  0
M  END
$$$$
