VLN.pdb
     RDKit          3D

 24 23  0  0  1  0  0  0  0  0999 V2000
   18.5836  -13.4414    6.8116 C   0  0  0  0  0  0  0  0  0  0  0  0
   18.8618  -13.0602    5.3931 C   0  0  2  0  0  0  0  0  0  0  0  0
   19.3087  -11.6168    5.2938 C   0  0  0  0  0  0  0  0  0  0  0  0
   17.6557  -13.2366    4.4996 C   0  0  2  0  0  0  0  0  0  0  0  0
   16.5448  -12.4478    4.9599 N   0  0  0  0  0  0  0  0  0  0  0  0
   17.2870  -14.6620    4.3310 C   0  0  0  0  0  0  0  0  0  0  0  0
   16.3797  -15.1289    5.0349 O   0  0  0  0  0  0  0  0  0  0  0  0
   16.6435  -19.0759    1.5384 C   0  0  0  0  0  0  0  0  0  0  0  0
   18.1340  -18.9108    1.7902 C   0  0  1  0  0  0  0  0  0  0  0  0
   18.8712  -19.5843    0.6779 C   0  0  0  0  0  0  0  0  0  0  0  0
   18.5060  -17.4851    2.0479 C   0  0  0  0  0  0  0  0  0  0  0  0
   17.8299  -16.8527    3.2332 C   0  0  2  0  0  0  0  0  0  0  0  0
   17.9779  -15.4476    3.3751 N   0  0  0  0  0  0  0  0  0  0  0  0
   18.0917  -17.5526    4.4944 C   0  0  0  0  0  0  0  0  0  0  0  0
   19.1029  -17.2331    5.1806 O   0  0  0  0  0  0  0  0  0  0  0  0
   17.7687  -20.2599    8.8282 N   0  0  0  0  0  0  0  0  0  0  0  0
   17.6351  -18.8522    8.7369 C   0  0  0  0  0  0  0  0  0  0  0  0
   17.6192  -18.2087    9.8149 O   0  0  0  0  0  0  0  0  0  0  0  0
   17.5260  -18.2541    7.3978 C   0  0  0  0  0  0  0  0  0  0  0  0
   17.5802  -19.2493    6.2807 C   0  0  2  0  0  0  0  0  0  0  0  0
   17.2713  -18.5890    5.0142 N   0  0  0  0  0  0  0  0  0  0  0  0
   16.6851  -20.4114    6.5035 C   0  0  0  0  0  0  0  0  0  0  0  0
   16.7513  -21.1332    7.6847 O   0  0  0  0  0  0  0  0  0  0  0  0
   15.8474  -20.7798    5.6462 O   0  0  0  0  0  0  0  0  0  0  0  0
  2  1  1  1
  2  3  1  0
  4  2  1  0
  4  5  1  1
  6  4  1  0
  6  7  2  0
  9 10  1  6
  9  8  1  0
 11  9  1  0
 12 11  1  6
 12 13  1  0
 13  6  1  0
 14 12  1  0
 15 14  2  0
 17 18  2  0
 17 16  1  0
 19 17  1  0
 20 19  1  1
 20 21  1  0
 20 22  1  0
 21 14  1  0
 22 23  1  0
 24 22  2  0
M  END
$$$$
