VLN.pdb
     RDKit          3D

 24 23  0  0  1  0  0  0  0  0999 V2000
   18.7311  -34.3792   -4.8623 C   0  0  0  0  0  0  0  0  0  0  0  0
   18.1364  -33.1613   -5.4932 C   0  0  2  0  0  0  0  0  0  0  0  0
   17.5345  -33.4855   -6.8443 C   0  0  0  0  0  0  0  0  0  0  0  0
   19.1498  -32.0572   -5.6879 C   0  0  2  0  0  0  0  0  0  0  0  0
   20.1400  -32.4233   -6.6644 N   0  0  0  0  0  0  0  0  0  0  0  0
   19.7674  -31.6316   -4.4097 C   0  0  0  0  0  0  0  0  0  0  0  0
   20.9583  -31.9076   -4.2038 O   0  0  0  0  0  0  0  0  0  0  0  0
   18.8923  -26.6148   -1.9467 C   0  0  0  0  0  0  0  0  0  0  0  0
   19.5326  -27.9101   -2.4210 C   0  0  1  0  0  0  0  0  0  0  0  0
   21.0149  -27.7724   -2.2874 C   0  0  0  0  0  0  0  0  0  0  0  0
   18.9284  -29.1096   -1.7627 C   0  0  0  0  0  0  0  0  0  0  0  0
   19.4727  -30.4335   -2.2241 C   0  0  2  0  0  0  0  0  0  0  0  0
   18.9841  -30.9251   -3.4636 N   0  0  0  0  0  0  0  0  0  0  0  0
   19.4458  -31.4679   -1.1856 C   0  0  0  0  0  0  0  0  0  0  0  0
   18.3572  -32.0524   -0.9232 O   0  0  0  0  0  0  0  0  0  0  0  0
   20.5146  -35.0648    2.2908 N   0  0  0  0  0  0  0  0  0  0  0  0
   21.7166  -34.8287    1.5785 C   0  0  0  0  0  0  0  0  0  0  0  0
   22.6809  -35.5972    1.8148 O   0  0  0  0  0  0  0  0  0  0  0  0
   21.7453  -33.7108    0.6235 C   0  0  0  0  0  0  0  0  0  0  0  0
   20.4907  -32.8943    0.6045 C   0  0  2  0  0  0  0  0  0  0  0  0
   20.5819  -31.8707   -0.4344 N   0  0  0  0  0  0  0  0  0  0  0  0
   20.1827  -32.2849    1.9218 C   0  0  0  0  0  0  0  0  0  0  0  0
   19.4772  -32.9978    2.8782 O   0  0  0  0  0  0  0  0  0  0  0  0
   20.5425  -31.1203    2.2165 O   0  0  0  0  0  0  0  0  0  0  0  0
  2  1  1  6
  2  3  1  0
  4  2  1  0
  4  5  1  6
  6  4  1  0
  6  7  2  0
  9 10  1  1
  9  8  1  0
 11  9  1  0
 12 11  1  1
 12 13  1  0
 13  6  1  0
 14 12  1  0
 15 14  2  0
 17 18  2  0
 17 16  1  0
 19 17  1  0
 20 19  1  1
 20 21  1  0
 20 22  1  0
 21 14  1  0
 22 23  1  0
 24 22  2  0
M  END
$$$$
