VLN.pdb
     RDKit          3D

 24 23  0  0  1  0  0  0  0  0999 V2000
   27.2099  -18.9236  -16.9460 C   0  0  0  0  0  0  0  0  0  0  0  0
   26.1431  -19.2951  -17.9252 C   0  0  2  0  0  0  0  0  0  0  0  0
   26.0795  -18.3012  -19.0658 C   0  0  0  0  0  0  0  0  0  0  0  0
   24.7733  -19.3634  -17.2902 C   0  0  2  0  0  0  0  0  0  0  0  0
   24.2863  -18.0520  -16.9569 N   0  0  0  0  0  0  0  0  0  0  0  0
   24.7416  -20.2761  -16.1231 C   0  0  0  0  0  0  0  0  0  0  0  0
   25.0578  -21.4633  -16.2879 O   0  0  0  0  0  0  0  0  0  0  0  0
   25.6425  -22.2769  -11.4051 C   0  0  0  0  0  0  0  0  0  0  0  0
   24.8057  -21.0137  -11.2762 C   0  0  1  0  0  0  0  0  0  0  0  0
   25.1100  -20.3870   -9.9538 C   0  0  0  0  0  0  0  0  0  0  0  0
   24.9485  -20.1209  -12.4678 C   0  0  0  0  0  0  0  0  0  0  0  0
   24.1925  -20.5619  -13.6908 C   0  0  2  0  0  0  0  0  0  0  0  0
   24.3529  -19.7693  -14.8581 N   0  0  0  0  0  0  0  0  0  0  0  0
   22.7804  -20.8552  -13.4280 C   0  0  0  0  0  0  0  0  0  0  0  0
   21.9836  -19.9025  -13.1975 O   0  0  0  0  0  0  0  0  0  0  0  0
   18.1877  -22.7259  -12.4128 N   0  0  0  0  0  0  0  0  0  0  0  0
   18.9503  -21.8384  -11.6138 C   0  0  0  0  0  0  0  0  0  0  0  0
   18.3636  -21.2920  -10.6476 O   0  0  0  0  0  0  0  0  0  0  0  0
   20.3605  -21.6248  -11.9721 C   0  0  0  0  0  0  0  0  0  0  0  0
   20.8054  -22.3938  -13.1771 C   0  0  2  0  0  0  0  0  0  0  0  0
   22.2291  -22.1640  -13.4131 N   0  0  0  0  0  0  0  0  0  0  0  0
   20.0101  -22.0734  -14.3880 C   0  0  0  0  0  0  0  0  0  0  0  0
   18.6515  -22.3435  -14.4283 O   0  0  0  0  0  0  0  0  0  0  0  0
   20.5274  -21.5543  -15.4056 O   0  0  0  0  0  0  0  0  0  0  0  0
  2  1  1  1
  2  3  1  0
  4  2  1  0
  4  5  1  1
  6  4  1  0
  6  7  2  0
  9 10  1  1
  9  8  1  0
 11  9  1  0
 12 11  1  1
 12 13  1  0
 13  6  1  0
 14 12  1  0
 15 14  2  0
 17 18  2  0
 17 16  1  0
 19 17  1  0
 20 19  1  1
 20 21  1  0
 20 22  1  0
 21 14  1  0
 22 23  1  0
 24 22  2  0
M  END
$$$$
