VLN.pdb
     RDKit          3D

 24 23  0  0  1  0  0  0  0  0999 V2000
   20.0275  -15.8104  -17.0569 C   0  0  0  0  0  0  0  0  0  0  0  0
   19.0625  -14.8252  -17.6340 C   0  0  2  0  0  0  0  0  0  0  0  0
   18.3375  -15.4076  -18.8290 C   0  0  0  0  0  0  0  0  0  0  0  0
   19.7362  -13.5466  -18.0759 C   0  0  2  0  0  0  0  0  0  0  0  0
   20.5365  -13.7574  -19.2520 N   0  0  0  0  0  0  0  0  0  0  0  0
   20.5162  -12.9178  -16.9840 C   0  0  0  0  0  0  0  0  0  0  0  0
   19.9289  -12.6027  -15.9388 O   0  0  0  0  0  0  0  0  0  0  0  0
   25.7827  -14.3164  -15.6449 C   0  0  0  0  0  0  0  0  0  0  0  0
   24.3248  -13.8843  -15.6490 C   0  0  1  0  0  0  0  0  0  0  0  0
   23.7464  -14.1859  -14.3041 C   0  0  0  0  0  0  0  0  0  0  0  0
   24.1567  -12.4777  -16.1292 C   0  0  0  0  0  0  0  0  0  0  0  0
   22.7329  -12.0061  -16.2393 C   0  0  2  0  0  0  0  0  0  0  0  0
   21.9041  -12.6952  -17.1639 N   0  0  0  0  0  0  0  0  0  0  0  0
   22.6108  -10.5525  -16.3852 C   0  0  0  0  0  0  0  0  0  0  0  0
   22.9689  -10.0074  -17.4669 O   0  0  0  0  0  0  0  0  0  0  0  0
   21.1022   -5.7272  -16.3491 N   0  0  0  0  0  0  0  0  0  0  0  0
   20.4103   -6.7703  -17.0131 C   0  0  0  0  0  0  0  0  0  0  0  0
   19.5077   -6.4348  -17.8187 O   0  0  0  0  0  0  0  0  0  0  0  0
   20.7973   -8.1568  -16.7122 C   0  0  0  0  0  0  0  0  0  0  0  0
   21.8314   -8.2802  -15.6368 C   0  0  2  0  0  0  0  0  0  0  0  0
   22.1070   -9.6911  -15.3745 N   0  0  0  0  0  0  0  0  0  0  0  0
   21.4484   -7.5752  -14.3888 C   0  0  0  0  0  0  0  0  0  0  0  0
   21.3175   -8.2736  -13.1990 O   0  0  0  0  0  0  0  0  0  0  0  0
   21.2316   -6.3404  -14.3619 O   0  0  0  0  0  0  0  0  0  0  0  0
  2  1  1  6
  2  3  1  0
  4  2  1  0
  4  5  1  6
  6  4  1  0
  6  7  2  0
  9 10  1  1
  9  8  1  0
 11  9  1  0
 12 11  1  6
 12 13  1  0
 13  6  1  0
 14 12  1  0
 15 14  2  0
 17 18  2  0
 17 16  1  0
 19 17  1  0
 20 19  1  6
 20 21  1  0
 20 22  1  0
 21 14  1  0
 22 23  1  0
 24 22  2  0
M  END
$$$$
