VLN.pdb
     RDKit          3D

 24 23  0  0  1  0  0  0  0  0999 V2000
   16.9277  -12.6655  -20.4555 C   0  0  0  0  0  0  0  0  0  0  0  0
   17.5270  -11.9365  -19.2961 C   0  0  2  0  0  0  0  0  0  0  0  0
   18.2591  -10.6924  -19.7534 C   0  0  0  0  0  0  0  0  0  0  0  0
   18.5010  -12.7900  -18.5170 C   0  0  2  0  0  0  0  0  0  0  0  0
   17.8766  -13.9961  -18.0444 N   0  0  0  0  0  0  0  0  0  0  0  0
   19.1498  -12.0379  -17.4172 C   0  0  0  0  0  0  0  0  0  0  0  0
   18.4709  -11.7279  -16.4274 O   0  0  0  0  0  0  0  0  0  0  0  0
   22.7239  -11.0049  -13.9098 C   0  0  0  0  0  0  0  0  0  0  0  0
   23.3600  -10.6003  -15.2304 C   0  0  1  0  0  0  0  0  0  0  0  0
   24.8357  -10.8114  -15.1200 C   0  0  0  0  0  0  0  0  0  0  0  0
   22.6946  -11.2553  -16.3990 C   0  0  0  0  0  0  0  0  0  0  0  0
   21.2359  -10.9304  -16.5680 C   0  0  2  0  0  0  0  0  0  0  0  0
   20.5206  -11.6958  -17.5267 N   0  0  0  0  0  0  0  0  0  0  0  0
   20.9725   -9.4961  -16.7180 C   0  0  0  0  0  0  0  0  0  0  0  0
   21.2322   -8.9315  -17.8177 O   0  0  0  0  0  0  0  0  0  0  0  0
   17.2337   -5.0824  -15.4885 N   0  0  0  0  0  0  0  0  0  0  0  0
   18.4111   -5.5429  -16.1284 C   0  0  0  0  0  0  0  0  0  0  0  0
   19.0922   -4.6926  -16.7523 O   0  0  0  0  0  0  0  0  0  0  0  0
   18.7453   -6.9706  -16.0153 C   0  0  0  0  0  0  0  0  0  0  0  0
   20.2120   -7.2442  -15.8924 C   0  0  2  0  0  0  0  0  0  0  0  0
   20.4336   -8.6748  -15.6923 N   0  0  0  0  0  0  0  0  0  0  0  0
   20.8548   -6.4535  -14.8140 C   0  0  0  0  0  0  0  0  0  0  0  0
   21.5137   -7.0893  -13.7737 O   0  0  0  0  0  0  0  0  0  0  0  0
   20.8276   -5.1999  -14.8016 O   0  0  0  0  0  0  0  0  0  0  0  0
  2  1  1  6
  2  3  1  0
  4  2  1  0
  4  5  1  1
  6  4  1  0
  6  7  2  0
  9 10  1  1
  9  8  1  0
 11  9  1  0
 12 11  1  6
 12 13  1  0
 13  6  1  0
 14 12  1  0
 15 14  2  0
 17 18  2  0
 17 16  1  0
 19 17  1  0
 20 19  1  1
 20 21  1  0
 20 22  1  0
 21 14  1  0
 22 23  1  0
 24 22  2  0
M  END
$$$$
