VLN.pdb
     RDKit          3D

 24 23  0  0  1  0  0  0  0  0999 V2000
   14.4554  -19.5703    4.3581 C   0  0  0  0  0  0  0  0  0  0  0  0
   14.3005  -18.7800    3.0986 C   0  0  2  0  0  0  0  0  0  0  0  0
   13.4032  -19.4969    2.1118 C   0  0  0  0  0  0  0  0  0  0  0  0
   15.6226  -18.5130    2.4169 C   0  0  2  0  0  0  0  0  0  0  0  0
   16.1993  -19.7258    1.9025 N   0  0  0  0  0  0  0  0  0  0  0  0
   16.5677  -17.7822    3.2937 C   0  0  0  0  0  0  0  0  0  0  0  0
   17.6091  -18.3519    3.6511 O   0  0  0  0  0  0  0  0  0  0  0  0
   19.4572  -13.6991    4.9393 C   0  0  0  0  0  0  0  0  0  0  0  0
   17.9847  -13.3385    5.0590 C   0  0  1  0  0  0  0  0  0  0  0  0
   17.8527  -11.8594    4.8886 C   0  0  0  0  0  0  0  0  0  0  0  0
   17.1264  -14.1758    4.1650 C   0  0  0  0  0  0  0  0  0  0  0  0
   17.1034  -15.6434    4.4928 C   0  0  2  0  0  0  0  0  0  0  0  0
   16.2567  -16.4598    3.6971 N   0  0  0  0  0  0  0  0  0  0  0  0
   16.9289  -15.9178    5.9223 C   0  0  0  0  0  0  0  0  0  0  0  0
   15.7617  -16.0023    6.3977 O   0  0  0  0  0  0  0  0  0  0  0  0
   17.4944  -19.1588   10.2741 N   0  0  0  0  0  0  0  0  0  0  0  0
   18.3329  -18.0430   10.0297 C   0  0  0  0  0  0  0  0  0  0  0  0
   18.8455  -17.4836   11.0300 O   0  0  0  0  0  0  0  0  0  0  0  0
   18.5391  -17.6265    8.6345 C   0  0  0  0  0  0  0  0  0  0  0  0
   17.7677  -16.4043    8.2441 C   0  0  2  0  0  0  0  0  0  0  0  0
   18.0024  -16.1002    6.8341 N   0  0  0  0  0  0  0  0  0  0  0  0
   18.0805  -15.2314    9.0973 C   0  0  0  0  0  0  0  0  0  0  0  0
   17.6248  -15.1719   10.4046 O   0  0  0  0  0  0  0  0  0  0  0  0
   18.7583  -14.2641    8.6759 O   0  0  0  0  0  0  0  0  0  0  0  0
  2  1  1  1
  2  3  1  0
  4  2  1  0
  4  5  1  1
  6  4  1  0
  6  7  2  0
  9 10  1  6
  9  8  1  0
 11  9  1  0
 12 11  1  1
 12 13  1  0
 13  6  1  0
 14 12  1  0
 15 14  2  0
 17 18  2  0
 17 16  1  0
 19 17  1  0
 20 19  1  1
 20 21  1  0
 20 22  1  0
 21 14  1  0
 22 23  1  0
 24 22  2  0
M  END
$$$$
