WDT.pdb
     RDKit          3D

 30 31  0  0  1  0  0  0  0  0999 V2000
   27.5750  -19.0678   -9.9511 N   0  0  0  0  0  0  0  0  0  0  0  0
   27.1903  -20.4879  -10.1118 C   0  0  1  0  0  0  0  0  0  0  0  0
   26.5259  -20.8416   -8.8044 C   0  0  0  0  0  0  0  0  0  0  0  0
   27.1160  -20.1898   -7.6233 C   0  0  0  0  0  0  0  0  0  0  0  0
   26.6834  -18.9691   -7.0962 C   0  0  0  0  0  0  0  0  0  0  0  0
   27.4008  -18.6682   -6.0026 N   0  0  0  0  0  0  0  0  0  0  0  0
   28.2881  -19.6523   -5.7991 C   0  0  0  0  0  0  0  0  0  0  0  0
   29.2572  -19.8483   -4.8455 C   0  0  0  0  0  0  0  0  0  0  0  0
   30.0702  -20.9676   -4.8590 C   0  0  0  0  0  0  0  0  0  0  0  0
   29.8934  -21.8856   -5.8457 C   0  0  0  0  0  0  0  0  0  0  0  0
   28.9431  -21.7197   -6.8027 C   0  0  0  0  0  0  0  0  0  0  0  0
   28.1266  -20.6096   -6.7991 C   0  0  0  0  0  0  0  0  0  0  0  0
   26.3306  -20.6487  -11.2798 C   0  0  0  0  0  0  0  0  0  0  0  0
   25.5026  -19.7262  -11.5614 O   0  0  0  0  0  0  0  0  0  0  0  0
   26.3997  -21.8206  -12.1237 N   0  0  0  0  0  0  0  0  0  0  0  0
   25.5983  -21.8348  -13.3067 C   0  0  1  0  0  0  0  0  0  0  0  0
   26.1298  -22.8939  -14.2990 C   0  0  0  0  0  0  0  0  0  0  0  0
   25.4180  -22.7805  -15.5873 C   0  0  0  0  0  0  0  0  0  0  0  0
   24.5877  -21.8426  -15.7359 O   0  0  0  0  0  0  0  0  0  0  0  0
   24.1871  -22.1812  -13.0933 C   0  0  0  0  0  0  0  0  0  0  0  0
   23.8027  -23.2851  -12.6945 O   0  0  0  0  0  0  0  0  0  0  0  0
   25.6370  -23.6607  -16.6097 O   0  0  0  0  0  0  0  0  0  0  0  0
   21.4237  -19.9935  -11.0837 C   0  0  0  0  0  0  0  0  0  0  0  0
   21.0558  -20.2537  -12.5276 C   0  0  1  0  0  0  0  0  0  0  0  0
   21.4784  -19.1293  -13.2491 O   0  0  0  0  0  0  0  0  0  0  0  0
   21.7910  -21.4217  -13.1109 C   0  0  2  0  0  0  0  0  0  0  0  0
   23.1838  -21.2102  -13.3521 N   0  0  0  0  0  0  0  0  0  0  0  0
   21.1438  -21.7418  -14.4142 C   0  0  0  0  0  0  0  0  0  0  0  0
   19.8165  -22.1922  -14.4893 O   0  0  0  0  0  0  0  0  0  0  0  0
   21.7441  -21.6281  -15.5154 O   0  0  0  0  0  0  0  0  0  0  0  0
  2  1  1  1
  2 13  1  0
  2  3  1  0
  3  4  1  0
  4  5  2  0
  5  6  1  0
  7  6  1  0
  8  7  2  0
  9  8  1  0
 10 11  1  0
 10  9  2  0
 11 12  2  0
 12  4  1  0
 12  7  1  0
 13 14  2  0
 15 13  1  0
 15 16  1  0
 16 17  1  6
 17 18  1  0
 18 22  1  0
 19 18  2  0
 20 21  2  0
 20 16  1  0
 24 23  1  1
 24 26  1  0
 25 24  1  0
 26 27  1  6
 27 20  1  0
 28 26  1  0
 28 29  1  0
 30 28  2  0
M  END
$$$$
