WDT.pdb
     RDKit          3D

 30 31  0  0  1  0  0  0  0  0999 V2000
   26.6144  -22.7227  -12.6811 N   0  0  0  0  0  0  0  0  0  0  0  0
   25.7711  -21.7637  -11.9330 C   0  0  1  0  0  0  0  0  0  0  0  0
   26.6322  -20.5312  -11.8102 C   0  0  0  0  0  0  0  0  0  0  0  0
   27.6708  -20.6128  -10.7698 C   0  0  0  0  0  0  0  0  0  0  0  0
   29.0103  -20.9305  -11.0142 C   0  0  0  0  0  0  0  0  0  0  0  0
   29.7031  -20.8870   -9.8656 N   0  0  0  0  0  0  0  0  0  0  0  0
   28.8592  -20.5520   -8.8793 C   0  0  0  0  0  0  0  0  0  0  0  0
   29.0313  -20.3758   -7.5278 C   0  0  0  0  0  0  0  0  0  0  0  0
   27.9756  -20.0323   -6.7024 C   0  0  0  0  0  0  0  0  0  0  0  0
   26.7453  -19.8693   -7.2569 C   0  0  0  0  0  0  0  0  0  0  0  0
   26.5439  -20.0365   -8.5903 C   0  0  0  0  0  0  0  0  0  0  0  0
   27.5878  -20.3775   -9.4228 C   0  0  0  0  0  0  0  0  0  0  0  0
   24.5119  -21.5433  -12.6368 C   0  0  0  0  0  0  0  0  0  0  0  0
   24.4804  -21.7007  -13.8979 O   0  0  0  0  0  0  0  0  0  0  0  0
   23.3048  -21.1584  -11.9405 N   0  0  0  0  0  0  0  0  0  0  0  0
   22.1157  -20.9930  -12.7154 C   0  0  1  0  0  0  0  0  0  0  0  0
   20.8673  -21.1485  -11.8175 C   0  0  0  0  0  0  0  0  0  0  0  0
   19.6462  -21.1517  -12.6470 C   0  0  0  0  0  0  0  0  0  0  0  0
   18.8898  -20.1429  -12.6088 O   0  0  0  0  0  0  0  0  0  0  0  0
   21.9705  -19.6773  -13.3518 C   0  0  0  0  0  0  0  0  0  0  0  0
   22.1222  -18.6054  -12.7573 O   0  0  0  0  0  0  0  0  0  0  0  0
   19.3220  -22.2126  -13.4453 O   0  0  0  0  0  0  0  0  0  0  0  0
   22.2297  -16.8749  -17.3152 C   0  0  0  0  0  0  0  0  0  0  0  0
   22.3585  -18.2323  -16.6604 C   0  0  1  0  0  0  0  0  0  0  0  0
   23.6805  -18.3247  -16.2051 O   0  0  0  0  0  0  0  0  0  0  0  0
   21.4906  -18.3746  -15.4473 C   0  0  2  0  0  0  0  0  0  0  0  0
   21.6372  -19.6023  -14.7300 N   0  0  0  0  0  0  0  0  0  0  0  0
   20.0762  -18.2777  -15.9052 C   0  0  0  0  0  0  0  0  0  0  0  0
   19.4076  -17.0460  -15.9838 O   0  0  0  0  0  0  0  0  0  0  0  0
   19.4031  -19.2861  -16.2456 O   0  0  0  0  0  0  0  0  0  0  0  0
  2  1  1  6
  2 13  1  0
  2  3  1  0
  3  4  1  0
  4  5  2  0
  5  6  1  0
  7  6  1  0
  8  7  2  0
  9  8  1  0
 10 11  1  0
 10  9  2  0
 11 12  2  0
 12  4  1  0
 12  7  1  0
 13 14  2  0
 15 13  1  0
 15 16  1  0
 16 17  1  1
 17 18  1  0
 18 22  1  0
 19 18  2  0
 20 21  2  0
 20 16  1  0
 24 23  1  1
 24 26  1  0
 25 24  1  0
 26 27  1  6
 27 20  1  0
 28 26  1  0
 28 29  1  0
 30 28  2  0
M  END
$$$$
