WDT.pdb
     RDKit          3D

 30 31  0  0  1  0  0  0  0  0999 V2000
   21.6190  -19.4070  -17.9163 N   0  0  0  0  0  0  0  0  0  0  0  0
   21.0708  -18.3444  -17.0440 C   0  0  1  0  0  0  0  0  0  0  0  0
   20.4119  -17.3828  -18.0016 C   0  0  0  0  0  0  0  0  0  0  0  0
   21.3494  -16.6165  -18.8394 C   0  0  0  0  0  0  0  0  0  0  0  0
   21.8113  -17.0332  -20.0916 C   0  0  0  0  0  0  0  0  0  0  0  0
   22.6221  -16.0976  -20.6097 N   0  0  0  0  0  0  0  0  0  0  0  0
   22.7050  -15.0841  -19.7361 C   0  0  0  0  0  0  0  0  0  0  0  0
   23.3910  -13.8941  -19.7546 C   0  0  0  0  0  0  0  0  0  0  0  0
   23.3185  -13.0003  -18.7012 C   0  0  0  0  0  0  0  0  0  0  0  0
   22.5463  -13.3220  -17.6298 C   0  0  0  0  0  0  0  0  0  0  0  0
   21.8559  -14.4914  -17.5825 C   0  0  0  0  0  0  0  0  0  0  0  0
   21.9193  -15.3891  -18.6262 C   0  0  0  0  0  0  0  0  0  0  0  0
   20.1621  -18.9200  -16.0579 C   0  0  0  0  0  0  0  0  0  0  0  0
   19.4280  -19.8995  -16.4011 O   0  0  0  0  0  0  0  0  0  0  0  0
   20.0795  -18.4119  -14.7069 N   0  0  0  0  0  0  0  0  0  0  0  0
   19.1173  -19.0048  -13.8325 C   0  0  1  0  0  0  0  0  0  0  0  0
   19.5609  -18.8414  -12.3610 C   0  0  0  0  0  0  0  0  0  0  0  0
   20.5842  -19.8517  -12.0271 C   0  0  0  0  0  0  0  0  0  0  0  0
   20.9075  -20.6949  -12.9079 O   0  0  0  0  0  0  0  0  0  0  0  0
   17.7749  -18.4126  -13.8978 C   0  0  0  0  0  0  0  0  0  0  0  0
   17.5543  -17.1994  -13.8264 O   0  0  0  0  0  0  0  0  0  0  0  0
   21.1807  -19.8921  -10.7982 O   0  0  0  0  0  0  0  0  0  0  0  0
   14.9559  -19.0346  -16.6168 C   0  0  0  0  0  0  0  0  0  0  0  0
   14.4750  -19.4047  -15.2313 C   0  0  1  0  0  0  0  0  0  0  0  0
   14.6535  -20.7893  -15.1108 O   0  0  0  0  0  0  0  0  0  0  0  0
   15.3013  -18.7837  -14.1466 C   0  0  2  0  0  0  0  0  0  0  0  0
   16.6458  -19.2596  -14.0522 N   0  0  0  0  0  0  0  0  0  0  0  0
   14.6202  -19.0754  -12.8539 C   0  0  0  0  0  0  0  0  0  0  0  0
   13.3355  -18.5873  -12.5688 O   0  0  0  0  0  0  0  0  0  0  0  0
   15.1525  -19.7709  -11.9490 O   0  0  0  0  0  0  0  0  0  0  0  0
  2  1  1  6
  2 13  1  0
  2  3  1  0
  3  4  1  0
  4  5  2  0
  5  6  1  0
  7  6  1  0
  8  7  2  0
  9  8  1  0
 10 11  1  0
 10  9  2  0
 11 12  2  0
 12  4  1  0
 12  7  1  0
 13 14  2  0
 15 13  1  0
 15 16  1  0
 16 17  1  1
 17 18  1  0
 18 22  1  0
 19 18  2  0
 20 21  2  0
 20 16  1  0
 24 23  1  6
 24 26  1  0
 25 24  1  0
 26 27  1  1
 27 20  1  0
 28 26  1  0
 28 29  1  0
 30 28  2  0
M  END
$$$$
