WDT.pdb
     RDKit          3D

 30 31  0  0  1  0  0  0  0  0999 V2000
   27.2576  -19.8934  -17.3757 N   0  0  0  0  0  0  0  0  0  0  0  0
   27.0912  -19.1699  -16.0953 C   0  0  1  0  0  0  0  0  0  0  0  0
   26.6183  -17.7971  -16.5048 C   0  0  0  0  0  0  0  0  0  0  0  0
   27.6116  -17.0058  -17.2498 C   0  0  0  0  0  0  0  0  0  0  0  0
   27.2937  -15.9790  -18.1440 C   0  0  0  0  0  0  0  0  0  0  0  0
   28.4209  -15.4349  -18.6283 N   0  0  0  0  0  0  0  0  0  0  0  0
   29.4642  -16.0736  -18.0799 C   0  0  0  0  0  0  0  0  0  0  0  0
   30.8228  -15.9315  -18.2256 C   0  0  0  0  0  0  0  0  0  0  0  0
   31.7126  -16.7392  -17.5403 C   0  0  0  0  0  0  0  0  0  0  0  0
   31.2152  -17.6911  -16.7072 C   0  0  0  0  0  0  0  0  0  0  0  0
   29.8765  -17.8556  -16.5422 C   0  0  0  0  0  0  0  0  0  0  0  0
   28.9803  -17.0565  -17.2184 C   0  0  0  0  0  0  0  0  0  0  0  0
   26.1618  -19.8863  -15.2280 C   0  0  0  0  0  0  0  0  0  0  0  0
   25.3060  -20.6629  -15.7577 O   0  0  0  0  0  0  0  0  0  0  0  0
   26.1925  -19.7411  -13.7899 N   0  0  0  0  0  0  0  0  0  0  0  0
   25.1968  -20.4308  -13.0318 C   0  0  1  0  0  0  0  0  0  0  0  0
   25.5976  -20.4758  -11.5398 C   0  0  0  0  0  0  0  0  0  0  0  0
   24.6357  -21.3017  -10.7834 C   0  0  0  0  0  0  0  0  0  0  0  0
   24.5205  -21.1069   -9.5425 O   0  0  0  0  0  0  0  0  0  0  0  0
   23.8645  -19.8129  -13.0540 C   0  0  0  0  0  0  0  0  0  0  0  0
   23.5939  -18.7422  -12.5009 O   0  0  0  0  0  0  0  0  0  0  0  0
   23.8772  -22.2616  -11.3926 O   0  0  0  0  0  0  0  0  0  0  0  0
   21.7214  -18.3611  -15.7175 C   0  0  0  0  0  0  0  0  0  0  0  0
   20.9906  -19.5654  -15.1666 C   0  0  1  0  0  0  0  0  0  0  0  0
   21.3056  -20.6368  -16.0129 O   0  0  0  0  0  0  0  0  0  0  0  0
   21.4694  -19.9592  -13.8025 C   0  0  2  0  0  0  0  0  0  0  0  0
   22.8064  -20.4612  -13.7440 N   0  0  0  0  0  0  0  0  0  0  0  0
   20.5567  -21.0280  -13.3081 C   0  0  0  0  0  0  0  0  0  0  0  0
   19.1839  -20.8007  -13.1240 O   0  0  0  0  0  0  0  0  0  0  0  0
   20.9596  -22.1879  -13.0287 O   0  0  0  0  0  0  0  0  0  0  0  0
  2  1  1  6
  2 13  1  0
  2  3  1  0
  3  4  1  0
  4  5  2  0
  5  6  1  0
  7  6  1  0
  8  7  2  0
  9  8  1  0
 10 11  1  0
 10  9  2  0
 11 12  2  0
 12  4  1  0
 12  7  1  0
 13 14  2  0
 15 13  1  0
 15 16  1  0
 16 17  1  1
 17 18  1  0
 18 22  1  0
 19 18  2  0
 20 21  2  0
 20 16  1  0
 24 23  1  6
 24 26  1  0
 25 24  1  0
 26 27  1  6
 27 20  1  0
 28 26  1  0
 28 29  1  0
 30 28  2  0
M  END
$$$$
