WDT.pdb
     RDKit          3D

 30 31  0  0  1  0  0  0  0  0999 V2000
   27.6095  -20.2888  -11.6880 N   0  0  0  0  0  0  0  0  0  0  0  0
   26.8399  -21.4844  -12.0986 C   0  0  1  0  0  0  0  0  0  0  0  0
   26.3619  -22.0814  -10.7982 C   0  0  0  0  0  0  0  0  0  0  0  0
   26.5132  -21.1993   -9.6290 C   0  0  0  0  0  0  0  0  0  0  0  0
   25.4656  -20.4891   -9.0346 C   0  0  0  0  0  0  0  0  0  0  0  0
   25.9246  -19.8090   -7.9726 N   0  0  0  0  0  0  0  0  0  0  0  0
   27.2378  -20.0515   -7.8548 C   0  0  0  0  0  0  0  0  0  0  0  0
   28.1881  -19.6141   -6.9645 C   0  0  0  0  0  0  0  0  0  0  0  0
   29.5099  -20.0102   -7.0640 C   0  0  0  0  0  0  0  0  0  0  0  0
   29.8605  -20.8519   -8.0720 C   0  0  0  0  0  0  0  0  0  0  0  0
   28.9431  -21.3018   -8.9678 C   0  0  0  0  0  0  0  0  0  0  0  0
   27.6234  -20.9153   -8.8783 C   0  0  0  0  0  0  0  0  0  0  0  0
   25.7657  -21.1044  -13.0103 C   0  0  0  0  0  0  0  0  0  0  0  0
   25.0712  -20.0741  -12.7415 O   0  0  0  0  0  0  0  0  0  0  0  0
   25.4762  -21.8615  -14.2074 N   0  0  0  0  0  0  0  0  0  0  0  0
   24.4483  -21.3710  -15.0705 C   0  0  1  0  0  0  0  0  0  0  0  0
   24.9450  -21.3498  -16.5339 C   0  0  0  0  0  0  0  0  0  0  0  0
   26.0076  -20.3372  -16.6917 C   0  0  0  0  0  0  0  0  0  0  0  0
   25.7820  -19.1610  -16.2956 O   0  0  0  0  0  0  0  0  0  0  0  0
   23.2216  -22.1784  -15.0921 C   0  0  0  0  0  0  0  0  0  0  0  0
   23.2006  -23.3911  -15.3250 O   0  0  0  0  0  0  0  0  0  0  0  0
   27.2159  -20.6442  -17.2518 O   0  0  0  0  0  0  0  0  0  0  0  0
   20.1280  -22.2190  -12.4317 C   0  0  0  0  0  0  0  0  0  0  0  0
   19.7240  -21.8145  -13.8320 C   0  0  1  0  0  0  0  0  0  0  0  0
   19.7218  -20.4134  -13.8507 O   0  0  0  0  0  0  0  0  0  0  0  0
   20.7188  -22.2419  -14.8679 C   0  0  2  0  0  0  0  0  0  0  0  0
   21.9721  -21.5555  -14.8333 N   0  0  0  0  0  0  0  0  0  0  0  0
   20.0987  -21.9965  -16.2002 C   0  0  0  0  0  0  0  0  0  0  0  0
   18.9233  -22.6512  -16.6001 O   0  0  0  0  0  0  0  0  0  0  0  0
   20.5883  -21.1944  -17.0385 O   0  0  0  0  0  0  0  0  0  0  0  0
  2  1  1  1
  2 13  1  0
  2  3  1  0
  3  4  1  0
  4  5  2  0
  5  6  1  0
  7  6  1  0
  8  7  2  0
  9  8  1  0
 10 11  1  0
 10  9  2  0
 11 12  2  0
 12  4  1  0
 12  7  1  0
 13 14  2  0
 15 13  1  0
 15 16  1  0
 16 17  1  6
 17 18  1  0
 18 22  1  0
 19 18  2  0
 20 21  2  0
 20 16  1  0
 24 23  1  1
 24 26  1  0
 25 24  1  0
 26 27  1  6
 27 20  1  0
 28 26  1  0
 28 29  1  0
 30 28  2  0
M  END
$$$$
