WDT.pdb
     RDKit          3D

 30 31  0  0  1  0  0  0  0  0999 V2000
   27.5658  -20.1896  -12.0029 N   0  0  0  0  0  0  0  0  0  0  0  0
   26.4172  -21.0216  -11.5798 C   0  0  1  0  0  0  0  0  0  0  0  0
   26.3253  -20.7957  -10.0910 C   0  0  0  0  0  0  0  0  0  0  0  0
   27.6145  -20.8596   -9.3827 C   0  0  0  0  0  0  0  0  0  0  0  0
   28.8012  -21.3406   -9.9443 C   0  0  0  0  0  0  0  0  0  0  0  0
   29.8000  -21.2324   -9.0544 N   0  0  0  0  0  0  0  0  0  0  0  0
   29.3037  -20.6971   -7.9300 C   0  0  0  0  0  0  0  0  0  0  0  0
   29.8732  -20.3799   -6.7208 C   0  0  0  0  0  0  0  0  0  0  0  0
   29.1284  -19.8335   -5.6910 C   0  0  0  0  0  0  0  0  0  0  0  0
   27.8031  -19.6117   -5.8960 C   0  0  0  0  0  0  0  0  0  0  0  0
   27.2114  -19.9148   -7.0812 C   0  0  0  0  0  0  0  0  0  0  0  0
   27.9431  -20.4583   -8.1148 C   0  0  0  0  0  0  0  0  0  0  0  0
   25.2174  -20.6372  -12.3160 C   0  0  0  0  0  0  0  0  0  0  0  0
   24.7558  -19.4627  -12.1629 O   0  0  0  0  0  0  0  0  0  0  0  0
   24.5471  -21.5504  -13.2145 N   0  0  0  0  0  0  0  0  0  0  0  0
   23.3701  -21.0847  -13.8776 C   0  0  1  0  0  0  0  0  0  0  0  0
   23.4212  -21.4534  -15.3777 C   0  0  0  0  0  0  0  0  0  0  0  0
   24.4464  -20.6412  -16.0624 C   0  0  0  0  0  0  0  0  0  0  0  0
   24.3771  -19.3848  -15.9736 O   0  0  0  0  0  0  0  0  0  0  0  0
   22.1129  -21.6603  -13.3824 C   0  0  0  0  0  0  0  0  0  0  0  0
   21.9408  -22.8668  -13.1820 O   0  0  0  0  0  0  0  0  0  0  0  0
   25.4561  -21.2156  -16.7823 O   0  0  0  0  0  0  0  0  0  0  0  0
   20.0916  -20.4593  -10.2259 C   0  0  0  0  0  0  0  0  0  0  0  0
   19.2102  -20.4371  -11.4549 C   0  0  1  0  0  0  0  0  0  0  0  0
   19.2012  -19.1110  -11.9076 O   0  0  0  0  0  0  0  0  0  0  0  0
   19.7652  -21.2560  -12.5803 C   0  0  2  0  0  0  0  0  0  0  0  0
   21.0138  -20.8038  -13.1091 N   0  0  0  0  0  0  0  0  0  0  0  0
   18.7628  -21.2249  -13.6822 C   0  0  0  0  0  0  0  0  0  0  0  0
   17.4693  -21.7448  -13.5194 O   0  0  0  0  0  0  0  0  0  0  0  0
   19.0150  -20.7348  -14.8145 O   0  0  0  0  0  0  0  0  0  0  0  0
  2  1  1  6
  2 13  1  0
  2  3  1  0
  3  4  1  0
  4  5  2  0
  5  6  1  0
  7  6  1  0
  8  7  2  0
  9  8  1  0
 10 11  1  0
 10  9  2  0
 11 12  2  0
 12  4  1  0
 12  7  1  0
 13 14  2  0
 15 13  1  0
 15 16  1  0
 16 17  1  6
 17 18  1  0
 18 22  1  0
 19 18  2  0
 20 21  2  0
 20 16  1  0
 24 23  1  1
 24 26  1  0
 25 24  1  0
 26 27  1  6
 27 20  1  0
 28 26  1  0
 28 29  1  0
 30 28  2  0
M  END
$$$$
