WDT.pdb
     RDKit          3D

 30 31  0  0  1  0  0  0  0  0999 V2000
   25.5487  -22.3405  -11.7514 N   0  0  0  0  0  0  0  0  0  0  0  0
   25.3311  -20.9089  -12.0572 C   0  0  1  0  0  0  0  0  0  0  0  0
   26.6551  -20.2578  -11.7425 C   0  0  0  0  0  0  0  0  0  0  0  0
   27.0393  -20.3104  -10.3221 C   0  0  0  0  0  0  0  0  0  0  0  0
   26.1707  -20.0464   -9.2587 C   0  0  0  0  0  0  0  0  0  0  0  0
   26.8165  -20.2134   -8.0941 N   0  0  0  0  0  0  0  0  0  0  0  0
   28.0785  -20.5772   -8.3627 C   0  0  0  0  0  0  0  0  0  0  0  0
   29.1547  -20.8644   -7.5588 C   0  0  0  0  0  0  0  0  0  0  0  0
   30.3831  -21.2132   -8.0910 C   0  0  0  0  0  0  0  0  0  0  0  0
   30.5119  -21.2684   -9.4430 C   0  0  0  0  0  0  0  0  0  0  0  0
   29.4656  -20.9901  -10.2641 C   0  0  0  0  0  0  0  0  0  0  0  0
   28.2369  -20.6426   -9.7458 C   0  0  0  0  0  0  0  0  0  0  0  0
   24.9027  -20.7485  -13.4429 C   0  0  0  0  0  0  0  0  0  0  0  0
   25.3603  -21.5459  -14.3208 O   0  0  0  0  0  0  0  0  0  0  0  0
   23.9721  -19.7158  -13.8400 N   0  0  0  0  0  0  0  0  0  0  0  0
   23.7166  -19.5540  -15.2366 C   0  0  1  0  0  0  0  0  0  0  0  0
   22.2811  -19.0261  -15.4592 C   0  0  0  0  0  0  0  0  0  0  0  0
   21.3167  -19.8545  -14.7088 C   0  0  0  0  0  0  0  0  0  0  0  0
   21.0672  -21.0174  -15.1289 O   0  0  0  0  0  0  0  0  0  0  0  0
   24.5910  -18.5901  -15.9175 C   0  0  0  0  0  0  0  0  0  0  0  0
   24.6494  -17.3908  -15.6280 O   0  0  0  0  0  0  0  0  0  0  0  0
   20.6957  -19.3926  -13.5823 O   0  0  0  0  0  0  0  0  0  0  0  0
   28.5819  -17.9108  -18.7853 C   0  0  0  0  0  0  0  0  0  0  0  0
   27.6384  -18.8556  -18.0748 C   0  0  1  0  0  0  0  0  0  0  0  0
   28.2828  -19.2369  -16.8904 O   0  0  0  0  0  0  0  0  0  0  0  0
   26.3609  -18.1930  -17.6575 C   0  0  2  0  0  0  0  0  0  0  0  0
   25.4295  -19.0343  -16.9738 N   0  0  0  0  0  0  0  0  0  0  0  0
   25.7016  -17.6909  -18.8957 C   0  0  0  0  0  0  0  0  0  0  0  0
   26.2792  -16.6835  -19.6841 O   0  0  0  0  0  0  0  0  0  0  0  0
   24.5970  -18.1369  -19.3041 O   0  0  0  0  0  0  0  0  0  0  0  0
  2  1  1  6
  2 13  1  0
  2  3  1  0
  3  4  1  0
  4  5  2  0
  5  6  1  0
  7  6  1  0
  8  7  2  0
  9  8  1  0
 10 11  1  0
 10  9  2  0
 11 12  2  0
 12  4  1  0
 12  7  1  0
 13 14  2  0
 15 13  1  0
 15 16  1  0
 16 17  1  1
 17 18  1  0
 18 22  1  0
 19 18  2  0
 20 21  2  0
 20 16  1  0
 24 23  1  1
 24 26  1  0
 25 24  1  0
 26 27  1  6
 27 20  1  0
 28 26  1  0
 28 29  1  0
 30 28  2  0
M  END
$$$$
