WDT.pdb
     RDKit          3D

 30 31  0  0  1  0  0  0  0  0999 V2000
   24.9312  -19.0140  -17.5504 N   0  0  0  0  0  0  0  0  0  0  0  0
   23.5403  -18.7138  -17.9576 C   0  0  1  0  0  0  0  0  0  0  0  0
   23.3505  -19.4982  -19.2322 C   0  0  0  0  0  0  0  0  0  0  0  0
   22.0566  -19.2764  -19.8990 C   0  0  0  0  0  0  0  0  0  0  0  0
   21.7069  -18.1029  -20.5740 C   0  0  0  0  0  0  0  0  0  0  0  0
   20.4783  -18.2311  -21.0989 N   0  0  0  0  0  0  0  0  0  0  0  0
   20.0145  -19.4498  -20.7878 C   0  0  0  0  0  0  0  0  0  0  0  0
   18.8305  -20.0915  -21.0590 C   0  0  0  0  0  0  0  0  0  0  0  0
   18.5828  -21.3752  -20.6069 C   0  0  0  0  0  0  0  0  0  0  0  0
   19.5434  -22.0028  -19.8782 C   0  0  0  0  0  0  0  0  0  0  0  0
   20.7246  -21.3942  -19.5939 C   0  0  0  0  0  0  0  0  0  0  0  0
   20.9834  -20.1161  -20.0397 C   0  0  0  0  0  0  0  0  0  0  0  0
   22.6129  -19.0765  -16.8910 C   0  0  0  0  0  0  0  0  0  0  0  0
   22.8796  -20.0858  -16.1656 O   0  0  0  0  0  0  0  0  0  0  0  0
   21.4085  -18.3187  -16.6354 N   0  0  0  0  0  0  0  0  0  0  0  0
   20.5908  -18.7229  -15.5355 C   0  0  1  0  0  0  0  0  0  0  0  0
   20.0090  -17.4833  -14.8188 C   0  0  0  0  0  0  0  0  0  0  0  0
   19.3565  -17.8891  -13.5583 C   0  0  0  0  0  0  0  0  0  0  0  0
   19.5225  -19.0701  -13.1475 O   0  0  0  0  0  0  0  0  0  0  0  0
   19.4255  -19.5398  -15.8987 C   0  0  0  0  0  0  0  0  0  0  0  0
   18.6756  -19.2849  -16.8463 O   0  0  0  0  0  0  0  0  0  0  0  0
   18.5851  -17.0221  -12.8363 O   0  0  0  0  0  0  0  0  0  0  0  0
   19.3438  -23.6257  -15.8812 C   0  0  0  0  0  0  0  0  0  0  0  0
   18.2258  -23.0033  -15.0749 C   0  0  1  0  0  0  0  0  0  0  0  0
   18.6396  -23.0396  -13.7366 O   0  0  0  0  0  0  0  0  0  0  0  0
   18.0104  -21.5574  -15.4036 C   0  0  2  0  0  0  0  0  0  0  0  0
   19.1189  -20.6963  -15.1339 N   0  0  0  0  0  0  0  0  0  0  0  0
   16.8563  -21.0882  -14.5864 C   0  0  0  0  0  0  0  0  0  0  0  0
   15.5855  -21.6735  -14.6976 O   0  0  0  0  0  0  0  0  0  0  0  0
   16.9523  -20.1471  -13.7551 O   0  0  0  0  0  0  0  0  0  0  0  0
  2  1  1  1
  2 13  1  0
  2  3  1  0
  3  4  1  0
  4  5  2  0
  5  6  1  0
  7  6  1  0
  8  7  2  0
  9  8  1  0
 10 11  1  0
 10  9  2  0
 11 12  2  0
 12  4  1  0
 12  7  1  0
 13 14  2  0
 15 13  1  0
 15 16  1  0
 16 17  1  6
 17 18  1  0
 18 22  1  0
 19 18  2  0
 20 21  2  0
 20 16  1  0
 24 23  1  6
 24 26  1  0
 25 24  1  0
 26 27  1  1
 27 20  1  0
 28 26  1  0
 28 29  1  0
 30 28  2  0
M  END
$$$$
