WDT.pdb
     RDKit          3D

 30 31  0  0  1  0  0  0  0  0999 V2000
   25.2443  -17.6417  -15.6294 N   0  0  0  0  0  0  0  0  0  0  0  0
   24.6684  -19.0020  -15.7218 C   0  0  1  0  0  0  0  0  0  0  0  0
   25.3369  -19.7636  -14.6043 C   0  0  0  0  0  0  0  0  0  0  0  0
   26.7618  -20.0567  -14.8318 C   0  0  0  0  0  0  0  0  0  0  0  0
   27.8166  -19.3011  -14.3108 C   0  0  0  0  0  0  0  0  0  0  0  0
   28.9876  -19.8488  -14.6713 N   0  0  0  0  0  0  0  0  0  0  0  0
   28.7314  -20.9369  -15.4113 C   0  0  0  0  0  0  0  0  0  0  0  0
   29.5462  -21.8517  -16.0330 C   0  0  0  0  0  0  0  0  0  0  0  0
   29.0263  -22.9056  -16.7629 C   0  0  0  0  0  0  0  0  0  0  0  0
   27.6756  -23.0249  -16.8578 C   0  0  0  0  0  0  0  0  0  0  0  0
   26.8440  -22.1361  -16.2537 C   0  0  0  0  0  0  0  0  0  0  0  0
   27.3499  -21.0829  -15.5230 C   0  0  0  0  0  0  0  0  0  0  0  0
   23.2143  -18.9425  -15.6158 C   0  0  0  0  0  0  0  0  0  0  0  0
   22.6972  -18.2892  -14.6557 O   0  0  0  0  0  0  0  0  0  0  0  0
   22.3511  -19.5986  -16.5723 N   0  0  0  0  0  0  0  0  0  0  0  0
   20.9400  -19.4472  -16.4058 C   0  0  1  0  0  0  0  0  0  0  0  0
   20.2874  -19.0229  -17.7411 C   0  0  0  0  0  0  0  0  0  0  0  0
   20.6762  -17.6386  -18.0755 C   0  0  0  0  0  0  0  0  0  0  0  0
   20.8772  -17.3454  -19.2858 O   0  0  0  0  0  0  0  0  0  0  0  0
   20.2306  -20.6681  -16.0016 C   0  0  0  0  0  0  0  0  0  0  0  0
   20.1989  -21.7009  -16.6781 O   0  0  0  0  0  0  0  0  0  0  0  0
   20.8219  -16.6799  -17.1123 O   0  0  0  0  0  0  0  0  0  0  0  0
   20.8328  -22.8444  -13.0957 C   0  0  0  0  0  0  0  0  0  0  0  0
   19.3934  -22.3953  -12.9762 C   0  0  1  0  0  0  0  0  0  0  0  0
   19.3882  -21.3333  -12.0620 O   0  0  0  0  0  0  0  0  0  0  0  0
   18.8512  -21.8418  -14.2587 C   0  0  2  0  0  0  0  0  0  0  0  0
   19.5319  -20.6918  -14.7656 N   0  0  0  0  0  0  0  0  0  0  0  0
   17.4328  -21.4611  -14.0079 C   0  0  0  0  0  0  0  0  0  0  0  0
   16.4631  -22.4130  -13.6564 O   0  0  0  0  0  0  0  0  0  0  0  0
   17.0239  -20.2732  -14.0960 O   0  0  0  0  0  0  0  0  0  0  0  0
  2  1  1  1
  2 13  1  0
  2  3  1  0
  3  4  1  0
  4  5  2  0
  5  6  1  0
  7  6  1  0
  8  7  2  0
  9  8  1  0
 10 11  1  0
 10  9  2  0
 11 12  2  0
 12  4  1  0
 12  7  1  0
 13 14  2  0
 15 13  1  0
 15 16  1  0
 16 17  1  6
 17 18  1  0
 18 22  1  0
 19 18  2  0
 20 21  2  0
 20 16  1  0
 24 23  1  6
 24 26  1  0
 25 24  1  0
 26 27  1  1
 27 20  1  0
 28 26  1  0
 28 29  1  0
 30 28  2  0
M  END
$$$$
