VRQ.pdb
     RDKit          3D

 28 27  0  0  1  0  0  0  0  0999 V2000
    7.3576  -12.7576   20.7582 C   0  0  0  0  0  0  0  0  0  0  0  0
    8.4785  -13.2335   19.8363 C   0  0  2  0  0  0  0  0  0  0  0  0
    8.4107  -12.4716   18.5371 C   0  0  0  0  0  0  0  0  0  0  0  0
    8.2532  -14.7147   19.5356 C   0  0  2  0  0  0  0  0  0  0  0  0
    7.0095  -14.8959   18.8159 N   0  0  0  0  0  0  0  0  0  0  0  0
    8.2482  -15.4669   20.7965 C   0  0  0  0  0  0  0  0  0  0  0  0
    7.1720  -15.4698   21.4766 O   0  0  0  0  0  0  0  0  0  0  0  0
   13.3863  -20.0236   21.7147 N   0  0  0  0  0  0  0  0  0  0  0  0
   13.6150  -19.8224   23.1047 C   0  0  0  0  0  0  0  0  0  0  0  0
   14.8309  -19.7490   23.5264 N   0  0  0  0  0  0  0  0  0  0  0  0
   12.5291  -19.7014   24.0320 N   0  0  0  0  0  0  0  0  0  0  0  0
   11.2086  -20.0074   23.5239 C   0  0  0  0  0  0  0  0  0  0  0  0
   10.2464  -18.8580   23.7347 C   0  0  0  0  0  0  0  0  0  0  0  0
   10.3244  -18.0074   22.4597 C   0  0  0  0  0  0  0  0  0  0  0  0
    9.3142  -16.8812   22.5030 C   0  0  2  0  0  0  0  0  0  0  0  0
    9.3783  -16.1644   21.2539 N   0  0  0  0  0  0  0  0  0  0  0  0
    9.5671  -15.9770   23.6521 C   0  0  0  0  0  0  0  0  0  0  0  0
   10.5629  -15.1869   23.6145 O   0  0  0  0  0  0  0  0  0  0  0  0
   15.0449  -19.6758   24.5324 N   0  0  0  0  0  0  0  0  0  0  0  0
    6.0023  -12.0475   25.4064 C   0  0  0  0  0  0  0  0  0  0  0  0
    6.6672  -12.1202   26.6674 O   0  0  0  0  0  0  0  0  0  0  0  0
    6.5627  -11.1354   27.4589 C   0  0  0  0  0  0  0  0  0  0  0  0
    7.4379  -13.3251   27.0067 C   0  0  0  0  0  0  0  0  0  0  0  0
    7.5963  -14.3181   25.9314 C   0  0  1  0  0  0  0  0  0  0  0  0
    8.8909  -15.0493   25.8503 N   0  0  0  0  0  0  0  0  0  0  0  0
    8.6849  -16.0356   24.7419 C   0  0  0  0  0  0  0  0  0  0  0  0
    9.2096  -15.8272   27.0419 O   0  0  0  0  0  0  0  0  0  0  0  0
    9.8274  -15.2575   28.1438 O   0  0  0  0  0  0  0  0  0  0  0  0
  2  1  1  1
  2  3  1  0
  4  5  1  1
  4  2  1  0
  6  4  1  0
  6  7  2  0
  9 11  1  0
  9  8  1  0
 10  9  2  0
 12 11  1  0
 12 13  1  0
 13 14  1  0
 15 14  1  6
 15 17  1  0
 15 16  1  0
 16  6  1  0
 17 25  1  0
 18 17  2  0
 19 20  1  0
 20 22  1  0
 20 21  2  0
 22 23  1  0
 24 23  1  6
 24 26  1  0
 25 24  1  0
 26 28  2  0
 26 27  1  0
M  END
$$$$
