VRQ.pdb
     RDKit          3D

 28 27  0  0  1  0  0  0  0  0999 V2000
    7.0770  -11.5896   24.8751 C   0  0  0  0  0  0  0  0  0  0  0  0
    6.5973  -12.1287   26.2213 C   0  0  2  0  0  0  0  0  0  0  0  0
    7.7865  -12.3452   27.1223 C   0  0  0  0  0  0  0  0  0  0  0  0
    5.9246  -13.4799   25.9824 C   0  0  2  0  0  0  0  0  0  0  0  0
    5.3345  -13.9695   27.2112 N   0  0  0  0  0  0  0  0  0  0  0  0
    6.9176  -14.4266   25.4595 C   0  0  0  0  0  0  0  0  0  0  0  0
    7.7166  -14.9627   26.2931 O   0  0  0  0  0  0  0  0  0  0  0  0
    9.8409  -14.7542   18.5210 N   0  0  0  0  0  0  0  0  0  0  0  0
    8.6986  -13.9519   18.2449 C   0  0  0  0  0  0  0  0  0  0  0  0
    8.7741  -13.0719   17.3061 N   0  0  0  0  0  0  0  0  0  0  0  0
    7.4805  -14.1045   18.9843 N   0  0  0  0  0  0  0  0  0  0  0  0
    7.4266  -15.2076   19.9201 C   0  0  0  0  0  0  0  0  0  0  0  0
    7.7424  -14.7616   21.3316 C   0  0  0  0  0  0  0  0  0  0  0  0
    7.6908  -16.0304   22.1932 C   0  0  0  0  0  0  0  0  0  0  0  0
    7.9741  -15.7061   23.6442 C   0  0  2  0  0  0  0  0  0  0  0  0
    7.0000  -14.7430   24.0935 N   0  0  0  0  0  0  0  0  0  0  0  0
    9.3549  -15.1920   23.8197 C   0  0  0  0  0  0  0  0  0  0  0  0
    9.5343  -13.9514   24.0338 O   0  0  0  0  0  0  0  0  0  0  0  0
    7.9752  -12.4604   17.0803 N   0  0  0  0  0  0  0  0  0  0  0  0
    9.8344  -16.7413   28.5678 C   0  0  0  0  0  0  0  0  0  0  0  0
   11.2435  -16.5275   28.4893 O   0  0  0  0  0  0  0  0  0  0  0  0
   11.9343  -16.6857   29.5405 C   0  0  0  0  0  0  0  0  0  0  0  0
   11.8429  -16.1416   27.2037 C   0  0  0  0  0  0  0  0  0  0  0  0
   10.9526  -16.1904   26.0323 C   0  0  1  0  0  0  0  0  0  0  0  0
   11.5542  -15.9318   24.6949 N   0  0  0  0  0  0  0  0  0  0  0  0
   10.4136  -16.1098   23.7404 C   0  0  0  0  0  0  0  0  0  0  0  0
   12.5741  -16.8985   24.3052 O   0  0  0  0  0  0  0  0  0  0  0  0
   13.9125  -16.5520   24.2110 O   0  0  0  0  0  0  0  0  0  0  0  0
  2  1  1  6
  2  3  1  0
  4  5  1  1
  4  2  1  0
  6  4  1  0
  6  7  2  0
  9 11  1  0
  9  8  1  0
 10  9  2  0
 12 11  1  0
 12 13  1  0
 13 14  1  0
 15 14  1  6
 15 17  1  0
 15 16  1  0
 16  6  1  0
 17 25  1  0
 18 17  2  0
 19 20  1  0
 20 22  1  0
 20 21  2  0
 22 23  1  0
 24 23  1  1
 24 26  1  0
 25 24  1  0
 26 28  2  0
 26 27  1  0
M  END
$$$$
