VRQ.pdb
     RDKit          3D

 28 27  0  0  1  0  0  0  0  0999 V2000
    7.2216  -12.5518   19.3803 C   0  0  0  0  0  0  0  0  0  0  0  0
    7.6569  -13.4754   20.5163 C   0  0  2  0  0  0  0  0  0  0  0  0
    8.9110  -12.9280   21.1490 C   0  0  0  0  0  0  0  0  0  0  0  0
    7.9789  -14.8456   19.9213 C   0  0  2  0  0  0  0  0  0  0  0  0
    6.8160  -15.3841   19.2464 N   0  0  0  0  0  0  0  0  0  0  0  0
    8.4300  -15.7422   20.9929 C   0  0  0  0  0  0  0  0  0  0  0  0
    7.5391  -16.2714   21.7323 O   0  0  0  0  0  0  0  0  0  0  0  0
   11.9567  -19.0359   17.5236 N   0  0  0  0  0  0  0  0  0  0  0  0
   11.6043  -20.3068   18.0580 C   0  0  0  0  0  0  0  0  0  0  0  0
   11.0447  -21.1700   17.2811 N   0  0  0  0  0  0  0  0  0  0  0  0
   11.8581  -20.6388   19.4288 N   0  0  0  0  0  0  0  0  0  0  0  0
   12.1509  -19.5342   20.3174 C   0  0  0  0  0  0  0  0  0  0  0  0
   10.8875  -18.8963   20.8543 C   0  0  0  0  0  0  0  0  0  0  0  0
   11.3509  -17.7515   21.7653 C   0  0  0  0  0  0  0  0  0  0  0  0
   10.1691  -16.9411   22.2525 C   0  0  2  0  0  0  0  0  0  0  0  0
    9.7896  -16.0192   21.2112 N   0  0  0  0  0  0  0  0  0  0  0  0
   10.4924  -16.2235   23.5104 C   0  0  0  0  0  0  0  0  0  0  0  0
   11.2343  -15.1917   23.4650 O   0  0  0  0  0  0  0  0  0  0  0  0
   10.8286  -22.1236   17.6083 N   0  0  0  0  0  0  0  0  0  0  0  0
    8.1434  -11.7629   27.8682 C   0  0  0  0  0  0  0  0  0  0  0  0
    8.0853  -12.8759   26.9762 O   0  0  0  0  0  0  0  0  0  0  0  0
    7.1212  -12.9378   26.1553 C   0  0  0  0  0  0  0  0  0  0  0  0
    9.1384  -13.9000   27.0331 C   0  0  0  0  0  0  0  0  0  0  0  0
    9.1702  -14.8605   25.9178 C   0  0  1  0  0  0  0  0  0  0  0  0
   10.2043  -15.9311   25.9562 N   0  0  0  0  0  0  0  0  0  0  0  0
    9.9579  -16.7223   24.7083 C   0  0  0  0  0  0  0  0  0  0  0  0
   10.0567  -16.8601   27.0706 O   0  0  0  0  0  0  0  0  0  0  0  0
   10.5656  -16.5801   28.3287 O   0  0  0  0  0  0  0  0  0  0  0  0
  2  1  1  6
  2  3  1  0
  4  5  1  1
  4  2  1  0
  6  4  1  0
  6  7  2  0
  9 11  1  0
  9  8  1  0
 10  9  2  0
 12 11  1  0
 12 13  1  0
 13 14  1  0
 15 14  1  6
 15 17  1  0
 15 16  1  0
 16  6  1  0
 17 25  1  0
 18 17  2  0
 19 20  1  0
 20 22  1  0
 20 21  2  0
 22 23  1  0
 24 23  1  6
 24 26  1  0
 25 24  1  0
 26 28  2  0
 26 27  1  0
M  END
$$$$
