VRQ.pdb
     RDKit          3D

 28 27  0  0  1  0  0  0  0  0999 V2000
    9.4865  -18.8597   26.5818 C   0  0  0  0  0  0  0  0  0  0  0  0
    8.1241  -18.2585   26.9215 C   0  0  2  0  0  0  0  0  0  0  0  0
    7.5931  -18.9074   28.1744 C   0  0  0  0  0  0  0  0  0  0  0  0
    7.1640  -18.5729   25.7750 C   0  0  2  0  0  0  0  0  0  0  0  0
    7.0706  -20.0048   25.5786 N   0  0  0  0  0  0  0  0  0  0  0  0
    7.6332  -17.9021   24.5561 C   0  0  0  0  0  0  0  0  0  0  0  0
    8.3590  -18.5750   23.7554 O   0  0  0  0  0  0  0  0  0  0  0  0
    7.4500  -15.3252   18.3045 N   0  0  0  0  0  0  0  0  0  0  0  0
    7.7162  -13.9274   18.3021 C   0  0  0  0  0  0  0  0  0  0  0  0
    8.2629  -13.4045   17.2584 N   0  0  0  0  0  0  0  0  0  0  0  0
    7.3905  -13.1017   19.4272 N   0  0  0  0  0  0  0  0  0  0  0  0
    6.8214  -13.7718   20.5772 C   0  0  0  0  0  0  0  0  0  0  0  0
    7.8003  -13.8364   21.7299 C   0  0  0  0  0  0  0  0  0  0  0  0
    7.1085  -14.6648   22.8208 C   0  0  0  0  0  0  0  0  0  0  0  0
    7.8929  -15.9250   23.1166 C   0  0  2  0  0  0  0  0  0  0  0  0
    7.3048  -16.5678   24.2651 N   0  0  0  0  0  0  0  0  0  0  0  0
    9.3270  -15.6226   23.3488 C   0  0  0  0  0  0  0  0  0  0  0  0
    9.6731  -15.0365   24.4230 O   0  0  0  0  0  0  0  0  0  0  0  0
    8.5080  -12.4034   17.2275 N   0  0  0  0  0  0  0  0  0  0  0  0
   11.4001  -19.5486   24.7087 C   0  0  0  0  0  0  0  0  0  0  0  0
   12.1495  -18.5336   25.3763 O   0  0  0  0  0  0  0  0  0  0  0  0
   12.5268  -18.7508   26.5669 C   0  0  0  0  0  0  0  0  0  0  0  0
   12.4622  -17.2849   24.6663 C   0  0  0  0  0  0  0  0  0  0  0  0
   12.0540  -17.2223   23.2533 C   0  0  2  0  0  0  0  0  0  0  0  0
   11.7038  -15.8880   22.6928 N   0  0  0  0  0  0  0  0  0  0  0  0
   10.2478  -16.0019   22.3600 C   0  0  0  0  0  0  0  0  0  0  0  0
   12.3891  -15.5688   21.4458 O   0  0  0  0  0  0  0  0  0  0  0  0
   13.6898  -15.0911   21.4274 O   0  0  0  0  0  0  0  0  0  0  0  0
  2  1  1  6
  2  3  1  0
  4  5  1  6
  4  2  1  0
  6  4  1  0
  6  7  2  0
  9 11  1  0
  9  8  1  0
 10  9  2  0
 12 11  1  0
 12 13  1  0
 13 14  1  0
 15 14  1  1
 15 17  1  0
 15 16  1  0
 16  6  1  0
 17 25  1  0
 18 17  2  0
 19 20  1  0
 20 22  1  0
 20 21  2  0
 22 23  1  0
 24 23  1  1
 24 26  1  0
 25 24  1  0
 26 28  2  0
 26 27  1  0
M  END
$$$$
