VRQ.pdb
     RDKit          3D

 28 27  0  0  1  0  0  0  0  0999 V2000
    6.5599  -13.4269   20.1963 C   0  0  0  0  0  0  0  0  0  0  0  0
    8.0255  -13.0369   20.3781 C   0  0  2  0  0  0  0  0  0  0  0  0
    8.5051  -12.3171   19.1433 C   0  0  0  0  0  0  0  0  0  0  0  0
    8.8445  -14.3175   20.5349 C   0  0  2  0  0  0  0  0  0  0  0  0
    8.7175  -15.1412   19.3505 N   0  0  0  0  0  0  0  0  0  0  0  0
    8.3886  -15.0375   21.7305 C   0  0  0  0  0  0  0  0  0  0  0  0
    8.4410  -14.4229   22.8442 O   0  0  0  0  0  0  0  0  0  0  0  0
    8.0091  -21.1519   25.0247 N   0  0  0  0  0  0  0  0  0  0  0  0
    6.6657  -21.5474   25.2771 C   0  0  0  0  0  0  0  0  0  0  0  0
    6.3778  -22.0602   26.4241 N   0  0  0  0  0  0  0  0  0  0  0  0
    5.6402  -21.3869   24.2891 N   0  0  0  0  0  0  0  0  0  0  0  0
    5.9198  -20.4609   23.2121 C   0  0  0  0  0  0  0  0  0  0  0  0
    6.4915  -19.1575   23.7275 C   0  0  0  0  0  0  0  0  0  0  0  0
    6.7698  -18.3017   22.4845 C   0  0  0  0  0  0  0  0  0  0  0  0
    7.4254  -16.9929   22.8694 C   0  0  2  0  0  0  0  0  0  0  0  0
    7.9087  -16.3562   21.6698 N   0  0  0  0  0  0  0  0  0  0  0  0
    8.5261  -17.2092   23.8408 C   0  0  0  0  0  0  0  0  0  0  0  0
    9.6144  -17.7320   23.4415 O   0  0  0  0  0  0  0  0  0  0  0  0
    5.4163  -22.3539   26.6529 N   0  0  0  0  0  0  0  0  0  0  0  0
    9.3870  -13.0890   28.1743 C   0  0  0  0  0  0  0  0  0  0  0  0
   10.2355  -14.1121   28.6948 O   0  0  0  0  0  0  0  0  0  0  0  0
   10.8802  -13.8734   29.7599 C   0  0  0  0  0  0  0  0  0  0  0  0
   10.3280  -15.3988   27.9899 C   0  0  0  0  0  0  0  0  0  0  0  0
    9.3822  -15.5997   26.8797 C   0  0  1  0  0  0  0  0  0  0  0  0
    9.4895  -16.8635   26.0996 N   0  0  0  0  0  0  0  0  0  0  0  0
    8.3134  -16.8221   25.1728 C   0  0  0  0  0  0  0  0  0  0  0  0
    9.3408  -18.0718   26.9025 O   0  0  0  0  0  0  0  0  0  0  0  0
    8.1644  -18.8042   26.9111 O   0  0  0  0  0  0  0  0  0  0  0  0
  2  1  1  6
  2  3  1  0
  4  5  1  6
  4  2  1  0
  6  4  1  0
  6  7  2  0
  9 11  1  0
  9  8  1  0
 10  9  2  0
 12 11  1  0
 12 13  1  0
 13 14  1  0
 15 14  1  6
 15 17  1  0
 15 16  1  0
 16  6  1  0
 17 25  1  0
 18 17  2  0
 19 20  1  0
 20 22  1  0
 20 21  2  0
 22 23  1  0
 24 23  1  6
 24 26  1  0
 25 24  1  0
 26 28  2  0
 26 27  1  0
M  END
$$$$
