VRQ.pdb
     RDKit          3D

 28 27  0  0  1  0  0  0  0  0999 V2000
    9.3195  -12.5837   20.2344 C   0  0  0  0  0  0  0  0  0  0  0  0
    7.9276  -13.0647   19.8292 C   0  0  2  0  0  0  0  0  0  0  0  0
    7.0327  -13.0753   21.0425 C   0  0  0  0  0  0  0  0  0  0  0  0
    8.0493  -14.4971   19.3109 C   0  0  2  0  0  0  0  0  0  0  0  0
    6.7702  -14.9599   18.8136 N   0  0  0  0  0  0  0  0  0  0  0  0
    8.5394  -15.3607   20.3924 C   0  0  0  0  0  0  0  0  0  0  0  0
    7.6942  -15.7596   21.2567 O   0  0  0  0  0  0  0  0  0  0  0  0
   13.5535  -15.2323   18.0245 N   0  0  0  0  0  0  0  0  0  0  0  0
   14.6507  -14.8453   18.8438 C   0  0  0  0  0  0  0  0  0  0  0  0
   15.4103  -13.8833   18.4450 N   0  0  0  0  0  0  0  0  0  0  0  0
   14.9216  -15.4995   20.0897 N   0  0  0  0  0  0  0  0  0  0  0  0
   13.9596  -16.4913   20.5213 C   0  0  0  0  0  0  0  0  0  0  0  0
   12.6119  -15.8715   20.8226 C   0  0  0  0  0  0  0  0  0  0  0  0
   11.7312  -17.0160   21.3418 C   0  0  0  0  0  0  0  0  0  0  0  0
   10.3245  -16.5292   21.6157 C   0  0  2  0  0  0  0  0  0  0  0  0
    9.8871  -15.7445   20.4883 N   0  0  0  0  0  0  0  0  0  0  0  0
   10.2642  -15.7410   22.8716 C   0  0  0  0  0  0  0  0  0  0  0  0
   10.4838  -14.4891   22.8314 O   0  0  0  0  0  0  0  0  0  0  0  0
   16.2402  -13.5973   18.9859 N   0  0  0  0  0  0  0  0  0  0  0  0
    6.5273  -11.9552   25.6565 C   0  0  0  0  0  0  0  0  0  0  0  0
    6.5158  -13.3807   25.5826 O   0  0  0  0  0  0  0  0  0  0  0  0
    5.4652  -13.9517   25.1615 C   0  0  0  0  0  0  0  0  0  0  0  0
    7.7129  -14.1324   25.9864 C   0  0  0  0  0  0  0  0  0  0  0  0
    8.3778  -14.9105   24.9282 C   0  0  1  0  0  0  0  0  0  0  0  0
    9.6558  -15.5935   25.2711 N   0  0  0  0  0  0  0  0  0  0  0  0
    9.9638  -16.4215   24.0615 C   0  0  0  0  0  0  0  0  0  0  0  0
    9.5518  -16.5210   26.3916 O   0  0  0  0  0  0  0  0  0  0  0  0
    9.5638  -17.8945   26.2078 O   0  0  0  0  0  0  0  0  0  0  0  0
  2  1  1  1
  2  3  1  0
  4  5  1  1
  4  2  1  0
  6  4  1  0
  6  7  2  0
  9 11  1  0
  9  8  1  0
 10  9  2  0
 12 11  1  0
 12 13  1  0
 13 14  1  0
 15 14  1  6
 15 17  1  0
 15 16  1  0
 16  6  1  0
 17 25  1  0
 18 17  2  0
 19 20  1  0
 20 22  1  0
 20 21  2  0
 22 23  1  0
 24 23  1  6
 24 26  1  0
 25 24  1  0
 26 28  2  0
 26 27  1  0
M  END
$$$$
