VRQ.pdb
     RDKit          3D

 28 27  0  0  1  0  0  0  0  0999 V2000
   10.6881  -19.9682   17.4944 C   0  0  0  0  0  0  0  0  0  0  0  0
   11.4120  -20.9749   18.3862 C   0  0  2  0  0  0  0  0  0  0  0  0
   11.1474  -22.3694   17.8781 C   0  0  0  0  0  0  0  0  0  0  0  0
   10.8376  -20.8621   19.7978 C   0  0  2  0  0  0  0  0  0  0  0  0
    9.5016  -21.4195   19.8407 N   0  0  0  0  0  0  0  0  0  0  0  0
   10.8348  -19.4515   20.2054 C   0  0  0  0  0  0  0  0  0  0  0  0
   11.9408  -18.8228   20.1596 O   0  0  0  0  0  0  0  0  0  0  0  0
    8.7677  -12.8389   18.8897 N   0  0  0  0  0  0  0  0  0  0  0  0
    8.1811  -12.3248   20.0799 C   0  0  0  0  0  0  0  0  0  0  0  0
    8.4042  -11.0957   20.3975 N   0  0  0  0  0  0  0  0  0  0  0  0
    7.3563  -13.1412   20.9207 N   0  0  0  0  0  0  0  0  0  0  0  0
    7.3640  -14.5630   20.6488 C   0  0  0  0  0  0  0  0  0  0  0  0
    8.6401  -15.2193   21.1306 C   0  0  0  0  0  0  0  0  0  0  0  0
    8.5120  -16.7038   20.7636 C   0  0  0  0  0  0  0  0  0  0  0  0
    9.7521  -17.4677   21.1753 C   0  0  2  0  0  0  0  0  0  0  0  0
    9.6659  -18.8008   20.6334 N   0  0  0  0  0  0  0  0  0  0  0  0
    9.8979  -17.4988   22.6516 C   0  0  0  0  0  0  0  0  0  0  0  0
    9.0162  -18.0903   23.3515 O   0  0  0  0  0  0  0  0  0  0  0  0
    7.9482  -10.6629   21.2148 N   0  0  0  0  0  0  0  0  0  0  0  0
   12.2395  -21.2989   24.9113 C   0  0  0  0  0  0  0  0  0  0  0  0
   12.4682  -20.4979   26.0705 O   0  0  0  0  0  0  0  0  0  0  0  0
   12.9457  -21.0579   27.1027 C   0  0  0  0  0  0  0  0  0  0  0  0
   12.1525  -19.0628   26.0278 C   0  0  0  0  0  0  0  0  0  0  0  0
   11.6962  -18.5372   24.7306 C   0  0  1  0  0  0  0  0  0  0  0  0
   11.2855  -17.1072   24.6694 N   0  0  0  0  0  0  0  0  0  0  0  0
   11.0164  -16.8661   23.2157 C   0  0  0  0  0  0  0  0  0  0  0  0
   12.3343  -16.1708   25.0565 O   0  0  0  0  0  0  0  0  0  0  0  0
   12.6591  -15.9445   26.3845 O   0  0  0  0  0  0  0  0  0  0  0  0
  2  1  1  6
  2  3  1  0
  4  5  1  6
  4  2  1  0
  6  4  1  0
  6  7  2  0
  9 11  1  0
  9  8  1  0
 10  9  2  0
 12 11  1  0
 12 13  1  0
 13 14  1  0
 15 14  1  1
 15 17  1  0
 15 16  1  0
 16  6  1  0
 17 25  1  0
 18 17  2  0
 19 20  1  0
 20 22  1  0
 20 21  2  0
 22 23  1  0
 24 23  1  1
 24 26  1  0
 25 24  1  0
 26 28  2  0
 26 27  1  0
M  END
$$$$
