VRQ.pdb
     RDKit          3D

 28 27  0  0  1  0  0  0  0  0999 V2000
    8.1451  -12.6584   20.1380 C   0  0  0  0  0  0  0  0  0  0  0  0
    8.8733  -13.7274   19.3257 C   0  0  2  0  0  0  0  0  0  0  0  0
    9.0986  -13.2193   17.9244 C   0  0  0  0  0  0  0  0  0  0  0  0
    7.9767  -14.9625   19.2494 C   0  0  2  0  0  0  0  0  0  0  0  0
    6.7769  -14.6643   18.4948 N   0  0  0  0  0  0  0  0  0  0  0  0
    7.6484  -15.4044   20.6106 C   0  0  0  0  0  0  0  0  0  0  0  0
    6.6965  -14.8084   21.2100 O   0  0  0  0  0  0  0  0  0  0  0  0
    6.2358  -22.6015   23.9821 N   0  0  0  0  0  0  0  0  0  0  0  0
    6.6437  -21.9542   25.1819 C   0  0  0  0  0  0  0  0  0  0  0  0
    5.9695  -22.1685   26.2594 N   0  0  0  0  0  0  0  0  0  0  0  0
    7.7780  -21.0789   25.2116 N   0  0  0  0  0  0  0  0  0  0  0  0
    8.1212  -20.4237   23.9672 C   0  0  0  0  0  0  0  0  0  0  0  0
    7.7572  -18.9545   23.9880 C   0  0  0  0  0  0  0  0  0  0  0  0
    8.1509  -18.4060   22.6099 C   0  0  0  0  0  0  0  0  0  0  0  0
    7.9029  -16.9148   22.5347 C   0  0  2  0  0  0  0  0  0  0  0  0
    8.3464  -16.4444   21.2462 N   0  0  0  0  0  0  0  0  0  0  0  0
    8.5975  -16.1991   23.6335 C   0  0  0  0  0  0  0  0  0  0  0  0
    9.8544  -16.0193   23.5620 O   0  0  0  0  0  0  0  0  0  0  0  0
    6.2740  -21.7843   27.1665 N   0  0  0  0  0  0  0  0  0  0  0  0
    5.7191  -11.2329   25.8925 C   0  0  0  0  0  0  0  0  0  0  0  0
    6.4625  -11.7125   27.0127 O   0  0  0  0  0  0  0  0  0  0  0  0
    6.1234  -11.3220   28.1701 C   0  0  0  0  0  0  0  0  0  0  0  0
    7.5814  -12.6398   26.7908 C   0  0  0  0  0  0  0  0  0  0  0  0
    7.3378  -13.7336   25.8359 C   0  0  1  0  0  0  0  0  0  0  0  0
    8.4352  -14.7152   25.6138 N   0  0  0  0  0  0  0  0  0  0  0  0
    7.8261  -15.7474   24.7153 C   0  0  0  0  0  0  0  0  0  0  0  0
    8.8589  -15.4158   26.8206 O   0  0  0  0  0  0  0  0  0  0  0  0
    8.3077  -16.6317   27.1923 O   0  0  0  0  0  0  0  0  0  0  0  0
  2  1  1  1
  2  3  1  0
  4  5  1  6
  4  2  1  0
  6  4  1  0
  6  7  2  0
  9 11  1  0
  9  8  1  0
 10  9  2  0
 12 11  1  0
 12 13  1  0
 13 14  1  0
 15 14  1  6
 15 17  1  0
 15 16  1  0
 16  6  1  0
 17 25  1  0
 18 17  2  0
 19 20  1  0
 20 22  1  0
 20 21  2  0
 22 23  1  0
 24 23  1  6
 24 26  1  0
 25 24  1  0
 26 28  2  0
 26 27  1  0
M  END
$$$$
