VRQ.pdb
     RDKit          3D

 28 27  0  0  1  0  0  0  0  0999 V2000
    6.6138  -19.8443   21.6326 C   0  0  0  0  0  0  0  0  0  0  0  0
    7.1417  -20.6346   22.8283 C   0  0  2  0  0  0  0  0  0  0  0  0
    6.0931  -21.6220   23.2735 C   0  0  0  0  0  0  0  0  0  0  0  0
    7.3951  -19.6553   23.9738 C   0  0  2  0  0  0  0  0  0  0  0  0
    6.1410  -19.1180   24.4597 N   0  0  0  0  0  0  0  0  0  0  0  0
    8.2824  -18.5838   23.5042 C   0  0  0  0  0  0  0  0  0  0  0  0
    9.4337  -18.9177   23.0756 O   0  0  0  0  0  0  0  0  0  0  0  0
    7.5042  -14.6444   18.3509 N   0  0  0  0  0  0  0  0  0  0  0  0
    7.8261  -13.3943   18.9497 C   0  0  0  0  0  0  0  0  0  0  0  0
    8.4917  -12.5322   18.2602 N   0  0  0  0  0  0  0  0  0  0  0  0
    7.4274  -13.0820   20.2902 N   0  0  0  0  0  0  0  0  0  0  0  0
    6.6002  -14.0611   20.9630 C   0  0  0  0  0  0  0  0  0  0  0  0
    7.3812  -15.3096   21.3128 C   0  0  0  0  0  0  0  0  0  0  0  0
    8.0768  -15.0084   22.6472 C   0  0  0  0  0  0  0  0  0  0  0  0
    8.8435  -16.2175   23.1380 C   0  0  2  0  0  0  0  0  0  0  0  0
    7.8947  -17.2339   23.5187 N   0  0  0  0  0  0  0  0  0  0  0  0
    9.7334  -15.8649   24.2718 C   0  0  0  0  0  0  0  0  0  0  0  0
    9.2727  -15.1685   25.2310 O   0  0  0  0  0  0  0  0  0  0  0  0
    8.6917  -11.5907   18.6300 N   0  0  0  0  0  0  0  0  0  0  0  0
   10.6309  -19.4797   27.9289 C   0  0  0  0  0  0  0  0  0  0  0  0
   11.6646  -18.6343   28.4330 O   0  0  0  0  0  0  0  0  0  0  0  0
   12.1929  -18.9305   29.5467 C   0  0  0  0  0  0  0  0  0  0  0  0
   12.0837  -17.4634   27.6491 C   0  0  0  0  0  0  0  0  0  0  0  0
   11.3747  -17.2467   26.3773 C   0  0  1  0  0  0  0  0  0  0  0  0
   11.8778  -16.1705   25.4795 N   0  0  0  0  0  0  0  0  0  0  0  0
   11.0598  -16.3216   24.2337 C   0  0  0  0  0  0  0  0  0  0  0  0
   13.2713  -16.3320   25.0813 O   0  0  0  0  0  0  0  0  0  0  0  0
   13.6281  -16.6531   23.7813 O   0  0  0  0  0  0  0  0  0  0  0  0
  2  1  1  6
  2  3  1  0
  4  5  1  6
  4  2  1  0
  6  4  1  0
  6  7  2  0
  9 11  1  0
  9  8  1  0
 10  9  2  0
 12 11  1  0
 12 13  1  0
 13 14  1  0
 15 14  1  1
 15 17  1  0
 15 16  1  0
 16  6  1  0
 17 25  1  0
 18 17  2  0
 19 20  1  0
 20 22  1  0
 20 21  2  0
 22 23  1  0
 24 23  1  1
 24 26  1  0
 25 24  1  0
 26 28  2  0
 26 27  1  0
M  END
$$$$
