VRQ.pdb
     RDKit          3D

 28 27  0  0  1  0  0  0  0  0999 V2000
    5.9501  -20.0841   26.7457 C   0  0  0  0  0  0  0  0  0  0  0  0
    7.0653  -21.0363   26.3184 C   0  0  2  0  0  0  0  0  0  0  0  0
    8.3448  -20.6473   27.0145 C   0  0  0  0  0  0  0  0  0  0  0  0
    7.2733  -20.8831   24.8123 C   0  0  2  0  0  0  0  0  0  0  0  0
    8.2686  -21.8262   24.3459 N   0  0  0  0  0  0  0  0  0  0  0  0
    7.6764  -19.5019   24.5198 C   0  0  0  0  0  0  0  0  0  0  0  0
    8.7311  -19.0642   25.0826 O   0  0  0  0  0  0  0  0  0  0  0  0
    8.8724  -14.7669   19.0612 N   0  0  0  0  0  0  0  0  0  0  0  0
    8.1024  -13.6135   19.3800 C   0  0  0  0  0  0  0  0  0  0  0  0
    8.5564  -12.4552   19.0429 N   0  0  0  0  0  0  0  0  0  0  0  0
    6.8460  -13.7173   20.0614 N   0  0  0  0  0  0  0  0  0  0  0  0
    6.4673  -15.0368   20.5210 C   0  0  0  0  0  0  0  0  0  0  0  0
    7.1554  -15.3969   21.8202 C   0  0  0  0  0  0  0  0  0  0  0  0
    6.6870  -16.8177   22.1624 C   0  0  0  0  0  0  0  0  0  0  0  0
    7.3882  -17.3303   23.4018 C   0  0  2  0  0  0  0  0  0  0  0  0
    6.9397  -18.6770   23.6539 N   0  0  0  0  0  0  0  0  0  0  0  0
    7.1262  -16.4521   24.5688 C   0  0  0  0  0  0  0  0  0  0  0  0
    5.9412  -16.3537   25.0197 O   0  0  0  0  0  0  0  0  0  0  0  0
    8.0509  -11.5904   19.2873 N   0  0  0  0  0  0  0  0  0  0  0  0
   11.7050  -15.0804   28.4913 C   0  0  0  0  0  0  0  0  0  0  0  0
   10.6642  -14.2620   29.0248 O   0  0  0  0  0  0  0  0  0  0  0  0
   10.8980  -13.6093   30.0861 C   0  0  0  0  0  0  0  0  0  0  0  0
    9.3706  -14.1978   28.3294 C   0  0  0  0  0  0  0  0  0  0  0  0
    9.2586  -14.9894   27.0932 C   0  0  1  0  0  0  0  0  0  0  0  0
    7.9559  -14.9658   26.3723 N   0  0  0  0  0  0  0  0  0  0  0  0
    8.2116  -15.7612   25.1291 C   0  0  0  0  0  0  0  0  0  0  0  0
    7.5425  -13.6373   25.9355 O   0  0  0  0  0  0  0  0  0  0  0  0
    7.2040  -13.3729   24.6180 O   0  0  0  0  0  0  0  0  0  0  0  0
  2  1  1  1
  2  3  1  0
  4  5  1  1
  4  2  1  0
  6  4  1  0
  6  7  2  0
  9 11  1  0
  9  8  1  0
 10  9  2  0
 12 11  1  0
 12 13  1  0
 13 14  1  0
 15 14  1  6
 15 17  1  0
 15 16  1  0
 16  6  1  0
 17 25  1  0
 18 17  2  0
 19 20  1  0
 20 22  1  0
 20 21  2  0
 22 23  1  0
 24 23  1  1
 24 26  1  0
 25 24  1  0
 26 28  2  0
 26 27  1  0
M  END
$$$$
