TMC.pdb
     RDKit          3D

 22 21  0  0  1  0  0  0  0  0999 V2000
   21.7400  -16.5931  -18.8322 C   0  0  0  0  0  0  0  0  0  0  0  0
   21.9904  -15.2966  -18.0858 C   0  0  1  0  0  0  0  0  0  0  0  0
   20.8202  -14.9060  -17.4669 O   0  0  0  0  0  0  0  0  0  0  0  0
   23.1257  -15.5311  -17.1146 C   0  0  2  0  0  0  0  0  0  0  0  0
   22.7384  -16.5625  -16.1779 N   0  0  0  0  0  0  0  0  0  0  0  0
   23.4070  -14.2468  -16.4114 C   0  0  0  0  0  0  0  0  0  0  0  0
   22.7594  -13.8899  -15.3854 O   0  0  0  0  0  0  0  0  0  0  0  0
   28.9131  -10.8473  -17.2048 C   0  0  0  0  0  0  0  0  0  0  0  0
   28.0307   -9.6933  -16.0862 S   0  0  0  0  0  0  0  0  0  0  0  0
   26.4307  -10.4211  -15.6077 C   0  0  0  0  0  0  0  0  0  0  0  0
   26.1504  -11.6797  -16.3873 C   0  0  0  0  0  0  0  0  0  0  0  0
   24.7694  -12.1337  -16.1448 C   0  0  2  0  0  0  0  0  0  0  0  0
   24.4152  -13.3501  -16.8488 N   0  0  0  0  0  0  0  0  0  0  0  0
   23.7020  -11.1471  -16.3467 C   0  0  0  0  0  0  0  0  0  0  0  0
   23.0782  -10.9320  -17.4175 O   0  0  0  0  0  0  0  0  0  0  0  0
   23.2790  -10.3094  -15.2491 N   0  0  0  0  0  0  0  0  0  0  0  0
   22.3282   -9.2565  -15.4049 C   0  0  1  0  0  0  0  0  0  0  0  0
   21.8353   -8.7026  -14.0829 C   0  0  0  0  0  0  0  0  0  0  0  0
   20.5067   -7.4775  -14.3983 S   0  0  0  0  0  0  0  0  0  0  0  0
   22.7976   -8.1288  -16.2269 C   0  0  0  0  0  0  0  0  0  0  0  0
   22.0113   -7.4326  -17.1171 O   0  0  0  0  0  0  0  0  0  0  0  0
   24.0037   -7.7855  -16.0991 O   0  0  0  0  0  0  0  0  0  0  0  0
  2  1  1  1
  2  4  1  0
  3  2  1  0
  4  6  1  0
  4  5  1  1
  6  7  2  0
  8  9  1  0
  9 10  1  0
 10 11  1  0
 12 11  1  6
 12 14  1  0
 13 12  1  0
 13  6  1  0
 14 15  2  0
 14 16  1  0
 16 17  1  0
 17 20  1  0
 17 18  1  1
 19 18  1  0
 20 22  2  0
 20 21  1  0
M  END
$$$$
