TMC.pdb
     RDKit          3D

 22 21  0  0  1  0  0  0  0  0999 V2000
   22.1992  -10.6695  -21.8502 C   0  0  0  0  0  0  0  0  0  0  0  0
   21.9051   -9.9488  -20.5483 C   0  0  1  0  0  0  0  0  0  0  0  0
   20.9042   -9.0241  -20.7675 O   0  0  0  0  0  0  0  0  0  0  0  0
   21.5361  -10.9889  -19.5144 C   0  0  2  0  0  0  0  0  0  0  0  0
   20.3022  -11.6301  -19.9112 N   0  0  0  0  0  0  0  0  0  0  0  0
   21.3843  -10.3023  -18.1996 C   0  0  0  0  0  0  0  0  0  0  0  0
   20.2638   -9.8838  -17.7888 O   0  0  0  0  0  0  0  0  0  0  0  0
   21.1579   -8.9075  -11.4190 C   0  0  0  0  0  0  0  0  0  0  0  0
   21.4308   -9.7820  -13.0072 S   0  0  0  0  0  0  0  0  0  0  0  0
   23.0487   -9.2998  -13.6920 C   0  0  0  0  0  0  0  0  0  0  0  0
   23.2969   -9.9645  -15.0214 C   0  0  0  0  0  0  0  0  0  0  0  0
   22.3681   -9.4374  -16.0371 C   0  0  2  0  0  0  0  0  0  0  0  0
   22.4839  -10.0775  -17.3323 N   0  0  0  0  0  0  0  0  0  0  0  0
   22.3547   -7.9830  -16.2322 C   0  0  0  0  0  0  0  0  0  0  0  0
   23.0996   -7.3274  -17.0050 O   0  0  0  0  0  0  0  0  0  0  0  0
   21.4189   -7.1665  -15.4953 N   0  0  0  0  0  0  0  0  0  0  0  0
   21.4419   -5.7401  -15.5358 C   0  0  1  0  0  0  0  0  0  0  0  0
   20.1442   -5.1403  -16.0394 C   0  0  0  0  0  0  0  0  0  0  0  0
   20.2370   -3.3120  -15.9214 S   0  0  0  0  0  0  0  0  0  0  0  0
   21.7740   -5.0997  -14.2523 C   0  0  0  0  0  0  0  0  0  0  0  0
   22.6382   -4.0371  -14.1117 O   0  0  0  0  0  0  0  0  0  0  0  0
   21.2240   -5.5639  -13.2175 O   0  0  0  0  0  0  0  0  0  0  0  0
  2  1  1  6
  2  4  1  0
  3  2  1  0
  4  6  1  0
  4  5  1  6
  6  7  2  0
  8  9  1  0
  9 10  1  0
 10 11  1  0
 12 11  1  1
 12 14  1  0
 13 12  1  0
 13  6  1  0
 14 15  2  0
 14 16  1  0
 16 17  1  0
 17 20  1  0
 17 18  1  1
 19 18  1  0
 20 22  2  0
 20 21  1  0
M  END
$$$$
