TMC.pdb
     RDKit          3D

 22 21  0  0  1  0  0  0  0  0999 V2000
   28.0235  -11.4904  -15.3351 C   0  0  0  0  0  0  0  0  0  0  0  0
   26.8675  -10.6083  -15.7669 C   0  0  1  0  0  0  0  0  0  0  0  0
   27.3508   -9.6135  -16.5925 O   0  0  0  0  0  0  0  0  0  0  0  0
   25.8369  -11.4882  -16.4382 C   0  0  2  0  0  0  0  0  0  0  0  0
   26.3838  -11.9916  -17.6785 N   0  0  0  0  0  0  0  0  0  0  0  0
   24.6166  -10.6677  -16.6845 C   0  0  0  0  0  0  0  0  0  0  0  0
   24.4934   -9.9444  -17.7146 O   0  0  0  0  0  0  0  0  0  0  0  0
   19.4106  -13.5489  -18.6287 C   0  0  0  0  0  0  0  0  0  0  0  0
   19.4752  -12.4978  -17.1278 S   0  0  0  0  0  0  0  0  0  0  0  0
   20.9787  -11.4702  -17.1744 C   0  0  0  0  0  0  0  0  0  0  0  0
   21.0771  -10.5939  -15.9525 C   0  0  0  0  0  0  0  0  0  0  0  0
   22.3394   -9.8335  -15.9698 C   0  0  2  0  0  0  0  0  0  0  0  0
   23.5229  -10.6487  -15.7816 N   0  0  0  0  0  0  0  0  0  0  0  0
   22.4248   -8.6700  -15.0794 C   0  0  0  0  0  0  0  0  0  0  0  0
   22.9079   -8.6536  -13.9183 O   0  0  0  0  0  0  0  0  0  0  0  0
   21.9234   -7.3890  -15.5188 N   0  0  0  0  0  0  0  0  0  0  0  0
   21.9892   -6.2162  -14.7081 C   0  0  1  0  0  0  0  0  0  0  0  0
   22.6613   -5.0504  -15.4057 C   0  0  0  0  0  0  0  0  0  0  0  0
   22.7374   -3.6214  -14.2579 S   0  0  0  0  0  0  0  0  0  0  0  0
   20.6875   -5.7551  -14.1977 C   0  0  0  0  0  0  0  0  0  0  0  0
   20.4779   -5.2612  -12.9297 O   0  0  0  0  0  0  0  0  0  0  0  0
   19.7042   -5.8213  -14.9836 O   0  0  0  0  0  0  0  0  0  0  0  0
  2  1  1  6
  2  4  1  0
  3  2  1  0
  4  6  1  0
  4  5  1  6
  6  7  2  0
  8  9  1  0
  9 10  1  0
 10 11  1  0
 12 11  1  1
 12 14  1  0
 13 12  1  0
 13  6  1  0
 14 15  2  0
 14 16  1  0
 16 17  1  0
 17 20  1  0
 17 18  1  6
 19 18  1  0
 20 22  2  0
 20 21  1  0
M  END
$$$$
