TMC.pdb
     RDKit          3D

 22 21  0  0  1  0  0  0  0  0999 V2000
   20.2844  -11.0008  -17.3448 C   0  0  0  0  0  0  0  0  0  0  0  0
   20.4386   -9.9996  -16.2157 C   0  0  1  0  0  0  0  0  0  0  0  0
   20.1102  -10.6166  -15.0256 O   0  0  0  0  0  0  0  0  0  0  0  0
   21.8595   -9.4824  -16.2438 C   0  0  2  0  0  0  0  0  0  0  0  0
   22.7666  -10.5858  -16.0183 N   0  0  0  0  0  0  0  0  0  0  0  0
   21.9978   -8.4487  -15.1783 C   0  0  0  0  0  0  0  0  0  0  0  0
   22.5009   -8.7151  -14.0489 O   0  0  0  0  0  0  0  0  0  0  0  0
   22.8963   -2.7635  -17.5375 C   0  0  0  0  0  0  0  0  0  0  0  0
   21.5445   -2.5224  -16.3225 S   0  0  0  0  0  0  0  0  0  0  0  0
   21.0176   -4.1420  -15.6759 C   0  0  0  0  0  0  0  0  0  0  0  0
   22.0998   -4.7714  -14.8372 C   0  0  0  0  0  0  0  0  0  0  0  0
   21.6603   -6.0873  -14.3402 C   0  0  2  0  0  0  0  0  0  0  0  0
   21.5751   -7.1078  -15.3659 N   0  0  0  0  0  0  0  0  0  0  0  0
   20.4275   -6.1177  -13.5447 C   0  0  0  0  0  0  0  0  0  0  0  0
   19.2724   -6.3773  -13.9692 O   0  0  0  0  0  0  0  0  0  0  0  0
   20.4763   -5.8310  -12.1302 N   0  0  0  0  0  0  0  0  0  0  0  0
   19.3117   -5.8192  -11.3054 C   0  0  1  0  0  0  0  0  0  0  0  0
   19.6252   -6.0062   -9.8343 C   0  0  0  0  0  0  0  0  0  0  0  0
   18.0572   -6.0577   -8.8835 S   0  0  0  0  0  0  0  0  0  0  0  0
   18.4782   -4.6136  -11.4458 C   0  0  0  0  0  0  0  0  0  0  0  0
   17.1131   -4.5847  -11.2687 O   0  0  0  0  0  0  0  0  0  0  0  0
   19.0646   -3.5399  -11.7491 O   0  0  0  0  0  0  0  0  0  0  0  0
  2  1  1  6
  2  4  1  0
  3  2  1  0
  4  6  1  0
  4  5  1  1
  6  7  2  0
  8  9  1  0
  9 10  1  0
 10 11  1  0
 12 11  1  6
 12 14  1  0
 13 12  1  0
 13  6  1  0
 14 15  2  0
 14 16  1  0
 16 17  1  0
 17 20  1  0
 17 18  1  1
 19 18  1  0
 20 22  2  0
 20 21  1  0
M  END
$$$$
