TMC.pdb
     RDKit          3D

 22 21  0  0  1  0  0  0  0  0999 V2000
   17.5279  -12.9923  -19.6698 C   0  0  0  0  0  0  0  0  0  0  0  0
   17.9727  -12.5415  -18.2915 C   0  0  1  0  0  0  0  0  0  0  0  0
   16.8704  -12.4900  -17.4626 O   0  0  0  0  0  0  0  0  0  0  0  0
   19.0344  -13.5038  -17.8079 C   0  0  2  0  0  0  0  0  0  0  0  0
   18.3981  -14.5824  -17.0848 N   0  0  0  0  0  0  0  0  0  0  0  0
   19.9761  -12.7522  -16.9296 C   0  0  0  0  0  0  0  0  0  0  0  0
   19.7652  -12.6082  -15.6909 O   0  0  0  0  0  0  0  0  0  0  0  0
   27.0797  -10.1062  -14.9908 C   0  0  0  0  0  0  0  0  0  0  0  0
   26.1027  -11.0720  -16.2050 S   0  0  0  0  0  0  0  0  0  0  0  0
   24.3264  -10.8146  -15.8926 C   0  0  0  0  0  0  0  0  0  0  0  0
   23.4836  -11.6118  -16.8543 C   0  0  0  0  0  0  0  0  0  0  0  0
   22.0531  -11.3434  -16.6230 C   0  0  2  0  0  0  0  0  0  0  0  0
   21.1621  -12.1550  -17.4281 N   0  0  0  0  0  0  0  0  0  0  0  0
   21.6187   -9.9443  -16.7082 C   0  0  0  0  0  0  0  0  0  0  0  0
   21.4594   -9.2758  -17.7615 O   0  0  0  0  0  0  0  0  0  0  0  0
   21.3295   -9.2056  -15.5015 N   0  0  0  0  0  0  0  0  0  0  0  0
   20.9007   -7.8444  -15.5149 C   0  0  1  0  0  0  0  0  0  0  0  0
   19.9901   -7.4983  -14.3537 C   0  0  0  0  0  0  0  0  0  0  0  0
   18.5313   -8.6104  -14.3767 S   0  0  0  0  0  0  0  0  0  0  0  0
   21.9961   -6.8611  -15.5461 C   0  0  0  0  0  0  0  0  0  0  0  0
   23.3339   -7.1851  -15.5751 O   0  0  0  0  0  0  0  0  0  0  0  0
   21.6761   -5.6419  -15.5460 O   0  0  0  0  0  0  0  0  0  0  0  0
  2  1  1  6
  2  4  1  0
  3  2  1  0
  4  6  1  0
  4  5  1  1
  6  7  2  0
  8  9  1  0
  9 10  1  0
 10 11  1  0
 12 11  1  6
 12 14  1  0
 13 12  1  0
 13  6  1  0
 14 15  2  0
 14 16  1  0
 16 17  1  0
 17 20  1  0
 17 18  1  1
 19 18  1  0
 20 22  2  0
 20 21  1  0
M  END
$$$$
