TMC.pdb
     RDKit          3D

 22 21  0  0  1  0  0  0  0  0999 V2000
   28.6695  -18.5021  -16.3495 C   0  0  0  0  0  0  0  0  0  0  0  0
   27.5034  -19.1405  -15.6191 C   0  0  1  0  0  0  0  0  0  0  0  0
   26.4097  -19.1633  -16.4606 O   0  0  0  0  0  0  0  0  0  0  0  0
   27.9349  -20.5184  -15.1693 C   0  0  2  0  0  0  0  0  0  0  0  0
   28.0626  -21.3736  -16.3283 N   0  0  0  0  0  0  0  0  0  0  0  0
   26.9045  -21.0425  -14.2276 C   0  0  0  0  0  0  0  0  0  0  0  0
   25.9952  -21.8363  -14.6050 O   0  0  0  0  0  0  0  0  0  0  0  0
   26.1795  -19.5228   -7.5914 C   0  0  0  0  0  0  0  0  0  0  0  0
   25.3681  -21.1369   -7.9045 S   0  0  0  0  0  0  0  0  0  0  0  0
   24.9592  -21.2740   -9.6745 C   0  0  0  0  0  0  0  0  0  0  0  0
   26.0945  -20.7826  -10.5350 C   0  0  0  0  0  0  0  0  0  0  0  0
   25.7879  -21.0032  -11.9595 C   0  0  2  0  0  0  0  0  0  0  0  0
   26.8816  -20.6841  -12.8555 N   0  0  0  0  0  0  0  0  0  0  0  0
   24.5618  -20.3851  -12.4774 C   0  0  0  0  0  0  0  0  0  0  0  0
   24.4670  -19.2505  -13.0117 O   0  0  0  0  0  0  0  0  0  0  0  0
   23.3076  -21.0961  -12.3962 N   0  0  0  0  0  0  0  0  0  0  0  0
   22.0951  -20.5863  -12.9503 C   0  0  1  0  0  0  0  0  0  0  0  0
   22.1217  -20.5087  -14.4638 C   0  0  0  0  0  0  0  0  0  0  0  0
   22.4512  -22.1781  -15.1493 S   0  0  0  0  0  0  0  0  0  0  0  0
   20.8855  -21.3248  -12.5514 C   0  0  0  0  0  0  0  0  0  0  0  0
   19.6009  -20.9497  -12.8748 O   0  0  0  0  0  0  0  0  0  0  0  0
   21.0485  -22.3707  -11.8670 O   0  0  0  0  0  0  0  0  0  0  0  0
  2  1  1  6
  2  4  1  0
  3  2  1  0
  4  6  1  0
  4  5  1  6
  6  7  2  0
  8  9  1  0
  9 10  1  0
 10 11  1  0
 12 11  1  1
 12 14  1  0
 13 12  1  0
 13  6  1  0
 14 15  2  0
 14 16  1  0
 16 17  1  0
 17 20  1  0
 17 18  1  6
 19 18  1  0
 20 22  2  0
 20 21  1  0
M  END
$$$$
