TMC.pdb
     RDKit          3D

 22 21  0  0  1  0  0  0  0  0999 V2000
   28.4463  -18.1812  -16.1097 C   0  0  0  0  0  0  0  0  0  0  0  0
   27.3892  -18.9674  -15.3579 C   0  0  1  0  0  0  0  0  0  0  0  0
   26.3235  -19.2016  -16.2030 O   0  0  0  0  0  0  0  0  0  0  0  0
   28.0308  -20.2375  -14.8458 C   0  0  2  0  0  0  0  0  0  0  0  0
   28.2704  -21.1265  -15.9609 N   0  0  0  0  0  0  0  0  0  0  0  0
   27.1052  -20.8579  -13.8552 C   0  0  0  0  0  0  0  0  0  0  0  0
   26.3299  -21.8071  -14.1671 O   0  0  0  0  0  0  0  0  0  0  0  0
   27.1577  -20.5583   -7.1779 C   0  0  0  0  0  0  0  0  0  0  0  0
   25.3769  -20.3814   -7.5766 S   0  0  0  0  0  0  0  0  0  0  0  0
   25.0957  -20.8623   -9.3111 C   0  0  0  0  0  0  0  0  0  0  0  0
   26.2089  -20.3704  -10.1996 C   0  0  0  0  0  0  0  0  0  0  0  0
   25.9870  -20.8120  -11.5880 C   0  0  2  0  0  0  0  0  0  0  0  0
   27.0381  -20.4226  -12.5069 N   0  0  0  0  0  0  0  0  0  0  0  0
   24.6907  -20.4798  -12.1903 C   0  0  0  0  0  0  0  0  0  0  0  0
   24.3825  -19.3938  -12.7449 O   0  0  0  0  0  0  0  0  0  0  0  0
   23.6216  -21.4505  -12.1787 N   0  0  0  0  0  0  0  0  0  0  0  0
   22.3433  -21.1964  -12.7601 C   0  0  1  0  0  0  0  0  0  0  0  0
   22.0075  -22.1466  -13.8923 C   0  0  0  0  0  0  0  0  0  0  0  0
   20.3067  -21.8018  -14.4869 S   0  0  0  0  0  0  0  0  0  0  0  0
   21.2248  -21.2124  -11.8027 C   0  0  0  0  0  0  0  0  0  0  0  0
   19.9930  -20.6424  -12.0333 O   0  0  0  0  0  0  0  0  0  0  0  0
   21.4191  -21.7901  -10.6993 O   0  0  0  0  0  0  0  0  0  0  0  0
  2  1  1  6
  2  4  1  0
  3  2  1  0
  4  6  1  0
  4  5  1  6
  6  7  2  0
  8  9  1  0
  9 10  1  0
 10 11  1  0
 12 11  1  1
 12 14  1  0
 13 12  1  0
 13  6  1  0
 14 15  2  0
 14 16  1  0
 16 17  1  0
 17 20  1  0
 17 18  1  6
 19 18  1  0
 20 22  2  0
 20 21  1  0
M  END
$$$$
