TMC.pdb
     RDKit          3D

 22 21  0  0  1  0  0  0  0  0999 V2000
   27.8059  -19.0135  -15.6867 C   0  0  0  0  0  0  0  0  0  0  0  0
   27.7294  -18.5109  -17.1158 C   0  0  1  0  0  0  0  0  0  0  0  0
   28.5683  -17.4233  -17.2508 O   0  0  0  0  0  0  0  0  0  0  0  0
   28.0927  -19.6580  -18.0320 C   0  0  2  0  0  0  0  0  0  0  0  0
   28.0191  -19.2064  -19.4037 N   0  0  0  0  0  0  0  0  0  0  0  0
   27.1338  -20.7722  -17.7825 C   0  0  0  0  0  0  0  0  0  0  0  0
   26.0752  -20.9083  -18.4609 O   0  0  0  0  0  0  0  0  0  0  0  0
   25.3384  -28.0511  -15.6134 C   0  0  0  0  0  0  0  0  0  0  0  0
   26.6672  -26.8364  -15.9603 S   0  0  0  0  0  0  0  0  0  0  0  0
   25.9454  -25.1676  -16.0739 C   0  0  0  0  0  0  0  0  0  0  0  0
   26.9866  -24.1495  -16.4612 C   0  0  0  0  0  0  0  0  0  0  0  0
   26.4045  -22.7956  -16.4534 C   0  0  2  0  0  0  0  0  0  0  0  0
   27.3499  -21.7442  -16.7725 N   0  0  0  0  0  0  0  0  0  0  0  0
   25.6539  -22.4034  -15.2549 C   0  0  0  0  0  0  0  0  0  0  0  0
   26.1419  -21.9985  -14.1687 O   0  0  0  0  0  0  0  0  0  0  0  0
   24.2112  -22.4651  -15.2569 N   0  0  0  0  0  0  0  0  0  0  0  0
   23.4205  -22.0564  -14.1412 C   0  0  1  0  0  0  0  0  0  0  0  0
   23.5391  -20.5754  -13.8414 C   0  0  0  0  0  0  0  0  0  0  0  0
   21.9143  -19.9415  -13.2726 S   0  0  0  0  0  0  0  0  0  0  0  0
   21.9903  -22.3870  -14.2547 C   0  0  0  0  0  0  0  0  0  0  0  0
   21.1007  -22.3713  -13.2040 O   0  0  0  0  0  0  0  0  0  0  0  0
   21.5613  -22.7049  -15.3965 O   0  0  0  0  0  0  0  0  0  0  0  0
  2  1  1  1
  2  4  1  0
  3  2  1  0
  4  6  1  0
  4  5  1  6
  6  7  2  0
  8  9  1  0
  9 10  1  0
 10 11  1  0
 12 11  1  1
 12 14  1  0
 13 12  1  0
 13  6  1  0
 14 15  2  0
 14 16  1  0
 16 17  1  0
 17 20  1  0
 17 18  1  6
 19 18  1  0
 20 22  2  0
 20 21  1  0
M  END
$$$$
