TMC.pdb
     RDKit          3D

 22 21  0  0  1  0  0  0  0  0999 V2000
   14.5548   -9.5292  -14.1630 C   0  0  0  0  0  0  0  0  0  0  0  0
   14.8317  -10.9599  -13.7419 C   0  0  1  0  0  0  0  0  0  0  0  0
   14.1947  -11.8136  -14.6197 O   0  0  0  0  0  0  0  0  0  0  0  0
   16.3313  -11.1529  -13.7093 C   0  0  2  0  0  0  0  0  0  0  0  0
   16.6212  -12.5418  -13.4304 N   0  0  0  0  0  0  0  0  0  0  0  0
   16.8900  -10.2655  -12.6494 C   0  0  0  0  0  0  0  0  0  0  0  0
   16.6998  -10.4906  -11.4196 O   0  0  0  0  0  0  0  0  0  0  0  0
   21.5080   -5.5709  -13.5254 C   0  0  0  0  0  0  0  0  0  0  0  0
   21.6023   -5.9437  -11.7327 S   0  0  0  0  0  0  0  0  0  0  0  0
   20.0901   -6.8191  -11.2175 C   0  0  0  0  0  0  0  0  0  0  0  0
   19.5452   -7.6688  -12.3363 C   0  0  0  0  0  0  0  0  0  0  0  0
   18.2471   -8.2501  -11.9503 C   0  0  2  0  0  0  0  0  0  0  0  0
   17.6666   -9.1186  -12.9550 N   0  0  0  0  0  0  0  0  0  0  0  0
   17.2150   -7.3168  -11.4841 C   0  0  0  0  0  0  0  0  0  0  0  0
   16.4740   -6.6026  -12.2071 O   0  0  0  0  0  0  0  0  0  0  0  0
   16.9764   -7.1557  -10.0690 N   0  0  0  0  0  0  0  0  0  0  0  0
   15.9565   -6.3019   -9.5515 C   0  0  1  0  0  0  0  0  0  0  0  0
   15.4499   -6.7403   -8.1919 C   0  0  0  0  0  0  0  0  0  0  0  0
   14.7829   -8.4447   -8.3159 S   0  0  0  0  0  0  0  0  0  0  0  0
   16.3380   -4.8827   -9.4617 C   0  0  0  0  0  0  0  0  0  0  0  0
   15.4764   -3.8638   -9.1227 O   0  0  0  0  0  0  0  0  0  0  0  0
   17.5380   -4.5915   -9.7146 O   0  0  0  0  0  0  0  0  0  0  0  0
  2  1  1  6
  2  4  1  0
  3  2  1  0
  4  6  1  0
  4  5  1  1
  6  7  2  0
  8  9  1  0
  9 10  1  0
 10 11  1  0
 12 11  1  6
 12 14  1  0
 13 12  1  0
 13  6  1  0
 14 15  2  0
 14 16  1  0
 16 17  1  0
 17 20  1  0
 17 18  1  1
 19 18  1  0
 20 22  2  0
 20 21  1  0
M  END
$$$$
