TMC.pdb
     RDKit          3D

 22 21  0  0  1  0  0  0  0  0999 V2000
   17.7761  -11.1478  -12.8747 C   0  0  0  0  0  0  0  0  0  0  0  0
   16.3456  -11.5696  -12.5977 C   0  0  1  0  0  0  0  0  0  0  0  0
   16.2287  -12.9254  -12.8275 O   0  0  0  0  0  0  0  0  0  0  0  0
   16.0126  -11.1779  -11.1754 C   0  0  2  0  0  0  0  0  0  0  0  0
   14.7298  -11.7424  -10.8197 N   0  0  0  0  0  0  0  0  0  0  0  0
   15.9826   -9.6891  -11.0995 C   0  0  0  0  0  0  0  0  0  0  0  0
   15.3333   -8.9898  -11.9295 O   0  0  0  0  0  0  0  0  0  0  0  0
   12.1298   -6.8011   -7.2301 C   0  0  0  0  0  0  0  0  0  0  0  0
   13.9326   -6.4675   -7.2458 S   0  0  0  0  0  0  0  0  0  0  0  0
   14.6640   -7.1717   -8.7584 C   0  0  0  0  0  0  0  0  0  0  0  0
   16.1552   -6.9577   -8.7924 C   0  0  0  0  0  0  0  0  0  0  0  0
   16.7239   -7.5216  -10.0295 C   0  0  2  0  0  0  0  0  0  0  0  0
   16.6779   -8.9688  -10.0948 N   0  0  0  0  0  0  0  0  0  0  0  0
   18.0723   -7.0779  -10.4018 C   0  0  0  0  0  0  0  0  0  0  0  0
   19.1570   -7.5511   -9.9760 O   0  0  0  0  0  0  0  0  0  0  0  0
   18.2398   -5.9970  -11.3446 N   0  0  0  0  0  0  0  0  0  0  0  0
   19.5174   -5.5949  -11.8374 C   0  0  1  0  0  0  0  0  0  0  0  0
   20.2748   -6.7222  -12.5103 C   0  0  0  0  0  0  0  0  0  0  0  0
   21.9265   -6.1157  -13.0295 S   0  0  0  0  0  0  0  0  0  0  0  0
   19.4802   -4.4515  -12.7643 C   0  0  0  0  0  0  0  0  0  0  0  0
   20.4640   -3.4932  -12.8600 O   0  0  0  0  0  0  0  0  0  0  0  0
   18.4742   -4.3529  -13.5174 O   0  0  0  0  0  0  0  0  0  0  0  0
  2  1  1  1
  2  4  1  0
  3  2  1  0
  4  6  1  0
  4  5  1  6
  6  7  2  0
  8  9  1  0
  9 10  1  0
 10 11  1  0
 12 11  1  1
 12 14  1  0
 13 12  1  0
 13  6  1  0
 14 15  2  0
 14 16  1  0
 16 17  1  0
 17 20  1  0
 17 18  1  6
 19 18  1  0
 20 22  2  0
 20 21  1  0
M  END
$$$$
