TMC.pdb
     RDKit          3D

 22 21  0  0  1  0  0  0  0  0999 V2000
   22.2225  -12.4393  -16.5669 C   0  0  0  0  0  0  0  0  0  0  0  0
   21.6495  -11.0606  -16.2993 C   0  0  1  0  0  0  0  0  0  0  0  0
   21.9735  -10.2315  -17.3540 O   0  0  0  0  0  0  0  0  0  0  0  0
   20.1581  -11.2084  -16.0970 C   0  0  2  0  0  0  0  0  0  0  0  0
   19.5487  -11.5928  -17.3507 N   0  0  0  0  0  0  0  0  0  0  0  0
   19.6231   -9.9010  -15.6198 C   0  0  0  0  0  0  0  0  0  0  0  0
   19.1350   -9.0474  -16.4151 O   0  0  0  0  0  0  0  0  0  0  0  0
   16.7621  -10.3442  -10.3080 C   0  0  0  0  0  0  0  0  0  0  0  0
   15.7875   -9.6173  -11.6803 S   0  0  0  0  0  0  0  0  0  0  0  0
   16.8957   -9.2466  -13.0780 C   0  0  0  0  0  0  0  0  0  0  0  0
   18.1202   -8.4986  -12.6180 C   0  0  0  0  0  0  0  0  0  0  0  0
   19.0534   -8.3064  -13.7423 C   0  0  2  0  0  0  0  0  0  0  0  0
   19.6290   -9.5362  -14.2492 N   0  0  0  0  0  0  0  0  0  0  0  0
   20.1308   -7.3287  -13.5500 C   0  0  0  0  0  0  0  0  0  0  0  0
   21.2980   -7.5741  -13.1511 O   0  0  0  0  0  0  0  0  0  0  0  0
   19.8931   -5.9317  -13.8281 N   0  0  0  0  0  0  0  0  0  0  0  0
   20.9357   -4.9571  -13.8259 C   0  0  1  0  0  0  0  0  0  0  0  0
   22.0742   -5.3048  -14.7641 C   0  0  0  0  0  0  0  0  0  0  0  0
   23.2831   -3.9251  -14.7855 S   0  0  0  0  0  0  0  0  0  0  0  0
   20.4902   -3.5881  -14.1349 C   0  0  0  0  0  0  0  0  0  0  0  0
   21.0461   -2.4479  -13.5998 O   0  0  0  0  0  0  0  0  0  0  0  0
   19.5336   -3.4629  -14.9461 O   0  0  0  0  0  0  0  0  0  0  0  0
  2  1  1  6
  2  4  1  0
  3  2  1  0
  4  6  1  0
  4  5  1  6
  6  7  2  0
  8  9  1  0
  9 10  1  0
 10 11  1  0
 12 11  1  1
 12 14  1  0
 13 12  1  0
 13  6  1  0
 14 15  2  0
 14 16  1  0
 16 17  1  0
 17 20  1  0
 17 18  1  6
 19 18  1  0
 20 22  2  0
 20 21  1  0
M  END
$$$$
