TMC.pdb
     RDKit          3D

 22 21  0  0  1  0  0  0  0  0999 V2000
   22.9067  -10.2028  -22.2941 C   0  0  0  0  0  0  0  0  0  0  0  0
   22.2238   -9.5650  -21.0993 C   0  0  1  0  0  0  0  0  0  0  0  0
   20.9967   -9.0744  -21.4973 O   0  0  0  0  0  0  0  0  0  0  0  0
   22.1205  -10.6096  -20.0106 C   0  0  2  0  0  0  0  0  0  0  0  0
   21.2480  -11.6720  -20.4587 N   0  0  0  0  0  0  0  0  0  0  0  0
   21.5792   -9.9519  -18.7868 C   0  0  0  0  0  0  0  0  0  0  0  0
   20.3373   -9.7984  -18.6035 O   0  0  0  0  0  0  0  0  0  0  0  0
   23.3786  -13.2951  -13.5937 C   0  0  0  0  0  0  0  0  0  0  0  0
   23.5226  -11.4713  -13.7149 S   0  0  0  0  0  0  0  0  0  0  0  0
   22.5452  -10.8813  -15.1345 C   0  0  0  0  0  0  0  0  0  0  0  0
   22.6999   -9.3941  -15.3214 C   0  0  0  0  0  0  0  0  0  0  0  0
   21.9302   -8.9440  -16.4948 C   0  0  2  0  0  0  0  0  0  0  0  0
   22.4214   -9.4602  -17.7570 N   0  0  0  0  0  0  0  0  0  0  0  0
   21.7136   -7.4990  -16.6313 C   0  0  0  0  0  0  0  0  0  0  0  0
   22.4869   -6.6786  -17.1889 O   0  0  0  0  0  0  0  0  0  0  0  0
   20.5157   -6.8968  -16.0950 N   0  0  0  0  0  0  0  0  0  0  0  0
   20.2235   -5.5067  -16.2328 C   0  0  1  0  0  0  0  0  0  0  0  0
   19.3831   -5.1960  -17.4554 C   0  0  0  0  0  0  0  0  0  0  0  0
   18.8925   -3.4287  -17.4187 S   0  0  0  0  0  0  0  0  0  0  0  0
   19.5671   -4.9033  -15.0611 C   0  0  0  0  0  0  0  0  0  0  0  0
   19.5059   -3.5505  -14.8125 O   0  0  0  0  0  0  0  0  0  0  0  0
   19.0274   -5.6880  -14.2354 O   0  0  0  0  0  0  0  0  0  0  0  0
  2  1  1  6
  2  4  1  0
  3  2  1  0
  4  6  1  0
  4  5  1  6
  6  7  2  0
  8  9  1  0
  9 10  1  0
 10 11  1  0
 12 11  1  1
 12 14  1  0
 13 12  1  0
 13  6  1  0
 14 15  2  0
 14 16  1  0
 16 17  1  0
 17 20  1  0
 17 18  1  6
 19 18  1  0
 20 22  2  0
 20 21  1  0
M  END
$$$$
