TMC.pdb
     RDKit          3D

 22 21  0  0  1  0  0  0  0  0999 V2000
   16.4971  -12.1445  -17.5232 C   0  0  0  0  0  0  0  0  0  0  0  0
   17.4290  -11.1063  -16.9277 C   0  0  1  0  0  0  0  0  0  0  0  0
   16.8520  -10.5944  -15.7832 O   0  0  0  0  0  0  0  0  0  0  0  0
   18.7635  -11.7709  -16.6734 C   0  0  2  0  0  0  0  0  0  0  0  0
   18.5986  -12.7833  -15.6542 N   0  0  0  0  0  0  0  0  0  0  0  0
   19.7280  -10.7216  -16.2353 C   0  0  0  0  0  0  0  0  0  0  0  0
   19.8930  -10.4320  -15.0153 O   0  0  0  0  0  0  0  0  0  0  0  0
   26.1636   -6.3997  -17.7884 C   0  0  0  0  0  0  0  0  0  0  0  0
   24.8958   -7.5172  -18.4993 S   0  0  0  0  0  0  0  0  0  0  0  0
   23.5974   -7.8242  -17.2588 C   0  0  0  0  0  0  0  0  0  0  0  0
   22.5635   -8.7884  -17.7804 C   0  0  0  0  0  0  0  0  0  0  0  0
   21.5229   -9.0210  -16.7630 C   0  0  2  0  0  0  0  0  0  0  0  0
   20.5167   -9.9869  -17.1572 N   0  0  0  0  0  0  0  0  0  0  0  0
   20.8484   -7.8355  -16.2214 C   0  0  0  0  0  0  0  0  0  0  0  0
   19.7584   -7.3506  -16.6198 O   0  0  0  0  0  0  0  0  0  0  0  0
   21.4411   -7.1090  -15.1232 N   0  0  0  0  0  0  0  0  0  0  0  0
   20.8191   -5.9715  -14.5263 C   0  0  1  0  0  0  0  0  0  0  0  0
   19.6029   -6.3289  -13.6955 C   0  0  0  0  0  0  0  0  0  0  0  0
   20.1089   -7.4482  -12.3330 S   0  0  0  0  0  0  0  0  0  0  0  0
   21.7169   -5.1530  -13.6946 C   0  0  0  0  0  0  0  0  0  0  0  0
   21.3316   -4.0201  -13.0136 O   0  0  0  0  0  0  0  0  0  0  0  0
   22.9184   -5.5237  -13.6068 O   0  0  0  0  0  0  0  0  0  0  0  0
  2  1  1  1
  2  4  1  0
  3  2  1  0
  4  6  1  0
  4  5  1  1
  6  7  2  0
  8  9  1  0
  9 10  1  0
 10 11  1  0
 12 11  1  6
 12 14  1  0
 13 12  1  0
 13  6  1  0
 14 15  2  0
 14 16  1  0
 16 17  1  0
 17 20  1  0
 17 18  1  1
 19 18  1  0
 20 22  2  0
 20 21  1  0
M  END
$$$$
