TMC.pdb
     RDKit          3D

 22 21  0  0  1  0  0  0  0  0999 V2000
   16.4770  -10.9127  -17.6419 C   0  0  0  0  0  0  0  0  0  0  0  0
   16.2364  -11.9061  -16.5212 C   0  0  1  0  0  0  0  0  0  0  0  0
   15.3871  -12.8941  -16.9766 O   0  0  0  0  0  0  0  0  0  0  0  0
   17.5801  -12.4379  -16.0751 C   0  0  2  0  0  0  0  0  0  0  0  0
   17.3714  -13.4989  -15.1151 N   0  0  0  0  0  0  0  0  0  0  0  0
   18.3470  -11.3113  -15.4703 C   0  0  0  0  0  0  0  0  0  0  0  0
   17.9368  -10.6981  -14.4430 O   0  0  0  0  0  0  0  0  0  0  0  0
   24.7055  -10.8320  -14.7637 C   0  0  0  0  0  0  0  0  0  0  0  0
   24.3334   -9.0440  -14.9253 S   0  0  0  0  0  0  0  0  0  0  0  0
   22.5286   -8.7979  -14.9001 C   0  0  0  0  0  0  0  0  0  0  0  0
   21.8075  -10.0018  -15.4491 C   0  0  0  0  0  0  0  0  0  0  0  0
   20.3519   -9.7711  -15.4447 C   0  0  2  0  0  0  0  0  0  0  0  0
   19.5794  -10.8603  -16.0083 N   0  0  0  0  0  0  0  0  0  0  0  0
   19.8787   -8.5100  -16.0270 C   0  0  0  0  0  0  0  0  0  0  0  0
   19.6999   -8.2738  -17.2493 O   0  0  0  0  0  0  0  0  0  0  0  0
   19.5701   -7.3913  -15.1675 N   0  0  0  0  0  0  0  0  0  0  0  0
   19.1030   -6.1395  -15.6692 C   0  0  1  0  0  0  0  0  0  0  0  0
   17.7072   -5.7928  -15.1907 C   0  0  0  0  0  0  0  0  0  0  0  0
   17.3193   -4.0624  -15.6603 S   0  0  0  0  0  0  0  0  0  0  0  0
   19.9845   -4.9979  -15.3738 C   0  0  0  0  0  0  0  0  0  0  0  0
   19.9004   -3.7686  -15.9881 O   0  0  0  0  0  0  0  0  0  0  0  0
   20.8737   -5.1684  -14.4968 O   0  0  0  0  0  0  0  0  0  0  0  0
  2  1  1  6
  2  4  1  0
  3  2  1  0
  4  6  1  0
  4  5  1  1
  6  7  2  0
  8  9  1  0
  9 10  1  0
 10 11  1  0
 12 11  1  6
 12 14  1  0
 13 12  1  0
 13  6  1  0
 14 15  2  0
 14 16  1  0
 16 17  1  0
 17 20  1  0
 17 18  1  1
 19 18  1  0
 20 22  2  0
 20 21  1  0
M  END
$$$$
