VDP.pdb
     RDKit          3D

 23 23  0  0  1  0  0  0  0  0999 V2000
    7.2496  -12.6394   19.9987 C   0  0  0  0  0  0  0  0  0  0  0  0
    8.6650  -13.1939   19.9098 C   0  0  2  0  0  0  0  0  0  0  0  0
    9.2239  -12.7667   18.5704 C   0  0  0  0  0  0  0  0  0  0  0  0
    8.5549  -14.7020   19.9863 C   0  0  2  0  0  0  0  0  0  0  0  0
    7.9248  -15.2651   18.8283 N   0  0  0  0  0  0  0  0  0  0  0  0
    7.8547  -15.1266   21.2383 C   0  0  0  0  0  0  0  0  0  0  0  0
    6.6500  -15.4804   21.2523 O   0  0  0  0  0  0  0  0  0  0  0  0
    8.5299  -15.1542   22.5141 N   0  0  0  0  0  0  0  0  0  0  0  0
    7.8575  -15.4964   23.7269 C   0  0  1  0  0  0  0  0  0  0  0  0
    8.0089  -16.9739   24.0692 C   0  0  0  0  0  0  0  0  0  0  0  0
    9.4076  -17.4096   24.0416 C   0  0  0  0  0  0  0  0  0  0  0  0
   10.1518  -17.2958   23.0376 O   0  0  0  0  0  0  0  0  0  0  0  0
    8.4101  -14.7523   24.8697 C   0  0  0  0  0  0  0  0  0  0  0  0
    9.7146  -14.8428   24.9191 O   0  0  0  0  0  0  0  0  0  0  0  0
    9.9561  -17.9819   25.1803 O   0  0  0  0  0  0  0  0  0  0  0  0
    7.7333  -14.0061   25.8492 N   0  0  0  0  0  0  0  0  0  0  0  0
    6.3289  -13.8995   26.0874 C   0  0  0  0  0  0  0  0  0  0  0  0
    6.1967  -13.1016   27.4015 C   0  0  0  0  0  0  0  0  0  0  0  0
    7.4172  -12.1740   27.2388 C   0  0  0  0  0  0  0  0  0  0  0  0
    8.4313  -13.2044   26.8290 C   0  0  1  0  0  0  0  0  0  0  0  0
    8.7660  -14.0146   28.0333 C   0  0  0  0  0  0  0  0  0  0  0  0
    9.5089  -13.5290   29.0856 O   0  0  0  0  0  0  0  0  0  0  0  0
    8.3506  -15.1827   28.0814 O   0  0  0  0  0  0  0  0  0  0  0  0
  2  3  1  6
  2  1  1  0
  4  5  1  6
  4  2  1  0
  6  4  1  0
  7  6  2  0
  8  6  1  0
  9  8  1  0
  9 10  1  1
 10 11  1  0
 11 12  2  0
 13  9  1  0
 13 14  2  0
 15 11  1  0
 16 13  1  0
 17 16  1  0
 18 17  1  0
 19 20  1  0
 19 18  1  0
 20 16  1  0
 21 22  1  0
 20 21  1  1
 23 21  2  0
M  END
$$$$
