VDP.pdb
     RDKit          3D

 23 23  0  0  1  0  0  0  0  0999 V2000
    7.7374  -19.1388   28.9390 C   0  0  0  0  0  0  0  0  0  0  0  0
    8.0037  -18.6531   27.5205 C   0  0  2  0  0  0  0  0  0  0  0  0
    7.2078  -17.3803   27.3322 C   0  0  0  0  0  0  0  0  0  0  0  0
    7.5109  -19.7349   26.5827 C   0  0  2  0  0  0  0  0  0  0  0  0
    8.0988  -21.0121   26.8622 N   0  0  0  0  0  0  0  0  0  0  0  0
    7.7257  -19.3460   25.1542 C   0  0  0  0  0  0  0  0  0  0  0  0
    8.8628  -19.0905   24.6867 O   0  0  0  0  0  0  0  0  0  0  0  0
    6.6280  -19.2411   24.2223 N   0  0  0  0  0  0  0  0  0  0  0  0
    6.7907  -18.7077   22.9074 C   0  0  1  0  0  0  0  0  0  0  0  0
    5.7139  -19.2044   21.9498 C   0  0  0  0  0  0  0  0  0  0  0  0
    5.9133  -20.6051   21.5686 C   0  0  0  0  0  0  0  0  0  0  0  0
    7.0247  -21.0842   21.2370 O   0  0  0  0  0  0  0  0  0  0  0  0
    6.6890  -17.2398   22.9124 C   0  0  0  0  0  0  0  0  0  0  0  0
    5.6174  -16.8325   23.5435 O   0  0  0  0  0  0  0  0  0  0  0  0
    4.8233  -21.4635   21.5688 O   0  0  0  0  0  0  0  0  0  0  0  0
    7.5593  -16.2914   22.3491 N   0  0  0  0  0  0  0  0  0  0  0  0
    8.8170  -16.4970   21.7036 C   0  0  0  0  0  0  0  0  0  0  0  0
    9.2099  -15.1209   21.1266 C   0  0  0  0  0  0  0  0  0  0  0  0
    8.6045  -14.2227   22.2236 C   0  0  0  0  0  0  0  0  0  0  0  0
    7.2566  -14.8779   22.3339 C   0  0  1  0  0  0  0  0  0  0  0  0
    6.4767  -14.5175   21.1171 C   0  0  0  0  0  0  0  0  0  0  0  0
    6.2341  -15.4000   20.0888 O   0  0  0  0  0  0  0  0  0  0  0  0
    6.0280  -13.3637   21.0353 O   0  0  0  0  0  0  0  0  0  0  0  0
  2  3  1  6
  2  1  1  0
  4  5  1  1
  4  2  1  0
  6  4  1  0
  7  6  2  0
  8  6  1  0
  9  8  1  0
  9 10  1  6
 10 11  1  0
 11 12  2  0
 13  9  1  0
 13 14  2  0
 15 11  1  0
 16 13  1  0
 17 16  1  0
 18 17  1  0
 19 20  1  0
 19 18  1  0
 20 16  1  0
 21 22  1  0
 20 21  1  6
 23 21  2  0
M  END
$$$$
