VDP.pdb
     RDKit          3D

 23 23  0  0  1  0  0  0  0  0999 V2000
    8.3324  -12.9334   18.4906 C   0  0  0  0  0  0  0  0  0  0  0  0
    7.8426  -13.3233   19.8788 C   0  0  2  0  0  0  0  0  0  0  0  0
    8.5923  -12.4611   20.8704 C   0  0  0  0  0  0  0  0  0  0  0  0
    8.1861  -14.7848   20.0748 C   0  0  2  0  0  0  0  0  0  0  0  0
    7.5809  -15.6276   19.0856 N   0  0  0  0  0  0  0  0  0  0  0  0
    7.8329  -15.2389   21.4558 C   0  0  0  0  0  0  0  0  0  0  0  0
    6.6451  -15.3696   21.8414 O   0  0  0  0  0  0  0  0  0  0  0  0
    8.8467  -15.5560   22.4335 N   0  0  0  0  0  0  0  0  0  0  0  0
    8.5239  -15.9653   23.7633 C   0  0  1  0  0  0  0  0  0  0  0  0
    9.2434  -17.2496   24.1585 C   0  0  0  0  0  0  0  0  0  0  0  0
    8.8604  -18.3833   23.3129 C   0  0  0  0  0  0  0  0  0  0  0  0
    9.6808  -19.0713   22.6584 O   0  0  0  0  0  0  0  0  0  0  0  0
    8.9305  -14.9488   24.7463 C   0  0  0  0  0  0  0  0  0  0  0  0
   10.2254  -14.7601   24.7378 O   0  0  0  0  0  0  0  0  0  0  0  0
    7.5201  -18.7293   23.2192 O   0  0  0  0  0  0  0  0  0  0  0  0
    8.1321  -14.2093   25.6350 N   0  0  0  0  0  0  0  0  0  0  0  0
    6.7115  -14.2155   25.7854 C   0  0  0  0  0  0  0  0  0  0  0  0
    6.4291  -13.3555   27.0350 C   0  0  0  0  0  0  0  0  0  0  0  0
    7.5728  -12.3332   26.8820 C   0  0  0  0  0  0  0  0  0  0  0  0
    8.6957  -13.2908   26.5987 C   0  0  1  0  0  0  0  0  0  0  0  0
    9.0231  -13.9940   27.8703 C   0  0  0  0  0  0  0  0  0  0  0  0
    9.7034  -13.3975   28.9077 O   0  0  0  0  0  0  0  0  0  0  0  0
    8.6609  -15.1745   27.9912 O   0  0  0  0  0  0  0  0  0  0  0  0
  2  3  1  1
  2  1  1  0
  4  5  1  6
  4  2  1  0
  6  4  1  0
  7  6  2  0
  8  6  1  0
  9  8  1  0
  9 10  1  1
 10 11  1  0
 11 12  2  0
 13  9  1  0
 13 14  2  0
 15 11  1  0
 16 13  1  0
 17 16  1  0
 18 17  1  0
 19 20  1  0
 19 18  1  0
 20 16  1  0
 21 22  1  0
 20 21  1  1
 23 21  2  0
M  END
$$$$
