VDP.pdb
     RDKit          3D

 23 23  0  0  1  0  0  0  0  0999 V2000
    6.7488  -14.2079   19.3354 C   0  0  0  0  0  0  0  0  0  0  0  0
    7.7088  -13.0717   19.6615 C   0  0  2  0  0  0  0  0  0  0  0  0
    8.3926  -12.6856   18.3683 C   0  0  0  0  0  0  0  0  0  0  0  0
    8.7138  -13.6134   20.6560 C   0  0  2  0  0  0  0  0  0  0  0  0
    9.4696  -14.7115   20.1287 N   0  0  0  0  0  0  0  0  0  0  0  0
    8.0479  -13.9886   21.9421 C   0  0  0  0  0  0  0  0  0  0  0  0
    7.3265  -13.1892   22.5881 O   0  0  0  0  0  0  0  0  0  0  0  0
    8.1976  -15.3032   22.5197 N   0  0  0  0  0  0  0  0  0  0  0  0
    7.5936  -15.6647   23.7625 C   0  0  1  0  0  0  0  0  0  0  0  0
    7.5338  -17.1758   23.9527 C   0  0  0  0  0  0  0  0  0  0  0  0
    6.9398  -17.5504   25.2387 C   0  0  0  0  0  0  0  0  0  0  0  0
    5.7714  -17.2456   25.5803 O   0  0  0  0  0  0  0  0  0  0  0  0
    8.3633  -15.1388   24.9009 C   0  0  0  0  0  0  0  0  0  0  0  0
    9.6139  -15.5211   24.8557 O   0  0  0  0  0  0  0  0  0  0  0  0
    7.6973  -18.2831   26.1411 O   0  0  0  0  0  0  0  0  0  0  0  0
    7.9290  -14.3257   25.9614 N   0  0  0  0  0  0  0  0  0  0  0  0
    6.5997  -13.9341   26.3080 C   0  0  0  0  0  0  0  0  0  0  0  0
    6.7278  -13.2083   27.6637 C   0  0  0  0  0  0  0  0  0  0  0  0
    8.1093  -12.5570   27.4536 C   0  0  0  0  0  0  0  0  0  0  0  0
    8.8455  -13.7545   26.9225 C   0  0  1  0  0  0  0  0  0  0  0  0
    9.0693  -14.6899   28.0599 C   0  0  0  0  0  0  0  0  0  0  0  0
    9.9679  -14.4429   29.0731 O   0  0  0  0  0  0  0  0  0  0  0  0
    8.4090  -15.7400   28.0871 O   0  0  0  0  0  0  0  0  0  0  0  0
  2  3  1  6
  2  1  1  0
  4  5  1  6
  4  2  1  0
  6  4  1  0
  7  6  2  0
  8  6  1  0
  9  8  1  0
  9 10  1  1
 10 11  1  0
 11 12  2  0
 13  9  1  0
 13 14  2  0
 15 11  1  0
 16 13  1  0
 17 16  1  0
 18 17  1  0
 19 20  1  0
 19 18  1  0
 20 16  1  0
 21 22  1  0
 20 21  1  1
 23 21  2  0
M  END
$$$$
