VDP.pdb
     RDKit          3D

 23 23  0  0  1  0  0  0  0  0999 V2000
    7.3068  -12.6810   20.0711 C   0  0  0  0  0  0  0  0  0  0  0  0
    8.5627  -13.5385   19.9907 C   0  0  2  0  0  0  0  0  0  0  0  0
    9.2073  -13.2541   18.6518 C   0  0  0  0  0  0  0  0  0  0  0  0
    8.1178  -14.9834   20.0732 C   0  0  2  0  0  0  0  0  0  0  0  0
    7.2789  -15.3622   18.9742 N   0  0  0  0  0  0  0  0  0  0  0  0
    7.4489  -15.2654   21.3813 C   0  0  0  0  0  0  0  0  0  0  0  0
    6.2027  -15.3702   21.4947 O   0  0  0  0  0  0  0  0  0  0  0  0
    8.2045  -15.4351   22.5998 N   0  0  0  0  0  0  0  0  0  0  0  0
    7.5907  -15.8128   23.8328 C   0  0  1  0  0  0  0  0  0  0  0  0
    7.7154  -17.3080   24.1011 C   0  0  0  0  0  0  0  0  0  0  0  0
    7.1183  -17.6939   25.3823 C   0  0  0  0  0  0  0  0  0  0  0  0
    6.3769  -16.9408   26.0590 O   0  0  0  0  0  0  0  0  0  0  0  0
    8.2289  -15.1373   24.9737 C   0  0  0  0  0  0  0  0  0  0  0  0
    9.4859  -15.4799   25.0957 O   0  0  0  0  0  0  0  0  0  0  0  0
    7.3765  -18.9589   25.8904 O   0  0  0  0  0  0  0  0  0  0  0  0
    7.6712  -14.2260   25.8862 N   0  0  0  0  0  0  0  0  0  0  0  0
    6.3084  -13.8255   26.0377 C   0  0  0  0  0  0  0  0  0  0  0  0
    6.2765  -12.9594   27.3144 C   0  0  0  0  0  0  0  0  0  0  0  0
    7.6683  -12.3077   27.1930 C   0  0  0  0  0  0  0  0  0  0  0  0
    8.4684  -13.5401   26.8781 C   0  0  1  0  0  0  0  0  0  0  0  0
    8.5678  -14.3468   28.1264 C   0  0  0  0  0  0  0  0  0  0  0  0
    8.0008  -15.5935   28.2649 O   0  0  0  0  0  0  0  0  0  0  0  0
    9.1941  -13.8635   29.0822 O   0  0  0  0  0  0  0  0  0  0  0  0
  2  3  1  6
  2  1  1  0
  4  5  1  6
  4  2  1  0
  6  4  1  0
  7  6  2  0
  8  6  1  0
  9  8  1  0
  9 10  1  1
 10 11  1  0
 11 12  2  0
 13  9  1  0
 13 14  2  0
 15 11  1  0
 16 13  1  0
 17 16  1  0
 18 17  1  0
 19 20  1  0
 19 18  1  0
 20 16  1  0
 21 22  1  0
 20 21  1  1
 23 21  2  0
M  END
$$$$
