VDP.pdb
     RDKit          3D

 23 23  0  0  1  0  0  0  0  0999 V2000
    7.2960  -12.5641   19.9534 C   0  0  0  0  0  0  0  0  0  0  0  0
    8.6473  -13.2605   19.8639 C   0  0  2  0  0  0  0  0  0  0  0  0
    9.2396  -12.9051   18.5179 C   0  0  0  0  0  0  0  0  0  0  0  0
    8.3849  -14.7489   19.9559 C   0  0  2  0  0  0  0  0  0  0  0  0
    7.5040  -15.2148   18.9254 N   0  0  0  0  0  0  0  0  0  0  0  0
    7.8706  -15.1208   21.3106 C   0  0  0  0  0  0  0  0  0  0  0  0
    6.6478  -15.2765   21.5501 O   0  0  0  0  0  0  0  0  0  0  0  0
    8.7585  -15.3239   22.4307 N   0  0  0  0  0  0  0  0  0  0  0  0
    8.2918  -15.7733   23.7035 C   0  0  1  0  0  0  0  0  0  0  0  0
    8.7894  -17.1756   24.0342 C   0  0  0  0  0  0  0  0  0  0  0  0
    8.0738  -18.2101   23.2828 C   0  0  0  0  0  0  0  0  0  0  0  0
    8.2134  -18.3960   22.0496 O   0  0  0  0  0  0  0  0  0  0  0  0
    8.7753  -14.9013   24.7856 C   0  0  0  0  0  0  0  0  0  0  0  0
   10.0818  -14.8279   24.7989 O   0  0  0  0  0  0  0  0  0  0  0  0
    7.1888  -19.0394   23.9564 O   0  0  0  0  0  0  0  0  0  0  0  0
    8.0352  -14.1877   25.7433 N   0  0  0  0  0  0  0  0  0  0  0  0
    6.6209  -14.1494   25.9408 C   0  0  0  0  0  0  0  0  0  0  0  0
    6.4123  -13.3571   27.2484 C   0  0  0  0  0  0  0  0  0  0  0  0
    7.5904  -12.3713   27.1182 C   0  0  0  0  0  0  0  0  0  0  0  0
    8.6648  -13.3516   26.7405 C   0  0  1  0  0  0  0  0  0  0  0  0
    9.0037  -14.1430   27.9561 C   0  0  0  0  0  0  0  0  0  0  0  0
    9.7480  -13.6402   28.9993 O   0  0  0  0  0  0  0  0  0  0  0  0
    8.5908  -15.3110   28.0227 O   0  0  0  0  0  0  0  0  0  0  0  0
  2  3  1  6
  2  1  1  0
  4  5  1  6
  4  2  1  0
  6  4  1  0
  7  6  2  0
  8  6  1  0
  9  8  1  0
  9 10  1  1
 10 11  1  0
 11 12  2  0
 13  9  1  0
 13 14  2  0
 15 11  1  0
 16 13  1  0
 17 16  1  0
 18 17  1  0
 19 20  1  0
 19 18  1  0
 20 16  1  0
 21 22  1  0
 20 21  1  1
 23 21  2  0
M  END
$$$$
