VDP.pdb
     RDKit          3D

 23 23  0  0  1  0  0  0  0  0999 V2000
    7.1481  -12.6719   20.0609 C   0  0  0  0  0  0  0  0  0  0  0  0
    8.5478  -13.2665   19.9828 C   0  0  2  0  0  0  0  0  0  0  0  0
    9.0993  -12.9213   18.6169 C   0  0  0  0  0  0  0  0  0  0  0  0
    8.4008  -14.7656   20.1363 C   0  0  2  0  0  0  0  0  0  0  0  0
    7.7081  -15.3642   19.0332 N   0  0  0  0  0  0  0  0  0  0  0  0
    7.7424  -15.1105   21.4346 C   0  0  0  0  0  0  0  0  0  0  0  0
    6.4952  -15.1152   21.5799 O   0  0  0  0  0  0  0  0  0  0  0  0
    8.5102  -15.4612   22.6059 N   0  0  0  0  0  0  0  0  0  0  0  0
    7.8997  -15.7104   23.8729 C   0  0  1  0  0  0  0  0  0  0  0  0
    8.1057  -17.1479   24.3357 C   0  0  0  0  0  0  0  0  0  0  0  0
    7.3713  -18.1083   23.5079 C   0  0  0  0  0  0  0  0  0  0  0  0
    6.1474  -18.0101   23.2487 O   0  0  0  0  0  0  0  0  0  0  0  0
    8.4801  -14.8555   24.9205 C   0  0  0  0  0  0  0  0  0  0  0  0
    9.7824  -14.9724   24.9720 O   0  0  0  0  0  0  0  0  0  0  0  0
    8.0515  -19.1927   22.9726 O   0  0  0  0  0  0  0  0  0  0  0  0
    7.8302  -13.9864   25.8129 N   0  0  0  0  0  0  0  0  0  0  0  0
    6.4469  -13.6364   25.8802 C   0  0  0  0  0  0  0  0  0  0  0  0
    6.2984  -12.8034   27.1706 C   0  0  0  0  0  0  0  0  0  0  0  0
    7.6711  -12.1018   27.1585 C   0  0  0  0  0  0  0  0  0  0  0  0
    8.5340  -13.2981   26.8716 C   0  0  1  0  0  0  0  0  0  0  0  0
    8.5781  -14.1313   28.1056 C   0  0  0  0  0  0  0  0  0  0  0  0
    7.9919  -15.3734   28.1974 O   0  0  0  0  0  0  0  0  0  0  0  0
    9.1744  -13.6753   29.0935 O   0  0  0  0  0  0  0  0  0  0  0  0
  2  3  1  6
  2  1  1  0
  4  5  1  6
  4  2  1  0
  6  4  1  0
  7  6  2  0
  8  6  1  0
  9  8  1  0
  9 10  1  1
 10 11  1  0
 11 12  2  0
 13  9  1  0
 13 14  2  0
 15 11  1  0
 16 13  1  0
 17 16  1  0
 18 17  1  0
 19 20  1  0
 19 18  1  0
 20 16  1  0
 21 22  1  0
 20 21  1  1
 23 21  2  0
M  END
$$$$
