VDP.pdb
     RDKit          3D

 23 23  0  0  1  0  0  0  0  0999 V2000
    6.0435  -10.8346   26.7369 C   0  0  0  0  0  0  0  0  0  0  0  0
    6.8915  -12.0451   26.3701 C   0  0  2  0  0  0  0  0  0  0  0  0
    7.9527  -11.5653   25.4045 C   0  0  0  0  0  0  0  0  0  0  0  0
    5.9711  -13.0431   25.6996 C   0  0  2  0  0  0  0  0  0  0  0  0
    4.8534  -13.3979   26.5242 N   0  0  0  0  0  0  0  0  0  0  0  0
    6.7245  -14.2600   25.2640 C   0  0  0  0  0  0  0  0  0  0  0  0
    6.8800  -15.2606   26.0064 O   0  0  0  0  0  0  0  0  0  0  0  0
    7.3215  -14.3547   23.9529 N   0  0  0  0  0  0  0  0  0  0  0  0
    7.9746  -15.5395   23.4949 C   0  0  1  0  0  0  0  0  0  0  0  0
    8.4212  -15.4229   22.0422 C   0  0  0  0  0  0  0  0  0  0  0  0
    8.8946  -16.7003   21.5027 C   0  0  0  0  0  0  0  0  0  0  0  0
    9.2562  -17.6661   22.2178 O   0  0  0  0  0  0  0  0  0  0  0  0
    9.1908  -15.8127   24.2766 C   0  0  0  0  0  0  0  0  0  0  0  0
   10.1517  -14.9743   23.9830 O   0  0  0  0  0  0  0  0  0  0  0  0
    8.9526  -16.8688   20.1268 O   0  0  0  0  0  0  0  0  0  0  0  0
    9.4173  -16.8109   25.2392 N   0  0  0  0  0  0  0  0  0  0  0  0
    8.5265  -17.8225   25.7121 C   0  0  0  0  0  0  0  0  0  0  0  0
    9.3854  -18.7348   26.6127 C   0  0  0  0  0  0  0  0  0  0  0  0
   10.3378  -17.6687   27.1897 C   0  0  0  0  0  0  0  0  0  0  0  0
   10.6887  -16.9628   25.9103 C   0  0  1  0  0  0  0  0  0  0  0  0
   11.5930  -17.8559   25.1334 C   0  0  0  0  0  0  0  0  0  0  0  0
   12.8839  -18.1401   25.5179 O   0  0  0  0  0  0  0  0  0  0  0  0
   11.1525  -18.3637   24.0906 O   0  0  0  0  0  0  0  0  0  0  0  0
  2  3  1  6
  2  1  1  0
  4  5  1  1
  4  2  1  0
  6  4  1  0
  7  6  2  0
  8  6  1  0
  9  8  1  0
  9 10  1  6
 10 11  1  0
 11 12  2  0
 13  9  1  0
 13 14  2  0
 15 11  1  0
 16 13  1  0
 17 16  1  0
 18 17  1  0
 19 20  1  0
 19 18  1  0
 20 16  1  0
 21 22  1  0
 20 21  1  6
 23 21  2  0
M  END
$$$$
