VDP.pdb
     RDKit          3D

 23 23  0  0  1  0  0  0  0  0999 V2000
    8.4736  -13.1528   18.6043 C   0  0  0  0  0  0  0  0  0  0  0  0
    7.8980  -13.4271   19.9872 C   0  0  2  0  0  0  0  0  0  0  0  0
    8.6535  -12.5512   20.9623 C   0  0  0  0  0  0  0  0  0  0  0  0
    8.1415  -14.8915   20.2852 C   0  0  2  0  0  0  0  0  0  0  0  0
    7.5938  -15.7540   19.2795 N   0  0  0  0  0  0  0  0  0  0  0  0
    7.6284  -15.2559   21.6424 C   0  0  0  0  0  0  0  0  0  0  0  0
    6.4026  -15.3289   21.9046 O   0  0  0  0  0  0  0  0  0  0  0  0
    8.5213  -15.5474   22.7389 N   0  0  0  0  0  0  0  0  0  0  0  0
    8.0452  -15.8896   24.0412 C   0  0  1  0  0  0  0  0  0  0  0  0
    7.8025  -17.3872   24.1877 C   0  0  0  0  0  0  0  0  0  0  0  0
    7.3016  -17.7408   25.5185 C   0  0  0  0  0  0  0  0  0  0  0  0
    6.2080  -17.3343   25.9807 O   0  0  0  0  0  0  0  0  0  0  0  0
    9.0260  -15.5303   25.0776 C   0  0  0  0  0  0  0  0  0  0  0  0
   10.1777  -16.1181   24.8766 O   0  0  0  0  0  0  0  0  0  0  0  0
    8.0661  -18.5706   26.3260 O   0  0  0  0  0  0  0  0  0  0  0  0
    8.8695  -14.6818   26.1866 N   0  0  0  0  0  0  0  0  0  0  0  0
    7.6836  -14.0569   26.6803 C   0  0  0  0  0  0  0  0  0  0  0  0
    8.0906  -13.4090   28.0203 C   0  0  0  0  0  0  0  0  0  0  0  0
    9.5408  -13.0241   27.6661 C   0  0  0  0  0  0  0  0  0  0  0  0
    9.9746  -14.3227   27.0467 C   0  0  1  0  0  0  0  0  0  0  0  0
   10.1348  -15.3170   28.1442 C   0  0  0  0  0  0  0  0  0  0  0  0
   11.1341  -15.2428   29.0882 O   0  0  0  0  0  0  0  0  0  0  0  0
    9.3235  -16.2539   28.2024 O   0  0  0  0  0  0  0  0  0  0  0  0
  2  3  1  1
  2  1  1  0
  4  5  1  6
  4  2  1  0
  6  4  1  0
  7  6  2  0
  8  6  1  0
  9  8  1  0
  9 10  1  6
 10 11  1  0
 11 12  2  0
 13  9  1  0
 13 14  2  0
 15 11  1  0
 16 13  1  0
 17 16  1  0
 18 17  1  0
 19 20  1  0
 19 18  1  0
 20 16  1  0
 21 22  1  0
 20 21  1  1
 23 21  2  0
M  END
$$$$
