WGP.pdb
     RDKit          3D

 26 28  0  0  1  0  0  0  0  0999 V2000
    8.3570  -18.7836   25.2013 N   0  0  0  0  0  0  0  0  0  0  0  0
    7.9407  -17.5093   24.7185 C   0  0  1  0  0  0  0  0  0  0  0  0
    8.5320  -16.3191   25.3890 C   0  0  0  0  0  0  0  0  0  0  0  0
    7.5399  -15.3076   25.8088 C   0  0  0  0  0  0  0  0  0  0  0  0
    6.1898  -15.5343   26.0038 C   0  0  0  0  0  0  0  0  0  0  0  0
    5.5814  -14.4001   26.3664 N   0  0  0  0  0  0  0  0  0  0  0  0
    6.5068  -13.3999   26.4206 C   0  0  0  0  0  0  0  0  0  0  0  0
    6.3597  -12.0703   26.7460 C   0  0  0  0  0  0  0  0  0  0  0  0
    7.4701  -11.2639   26.7276 C   0  0  0  0  0  0  0  0  0  0  0  0
    8.6923  -11.7882   26.3900 C   0  0  0  0  0  0  0  0  0  0  0  0
    8.8042  -13.1258   26.0691 C   0  0  0  0  0  0  0  0  0  0  0  0
    7.7199  -13.9721   26.0734 C   0  0  0  0  0  0  0  0  0  0  0  0
    8.0393  -17.4090   23.2261 C   0  0  0  0  0  0  0  0  0  0  0  0
    9.0303  -17.9475   22.6812 O   0  0  0  0  0  0  0  0  0  0  0  0
    7.0939  -16.7526   22.4118 N   0  0  0  0  0  0  0  0  0  0  0  0
    7.2408  -15.4421   21.8695 C   0  0  0  0  0  0  0  0  0  0  0  0
    7.7819  -15.5327   20.4935 C   0  0  0  0  0  0  0  0  0  0  0  0
    7.9435  -16.6701   19.9870 O   0  0  0  0  0  0  0  0  0  0  0  0
    8.1204  -14.3888   19.7356 N   0  0  0  0  0  0  0  0  0  0  0  0
    8.0957  -13.0220   20.1818 C   0  0  0  0  0  0  0  0  0  0  0  0
    8.2037  -12.1626   18.9507 C   0  0  0  0  0  0  0  0  0  0  0  0
    8.0516  -13.1058   17.7714 C   0  0  0  0  0  0  0  0  0  0  0  0
    8.5559  -14.4003   18.3631 C   0  0  1  0  0  0  0  0  0  0  0  0
   10.0544  -14.4483   18.3612 C   0  0  0  0  0  0  0  0  0  0  0  0
   10.7877  -14.8513   17.2588 O   0  0  0  0  0  0  0  0  0  0  0  0
   10.7120  -14.1106   19.4014 O   0  0  0  0  0  0  0  0  0  0  0  0
  2 13  1  0
  2  1  1  1
  3  2  1  0
  4  3  1  0
  5  4  2  0
  6  7  1  0
  6  5  1  0
  7 12  2  0
  8  7  1  0
  8  9  2  0
  9 10  1  0
 10 11  2  0
 12  4  1  0
 12 11  1  0
 13 15  1  0
 14 13  2  0
 16 15  1  0
 17 16  1  0
 18 17  2  0
 19 17  1  0
 19 23  1  0
 20 21  1  0
 20 19  1  0
 21 22  1  0
 22 23  1  0
 23 24  1  1
 24 25  1  0
 26 24  2  0
M  END
$$$$
