WGP.pdb
     RDKit          3D

 26 28  0  0  1  0  0  0  0  0999 V2000
    9.5839  -17.7522   23.6535 N   0  0  0  0  0  0  0  0  0  0  0  0
    8.5146  -17.0443   24.2745 C   0  0  1  0  0  0  0  0  0  0  0  0
    8.8843  -15.8290   25.0504 C   0  0  0  0  0  0  0  0  0  0  0  0
    7.7375  -15.1443   25.6826 C   0  0  0  0  0  0  0  0  0  0  0  0
    6.5286  -15.7304   26.0100 C   0  0  0  0  0  0  0  0  0  0  0  0
    5.7104  -14.8229   26.5531 N   0  0  0  0  0  0  0  0  0  0  0  0
    6.3524  -13.6206   26.5994 C   0  0  0  0  0  0  0  0  0  0  0  0
    5.9217  -12.4012   27.0717 C   0  0  0  0  0  0  0  0  0  0  0  0
    6.7795  -11.3320   27.0050 C   0  0  0  0  0  0  0  0  0  0  0  0
    8.0353  -11.4927   26.4762 C   0  0  0  0  0  0  0  0  0  0  0  0
    8.4349  -12.7293   26.0116 C   0  0  0  0  0  0  0  0  0  0  0  0
    7.6102  -13.8292   26.0572 C   0  0  0  0  0  0  0  0  0  0  0  0
    7.3879  -16.7719   23.3240 C   0  0  0  0  0  0  0  0  0  0  0  0
    6.2754  -16.4854   23.8233 O   0  0  0  0  0  0  0  0  0  0  0  0
    7.5067  -16.8188   21.9199 N   0  0  0  0  0  0  0  0  0  0  0  0
    6.8476  -15.9444   21.0067 C   0  0  0  0  0  0  0  0  0  0  0  0
    7.7596  -15.6195   19.8855 C   0  0  0  0  0  0  0  0  0  0  0  0
    8.0624  -16.5303   19.0762 O   0  0  0  0  0  0  0  0  0  0  0  0
    8.2975  -14.3261   19.6969 N   0  0  0  0  0  0  0  0  0  0  0  0
    8.0749  -13.1718   20.5250 C   0  0  0  0  0  0  0  0  0  0  0  0
    8.5678  -11.9802   19.7484 C   0  0  0  0  0  0  0  0  0  0  0  0
    8.8604  -12.4891   18.3488 C   0  0  0  0  0  0  0  0  0  0  0  0
    9.1761  -13.9400   18.6233 C   0  0  1  0  0  0  0  0  0  0  0  0
   10.5856  -14.1047   19.1069 C   0  0  0  0  0  0  0  0  0  0  0  0
   11.6743  -14.1002   18.2522 O   0  0  0  0  0  0  0  0  0  0  0  0
   10.8273  -14.2575   20.3506 O   0  0  0  0  0  0  0  0  0  0  0  0
  2 13  1  0
  2  1  1  6
  3  2  1  0
  4  3  1  0
  5  4  2  0
  6  7  1  0
  6  5  1  0
  7 12  2  0
  8  7  1  0
  8  9  2  0
  9 10  1  0
 10 11  2  0
 12  4  1  0
 12 11  1  0
 13 15  1  0
 14 13  2  0
 16 15  1  0
 17 16  1  0
 18 17  2  0
 19 17  1  0
 19 23  1  0
 20 21  1  0
 20 19  1  0
 21 22  1  0
 22 23  1  0
 23 24  1  1
 24 25  1  0
 26 24  2  0
M  END
$$$$
