WGP.pdb
     RDKit          3D

 26 28  0  0  1  0  0  0  0  0999 V2000
    8.9127  -17.3625   24.9852 N   0  0  0  0  0  0  0  0  0  0  0  0
    8.6091  -16.2952   24.0913 C   0  0  1  0  0  0  0  0  0  0  0  0
    8.7689  -14.9151   24.6256 C   0  0  0  0  0  0  0  0  0  0  0  0
    7.6834  -14.4898   25.5336 C   0  0  0  0  0  0  0  0  0  0  0  0
    6.7486  -15.3235   26.1193 C   0  0  0  0  0  0  0  0  0  0  0  0
    5.9030  -14.6096   26.8700 N   0  0  0  0  0  0  0  0  0  0  0  0
    6.2542  -13.2936   26.8014 C   0  0  0  0  0  0  0  0  0  0  0  0
    5.6889  -12.1910   27.4014 C   0  0  0  0  0  0  0  0  0  0  0  0
    6.2467  -10.9590   27.1676 C   0  0  0  0  0  0  0  0  0  0  0  0
    7.3437  -10.8471   26.3511 C   0  0  0  0  0  0  0  0  0  0  0  0
    7.8852  -11.9733   25.7654 C   0  0  0  0  0  0  0  0  0  0  0  0
    7.3605  -13.2283   25.9699 C   0  0  0  0  0  0  0  0  0  0  0  0
    9.2886  -16.4565   22.7649 C   0  0  0  0  0  0  0  0  0  0  0  0
   10.4993  -16.1416   22.7007 O   0  0  0  0  0  0  0  0  0  0  0  0
    8.6522  -16.9356   21.6016 N   0  0  0  0  0  0  0  0  0  0  0  0
    9.2860  -17.1460   20.3418 C   0  0  0  0  0  0  0  0  0  0  0  0
    8.4968  -16.4895   19.2740 C   0  0  0  0  0  0  0  0  0  0  0  0
    7.5930  -17.1495   18.7050 O   0  0  0  0  0  0  0  0  0  0  0  0
    8.7253  -15.1526   18.8760 N   0  0  0  0  0  0  0  0  0  0  0  0
    9.6240  -14.2130   19.4903 C   0  0  0  0  0  0  0  0  0  0  0  0
    9.2742  -12.8562   18.9404 C   0  0  0  0  0  0  0  0  0  0  0  0
    7.9814  -13.0424   18.1673 C   0  0  0  0  0  0  0  0  0  0  0  0
    8.0846  -14.4946   17.7668 C   0  0  1  0  0  0  0  0  0  0  0  0
    8.9666  -14.6633   16.5662 C   0  0  0  0  0  0  0  0  0  0  0  0
   10.2489  -15.1776   16.6473 O   0  0  0  0  0  0  0  0  0  0  0  0
    8.5495  -14.3292   15.4074 O   0  0  0  0  0  0  0  0  0  0  0  0
  2 13  1  0
  2  1  1  1
  3  2  1  0
  4  3  1  0
  5  4  2  0
  6  7  1  0
  6  5  1  0
  7 12  2  0
  8  7  1  0
  8  9  2  0
  9 10  1  0
 10 11  2  0
 12  4  1  0
 12 11  1  0
 13 15  1  0
 14 13  2  0
 16 15  1  0
 17 16  1  0
 18 17  2  0
 19 17  1  0
 19 23  1  0
 20 21  1  0
 20 19  1  0
 21 22  1  0
 22 23  1  0
 23 24  1  6
 24 25  1  0
 26 24  2  0
M  END
$$$$
