WGP.pdb
     RDKit          3D

 26 28  0  0  1  0  0  0  0  0999 V2000
    8.1666  -19.1266   25.6344 N   0  0  0  0  0  0  0  0  0  0  0  0
    8.1854  -17.7381   25.3148 C   0  0  1  0  0  0  0  0  0  0  0  0
    9.5166  -17.0720   25.3243 C   0  0  0  0  0  0  0  0  0  0  0  0
    9.8658  -16.4389   26.6129 C   0  0  0  0  0  0  0  0  0  0  0  0
   10.5899  -17.0298   27.6320 C   0  0  0  0  0  0  0  0  0  0  0  0
   10.7107  -16.1833   28.6601 N   0  0  0  0  0  0  0  0  0  0  0  0
   10.0741  -15.0178   28.3501 C   0  0  0  0  0  0  0  0  0  0  0  0
    9.9307  -13.8616   29.0838 C   0  0  0  0  0  0  0  0  0  0  0  0
    9.2358  -12.8156   28.5302 C   0  0  0  0  0  0  0  0  0  0  0  0
    8.7024  -12.9367   27.2719 C   0  0  0  0  0  0  0  0  0  0  0  0
    8.8649  -14.1102   26.5639 C   0  0  0  0  0  0  0  0  0  0  0  0
    9.5527  -15.1850   27.0775 C   0  0  0  0  0  0  0  0  0  0  0  0
    7.4247  -17.4353   24.0592 C   0  0  0  0  0  0  0  0  0  0  0  0
    7.1842  -18.3951   23.2910 O   0  0  0  0  0  0  0  0  0  0  0  0
    6.9705  -16.1504   23.6982 N   0  0  0  0  0  0  0  0  0  0  0  0
    6.1965  -15.8442   22.5405 C   0  0  0  0  0  0  0  0  0  0  0  0
    7.0564  -15.9141   21.3364 C   0  0  0  0  0  0  0  0  0  0  0  0
    7.1916  -17.0213   20.7601 O   0  0  0  0  0  0  0  0  0  0  0  0
    7.7262  -14.7830   20.8170 N   0  0  0  0  0  0  0  0  0  0  0  0
    7.7734  -13.4683   21.3976 C   0  0  0  0  0  0  0  0  0  0  0  0
    8.3037  -12.5441   20.3344 C   0  0  0  0  0  0  0  0  0  0  0  0
    8.3293  -13.3570   19.0530 C   0  0  0  0  0  0  0  0  0  0  0  0
    8.4889  -14.7570   19.5958 C   0  0  1  0  0  0  0  0  0  0  0  0
    9.9187  -15.0416   19.9458 C   0  0  0  0  0  0  0  0  0  0  0  0
   10.8860  -15.2952   18.9890 O   0  0  0  0  0  0  0  0  0  0  0  0
   10.2932  -15.0585   21.1656 O   0  0  0  0  0  0  0  0  0  0  0  0
  2 13  1  0
  2  1  1  6
  3  2  1  0
  4  3  1  0
  5  4  2  0
  6  7  1  0
  6  5  1  0
  7 12  2  0
  8  7  1  0
  8  9  2  0
  9 10  1  0
 10 11  2  0
 12  4  1  0
 12 11  1  0
 13 15  1  0
 14 13  2  0
 16 15  1  0
 17 16  1  0
 18 17  2  0
 19 17  1  0
 19 23  1  0
 20 21  1  0
 20 19  1  0
 21 22  1  0
 22 23  1  0
 23 24  1  1
 24 25  1  0
 26 24  2  0
M  END
$$$$
