WGP.pdb
     RDKit          3D

 26 28  0  0  1  0  0  0  0  0999 V2000
    8.9322  -18.5876   24.8637 N   0  0  0  0  0  0  0  0  0  0  0  0
    8.1641  -17.4175   24.5971 C   0  0  1  0  0  0  0  0  0  0  0  0
    8.6657  -16.1451   25.1847 C   0  0  0  0  0  0  0  0  0  0  0  0
    7.6025  -15.2574   25.6996 C   0  0  0  0  0  0  0  0  0  0  0  0
    6.2907  -15.6239   25.9376 C   0  0  0  0  0  0  0  0  0  0  0  0
    5.5946  -14.5739   26.3861 N   0  0  0  0  0  0  0  0  0  0  0  0
    6.4224  -13.4924   26.4564 C   0  0  0  0  0  0  0  0  0  0  0  0
    6.1648  -12.2014   26.8594 C   0  0  0  0  0  0  0  0  0  0  0  0
    7.1915  -11.2909   26.8390 C   0  0  0  0  0  0  0  0  0  0  0  0
    8.4410  -11.6761   26.4233 C   0  0  0  0  0  0  0  0  0  0  0  0
    8.6645  -12.9786   26.0257 C   0  0  0  0  0  0  0  0  0  0  0  0
    7.6669  -13.9257   26.0287 C   0  0  0  0  0  0  0  0  0  0  0  0
    7.8488  -17.2666   23.1394 C   0  0  0  0  0  0  0  0  0  0  0  0
    8.5334  -17.9387   22.3339 O   0  0  0  0  0  0  0  0  0  0  0  0
    6.8400  -16.4238   22.6299 N   0  0  0  0  0  0  0  0  0  0  0  0
    6.3988  -16.3914   21.2745 C   0  0  0  0  0  0  0  0  0  0  0  0
    7.5165  -15.9684   20.3992 C   0  0  0  0  0  0  0  0  0  0  0  0
    8.1146  -16.8433   19.7262 O   0  0  0  0  0  0  0  0  0  0  0  0
    7.9303  -14.6208   20.2965 N   0  0  0  0  0  0  0  0  0  0  0  0
    7.5002  -13.5229   21.1196 C   0  0  0  0  0  0  0  0  0  0  0  0
    7.9420  -12.2624   20.4256 C   0  0  0  0  0  0  0  0  0  0  0  0
    8.4324  -12.6931   19.0554 C   0  0  0  0  0  0  0  0  0  0  0  0
    8.8704  -14.1114   19.3321 C   0  0  1  0  0  0  0  0  0  0  0  0
   10.2309  -14.1443   19.9611 C   0  0  0  0  0  0  0  0  0  0  0  0
   11.3923  -13.9207   19.2421 O   0  0  0  0  0  0  0  0  0  0  0  0
   10.3597  -14.3853   21.2076 O   0  0  0  0  0  0  0  0  0  0  0  0
  2 13  1  0
  2  1  1  6
  3  2  1  0
  4  3  1  0
  5  4  2  0
  6  7  1  0
  6  5  1  0
  7 12  2  0
  8  7  1  0
  8  9  2  0
  9 10  1  0
 10 11  2  0
 12  4  1  0
 12 11  1  0
 13 15  1  0
 14 13  2  0
 16 15  1  0
 17 16  1  0
 18 17  2  0
 19 17  1  0
 19 23  1  0
 20 21  1  0
 20 19  1  0
 21 22  1  0
 22 23  1  0
 23 24  1  1
 24 25  1  0
 26 24  2  0
M  END
$$$$
