WGP.pdb
     RDKit          3D

 26 28  0  0  1  0  0  0  0  0999 V2000
    8.4759  -17.9269   23.8162 N   0  0  0  0  0  0  0  0  0  0  0  0
    8.3327  -16.5274   24.0423 C   0  0  1  0  0  0  0  0  0  0  0  0
    8.5750  -16.0505   25.4314 C   0  0  0  0  0  0  0  0  0  0  0  0
    7.5090  -15.1768   25.9642 C   0  0  0  0  0  0  0  0  0  0  0  0
    6.2686  -15.5966   26.4082 C   0  0  0  0  0  0  0  0  0  0  0  0
    5.5450  -14.5463   26.8098 N   0  0  0  0  0  0  0  0  0  0  0  0
    6.2829  -13.4115   26.6434 C   0  0  0  0  0  0  0  0  0  0  0  0
    5.9679  -12.0993   26.9157 C   0  0  0  0  0  0  0  0  0  0  0  0
    6.9063  -11.1321   26.6557 C   0  0  0  0  0  0  0  0  0  0  0  0
    8.1266  -11.4833   26.1359 C   0  0  0  0  0  0  0  0  0  0  0  0
    8.4094  -12.8086   25.8747 C   0  0  0  0  0  0  0  0  0  0  0  0
    7.5008  -13.8121   26.1183 C   0  0  0  0  0  0  0  0  0  0  0  0
    9.0887  -15.7109   23.0378 C   0  0  0  0  0  0  0  0  0  0  0  0
    9.8513  -14.8217   23.4814 O   0  0  0  0  0  0  0  0  0  0  0  0
    8.9922  -15.8839   21.6419 N   0  0  0  0  0  0  0  0  0  0  0  0
    9.7088  -15.1310   20.6659 C   0  0  0  0  0  0  0  0  0  0  0  0
    9.3052  -15.5668   19.3090 C   0  0  0  0  0  0  0  0  0  0  0  0
    9.3228  -16.7939   19.0438 O   0  0  0  0  0  0  0  0  0  0  0  0
    8.9029  -14.6535   18.3081 N   0  0  0  0  0  0  0  0  0  0  0  0
    8.9118  -13.2184   18.3982 C   0  0  0  0  0  0  0  0  0  0  0  0
    8.0942  -12.7068   17.2425 C   0  0  0  0  0  0  0  0  0  0  0  0
    7.4275  -13.9268   16.6337 C   0  0  0  0  0  0  0  0  0  0  0  0
    8.4077  -15.0137   17.0048 C   0  0  1  0  0  0  0  0  0  0  0  0
    9.5747  -15.0339   16.0639 C   0  0  0  0  0  0  0  0  0  0  0  0
    9.5156  -15.6223   14.8125 O   0  0  0  0  0  0  0  0  0  0  0  0
   10.6826  -14.4960   16.3984 O   0  0  0  0  0  0  0  0  0  0  0  0
  2 13  1  0
  2  1  1  1
  3  2  1  0
  4  3  1  0
  5  4  2  0
  6  7  1  0
  6  5  1  0
  7 12  2  0
  8  7  1  0
  8  9  2  0
  9 10  1  0
 10 11  2  0
 12  4  1  0
 12 11  1  0
 13 15  1  0
 14 13  2  0
 16 15  1  0
 17 16  1  0
 18 17  2  0
 19 17  1  0
 19 23  1  0
 20 21  1  0
 20 19  1  0
 21 22  1  0
 22 23  1  0
 23 24  1  6
 24 25  1  0
 26 24  2  0
M  END
$$$$
