WGP.pdb
     RDKit          3D

 26 28  0  0  1  0  0  0  0  0999 V2000
    7.1059  -17.9457   25.4421 N   0  0  0  0  0  0  0  0  0  0  0  0
    7.2417  -16.6499   24.8651 C   0  0  1  0  0  0  0  0  0  0  0  0
    8.5099  -15.9247   25.1510 C   0  0  0  0  0  0  0  0  0  0  0  0
    8.4073  -14.9378   26.2460 C   0  0  0  0  0  0  0  0  0  0  0  0
    9.0800  -14.9988   27.4525 C   0  0  0  0  0  0  0  0  0  0  0  0
    8.7460  -13.9544   28.2179 N   0  0  0  0  0  0  0  0  0  0  0  0
    7.8497  -13.1800   27.5421 C   0  0  0  0  0  0  0  0  0  0  0  0
    7.2272  -12.0102   27.9157 C   0  0  0  0  0  0  0  0  0  0  0  0
    6.3574  -11.4196   27.0336 C   0  0  0  0  0  0  0  0  0  0  0  0
    6.1250  -11.9960   25.8104 C   0  0  0  0  0  0  0  0  0  0  0  0
    6.7659  -13.1693   25.4680 C   0  0  0  0  0  0  0  0  0  0  0  0
    7.6453  -13.7976   26.3189 C   0  0  0  0  0  0  0  0  0  0  0  0
    6.9202  -16.6451   23.4010 C   0  0  0  0  0  0  0  0  0  0  0  0
    7.0311  -17.7317   22.7878 O   0  0  0  0  0  0  0  0  0  0  0  0
    6.5058  -15.5038   22.6844 N   0  0  0  0  0  0  0  0  0  0  0  0
    6.1912  -15.4720   21.2941 C   0  0  0  0  0  0  0  0  0  0  0  0
    7.4360  -15.5971   20.5010 C   0  0  0  0  0  0  0  0  0  0  0  0
    7.8849  -16.7462   20.2679 O   0  0  0  0  0  0  0  0  0  0  0  0
    8.1316  -14.4732   20.0004 N   0  0  0  0  0  0  0  0  0  0  0  0
    7.9758  -13.1068   20.4206 C   0  0  0  0  0  0  0  0  0  0  0  0
    8.6630  -12.2550   19.3872 C   0  0  0  0  0  0  0  0  0  0  0  0
    9.0084  -13.1893   18.2421 C   0  0  0  0  0  0  0  0  0  0  0  0
    9.1329  -14.5085   18.9661 C   0  0  1  0  0  0  0  0  0  0  0  0
   10.4704  -14.6362   19.6314 C   0  0  0  0  0  0  0  0  0  0  0  0
   11.6284  -14.9271   18.9315 O   0  0  0  0  0  0  0  0  0  0  0  0
   10.5815  -14.4765   20.8926 O   0  0  0  0  0  0  0  0  0  0  0  0
  2 13  1  0
  2  1  1  6
  3  2  1  0
  4  3  1  0
  5  4  2  0
  6  7  1  0
  6  5  1  0
  7 12  2  0
  8  7  1  0
  8  9  2  0
  9 10  1  0
 10 11  2  0
 12  4  1  0
 12 11  1  0
 13 15  1  0
 14 13  2  0
 16 15  1  0
 17 16  1  0
 18 17  2  0
 19 17  1  0
 19 23  1  0
 20 21  1  0
 20 19  1  0
 21 22  1  0
 22 23  1  0
 23 24  1  1
 24 25  1  0
 26 24  2  0
M  END
$$$$
