WGP.pdb
     RDKit          3D

 26 28  0  0  1  0  0  0  0  0999 V2000
    8.0380  -17.4055   24.7766 N   0  0  0  0  0  0  0  0  0  0  0  0
    7.1629  -16.3113   24.5170 C   0  0  1  0  0  0  0  0  0  0  0  0
    7.7918  -14.9653   24.4230 C   0  0  0  0  0  0  0  0  0  0  0  0
    8.0045  -14.3058   25.7281 C   0  0  0  0  0  0  0  0  0  0  0  0
    8.9881  -14.6293   26.6446 C   0  0  0  0  0  0  0  0  0  0  0  0
    8.8864  -13.8455   27.7232 N   0  0  0  0  0  0  0  0  0  0  0  0
    7.8401  -12.9883   27.5497 C   0  0  0  0  0  0  0  0  0  0  0  0
    7.3524  -12.0027   28.3780 C   0  0  0  0  0  0  0  0  0  0  0  0
    6.2728  -11.2673   27.9572 C   0  0  0  0  0  0  0  0  0  0  0  0
    5.7044  -11.5220   26.7347 C   0  0  0  0  0  0  0  0  0  0  0  0
    6.2186  -12.5178   25.9291 C   0  0  0  0  0  0  0  0  0  0  0  0
    7.2984  -13.2808   26.3085 C   0  0  0  0  0  0  0  0  0  0  0  0
    6.2511  -16.5776   23.3574 C   0  0  0  0  0  0  0  0  0  0  0  0
    5.1287  -16.0217   23.3733 O   0  0  0  0  0  0  0  0  0  0  0  0
    6.5796  -17.4062   22.2650 N   0  0  0  0  0  0  0  0  0  0  0  0
    7.8633  -17.4902   21.6502 C   0  0  0  0  0  0  0  0  0  0  0  0
    7.8303  -16.8045   20.3376 C   0  0  0  0  0  0  0  0  0  0  0  0
    7.5514  -17.4790   19.3161 O   0  0  0  0  0  0  0  0  0  0  0  0
    8.1004  -15.4242   20.1968 N   0  0  0  0  0  0  0  0  0  0  0  0
    7.9651  -14.4127   21.2098 C   0  0  0  0  0  0  0  0  0  0  0  0
    8.0368  -13.0836   20.5069 C   0  0  0  0  0  0  0  0  0  0  0  0
    7.9808  -13.3956   19.0226 C   0  0  0  0  0  0  0  0  0  0  0  0
    8.5659  -14.7872   18.9922 C   0  0  1  0  0  0  0  0  0  0  0  0
   10.0635  -14.7457   19.0486 C   0  0  0  0  0  0  0  0  0  0  0  0
   10.7802  -15.1345   20.1669 O   0  0  0  0  0  0  0  0  0  0  0  0
   10.7360  -14.3407   18.0425 O   0  0  0  0  0  0  0  0  0  0  0  0
  2 13  1  0
  2  1  1  6
  3  2  1  0
  4  3  1  0
  5  4  2  0
  6  7  1  0
  6  5  1  0
  7 12  2  0
  8  7  1  0
  8  9  2  0
  9 10  1  0
 10 11  2  0
 12  4  1  0
 12 11  1  0
 13 15  1  0
 14 13  2  0
 16 15  1  0
 17 16  1  0
 18 17  2  0
 19 17  1  0
 19 23  1  0
 20 21  1  0
 20 19  1  0
 21 22  1  0
 22 23  1  0
 23 24  1  1
 24 25  1  0
 26 24  2  0
M  END
$$$$
