WGP.pdb
     RDKit          3D

 26 28  0  0  1  0  0  0  0  0999 V2000
    8.8798  -17.0499   21.9649 N   0  0  0  0  0  0  0  0  0  0  0  0
    8.9877  -15.8040   22.6479 C   0  0  1  0  0  0  0  0  0  0  0  0
    7.8312  -14.8753   22.5229 C   0  0  0  0  0  0  0  0  0  0  0  0
    7.1033  -14.6438   23.7878 C   0  0  0  0  0  0  0  0  0  0  0  0
    6.4473  -15.6091   24.5293 C   0  0  0  0  0  0  0  0  0  0  0  0
    5.8831  -15.0551   25.6077 N   0  0  0  0  0  0  0  0  0  0  0  0
    6.1495  -13.7177   25.6081 C   0  0  0  0  0  0  0  0  0  0  0  0
    5.7861  -12.7398   26.5064 C   0  0  0  0  0  0  0  0  0  0  0  0
    6.1937  -11.4503   26.2728 C   0  0  0  0  0  0  0  0  0  0  0  0
    6.9467  -11.1600   25.1631 C   0  0  0  0  0  0  0  0  0  0  0  0
    7.2934  -12.1647   24.2827 C   0  0  0  0  0  0  0  0  0  0  0  0
    6.9076  -13.4709   24.4750 C   0  0  0  0  0  0  0  0  0  0  0  0
    9.4069  -15.9756   24.0769 C   0  0  0  0  0  0  0  0  0  0  0  0
    9.9850  -15.0079   24.6231 O   0  0  0  0  0  0  0  0  0  0  0  0
    9.1908  -17.1471   24.8309 N   0  0  0  0  0  0  0  0  0  0  0  0
    9.0973  -17.2076   26.2524 C   0  0  0  0  0  0  0  0  0  0  0  0
   10.4476  -17.0651   26.8446 C   0  0  0  0  0  0  0  0  0  0  0  0
   11.4333  -17.5003   26.2003 O   0  0  0  0  0  0  0  0  0  0  0  0
   10.6628  -16.4590   28.1032 N   0  0  0  0  0  0  0  0  0  0  0  0
    9.6965  -15.7409   28.8895 C   0  0  0  0  0  0  0  0  0  0  0  0
   10.4648  -15.0094   29.9575 C   0  0  0  0  0  0  0  0  0  0  0  0
   11.9300  -15.1593   29.5910 C   0  0  0  0  0  0  0  0  0  0  0  0
   11.9098  -16.4594   28.8234 C   0  0  1  0  0  0  0  0  0  0  0  0
   11.8985  -17.6360   29.7525 C   0  0  0  0  0  0  0  0  0  0  0  0
   13.0301  -18.0725   30.4192 O   0  0  0  0  0  0  0  0  0  0  0  0
   10.8189  -18.2840   29.9599 O   0  0  0  0  0  0  0  0  0  0  0  0
  2 13  1  0
  2  1  1  1
  3  2  1  0
  4  3  1  0
  5  4  2  0
  6  7  1  0
  6  5  1  0
  7 12  2  0
  8  7  1  0
  8  9  2  0
  9 10  1  0
 10 11  2  0
 12  4  1  0
 12 11  1  0
 13 15  1  0
 14 13  2  0
 16 15  1  0
 17 16  1  0
 18 17  2  0
 19 17  1  0
 19 23  1  0
 20 21  1  0
 20 19  1  0
 21 22  1  0
 22 23  1  0
 23 24  1  1
 24 25  1  0
 26 24  2  0
M  END
$$$$
