PVG.pdb
     RDKit          3D

 19 19  0  0  1  0  0  0  0  0999 V2000
    8.8128  -17.9050   16.8048 N   0  0  0  0  0  0  0  0  0  0  0  0
    9.0707  -19.3027   16.9012 C   0  0  0  0  0  0  0  0  0  0  0  0
    8.0994  -19.9123   17.8581 C   0  0  0  0  0  0  0  0  0  0  0  0
    7.4185  -18.7504   18.5272 C   0  0  0  0  0  0  0  0  0  0  0  0
    7.9137  -17.5104   17.8313 C   0  0  1  0  0  0  0  0  0  0  0  0
    8.6103  -16.5840   18.7593 C   0  0  0  0  0  0  0  0  0  0  0  0
    9.8628  -16.4726   18.7064 O   0  0  0  0  0  0  0  0  0  0  0  0
    7.1199  -12.9777   19.5190 C   0  0  0  0  0  0  0  0  0  0  0  0
    7.4587  -13.7478   20.7938 C   0  0  2  0  0  0  0  0  0  0  0  0
    8.0508  -12.7634   21.7551 C   0  0  0  0  0  0  0  0  0  0  0  0
    8.4687  -14.8404   20.4996 C   0  0  2  0  0  0  0  0  0  0  0  0
    7.8059  -15.8643   19.6695 N   0  0  0  0  0  0  0  0  0  0  0  0
    8.8526  -15.4632   21.7922 C   0  0  0  0  0  0  0  0  0  0  0  0
    7.8985  -15.9857   22.4696 O   0  0  0  0  0  0  0  0  0  0  0  0
   10.1433  -15.5361   22.3319 N   0  0  0  0  0  0  0  0  0  0  0  0
   10.3133  -16.2261   23.6238 C   0  0  0  0  0  0  0  0  0  0  0  0
   11.7276  -16.1661   24.0546 C   0  0  0  0  0  0  0  0  0  0  0  0
   12.0188  -16.6445   25.3395 O   0  0  0  0  0  0  0  0  0  0  0  0
   12.6336  -15.7149   23.3247 O   0  0  0  0  0  0  0  0  0  0  0  0
  1  2  1  0
  3  2  1  0
  4  5  1  0
  4  3  1  0
  5  1  1  0
  6 12  1  0
  5  6  1  1
  7  6  2  0
  9  8  1  6
  9 11  1  0
 10  9  1  0
 11 12  1  6
 11 13  1  0
 13 15  1  0
 14 13  2  0
 15 16  1  0
 17 16  1  0
 17 18  1  0
 19 17  2  0
M  END
$$$$
