PVG.pdb
     RDKit          3D

 19 19  0  0  1  0  0  0  0  0999 V2000
    8.2162  -17.2884   16.0752 N   0  0  0  0  0  0  0  0  0  0  0  0
    8.6910  -18.6044   15.8072 C   0  0  0  0  0  0  0  0  0  0  0  0
    8.0804  -19.5515   16.7876 C   0  0  0  0  0  0  0  0  0  0  0  0
    7.4198  -18.6820   17.8214 C   0  0  0  0  0  0  0  0  0  0  0  0
    7.5450  -17.2652   17.3270 C   0  0  1  0  0  0  0  0  0  0  0  0
    8.3028  -16.4045   18.2700 C   0  0  0  0  0  0  0  0  0  0  0  0
    9.5101  -16.1355   18.0371 O   0  0  0  0  0  0  0  0  0  0  0  0
    6.8977  -13.0172   19.7509 C   0  0  0  0  0  0  0  0  0  0  0  0
    7.3169  -14.0011   20.8415 C   0  0  2  0  0  0  0  0  0  0  0  0
    7.9497  -13.1974   21.9358 C   0  0  0  0  0  0  0  0  0  0  0  0
    8.3222  -14.9978   20.2974 C   0  0  2  0  0  0  0  0  0  0  0  0
    7.6065  -15.9263   19.4014 N   0  0  0  0  0  0  0  0  0  0  0  0
    8.8574  -15.7745   21.4446 C   0  0  0  0  0  0  0  0  0  0  0  0
    8.0093  -16.4950   22.0801 O   0  0  0  0  0  0  0  0  0  0  0  0
   10.1856  -15.7968   21.8895 N   0  0  0  0  0  0  0  0  0  0  0  0
   10.5376  -16.7419   22.9650 C   0  0  0  0  0  0  0  0  0  0  0  0
   10.7573  -16.0146   24.2348 C   0  0  0  0  0  0  0  0  0  0  0  0
   11.3112  -16.7451   25.2950 O   0  0  0  0  0  0  0  0  0  0  0  0
   10.4702  -14.8085   24.3764 O   0  0  0  0  0  0  0  0  0  0  0  0
  1  2  1  0
  3  2  1  0
  4  5  1  0
  4  3  1  0
  5  1  1  0
  6 12  1  0
  5  6  1  1
  7  6  2  0
  9  8  1  6
  9 11  1  0
 10  9  1  0
 11 12  1  6
 11 13  1  0
 13 15  1  0
 14 13  2  0
 15 16  1  0
 17 16  1  0
 17 18  1  0
 19 17  2  0
M  END
$$$$
