PVG.pdb
     RDKit          3D

 19 19  0  0  1  0  0  0  0  0999 V2000
    8.3547  -14.2851   20.9168 N   0  0  0  0  0  0  0  0  0  0  0  0
    8.1065  -15.4186   20.0904 C   0  0  0  0  0  0  0  0  0  0  0  0
    6.7323  -15.9330   20.3691 C   0  0  0  0  0  0  0  0  0  0  0  0
    6.2756  -15.1998   21.6000 C   0  0  0  0  0  0  0  0  0  0  0  0
    7.3413  -14.1812   21.9069 C   0  0  1  0  0  0  0  0  0  0  0  0
    7.9468  -14.3859   23.2470 C   0  0  0  0  0  0  0  0  0  0  0  0
    9.1083  -14.8617   23.3411 O   0  0  0  0  0  0  0  0  0  0  0  0
    5.5413  -13.4317   26.5342 C   0  0  0  0  0  0  0  0  0  0  0  0
    7.0498  -13.2197   26.6461 C   0  0  2  0  0  0  0  0  0  0  0  0
    7.3205  -11.7959   26.2673 C   0  0  0  0  0  0  0  0  0  0  0  0
    7.7865  -14.1461   25.6977 C   0  0  2  0  0  0  0  0  0  0  0  0
    7.1640  -14.0256   24.3654 N   0  0  0  0  0  0  0  0  0  0  0  0
    7.5924  -15.5372   26.1804 C   0  0  0  0  0  0  0  0  0  0  0  0
    6.4588  -16.0718   25.9133 O   0  0  0  0  0  0  0  0  0  0  0  0
    8.5212  -16.3118   26.8874 N   0  0  0  0  0  0  0  0  0  0  0  0
    8.1683  -17.7121   27.1848 C   0  0  0  0  0  0  0  0  0  0  0  0
    9.2102  -18.3346   28.0312 C   0  0  0  0  0  0  0  0  0  0  0  0
    8.9587  -19.6344   28.4915 O   0  0  0  0  0  0  0  0  0  0  0  0
   10.2695  -17.7481   28.3329 O   0  0  0  0  0  0  0  0  0  0  0  0
  1  2  1  0
  3  2  1  0
  4  5  1  0
  4  3  1  0
  5  1  1  0
  6 12  1  0
  5  6  1  1
  7  6  2  0
  9  8  1  6
  9 11  1  0
 10  9  1  0
 11 12  1  6
 11 13  1  0
 13 15  1  0
 14 13  2  0
 15 16  1  0
 17 16  1  0
 17 18  1  0
 19 17  2  0
M  END
$$$$
