PVG.pdb
     RDKit          3D

 19 19  0  0  1  0  0  0  0  0999 V2000
    7.7888  -14.4792   20.6109 N   0  0  0  0  0  0  0  0  0  0  0  0
    8.1595  -15.6689   19.9207 C   0  0  0  0  0  0  0  0  0  0  0  0
    7.4336  -16.8274   20.5223 C   0  0  0  0  0  0  0  0  0  0  0  0
    6.8108  -16.2946   21.7831 C   0  0  0  0  0  0  0  0  0  0  0  0
    7.0750  -14.8122   21.7932 C   0  0  1  0  0  0  0  0  0  0  0  0
    7.8670  -14.3893   22.9757 C   0  0  0  0  0  0  0  0  0  0  0  0
    9.0998  -14.1665   22.8540 O   0  0  0  0  0  0  0  0  0  0  0  0
    6.3895  -11.8343   25.6835 C   0  0  0  0  0  0  0  0  0  0  0  0
    6.9633  -13.1013   26.3148 C   0  0  2  0  0  0  0  0  0  0  0  0
    7.6866  -12.6816   27.5576 C   0  0  0  0  0  0  0  0  0  0  0  0
    7.9355  -13.7731   25.3641 C   0  0  2  0  0  0  0  0  0  0  0  0
    7.1728  -14.2588   24.1982 N   0  0  0  0  0  0  0  0  0  0  0  0
    8.5169  -14.9467   26.0644 C   0  0  0  0  0  0  0  0  0  0  0  0
    7.6903  -15.8654   26.4032 O   0  0  0  0  0  0  0  0  0  0  0  0
    9.8672  -15.1436   26.3818 N   0  0  0  0  0  0  0  0  0  0  0  0
   10.2625  -16.4520   26.9348 C   0  0  0  0  0  0  0  0  0  0  0  0
   10.5562  -16.3299   28.3799 C   0  0  0  0  0  0  0  0  0  0  0  0
   11.7771  -16.8558   28.8244 O   0  0  0  0  0  0  0  0  0  0  0  0
    9.7685  -15.7884   29.1821 O   0  0  0  0  0  0  0  0  0  0  0  0
  1  2  1  0
  3  2  1  0
  4  5  1  0
  4  3  1  0
  5  1  1  0
  6 12  1  0
  5  6  1  1
  7  6  2  0
  9  8  1  6
  9 11  1  0
 10  9  1  0
 11 12  1  6
 11 13  1  0
 13 15  1  0
 14 13  2  0
 15 16  1  0
 17 16  1  0
 17 18  1  0
 19 17  2  0
M  END
$$$$
