PVG.pdb
     RDKit          3D

 19 19  0  0  1  0  0  0  0  0999 V2000
    8.0786  -14.4876   20.4932 N   0  0  0  0  0  0  0  0  0  0  0  0
    8.1342  -15.7445   19.8252 C   0  0  0  0  0  0  0  0  0  0  0  0
    6.9886  -16.5885   20.2791 C   0  0  0  0  0  0  0  0  0  0  0  0
    6.3987  -15.8588   21.4542 C   0  0  0  0  0  0  0  0  0  0  0  0
    7.1309  -14.5465   21.5497 C   0  0  1  0  0  0  0  0  0  0  0  0
    7.8365  -14.3884   22.8464 C   0  0  0  0  0  0  0  0  0  0  0  0
    9.0916  -14.4737   22.8885 O   0  0  0  0  0  0  0  0  0  0  0  0
    6.3916  -11.8179   25.5262 C   0  0  0  0  0  0  0  0  0  0  0  0
    6.7956  -13.1405   26.1749 C   0  0  2  0  0  0  0  0  0  0  0  0
    7.5016  -12.8033   27.4523 C   0  0  0  0  0  0  0  0  0  0  0  0
    7.7327  -13.9118   25.2654 C   0  0  2  0  0  0  0  0  0  0  0  0
    7.0377  -14.1454   23.9849 N   0  0  0  0  0  0  0  0  0  0  0  0
    7.9989  -15.2281   25.8997 C   0  0  0  0  0  0  0  0  0  0  0  0
    6.9670  -15.9233   26.2065 O   0  0  0  0  0  0  0  0  0  0  0  0
    9.2557  -15.7764   26.1868 N   0  0  0  0  0  0  0  0  0  0  0  0
    9.3053  -17.1581   26.6991 C   0  0  0  0  0  0  0  0  0  0  0  0
    9.9541  -17.1887   28.0286 C   0  0  0  0  0  0  0  0  0  0  0  0
   11.0088  -18.0963   28.1976 O   0  0  0  0  0  0  0  0  0  0  0  0
    9.5950  -16.4505   28.9685 O   0  0  0  0  0  0  0  0  0  0  0  0
  1  2  1  0
  3  2  1  0
  4  5  1  0
  4  3  1  0
  5  1  1  0
  6 12  1  0
  5  6  1  1
  7  6  2  0
  9  8  1  6
  9 11  1  0
 10  9  1  0
 11 12  1  6
 11 13  1  0
 13 15  1  0
 14 13  2  0
 15 16  1  0
 17 16  1  0
 17 18  1  0
 19 17  2  0
M  END
$$$$
