PVG.pdb
     RDKit          3D

 19 19  0  0  1  0  0  0  0  0999 V2000
    6.9352  -16.5019   21.7765 N   0  0  0  0  0  0  0  0  0  0  0  0
    7.0961  -17.9064   21.6007 C   0  0  0  0  0  0  0  0  0  0  0  0
    6.3178  -18.6216   22.6560 C   0  0  0  0  0  0  0  0  0  0  0  0
    5.8982  -17.5563   23.6309 C   0  0  0  0  0  0  0  0  0  0  0  0
    6.3225  -16.2418   23.0314 C   0  0  1  0  0  0  0  0  0  0  0  0
    7.2801  -15.5103   23.8987 C   0  0  0  0  0  0  0  0  0  0  0  0
    8.5001  -15.4756   23.5908 O   0  0  0  0  0  0  0  0  0  0  0  0
    6.2132  -12.0415   25.6466 C   0  0  0  0  0  0  0  0  0  0  0  0
    6.8496  -13.0373   26.6143 C   0  0  2  0  0  0  0  0  0  0  0  0
    7.7411  -12.2518   27.5265 C   0  0  0  0  0  0  0  0  0  0  0  0
    7.6738  -14.0599   25.8559 C   0  0  2  0  0  0  0  0  0  0  0  0
    6.7524  -14.8807   25.0469 N   0  0  0  0  0  0  0  0  0  0  0  0
    8.3323  -14.9417   26.8533 C   0  0  0  0  0  0  0  0  0  0  0  0
    7.5601  -15.4851   27.7196 O   0  0  0  0  0  0  0  0  0  0  0  0
    9.6999  -15.2350   26.9328 N   0  0  0  0  0  0  0  0  0  0  0  0
   10.1500  -16.1426   28.0041 C   0  0  0  0  0  0  0  0  0  0  0  0
   11.6223  -16.2857   27.9695 C   0  0  0  0  0  0  0  0  0  0  0  0
   12.1992  -17.1278   28.9301 O   0  0  0  0  0  0  0  0  0  0  0  0
   12.3353  -15.6940   27.1336 O   0  0  0  0  0  0  0  0  0  0  0  0
  1  2  1  0
  3  2  1  0
  4  5  1  0
  4  3  1  0
  5  1  1  0
  6 12  1  0
  5  6  1  1
  7  6  2  0
  9  8  1  6
  9 11  1  0
 10  9  1  0
 11 12  1  6
 11 13  1  0
 13 15  1  0
 14 13  2  0
 15 16  1  0
 17 16  1  0
 17 18  1  0
 19 17  2  0
M  END
$$$$
