PVG.pdb
     RDKit          3D

 19 19  0  0  1  0  0  0  0  0999 V2000
    8.4514  -14.5687   20.7116 N   0  0  0  0  0  0  0  0  0  0  0  0
    8.2874  -15.7952   20.0059 C   0  0  0  0  0  0  0  0  0  0  0  0
    6.8986  -16.3001   20.2229 C   0  0  0  0  0  0  0  0  0  0  0  0
    6.3284  -15.4375   21.3147 C   0  0  0  0  0  0  0  0  0  0  0  0
    7.3536  -14.3698   21.5910 C   0  0  1  0  0  0  0  0  0  0  0  0
    7.8401  -14.4056   22.9933 C   0  0  0  0  0  0  0  0  0  0  0  0
    9.0169  -14.7800   23.2363 O   0  0  0  0  0  0  0  0  0  0  0  0
    6.7788  -11.5956   25.7028 C   0  0  0  0  0  0  0  0  0  0  0  0
    6.5545  -13.0291   26.1802 C   0  0  2  0  0  0  0  0  0  0  0  0
    6.9459  -13.0750   27.6253 C   0  0  0  0  0  0  0  0  0  0  0  0
    7.4192  -13.9919   25.3893 C   0  0  2  0  0  0  0  0  0  0  0  0
    6.9307  -14.0073   23.9971 N   0  0  0  0  0  0  0  0  0  0  0  0
    7.2318  -15.3480   25.9655 C   0  0  0  0  0  0  0  0  0  0  0  0
    6.0665  -15.8624   25.8247 O   0  0  0  0  0  0  0  0  0  0  0  0
    8.1974  -16.1098   26.6361 N   0  0  0  0  0  0  0  0  0  0  0  0
    7.8310  -17.4754   27.0543 C   0  0  0  0  0  0  0  0  0  0  0  0
    8.9235  -18.0782   27.8497 C   0  0  0  0  0  0  0  0  0  0  0  0
    8.6635  -19.3218   28.4418 O   0  0  0  0  0  0  0  0  0  0  0  0
   10.0310  -17.5230   27.9990 O   0  0  0  0  0  0  0  0  0  0  0  0
  1  2  1  0
  3  2  1  0
  4  5  1  0
  4  3  1  0
  5  1  1  0
  6 12  1  0
  5  6  1  1
  7  6  2  0
  9  8  1  6
  9 11  1  0
 10  9  1  0
 11 12  1  6
 11 13  1  0
 13 15  1  0
 14 13  2  0
 15 16  1  0
 17 16  1  0
 17 18  1  0
 19 17  2  0
M  END
$$$$
