PVG.pdb
     RDKit          3D

 19 19  0  0  1  0  0  0  0  0999 V2000
    7.9207  -14.4153   20.4858 N   0  0  0  0  0  0  0  0  0  0  0  0
    8.0740  -15.6820   19.8524 C   0  0  0  0  0  0  0  0  0  0  0  0
    7.0055  -16.6038   20.3418 C   0  0  0  0  0  0  0  0  0  0  0  0
    6.3676  -15.8917   21.5025 C   0  0  0  0  0  0  0  0  0  0  0  0
    6.9900  -14.5216   21.5537 C   0  0  1  0  0  0  0  0  0  0  0  0
    7.6912  -14.2692   22.8379 C   0  0  0  0  0  0  0  0  0  0  0  0
    8.9476  -14.3275   22.8849 O   0  0  0  0  0  0  0  0  0  0  0  0
    6.1889  -11.5197   25.3788 C   0  0  0  0  0  0  0  0  0  0  0  0
    6.5952  -12.8200   26.0697 C   0  0  2  0  0  0  0  0  0  0  0  0
    7.2531  -12.4419   27.3612 C   0  0  0  0  0  0  0  0  0  0  0  0
    7.5751  -13.5934   25.2083 C   0  0  2  0  0  0  0  0  0  0  0  0
    6.8867  -13.9710   23.9591 N   0  0  0  0  0  0  0  0  0  0  0  0
    7.9368  -14.8361   25.9369 C   0  0  0  0  0  0  0  0  0  0  0  0
    7.0237  -15.7326   26.0068 O   0  0  0  0  0  0  0  0  0  0  0  0
    9.1674  -15.1189   26.5435 N   0  0  0  0  0  0  0  0  0  0  0  0
    9.3521  -16.4545   27.1404 C   0  0  0  0  0  0  0  0  0  0  0  0
   10.6195  -17.0555   26.6694 C   0  0  0  0  0  0  0  0  0  0  0  0
   10.9076  -16.9356   25.3029 O   0  0  0  0  0  0  0  0  0  0  0  0
   11.4086  -17.6454   27.4353 O   0  0  0  0  0  0  0  0  0  0  0  0
  1  2  1  0
  3  2  1  0
  4  5  1  0
  4  3  1  0
  5  1  1  0
  6 12  1  0
  5  6  1  1
  7  6  2  0
  9  8  1  6
  9 11  1  0
 10  9  1  0
 11 12  1  6
 11 13  1  0
 13 15  1  0
 14 13  2  0
 15 16  1  0
 17 16  1  0
 17 18  1  0
 19 17  2  0
M  END
$$$$
