PVG.pdb
     RDKit          3D

 19 19  0  0  1  0  0  0  0  0999 V2000
    5.3557  -19.0230   20.3340 N   0  0  0  0  0  0  0  0  0  0  0  0
    5.2871  -20.1667   21.1804 C   0  0  0  0  0  0  0  0  0  0  0  0
    4.8725  -19.7356   22.5490 C   0  0  0  0  0  0  0  0  0  0  0  0
    4.9552  -18.2342   22.5347 C   0  0  0  0  0  0  0  0  0  0  0  0
    5.2735  -17.8403   21.1166 C   0  0  1  0  0  0  0  0  0  0  0  0
    6.5547  -17.0974   21.0127 C   0  0  0  0  0  0  0  0  0  0  0  0
    7.5568  -17.6513   20.4900 O   0  0  0  0  0  0  0  0  0  0  0  0
    6.4618  -13.2649   20.0015 C   0  0  0  0  0  0  0  0  0  0  0  0
    7.3680  -13.5135   21.2056 C   0  0  2  0  0  0  0  0  0  0  0  0
    8.5820  -12.6548   21.0239 C   0  0  0  0  0  0  0  0  0  0  0  0
    7.7819  -14.9714   21.2649 C   0  0  2  0  0  0  0  0  0  0  0  0
    6.5739  -15.7796   21.5192 N   0  0  0  0  0  0  0  0  0  0  0  0
    8.7047  -15.1346   22.4171 C   0  0  0  0  0  0  0  0  0  0  0  0
    8.1884  -14.9698   23.5784 O   0  0  0  0  0  0  0  0  0  0  0  0
   10.0679  -15.4516   22.3554 N   0  0  0  0  0  0  0  0  0  0  0  0
   10.7881  -15.6523   23.6262 C   0  0  0  0  0  0  0  0  0  0  0  0
   12.2184  -15.9286   23.3665 C   0  0  0  0  0  0  0  0  0  0  0  0
   13.0427  -16.1041   24.4865 O   0  0  0  0  0  0  0  0  0  0  0  0
   12.6890  -16.0058   22.2134 O   0  0  0  0  0  0  0  0  0  0  0  0
  1  2  1  0
  3  2  1  0
  4  5  1  0
  4  3  1  0
  5  1  1  0
  6 12  1  0
  5  6  1  1
  7  6  2  0
  9  8  1  6
  9 11  1  0
 10  9  1  0
 11 12  1  1
 11 13  1  0
 13 15  1  0
 14 13  2  0
 15 16  1  0
 17 16  1  0
 17 18  1  0
 19 17  2  0
M  END
$$$$
