PVG.pdb
     RDKit          3D

 19 19  0  0  1  0  0  0  0  0999 V2000
    8.1084  -14.6317   20.6884 N   0  0  0  0  0  0  0  0  0  0  0  0
    8.1142  -15.8634   19.9728 C   0  0  0  0  0  0  0  0  0  0  0  0
    6.8654  -16.6180   20.2919 C   0  0  0  0  0  0  0  0  0  0  0  0
    6.2401  -15.8820   21.4446 C   0  0  0  0  0  0  0  0  0  0  0  0
    7.0708  -14.6444   21.6585 C   0  0  1  0  0  0  0  0  0  0  0  0
    7.6718  -14.5972   23.0153 C   0  0  0  0  0  0  0  0  0  0  0  0
    8.8846  -14.8953   23.1714 O   0  0  0  0  0  0  0  0  0  0  0  0
    6.5796  -11.7860   25.6936 C   0  0  0  0  0  0  0  0  0  0  0  0
    6.5573  -13.2031   26.2631 C   0  0  2  0  0  0  0  0  0  0  0  0
    7.1101  -13.1246   27.6531 C   0  0  0  0  0  0  0  0  0  0  0  0
    7.4221  -14.1245   25.4243 C   0  0  2  0  0  0  0  0  0  0  0  0
    6.8257  -14.2108   24.0775 N   0  0  0  0  0  0  0  0  0  0  0  0
    7.3788  -15.4744   26.0422 C   0  0  0  0  0  0  0  0  0  0  0  0
    6.2170  -16.0029   26.1573 O   0  0  0  0  0  0  0  0  0  0  0  0
    8.4745  -16.2168   26.5015 N   0  0  0  0  0  0  0  0  0  0  0  0
    8.2185  -17.5677   27.0341 C   0  0  0  0  0  0  0  0  0  0  0  0
    9.2208  -17.9096   28.0674 C   0  0  0  0  0  0  0  0  0  0  0  0
    9.0915  -19.1610   28.6853 O   0  0  0  0  0  0  0  0  0  0  0  0
   10.1453  -17.1354   28.3887 O   0  0  0  0  0  0  0  0  0  0  0  0
  1  2  1  0
  3  2  1  0
  4  5  1  0
  4  3  1  0
  5  1  1  0
  6 12  1  0
  5  6  1  1
  7  6  2  0
  9  8  1  6
  9 11  1  0
 10  9  1  0
 11 12  1  6
 11 13  1  0
 13 15  1  0
 14 13  2  0
 15 16  1  0
 17 16  1  0
 17 18  1  0
 19 17  2  0
M  END
$$$$
