PVG.pdb
     RDKit          3D

 19 19  0  0  1  0  0  0  0  0999 V2000
    8.4161  -14.2964   20.8923 N   0  0  0  0  0  0  0  0  0  0  0  0
    8.1548  -15.4355   20.0777 C   0  0  0  0  0  0  0  0  0  0  0  0
    6.7573  -15.9010   20.3253 C   0  0  0  0  0  0  0  0  0  0  0  0
    6.2902  -15.1325   21.5304 C   0  0  0  0  0  0  0  0  0  0  0  0
    7.3791  -14.1432   21.8510 C   0  0  1  0  0  0  0  0  0  0  0  0
    7.9397  -14.3440   23.2111 C   0  0  0  0  0  0  0  0  0  0  0  0
    9.0807  -14.8579   23.3464 O   0  0  0  0  0  0  0  0  0  0  0  0
    5.5026  -13.1382   26.3559 C   0  0  0  0  0  0  0  0  0  0  0  0
    7.0151  -13.0600   26.5546 C   0  0  2  0  0  0  0  0  0  0  0  0
    7.4327  -11.6684   26.1898 C   0  0  0  0  0  0  0  0  0  0  0  0
    7.7197  -14.0544   25.6518 C   0  0  2  0  0  0  0  0  0  0  0  0
    7.1394  -13.9362   24.3004 N   0  0  0  0  0  0  0  0  0  0  0  0
    7.4319  -15.4175   26.1666 C   0  0  0  0  0  0  0  0  0  0  0  0
    6.2853  -15.9025   25.8630 O   0  0  0  0  0  0  0  0  0  0  0  0
    8.2863  -16.2146   26.9394 N   0  0  0  0  0  0  0  0  0  0  0  0
    7.8758  -17.6045   27.2110 C   0  0  0  0  0  0  0  0  0  0  0  0
    8.9094  -18.2970   28.0119 C   0  0  0  0  0  0  0  0  0  0  0  0
    8.6610  -19.6357   28.3445 O   0  0  0  0  0  0  0  0  0  0  0  0
    9.9595  -17.7347   28.3838 O   0  0  0  0  0  0  0  0  0  0  0  0
  1  2  1  0
  3  2  1  0
  4  5  1  0
  4  3  1  0
  5  1  1  0
  6 12  1  0
  5  6  1  1
  7  6  2  0
  9  8  1  6
  9 11  1  0
 10  9  1  0
 11 12  1  6
 11 13  1  0
 13 15  1  0
 14 13  2  0
 15 16  1  0
 17 16  1  0
 17 18  1  0
 19 17  2  0
M  END
$$$$
