PVG.pdb
     RDKit          3D

 19 19  0  0  1  0  0  0  0  0999 V2000
    8.2508  -14.2970   20.5828 N   0  0  0  0  0  0  0  0  0  0  0  0
    8.2528  -15.5079   19.8325 C   0  0  0  0  0  0  0  0  0  0  0  0
    6.9814  -16.2462   20.0960 C   0  0  0  0  0  0  0  0  0  0  0  0
    6.3388  -15.5307   21.2520 C   0  0  0  0  0  0  0  0  0  0  0  0
    7.1867  -14.3164   21.5237 C   0  0  1  0  0  0  0  0  0  0  0  0
    7.7509  -14.3194   22.8970 C   0  0  0  0  0  0  0  0  0  0  0  0
    8.9722  -14.5704   23.0695 O   0  0  0  0  0  0  0  0  0  0  0  0
    6.3526  -11.7053   25.5868 C   0  0  0  0  0  0  0  0  0  0  0  0
    6.4875  -13.1130   26.1641 C   0  0  2  0  0  0  0  0  0  0  0  0
    7.0530  -12.9677   27.5435 C   0  0  0  0  0  0  0  0  0  0  0  0
    7.4287  -13.9456   25.3148 C   0  0  2  0  0  0  0  0  0  0  0  0
    6.8615  -14.0332   23.9555 N   0  0  0  0  0  0  0  0  0  0  0  0
    7.4713  -15.3131   25.8926 C   0  0  0  0  0  0  0  0  0  0  0  0
    6.3442  -15.9133   26.0000 O   0  0  0  0  0  0  0  0  0  0  0  0
    8.6133  -16.0018   26.3219 N   0  0  0  0  0  0  0  0  0  0  0  0
    8.4331  -17.3500   26.8909 C   0  0  0  0  0  0  0  0  0  0  0  0
    9.2304  -17.4945   28.1290 C   0  0  0  0  0  0  0  0  0  0  0  0
    9.2426  -18.7608   28.7299 O   0  0  0  0  0  0  0  0  0  0  0  0
    9.8689  -16.5473   28.6312 O   0  0  0  0  0  0  0  0  0  0  0  0
  1  2  1  0
  3  2  1  0
  4  5  1  0
  4  3  1  0
  5  1  1  0
  6 12  1  0
  5  6  1  1
  7  6  2  0
  9  8  1  6
  9 11  1  0
 10  9  1  0
 11 12  1  6
 11 13  1  0
 13 15  1  0
 14 13  2  0
 15 16  1  0
 17 16  1  0
 17 18  1  0
 19 17  2  0
M  END
$$$$
