PVG.pdb
     RDKit          3D

 19 19  0  0  1  0  0  0  0  0999 V2000
    7.4713  -14.4243   20.3396 N   0  0  0  0  0  0  0  0  0  0  0  0
    7.6023  -15.6688   19.6590 C   0  0  0  0  0  0  0  0  0  0  0  0
    6.6406  -16.6490   20.2466 C   0  0  0  0  0  0  0  0  0  0  0  0
    6.1155  -15.9918   21.4931 C   0  0  0  0  0  0  0  0  0  0  0  0
    6.6800  -14.5959   21.5067 C   0  0  1  0  0  0  0  0  0  0  0  0
    7.5177  -14.3390   22.7053 C   0  0  0  0  0  0  0  0  0  0  0  0
    8.7722  -14.3506   22.6041 O   0  0  0  0  0  0  0  0  0  0  0  0
    6.3909  -11.6140   25.5223 C   0  0  0  0  0  0  0  0  0  0  0  0
    6.7693  -12.9873   26.0735 C   0  0  2  0  0  0  0  0  0  0  0  0
    7.5175  -12.7550   27.3503 C   0  0  0  0  0  0  0  0  0  0  0  0
    7.6586  -13.7253   25.0912 C   0  0  2  0  0  0  0  0  0  0  0  0
    6.8404  -14.0905   23.9189 N   0  0  0  0  0  0  0  0  0  0  0  0
    8.1194  -14.9756   25.7474 C   0  0  0  0  0  0  0  0  0  0  0  0
    7.1991  -15.7740   26.1446 O   0  0  0  0  0  0  0  0  0  0  0  0
    9.4481  -15.3614   25.9667 N   0  0  0  0  0  0  0  0  0  0  0  0
    9.6981  -16.7312   26.4516 C   0  0  0  0  0  0  0  0  0  0  0  0
   11.1510  -16.9608   26.6122 C   0  0  0  0  0  0  0  0  0  0  0  0
   11.5401  -18.1825   27.1786 O   0  0  0  0  0  0  0  0  0  0  0  0
   12.0062  -16.1203   26.2666 O   0  0  0  0  0  0  0  0  0  0  0  0
  1  2  1  0
  3  2  1  0
  4  5  1  0
  4  3  1  0
  5  1  1  0
  6 12  1  0
  5  6  1  1
  7  6  2  0
  9  8  1  6
  9 11  1  0
 10  9  1  0
 11 12  1  6
 11 13  1  0
 13 15  1  0
 14 13  2  0
 15 16  1  0
 17 16  1  0
 17 18  1  0
 19 17  2  0
M  END
$$$$
