PVG.pdb
     RDKit          3D

 19 19  0  0  1  0  0  0  0  0999 V2000
    8.0465  -14.1016   20.7654 N   0  0  0  0  0  0  0  0  0  0  0  0
    7.9783  -15.2654   19.9468 C   0  0  0  0  0  0  0  0  0  0  0  0
    6.7984  -16.0828   20.3597 C   0  0  0  0  0  0  0  0  0  0  0  0
    6.3213  -15.4697   21.6472 C   0  0  0  0  0  0  0  0  0  0  0  0
    7.1501  -14.2307   21.8598 C   0  0  1  0  0  0  0  0  0  0  0  0
    7.9283  -14.2836   23.1231 C   0  0  0  0  0  0  0  0  0  0  0  0
    9.1469  -14.5974   23.0930 O   0  0  0  0  0  0  0  0  0  0  0  0
    5.8000  -13.4460   26.6063 C   0  0  0  0  0  0  0  0  0  0  0  0
    7.2866  -13.0972   26.5723 C   0  0  2  0  0  0  0  0  0  0  0  0
    7.3898  -11.6630   26.1524 C   0  0  0  0  0  0  0  0  0  0  0  0
    8.0132  -13.9731   25.5697 C   0  0  2  0  0  0  0  0  0  0  0  0
    7.2379  -13.9709   24.3143 N   0  0  0  0  0  0  0  0  0  0  0  0
    8.0305  -15.3580   26.1060 C   0  0  0  0  0  0  0  0  0  0  0  0
    6.9138  -15.9860   26.0770 O   0  0  0  0  0  0  0  0  0  0  0  0
    9.1391  -16.0355   26.6300 N   0  0  0  0  0  0  0  0  0  0  0  0
    8.9563  -17.4368   27.0506 C   0  0  0  0  0  0  0  0  0  0  0  0
    9.7679  -17.7205   28.2549 C   0  0  0  0  0  0  0  0  0  0  0  0
   10.0030  -19.0689   28.5566 O   0  0  0  0  0  0  0  0  0  0  0  0
   10.2306  -16.8174   28.9811 O   0  0  0  0  0  0  0  0  0  0  0  0
  1  2  1  0
  3  2  1  0
  4  5  1  0
  4  3  1  0
  5  1  1  0
  6 12  1  0
  5  6  1  1
  7  6  2  0
  9  8  1  6
  9 11  1  0
 10  9  1  0
 11 12  1  6
 11 13  1  0
 13 15  1  0
 14 13  2  0
 15 16  1  0
 17 16  1  0
 17 18  1  0
 19 17  2  0
M  END
$$$$
