PVG.pdb
     RDKit          3D

 19 19  0  0  1  0  0  0  0  0999 V2000
    8.1403  -14.5568   20.5789 N   0  0  0  0  0  0  0  0  0  0  0  0
    8.1696  -15.7839   19.8562 C   0  0  0  0  0  0  0  0  0  0  0  0
    6.9304  -16.5593   20.1627 C   0  0  0  0  0  0  0  0  0  0  0  0
    6.2864  -15.8398   21.3154 C   0  0  0  0  0  0  0  0  0  0  0  0
    7.0967  -14.5910   21.5420 C   0  0  1  0  0  0  0  0  0  0  0  0
    7.6880  -14.5426   22.9030 C   0  0  0  0  0  0  0  0  0  0  0  0
    8.9107  -14.7957   23.0616 O   0  0  0  0  0  0  0  0  0  0  0  0
    6.3556  -11.7477   25.3684 C   0  0  0  0  0  0  0  0  0  0  0  0
    6.5198  -13.0837   26.0902 C   0  0  2  0  0  0  0  0  0  0  0  0
    7.1443  -12.7888   27.4194 C   0  0  0  0  0  0  0  0  0  0  0  0
    7.4259  -14.0061   25.2973 C   0  0  2  0  0  0  0  0  0  0  0  0
    6.8218  -14.2070   23.9662 N   0  0  0  0  0  0  0  0  0  0  0  0
    7.4633  -15.3161   25.9962 C   0  0  0  0  0  0  0  0  0  0  0  0
    6.3306  -15.8848   26.1854 O   0  0  0  0  0  0  0  0  0  0  0  0
    8.6057  -15.9821   26.4586 N   0  0  0  0  0  0  0  0  0  0  0  0
    8.4306  -17.3170   27.0598 C   0  0  0  0  0  0  0  0  0  0  0  0
    9.3557  -17.4902   28.2015 C   0  0  0  0  0  0  0  0  0  0  0  0
    9.2961  -18.7126   28.8848 O   0  0  0  0  0  0  0  0  0  0  0  0
   10.1587  -16.6033   28.5560 O   0  0  0  0  0  0  0  0  0  0  0  0
  1  2  1  0
  3  2  1  0
  4  5  1  0
  4  3  1  0
  5  1  1  0
  6 12  1  0
  5  6  1  1
  7  6  2  0
  9  8  1  6
  9 11  1  0
 10  9  1  0
 11 12  1  6
 11 13  1  0
 13 15  1  0
 14 13  2  0
 15 16  1  0
 17 16  1  0
 17 18  1  0
 19 17  2  0
M  END
$$$$
