KHN.pdb
     RDKit          3D

 28 28  0  0  1  0  0  0  0  0999 V2000
    8.2684  -13.4314   16.7288 N   0  0  0  0  0  0  0  0  0  0  0  0
    7.9322  -14.6266   17.4503 C   0  0  1  0  0  0  0  0  0  0  0  0
    8.7121  -15.7888   16.9468 C   0  0  0  0  0  0  0  0  0  0  0  0
    9.6792  -15.4680   15.8863 C   0  0  0  0  0  0  0  0  0  0  0  0
    9.6332  -16.3960   14.7118 C   0  0  0  0  0  0  0  0  0  0  0  0
   10.7976  -15.9377   13.7927 C   0  0  0  0  0  0  0  0  0  0  0  0
   10.7932  -16.8196   12.6599 N   0  0  0  0  0  0  0  0  0  0  0  0
    8.2865  -14.4753   18.9144 C   0  0  0  0  0  0  0  0  0  0  0  0
    9.3513  -13.8908   19.2417 O   0  0  0  0  0  0  0  0  0  0  0  0
    7.4393  -14.9811   19.9398 N   0  0  0  0  0  0  0  0  0  0  0  0
    7.7689  -14.7284   21.3276 C   0  0  1  0  0  0  0  0  0  0  0  0
    6.5462  -14.3933   22.1518 C   0  0  0  0  0  0  0  0  0  0  0  0
    6.8415  -14.1957   23.5712 C   0  0  0  0  0  0  0  0  0  0  0  0
    8.0599  -14.1902   24.1991 C   0  0  0  0  0  0  0  0  0  0  0  0
    7.8234  -13.9699   25.5013 N   0  0  0  0  0  0  0  0  0  0  0  0
    6.5046  -13.8372   25.7149 C   0  0  0  0  0  0  0  0  0  0  0  0
    5.9196  -13.9783   24.5222 N   0  0  0  0  0  0  0  0  0  0  0  0
    8.5253  -15.8922   21.9093 C   0  0  0  0  0  0  0  0  0  0  0  0
    8.2268  -17.0816   21.6199 O   0  0  0  0  0  0  0  0  0  0  0  0
   11.8328  -17.4937   21.1932 N   0  0  0  0  0  0  0  0  0  0  0  0
   12.5145  -16.8082   22.2398 C   0  0  0  0  0  0  0  0  0  0  0  0
   13.7051  -16.5416   22.0584 O   0  0  0  0  0  0  0  0  0  0  0  0
   11.7660  -16.4736   23.4377 C   0  0  0  0  0  0  0  0  0  0  0  0
   10.3029  -16.8499   23.4349 C   0  0  2  0  0  0  0  0  0  0  0  0
    9.6053  -15.6967   22.8073 N   0  0  0  0  0  0  0  0  0  0  0  0
    9.8402  -16.9325   24.8336 C   0  0  0  0  0  0  0  0  0  0  0  0
    9.1220  -16.0462   25.3185 O   0  0  0  0  0  0  0  0  0  0  0  0
   10.2084  -18.0070   25.6154 O   0  0  0  0  0  0  0  0  0  0  0  0
  2  3  1  0
  2  1  1  6
  3  4  1  0
  5  4  1  0
  5  6  1  0
  7  6  1  0
  8  9  2  0
  8  2  1  0
 10  8  1  0
 11 10  1  0
 11 12  1  1
 13 12  1  0
 14 13  2  0
 15 14  1  0
 16 15  1  0
 16 17  2  0
 17 13  1  0
 18 11  1  0
 18 19  2  0
 21 20  1  0
 21 22  2  0
 23 21  1  0
 24 25  1  0
 24 23  1  1
 25 18  1  0
 26 24  1  0
 27 26  2  0
 28 26  1  0
M  END
$$$$
