KHN.pdb
     RDKit          3D

 28 28  0  0  1  0  0  0  0  0999 V2000
   11.6642  -17.0886   15.4691 N   0  0  0  0  0  0  0  0  0  0  0  0
   12.8364  -16.2677   15.3505 C   0  0  1  0  0  0  0  0  0  0  0  0
   12.6922  -15.2924   14.2369 C   0  0  0  0  0  0  0  0  0  0  0  0
   13.2546  -15.7369   12.9528 C   0  0  0  0  0  0  0  0  0  0  0  0
   14.2006  -14.7601   12.3254 C   0  0  0  0  0  0  0  0  0  0  0  0
   14.5940  -15.3992   10.9662 C   0  0  0  0  0  0  0  0  0  0  0  0
   15.4385  -14.4491   10.2990 N   0  0  0  0  0  0  0  0  0  0  0  0
   13.0382  -15.4525   16.6101 C   0  0  0  0  0  0  0  0  0  0  0  0
   14.0728  -14.7483   16.7386 O   0  0  0  0  0  0  0  0  0  0  0  0
   12.0802  -15.4614   17.6623 N   0  0  0  0  0  0  0  0  0  0  0  0
   12.3326  -14.6932   18.8642 C   0  0  1  0  0  0  0  0  0  0  0  0
   11.0528  -14.2443   19.5329 C   0  0  0  0  0  0  0  0  0  0  0  0
   10.2182  -15.3556   19.9902 C   0  0  0  0  0  0  0  0  0  0  0  0
   10.4209  -16.7015   19.8276 C   0  0  0  0  0  0  0  0  0  0  0  0
    9.3887  -17.3227   20.4182 N   0  0  0  0  0  0  0  0  0  0  0  0
    8.5463  -16.4194   20.9448 C   0  0  0  0  0  0  0  0  0  0  0  0
    9.0705  -15.2210   20.6730 N   0  0  0  0  0  0  0  0  0  0  0  0
   13.2077  -15.4696   19.8110 C   0  0  0  0  0  0  0  0  0  0  0  0
   13.2770  -16.7267   19.7618 O   0  0  0  0  0  0  0  0  0  0  0  0
   17.5656  -15.7573   20.1718 N   0  0  0  0  0  0  0  0  0  0  0  0
   16.9565  -14.5848   20.7049 C   0  0  0  0  0  0  0  0  0  0  0  0
   17.1893  -13.5174   20.1323 O   0  0  0  0  0  0  0  0  0  0  0  0
   16.1109  -14.7271   21.8761 C   0  0  0  0  0  0  0  0  0  0  0  0
   14.8795  -15.5859   21.7074 C   0  0  2  0  0  0  0  0  0  0  0  0
   13.9900  -14.8169   20.7974 N   0  0  0  0  0  0  0  0  0  0  0  0
   14.1950  -15.6805   23.0112 C   0  0  0  0  0  0  0  0  0  0  0  0
   14.6651  -16.3713   23.9268 O   0  0  0  0  0  0  0  0  0  0  0  0
   13.0176  -14.9938   23.2190 O   0  0  0  0  0  0  0  0  0  0  0  0
  2  3  1  0
  2  1  1  1
  3  4  1  0
  5  4  1  0
  5  6  1  0
  7  6  1  0
  8  9  2  0
  8  2  1  0
 10  8  1  0
 11 10  1  0
 11 12  1  1
 13 12  1  0
 14 13  2  0
 15 14  1  0
 16 15  1  0
 16 17  2  0
 17 13  1  0
 18 11  1  0
 18 19  2  0
 21 20  1  0
 21 22  2  0
 23 21  1  0
 24 25  1  0
 24 23  1  1
 25 18  1  0
 26 24  1  0
 27 26  2  0
 28 26  1  0
M  END
$$$$
