KHN.pdb
     RDKit          3D

 28 28  0  0  1  0  0  0  0  0999 V2000
    8.3746  -19.1461   15.6125 N   0  0  0  0  0  0  0  0  0  0  0  0
    9.7051  -18.6082   15.6606 C   0  0  1  0  0  0  0  0  0  0  0  0
   10.1053  -18.0601   14.3371 C   0  0  0  0  0  0  0  0  0  0  0  0
    9.0621  -18.1266   13.3025 C   0  0  0  0  0  0  0  0  0  0  0  0
    9.5890  -18.1933   11.9023 C   0  0  0  0  0  0  0  0  0  0  0  0
    8.3382  -18.0395   10.9954 C   0  0  0  0  0  0  0  0  0  0  0  0
    8.8001  -18.1588    9.6414 N   0  0  0  0  0  0  0  0  0  0  0  0
    9.7720  -17.4551   16.6394 C   0  0  0  0  0  0  0  0  0  0  0  0
   10.8625  -16.8553   16.8235 O   0  0  0  0  0  0  0  0  0  0  0  0
    8.6239  -17.0274   17.3632 N   0  0  0  0  0  0  0  0  0  0  0  0
    8.7571  -15.9893   18.3647 C   0  0  1  0  0  0  0  0  0  0  0  0
    7.4479  -15.2796   18.6274 C   0  0  0  0  0  0  0  0  0  0  0  0
    7.5724  -14.1649   19.5670 C   0  0  0  0  0  0  0  0  0  0  0  0
    7.0261  -14.0346   20.8174 C   0  0  0  0  0  0  0  0  0  0  0  0
    7.4215  -12.8430   21.2904 N   0  0  0  0  0  0  0  0  0  0  0  0
    8.1942  -12.2205   20.3859 C   0  0  0  0  0  0  0  0  0  0  0  0
    8.2754  -13.0448   19.3377 N   0  0  0  0  0  0  0  0  0  0  0  0
    9.3443  -16.5518   19.6311 C   0  0  0  0  0  0  0  0  0  0  0  0
    9.0384  -17.7024   20.0437 O   0  0  0  0  0  0  0  0  0  0  0  0
   12.4707  -17.1142   23.8028 N   0  0  0  0  0  0  0  0  0  0  0  0
   12.9930  -16.1037   22.9448 C   0  0  0  0  0  0  0  0  0  0  0  0
   14.1129  -15.6605   23.2107 O   0  0  0  0  0  0  0  0  0  0  0  0
   12.1767  -15.6693   21.8258 C   0  0  0  0  0  0  0  0  0  0  0  0
   10.8507  -16.3731   21.6567 C   0  0  2  0  0  0  0  0  0  0  0  0
   10.2663  -15.8090   20.4114 N   0  0  0  0  0  0  0  0  0  0  0  0
    9.9682  -15.9787   22.7717 C   0  0  0  0  0  0  0  0  0  0  0  0
   10.1885  -16.3726   23.9261 O   0  0  0  0  0  0  0  0  0  0  0  0
    8.8837  -15.1617   22.5319 O   0  0  0  0  0  0  0  0  0  0  0  0
  2  3  1  0
  2  1  1  6
  3  4  1  0
  5  4  1  0
  5  6  1  0
  7  6  1  0
  8  9  2  0
  8  2  1  0
 10  8  1  0
 11 10  1  0
 11 12  1  1
 13 12  1  0
 14 13  2  0
 15 14  1  0
 16 15  1  0
 16 17  2  0
 17 13  1  0
 18 11  1  0
 18 19  2  0
 21 20  1  0
 21 22  2  0
 23 21  1  0
 24 25  1  0
 24 23  1  1
 25 18  1  0
 26 24  1  0
 27 26  2  0
 28 26  1  0
M  END
$$$$
