KHN.pdb
     RDKit          3D

 28 28  0  0  1  0  0  0  0  0999 V2000
    9.6575  -18.2478   16.9035 N   0  0  0  0  0  0  0  0  0  0  0  0
   10.7922  -17.3966   16.6804 C   0  0  1  0  0  0  0  0  0  0  0  0
   10.5374  -16.4539   15.5585 C   0  0  0  0  0  0  0  0  0  0  0  0
   10.5195  -17.0745   14.2253 C   0  0  0  0  0  0  0  0  0  0  0  0
   10.3727  -16.1013   13.0966 C   0  0  0  0  0  0  0  0  0  0  0  0
   10.2285  -16.9805   11.8251 C   0  0  0  0  0  0  0  0  0  0  0  0
   10.0147  -16.0787   10.7287 N   0  0  0  0  0  0  0  0  0  0  0  0
   11.0602  -16.5447   17.9029 C   0  0  0  0  0  0  0  0  0  0  0  0
   12.0590  -15.7800   17.9238 O   0  0  0  0  0  0  0  0  0  0  0  0
   10.2047  -16.5859   19.0392 N   0  0  0  0  0  0  0  0  0  0  0  0
   10.4692  -15.7125   20.1642 C   0  0  1  0  0  0  0  0  0  0  0  0
    9.2011  -15.1194   20.7357 C   0  0  0  0  0  0  0  0  0  0  0  0
    8.4838  -14.2652   19.7887 C   0  0  0  0  0  0  0  0  0  0  0  0
    8.6964  -12.9425   19.4984 C   0  0  0  0  0  0  0  0  0  0  0  0
    7.7916  -12.5998   18.5690 N   0  0  0  0  0  0  0  0  0  0  0  0
    7.0196  -13.6554   18.2649 C   0  0  0  0  0  0  0  0  0  0  0  0
    7.4581  -14.6656   19.0212 N   0  0  0  0  0  0  0  0  0  0  0  0
   11.2639  -16.4366   21.2173 C   0  0  0  0  0  0  0  0  0  0  0  0
   11.0145  -17.6332   21.5229 O   0  0  0  0  0  0  0  0  0  0  0  0
   16.6582  -16.4835   23.5594 N   0  0  0  0  0  0  0  0  0  0  0  0
   15.3675  -16.1303   24.0486 C   0  0  0  0  0  0  0  0  0  0  0  0
   15.1678  -16.2587   25.2589 O   0  0  0  0  0  0  0  0  0  0  0  0
   14.3848  -15.6475   23.0956 C   0  0  0  0  0  0  0  0  0  0  0  0
   13.2148  -16.5639   22.8243 C   0  0  2  0  0  0  0  0  0  0  0  0
   12.3264  -15.8007   21.9085 N   0  0  0  0  0  0  0  0  0  0  0  0
   12.4758  -16.7623   24.0860 C   0  0  0  0  0  0  0  0  0  0  0  0
   12.8606  -17.5906   24.9241 O   0  0  0  0  0  0  0  0  0  0  0  0
   11.3425  -16.0195   24.3410 O   0  0  0  0  0  0  0  0  0  0  0  0
  2  3  1  0
  2  1  1  1
  3  4  1  0
  5  4  1  0
  5  6  1  0
  7  6  1  0
  8  9  2  0
  8  2  1  0
 10  8  1  0
 11 10  1  0
 11 12  1  1
 13 12  1  0
 14 13  2  0
 15 14  1  0
 16 15  1  0
 16 17  2  0
 17 13  1  0
 18 11  1  0
 18 19  2  0
 21 20  1  0
 21 22  2  0
 23 21  1  0
 24 25  1  0
 24 23  1  1
 25 18  1  0
 26 24  1  0
 27 26  2  0
 28 26  1  0
M  END
$$$$
