KHN.pdb
     RDKit          3D

 28 28  0  0  1  0  0  0  0  0999 V2000
   10.2157  -18.6863   17.4398 N   0  0  0  0  0  0  0  0  0  0  0  0
   11.4777  -18.0305   17.6379 C   0  0  1  0  0  0  0  0  0  0  0  0
   11.8033  -17.1454   16.4878 C   0  0  0  0  0  0  0  0  0  0  0  0
   11.7366  -17.7974   15.1712 C   0  0  0  0  0  0  0  0  0  0  0  0
   12.2318  -16.9499   14.0402 C   0  0  0  0  0  0  0  0  0  0  0  0
   12.0826  -17.8401   12.7768 C   0  0  0  0  0  0  0  0  0  0  0  0
   12.6141  -17.0820   11.6797 N   0  0  0  0  0  0  0  0  0  0  0  0
   11.4224  -17.1401   18.8611 C   0  0  0  0  0  0  0  0  0  0  0  0
   12.4350  -16.4709   19.1921 O   0  0  0  0  0  0  0  0  0  0  0  0
   10.2449  -17.0387   19.6536 N   0  0  0  0  0  0  0  0  0  0  0  0
   10.2349  -16.1650   20.8090 C   0  0  1  0  0  0  0  0  0  0  0  0
    8.8545  -15.6209   21.1001 C   0  0  0  0  0  0  0  0  0  0  0  0
    8.3930  -14.6515   20.1059 C   0  0  0  0  0  0  0  0  0  0  0  0
    9.0695  -14.1442   19.0271 C   0  0  0  0  0  0  0  0  0  0  0  0
    8.2350  -13.2920   18.4126 N   0  0  0  0  0  0  0  0  0  0  0  0
    7.0617  -13.2447   19.0637 C   0  0  0  0  0  0  0  0  0  0  0  0
    7.1770  -14.0833   20.0972 N   0  0  0  0  0  0  0  0  0  0  0  0
   10.8151  -16.8687   22.0061 C   0  0  0  0  0  0  0  0  0  0  0  0
   10.4911  -18.0516   22.2948 O   0  0  0  0  0  0  0  0  0  0  0  0
   14.4764  -17.4196   22.4181 N   0  0  0  0  0  0  0  0  0  0  0  0
   14.6844  -16.4725   23.4619 C   0  0  0  0  0  0  0  0  0  0  0  0
   15.7921  -15.9334   23.5227 O   0  0  0  0  0  0  0  0  0  0  0  0
   13.5864  -16.2098   24.3743 C   0  0  0  0  0  0  0  0  0  0  0  0
   12.2836  -16.9102   24.0668 C   0  0  2  0  0  0  0  0  0  0  0  0
   11.7507  -16.2283   22.8579 N   0  0  0  0  0  0  0  0  0  0  0  0
   11.3403  -16.6453   25.1701 C   0  0  0  0  0  0  0  0  0  0  0  0
   10.4187  -15.8273   25.0353 O   0  0  0  0  0  0  0  0  0  0  0  0
   11.4811  -17.3133   26.3680 O   0  0  0  0  0  0  0  0  0  0  0  0
  2  3  1  0
  2  1  1  6
  3  4  1  0
  5  4  1  0
  5  6  1  0
  7  6  1  0
  8  9  2  0
  8  2  1  0
 10  8  1  0
 11 10  1  0
 11 12  1  1
 13 12  1  0
 14 13  2  0
 15 14  1  0
 16 15  1  0
 16 17  2  0
 17 13  1  0
 18 11  1  0
 18 19  2  0
 21 20  1  0
 21 22  2  0
 23 21  1  0
 24 25  1  0
 24 23  1  1
 25 18  1  0
 26 24  1  0
 27 26  2  0
 28 26  1  0
M  END
$$$$
