KHN.pdb
     RDKit          3D

 28 28  0  0  1  0  0  0  0  0999 V2000
    7.8355  -16.2232   19.7263 N   0  0  0  0  0  0  0  0  0  0  0  0
    8.7306  -15.5693   20.6390 C   0  0  1  0  0  0  0  0  0  0  0  0
    8.0229  -14.5163   21.4153 C   0  0  0  0  0  0  0  0  0  0  0  0
    7.0753  -13.7077   20.6336 C   0  0  0  0  0  0  0  0  0  0  0  0
    7.6383  -13.1655   19.3562 C   0  0  0  0  0  0  0  0  0  0  0  0
    6.5408  -12.2153   18.8056 C   0  0  0  0  0  0  0  0  0  0  0  0
    6.9913  -11.7781   17.5145 N   0  0  0  0  0  0  0  0  0  0  0  0
    9.2671  -16.5594   21.6510 C   0  0  0  0  0  0  0  0  0  0  0  0
    8.5333  -17.4978   22.0555 O   0  0  0  0  0  0  0  0  0  0  0  0
   10.5914  -16.4561   22.1614 N   0  0  0  0  0  0  0  0  0  0  0  0
   11.1318  -17.5316   22.9674 C   0  0  1  0  0  0  0  0  0  0  0  0
   12.6399  -17.6044   22.8833 C   0  0  0  0  0  0  0  0  0  0  0  0
   13.1224  -18.1760   21.6258 C   0  0  0  0  0  0  0  0  0  0  0  0
   12.4007  -18.7693   20.6228 C   0  0  0  0  0  0  0  0  0  0  0  0
   13.2797  -19.1342   19.6771 N   0  0  0  0  0  0  0  0  0  0  0  0
   14.5244  -18.7934   20.0475 C   0  0  0  0  0  0  0  0  0  0  0  0
   14.4084  -18.2080   21.2428 N   0  0  0  0  0  0  0  0  0  0  0  0
   10.6633  -17.4082   24.3922 C   0  0  0  0  0  0  0  0  0  0  0  0
   10.6304  -16.2941   24.9798 O   0  0  0  0  0  0  0  0  0  0  0  0
    8.2118  -19.5604   29.1321 N   0  0  0  0  0  0  0  0  0  0  0  0
    9.0144  -20.1939   28.1400 C   0  0  0  0  0  0  0  0  0  0  0  0
    9.7110  -21.1458   28.5006 O   0  0  0  0  0  0  0  0  0  0  0  0
    8.9569  -19.6788   26.7841 C   0  0  0  0  0  0  0  0  0  0  0  0
    9.7303  -18.4079   26.5217 C   0  0  2  0  0  0  0  0  0  0  0  0
   10.2396  -18.5419   25.1313 N   0  0  0  0  0  0  0  0  0  0  0  0
   10.9032  -18.3829   27.4167 C   0  0  0  0  0  0  0  0  0  0  0  0
   10.8140  -17.9338   28.5686 O   0  0  0  0  0  0  0  0  0  0  0  0
   12.1161  -18.8642   26.9712 O   0  0  0  0  0  0  0  0  0  0  0  0
  2  3  1  0
  2  1  1  6
  3  4  1  0
  5  4  1  0
  5  6  1  0
  7  6  1  0
  8  9  2  0
  8  2  1  0
 10  8  1  0
 11 10  1  0
 11 12  1  1
 13 12  1  0
 14 13  2  0
 15 14  1  0
 16 15  1  0
 16 17  2  0
 17 13  1  0
 18 11  1  0
 18 19  2  0
 21 20  1  0
 21 22  2  0
 23 21  1  0
 24 25  1  0
 24 23  1  1
 25 18  1  0
 26 24  1  0
 27 26  2  0
 28 26  1  0
M  END
$$$$
