KHN.pdb
     RDKit          3D

 28 28  0  0  1  0  0  0  0  0999 V2000
    9.0788  -19.3890   18.0451 N   0  0  0  0  0  0  0  0  0  0  0  0
   10.1942  -18.5896   17.6225 C   0  0  1  0  0  0  0  0  0  0  0  0
    9.8598  -17.8155   16.3972 C   0  0  0  0  0  0  0  0  0  0  0  0
    9.0600  -18.5494   15.4049 C   0  0  0  0  0  0  0  0  0  0  0  0
    8.7717  -17.7763   14.1551 C   0  0  0  0  0  0  0  0  0  0  0  0
    7.9449  -18.7444   13.2664 C   0  0  0  0  0  0  0  0  0  0  0  0
    7.6472  -18.0319   12.0562 N   0  0  0  0  0  0  0  0  0  0  0  0
   10.5476  -17.5733   18.6876 C   0  0  0  0  0  0  0  0  0  0  0  0
   11.5228  -16.7983   18.5116 O   0  0  0  0  0  0  0  0  0  0  0  0
    9.7992  -17.4703   19.8935 N   0  0  0  0  0  0  0  0  0  0  0  0
   10.1413  -16.4478   20.8609 C   0  0  1  0  0  0  0  0  0  0  0  0
    8.9153  -15.7810   21.4431 C   0  0  0  0  0  0  0  0  0  0  0  0
    8.2914  -14.8205   20.5324 C   0  0  0  0  0  0  0  0  0  0  0  0
    8.7078  -14.4271   19.2871 C   0  0  0  0  0  0  0  0  0  0  0  0
    7.8121  -13.5318   18.8443 N   0  0  0  0  0  0  0  0  0  0  0  0
    6.8502  -13.3480   19.7629 C   0  0  0  0  0  0  0  0  0  0  0  0
    7.1603  -14.1451   20.7891 N   0  0  0  0  0  0  0  0  0  0  0  0
   11.0247  -17.0168   21.9383 C   0  0  0  0  0  0  0  0  0  0  0  0
   10.8217  -18.1643   22.4175 O   0  0  0  0  0  0  0  0  0  0  0  0
   16.1780  -17.7468   23.6231 N   0  0  0  0  0  0  0  0  0  0  0  0
   15.5526  -16.5004   23.9146 C   0  0  0  0  0  0  0  0  0  0  0  0
   16.0324  -15.8286   24.8311 O   0  0  0  0  0  0  0  0  0  0  0  0
   14.4029  -16.1107   23.1188 C   0  0  0  0  0  0  0  0  0  0  0  0
   13.1532  -16.9389   23.3050 C   0  0  2  0  0  0  0  0  0  0  0  0
   12.1220  -16.2839   22.4576 N   0  0  0  0  0  0  0  0  0  0  0  0
   12.7133  -16.8099   24.7076 C   0  0  0  0  0  0  0  0  0  0  0  0
   13.3363  -17.3677   25.6226 O   0  0  0  0  0  0  0  0  0  0  0  0
   11.5960  -16.0606   25.0096 O   0  0  0  0  0  0  0  0  0  0  0  0
  2  3  1  0
  2  1  1  1
  3  4  1  0
  5  4  1  0
  5  6  1  0
  7  6  1  0
  8  9  2  0
  8  2  1  0
 10  8  1  0
 11 10  1  0
 11 12  1  1
 13 12  1  0
 14 13  2  0
 15 14  1  0
 16 15  1  0
 16 17  2  0
 17 13  1  0
 18 11  1  0
 18 19  2  0
 21 20  1  0
 21 22  2  0
 23 21  1  0
 24 25  1  0
 24 23  1  1
 25 18  1  0
 26 24  1  0
 27 26  2  0
 28 26  1  0
M  END
$$$$
