KHN.pdb
     RDKit          3D

 28 28  0  0  1  0  0  0  0  0999 V2000
    8.0479  -12.3813   19.0673 N   0  0  0  0  0  0  0  0  0  0  0  0
    7.9945  -13.7690   19.4326 C   0  0  1  0  0  0  0  0  0  0  0  0
    8.8151  -14.5946   18.5068 C   0  0  0  0  0  0  0  0  0  0  0  0
    8.2426  -14.7654   17.1629 C   0  0  0  0  0  0  0  0  0  0  0  0
    8.5270  -16.0966   16.5387 C   0  0  0  0  0  0  0  0  0  0  0  0
    7.7339  -16.0912   15.2039 C   0  0  0  0  0  0  0  0  0  0  0  0
    7.9552  -17.3718   14.5939 N   0  0  0  0  0  0  0  0  0  0  0  0
    8.5748  -13.9723   20.8161 C   0  0  0  0  0  0  0  0  0  0  0  0
    9.6868  -13.4611   21.1076 O   0  0  0  0  0  0  0  0  0  0  0  0
    7.8899  -14.7328   21.8046 N   0  0  0  0  0  0  0  0  0  0  0  0
    8.5144  -14.9575   23.0922 C   0  0  1  0  0  0  0  0  0  0  0  0
    7.4964  -15.1696   24.1901 C   0  0  0  0  0  0  0  0  0  0  0  0
    6.8861  -13.9262   24.6616 C   0  0  0  0  0  0  0  0  0  0  0  0
    7.1896  -12.6367   24.3094 C   0  0  0  0  0  0  0  0  0  0  0  0
    6.3616  -11.8408   25.0030 N   0  0  0  0  0  0  0  0  0  0  0  0
    5.5507  -12.5803   25.7765 C   0  0  0  0  0  0  0  0  0  0  0  0
    5.8863  -13.8542   25.5542 N   0  0  0  0  0  0  0  0  0  0  0  0
    9.4877  -16.1026   23.0126 C   0  0  0  0  0  0  0  0  0  0  0  0
    9.1289  -17.2448   22.6200 O   0  0  0  0  0  0  0  0  0  0  0  0
   13.8877  -14.5682   21.4953 N   0  0  0  0  0  0  0  0  0  0  0  0
   13.2098  -15.8163   21.6083 C   0  0  0  0  0  0  0  0  0  0  0  0
   12.7289  -16.2930   20.5773 O   0  0  0  0  0  0  0  0  0  0  0  0
   13.1329  -16.4353   22.9190 C   0  0  0  0  0  0  0  0  0  0  0  0
   11.8105  -17.0714   23.2779 C   0  0  2  0  0  0  0  0  0  0  0  0
   10.8489  -15.9418   23.3763 N   0  0  0  0  0  0  0  0  0  0  0  0
   11.9285  -17.6639   24.6242 C   0  0  0  0  0  0  0  0  0  0  0  0
   12.6995  -18.6111   24.8361 O   0  0  0  0  0  0  0  0  0  0  0  0
   11.1740  -17.1614   25.6631 O   0  0  0  0  0  0  0  0  0  0  0  0
  2  3  1  0
  2  1  1  6
  3  4  1  0
  5  4  1  0
  5  6  1  0
  7  6  1  0
  8  9  2  0
  8  2  1  0
 10  8  1  0
 11 10  1  0
 11 12  1  1
 13 12  1  0
 14 13  2  0
 15 14  1  0
 16 15  1  0
 16 17  2  0
 17 13  1  0
 18 11  1  0
 18 19  2  0
 21 20  1  0
 21 22  2  0
 23 21  1  0
 24 25  1  0
 24 23  1  1
 25 18  1  0
 26 24  1  0
 27 26  2  0
 28 26  1  0
M  END
$$$$
