KHN.pdb
     RDKit          3D

 28 28  0  0  1  0  0  0  0  0999 V2000
   11.0422  -17.2907   15.4609 N   0  0  0  0  0  0  0  0  0  0  0  0
   12.0553  -16.2747   15.5191 C   0  0  1  0  0  0  0  0  0  0  0  0
   11.7733  -15.1861   14.5457 C   0  0  0  0  0  0  0  0  0  0  0  0
   10.9865  -15.5974   13.3733 C   0  0  0  0  0  0  0  0  0  0  0  0
   10.8554  -14.5410   12.3200 C   0  0  0  0  0  0  0  0  0  0  0  0
    9.9809  -15.1864   11.2113 C   0  0  0  0  0  0  0  0  0  0  0  0
    9.9023  -14.2279   10.1454 N   0  0  0  0  0  0  0  0  0  0  0  0
   12.0763  -15.6296   16.8886 C   0  0  0  0  0  0  0  0  0  0  0  0
   12.9780  -14.8000   17.1739 O   0  0  0  0  0  0  0  0  0  0  0  0
   11.0943  -15.9392   17.8708 N   0  0  0  0  0  0  0  0  0  0  0  0
   11.1683  -15.3151   19.1759 C   0  0  1  0  0  0  0  0  0  0  0  0
    9.8276  -15.2953   19.8750 C   0  0  0  0  0  0  0  0  0  0  0  0
    8.9278  -14.2571   19.3716 C   0  0  0  0  0  0  0  0  0  0  0  0
    9.1676  -13.3085   18.4116 C   0  0  0  0  0  0  0  0  0  0  0  0
    8.0442  -12.5847   18.2932 N   0  0  0  0  0  0  0  0  0  0  0  0
    7.1090  -13.0419   19.1412 C   0  0  0  0  0  0  0  0  0  0  0  0
    7.6678  -14.0655   19.7928 N   0  0  0  0  0  0  0  0  0  0  0  0
   12.2213  -15.9820   20.0194 C   0  0  0  0  0  0  0  0  0  0  0  0
   12.3318  -17.2363   20.0635 O   0  0  0  0  0  0  0  0  0  0  0  0
   15.8894  -15.6633   19.3927 N   0  0  0  0  0  0  0  0  0  0  0  0
   16.1490  -14.7729   20.4742 C   0  0  0  0  0  0  0  0  0  0  0  0
   17.0643  -13.9590   20.3282 O   0  0  0  0  0  0  0  0  0  0  0  0
   15.3246  -14.8846   21.6637 C   0  0  0  0  0  0  0  0  0  0  0  0
   14.1960  -15.8869   21.5993 C   0  0  2  0  0  0  0  0  0  0  0  0
   13.1322  -15.2247   20.7989 N   0  0  0  0  0  0  0  0  0  0  0  0
   13.6634  -16.0773   22.9622 C   0  0  0  0  0  0  0  0  0  0  0  0
   12.5760  -15.5833   23.2941 O   0  0  0  0  0  0  0  0  0  0  0  0
   14.3803  -16.8130   23.8819 O   0  0  0  0  0  0  0  0  0  0  0  0
  2  3  1  0
  2  1  1  1
  3  4  1  0
  5  4  1  0
  5  6  1  0
  7  6  1  0
  8  9  2  0
  8  2  1  0
 10  8  1  0
 11 10  1  0
 11 12  1  1
 13 12  1  0
 14 13  2  0
 15 14  1  0
 16 15  1  0
 16 17  2  0
 17 13  1  0
 18 11  1  0
 18 19  2  0
 21 20  1  0
 21 22  2  0
 23 21  1  0
 24 25  1  0
 24 23  1  1
 25 18  1  0
 26 24  1  0
 27 26  2  0
 28 26  1  0
M  END
$$$$
