KHN.pdb
     RDKit          3D

 28 28  0  0  1  0  0  0  0  0999 V2000
   10.2893  -17.3517   16.3368 N   0  0  0  0  0  0  0  0  0  0  0  0
   11.1400  -16.2272   16.0656 C   0  0  1  0  0  0  0  0  0  0  0  0
   10.5202  -15.3211   15.0620 C   0  0  0  0  0  0  0  0  0  0  0  0
    9.9807  -15.9974   13.8726 C   0  0  0  0  0  0  0  0  0  0  0  0
    9.2381  -15.0946   12.9366 C   0  0  0  0  0  0  0  0  0  0  0  0
    8.8171  -16.0047   11.7512 C   0  0  0  0  0  0  0  0  0  0  0  0
    7.9822  -15.2046   10.9005 N   0  0  0  0  0  0  0  0  0  0  0  0
   11.3403  -15.4035   17.3200 C   0  0  0  0  0  0  0  0  0  0  0  0
   12.1024  -14.4029   17.2944 O   0  0  0  0  0  0  0  0  0  0  0  0
   10.6834  -15.7337   18.5383 N   0  0  0  0  0  0  0  0  0  0  0  0
   11.0178  -15.0110   19.7484 C   0  0  1  0  0  0  0  0  0  0  0  0
    9.8017  -14.7410   20.6055 C   0  0  0  0  0  0  0  0  0  0  0  0
    8.7839  -13.9364   19.9288 C   0  0  0  0  0  0  0  0  0  0  0  0
    8.8706  -12.6416   19.4875 C   0  0  0  0  0  0  0  0  0  0  0  0
    7.6866  -12.3417   18.9322 N   0  0  0  0  0  0  0  0  0  0  0  0
    6.8606  -13.3975   19.0079 C   0  0  0  0  0  0  0  0  0  0  0  0
    7.5496  -14.3642   19.6208 N   0  0  0  0  0  0  0  0  0  0  0  0
   12.0857  -15.7399   20.5187 C   0  0  0  0  0  0  0  0  0  0  0  0
   12.0140  -16.9800   20.7299 O   0  0  0  0  0  0  0  0  0  0  0  0
   15.6643  -15.3177   19.3767 N   0  0  0  0  0  0  0  0  0  0  0  0
   16.0974  -14.5716   20.5105 C   0  0  0  0  0  0  0  0  0  0  0  0
   16.9874  -13.7367   20.3307 O   0  0  0  0  0  0  0  0  0  0  0  0
   15.4657  -14.8437   21.7888 C   0  0  0  0  0  0  0  0  0  0  0  0
   14.2897  -15.7915   21.7615 C   0  0  2  0  0  0  0  0  0  0  0  0
   13.2165  -15.0598   21.0380 N   0  0  0  0  0  0  0  0  0  0  0  0
   13.8231  -15.9953   23.1465 C   0  0  0  0  0  0  0  0  0  0  0  0
   12.7498  -15.5104   23.5331 O   0  0  0  0  0  0  0  0  0  0  0  0
   14.5866  -16.7338   24.0256 O   0  0  0  0  0  0  0  0  0  0  0  0
  2  3  1  0
  2  1  1  1
  3  4  1  0
  5  4  1  0
  5  6  1  0
  7  6  1  0
  8  9  2  0
  8  2  1  0
 10  8  1  0
 11 10  1  0
 11 12  1  1
 13 12  1  0
 14 13  2  0
 15 14  1  0
 16 15  1  0
 16 17  2  0
 17 13  1  0
 18 11  1  0
 18 19  2  0
 21 20  1  0
 21 22  2  0
 23 21  1  0
 24 25  1  0
 24 23  1  1
 25 18  1  0
 26 24  1  0
 27 26  2  0
 28 26  1  0
M  END
$$$$
