KHN.pdb
     RDKit          3D

 28 28  0  0  1  0  0  0  0  0999 V2000
    9.0063  -13.1089   18.2054 N   0  0  0  0  0  0  0  0  0  0  0  0
    8.8892  -14.5313   18.0476 C   0  0  1  0  0  0  0  0  0  0  0  0
    8.8714  -14.9071   16.6086 C   0  0  0  0  0  0  0  0  0  0  0  0
    7.8762  -14.1897   15.7975 C   0  0  0  0  0  0  0  0  0  0  0  0
    7.7739  -14.6713   14.3832 C   0  0  0  0  0  0  0  0  0  0  0  0
    6.6765  -13.7841   13.7358 C   0  0  0  0  0  0  0  0  0  0  0  0
    6.5268  -14.2435   12.3840 N   0  0  0  0  0  0  0  0  0  0  0  0
   10.0862  -15.2293   18.6576 C   0  0  0  0  0  0  0  0  0  0  0  0
   10.2106  -16.4753   18.5365 O   0  0  0  0  0  0  0  0  0  0  0  0
   11.0837  -14.5071   19.3705 N   0  0  0  0  0  0  0  0  0  0  0  0
   12.1912  -15.2224   19.9706 C   0  0  1  0  0  0  0  0  0  0  0  0
   13.4711  -14.4176   19.9436 C   0  0  0  0  0  0  0  0  0  0  0  0
   14.1927  -14.5205   18.6749 C   0  0  0  0  0  0  0  0  0  0  0  0
   15.2517  -15.3303   18.3560 C   0  0  0  0  0  0  0  0  0  0  0  0
   15.5682  -15.0688   17.0787 N   0  0  0  0  0  0  0  0  0  0  0  0
   14.7495  -14.1267   16.5839 C   0  0  0  0  0  0  0  0  0  0  0  0
   13.9143  -13.8033   17.5751 N   0  0  0  0  0  0  0  0  0  0  0  0
   11.8415  -15.6572   21.3683 C   0  0  0  0  0  0  0  0  0  0  0  0
   11.3975  -14.8412   22.2195 O   0  0  0  0  0  0  0  0  0  0  0  0
   10.1046  -20.2418   24.5886 N   0  0  0  0  0  0  0  0  0  0  0  0
   11.3647  -19.6105   24.3802 C   0  0  0  0  0  0  0  0  0  0  0  0
   12.1887  -19.6789   25.2954 O   0  0  0  0  0  0  0  0  0  0  0  0
   11.5894  -18.9359   23.1147 C   0  0  0  0  0  0  0  0  0  0  0  0
   11.6550  -17.4275   23.1672 C   0  0  2  0  0  0  0  0  0  0  0  0
   11.9976  -17.0041   21.7838 N   0  0  0  0  0  0  0  0  0  0  0  0
   12.7836  -17.0401   24.0354 C   0  0  0  0  0  0  0  0  0  0  0  0
   12.5859  -16.6213   25.1852 O   0  0  0  0  0  0  0  0  0  0  0  0
   14.0762  -17.1433   23.5667 O   0  0  0  0  0  0  0  0  0  0  0  0
  2  3  1  0
  2  1  1  6
  3  4  1  0
  5  4  1  0
  5  6  1  0
  7  6  1  0
  8  9  2  0
  8  2  1  0
 10  8  1  0
 11 10  1  0
 11 12  1  1
 13 12  1  0
 14 13  2  0
 15 14  1  0
 16 15  1  0
 16 17  2  0
 17 13  1  0
 18 11  1  0
 18 19  2  0
 21 20  1  0
 21 22  2  0
 23 21  1  0
 24 25  1  0
 24 23  1  6
 25 18  1  0
 26 24  1  0
 27 26  2  0
 28 26  1  0
M  END
$$$$
