KHN.pdb
     RDKit          3D

 28 28  0  0  1  0  0  0  0  0999 V2000
    7.1741  -12.8787   17.4712 N   0  0  0  0  0  0  0  0  0  0  0  0
    7.6503  -14.1745   17.8660 C   0  0  1  0  0  0  0  0  0  0  0  0
    8.8432  -14.5681   17.0695 C   0  0  0  0  0  0  0  0  0  0  0  0
    8.5451  -15.0523   15.7132 C   0  0  0  0  0  0  0  0  0  0  0  0
    9.0517  -16.4325   15.4285 C   0  0  0  0  0  0  0  0  0  0  0  0
    8.6267  -16.7214   13.9634 C   0  0  0  0  0  0  0  0  0  0  0  0
    9.0138  -18.0760   13.6869 N   0  0  0  0  0  0  0  0  0  0  0  0
    8.0901  -14.1553   19.3145 C   0  0  0  0  0  0  0  0  0  0  0  0
    8.6442  -13.1284   19.7850 O   0  0  0  0  0  0  0  0  0  0  0  0
    7.8916  -15.2779   20.1661 N   0  0  0  0  0  0  0  0  0  0  0  0
    8.3024  -15.2033   21.5533 C   0  0  1  0  0  0  0  0  0  0  0  0
    7.1748  -15.5458   22.5008 C   0  0  0  0  0  0  0  0  0  0  0  0
    7.0936  -14.6469   23.6525 C   0  0  0  0  0  0  0  0  0  0  0  0
    7.8265  -13.5176   23.9101 C   0  0  0  0  0  0  0  0  0  0  0  0
    7.3928  -13.0339   25.0839 N   0  0  0  0  0  0  0  0  0  0  0  0
    6.4166  -13.8154   25.5729 C   0  0  0  0  0  0  0  0  0  0  0  0
    6.2471  -14.7975   24.6832 N   0  0  0  0  0  0  0  0  0  0  0  0
    9.5080  -16.0717   21.7926 C   0  0  0  0  0  0  0  0  0  0  0  0
    9.5522  -17.2629   21.3844 O   0  0  0  0  0  0  0  0  0  0  0  0
   15.0779  -15.9402   23.8784 N   0  0  0  0  0  0  0  0  0  0  0  0
   13.7972  -16.3788   24.3227 C   0  0  0  0  0  0  0  0  0  0  0  0
   13.7680  -17.3151   25.1251 O   0  0  0  0  0  0  0  0  0  0  0  0
   12.6246  -15.6983   23.8039 C   0  0  0  0  0  0  0  0  0  0  0  0
   11.7877  -16.4752   22.8148 C   0  0  2  0  0  0  0  0  0  0  0  0
   10.6437  -15.5837   22.4877 N   0  0  0  0  0  0  0  0  0  0  0  0
   11.2368  -17.6603   23.4999 C   0  0  0  0  0  0  0  0  0  0  0  0
   10.3758  -17.5402   24.3835 O   0  0  0  0  0  0  0  0  0  0  0  0
   11.6818  -18.9194   23.1567 O   0  0  0  0  0  0  0  0  0  0  0  0
  2  3  1  0
  2  1  1  6
  3  4  1  0
  5  4  1  0
  5  6  1  0
  7  6  1  0
  8  9  2  0
  8  2  1  0
 10  8  1  0
 11 10  1  0
 11 12  1  1
 13 12  1  0
 14 13  2  0
 15 14  1  0
 16 15  1  0
 16 17  2  0
 17 13  1  0
 18 11  1  0
 18 19  2  0
 21 20  1  0
 21 22  2  0
 23 21  1  0
 24 25  1  0
 24 23  1  1
 25 18  1  0
 26 24  1  0
 27 26  2  0
 28 26  1  0
M  END
$$$$
