KHN.pdb
     RDKit          3D

 28 28  0  0  1  0  0  0  0  0999 V2000
    9.0042  -18.3247   20.7731 N   0  0  0  0  0  0  0  0  0  0  0  0
   10.1469  -17.4604   20.8681 C   0  0  1  0  0  0  0  0  0  0  0  0
   10.3694  -16.7306   19.5913 C   0  0  0  0  0  0  0  0  0  0  0  0
    9.9069  -17.4396   18.3887 C   0  0  0  0  0  0  0  0  0  0  0  0
   10.0584  -16.6595   17.1193 C   0  0  0  0  0  0  0  0  0  0  0  0
    9.4483  -17.5660   16.0163 C   0  0  0  0  0  0  0  0  0  0  0  0
    9.6549  -16.8850   14.7695 N   0  0  0  0  0  0  0  0  0  0  0  0
    9.9227  -16.4054   21.9306 C   0  0  0  0  0  0  0  0  0  0  0  0
   10.8276  -15.5674   22.1787 O   0  0  0  0  0  0  0  0  0  0  0  0
    8.7044  -16.3356   22.6627 N   0  0  0  0  0  0  0  0  0  0  0  0
    8.5465  -15.3282   23.6916 C   0  0  1  0  0  0  0  0  0  0  0  0
    7.1440  -14.7640   23.7262 C   0  0  0  0  0  0  0  0  0  0  0  0
    6.9546  -13.7474   24.7614 C   0  0  0  0  0  0  0  0  0  0  0  0
    6.2084  -13.8231   25.9088 C   0  0  0  0  0  0  0  0  0  0  0  0
    6.3443  -12.6456   26.5374 N   0  0  0  0  0  0  0  0  0  0  0  0
    7.1462  -11.8342   25.8294 C   0  0  0  0  0  0  0  0  0  0  0  0
    7.5101  -12.5257   24.7458 N   0  0  0  0  0  0  0  0  0  0  0  0
    8.9546  -15.8766   25.0323 C   0  0  0  0  0  0  0  0  0  0  0  0
    8.8971  -15.1731   26.0760 O   0  0  0  0  0  0  0  0  0  0  0  0
   10.7210  -19.2462   28.6680 N   0  0  0  0  0  0  0  0  0  0  0  0
    9.8188  -19.8713   27.7596 C   0  0  0  0  0  0  0  0  0  0  0  0
    9.4775  -21.0298   28.0101 O   0  0  0  0  0  0  0  0  0  0  0  0
    9.3675  -19.1069   26.6110 C   0  0  0  0  0  0  0  0  0  0  0  0
    9.9287  -17.7105   26.4788 C   0  0  2  0  0  0  0  0  0  0  0  0
    9.4205  -17.2084   25.1750 N   0  0  0  0  0  0  0  0  0  0  0  0
   11.3970  -17.8069   26.3683 C   0  0  0  0  0  0  0  0  0  0  0  0
   12.0880  -18.1278   27.3461 O   0  0  0  0  0  0  0  0  0  0  0  0
   12.0131  -17.5377   25.1645 O   0  0  0  0  0  0  0  0  0  0  0  0
  2  3  1  0
  2  1  1  6
  3  4  1  0
  5  4  1  0
  5  6  1  0
  7  6  1  0
  8  9  2  0
  8  2  1  0
 10  8  1  0
 11 10  1  0
 11 12  1  1
 13 12  1  0
 14 13  2  0
 15 14  1  0
 16 15  1  0
 16 17  2  0
 17 13  1  0
 18 11  1  0
 18 19  2  0
 21 20  1  0
 21 22  2  0
 23 21  1  0
 24 25  1  0
 24 23  1  6
 25 18  1  0
 26 24  1  0
 27 26  2  0
 28 26  1  0
M  END
$$$$
