AQS.pdb
     RDKit          3D

 21 20  0  0  1  0  0  0  0  0999 V2000
   24.7916  -11.2085  -15.2631 C   0  0  0  0  0  0  0  0  0  0  0  0
   23.3445  -11.6058  -15.4781 C   0  0  2  0  0  0  0  0  0  0  0  0
   23.2899  -12.5251  -16.5793 N   0  0  0  0  0  0  0  0  0  0  0  0
   22.4814  -10.4065  -15.6921 C   0  0  0  0  0  0  0  0  0  0  0  0
   22.7533   -9.6216  -16.6177 O   0  0  0  0  0  0  0  0  0  0  0  0
   16.2280  -10.3655  -14.9152 N   0  0  0  0  0  0  0  0  0  0  0  0
   17.0855  -10.8244  -15.9523 C   0  0  0  0  0  0  0  0  0  0  0  0
   16.5850  -11.5832  -16.8009 O   0  0  0  0  0  0  0  0  0  0  0  0
   18.4833  -10.4243  -16.0091 C   0  0  0  0  0  0  0  0  0  0  0  0
   19.0174   -9.5237  -14.9577 C   0  0  0  0  0  0  0  0  0  0  0  0
   20.4096   -9.0989  -15.0141 C   0  0  2  0  0  0  0  0  0  0  0  0
   21.3563  -10.1552  -14.8506 N   0  0  0  0  0  0  0  0  0  0  0  0
   20.7806   -7.8983  -14.2270 C   0  0  0  0  0  0  0  0  0  0  0  0
   20.9706   -8.0310  -12.9971 O   0  0  0  0  0  0  0  0  0  0  0  0
   22.7714   -3.7105  -13.9967 O   0  0  0  0  0  0  0  0  0  0  0  0
   22.3874   -4.7570  -14.8303 C   0  0  0  0  0  0  0  0  0  0  0  0
   21.2601   -5.4961  -14.1020 C   0  0  2  0  0  0  0  0  0  0  0  0
   20.9094   -6.6411  -14.8862 N   0  0  0  0  0  0  0  0  0  0  0  0
   20.1257   -4.5459  -14.0257 C   0  0  0  0  0  0  0  0  0  0  0  0
   19.9657   -3.7145  -12.9287 O   0  0  0  0  0  0  0  0  0  0  0  0
   19.2820   -4.4693  -14.9504 O   0  0  0  0  0  0  0  0  0  0  0  0
  2  1  1  6
  3  2  1  0
  4  2  1  0
  4 12  1  0
  5  4  2  0
  6  7  1  0
  7  8  2  0
  9 10  1  0
  9  7  1  0
 11 10  1  1
 11 12  1  0
 11 13  1  0
 13 14  2  0
 13 18  1  0
 15 16  1  0
 17 16  1  6
 17 19  1  0
 18 17  1  0
 19 21  2  0
 19 20  1  0
M  END
$$$$
