AQS.pdb
     RDKit          3D

 21 20  0  0  1  0  0  0  0  0999 V2000
   17.0898  -11.2257  -16.4320 C   0  0  0  0  0  0  0  0  0  0  0  0
   18.4245  -10.8495  -15.8192 C   0  0  2  0  0  0  0  0  0  0  0  0
   18.8029  -11.8831  -14.8977 N   0  0  0  0  0  0  0  0  0  0  0  0
   18.3627   -9.5044  -15.1745 C   0  0  0  0  0  0  0  0  0  0  0  0
   18.1360   -8.5047  -15.8789 O   0  0  0  0  0  0  0  0  0  0  0  0
   16.0846   -8.2461   -9.4003 N   0  0  0  0  0  0  0  0  0  0  0  0
   16.8089   -7.0696   -9.7358 C   0  0  0  0  0  0  0  0  0  0  0  0
   16.6686   -6.0894   -8.9834 O   0  0  0  0  0  0  0  0  0  0  0  0
   17.6688   -7.0205  -10.9086 C   0  0  0  0  0  0  0  0  0  0  0  0
   17.7572   -8.2135  -11.7865 C   0  0  0  0  0  0  0  0  0  0  0  0
   18.4953   -8.1309  -13.0395 C   0  0  2  0  0  0  0  0  0  0  0  0
   18.5599   -9.3570  -13.7687 N   0  0  0  0  0  0  0  0  0  0  0  0
   19.8064   -7.4392  -13.0055 C   0  0  0  0  0  0  0  0  0  0  0  0
   20.8023   -8.0760  -12.5943 O   0  0  0  0  0  0  0  0  0  0  0  0
   22.9646   -5.2859  -15.1094 O   0  0  0  0  0  0  0  0  0  0  0  0
   21.7000   -5.8562  -14.9951 C   0  0  0  0  0  0  0  0  0  0  0  0
   21.1939   -5.5037  -13.5926 C   0  0  2  0  0  0  0  0  0  0  0  0
   19.8945   -6.0839  -13.4376 N   0  0  0  0  0  0  0  0  0  0  0  0
   21.1169   -4.0248  -13.5414 C   0  0  0  0  0  0  0  0  0  0  0  0
   22.2239   -3.2656  -13.1976 O   0  0  0  0  0  0  0  0  0  0  0  0
   20.0496   -3.4225  -13.8074 O   0  0  0  0  0  0  0  0  0  0  0  0
  2  1  1  1
  3  2  1  0
  4  2  1  0
  4 12  1  0
  5  4  2  0
  6  7  1  0
  7  8  2  0
  9 10  1  0
  9  7  1  0
 11 10  1  1
 11 12  1  0
 11 13  1  0
 13 14  2  0
 13 18  1  0
 15 16  1  0
 17 16  1  6
 17 19  1  0
 18 17  1  0
 19 21  2  0
 19 20  1  0
M  END
$$$$
