AQS.pdb
     RDKit          3D

 21 20  0  0  1  0  0  0  0  0999 V2000
   16.6020  -11.7857  -14.6649 C   0  0  0  0  0  0  0  0  0  0  0  0
   16.6322  -10.3482  -15.1452 C   0  0  2  0  0  0  0  0  0  0  0  0
   16.2359  -10.3271  -16.5248 N   0  0  0  0  0  0  0  0  0  0  0  0
   17.9755   -9.7342  -14.9276 C   0  0  0  0  0  0  0  0  0  0  0  0
   18.4092   -9.6209  -13.7674 O   0  0  0  0  0  0  0  0  0  0  0  0
   22.7519  -10.1506  -19.1507 N   0  0  0  0  0  0  0  0  0  0  0  0
   23.2394   -9.2653  -18.1506 C   0  0  0  0  0  0  0  0  0  0  0  0
   24.4340   -8.9291  -18.2315 O   0  0  0  0  0  0  0  0  0  0  0  0
   22.3765   -8.7828  -17.0831 C   0  0  0  0  0  0  0  0  0  0  0  0
   20.9595   -9.2220  -17.0491 C   0  0  0  0  0  0  0  0  0  0  0  0
   20.0983   -8.7881  -15.9575 C   0  0  2  0  0  0  0  0  0  0  0  0
   18.7598   -9.2800  -16.0301 N   0  0  0  0  0  0  0  0  0  0  0  0
   20.1394   -7.3505  -15.5968 C   0  0  0  0  0  0  0  0  0  0  0  0
   19.3789   -6.5645  -16.2054 O   0  0  0  0  0  0  0  0  0  0  0  0
   21.9109   -3.9986  -12.6770 O   0  0  0  0  0  0  0  0  0  0  0  0
   21.9753   -5.3436  -13.0294 C   0  0  0  0  0  0  0  0  0  0  0  0
   21.0001   -5.5301  -14.1962 C   0  0  2  0  0  0  0  0  0  0  0  0
   21.0334   -6.9093  -14.5782 N   0  0  0  0  0  0  0  0  0  0  0  0
   21.5011   -4.6703  -15.2941 C   0  0  0  0  0  0  0  0  0  0  0  0
   21.0510   -3.3679  -15.4404 O   0  0  0  0  0  0  0  0  0  0  0  0
   22.3440   -5.0979  -16.1182 O   0  0  0  0  0  0  0  0  0  0  0  0
  2  1  1  6
  3  2  1  0
  4  2  1  0
  4 12  1  0
  5  4  2  0
  6  7  1  0
  7  8  2  0
  9 10  1  0
  9  7  1  0
 11 10  1  6
 11 12  1  0
 11 13  1  0
 13 14  2  0
 13 18  1  0
 15 16  1  0
 17 16  1  1
 17 19  1  0
 18 17  1  0
 19 21  2  0
 19 20  1  0
M  END
$$$$
