AQS.pdb
     RDKit          3D

 21 20  0  0  1  0  0  0  0  0999 V2000
   18.9283  -13.4504  -16.8379 C   0  0  0  0  0  0  0  0  0  0  0  0
   18.3973  -12.0307  -16.8145 C   0  0  2  0  0  0  0  0  0  0  0  0
   17.8531  -11.7332  -18.1092 N   0  0  0  0  0  0  0  0  0  0  0  0
   19.4587  -11.0638  -16.4053 C   0  0  0  0  0  0  0  0  0  0  0  0
   19.9641  -11.1622  -15.2731 O   0  0  0  0  0  0  0  0  0  0  0  0
   23.1824   -7.7479  -20.5169 N   0  0  0  0  0  0  0  0  0  0  0  0
   23.4654   -7.2006  -19.2356 C   0  0  0  0  0  0  0  0  0  0  0  0
   24.3554   -6.3340  -19.1786 O   0  0  0  0  0  0  0  0  0  0  0  0
   22.7462   -7.6418  -18.0501 C   0  0  0  0  0  0  0  0  0  0  0  0
   21.6831   -8.6671  -18.1933 C   0  0  0  0  0  0  0  0  0  0  0  0
   20.9151   -9.0746  -17.0247 C   0  0  2  0  0  0  0  0  0  0  0  0
   19.8947  -10.0363  -17.2947 N   0  0  0  0  0  0  0  0  0  0  0  0
   20.4353   -7.9985  -16.1244 C   0  0  0  0  0  0  0  0  0  0  0  0
   19.3840   -7.3930  -16.4319 O   0  0  0  0  0  0  0  0  0  0  0  0
   19.7246   -7.9550  -12.4844 O   0  0  0  0  0  0  0  0  0  0  0  0
   20.7884   -7.0757  -12.6642 C   0  0  0  0  0  0  0  0  0  0  0  0
   20.7207   -6.6104  -14.1225 C   0  0  2  0  0  0  0  0  0  0  0  0
   21.1764   -7.6880  -14.9472 N   0  0  0  0  0  0  0  0  0  0  0  0
   21.6335   -5.4480  -14.2275 C   0  0  0  0  0  0  0  0  0  0  0  0
   21.3837   -4.2806  -13.5239 O   0  0  0  0  0  0  0  0  0  0  0  0
   22.6544   -5.4901  -14.9546 O   0  0  0  0  0  0  0  0  0  0  0  0
  2  1  1  6
  3  2  1  0
  4  2  1  0
  4 12  1  0
  5  4  2  0
  6  7  1  0
  7  8  2  0
  9 10  1  0
  9  7  1  0
 11 10  1  6
 11 12  1  0
 11 13  1  0
 13 14  2  0
 13 18  1  0
 15 16  1  0
 17 16  1  1
 17 19  1  0
 18 17  1  0
 19 21  2  0
 19 20  1  0
M  END
$$$$
