AQS.pdb
     RDKit          3D

 21 20  0  0  1  0  0  0  0  0999 V2000
   23.8982  -32.7286  -12.0425 C   0  0  0  0  0  0  0  0  0  0  0  0
   23.4327  -34.1487  -11.7875 C   0  0  2  0  0  0  0  0  0  0  0  0
   22.5512  -34.5308  -12.8541 N   0  0  0  0  0  0  0  0  0  0  0  0
   22.7923  -34.2741  -10.4447 C   0  0  0  0  0  0  0  0  0  0  0  0
   21.5512  -34.2882  -10.3642 O   0  0  0  0  0  0  0  0  0  0  0  0
   20.0436  -37.8355   -7.8778 N   0  0  0  0  0  0  0  0  0  0  0  0
   20.4584  -37.2138   -6.6684 C   0  0  0  0  0  0  0  0  0  0  0  0
   19.9110  -37.6008   -5.6210 O   0  0  0  0  0  0  0  0  0  0  0  0
   21.4731  -36.1710   -6.6644 C   0  0  0  0  0  0  0  0  0  0  0  0
   22.1110  -35.7828   -7.9467 C   0  0  0  0  0  0  0  0  0  0  0  0
   23.1061  -34.7191   -7.9617 C   0  0  2  0  0  0  0  0  0  0  0  0
   23.5854  -34.3773   -9.2626 N   0  0  0  0  0  0  0  0  0  0  0  0
   24.2083  -34.8130   -6.9743 C   0  0  0  0  0  0  0  0  0  0  0  0
   25.2306  -35.4638   -7.2869 O   0  0  0  0  0  0  0  0  0  0  0  0
   25.0025  -31.9285   -4.3067 O   0  0  0  0  0  0  0  0  0  0  0  0
   24.9234  -33.1792   -3.7009 C   0  0  0  0  0  0  0  0  0  0  0  0
   25.1812  -34.2095   -4.8052 C   0  0  2  0  0  0  0  0  0  0  0  0
   24.0740  -34.1662   -5.7113 N   0  0  0  0  0  0  0  0  0  0  0  0
   25.2553  -35.5270   -4.1310 C   0  0  0  0  0  0  0  0  0  0  0  0
   26.3050  -35.8332   -3.2798 O   0  0  0  0  0  0  0  0  0  0  0  0
   24.3715  -36.3979   -4.3128 O   0  0  0  0  0  0  0  0  0  0  0  0
  2  1  1  6
  3  2  1  0
  4  2  1  0
  4 12  1  0
  5  4  2  0
  6  7  1  0
  7  8  2  0
  9 10  1  0
  9  7  1  0
 11 10  1  6
 11 12  1  0
 11 13  1  0
 13 14  2  0
 13 18  1  0
 15 16  1  0
 17 16  1  1
 17 19  1  0
 18 17  1  0
 19 21  2  0
 19 20  1  0
M  END
$$$$
