AQS.pdb
     RDKit          3D

 21 20  0  0  1  0  0  0  0  0999 V2000
   16.8737  -11.2345  -17.5646 C   0  0  0  0  0  0  0  0  0  0  0  0
   17.2839   -9.9720  -18.2967 C   0  0  2  0  0  0  0  0  0  0  0  0
   18.4793  -10.2523  -19.0405 N   0  0  0  0  0  0  0  0  0  0  0  0
   17.4549   -8.8302  -17.3502 C   0  0  0  0  0  0  0  0  0  0  0  0
   16.4743   -8.4333  -16.6961 O   0  0  0  0  0  0  0  0  0  0  0  0
   22.7833   -7.7103  -14.0732 N   0  0  0  0  0  0  0  0  0  0  0  0
   22.0133   -6.5311  -13.8784 C   0  0  0  0  0  0  0  0  0  0  0  0
   22.4523   -5.7014  -13.0627 O   0  0  0  0  0  0  0  0  0  0  0  0
   20.7685   -6.3139  -14.5999 C   0  0  0  0  0  0  0  0  0  0  0  0
   20.3177   -7.3327  -15.5800 C   0  0  0  0  0  0  0  0  0  0  0  0
   19.0323   -7.1706  -16.2457 C   0  0  2  0  0  0  0  0  0  0  0  0
   18.7233   -8.1956  -17.1907 N   0  0  0  0  0  0  0  0  0  0  0  0
   18.7095   -5.8215  -16.7694 C   0  0  0  0  0  0  0  0  0  0  0  0
   19.2489   -5.4555  -17.8378 O   0  0  0  0  0  0  0  0  0  0  0  0
   16.0616   -1.8671  -16.3086 O   0  0  0  0  0  0  0  0  0  0  0  0
   16.4011   -3.0772  -15.7106 C   0  0  0  0  0  0  0  0  0  0  0  0
   17.4917   -3.7001  -16.5881 C   0  0  2  0  0  0  0  0  0  0  0  0
   17.8038   -4.9891  -16.0494 N   0  0  0  0  0  0  0  0  0  0  0  0
   18.6622   -2.7962  -16.4955 C   0  0  0  0  0  0  0  0  0  0  0  0
   18.9038   -1.8420  -17.4709 O   0  0  0  0  0  0  0  0  0  0  0  0
   19.4633   -2.8708  -15.5337 O   0  0  0  0  0  0  0  0  0  0  0  0
  2  1  1  1
  3  2  1  0
  4  2  1  0
  4 12  1  0
  5  4  2  0
  6  7  1  0
  7  8  2  0
  9 10  1  0
  9  7  1  0
 11 10  1  6
 11 12  1  0
 11 13  1  0
 13 14  2  0
 13 18  1  0
 15 16  1  0
 17 16  1  1
 17 19  1  0
 18 17  1  0
 19 21  2  0
 19 20  1  0
M  END
$$$$
