CPP.pdb
     RDKit          3D

 21 22  0  0  1  0  0  0  0  0999 V2000
   25.1703  -22.1383  -11.6987 N   0  0  0  0  0  0  0  0  0  0  0  0
   26.3584  -21.3314  -11.4789 C   0  0  1  0  0  0  0  0  0  0  0  0
   25.9392  -19.8847  -11.6653 C   0  0  0  0  0  0  0  0  0  0  0  0
   24.8391  -19.4917  -10.2559 S   0  0  0  0  0  0  0  0  0  0  0  0
   26.9169  -21.5655  -10.1201 C   0  0  0  0  0  0  0  0  0  0  0  0
   26.1350  -22.0066   -9.2231 O   0  0  0  0  0  0  0  0  0  0  0  0
   28.2664  -21.3184   -9.7984 N   0  0  0  0  0  0  0  0  0  0  0  0
   29.3229  -20.8477  -10.6981 C   0  0  0  0  0  0  0  0  0  0  0  0
   30.5755  -21.4882  -10.1447 C   0  0  0  0  0  0  0  0  0  0  0  0
   30.3386  -21.5258   -8.6766 C   0  0  0  0  0  0  0  0  0  0  0  0
   28.8562  -21.4944   -8.4873 C   0  0  1  0  0  0  0  0  0  0  0  0
   28.4637  -20.3697   -7.6022 C   0  0  0  0  0  0  0  0  0  0  0  0
   28.0953  -19.2885   -8.1033 O   0  0  0  0  0  0  0  0  0  0  0  0
   28.5079  -20.5270   -6.2051 N   0  0  0  0  0  0  0  0  0  0  0  0
   28.8835  -21.7984   -5.5590 C   0  0  0  0  0  0  0  0  0  0  0  0
   29.2876  -21.3767   -4.1711 C   0  0  0  0  0  0  0  0  0  0  0  0
   28.1959  -20.3514   -3.8658 C   0  0  0  0  0  0  0  0  0  0  0  0
   28.2211  -19.5493   -5.1619 C   0  0  1  0  0  0  0  0  0  0  0  0
   29.3673  -18.5953   -5.0034 C   0  0  0  0  0  0  0  0  0  0  0  0
   29.1907  -17.5450   -4.1400 O   0  0  0  0  0  0  0  0  0  0  0  0
   30.4528  -18.7171   -5.6136 O   0  0  0  0  0  0  0  0  0  0  0  0
  2  1  1  1
  3  2  1  0
  4  3  1  0
  5  2  1  0
  6  5  2  0
  7  8  1  0
  7  5  1  0
  9 10  1  0
  9  8  1  0
 10 11  1  0
 11  7  1  0
 11 12  1  1
 12 13  2  0
 14 12  1  0
 14 15  1  0
 16 15  1  0
 17 16  1  0
 18 17  1  0
 18 14  1  0
 19 20  1  0
 18 19  1  1
 21 19  2  0
M  END
$$$$
