CPP.pdb
     RDKit          3D

 21 22  0  0  1  0  0  0  0  0999 V2000
   25.0152  -18.9559  -19.5160 N   0  0  0  0  0  0  0  0  0  0  0  0
   24.4974  -18.4316  -18.2636 C   0  0  1  0  0  0  0  0  0  0  0  0
   23.0375  -18.8408  -18.1942 C   0  0  0  0  0  0  0  0  0  0  0  0
   22.3754  -18.0923  -16.6604 S   0  0  0  0  0  0  0  0  0  0  0  0
   25.2669  -18.9615  -17.1061 C   0  0  0  0  0  0  0  0  0  0  0  0
   25.6061  -20.1842  -17.1265 O   0  0  0  0  0  0  0  0  0  0  0  0
   25.6281  -18.1636  -16.0022 N   0  0  0  0  0  0  0  0  0  0  0  0
   25.3953  -16.7273  -15.8295 C   0  0  0  0  0  0  0  0  0  0  0  0
   26.5698  -16.2725  -14.9933 C   0  0  0  0  0  0  0  0  0  0  0  0
   26.8548  -17.4382  -14.1142 C   0  0  0  0  0  0  0  0  0  0  0  0
   26.3122  -18.6402  -14.8178 C   0  0  1  0  0  0  0  0  0  0  0  0
   25.3609  -19.3738  -13.9464 C   0  0  0  0  0  0  0  0  0  0  0  0
   24.1423  -19.1145  -14.0061 O   0  0  0  0  0  0  0  0  0  0  0  0
   25.8359  -20.3565  -13.0591 N   0  0  0  0  0  0  0  0  0  0  0  0
   27.2708  -20.6563  -12.8978 C   0  0  0  0  0  0  0  0  0  0  0  0
   27.3345  -21.3389  -11.5571 C   0  0  0  0  0  0  0  0  0  0  0  0
   26.1004  -22.2361  -11.6457 C   0  0  0  0  0  0  0  0  0  0  0  0
   25.0817  -21.2284  -12.1662 C   0  0  1  0  0  0  0  0  0  0  0  0
   24.6286  -20.4749  -10.9513 C   0  0  0  0  0  0  0  0  0  0  0  0
   25.2605  -19.2887  -10.6807 O   0  0  0  0  0  0  0  0  0  0  0  0
   23.7181  -20.8764  -10.1929 O   0  0  0  0  0  0  0  0  0  0  0  0
  2  1  1  6
  3  2  1  0
  4  3  1  0
  5  2  1  0
  6  5  2  0
  7  8  1  0
  7  5  1  0
  9 10  1  0
  9  8  1  0
 10 11  1  0
 11  7  1  0
 11 12  1  1
 12 13  2  0
 14 12  1  0
 14 15  1  0
 16 15  1  0
 17 16  1  0
 18 17  1  0
 18 14  1  0
 19 20  1  0
 18 19  1  1
 21 19  2  0
M  END
$$$$
