CPP.pdb
     RDKit          3D

 21 22  0  0  1  0  0  0  0  0999 V2000
   19.9868  -12.6879  -17.0620 N   0  0  0  0  0  0  0  0  0  0  0  0
   19.2366  -11.5239  -16.6221 C   0  0  1  0  0  0  0  0  0  0  0  0
   18.9471  -11.7284  -15.1463 C   0  0  0  0  0  0  0  0  0  0  0  0
   17.5553  -12.9148  -15.0640 S   0  0  0  0  0  0  0  0  0  0  0  0
   20.0075  -10.2736  -16.8575 C   0  0  0  0  0  0  0  0  0  0  0  0
   21.2742  -10.3390  -16.8172 O   0  0  0  0  0  0  0  0  0  0  0  0
   19.3885   -9.0354  -17.1206 N   0  0  0  0  0  0  0  0  0  0  0  0
   17.9557   -8.7742  -17.2818 C   0  0  0  0  0  0  0  0  0  0  0  0
   17.9097   -7.6246  -18.2624 C   0  0  0  0  0  0  0  0  0  0  0  0
   19.1268   -6.8321  -17.9408 C   0  0  0  0  0  0  0  0  0  0  0  0
   20.0827   -7.7747  -17.2833 C   0  0  1  0  0  0  0  0  0  0  0  0
   20.5040   -7.2558  -15.9582 C   0  0  0  0  0  0  0  0  0  0  0  0
   19.8548   -7.5645  -14.9389 O   0  0  0  0  0  0  0  0  0  0  0  0
   21.6312   -6.4205  -15.8571 N   0  0  0  0  0  0  0  0  0  0  0  0
   22.4691   -6.0706  -17.0192 C   0  0  0  0  0  0  0  0  0  0  0  0
   23.1804   -4.8213  -16.5709 C   0  0  0  0  0  0  0  0  0  0  0  0
   23.5260   -5.2023  -15.1317 C   0  0  0  0  0  0  0  0  0  0  0  0
   22.1813   -5.7601  -14.6791 C   0  0  1  0  0  0  0  0  0  0  0  0
   21.3644   -4.5549  -14.3201 C   0  0  0  0  0  0  0  0  0  0  0  0
   21.6030   -3.9802  -13.0985 O   0  0  0  0  0  0  0  0  0  0  0  0
   20.4941   -4.0647  -15.0736 O   0  0  0  0  0  0  0  0  0  0  0  0
  2  1  1  1
  3  2  1  0
  4  3  1  0
  5  2  1  0
  6  5  2  0
  7  8  1  0
  7  5  1  0
  9 10  1  0
  9  8  1  0
 10 11  1  0
 11  7  1  0
 11 12  1  1
 12 13  2  0
 14 12  1  0
 14 15  1  0
 16 15  1  0
 17 16  1  0
 18 17  1  0
 18 14  1  0
 19 20  1  0
 18 19  1  6
 21 19  2  0
M  END
$$$$
