CPP.pdb
     RDKit          3D

 21 22  0  0  1  0  0  0  0  0999 V2000
   25.1582  -22.1272  -12.5197 N   0  0  0  0  0  0  0  0  0  0  0  0
   25.2685  -20.9863  -11.6268 C   0  0  1  0  0  0  0  0  0  0  0  0
   23.8507  -20.5484  -11.3076 C   0  0  0  0  0  0  0  0  0  0  0  0
   24.0069  -19.0679  -10.2423 S   0  0  0  0  0  0  0  0  0  0  0  0
   26.0179  -21.3462  -10.3932 C   0  0  0  0  0  0  0  0  0  0  0  0
   25.3990  -21.9801   -9.4846 O   0  0  0  0  0  0  0  0  0  0  0  0
   27.3733  -21.0125  -10.2009 N   0  0  0  0  0  0  0  0  0  0  0  0
   28.2894  -20.4172  -11.1773 C   0  0  0  0  0  0  0  0  0  0  0  0
   29.6372  -20.9866  -10.7968 C   0  0  0  0  0  0  0  0  0  0  0  0
   29.5648  -21.1164   -9.3167 C   0  0  0  0  0  0  0  0  0  0  0  0
   28.1134  -21.2086   -8.9715 C   0  0  1  0  0  0  0  0  0  0  0  0
   27.7407  -20.1636   -7.9858 C   0  0  0  0  0  0  0  0  0  0  0  0
   27.1990  -19.1104   -8.3770 O   0  0  0  0  0  0  0  0  0  0  0  0
   27.9987  -20.3645   -6.6177 N   0  0  0  0  0  0  0  0  0  0  0  0
   28.5947  -21.6079   -6.0946 C   0  0  0  0  0  0  0  0  0  0  0  0
   29.1441  -21.1931   -4.7554 C   0  0  0  0  0  0  0  0  0  0  0  0
   28.0042  -20.3082   -4.2519 C   0  0  0  0  0  0  0  0  0  0  0  0
   27.7604  -19.4627   -5.4968 C   0  0  1  0  0  0  0  0  0  0  0  0
   28.8098  -18.3925   -5.4482 C   0  0  0  0  0  0  0  0  0  0  0  0
   28.6022  -17.3535   -4.5783 O   0  0  0  0  0  0  0  0  0  0  0  0
   29.8430  -18.4100   -6.1537 O   0  0  0  0  0  0  0  0  0  0  0  0
  2  1  1  6
  3  2  1  0
  4  3  1  0
  5  2  1  0
  6  5  2  0
  7  8  1  0
  7  5  1  0
  9 10  1  0
  9  8  1  0
 10 11  1  0
 11  7  1  0
 11 12  1  1
 12 13  2  0
 14 12  1  0
 14 15  1  0
 16 15  1  0
 17 16  1  0
 18 17  1  0
 18 14  1  0
 19 20  1  0
 18 19  1  6
 21 19  2  0
M  END
$$$$
