CPP.pdb
     RDKit          3D

 21 22  0  0  1  0  0  0  0  0999 V2000
   21.8913  -20.3352  -10.9328 N   0  0  0  0  0  0  0  0  0  0  0  0
   22.5648  -20.9035  -12.0880 C   0  0  1  0  0  0  0  0  0  0  0  0
   21.5142  -21.0466  -13.1740 C   0  0  0  0  0  0  0  0  0  0  0  0
   20.3863  -22.3753  -12.6138 S   0  0  0  0  0  0  0  0  0  0  0  0
   23.6890  -20.0350  -12.5294 C   0  0  0  0  0  0  0  0  0  0  0  0
   23.4364  -18.8174  -12.7829 O   0  0  0  0  0  0  0  0  0  0  0  0
   25.0076  -20.5106  -12.6735 N   0  0  0  0  0  0  0  0  0  0  0  0
   25.5142  -21.8429  -12.3341 C   0  0  0  0  0  0  0  0  0  0  0  0
   26.9476  -21.5877  -11.9272 C   0  0  0  0  0  0  0  0  0  0  0  0
   27.3693  -20.4563  -12.7960 C   0  0  0  0  0  0  0  0  0  0  0  0
   26.1186  -19.7411  -13.1944 C   0  0  1  0  0  0  0  0  0  0  0  0
   26.0171  -19.6445  -14.6719 C   0  0  0  0  0  0  0  0  0  0  0  0
   25.4842  -20.5700  -15.3164 O   0  0  0  0  0  0  0  0  0  0  0  0
   26.5202  -18.5123  -15.3380 N   0  0  0  0  0  0  0  0  0  0  0  0
   27.2524  -17.4388  -14.6406 C   0  0  0  0  0  0  0  0  0  0  0  0
   28.0102  -16.7581  -15.7495 C   0  0  0  0  0  0  0  0  0  0  0  0
   26.9393  -16.7319  -16.8396 C   0  0  0  0  0  0  0  0  0  0  0  0
   26.4438  -18.1711  -16.7537 C   0  0  1  0  0  0  0  0  0  0  0  0
   27.4378  -18.9695  -17.5432 C   0  0  0  0  0  0  0  0  0  0  0  0
   27.3585  -18.8898  -18.9096 O   0  0  0  0  0  0  0  0  0  0  0  0
   28.3160  -19.6885  -17.0167 O   0  0  0  0  0  0  0  0  0  0  0  0
  2  1  1  1
  3  2  1  0
  4  3  1  0
  5  2  1  0
  6  5  2  0
  7  8  1  0
  7  5  1  0
  9 10  1  0
  9  8  1  0
 10 11  1  0
 11  7  1  0
 11 12  1  6
 12 13  2  0
 14 12  1  0
 14 15  1  0
 16 15  1  0
 17 16  1  0
 18 17  1  0
 18 14  1  0
 19 20  1  0
 18 19  1  6
 21 19  2  0
M  END
$$$$
