CPP.pdb
     RDKit          3D

 21 22  0  0  1  0  0  0  0  0999 V2000
   28.5626  -22.5746  -18.1660 N   0  0  0  0  0  0  0  0  0  0  0  0
   27.3435  -21.9294  -17.7088 C   0  0  1  0  0  0  0  0  0  0  0  0
   26.2188  -22.9243  -17.9295 C   0  0  0  0  0  0  0  0  0  0  0  0
   24.6860  -22.0824  -17.3881 S   0  0  0  0  0  0  0  0  0  0  0  0
   27.4523  -21.5394  -16.2774 C   0  0  0  0  0  0  0  0  0  0  0  0
   27.9655  -22.3737  -15.4705 O   0  0  0  0  0  0  0  0  0  0  0  0
   27.0116  -20.2919  -15.7924 N   0  0  0  0  0  0  0  0  0  0  0  0
   26.4511  -19.1835  -16.5697 C   0  0  0  0  0  0  0  0  0  0  0  0
   26.8900  -17.9540  -15.8073 C   0  0  0  0  0  0  0  0  0  0  0  0
   26.8837  -18.3940  -14.3864 C   0  0  0  0  0  0  0  0  0  0  0  0
   27.0402  -19.8804  -14.4040 C   0  0  1  0  0  0  0  0  0  0  0  0
   25.9340  -20.5336  -13.6609 C   0  0  0  0  0  0  0  0  0  0  0  0
   24.9458  -20.9717  -14.2832 O   0  0  0  0  0  0  0  0  0  0  0  0
   26.0043  -20.6564  -12.2614 N   0  0  0  0  0  0  0  0  0  0  0  0
   27.1513  -20.1640  -11.4760 C   0  0  0  0  0  0  0  0  0  0  0  0
   26.5891  -20.0323  -10.0854 C   0  0  0  0  0  0  0  0  0  0  0  0
   25.7593  -21.3130  -10.0010 C   0  0  0  0  0  0  0  0  0  0  0  0
   25.0376  -21.2454  -11.3422 C   0  0  1  0  0  0  0  0  0  0  0  0
   23.8876  -20.3100  -11.1151 C   0  0  0  0  0  0  0  0  0  0  0  0
   22.7453  -20.8439  -10.5771 O   0  0  0  0  0  0  0  0  0  0  0  0
   23.9287  -19.0902  -11.3908 O   0  0  0  0  0  0  0  0  0  0  0  0
  2  1  1  1
  3  2  1  0
  4  3  1  0
  5  2  1  0
  6  5  2  0
  7  8  1  0
  7  5  1  0
  9 10  1  0
  9  8  1  0
 10 11  1  0
 11  7  1  0
 11 12  1  1
 12 13  2  0
 14 12  1  0
 14 15  1  0
 16 15  1  0
 17 16  1  0
 18 17  1  0
 18 14  1  0
 19 20  1  0
 18 19  1  1
 21 19  2  0
M  END
$$$$
