CPP.pdb
     RDKit          3D

 21 22  0  0  1  0  0  0  0  0999 V2000
   23.7487  -14.7671  -18.1508 N   0  0  0  0  0  0  0  0  0  0  0  0
   24.3036  -13.4573  -18.4472 C   0  0  1  0  0  0  0  0  0  0  0  0
   23.8652  -13.1113  -19.8585 C   0  0  0  0  0  0  0  0  0  0  0  0
   24.6519  -11.5060  -20.2526 S   0  0  0  0  0  0  0  0  0  0  0  0
   23.8299  -12.4442  -17.4663 C   0  0  0  0  0  0  0  0  0  0  0  0
   22.5954  -12.4317  -17.1727 O   0  0  0  0  0  0  0  0  0  0  0  0
   24.6930  -11.5103  -16.8592 N   0  0  0  0  0  0  0  0  0  0  0  0
   26.1529  -11.4477  -16.9676 C   0  0  0  0  0  0  0  0  0  0  0  0
   26.5870  -10.8851  -15.6332 C   0  0  0  0  0  0  0  0  0  0  0  0
   25.4864   -9.9555  -15.2627 C   0  0  0  0  0  0  0  0  0  0  0  0
   24.2725  -10.4239  -15.9986 C   0  0  1  0  0  0  0  0  0  0  0  0
   23.6978   -9.3263  -16.8156 C   0  0  0  0  0  0  0  0  0  0  0  0
   24.1296   -9.1225  -17.9679 O   0  0  0  0  0  0  0  0  0  0  0  0
   22.6706   -8.5224  -16.2889 N   0  0  0  0  0  0  0  0  0  0  0  0
   22.1169   -8.7234  -14.9370 C   0  0  0  0  0  0  0  0  0  0  0  0
   21.4734   -7.3983  -14.6246 C   0  0  0  0  0  0  0  0  0  0  0  0
   20.8163   -7.0873  -15.9690 C   0  0  0  0  0  0  0  0  0  0  0  0
   21.9786   -7.3967  -16.9057 C   0  0  1  0  0  0  0  0  0  0  0  0
   22.8376   -6.1679  -16.8741 C   0  0  0  0  0  0  0  0  0  0  0  0
   22.4584   -5.1202  -17.6729 O   0  0  0  0  0  0  0  0  0  0  0  0
   23.8626   -6.0634  -16.1642 O   0  0  0  0  0  0  0  0  0  0  0  0
  2  1  1  1
  3  2  1  0
  4  3  1  0
  5  2  1  0
  6  5  2  0
  7  8  1  0
  7  5  1  0
  9 10  1  0
  9  8  1  0
 10 11  1  0
 11  7  1  0
 11 12  1  6
 12 13  2  0
 14 12  1  0
 14 15  1  0
 16 15  1  0
 17 16  1  0
 18 17  1  0
 18 14  1  0
 19 20  1  0
 18 19  1  1
 21 19  2  0
M  END
$$$$
