CPP.pdb
     RDKit          3D

 21 22  0  0  1  0  0  0  0  0999 V2000
   23.4002  -20.4391  -18.3203 N   0  0  0  0  0  0  0  0  0  0  0  0
   23.5093  -19.4910  -17.2247 C   0  0  1  0  0  0  0  0  0  0  0  0
   22.1168  -19.3448  -16.6390 C   0  0  0  0  0  0  0  0  0  0  0  0
   22.1915  -17.9044  -15.5116 S   0  0  0  0  0  0  0  0  0  0  0  0
   24.4819  -19.9663  -16.2043 C   0  0  0  0  0  0  0  0  0  0  0  0
   24.4669  -21.1971  -15.8957 O   0  0  0  0  0  0  0  0  0  0  0  0
   25.4076  -19.1088  -15.5769 N   0  0  0  0  0  0  0  0  0  0  0  0
   25.6271  -17.6859  -15.8490 C   0  0  0  0  0  0  0  0  0  0  0  0
   27.0985  -17.4897  -15.5621 C   0  0  0  0  0  0  0  0  0  0  0  0
   27.3741  -18.4357  -14.4478 C   0  0  0  0  0  0  0  0  0  0  0  0
   26.3271  -19.4995  -14.5283 C   0  0  1  0  0  0  0  0  0  0  0  0
   25.6011  -19.6201  -13.2395 C   0  0  0  0  0  0  0  0  0  0  0  0
   24.5744  -18.9396  -13.0426 O   0  0  0  0  0  0  0  0  0  0  0  0
   26.0720  -20.4996  -12.2478 N   0  0  0  0  0  0  0  0  0  0  0  0
   27.2997  -21.2999  -12.4118 C   0  0  0  0  0  0  0  0  0  0  0  0
   27.6758  -21.6530  -10.9972 C   0  0  0  0  0  0  0  0  0  0  0  0
   26.3000  -21.9872  -10.4214 C   0  0  0  0  0  0  0  0  0  0  0  0
   25.5041  -20.7935  -10.9372 C   0  0  1  0  0  0  0  0  0  0  0  0
   25.8019  -19.6848   -9.9724 C   0  0  0  0  0  0  0  0  0  0  0  0
   26.7876  -18.7991  -10.3239 O   0  0  0  0  0  0  0  0  0  0  0  0
   25.2006  -19.5396   -8.8848 O   0  0  0  0  0  0  0  0  0  0  0  0
  2  1  1  6
  3  2  1  0
  4  3  1  0
  5  2  1  0
  6  5  2  0
  7  8  1  0
  7  5  1  0
  9 10  1  0
  9  8  1  0
 10 11  1  0
 11  7  1  0
 11 12  1  1
 12 13  2  0
 14 12  1  0
 14 15  1  0
 16 15  1  0
 17 16  1  0
 18 17  1  0
 18 14  1  0
 19 20  1  0
 18 19  1  1
 21 19  2  0
M  END
$$$$
