CPP.pdb
     RDKit          3D

 21 22  0  0  1  0  0  0  0  0999 V2000
   20.8928  -20.9531  -11.7861 N   0  0  0  0  0  0  0  0  0  0  0  0
   21.8411  -21.4433  -12.7718 C   0  0  1  0  0  0  0  0  0  0  0  0
   21.0679  -21.6184  -14.0661 C   0  0  0  0  0  0  0  0  0  0  0  0
   22.2171  -22.4334  -15.2350 S   0  0  0  0  0  0  0  0  0  0  0  0
   22.9740  -20.4938  -12.9388 C   0  0  0  0  0  0  0  0  0  0  0  0
   22.7071  -19.2551  -13.0082 O   0  0  0  0  0  0  0  0  0  0  0  0
   24.3159  -20.9162  -13.0209 N   0  0  0  0  0  0  0  0  0  0  0  0
   24.8280  -22.2821  -12.8826 C   0  0  0  0  0  0  0  0  0  0  0  0
   26.1999  -22.0901  -12.2772 C   0  0  0  0  0  0  0  0  0  0  0  0
   26.6738  -20.8089  -12.8660 C   0  0  0  0  0  0  0  0  0  0  0  0
   25.4497  -20.0474  -13.2608 C   0  0  1  0  0  0  0  0  0  0  0  0
   25.5042  -19.6733  -14.6959 C   0  0  0  0  0  0  0  0  0  0  0  0
   25.0798  -20.4684  -15.5583 O   0  0  0  0  0  0  0  0  0  0  0  0
   26.0323  -18.4266  -15.0772 N   0  0  0  0  0  0  0  0  0  0  0  0
   26.6127  -17.4784  -14.1082 C   0  0  0  0  0  0  0  0  0  0  0  0
   27.4734  -16.5887  -14.9657 C   0  0  0  0  0  0  0  0  0  0  0  0
   26.5534  -16.3934  -16.1705 C   0  0  0  0  0  0  0  0  0  0  0  0
   26.1238  -17.8368  -16.4077 C   0  0  1  0  0  0  0  0  0  0  0  0
   27.2508  -18.4529  -17.1816 C   0  0  0  0  0  0  0  0  0  0  0  0
   28.1472  -19.2159  -16.4788 O   0  0  0  0  0  0  0  0  0  0  0  0
   27.4019  -18.3017  -18.4145 O   0  0  0  0  0  0  0  0  0  0  0  0
  2  1  1  1
  3  2  1  0
  4  3  1  0
  5  2  1  0
  6  5  2  0
  7  8  1  0
  7  5  1  0
  9 10  1  0
  9  8  1  0
 10 11  1  0
 11  7  1  0
 11 12  1  6
 12 13  2  0
 14 12  1  0
 14 15  1  0
 16 15  1  0
 17 16  1  0
 18 17  1  0
 18 14  1  0
 19 20  1  0
 18 19  1  6
 21 19  2  0
M  END
$$$$
