CPP.pdb
     RDKit          3D

 21 22  0  0  1  0  0  0  0  0999 V2000
   21.1139  -20.3094  -12.7017 N   0  0  0  0  0  0  0  0  0  0  0  0
   22.2059  -21.1166  -13.2185 C   0  0  1  0  0  0  0  0  0  0  0  0
   21.7223  -21.7101  -14.5291 C   0  0  0  0  0  0  0  0  0  0  0  0
   22.4862  -23.3698  -14.6445 S   0  0  0  0  0  0  0  0  0  0  0  0
   23.4303  -20.2943  -13.4123 C   0  0  0  0  0  0  0  0  0  0  0  0
   23.2889  -19.1079  -13.8401 O   0  0  0  0  0  0  0  0  0  0  0  0
   24.7248  -20.7800  -13.1405 N   0  0  0  0  0  0  0  0  0  0  0  0
   25.0820  -22.0486  -12.5001 C   0  0  0  0  0  0  0  0  0  0  0  0
   26.3690  -21.7323  -11.7728 C   0  0  0  0  0  0  0  0  0  0  0  0
   27.0383  -20.7339  -12.6493 C   0  0  0  0  0  0  0  0  0  0  0  0
   25.9576  -20.0877  -13.4549 C   0  0  1  0  0  0  0  0  0  0  0  0
   26.2448  -20.2022  -14.9064 C   0  0  0  0  0  0  0  0  0  0  0  0
   25.8984  -21.2280  -15.5257 O   0  0  0  0  0  0  0  0  0  0  0  0
   26.9045  -19.1561  -15.5765 N   0  0  0  0  0  0  0  0  0  0  0  0
   27.4433  -17.9763  -14.8746 C   0  0  0  0  0  0  0  0  0  0  0  0
   28.4585  -17.4296  -15.8430 C   0  0  0  0  0  0  0  0  0  0  0  0
   27.6955  -17.5837  -17.1584 C   0  0  0  0  0  0  0  0  0  0  0  0
   27.1875  -19.0123  -16.9997 C   0  0  1  0  0  0  0  0  0  0  0  0
   28.3440  -19.8799  -17.3980 C   0  0  0  0  0  0  0  0  0  0  0  0
   29.0855  -20.4348  -16.3871 O   0  0  0  0  0  0  0  0  0  0  0  0
   28.6517  -20.1119  -18.5884 O   0  0  0  0  0  0  0  0  0  0  0  0
  2  1  1  6
  3  2  1  0
  4  3  1  0
  5  2  1  0
  6  5  2  0
  7  8  1  0
  7  5  1  0
  9 10  1  0
  9  8  1  0
 10 11  1  0
 11  7  1  0
 11 12  1  6
 12 13  2  0
 14 12  1  0
 14 15  1  0
 16 15  1  0
 17 16  1  0
 18 17  1  0
 18 14  1  0
 19 20  1  0
 18 19  1  1
 21 19  2  0
M  END
$$$$
