CPP.pdb
     RDKit          3D

 21 22  0  0  1  0  0  0  0  0999 V2000
   26.9949  -22.5258  -18.9446 N   0  0  0  0  0  0  0  0  0  0  0  0
   26.3125  -21.4698  -18.2165 C   0  0  1  0  0  0  0  0  0  0  0  0
   24.8251  -21.7282  -18.3729 C   0  0  0  0  0  0  0  0  0  0  0  0
   23.9801  -20.2955  -17.6084 S   0  0  0  0  0  0  0  0  0  0  0  0
   26.7163  -21.4636  -16.7848 C   0  0  0  0  0  0  0  0  0  0  0  0
   26.9082  -22.5816  -16.2157 O   0  0  0  0  0  0  0  0  0  0  0  0
   26.8914  -20.2753  -16.0480 N   0  0  0  0  0  0  0  0  0  0  0  0
   26.8455  -18.9008  -16.5537 C   0  0  0  0  0  0  0  0  0  0  0  0
   27.8128  -18.1584  -15.6601 C   0  0  0  0  0  0  0  0  0  0  0  0
   27.6720  -18.8341  -14.3424 C   0  0  0  0  0  0  0  0  0  0  0  0
   27.1561  -20.2081  -14.6256 C   0  0  1  0  0  0  0  0  0  0  0  0
   25.9070  -20.4667  -13.8669 C   0  0  0  0  0  0  0  0  0  0  0  0
   24.8027  -20.3355  -14.4318 O   0  0  0  0  0  0  0  0  0  0  0  0
   25.9732  -20.8581  -12.5175 N   0  0  0  0  0  0  0  0  0  0  0  0
   27.2491  -20.9998  -11.7917 C   0  0  0  0  0  0  0  0  0  0  0  0
   26.8375  -20.9144  -10.3458 C   0  0  0  0  0  0  0  0  0  0  0  0
   25.5683  -21.7656  -10.3697 C   0  0  0  0  0  0  0  0  0  0  0  0
   24.8856  -21.1819  -11.6016 C   0  0  1  0  0  0  0  0  0  0  0  0
   24.2152  -19.9317  -11.1156 C   0  0  0  0  0  0  0  0  0  0  0  0
   24.8940  -18.7527  -11.2852 O   0  0  0  0  0  0  0  0  0  0  0  0
   23.0872  -19.9222  -10.5741 O   0  0  0  0  0  0  0  0  0  0  0  0
  2  1  1  6
  3  2  1  0
  4  3  1  0
  5  2  1  0
  6  5  2  0
  7  8  1  0
  7  5  1  0
  9 10  1  0
  9  8  1  0
 10 11  1  0
 11  7  1  0
 11 12  1  1
 12 13  2  0
 14 12  1  0
 14 15  1  0
 16 15  1  0
 17 16  1  0
 18 17  1  0
 18 14  1  0
 19 20  1  0
 18 19  1  1
 21 19  2  0
M  END
$$$$
