CPP.pdb
     RDKit          3D

 21 22  0  0  1  0  0  0  0  0999 V2000
   15.4961  -21.1166    1.8327 N   0  0  0  0  0  0  0  0  0  0  0  0
   16.1293  -20.0736    2.6217 C   0  0  1  0  0  0  0  0  0  0  0  0
   15.0809  -19.5738    3.5988 C   0  0  0  0  0  0  0  0  0  0  0  0
   14.5931  -21.0250    4.6025 S   0  0  0  0  0  0  0  0  0  0  0  0
   17.3286  -20.5960    3.3300 C   0  0  0  0  0  0  0  0  0  0  0  0
   17.4954  -21.8533    3.3702 O   0  0  0  0  0  0  0  0  0  0  0  0
   18.2739  -19.7544    3.9495 N   0  0  0  0  0  0  0  0  0  0  0  0
   18.2878  -18.2892    3.9600 C   0  0  0  0  0  0  0  0  0  0  0  0
   19.7592  -17.9458    4.0085 C   0  0  0  0  0  0  0  0  0  0  0  0
   20.3550  -19.0415    4.8192 C   0  0  0  0  0  0  0  0  0  0  0  0
   19.4264  -20.2069    4.7009 C   0  0  1  0  0  0  0  0  0  0  0  0
   19.0012  -20.6777    6.0426 C   0  0  0  0  0  0  0  0  0  0  0  0
   17.9139  -20.2921    6.5168 O   0  0  0  0  0  0  0  0  0  0  0  0
   19.8236  -21.5551    6.7723 N   0  0  0  0  0  0  0  0  0  0  0  0
   21.0977  -22.0764    6.2433 C   0  0  0  0  0  0  0  0  0  0  0  0
   21.8375  -22.5077    7.4819 C   0  0  0  0  0  0  0  0  0  0  0  0
   20.7028  -23.1672    8.2651 C   0  0  0  0  0  0  0  0  0  0  0  0
   19.6241  -22.1012    8.1096 C   0  0  1  0  0  0  0  0  0  0  0  0
   19.9444  -21.0726    9.1528 C   0  0  0  0  0  0  0  0  0  0  0  0
   20.6879  -19.9913    8.7559 O   0  0  0  0  0  0  0  0  0  0  0  0
   19.5687  -21.1602   10.3430 O   0  0  0  0  0  0  0  0  0  0  0  0
  2  1  1  1
  3  2  1  0
  4  3  1  0
  5  2  1  0
  6  5  2  0
  7  8  1  0
  7  5  1  0
  9 10  1  0
  9  8  1  0
 10 11  1  0
 11  7  1  0
 11 12  1  1
 12 13  2  0
 14 12  1  0
 14 15  1  0
 16 15  1  0
 17 16  1  0
 18 17  1  0
 18 14  1  0
 19 20  1  0
 18 19  1  1
 21 19  2  0
M  END
$$$$
