CPP.pdb
     RDKit          3D

 21 22  0  0  1  0  0  0  0  0999 V2000
   26.4503  -19.5085  -13.2747 N   0  0  0  0  0  0  0  0  0  0  0  0
   26.4838  -20.5581  -12.2705 C   0  0  1  0  0  0  0  0  0  0  0  0
   27.6681  -21.4443  -12.6105 C   0  0  0  0  0  0  0  0  0  0  0  0
   27.5831  -22.8650  -11.4591 S   0  0  0  0  0  0  0  0  0  0  0  0
   26.6084  -19.9835  -10.9040 C   0  0  0  0  0  0  0  0  0  0  0  0
   27.4907  -19.0919  -10.7114 O   0  0  0  0  0  0  0  0  0  0  0  0
   25.7913  -20.3890   -9.8299 N   0  0  0  0  0  0  0  0  0  0  0  0
   24.6946  -21.3602   -9.8646 C   0  0  0  0  0  0  0  0  0  0  0  0
   23.7355  -20.8545   -8.8111 C   0  0  0  0  0  0  0  0  0  0  0  0
   24.6231  -20.2577   -7.7772 C   0  0  0  0  0  0  0  0  0  0  0  0
   25.8978  -19.8996   -8.4709 C   0  0  1  0  0  0  0  0  0  0  0  0
   27.0584  -20.5323   -7.7961 C   0  0  0  0  0  0  0  0  0  0  0  0
   27.3918  -21.6950   -8.1007 O   0  0  0  0  0  0  0  0  0  0  0  0
   27.7764  -19.8200   -6.8185 N   0  0  0  0  0  0  0  0  0  0  0  0
   27.5601  -18.3841   -6.5609 C   0  0  0  0  0  0  0  0  0  0  0  0
   28.1153  -18.1925   -5.1744 C   0  0  0  0  0  0  0  0  0  0  0  0
   29.3832  -19.0411   -5.2655 C   0  0  0  0  0  0  0  0  0  0  0  0
   28.8100  -20.2990   -5.9081 C   0  0  1  0  0  0  0  0  0  0  0  0
   28.1995  -21.0679   -4.7746 C   0  0  0  0  0  0  0  0  0  0  0  0
   29.0598  -21.6924   -3.9088 O   0  0  0  0  0  0  0  0  0  0  0  0
   26.9651  -21.1599   -4.5920 O   0  0  0  0  0  0  0  0  0  0  0  0
  2  1  1  6
  3  2  1  0
  4  3  1  0
  5  2  1  0
  6  5  2  0
  7  8  1  0
  7  5  1  0
  9 10  1  0
  9  8  1  0
 10 11  1  0
 11  7  1  0
 11 12  1  1
 12 13  2  0
 14 12  1  0
 14 15  1  0
 16 15  1  0
 17 16  1  0
 18 17  1  0
 18 14  1  0
 19 20  1  0
 18 19  1  1
 21 19  2  0
M  END
$$$$
