MMV.pdb
     RDKit          3D

 24 23  0  0  1  0  0  0  0  0999 V2000
    8.4233  -11.9350   19.6189 C   0  0  0  0  0  0  0  0  0  0  0  0
    7.1053  -12.8060   18.7580 S   0  0  0  0  0  0  0  0  0  0  0  0
    7.1559  -14.5982   19.1156 C   0  0  0  0  0  0  0  0  0  0  0  0
    6.9084  -14.7679   20.5814 C   0  0  0  0  0  0  0  0  0  0  0  0
    7.7836  -15.8109   21.2153 C   0  0  2  0  0  0  0  0  0  0  0  0
    7.5630  -17.0941   20.6216 N   0  0  0  0  0  0  0  0  0  0  0  0
    7.6218  -15.8450   22.7013 C   0  0  0  0  0  0  0  0  0  0  0  0
    7.6829  -14.7652   23.3342 O   0  0  0  0  0  0  0  0  0  0  0  0
    6.4200  -21.4690   25.8222 C   0  0  0  0  0  0  0  0  0  0  0  0
    6.3570  -20.3886   27.2555 S   0  0  0  0  0  0  0  0  0  0  0  0
    6.7730  -18.6892   26.7274 C   0  0  0  0  0  0  0  0  0  0  0  0
    6.8139  -18.6303   25.2285 C   0  0  0  0  0  0  0  0  0  0  0  0
    7.2593  -17.2384   24.8112 C   0  0  2  0  0  0  0  0  0  0  0  0
    7.4045  -17.0459   23.4060 N   0  0  0  0  0  0  0  0  0  0  0  0
    8.2792  -16.6391   25.6581 C   0  0  0  0  0  0  0  0  0  0  0  0
    9.4846  -16.9775   25.4549 O   0  0  0  0  0  0  0  0  0  0  0  0
    8.2868  -12.8245   26.8818 C   0  0  0  0  0  0  0  0  0  0  0  0
    8.7688  -13.7454   27.9819 C   0  0  2  0  0  0  0  0  0  0  0  0
    9.9356  -13.0651   28.6537 C   0  0  0  0  0  0  0  0  0  0  0  0
    9.1652  -15.0654   27.3638 C   0  0  2  0  0  0  0  0  0  0  0  0
    8.0414  -15.7026   26.6984 N   0  0  0  0  0  0  0  0  0  0  0  0
    9.7043  -15.9461   28.4314 C   0  0  0  0  0  0  0  0  0  0  0  0
   11.0283  -15.9325   28.7837 O   0  0  0  0  0  0  0  0  0  0  0  0
    8.9187  -16.7283   29.0292 O   0  0  0  0  0  0  0  0  0  0  0  0
  1  2  1  0
  2  3  1  0
  4  5  1  0
  4  3  1  0
  5  6  1  6
  7  5  1  0
  8  7  2  0
  9 10  1  0
 10 11  1  0
 13 12  1  6
 12 11  1  0
 13 14  1  0
 14  7  1  0
 15 21  1  0
 15 13  1  0
 16 15  2  0
 18 17  1  6
 18 20  1  0
 18 19  1  0
 20 22  1  0
 20 21  1  1
 22 23  1  0
 24 22  2  0
M  END
$$$$
