MMV.pdb
     RDKit          3D

 24 23  0  0  1  0  0  0  0  0999 V2000
    9.1613  -11.8658   19.2143 C   0  0  0  0  0  0  0  0  0  0  0  0
    7.5489  -12.5261   19.6629 S   0  0  0  0  0  0  0  0  0  0  0  0
    7.3856  -14.2731   19.1491 C   0  0  0  0  0  0  0  0  0  0  0  0
    8.6866  -14.9494   19.4472 C   0  0  0  0  0  0  0  0  0  0  0  0
    8.5586  -16.0777   20.4302 C   0  0  2  0  0  0  0  0  0  0  0  0
    7.2457  -16.6454   20.3898 N   0  0  0  0  0  0  0  0  0  0  0  0
    8.9463  -15.6585   21.8121 C   0  0  0  0  0  0  0  0  0  0  0  0
   10.1441  -15.3644   22.0336 O   0  0  0  0  0  0  0  0  0  0  0  0
    6.7385  -11.2009   26.3259 C   0  0  0  0  0  0  0  0  0  0  0  0
    6.4281  -12.8396   26.9923 S   0  0  0  0  0  0  0  0  0  0  0  0
    7.6232  -14.0086   26.2542 C   0  0  0  0  0  0  0  0  0  0  0  0
    7.1909  -14.3460   24.8573 C   0  0  0  0  0  0  0  0  0  0  0  0
    8.2385  -15.2527   24.2325 C   0  0  2  0  0  0  0  0  0  0  0  0
    8.0122  -15.5851   22.8647 N   0  0  0  0  0  0  0  0  0  0  0  0
    8.7149  -16.3257   25.0919 C   0  0  0  0  0  0  0  0  0  0  0  0
    7.8941  -17.2442   25.3945 O   0  0  0  0  0  0  0  0  0  0  0  0
   11.9771  -18.2435   24.4283 C   0  0  0  0  0  0  0  0  0  0  0  0
   11.8766  -18.0151   25.9211 C   0  0  2  0  0  0  0  0  0  0  0  0
   12.3275  -19.2855   26.5980 C   0  0  0  0  0  0  0  0  0  0  0  0
   10.4446  -17.6736   26.2592 C   0  0  2  0  0  0  0  0  0  0  0  0
   10.0265  -16.4351   25.6243 N   0  0  0  0  0  0  0  0  0  0  0  0
   10.3176  -17.5695   27.7353 C   0  0  0  0  0  0  0  0  0  0  0  0
   10.2676  -18.6777   28.5395 O   0  0  0  0  0  0  0  0  0  0  0  0
   10.2540  -16.4268   28.2613 O   0  0  0  0  0  0  0  0  0  0  0  0
  1  2  1  0
  2  3  1  0
  4  5  1  0
  4  3  1  0
  5  6  1  1
  7  5  1  0
  8  7  2  0
  9 10  1  0
 10 11  1  0
 13 12  1  1
 12 11  1  0
 13 14  1  0
 14  7  1  0
 15 21  1  0
 15 13  1  0
 16 15  2  0
 18 17  1  6
 18 20  1  0
 18 19  1  0
 20 22  1  0
 20 21  1  6
 22 23  1  0
 24 22  2  0
M  END
$$$$
