MMV.pdb
     RDKit          3D

 24 23  0  0  1  0  0  0  0  0999 V2000
    8.6527  -11.6853   18.8952 C   0  0  0  0  0  0  0  0  0  0  0  0
    7.4393  -12.7837   18.1482 S   0  0  0  0  0  0  0  0  0  0  0  0
    7.6550  -14.5015   18.7356 C   0  0  0  0  0  0  0  0  0  0  0  0
    8.6817  -14.4755   19.8236 C   0  0  0  0  0  0  0  0  0  0  0  0
    8.7396  -15.7495   20.6170 C   0  0  2  0  0  0  0  0  0  0  0  0
    7.5229  -16.4907   20.4847 N   0  0  0  0  0  0  0  0  0  0  0  0
    9.0907  -15.4982   22.0485 C   0  0  0  0  0  0  0  0  0  0  0  0
   10.2891  -15.2770   22.3401 O   0  0  0  0  0  0  0  0  0  0  0  0
    6.9538  -11.2579   26.6998 C   0  0  0  0  0  0  0  0  0  0  0  0
    6.3820  -12.8801   27.2169 S   0  0  0  0  0  0  0  0  0  0  0  0
    7.5025  -14.1456   26.5222 C   0  0  0  0  0  0  0  0  0  0  0  0
    7.2188  -14.3111   25.0579 C   0  0  0  0  0  0  0  0  0  0  0  0
    8.2891  -15.2069   24.4561 C   0  0  2  0  0  0  0  0  0  0  0  0
    8.1215  -15.5028   23.0715 N   0  0  0  0  0  0  0  0  0  0  0  0
    8.7230  -16.3040   25.3073 C   0  0  0  0  0  0  0  0  0  0  0  0
    7.8843  -17.2230   25.5544 O   0  0  0  0  0  0  0  0  0  0  0  0
   11.8290  -18.3153   24.5974 C   0  0  0  0  0  0  0  0  0  0  0  0
   11.8007  -18.0990   26.0951 C   0  0  2  0  0  0  0  0  0  0  0  0
   12.2222  -19.3954   26.7410 C   0  0  0  0  0  0  0  0  0  0  0  0
   10.4005  -17.6984   26.4960 C   0  0  2  0  0  0  0  0  0  0  0  0
   10.0114  -16.4368   25.8890 N   0  0  0  0  0  0  0  0  0  0  0  0
   10.3401  -17.6030   27.9769 C   0  0  0  0  0  0  0  0  0  0  0  0
   10.3531  -18.7152   28.7770 O   0  0  0  0  0  0  0  0  0  0  0  0
   10.2749  -16.4642   28.5110 O   0  0  0  0  0  0  0  0  0  0  0  0
  1  2  1  0
  2  3  1  0
  4  5  1  0
  4  3  1  0
  5  6  1  1
  7  5  1  0
  8  7  2  0
  9 10  1  0
 10 11  1  0
 13 12  1  1
 12 11  1  0
 13 14  1  0
 14  7  1  0
 15 21  1  0
 15 13  1  0
 16 15  2  0
 18 17  1  6
 18 20  1  0
 18 19  1  0
 20 22  1  0
 20 21  1  6
 22 23  1  0
 24 22  2  0
M  END
$$$$
