MMV.pdb
     RDKit          3D

 24 23  0  0  1  0  0  0  0  0999 V2000
    5.7780  -21.0248   23.7769 C   0  0  0  0  0  0  0  0  0  0  0  0
    4.8723  -20.9757   22.2232 S   0  0  0  0  0  0  0  0  0  0  0  0
    5.0783  -19.3613   21.3904 C   0  0  0  0  0  0  0  0  0  0  0  0
    6.0887  -18.5819   22.1716 C   0  0  0  0  0  0  0  0  0  0  0  0
    6.3429  -17.2109   21.6136 C   0  0  2  0  0  0  0  0  0  0  0  0
    6.7977  -17.2857   20.2590 N   0  0  0  0  0  0  0  0  0  0  0  0
    7.2764  -16.4233   22.4762 C   0  0  0  0  0  0  0  0  0  0  0  0
    8.5069  -16.5015   22.2522 O   0  0  0  0  0  0  0  0  0  0  0  0
    6.6837  -10.8066   26.3755 C   0  0  0  0  0  0  0  0  0  0  0  0
    6.8985  -12.2098   27.4759 S   0  0  0  0  0  0  0  0  0  0  0  0
    7.7122  -13.5603   26.5517 C   0  0  0  0  0  0  0  0  0  0  0  0
    6.8473  -13.9613   25.3928 C   0  0  0  0  0  0  0  0  0  0  0  0
    7.5552  -15.0613   24.6189 C   0  0  2  0  0  0  0  0  0  0  0  0
    6.8173  -15.6022   23.5254 N   0  0  0  0  0  0  0  0  0  0  0  0
    8.2951  -16.0103   25.4365 C   0  0  0  0  0  0  0  0  0  0  0  0
    7.6268  -16.8574   26.1033 O   0  0  0  0  0  0  0  0  0  0  0  0
   12.5706  -16.4886   25.5455 C   0  0  0  0  0  0  0  0  0  0  0  0
   11.5906  -17.6419   25.5619 C   0  0  2  0  0  0  0  0  0  0  0  0
   11.3403  -18.0349   24.1272 C   0  0  0  0  0  0  0  0  0  0  0  0
   10.3257  -17.1872   26.2509 C   0  0  2  0  0  0  0  0  0  0  0  0
    9.7088  -16.0715   25.5534 N   0  0  0  0  0  0  0  0  0  0  0  0
   10.6568  -16.8073   27.6481 C   0  0  0  0  0  0  0  0  0  0  0  0
   10.4945  -15.5277   28.1102 O   0  0  0  0  0  0  0  0  0  0  0  0
   11.1003  -17.6898   28.4296 O   0  0  0  0  0  0  0  0  0  0  0  0
  1  2  1  0
  2  3  1  0
  4  5  1  0
  4  3  1  0
  5  6  1  6
  7  5  1  0
  8  7  2  0
  9 10  1  0
 10 11  1  0
 13 12  1  1
 12 11  1  0
 13 14  1  0
 14  7  1  0
 15 21  1  0
 15 13  1  0
 16 15  2  0
 18 17  1  6
 18 20  1  0
 18 19  1  0
 20 22  1  0
 20 21  1  6
 22 23  1  0
 24 22  2  0
M  END
$$$$
