MMV.pdb
     RDKit          3D

 24 23  0  0  1  0  0  0  0  0999 V2000
    5.1322  -13.0260   25.4524 C   0  0  0  0  0  0  0  0  0  0  0  0
    5.0348  -14.2492   26.7681 S   0  0  0  0  0  0  0  0  0  0  0  0
    5.9721  -15.7584   26.3363 C   0  0  0  0  0  0  0  0  0  0  0  0
    5.2109  -16.4632   25.2581 C   0  0  0  0  0  0  0  0  0  0  0  0
    5.9496  -17.6350   24.6777 C   0  0  2  0  0  0  0  0  0  0  0  0
    5.9640  -18.7352   25.5925 N   0  0  0  0  0  0  0  0  0  0  0  0
    7.3259  -17.2591   24.2304 C   0  0  0  0  0  0  0  0  0  0  0  0
    8.3062  -17.7908   24.8018 O   0  0  0  0  0  0  0  0  0  0  0  0
    8.3496  -11.9255   20.3808 C   0  0  0  0  0  0  0  0  0  0  0  0
    9.8336  -12.8820   20.0511 S   0  0  0  0  0  0  0  0  0  0  0  0
    9.9924  -14.1774   21.3304 C   0  0  0  0  0  0  0  0  0  0  0  0
    8.6278  -14.5548   21.8280 C   0  0  0  0  0  0  0  0  0  0  0  0
    8.7731  -15.7006   22.8158 C   0  0  2  0  0  0  0  0  0  0  0  0
    7.5518  -16.3318   23.1935 N   0  0  0  0  0  0  0  0  0  0  0  0
    9.7454  -15.4799   23.8754 C   0  0  0  0  0  0  0  0  0  0  0  0
   10.9682  -15.4101   23.5453 O   0  0  0  0  0  0  0  0  0  0  0  0
    9.6259  -12.9195   26.8956 C   0  0  0  0  0  0  0  0  0  0  0  0
   10.0433  -14.2882   27.3886 C   0  0  2  0  0  0  0  0  0  0  0  0
   11.1391  -14.0813   28.4043 C   0  0  0  0  0  0  0  0  0  0  0  0
   10.5163  -15.1007   26.2063 C   0  0  2  0  0  0  0  0  0  0  0  0
    9.4430  -15.3345   25.2550 N   0  0  0  0  0  0  0  0  0  0  0  0
   11.0597  -16.3903   26.7039 C   0  0  0  0  0  0  0  0  0  0  0  0
   10.4816  -17.5916   26.3879 O   0  0  0  0  0  0  0  0  0  0  0  0
   12.0826  -16.3764   27.4385 O   0  0  0  0  0  0  0  0  0  0  0  0
  1  2  1  0
  2  3  1  0
  4  5  1  0
  4  3  1  0
  5  6  1  1
  7  5  1  0
  8  7  2  0
  9 10  1  0
 10 11  1  0
 13 12  1  1
 12 11  1  0
 13 14  1  0
 14  7  1  0
 15 21  1  0
 15 13  1  0
 16 15  2  0
 18 17  1  6
 18 20  1  0
 18 19  1  0
 20 22  1  0
 20 21  1  6
 22 23  1  0
 24 22  2  0
M  END
$$$$
