MMV.pdb
     RDKit          3D

 24 23  0  0  1  0  0  0  0  0999 V2000
    6.0740  -20.5570   22.5701 C   0  0  0  0  0  0  0  0  0  0  0  0
    7.4697  -21.0045   21.5266 S   0  0  0  0  0  0  0  0  0  0  0  0
    8.2980  -19.5173   20.8598 C   0  0  0  0  0  0  0  0  0  0  0  0
    8.0233  -18.3914   21.8062 C   0  0  0  0  0  0  0  0  0  0  0  0
    8.6042  -17.0815   21.3564 C   0  0  2  0  0  0  0  0  0  0  0  0
    9.7419  -17.2885   20.5135 N   0  0  0  0  0  0  0  0  0  0  0  0
    8.9176  -16.1856   22.5117 C   0  0  0  0  0  0  0  0  0  0  0  0
   10.0949  -15.7797   22.6513 O   0  0  0  0  0  0  0  0  0  0  0  0
    5.9116  -10.9723   25.6974 C   0  0  0  0  0  0  0  0  0  0  0  0
    5.8291  -12.4026   26.7805 S   0  0  0  0  0  0  0  0  0  0  0  0
    7.2001  -13.5357   26.3608 C   0  0  0  0  0  0  0  0  0  0  0  0
    6.8649  -14.2760   25.0992 C   0  0  0  0  0  0  0  0  0  0  0  0
    8.1006  -15.0316   24.6389 C   0  0  2  0  0  0  0  0  0  0  0  0
    7.9361  -15.7873   23.4412 N   0  0  0  0  0  0  0  0  0  0  0  0
    8.8699  -15.6589   25.7026 C   0  0  0  0  0  0  0  0  0  0  0  0
    8.5885  -16.8590   26.0019 O   0  0  0  0  0  0  0  0  0  0  0  0
    9.5479  -14.8756   29.4920 C   0  0  0  0  0  0  0  0  0  0  0  0
   10.8399  -14.9490   28.7071 C   0  0  2  0  0  0  0  0  0  0  0  0
   11.2300  -13.5345   28.3572 C   0  0  0  0  0  0  0  0  0  0  0  0
   10.6058  -15.7906   27.4748 C   0  0  2  0  0  0  0  0  0  0  0  0
    9.9147  -15.0411   26.4393 N   0  0  0  0  0  0  0  0  0  0  0  0
    9.8188  -16.9893   27.8616 C   0  0  0  0  0  0  0  0  0  0  0  0
   10.4196  -18.1574   28.2513 O   0  0  0  0  0  0  0  0  0  0  0  0
    8.5612  -16.9278   27.8294 O   0  0  0  0  0  0  0  0  0  0  0  0
  1  2  1  0
  2  3  1  0
  4  5  1  0
  4  3  1  0
  5  6  1  1
  7  5  1  0
  8  7  2  0
  9 10  1  0
 10 11  1  0
 13 12  1  1
 12 11  1  0
 13 14  1  0
 14  7  1  0
 15 21  1  0
 15 13  1  0
 16 15  2  0
 18 17  1  1
 18 20  1  0
 18 19  1  0
 20 22  1  0
 20 21  1  6
 22 23  1  0
 24 22  2  0
M  END
$$$$
