MMV.pdb
     RDKit          3D

 24 23  0  0  1  0  0  0  0  0999 V2000
    6.9773  -12.0693   26.9414 C   0  0  0  0  0  0  0  0  0  0  0  0
    5.2595  -12.5511   26.7084 S   0  0  0  0  0  0  0  0  0  0  0  0
    5.1023  -14.3629   26.5218 C   0  0  0  0  0  0  0  0  0  0  0  0
    6.1169  -14.7972   25.5115 C   0  0  0  0  0  0  0  0  0  0  0  0
    5.9913  -16.2434   25.1265 C   0  0  2  0  0  0  0  0  0  0  0  0
    6.0739  -17.0887   26.2781 N   0  0  0  0  0  0  0  0  0  0  0  0
    6.9834  -16.6279   24.0760 C   0  0  0  0  0  0  0  0  0  0  0  0
    7.2502  -17.8425   23.9217 O   0  0  0  0  0  0  0  0  0  0  0  0
    9.4962  -11.9488   20.2882 C   0  0  0  0  0  0  0  0  0  0  0  0
    8.4257  -13.2235   19.6137 S   0  0  0  0  0  0  0  0  0  0  0  0
    8.0969  -14.4626   20.9162 C   0  0  0  0  0  0  0  0  0  0  0  0
    9.3143  -14.6096   21.7813 C   0  0  0  0  0  0  0  0  0  0  0  0
    8.9987  -15.5920   22.8973 C   0  0  2  0  0  0  0  0  0  0  0  0
    7.6224  -15.6725   23.2607 N   0  0  0  0  0  0  0  0  0  0  0  0
    9.9613  -15.6139   23.9880 C   0  0  0  0  0  0  0  0  0  0  0  0
   11.1928  -15.5903   23.6852 O   0  0  0  0  0  0  0  0  0  0  0  0
    9.8716  -13.1740   26.9021 C   0  0  0  0  0  0  0  0  0  0  0  0
   10.1939  -14.5363   27.4774 C   0  0  2  0  0  0  0  0  0  0  0  0
   11.2494  -14.3349   28.5361 C   0  0  0  0  0  0  0  0  0  0  0  0
   10.6801  -15.4271   26.3586 C   0  0  2  0  0  0  0  0  0  0  0  0
    9.6404  -15.6593   25.3703 N   0  0  0  0  0  0  0  0  0  0  0  0
   11.1391  -16.7136   26.9420 C   0  0  0  0  0  0  0  0  0  0  0  0
   12.2507  -16.7934   27.7391 O   0  0  0  0  0  0  0  0  0  0  0  0
   10.4852  -17.7612   26.6949 O   0  0  0  0  0  0  0  0  0  0  0  0
  1  2  1  0
  2  3  1  0
  4  5  1  0
  4  3  1  0
  5  6  1  1
  7  5  1  0
  8  7  2  0
  9 10  1  0
 10 11  1  0
 13 12  1  1
 12 11  1  0
 13 14  1  0
 14  7  1  0
 15 21  1  0
 15 13  1  0
 16 15  2  0
 18 17  1  6
 18 20  1  0
 18 19  1  0
 20 22  1  0
 20 21  1  6
 22 23  1  0
 24 22  2  0
M  END
$$$$
