MMV.pdb
     RDKit          3D

 24 23  0  0  1  0  0  0  0  0999 V2000
    5.1006  -20.5374   25.6857 C   0  0  0  0  0  0  0  0  0  0  0  0
    5.6953  -21.6740   24.4241 S   0  0  0  0  0  0  0  0  0  0  0  0
    5.5480  -20.9423   22.7552 C   0  0  0  0  0  0  0  0  0  0  0  0
    6.6113  -19.8970   22.6308 C   0  0  0  0  0  0  0  0  0  0  0  0
    6.0661  -18.5235   22.3627 C   0  0  2  0  0  0  0  0  0  0  0  0
    5.7111  -18.3735   20.9847 N   0  0  0  0  0  0  0  0  0  0  0  0
    7.0047  -17.4532   22.8199 C   0  0  0  0  0  0  0  0  0  0  0  0
    8.0590  -17.2647   22.1694 O   0  0  0  0  0  0  0  0  0  0  0  0
    6.1278  -11.6318   26.1469 C   0  0  0  0  0  0  0  0  0  0  0  0
    7.1981  -12.6147   27.2024 S   0  0  0  0  0  0  0  0  0  0  0  0
    7.9979  -13.9061   26.1863 C   0  0  0  0  0  0  0  0  0  0  0  0
    6.9428  -14.7647   25.5525 C   0  0  0  0  0  0  0  0  0  0  0  0
    7.6232  -15.7752   24.6437 C   0  0  2  0  0  0  0  0  0  0  0  0
    6.7412  -16.6562   23.9519 N   0  0  0  0  0  0  0  0  0  0  0  0
    8.8405  -16.3637   25.1807 C   0  0  0  0  0  0  0  0  0  0  0  0
    8.7164  -17.3060   26.0208 O   0  0  0  0  0  0  0  0  0  0  0  0
   12.2084  -16.5327   22.8838 C   0  0  0  0  0  0  0  0  0  0  0  0
   12.5145  -16.4731   24.3648 C   0  0  2  0  0  0  0  0  0  0  0  0
   13.6591  -17.4213   24.6221 C   0  0  0  0  0  0  0  0  0  0  0  0
   11.2724  -16.8683   25.1281 C   0  0  2  0  0  0  0  0  0  0  0  0
   10.1634  -15.9732   24.8440 N   0  0  0  0  0  0  0  0  0  0  0  0
   11.5859  -16.8626   26.5799 C   0  0  0  0  0  0  0  0  0  0  0  0
   12.1628  -17.9385   27.2020 O   0  0  0  0  0  0  0  0  0  0  0  0
   11.3121  -15.8368   27.2574 O   0  0  0  0  0  0  0  0  0  0  0  0
  1  2  1  0
  2  3  1  0
  4  5  1  0
  4  3  1  0
  5  6  1  6
  7  5  1  0
  8  7  2  0
  9 10  1  0
 10 11  1  0
 13 12  1  1
 12 11  1  0
 13 14  1  0
 14  7  1  0
 15 21  1  0
 15 13  1  0
 16 15  2  0
 18 17  1  6
 18 20  1  0
 18 19  1  0
 20 22  1  0
 20 21  1  1
 22 23  1  0
 24 22  2  0
M  END
$$$$
