MMV.pdb
     RDKit          3D

 24 23  0  0  1  0  0  0  0  0999 V2000
    8.2531  -11.8821   20.4531 C   0  0  0  0  0  0  0  0  0  0  0  0
    8.2310  -12.6192   18.8120 S   0  0  0  0  0  0  0  0  0  0  0  0
    8.1001  -14.4401   18.9086 C   0  0  0  0  0  0  0  0  0  0  0  0
    8.1935  -14.8182   20.3532 C   0  0  0  0  0  0  0  0  0  0  0  0
    8.2971  -16.3001   20.5745 C   0  0  2  0  0  0  0  0  0  0  0  0
    7.2025  -16.9871   19.9603 N   0  0  0  0  0  0  0  0  0  0  0  0
    8.4290  -16.6384   22.0249 C   0  0  0  0  0  0  0  0  0  0  0  0
    7.4027  -16.6019   22.7430 O   0  0  0  0  0  0  0  0  0  0  0  0
   13.9223  -19.2992   24.9409 C   0  0  0  0  0  0  0  0  0  0  0  0
   12.5406  -19.6466   26.0345 S   0  0  0  0  0  0  0  0  0  0  0  0
   11.2157  -18.4305   25.7097 C   0  0  0  0  0  0  0  0  0  0  0  0
   11.1121  -18.1908   24.2319 C   0  0  0  0  0  0  0  0  0  0  0  0
    9.9677  -17.2235   23.9779 C   0  0  2  0  0  0  0  0  0  0  0  0
    9.6635  -16.9942   22.6040 N   0  0  0  0  0  0  0  0  0  0  0  0
    9.9388  -16.0615   24.8528 C   0  0  0  0  0  0  0  0  0  0  0  0
   10.6407  -15.0585   24.5206 O   0  0  0  0  0  0  0  0  0  0  0  0
    7.2528  -13.7989   25.8179 C   0  0  0  0  0  0  0  0  0  0  0  0
    7.9069  -14.1630   27.1333 C   0  0  2  0  0  0  0  0  0  0  0  0
    7.9869  -12.9011   27.9559 C   0  0  0  0  0  0  0  0  0  0  0  0
    9.2744  -14.7370   26.8467 C   0  0  2  0  0  0  0  0  0  0  0  0
    9.1885  -15.9513   26.0531 N   0  0  0  0  0  0  0  0  0  0  0  0
    9.9554  -15.0077   28.1386 C   0  0  0  0  0  0  0  0  0  0  0  0
   10.4797  -14.0020   28.9074 O   0  0  0  0  0  0  0  0  0  0  0  0
   10.0527  -16.1984   28.5372 O   0  0  0  0  0  0  0  0  0  0  0  0
  1  2  1  0
  2  3  1  0
  4  5  1  0
  4  3  1  0
  5  6  1  1
  7  5  1  0
  8  7  2  0
  9 10  1  0
 10 11  1  0
 13 12  1  6
 12 11  1  0
 13 14  1  0
 14  7  1  0
 15 21  1  0
 15 13  1  0
 16 15  2  0
 18 17  1  6
 18 20  1  0
 18 19  1  0
 20 22  1  0
 20 21  1  1
 22 23  1  0
 24 22  2  0
M  END
$$$$
