MMV.pdb
     RDKit          3D

 24 23  0  0  1  0  0  0  0  0999 V2000
    8.9574  -11.8926   19.7049 C   0  0  0  0  0  0  0  0  0  0  0  0
    7.5042  -12.9511   19.6364 S   0  0  0  0  0  0  0  0  0  0  0  0
    7.9572  -14.6651   19.1900 C   0  0  0  0  0  0  0  0  0  0  0  0
    9.3068  -14.9370   19.7758 C   0  0  0  0  0  0  0  0  0  0  0  0
    9.2989  -16.0307   20.8049 C   0  0  2  0  0  0  0  0  0  0  0  0
    8.1677  -16.8896   20.6306 N   0  0  0  0  0  0  0  0  0  0  0  0
    9.3815  -15.4872   22.1954 C   0  0  0  0  0  0  0  0  0  0  0  0
   10.3874  -14.8114   22.5143 O   0  0  0  0  0  0  0  0  0  0  0  0
    6.0930  -11.3137   26.2825 C   0  0  0  0  0  0  0  0  0  0  0  0
    5.4472  -12.9895   26.2970 S   0  0  0  0  0  0  0  0  0  0  0  0
    6.8492  -14.1589   26.2151 C   0  0  0  0  0  0  0  0  0  0  0  0
    6.8114  -14.8898   24.9051 C   0  0  0  0  0  0  0  0  0  0  0  0
    8.2395  -15.1504   24.4552 C   0  0  2  0  0  0  0  0  0  0  0  0
    8.3698  -15.7106   23.1506 N   0  0  0  0  0  0  0  0  0  0  0  0
    9.1205  -15.6841   25.4827 C   0  0  0  0  0  0  0  0  0  0  0  0
    9.5847  -16.8518   25.3098 O   0  0  0  0  0  0  0  0  0  0  0  0
   11.0595  -13.4385   28.4128 C   0  0  0  0  0  0  0  0  0  0  0  0
   10.6171  -14.8193   28.8469 C   0  0  2  0  0  0  0  0  0  0  0  0
   11.7065  -15.3806   29.7265 C   0  0  0  0  0  0  0  0  0  0  0  0
   10.3976  -15.6630   27.6134 C   0  0  2  0  0  0  0  0  0  0  0  0
    9.5086  -15.0075   26.6691 N   0  0  0  0  0  0  0  0  0  0  0  0
    9.8382  -16.9746   28.0292 C   0  0  0  0  0  0  0  0  0  0  0  0
   10.6336  -18.0716   28.2315 O   0  0  0  0  0  0  0  0  0  0  0  0
    8.5947  -17.0789   28.2002 O   0  0  0  0  0  0  0  0  0  0  0  0
  1  2  1  0
  2  3  1  0
  4  5  1  0
  4  3  1  0
  5  6  1  1
  7  5  1  0
  8  7  2  0
  9 10  1  0
 10 11  1  0
 13 12  1  1
 12 11  1  0
 13 14  1  0
 14  7  1  0
 15 21  1  0
 15 13  1  0
 16 15  2  0
 18 17  1  6
 18 20  1  0
 18 19  1  0
 20 22  1  0
 20 21  1  6
 22 23  1  0
 24 22  2  0
M  END
$$$$
