MMV.pdb
     RDKit          3D

 24 23  0  0  1  0  0  0  0  0999 V2000
    7.0264  -19.9222   20.6504 C   0  0  0  0  0  0  0  0  0  0  0  0
    7.2923  -19.1559   19.0445 S   0  0  0  0  0  0  0  0  0  0  0  0
    7.3284  -17.3332   19.1815 C   0  0  0  0  0  0  0  0  0  0  0  0
    7.9803  -16.9965   20.4854 C   0  0  0  0  0  0  0  0  0  0  0  0
    8.0081  -15.5227   20.7732 C   0  0  2  0  0  0  0  0  0  0  0  0
    8.7299  -14.8166   19.7593 N   0  0  0  0  0  0  0  0  0  0  0  0
    8.5351  -15.2327   22.1421 C   0  0  0  0  0  0  0  0  0  0  0  0
    9.7469  -14.9389   22.2663 O   0  0  0  0  0  0  0  0  0  0  0  0
    7.4172  -10.7706   26.5527 C   0  0  0  0  0  0  0  0  0  0  0  0
    7.7105  -12.5270   26.7867 S   0  0  0  0  0  0  0  0  0  0  0  0
    6.8411  -13.4473   25.4687 C   0  0  0  0  0  0  0  0  0  0  0  0
    7.0641  -14.9190   25.6596 C   0  0  0  0  0  0  0  0  0  0  0  0
    8.1055  -15.3846   24.6554 C   0  0  2  0  0  0  0  0  0  0  0  0
    7.7160  -15.2797   23.2879 N   0  0  0  0  0  0  0  0  0  0  0  0
    8.8307  -16.5876   25.0342 C   0  0  0  0  0  0  0  0  0  0  0  0
    8.2302  -17.6983   24.9126 O   0  0  0  0  0  0  0  0  0  0  0  0
   12.1947  -17.9492   23.8914 C   0  0  0  0  0  0  0  0  0  0  0  0
   12.1894  -17.9959   25.4042 C   0  0  2  0  0  0  0  0  0  0  0  0
   12.8368  -19.2958   25.8124 C   0  0  0  0  0  0  0  0  0  0  0  0
   10.7596  -17.9034   25.8824 C   0  0  2  0  0  0  0  0  0  0  0  0
   10.1602  -16.6271   25.5308 N   0  0  0  0  0  0  0  0  0  0  0  0
   10.7382  -18.0995   27.3545 C   0  0  0  0  0  0  0  0  0  0  0  0
   10.9410  -19.3281   27.9260 O   0  0  0  0  0  0  0  0  0  0  0  0
   10.5268  -17.1049   28.0977 O   0  0  0  0  0  0  0  0  0  0  0  0
  1  2  1  0
  2  3  1  0
  4  5  1  0
  4  3  1  0
  5  6  1  6
  7  5  1  0
  8  7  2  0
  9 10  1  0
 10 11  1  0
 13 12  1  1
 12 11  1  0
 13 14  1  0
 14  7  1  0
 15 21  1  0
 15 13  1  0
 16 15  2  0
 18 17  1  6
 18 20  1  0
 18 19  1  0
 20 22  1  0
 20 21  1  1
 22 23  1  0
 24 22  2  0
M  END
$$$$
