PYR.pdb
     RDKit          3D

 31 32  0  0  1  0  0  0  0  0999 V2000
   26.7710  -19.5308  -15.7751 N   0  0  0  0  0  0  0  0  0  0  0  0
   26.7948  -18.4800  -16.7364 C   0  0  0  0  0  0  0  0  0  0  0  0
   27.0589  -17.1932  -15.9889 C   0  0  0  0  0  0  0  0  0  0  0  0
   27.0877  -17.5900  -14.5527 C   0  0  0  0  0  0  0  0  0  0  0  0
   26.4718  -18.9799  -14.4981 C   0  0  1  0  0  0  0  0  0  0  0  0
   25.0414  -18.8283  -14.1887 C   0  0  0  0  0  0  0  0  0  0  0  0
   24.6651  -18.1798  -13.1510 O   0  0  0  0  0  0  0  0  0  0  0  0
   23.7115  -13.1236  -16.5508 O   0  0  0  0  0  0  0  0  0  0  0  0
   23.2969  -14.4535  -16.3902 C   0  0  0  0  0  0  0  0  0  0  0  0
   23.8465  -15.4591  -17.1165 C   0  0  0  0  0  0  0  0  0  0  0  0
   23.4097  -16.7669  -16.9298 C   0  0  0  0  0  0  0  0  0  0  0  0
   22.4244  -17.0745  -16.0188 C   0  0  0  0  0  0  0  0  0  0  0  0
   21.9597  -18.4433  -15.8189 C   0  0  0  0  0  0  0  0  0  0  0  0
   22.5764  -19.1376  -14.6088 C   0  0  2  0  0  0  0  0  0  0  0  0
   23.9675  -19.3515  -14.9570 N   0  0  0  0  0  0  0  0  0  0  0  0
   21.9263  -20.4360  -14.3258 C   0  0  0  0  0  0  0  0  0  0  0  0
   22.1545  -21.4418  -15.0775 O   0  0  0  0  0  0  0  0  0  0  0  0
   21.8803  -16.0426  -15.2936 C   0  0  0  0  0  0  0  0  0  0  0  0
   22.3113  -14.7217  -15.4721 C   0  0  0  0  0  0  0  0  0  0  0  0
   16.4494  -24.9500  -10.2518 N   0  0  0  0  0  0  0  0  0  0  0  0
   17.6219  -25.4006   -9.5617 C   0  0  0  0  0  0  0  0  0  0  0  0
   17.6592  -26.6360   -9.1528 N   0  0  0  0  0  0  0  0  0  0  0  0
   18.7236  -24.5591   -9.3142 N   0  0  0  0  0  0  0  0  0  0  0  0
   18.7342  -23.2085   -9.8143 C   0  0  0  0  0  0  0  0  0  0  0  0
   19.2236  -23.2668  -11.2801 C   0  0  0  0  0  0  0  0  0  0  0  0
   19.8335  -21.9377  -11.6251 C   0  0  0  0  0  0  0  0  0  0  0  0
   20.4263  -21.9510  -12.9905 C   0  0  2  0  0  0  0  0  0  0  0  0
   21.0434  -20.6406  -13.2458 N   0  0  0  0  0  0  0  0  0  0  0  0
   19.3863  -22.1585  -14.0139 C   0  0  0  0  0  0  0  0  0  0  0  0
   19.1678  -23.4745  -14.4639 O   0  0  0  0  0  0  0  0  0  0  0  0
   18.6687  -21.2617  -14.5283 O   0  0  0  0  0  0  0  0  0  0  0  0
  1  2  1  0
  3  2  1  0
  4  3  1  0
  5  4  1  0
  5  1  1  0
  5  6  1  6
  6  7  2  0
  8  9  1  0
  9 19  2  0
 10 11  2  0
 10  9  1  0
 11 12  1  0
 12 13  1  0
 12 18  2  0
 14 13  1  6
 14 16  1  0
 15  6  1  0
 15 14  1  0
 16 17  2  0
 19 18  1  0
 20 21  1  0
 21 23  1  0
 22 21  2  0
 23 24  1  0
 24 25  1  0
 25 26  1  0
 27 26  1  1
 27 29  1  0
 28 16  1  0
 28 27  1  0
 29 31  2  0
 29 30  1  0
M  END
$$$$
