PYR.pdb
     RDKit          3D

 31 32  0  0  1  0  0  0  0  0999 V2000
   27.3809  -20.1190  -17.1419 N   0  0  0  0  0  0  0  0  0  0  0  0
   28.6243  -19.6540  -16.6256 C   0  0  0  0  0  0  0  0  0  0  0  0
   29.4803  -20.8694  -16.3531 C   0  0  0  0  0  0  0  0  0  0  0  0
   28.5987  -22.0297  -16.6652 C   0  0  0  0  0  0  0  0  0  0  0  0
   27.1869  -21.4671  -16.7309 C   0  0  1  0  0  0  0  0  0  0  0  0
   26.5669  -21.6472  -15.4087 C   0  0  0  0  0  0  0  0  0  0  0  0
   26.4385  -22.8167  -14.9040 O   0  0  0  0  0  0  0  0  0  0  0  0
   30.9385  -21.6333  -10.2173 O   0  0  0  0  0  0  0  0  0  0  0  0
   29.7249  -21.1928  -10.7646 C   0  0  0  0  0  0  0  0  0  0  0  0
   29.6794  -20.5430  -11.9547 C   0  0  0  0  0  0  0  0  0  0  0  0
   28.4564  -20.1207  -12.4667 C   0  0  0  0  0  0  0  0  0  0  0  0
   27.2770  -20.3454  -11.7932 C   0  0  0  0  0  0  0  0  0  0  0  0
   25.9908  -19.9037  -12.3228 C   0  0  0  0  0  0  0  0  0  0  0  0
   25.3724  -20.8649  -13.3328 C   0  0  2  0  0  0  0  0  0  0  0  0
   26.0650  -20.6084  -14.5804 N   0  0  0  0  0  0  0  0  0  0  0  0
   23.9229  -20.6260  -13.5072 C   0  0  0  0  0  0  0  0  0  0  0  0
   23.5109  -19.5130  -13.9764 O   0  0  0  0  0  0  0  0  0  0  0  0
   27.3440  -21.0043  -10.5899 C   0  0  0  0  0  0  0  0  0  0  0  0
   28.5689  -21.4348  -10.0636 C   0  0  0  0  0  0  0  0  0  0  0  0
   16.6062  -25.8771  -13.1360 N   0  0  0  0  0  0  0  0  0  0  0  0
   16.2701  -24.5645  -13.6026 C   0  0  0  0  0  0  0  0  0  0  0  0
   15.0980  -24.3831  -14.1396 N   0  0  0  0  0  0  0  0  0  0  0  0
   17.1572  -23.4756  -13.5003 N   0  0  0  0  0  0  0  0  0  0  0  0
   18.5560  -23.6989  -13.2398 C   0  0  0  0  0  0  0  0  0  0  0  0
   19.2657  -22.3289  -13.3450 C   0  0  0  0  0  0  0  0  0  0  0  0
   20.7368  -22.5440  -13.1286 C   0  0  0  0  0  0  0  0  0  0  0  0
   21.5019  -21.2796  -13.3068 C   0  0  2  0  0  0  0  0  0  0  0  0
   22.9363  -21.5781  -13.1783 N   0  0  0  0  0  0  0  0  0  0  0  0
   21.1564  -20.3030  -12.2586 C   0  0  0  0  0  0  0  0  0  0  0  0
   20.2289  -19.2955  -12.5862 O   0  0  0  0  0  0  0  0  0  0  0  0
   21.6165  -20.2845  -11.0874 O   0  0  0  0  0  0  0  0  0  0  0  0
  1  2  1  0
  3  2  1  0
  4  3  1  0
  5  4  1  0
  5  1  1  0
  5  6  1  1
  6  7  2  0
  8  9  1  0
  9 19  2  0
 10 11  2  0
 10  9  1  0
 11 12  1  0
 12 13  1  0
 12 18  2  0
 14 13  1  1
 14 16  1  0
 15  6  1  0
 15 14  1  0
 16 17  2  0
 19 18  1  0
 20 21  1  0
 21 23  1  0
 22 21  2  0
 23 24  1  0
 24 25  1  0
 25 26  1  0
 27 26  1  1
 27 29  1  0
 28 16  1  0
 28 27  1  0
 29 31  2  0
 29 30  1  0
M  END
$$$$
