PYR.pdb
     RDKit          3D

 31 32  0  0  1  0  0  0  0  0999 V2000
   19.1120  -15.8412    2.3012 N   0  0  0  0  0  0  0  0  0  0  0  0
   18.2824  -16.8027    1.6563 C   0  0  0  0  0  0  0  0  0  0  0  0
   16.9358  -16.1549    1.4304 C   0  0  0  0  0  0  0  0  0  0  0  0
   17.0496  -14.8143    2.0713 C   0  0  0  0  0  0  0  0  0  0  0  0
   18.2860  -14.8848    2.9546 C   0  0  1  0  0  0  0  0  0  0  0  0
   17.8503  -15.2418    4.3139 C   0  0  0  0  0  0  0  0  0  0  0  0
   16.9612  -14.5450    4.9164 O   0  0  0  0  0  0  0  0  0  0  0  0
   13.8046  -20.1576    2.9565 O   0  0  0  0  0  0  0  0  0  0  0  0
   14.7969  -19.6647    3.8161 C   0  0  0  0  0  0  0  0  0  0  0  0
   16.1155  -19.8405    3.5497 C   0  0  0  0  0  0  0  0  0  0  0  0
   17.0721  -19.3371    4.4259 C   0  0  0  0  0  0  0  0  0  0  0  0
   16.7157  -18.6577    5.5689 C   0  0  0  0  0  0  0  0  0  0  0  0
   17.7131  -18.1286    6.4937 C   0  0  0  0  0  0  0  0  0  0  0  0
   17.8795  -16.6139    6.4269 C   0  0  2  0  0  0  0  0  0  0  0  0
   18.3337  -16.3370    5.0781 N   0  0  0  0  0  0  0  0  0  0  0  0
   18.8790  -16.1243    7.4015 C   0  0  0  0  0  0  0  0  0  0  0  0
   20.0822  -16.5463    7.3491 O   0  0  0  0  0  0  0  0  0  0  0  0
   15.3758  -18.4904    5.8212 C   0  0  0  0  0  0  0  0  0  0  0  0
   14.4030  -18.9923    4.9470 C   0  0  0  0  0  0  0  0  0  0  0  0
   21.1476   -8.4834    8.7888 N   0  0  0  0  0  0  0  0  0  0  0  0
   21.8838   -9.6112    8.2988 C   0  0  0  0  0  0  0  0  0  0  0  0
   22.7620   -9.4120    7.3586 N   0  0  0  0  0  0  0  0  0  0  0  0
   21.6904  -10.9143    8.7963 N   0  0  0  0  0  0  0  0  0  0  0  0
   20.8139  -11.1428    9.9161 C   0  0  0  0  0  0  0  0  0  0  0  0
   20.7498  -12.6712   10.1429 C   0  0  0  0  0  0  0  0  0  0  0  0
   19.8216  -13.2598    9.1185 C   0  0  0  0  0  0  0  0  0  0  0  0
   19.6063  -14.7138    9.3535 C   0  0  2  0  0  0  0  0  0  0  0  0
   18.5789  -15.1926    8.4162 N   0  0  0  0  0  0  0  0  0  0  0  0
   19.1095  -14.9585   10.7192 C   0  0  0  0  0  0  0  0  0  0  0  0
   19.9897  -14.7048   11.7884 O   0  0  0  0  0  0  0  0  0  0  0  0
   17.9621  -15.3769   11.0225 O   0  0  0  0  0  0  0  0  0  0  0  0
  1  2  1  0
  3  2  1  0
  4  3  1  0
  5  4  1  0
  5  1  1  0
  5  6  1  1
  6  7  2  0
  8  9  1  0
  9 19  2  0
 10 11  2  0
 10  9  1  0
 11 12  1  0
 12 13  1  0
 12 18  2  0
 14 13  1  6
 14 16  1  0
 15  6  1  0
 15 14  1  0
 16 17  2  0
 19 18  1  0
 20 21  1  0
 21 23  1  0
 22 21  2  0
 23 24  1  0
 24 25  1  0
 25 26  1  0
 27 26  1  1
 27 29  1  0
 28 16  1  0
 28 27  1  0
 29 31  2  0
 29 30  1  0
M  END
$$$$
