PYR.pdb
     RDKit          3D

 31 32  0  0  1  0  0  0  0  0999 V2000
   22.1976   -8.9019  -20.5413 N   0  0  0  0  0  0  0  0  0  0  0  0
   23.0760   -9.9362  -20.1089 C   0  0  0  0  0  0  0  0  0  0  0  0
   22.2292  -10.9942  -19.4397 C   0  0  0  0  0  0  0  0  0  0  0  0
   20.8479  -10.4351  -19.4511 C   0  0  0  0  0  0  0  0  0  0  0  0
   21.0063   -8.9552  -19.7656 C   0  0  1  0  0  0  0  0  0  0  0  0
   21.0436   -8.2237  -18.4895 C   0  0  0  0  0  0  0  0  0  0  0  0
   20.1331   -8.4058  -17.6081 O   0  0  0  0  0  0  0  0  0  0  0  0
   24.9595  -12.0999  -15.1777 O   0  0  0  0  0  0  0  0  0  0  0  0
   24.5587  -10.7801  -15.4306 C   0  0  0  0  0  0  0  0  0  0  0  0
   23.4421  -10.2583  -14.8638 C   0  0  0  0  0  0  0  0  0  0  0  0
   23.0756   -8.9443  -15.1379 C   0  0  0  0  0  0  0  0  0  0  0  0
   23.8217   -8.1484  -15.9775 C   0  0  0  0  0  0  0  0  0  0  0  0
   23.4426   -6.7701  -16.2715 C   0  0  0  0  0  0  0  0  0  0  0  0
   22.0251   -6.6184  -16.8137 C   0  0  2  0  0  0  0  0  0  0  0  0
   22.0343   -7.2825  -18.1025 N   0  0  0  0  0  0  0  0  0  0  0  0
   21.6481   -5.1983  -16.9855 C   0  0  0  0  0  0  0  0  0  0  0  0
   22.2389   -4.4820  -17.8610 O   0  0  0  0  0  0  0  0  0  0  0  0
   24.9484   -8.6950  -16.5419 C   0  0  0  0  0  0  0  0  0  0  0  0
   25.3282  -10.0165  -16.2739 C   0  0  0  0  0  0  0  0  0  0  0  0
   14.0289   -1.6853  -17.7517 N   0  0  0  0  0  0  0  0  0  0  0  0
   15.2748   -1.3601  -18.3809 C   0  0  0  0  0  0  0  0  0  0  0  0
   15.2465   -0.8743  -19.5884 N   0  0  0  0  0  0  0  0  0  0  0  0
   16.5158   -1.5469  -17.7422 N   0  0  0  0  0  0  0  0  0  0  0  0
   16.5829   -2.1979  -16.4591 C   0  0  0  0  0  0  0  0  0  0  0  0
   18.0598   -2.1583  -16.0022 C   0  0  0  0  0  0  0  0  0  0  0  0
   18.8424   -3.1127  -16.8588 C   0  0  0  0  0  0  0  0  0  0  0  0
   20.2727   -3.1612  -16.4493 C   0  0  2  0  0  0  0  0  0  0  0  0
   20.6470   -4.5651  -16.2207 N   0  0  0  0  0  0  0  0  0  0  0  0
   20.4832   -2.4344  -15.1847 C   0  0  0  0  0  0  0  0  0  0  0  0
   20.4634   -1.0273  -15.2303 O   0  0  0  0  0  0  0  0  0  0  0  0
   20.6810   -2.9579  -14.0575 O   0  0  0  0  0  0  0  0  0  0  0  0
  1  2  1  0
  3  2  1  0
  4  3  1  0
  5  4  1  0
  5  1  1  0
  5  6  1  1
  6  7  2  0
  8  9  1  0
  9 19  2  0
 10 11  2  0
 10  9  1  0
 11 12  1  0
 12 13  1  0
 12 18  2  0
 14 13  1  6
 14 16  1  0
 15  6  1  0
 15 14  1  0
 16 17  2  0
 19 18  1  0
 20 21  1  0
 21 23  1  0
 22 21  2  0
 23 24  1  0
 24 25  1  0
 25 26  1  0
 27 26  1  1
 27 29  1  0
 28 16  1  0
 28 27  1  0
 29 31  2  0
 29 30  1  0
M  END
$$$$
