PYR.pdb
     RDKit          3D

 31 32  0  0  1  0  0  0  0  0999 V2000
   26.7429  -20.7575  -17.2157 N   0  0  0  0  0  0  0  0  0  0  0  0
   28.0655  -20.2886  -16.9720 C   0  0  0  0  0  0  0  0  0  0  0  0
   28.9463  -21.5031  -16.7894 C   0  0  0  0  0  0  0  0  0  0  0  0
   28.0110  -22.6613  -16.8572 C   0  0  0  0  0  0  0  0  0  0  0  0
   26.6174  -22.0742  -16.6919 C   0  0  1  0  0  0  0  0  0  0  0  0
   26.2562  -22.1620  -15.2683 C   0  0  0  0  0  0  0  0  0  0  0  0
   25.9966  -23.2948  -14.7313 O   0  0  0  0  0  0  0  0  0  0  0  0
   26.2617  -20.4499   -6.6129 O   0  0  0  0  0  0  0  0  0  0  0  0
   26.3043  -20.3458   -8.0107 C   0  0  0  0  0  0  0  0  0  0  0  0
   25.3549  -19.6637   -8.6991 C   0  0  0  0  0  0  0  0  0  0  0  0
   25.4301  -19.5816  -10.0861 C   0  0  0  0  0  0  0  0  0  0  0  0
   26.4517  -20.1793  -10.7890 C   0  0  0  0  0  0  0  0  0  0  0  0
   26.5362  -20.0993  -12.2437 C   0  0  0  0  0  0  0  0  0  0  0  0
   25.8126  -21.2283  -12.9704 C   0  0  2  0  0  0  0  0  0  0  0  0
   26.1570  -21.0667  -14.3695 N   0  0  0  0  0  0  0  0  0  0  0  0
   24.3452  -21.1419  -12.8035 C   0  0  0  0  0  0  0  0  0  0  0  0
   23.6743  -20.2928  -13.4799 O   0  0  0  0  0  0  0  0  0  0  0  0
   27.4029  -20.8655  -10.0741 C   0  0  0  0  0  0  0  0  0  0  0  0
   27.3386  -20.9555   -8.6775 C   0  0  0  0  0  0  0  0  0  0  0  0
   17.1552  -23.8333   -9.5031 N   0  0  0  0  0  0  0  0  0  0  0  0
   18.1636  -24.8072   -9.8004 C   0  0  0  0  0  0  0  0  0  0  0  0
   17.7922  -25.9349  -10.3344 N   0  0  0  0  0  0  0  0  0  0  0  0
   19.5291  -24.5864   -9.5364 N   0  0  0  0  0  0  0  0  0  0  0  0
   19.9705  -23.3283   -8.9916 C   0  0  0  0  0  0  0  0  0  0  0  0
   20.3196  -22.4095  -10.1856 C   0  0  0  0  0  0  0  0  0  0  0  0
   21.7759  -22.5907  -10.5078 C   0  0  0  0  0  0  0  0  0  0  0  0
   22.1866  -21.7404  -11.6585 C   0  0  2  0  0  0  0  0  0  0  0  0
   23.6173  -21.9626  -11.9177 N   0  0  0  0  0  0  0  0  0  0  0  0
   22.0090  -20.3111  -11.3468 C   0  0  0  0  0  0  0  0  0  0  0  0
   20.7679  -19.7247  -11.6602 O   0  0  0  0  0  0  0  0  0  0  0  0
   22.8702  -19.5582  -10.8222 O   0  0  0  0  0  0  0  0  0  0  0  0
  1  2  1  0
  3  2  1  0
  4  3  1  0
  5  4  1  0
  5  1  1  0
  5  6  1  1
  6  7  2  0
  8  9  1  0
  9 19  2  0
 10 11  2  0
 10  9  1  0
 11 12  1  0
 12 13  1  0
 12 18  2  0
 14 13  1  1
 14 16  1  0
 15  6  1  0
 15 14  1  0
 16 17  2  0
 19 18  1  0
 20 21  1  0
 21 23  1  0
 22 21  2  0
 23 24  1  0
 24 25  1  0
 25 26  1  0
 27 26  1  1
 27 29  1  0
 28 16  1  0
 28 27  1  0
 29 31  2  0
 29 30  1  0
M  END
$$$$
