PYR.pdb
     RDKit          3D

 31 32  0  0  1  0  0  0  0  0999 V2000
   27.1707  -21.2414  -14.5501 N   0  0  0  0  0  0  0  0  0  0  0  0
   27.5721  -20.2728  -15.5140 C   0  0  0  0  0  0  0  0  0  0  0  0
   27.9590  -19.0217  -14.7596 C   0  0  0  0  0  0  0  0  0  0  0  0
   27.6590  -19.3329  -13.3334 C   0  0  0  0  0  0  0  0  0  0  0  0
   26.7741  -20.5700  -13.3602 C   0  0  1  0  0  0  0  0  0  0  0  0
   25.3727  -20.1239  -13.3171 C   0  0  0  0  0  0  0  0  0  0  0  0
   24.9619  -19.3584  -12.3767 O   0  0  0  0  0  0  0  0  0  0  0  0
   26.0145  -14.5197  -15.8733 O   0  0  0  0  0  0  0  0  0  0  0  0
   25.2399  -15.6862  -15.7976 C   0  0  0  0  0  0  0  0  0  0  0  0
   25.5392  -16.7839  -16.5365 C   0  0  0  0  0  0  0  0  0  0  0  0
   24.7477  -17.9238  -16.4350 C   0  0  0  0  0  0  0  0  0  0  0  0
   23.6566  -17.9712  -15.5969 C   0  0  0  0  0  0  0  0  0  0  0  0
   22.8206  -19.1623  -15.4866 C   0  0  0  0  0  0  0  0  0  0  0  0
   23.0158  -19.9395  -14.1888 C   0  0  2  0  0  0  0  0  0  0  0  0
   24.3645  -20.4672  -14.2568 N   0  0  0  0  0  0  0  0  0  0  0  0
   22.0493  -21.0521  -14.0603 C   0  0  0  0  0  0  0  0  0  0  0  0
   21.9793  -21.9455  -14.9689 O   0  0  0  0  0  0  0  0  0  0  0  0
   23.3699  -16.8496  -14.8575 C   0  0  0  0  0  0  0  0  0  0  0  0
   24.1589  -15.6958  -14.9505 C   0  0  0  0  0  0  0  0  0  0  0  0
   19.3562  -24.4508   -7.1335 N   0  0  0  0  0  0  0  0  0  0  0  0
   18.1657  -24.6450   -7.9074 C   0  0  0  0  0  0  0  0  0  0  0  0
   17.2271  -25.4005   -7.4143 N   0  0  0  0  0  0  0  0  0  0  0  0
   17.9801  -24.0514   -9.1708 N   0  0  0  0  0  0  0  0  0  0  0  0
   18.9471  -24.2539  -10.2188 C   0  0  0  0  0  0  0  0  0  0  0  0
   18.5317  -23.3532  -11.4053 C   0  0  0  0  0  0  0  0  0  0  0  0
   19.5537  -22.2609  -11.5464 C   0  0  0  0  0  0  0  0  0  0  0  0
   20.2270  -22.3161  -12.8728 C   0  0  2  0  0  0  0  0  0  0  0  0
   21.1733  -21.1939  -12.9647 N   0  0  0  0  0  0  0  0  0  0  0  0
   19.2503  -22.1634  -13.9658 C   0  0  0  0  0  0  0  0  0  0  0  0
   18.8063  -20.8615  -14.2662 O   0  0  0  0  0  0  0  0  0  0  0  0
   18.7712  -23.0957  -14.6622 O   0  0  0  0  0  0  0  0  0  0  0  0
  1  2  1  0
  3  2  1  0
  4  3  1  0
  5  4  1  0
  5  1  1  0
  5  6  1  6
  6  7  2  0
  8  9  1  0
  9 19  2  0
 10 11  2  0
 10  9  1  0
 11 12  1  0
 12 13  1  0
 12 18  2  0
 14 13  1  6
 14 16  1  0
 15  6  1  0
 15 14  1  0
 16 17  2  0
 19 18  1  0
 20 21  1  0
 21 23  1  0
 22 21  2  0
 23 24  1  0
 24 25  1  0
 25 26  1  0
 27 26  1  1
 27 29  1  0
 28 16  1  0
 28 27  1  0
 29 31  2  0
 29 30  1  0
M  END
$$$$
