PYR.pdb
     RDKit          3D

 31 32  0  0  1  0  0  0  0  0999 V2000
   28.1336  -22.4982  -16.1926 N   0  0  0  0  0  0  0  0  0  0  0  0
   27.4890  -23.2694  -17.2018 C   0  0  0  0  0  0  0  0  0  0  0  0
   26.5542  -22.3438  -17.9460 C   0  0  0  0  0  0  0  0  0  0  0  0
   26.6583  -21.0433  -17.2259 C   0  0  0  0  0  0  0  0  0  0  0  0
   27.3308  -21.3610  -15.8989 C   0  0  1  0  0  0  0  0  0  0  0  0
   26.2749  -21.5684  -14.8956 C   0  0  0  0  0  0  0  0  0  0  0  0
   25.9370  -22.7513  -14.5412 O   0  0  0  0  0  0  0  0  0  0  0  0
   28.5427  -21.2760   -8.0066 O   0  0  0  0  0  0  0  0  0  0  0  0
   27.6367  -20.8830   -9.0022 C   0  0  0  0  0  0  0  0  0  0  0  0
   26.3273  -20.6653   -8.7217 C   0  0  0  0  0  0  0  0  0  0  0  0
   25.4574  -20.2760   -9.7356 C   0  0  0  0  0  0  0  0  0  0  0  0
   25.8914  -20.1032  -11.0306 C   0  0  0  0  0  0  0  0  0  0  0  0
   24.9847  -19.6971  -12.0996 C   0  0  0  0  0  0  0  0  0  0  0  0
   24.6764  -20.8019  -13.1050 C   0  0  2  0  0  0  0  0  0  0  0  0
   25.5448  -20.5434  -14.2370 N   0  0  0  0  0  0  0  0  0  0  0  0
   23.2634  -20.7730  -13.5418 C   0  0  0  0  0  0  0  0  0  0  0  0
   22.8689  -19.8860  -14.3703 O   0  0  0  0  0  0  0  0  0  0  0  0
   27.2204  -20.3289  -11.2944 C   0  0  0  0  0  0  0  0  0  0  0  0
   28.1064  -20.7210  -10.2825 C   0  0  0  0  0  0  0  0  0  0  0  0
   16.9894  -26.8205  -12.8447 N   0  0  0  0  0  0  0  0  0  0  0  0
   18.3437  -26.5294  -13.2121 C   0  0  0  0  0  0  0  0  0  0  0  0
   19.1754  -27.5233  -13.3357 N   0  0  0  0  0  0  0  0  0  0  0  0
   18.7994  -25.2169  -13.4416 N   0  0  0  0  0  0  0  0  0  0  0  0
   18.0635  -24.0909  -12.9267 C   0  0  0  0  0  0  0  0  0  0  0  0
   18.7361  -22.8128  -13.4796 C   0  0  0  0  0  0  0  0  0  0  0  0
   20.1971  -22.8630  -13.1328 C   0  0  0  0  0  0  0  0  0  0  0  0
   20.8872  -21.5983  -13.5072 C   0  0  2  0  0  0  0  0  0  0  0  0
   22.2939  -21.6906  -13.0879 N   0  0  0  0  0  0  0  0  0  0  0  0
   20.2906  -20.4462  -12.8082 C   0  0  0  0  0  0  0  0  0  0  0  0
   19.3108  -19.7033  -13.4941 O   0  0  0  0  0  0  0  0  0  0  0  0
   20.5773  -20.0602  -11.6452 O   0  0  0  0  0  0  0  0  0  0  0  0
  1  2  1  0
  3  2  1  0
  4  3  1  0
  5  4  1  0
  5  1  1  0
  5  6  1  1
  6  7  2  0
  8  9  1  0
  9 19  2  0
 10 11  2  0
 10  9  1  0
 11 12  1  0
 12 13  1  0
 12 18  2  0
 14 13  1  1
 14 16  1  0
 15  6  1  0
 15 14  1  0
 16 17  2  0
 19 18  1  0
 20 21  1  0
 21 23  1  0
 22 21  2  0
 23 24  1  0
 24 25  1  0
 25 26  1  0
 27 26  1  1
 27 29  1  0
 28 16  1  0
 28 27  1  0
 29 31  2  0
 29 30  1  0
M  END
$$$$
