PYR.pdb
     RDKit          3D

 31 32  0  0  1  0  0  0  0  0999 V2000
   27.3813  -18.7696  -14.3631 N   0  0  0  0  0  0  0  0  0  0  0  0
   28.3701  -18.4982  -13.3746 C   0  0  0  0  0  0  0  0  0  0  0  0
   29.2849  -19.6996  -13.3124 C   0  0  0  0  0  0  0  0  0  0  0  0
   28.6845  -20.6807  -14.2600 C   0  0  0  0  0  0  0  0  0  0  0  0
   27.2750  -20.1780  -14.5335 C   0  0  1  0  0  0  0  0  0  0  0  0
   26.3625  -20.8651  -13.6061 C   0  0  0  0  0  0  0  0  0  0  0  0
   26.1835  -22.1302  -13.6869 O   0  0  0  0  0  0  0  0  0  0  0  0
   29.5841  -20.5305   -7.7790 O   0  0  0  0  0  0  0  0  0  0  0  0
   28.3575  -20.4956   -8.4579 C   0  0  0  0  0  0  0  0  0  0  0  0
   28.1396  -21.2483   -9.5653 C   0  0  0  0  0  0  0  0  0  0  0  0
   26.9094  -21.1878  -10.2127 C   0  0  0  0  0  0  0  0  0  0  0  0
   25.8945  -20.3769   -9.7570 C   0  0  0  0  0  0  0  0  0  0  0  0
   24.6024  -20.3067  -10.4317 C   0  0  0  0  0  0  0  0  0  0  0  0
   24.5901  -20.9447  -11.8171 C   0  0  2  0  0  0  0  0  0  0  0  0
   25.6135  -20.2463  -12.5701 N   0  0  0  0  0  0  0  0  0  0  0  0
   23.2806  -20.7863  -12.4869 C   0  0  0  0  0  0  0  0  0  0  0  0
   22.9497  -19.6584  -12.9838 O   0  0  0  0  0  0  0  0  0  0  0  0
   26.1347  -19.6224   -8.6347 C   0  0  0  0  0  0  0  0  0  0  0  0
   27.3688  -19.6744   -7.9738 C   0  0  0  0  0  0  0  0  0  0  0  0
   20.4758  -27.5132  -12.5727 N   0  0  0  0  0  0  0  0  0  0  0  0
   19.4635  -26.9512  -11.7283 C   0  0  0  0  0  0  0  0  0  0  0  0
   19.1492  -27.5871  -10.6367 N   0  0  0  0  0  0  0  0  0  0  0  0
   18.8045  -25.7457  -12.0376 N   0  0  0  0  0  0  0  0  0  0  0  0
   19.2057  -24.9706  -13.1833 C   0  0  0  0  0  0  0  0  0  0  0  0
   19.7355  -23.6163  -12.6572 C   0  0  0  0  0  0  0  0  0  0  0  0
   20.5592  -22.9809  -13.7411 C   0  0  0  0  0  0  0  0  0  0  0  0
   21.0693  -21.6464  -13.3230 C   0  0  2  0  0  0  0  0  0  0  0  0
   22.3453  -21.8334  -12.6158 N   0  0  0  0  0  0  0  0  0  0  0  0
   20.1351  -20.9951  -12.3877 C   0  0  0  0  0  0  0  0  0  0  0  0
   18.9617  -20.4318  -12.9247 O   0  0  0  0  0  0  0  0  0  0  0  0
   20.2888  -20.8939  -11.1428 O   0  0  0  0  0  0  0  0  0  0  0  0
  1  2  1  0
  3  2  1  0
  4  3  1  0
  5  4  1  0
  5  1  1  0
  5  6  1  1
  6  7  2  0
  8  9  1  0
  9 19  2  0
 10 11  2  0
 10  9  1  0
 11 12  1  0
 12 13  1  0
 12 18  2  0
 14 13  1  1
 14 16  1  0
 15  6  1  0
 15 14  1  0
 16 17  2  0
 19 18  1  0
 20 21  1  0
 21 23  1  0
 22 21  2  0
 23 24  1  0
 24 25  1  0
 25 26  1  0
 27 26  1  1
 27 29  1  0
 28 16  1  0
 28 27  1  0
 29 31  2  0
 29 30  1  0
M  END
$$$$
