PYR.pdb
     RDKit          3D

 31 32  0  0  1  0  0  0  0  0999 V2000
   28.7970  -23.9788  -18.1154 N   0  0  0  0  0  0  0  0  0  0  0  0
   29.8525  -23.2094  -18.6834 C   0  0  0  0  0  0  0  0  0  0  0  0
   30.9096  -23.0402  -17.6166 C   0  0  0  0  0  0  0  0  0  0  0  0
   30.3293  -23.6846  -16.4046 C   0  0  0  0  0  0  0  0  0  0  0  0
   28.8464  -23.8534  -16.6992 C   0  0  1  0  0  0  0  0  0  0  0  0
   28.1392  -22.6919  -16.1372 C   0  0  0  0  0  0  0  0  0  0  0  0
   28.2223  -22.4209  -14.8888 O   0  0  0  0  0  0  0  0  0  0  0  0
   25.0231  -14.5327  -15.2028 O   0  0  0  0  0  0  0  0  0  0  0  0
   25.5092  -15.7525  -15.6952 C   0  0  0  0  0  0  0  0  0  0  0  0
   24.9089  -16.3864  -16.7336 C   0  0  0  0  0  0  0  0  0  0  0  0
   25.4196  -17.5955  -17.1954 C   0  0  0  0  0  0  0  0  0  0  0  0
   26.5296  -18.1746  -16.6228 C   0  0  0  0  0  0  0  0  0  0  0  0
   27.0699  -19.4434  -17.1003 C   0  0  0  0  0  0  0  0  0  0  0  0
   26.6728  -20.6461  -16.2504 C   0  0  2  0  0  0  0  0  0  0  0  0
   27.3266  -21.7840  -16.8669 N   0  0  0  0  0  0  0  0  0  0  0  0
   25.2084  -20.8560  -16.2399 C   0  0  0  0  0  0  0  0  0  0  0  0
   24.6182  -21.2925  -17.2838 O   0  0  0  0  0  0  0  0  0  0  0  0
   27.1228  -17.5176  -15.5725 C   0  0  0  0  0  0  0  0  0  0  0  0
   26.6184  -16.2997  -15.0982 C   0  0  0  0  0  0  0  0  0  0  0  0
   19.5278  -25.4180  -13.4388 N   0  0  0  0  0  0  0  0  0  0  0  0
   18.8115  -24.3056  -13.9896 C   0  0  0  0  0  0  0  0  0  0  0  0
   17.5921  -24.5013  -14.4015 N   0  0  0  0  0  0  0  0  0  0  0  0
   19.3779  -23.0209  -14.0987 N   0  0  0  0  0  0  0  0  0  0  0  0
   20.6281  -22.7196  -13.4501 C   0  0  0  0  0  0  0  0  0  0  0  0
   20.9597  -21.2411  -13.7593 C   0  0  0  0  0  0  0  0  0  0  0  0
   22.4543  -21.0916  -13.7920 C   0  0  0  0  0  0  0  0  0  0  0  0
   22.9371  -20.7664  -15.1620 C   0  0  2  0  0  0  0  0  0  0  0  0
   24.3974  -20.5970  -15.1160 N   0  0  0  0  0  0  0  0  0  0  0  0
   22.3580  -19.4972  -15.6369 C   0  0  0  0  0  0  0  0  0  0  0  0
   21.1918  -19.5663  -16.4229 O   0  0  0  0  0  0  0  0  0  0  0  0
   22.8118  -18.3468  -15.4039 O   0  0  0  0  0  0  0  0  0  0  0  0
  1  2  1  0
  3  2  1  0
  4  3  1  0
  5  4  1  0
  5  1  1  0
  5  6  1  6
  6  7  2  0
  8  9  1  0
  9 19  2  0
 10 11  2  0
 10  9  1  0
 11 12  1  0
 12 13  1  0
 12 18  2  0
 14 13  1  6
 14 16  1  0
 15  6  1  0
 15 14  1  0
 16 17  2  0
 19 18  1  0
 20 21  1  0
 21 23  1  0
 22 21  2  0
 23 24  1  0
 24 25  1  0
 25 26  1  0
 27 26  1  1
 27 29  1  0
 28 16  1  0
 28 27  1  0
 29 31  2  0
 29 30  1  0
M  END
$$$$
