PYR.pdb
     RDKit          3D

 31 32  0  0  1  0  0  0  0  0999 V2000
   25.1953  -22.9987  -17.6717 N   0  0  0  0  0  0  0  0  0  0  0  0
   26.2431  -22.0430  -17.8027 C   0  0  0  0  0  0  0  0  0  0  0  0
   27.3592  -22.4703  -16.8774 C   0  0  0  0  0  0  0  0  0  0  0  0
   26.8230  -23.6649  -16.1658 C   0  0  0  0  0  0  0  0  0  0  0  0
   25.3223  -23.6519  -16.4143 C   0  0  1  0  0  0  0  0  0  0  0  0
   24.6819  -22.9738  -15.2764 C   0  0  0  0  0  0  0  0  0  0  0  0
   24.8935  -23.3722  -14.0783 O   0  0  0  0  0  0  0  0  0  0  0  0
   29.0008  -18.5676  -15.3367 O   0  0  0  0  0  0  0  0  0  0  0  0
   27.6552  -18.8600  -15.0715 C   0  0  0  0  0  0  0  0  0  0  0  0
   27.2453  -19.2514  -13.8389 C   0  0  0  0  0  0  0  0  0  0  0  0
   25.9015  -19.5330  -13.6130 C   0  0  0  0  0  0  0  0  0  0  0  0
   24.9642  -19.4247  -14.6154 C   0  0  0  0  0  0  0  0  0  0  0  0
   23.5535  -19.7202  -14.3866 C   0  0  0  0  0  0  0  0  0  0  0  0
   23.2534  -21.2031  -14.1933 C   0  0  2  0  0  0  0  0  0  0  0  0
   23.8032  -21.8613  -15.3625 N   0  0  0  0  0  0  0  0  0  0  0  0
   21.8002  -21.4665  -14.1082 C   0  0  0  0  0  0  0  0  0  0  0  0
   21.0832  -21.4387  -15.1636 O   0  0  0  0  0  0  0  0  0  0  0  0
   25.3990  -19.0274  -15.8563 C   0  0  0  0  0  0  0  0  0  0  0  0
   26.7490  -18.7409  -16.0966 C   0  0  0  0  0  0  0  0  0  0  0  0
   19.5372  -25.0405   -8.7061 N   0  0  0  0  0  0  0  0  0  0  0  0
   18.2147  -24.5787   -8.4034 C   0  0  0  0  0  0  0  0  0  0  0  0
   17.7001  -24.8971   -7.2507 N   0  0  0  0  0  0  0  0  0  0  0  0
   17.4615  -23.7999   -9.3029 N   0  0  0  0  0  0  0  0  0  0  0  0
   17.5922  -23.9988  -10.7234 C   0  0  0  0  0  0  0  0  0  0  0  0
   17.8219  -22.6088  -11.3611 C   0  0  0  0  0  0  0  0  0  0  0  0
   19.3028  -22.3842  -11.4778 C   0  0  0  0  0  0  0  0  0  0  0  0
   19.6738  -21.9094  -12.8390 C   0  0  2  0  0  0  0  0  0  0  0  0
   21.1353  -21.7551  -12.8989 N   0  0  0  0  0  0  0  0  0  0  0  0
   19.0768  -20.5912  -13.1176 C   0  0  0  0  0  0  0  0  0  0  0  0
   17.8783  -20.5611  -13.8560 O   0  0  0  0  0  0  0  0  0  0  0  0
   19.5417  -19.4795  -12.7545 O   0  0  0  0  0  0  0  0  0  0  0  0
  1  2  1  0
  3  2  1  0
  4  3  1  0
  5  4  1  0
  5  1  1  0
  5  6  1  1
  6  7  2  0
  8  9  1  0
  9 19  2  0
 10 11  2  0
 10  9  1  0
 11 12  1  0
 12 13  1  0
 12 18  2  0
 14 13  1  6
 14 16  1  0
 15  6  1  0
 15 14  1  0
 16 17  2  0
 19 18  1  0
 20 21  1  0
 21 23  1  0
 22 21  2  0
 23 24  1  0
 24 25  1  0
 25 26  1  0
 27 26  1  1
 27 29  1  0
 28 16  1  0
 28 27  1  0
 29 31  2  0
 29 30  1  0
M  END
$$$$
