PYR.pdb
     RDKit          3D

 31 32  0  0  1  0  0  0  0  0999 V2000
   32.2131  -12.5910  -19.8438 N   0  0  0  0  0  0  0  0  0  0  0  0
   32.9381  -13.3104  -18.8512 C   0  0  0  0  0  0  0  0  0  0  0  0
   33.4136  -14.5968  -19.4863 C   0  0  0  0  0  0  0  0  0  0  0  0
   32.8287  -14.5798  -20.8569 C   0  0  0  0  0  0  0  0  0  0  0  0
   31.7517  -13.5058  -20.8307 C   0  0  1  0  0  0  0  0  0  0  0  0
   30.4669  -14.1616  -20.5408 C   0  0  0  0  0  0  0  0  0  0  0  0
   29.9603  -14.9958  -21.3694 O   0  0  0  0  0  0  0  0  0  0  0  0
   27.9870  -20.9798  -18.2470 O   0  0  0  0  0  0  0  0  0  0  0  0
   28.1060  -19.5872  -18.1325 C   0  0  0  0  0  0  0  0  0  0  0  0
   27.0862  -18.8257  -17.6627 C   0  0  0  0  0  0  0  0  0  0  0  0
   27.2408  -17.4465  -17.5629 C   0  0  0  0  0  0  0  0  0  0  0  0
   28.4122  -16.8242  -17.9312 C   0  0  0  0  0  0  0  0  0  0  0  0
   28.5812  -15.3781  -17.8314 C   0  0  0  0  0  0  0  0  0  0  0  0
   28.4168  -14.6411  -19.1566 C   0  0  2  0  0  0  0  0  0  0  0  0
   29.6785  -13.9614  -19.3765 N   0  0  0  0  0  0  0  0  0  0  0  0
   27.3180  -13.6519  -19.1063 C   0  0  0  0  0  0  0  0  0  0  0  0
   27.4373  -12.6004  -18.3930 O   0  0  0  0  0  0  0  0  0  0  0  0
   29.4327  -17.6123  -18.4048 C   0  0  0  0  0  0  0  0  0  0  0  0
   29.2897  -19.0019  -18.5100 C   0  0  0  0  0  0  0  0  0  0  0  0
   23.4065   -8.7813  -24.1083 N   0  0  0  0  0  0  0  0  0  0  0  0
   22.8476  -10.0968  -24.2139 C   0  0  0  0  0  0  0  0  0  0  0  0
   22.2770  -10.4353  -25.3340 N   0  0  0  0  0  0  0  0  0  0  0  0
   22.8952  -11.0255  -23.1565 N   0  0  0  0  0  0  0  0  0  0  0  0
   23.3325  -10.6151  -21.8470 C   0  0  0  0  0  0  0  0  0  0  0  0
   23.1163  -11.8146  -20.8952 C   0  0  0  0  0  0  0  0  0  0  0  0
   24.3169  -12.7127  -20.9908 C   0  0  0  0  0  0  0  0  0  0  0  0
   25.0082  -12.8357  -19.6781 C   0  0  2  0  0  0  0  0  0  0  0  0
   26.1097  -13.8003  -19.8176 N   0  0  0  0  0  0  0  0  0  0  0  0
   24.0918  -13.3547  -18.6472 C   0  0  0  0  0  0  0  0  0  0  0  0
   23.5758  -12.4374  -17.7120 O   0  0  0  0  0  0  0  0  0  0  0  0
   23.7238  -14.5518  -18.5229 O   0  0  0  0  0  0  0  0  0  0  0  0
  1  2  1  0
  3  2  1  0
  4  3  1  0
  5  4  1  0
  5  1  1  0
  5  6  1  1
  6  7  2  0
  8  9  1  0
  9 19  2  0
 10 11  2  0
 10  9  1  0
 11 12  1  0
 12 13  1  0
 12 18  2  0
 14 13  1  1
 14 16  1  0
 15  6  1  0
 15 14  1  0
 16 17  2  0
 19 18  1  0
 20 21  1  0
 21 23  1  0
 22 21  2  0
 23 24  1  0
 24 25  1  0
 25 26  1  0
 27 26  1  6
 27 29  1  0
 28 16  1  0
 28 27  1  0
 29 31  2  0
 29 30  1  0
M  END
$$$$
