PYR.pdb
     RDKit          3D

 31 32  0  0  1  0  0  0  0  0999 V2000
   23.5246   -9.7734  -16.6636 N   0  0  0  0  0  0  0  0  0  0  0  0
   24.5493  -10.0261  -15.7073 C   0  0  0  0  0  0  0  0  0  0  0  0
   24.1380  -11.2492  -14.9205 C   0  0  0  0  0  0  0  0  0  0  0  0
   22.7858  -11.5963  -15.4420 C   0  0  0  0  0  0  0  0  0  0  0  0
   22.3154  -10.3714  -16.2117 C   0  0  1  0  0  0  0  0  0  0  0  0
   21.5003   -9.5516  -15.3016 C   0  0  0  0  0  0  0  0  0  0  0  0
   20.4078  -10.0091  -14.8157 O   0  0  0  0  0  0  0  0  0  0  0  0
   19.1183   -3.6091   -9.2117 O   0  0  0  0  0  0  0  0  0  0  0  0
   19.7979   -4.3952  -10.1534 C   0  0  0  0  0  0  0  0  0  0  0  0
   20.3639   -3.8464  -11.2574 C   0  0  0  0  0  0  0  0  0  0  0  0
   21.0306   -4.6580  -12.1700 C   0  0  0  0  0  0  0  0  0  0  0  0
   21.1341   -6.0181  -11.9835 C   0  0  0  0  0  0  0  0  0  0  0  0
   21.8299   -6.8761  -12.9371 C   0  0  0  0  0  0  0  0  0  0  0  0
   20.9282   -7.4586  -14.0206 C   0  0  2  0  0  0  0  0  0  0  0  0
   21.8071   -8.2316  -14.8763 N   0  0  0  0  0  0  0  0  0  0  0  0
   20.2619   -6.4015  -14.8125 C   0  0  0  0  0  0  0  0  0  0  0  0
   20.9168   -5.7597  -15.7000 O   0  0  0  0  0  0  0  0  0  0  0  0
   20.5541   -6.5547  -10.8599 C   0  0  0  0  0  0  0  0  0  0  0  0
   19.8802   -5.7484   -9.9335 C   0  0  0  0  0  0  0  0  0  0  0  0
   11.7347   -4.4599  -16.6914 N   0  0  0  0  0  0  0  0  0  0  0  0
   12.5720   -3.4410  -17.2521 C   0  0  0  0  0  0  0  0  0  0  0  0
   12.0123   -2.5090  -17.9683 N   0  0  0  0  0  0  0  0  0  0  0  0
   13.9662   -3.4153  -17.0555 N   0  0  0  0  0  0  0  0  0  0  0  0
   14.6081   -4.4329  -16.2639 C   0  0  0  0  0  0  0  0  0  0  0  0
   16.1180   -4.1004  -16.2276 C   0  0  0  0  0  0  0  0  0  0  0  0
   16.8139   -5.1621  -15.4241 C   0  0  0  0  0  0  0  0  0  0  0  0
   18.2896   -4.9673  -15.4305 C   0  0  2  0  0  0  0  0  0  0  0  0
   18.9078   -6.0462  -14.6448 N   0  0  0  0  0  0  0  0  0  0  0  0
   18.6547   -3.6895  -14.7935 C   0  0  0  0  0  0  0  0  0  0  0  0
   19.1751   -2.6747  -15.6192 O   0  0  0  0  0  0  0  0  0  0  0  0
   18.5443   -3.4176  -13.5697 O   0  0  0  0  0  0  0  0  0  0  0  0
  1  2  1  0
  3  2  1  0
  4  3  1  0
  5  4  1  0
  5  1  1  0
  5  6  1  1
  6  7  2  0
  8  9  1  0
  9 19  2  0
 10 11  2  0
 10  9  1  0
 11 12  1  0
 12 13  1  0
 12 18  2  0
 14 13  1  1
 14 16  1  0
 15  6  1  0
 15 14  1  0
 16 17  2  0
 19 18  1  0
 20 21  1  0
 21 23  1  0
 22 21  2  0
 23 24  1  0
 24 25  1  0
 25 26  1  0
 27 26  1  1
 27 29  1  0
 28 16  1  0
 28 27  1  0
 29 31  2  0
 29 30  1  0
M  END
$$$$
