PYR.pdb
     RDKit          3D

 31 32  0  0  1  0  0  0  0  0999 V2000
   26.8429  -21.3444  -14.4593 N   0  0  0  0  0  0  0  0  0  0  0  0
   27.1075  -20.2973  -15.3878 C   0  0  0  0  0  0  0  0  0  0  0  0
   27.4941  -19.0746  -14.5879 C   0  0  0  0  0  0  0  0  0  0  0  0
   27.3372  -19.4893  -13.1651 C   0  0  0  0  0  0  0  0  0  0  0  0
   26.5184  -20.7709  -13.1986 C   0  0  1  0  0  0  0  0  0  0  0  0
   25.1050  -20.4090  -13.0080 C   0  0  0  0  0  0  0  0  0  0  0  0
   24.7539  -19.6405  -12.0461 O   0  0  0  0  0  0  0  0  0  0  0  0
   24.8871  -15.1048  -16.4736 O   0  0  0  0  0  0  0  0  0  0  0  0
   24.2004  -16.2622  -16.0793 C   0  0  0  0  0  0  0  0  0  0  0  0
   23.1023  -16.1979  -15.2852 C   0  0  0  0  0  0  0  0  0  0  0  0
   22.4465  -17.3678  -14.9144 C   0  0  0  0  0  0  0  0  0  0  0  0
   22.8844  -18.6035  -15.3344 C   0  0  0  0  0  0  0  0  0  0  0  0
   22.2031  -19.8349  -14.9480 C   0  0  0  0  0  0  0  0  0  0  0  0
   22.6575  -20.4007  -13.6064 C   0  0  2  0  0  0  0  0  0  0  0  0
   24.0222  -20.8420  -13.8187 N   0  0  0  0  0  0  0  0  0  0  0  0
   21.8229  -21.5446  -13.1779 C   0  0  0  0  0  0  0  0  0  0  0  0
   21.9057  -22.6608  -13.7911 O   0  0  0  0  0  0  0  0  0  0  0  0
   23.9980  -18.6476  -16.1373 C   0  0  0  0  0  0  0  0  0  0  0  0
   24.6671  -17.4771  -16.5179 C   0  0  0  0  0  0  0  0  0  0  0  0
   17.9160  -24.5155   -6.5354 N   0  0  0  0  0  0  0  0  0  0  0  0
   17.9166  -25.5915   -7.4819 C   0  0  0  0  0  0  0  0  0  0  0  0
   17.1648  -26.6261   -7.2387 N   0  0  0  0  0  0  0  0  0  0  0  0
   18.6959  -25.5664   -8.6546 N   0  0  0  0  0  0  0  0  0  0  0  0
   19.5002  -24.4137   -8.9690 C   0  0  0  0  0  0  0  0  0  0  0  0
   18.6572  -23.5058   -9.8946 C   0  0  0  0  0  0  0  0  0  0  0  0
   19.5249  -22.3691  -10.3550 C   0  0  0  0  0  0  0  0  0  0  0  0
   20.1187  -22.6467  -11.6916 C   0  0  2  0  0  0  0  0  0  0  0  0
   20.9136  -21.4794  -12.1024 N   0  0  0  0  0  0  0  0  0  0  0  0
   19.0664  -22.8453  -12.7040 C   0  0  0  0  0  0  0  0  0  0  0  0
   18.5088  -21.6974  -13.2988 O   0  0  0  0  0  0  0  0  0  0  0  0
   18.6151  -23.9547  -13.0906 O   0  0  0  0  0  0  0  0  0  0  0  0
  1  2  1  0
  3  2  1  0
  4  3  1  0
  5  4  1  0
  5  1  1  0
  5  6  1  6
  6  7  2  0
  8  9  1  0
  9 19  2  0
 10 11  2  0
 10  9  1  0
 11 12  1  0
 12 13  1  0
 12 18  2  0
 14 13  1  6
 14 16  1  0
 15  6  1  0
 15 14  1  0
 16 17  2  0
 19 18  1  0
 20 21  1  0
 21 23  1  0
 22 21  2  0
 23 24  1  0
 24 25  1  0
 25 26  1  0
 27 26  1  1
 27 29  1  0
 28 16  1  0
 28 27  1  0
 29 31  2  0
 29 30  1  0
M  END
$$$$
