PYR.pdb
     RDKit          3D

 31 32  0  0  1  0  0  0  0  0999 V2000
   26.5965  -20.8135  -14.7013 N   0  0  0  0  0  0  0  0  0  0  0  0
   27.5643  -20.7047  -15.7406 C   0  0  0  0  0  0  0  0  0  0  0  0
   28.3315  -19.4235  -15.5077 C   0  0  0  0  0  0  0  0  0  0  0  0
   27.6660  -18.7933  -14.3327 C   0  0  0  0  0  0  0  0  0  0  0  0
   26.3372  -19.5171  -14.1759 C   0  0  1  0  0  0  0  0  0  0  0  0
   25.3110  -18.7360  -14.8842 C   0  0  0  0  0  0  0  0  0  0  0  0
   25.1303  -17.4987  -14.6098 O   0  0  0  0  0  0  0  0  0  0  0  0
   28.5272  -16.2895  -19.9859 O   0  0  0  0  0  0  0  0  0  0  0  0
   27.3564  -16.8973  -19.5101 C   0  0  0  0  0  0  0  0  0  0  0  0
   27.3202  -18.2172  -19.1986 C   0  0  0  0  0  0  0  0  0  0  0  0
   26.1403  -18.7857  -18.7289 C   0  0  0  0  0  0  0  0  0  0  0  0
   24.9946  -18.0394  -18.5690 C   0  0  0  0  0  0  0  0  0  0  0  0
   23.7528  -18.6290  -18.0789 C   0  0  0  0  0  0  0  0  0  0  0  0
   23.4945  -18.3876  -16.5951 C   0  0  2  0  0  0  0  0  0  0  0  0
   24.4472  -19.2293  -15.8980 N   0  0  0  0  0  0  0  0  0  0  0  0
   22.1174  -18.7624  -16.2058 C   0  0  0  0  0  0  0  0  0  0  0  0
   21.8690  -19.9452  -15.7959 O   0  0  0  0  0  0  0  0  0  0  0  0
   25.0514  -16.7051  -18.8902 C   0  0  0  0  0  0  0  0  0  0  0  0
   26.2331  -16.1207  -19.3639 C   0  0  0  0  0  0  0  0  0  0  0  0
   14.3986  -14.7423  -17.4277 N   0  0  0  0  0  0  0  0  0  0  0  0
   14.9607  -15.9151  -18.0299 C   0  0  0  0  0  0  0  0  0  0  0  0
   14.5388  -16.2632  -19.2113 N   0  0  0  0  0  0  0  0  0  0  0  0
   15.9444  -16.6950  -17.3919 N   0  0  0  0  0  0  0  0  0  0  0  0
   16.4110  -16.3432  -16.0755 C   0  0  0  0  0  0  0  0  0  0  0  0
   17.3552  -17.4747  -15.6068 C   0  0  0  0  0  0  0  0  0  0  0  0
   18.7526  -17.1289  -16.0368 C   0  0  0  0  0  0  0  0  0  0  0  0
   19.7004  -18.2389  -15.7444 C   0  0  2  0  0  0  0  0  0  0  0  0
   21.0274  -17.8696  -16.2600 N   0  0  0  0  0  0  0  0  0  0  0  0
   19.2877  -19.4775  -16.4281 C   0  0  0  0  0  0  0  0  0  0  0  0
   18.6508  -20.4674  -15.6556 O   0  0  0  0  0  0  0  0  0  0  0  0
   19.4526  -19.7361  -17.6486 O   0  0  0  0  0  0  0  0  0  0  0  0
  1  2  1  0
  3  2  1  0
  4  3  1  0
  5  4  1  0
  5  1  1  0
  5  6  1  6
  6  7  2  0
  8  9  1  0
  9 19  2  0
 10 11  2  0
 10  9  1  0
 11 12  1  0
 12 13  1  0
 12 18  2  0
 14 13  1  6
 14 16  1  0
 15  6  1  0
 15 14  1  0
 16 17  2  0
 19 18  1  0
 20 21  1  0
 21 23  1  0
 22 21  2  0
 23 24  1  0
 24 25  1  0
 25 26  1  0
 27 26  1  6
 27 29  1  0
 28 16  1  0
 28 27  1  0
 29 31  2  0
 29 30  1  0
M  END
$$$$
