PYR.pdb
     RDKit          3D

 31 32  0  0  1  0  0  0  0  0999 V2000
   28.1056  -21.0924  -18.1066 N   0  0  0  0  0  0  0  0  0  0  0  0
   29.2747  -20.3979  -17.6831 C   0  0  0  0  0  0  0  0  0  0  0  0
   30.2765  -21.4368  -17.2342 C   0  0  0  0  0  0  0  0  0  0  0  0
   29.5530  -22.7343  -17.3517 C   0  0  0  0  0  0  0  0  0  0  0  0
   28.0815  -22.3734  -17.4884 C   0  0  1  0  0  0  0  0  0  0  0  0
   27.4779  -22.4227  -16.1475 C   0  0  0  0  0  0  0  0  0  0  0  0
   27.4790  -23.5108  -15.4729 O   0  0  0  0  0  0  0  0  0  0  0  0
   24.4150  -20.1475   -8.1755 O   0  0  0  0  0  0  0  0  0  0  0  0
   24.9216  -20.1584   -9.4831 C   0  0  0  0  0  0  0  0  0  0  0  0
   24.1910  -19.6977  -10.5292 C   0  0  0  0  0  0  0  0  0  0  0  0
   24.7269  -19.7241  -11.8131 C   0  0  0  0  0  0  0  0  0  0  0  0
   25.9919  -20.2098  -12.0560 C   0  0  0  0  0  0  0  0  0  0  0  0
   26.5600  -20.2426  -13.3999 C   0  0  0  0  0  0  0  0  0  0  0  0
   26.1791  -21.4811  -14.2046 C   0  0  2  0  0  0  0  0  0  0  0  0
   26.8573  -21.3349  -15.4777 N   0  0  0  0  0  0  0  0  0  0  0  0
   24.7187  -21.5705  -14.4233 C   0  0  0  0  0  0  0  0  0  0  0  0
   24.1410  -20.7568  -15.2188 O   0  0  0  0  0  0  0  0  0  0  0  0
   26.7155  -20.6721  -10.9839 C   0  0  0  0  0  0  0  0  0  0  0  0
   26.1875  -20.6508   -9.6865 C   0  0  0  0  0  0  0  0  0  0  0  0
   21.7999  -27.6938  -15.5815 N   0  0  0  0  0  0  0  0  0  0  0  0
   20.3873  -27.4655  -15.5010 C   0  0  0  0  0  0  0  0  0  0  0  0
   19.6128  -28.0984  -16.3342 N   0  0  0  0  0  0  0  0  0  0  0  0
   19.8158  -26.5878  -14.5596 N   0  0  0  0  0  0  0  0  0  0  0  0
   20.6518  -25.8759  -13.6276 C   0  0  0  0  0  0  0  0  0  0  0  0
   21.1196  -24.5798  -14.3296 C   0  0  0  0  0  0  0  0  0  0  0  0
   21.8850  -23.7558  -13.3334 C   0  0  0  0  0  0  0  0  0  0  0  0
   22.4372  -22.5232  -13.9591 C   0  0  2  0  0  0  0  0  0  0  0  0
   23.8982  -22.5263  -13.7901 N   0  0  0  0  0  0  0  0  0  0  0  0
   21.9162  -21.3160  -13.2934 C   0  0  0  0  0  0  0  0  0  0  0  0
   21.1871  -20.4021  -14.0779 O   0  0  0  0  0  0  0  0  0  0  0  0
   22.0630  -21.0225  -12.0785 O   0  0  0  0  0  0  0  0  0  0  0  0
  1  2  1  0
  3  2  1  0
  4  3  1  0
  5  4  1  0
  5  1  1  0
  5  6  1  1
  6  7  2  0
  8  9  1  0
  9 19  2  0
 10 11  2  0
 10  9  1  0
 11 12  1  0
 12 13  1  0
 12 18  2  0
 14 13  1  1
 14 16  1  0
 15  6  1  0
 15 14  1  0
 16 17  2  0
 19 18  1  0
 20 21  1  0
 21 23  1  0
 22 21  2  0
 23 24  1  0
 24 25  1  0
 25 26  1  0
 27 26  1  1
 27 29  1  0
 28 16  1  0
 28 27  1  0
 29 31  2  0
 29 30  1  0
M  END
$$$$
