PYR.pdb
     RDKit          3D

 31 32  0  0  1  0  0  0  0  0999 V2000
   28.9709  -22.2307  -18.6760 N   0  0  0  0  0  0  0  0  0  0  0  0
   27.9435  -22.1857  -19.6614 C   0  0  0  0  0  0  0  0  0  0  0  0
   27.4835  -20.7498  -19.7656 C   0  0  0  0  0  0  0  0  0  0  0  0
   28.2563  -20.0287  -18.7150 C   0  0  0  0  0  0  0  0  0  0  0  0
   28.8290  -21.1101  -17.8112 C   0  0  1  0  0  0  0  0  0  0  0  0
   27.9044  -21.2904  -16.6809 C   0  0  0  0  0  0  0  0  0  0  0  0
   27.0462  -22.2404  -16.6872 O   0  0  0  0  0  0  0  0  0  0  0  0
   24.6664  -20.4911   -8.4051 O   0  0  0  0  0  0  0  0  0  0  0  0
   25.4186  -20.4382   -9.5875 C   0  0  0  0  0  0  0  0  0  0  0  0
   26.0608  -21.5326  -10.0676 C   0  0  0  0  0  0  0  0  0  0  0  0
   26.7978  -21.4423  -11.2443 C   0  0  0  0  0  0  0  0  0  0  0  0
   26.8958  -20.2610  -11.9443 C   0  0  0  0  0  0  0  0  0  0  0  0
   27.6686  -20.1580  -13.1780 C   0  0  0  0  0  0  0  0  0  0  0  0
   26.9834  -20.7754  -14.3929 C   0  0  2  0  0  0  0  0  0  0  0  0
   27.8536  -20.4814  -15.5147 N   0  0  0  0  0  0  0  0  0  0  0  0
   25.6460  -20.1893  -14.6304 C   0  0  0  0  0  0  0  0  0  0  0  0
   25.5336  -19.0975  -15.2815 O   0  0  0  0  0  0  0  0  0  0  0  0
   26.2390  -19.1643  -11.4418 C   0  0  0  0  0  0  0  0  0  0  0  0
   25.4936  -19.2421  -10.2582 C   0  0  0  0  0  0  0  0  0  0  0  0
   23.1447  -25.9094  -15.1067 N   0  0  0  0  0  0  0  0  0  0  0  0
   24.1924  -24.9681  -15.3718 C   0  0  0  0  0  0  0  0  0  0  0  0
   25.4182  -25.3220  -15.1133 N   0  0  0  0  0  0  0  0  0  0  0  0
   23.9415  -23.6860  -15.8975 N   0  0  0  0  0  0  0  0  0  0  0  0
   22.5939  -23.2711  -16.1912 C   0  0  0  0  0  0  0  0  0  0  0  0
   22.1497  -22.3203  -15.0553 C   0  0  0  0  0  0  0  0  0  0  0  0
   22.4420  -20.9098  -15.4820 C   0  0  0  0  0  0  0  0  0  0  0  0
   23.1405  -20.1519  -14.4079 C   0  0  2  0  0  0  0  0  0  0  0  0
   24.4503  -20.7771  -14.1695 N   0  0  0  0  0  0  0  0  0  0  0  0
   22.3841  -20.2112  -13.1445 C   0  0  0  0  0  0  0  0  0  0  0  0
   22.8043  -21.1428  -12.1761 O   0  0  0  0  0  0  0  0  0  0  0  0
   21.3886  -19.5010  -12.8471 O   0  0  0  0  0  0  0  0  0  0  0  0
  1  2  1  0
  3  2  1  0
  4  3  1  0
  5  4  1  0
  5  1  1  0
  5  6  1  1
  6  7  2  0
  8  9  1  0
  9 19  2  0
 10 11  2  0
 10  9  1  0
 11 12  1  0
 12 13  1  0
 12 18  2  0
 14 13  1  1
 14 16  1  0
 15  6  1  0
 15 14  1  0
 16 17  2  0
 19 18  1  0
 20 21  1  0
 21 23  1  0
 22 21  2  0
 23 24  1  0
 24 25  1  0
 25 26  1  0
 27 26  1  6
 27 29  1  0
 28 16  1  0
 28 27  1  0
 29 31  2  0
 29 30  1  0
M  END
$$$$
