NPL.pdb
     RDKit          3D

 24 24  0  0  1  0  0  0  0  0999 V2000
   39.6814  -29.0352    1.4499 N   0  0  0  0  0  0  0  0  0  0  0  0
   38.2809  -28.9832    1.6329 C   0  0  0  0  0  0  0  0  0  0  0  0
   37.5699  -29.8122    1.0172 O   0  0  0  0  0  0  0  0  0  0  0  0
   37.5881  -27.9971    2.5186 C   0  0  0  0  0  0  0  0  0  0  0  0
   38.2270  -28.0474    3.8839 C   0  0  2  0  0  0  0  0  0  0  0  0
   37.9217  -29.3839    4.4136 N   0  0  0  0  0  0  0  0  0  0  0  0
   37.7757  -26.9943    4.8111 C   0  0  0  0  0  0  0  0  0  0  0  0
   36.8367  -27.2088    5.6235 O   0  0  0  0  0  0  0  0  0  0  0  0
   38.3843  -25.7241    4.8190 N   0  0  0  0  0  0  0  0  0  0  0  0
   39.4671  -25.3022    3.9369 C   0  0  0  0  0  0  0  0  0  0  0  0
   40.3149  -24.3662    4.7910 C   0  0  0  0  0  0  0  0  0  0  0  0
   39.4884  -24.0060    6.0011 C   0  0  0  0  0  0  0  0  0  0  0  0
   38.1183  -24.6355    5.7058 C   0  0  1  0  0  0  0  0  0  0  0  0
   37.1760  -23.5933    5.2126 C   0  0  0  0  0  0  0  0  0  0  0  0
   37.2002  -23.3731    3.9756 O   0  0  0  0  0  0  0  0  0  0  0  0
   32.4229  -21.3021    4.6864 C   0  0  0  0  0  0  0  0  0  0  0  0
   32.6949  -22.7675    4.6370 C   0  0  2  0  0  0  0  0  0  0  0  0
   31.8511  -23.4214    5.7604 C   0  0  0  0  0  0  0  0  0  0  0  0
   34.1239  -23.1119    4.7751 C   0  0  0  0  0  0  0  0  0  0  0  0
   34.9308  -22.5034    5.8532 C   0  0  2  0  0  0  0  0  0  0  0  0
   36.2825  -22.8581    6.0212 N   0  0  0  0  0  0  0  0  0  0  0  0
   34.0889  -22.3157    7.0710 C   0  0  0  0  0  0  0  0  0  0  0  0
   33.7336  -20.9909    7.3653 O   0  0  0  0  0  0  0  0  0  0  0  0
   33.7009  -23.1889    7.8021 O   0  0  0  0  0  0  0  0  0  0  0  0
  1  2  1  0
  2  3  2  0
  4  2  1  0
  5  4  1  0
  5  6  1  1
  7  5  1  0
  7  8  2  0
  9  7  1  0
 10  9  1  0
 11 12  1  0
 11 10  1  0
 12 13  1  0
 13  9  1  0
 14 21  1  0
 13 14  1  6
 15 14  2  0
 17 16  1  1
 18 17  1  0
 19 17  1  0
 20 21  1  0
 20 19  1  6
 22 20  1  0
 23 22  1  0
 24 22  2  0
M  END
$$$$
