NPL.pdb
     RDKit          3D

 24 24  0  0  1  0  0  0  0  0999 V2000
   27.0118  -17.3667  -17.2890 N   0  0  0  0  0  0  0  0  0  0  0  0
   25.6479  -17.6893  -17.1070 C   0  0  0  0  0  0  0  0  0  0  0  0
   24.8000  -16.7729  -17.2216 O   0  0  0  0  0  0  0  0  0  0  0  0
   25.1477  -19.0614  -16.7843 C   0  0  0  0  0  0  0  0  0  0  0  0
   26.3338  -19.9802  -16.6306 C   0  0  2  0  0  0  0  0  0  0  0  0
   26.3292  -20.8342  -17.8268 N   0  0  0  0  0  0  0  0  0  0  0  0
   26.3252  -20.7919  -15.4003 C   0  0  0  0  0  0  0  0  0  0  0  0
   25.4958  -21.7286  -15.2510 O   0  0  0  0  0  0  0  0  0  0  0  0
   27.2456  -20.5472  -14.3625 N   0  0  0  0  0  0  0  0  0  0  0  0
   28.2870  -19.5256  -14.3822 C   0  0  0  0  0  0  0  0  0  0  0  0
   29.4495  -20.1482  -13.6173 C   0  0  0  0  0  0  0  0  0  0  0  0
   28.9005  -21.3466  -12.8826 C   0  0  0  0  0  0  0  0  0  0  0  0
   27.3872  -21.2661  -13.1356 C   0  0  1  0  0  0  0  0  0  0  0  0
   26.7032  -20.6884  -11.9457 C   0  0  0  0  0  0  0  0  0  0  0  0
   26.9151  -19.4687  -11.7296 O   0  0  0  0  0  0  0  0  0  0  0  0
   26.3602  -21.5847   -7.3504 C   0  0  0  0  0  0  0  0  0  0  0  0
   26.4426  -20.3976   -8.2491 C   0  0  2  0  0  0  0  0  0  0  0  0
   26.8184  -19.1843   -7.3612 C   0  0  0  0  0  0  0  0  0  0  0  0
   25.2024  -20.1388   -9.0074 C   0  0  0  0  0  0  0  0  0  0  0  0
   24.8577  -20.9809  -10.1716 C   0  0  2  0  0  0  0  0  0  0  0  0
   25.8561  -21.4015  -11.0701 N   0  0  0  0  0  0  0  0  0  0  0  0
   23.5350  -20.5644  -10.7235 C   0  0  0  0  0  0  0  0  0  0  0  0
   22.4961  -20.4484   -9.7879 O   0  0  0  0  0  0  0  0  0  0  0  0
   23.2954  -20.3267  -11.8783 O   0  0  0  0  0  0  0  0  0  0  0  0
  1  2  1  0
  2  3  2  0
  4  2  1  0
  5  4  1  0
  5  6  1  6
  7  5  1  0
  7  8  2  0
  9  7  1  0
 10  9  1  0
 11 12  1  0
 11 10  1  0
 12 13  1  0
 13  9  1  0
 14 21  1  0
 13 14  1  1
 15 14  2  0
 17 16  1  1
 18 17  1  0
 19 17  1  0
 20 21  1  0
 20 19  1  6
 22 20  1  0
 23 22  1  0
 24 22  2  0
M  END
$$$$
