NPL.pdb
     RDKit          3D

 24 24  0  0  1  0  0  0  0  0999 V2000
   28.0727  -22.2376  -19.9986 N   0  0  0  0  0  0  0  0  0  0  0  0
   27.1803  -22.9758  -19.1885 C   0  0  0  0  0  0  0  0  0  0  0  0
   26.2924  -23.6586  -19.7519 O   0  0  0  0  0  0  0  0  0  0  0  0
   27.2268  -22.9950  -17.6937 C   0  0  0  0  0  0  0  0  0  0  0  0
   28.3855  -22.1433  -17.2392 C   0  0  2  0  0  0  0  0  0  0  0  0
   29.5552  -23.0334  -17.2434 N   0  0  0  0  0  0  0  0  0  0  0  0
   28.2033  -21.5145  -15.9186 C   0  0  0  0  0  0  0  0  0  0  0  0
   28.7312  -22.0123  -14.8885 O   0  0  0  0  0  0  0  0  0  0  0  0
   27.4408  -20.3392  -15.7730 N   0  0  0  0  0  0  0  0  0  0  0  0
   26.8152  -19.5992  -16.8637 C   0  0  0  0  0  0  0  0  0  0  0  0
   26.9037  -18.1384  -16.4364 C   0  0  0  0  0  0  0  0  0  0  0  0
   27.2438  -18.1305  -14.9662 C   0  0  0  0  0  0  0  0  0  0  0  0
   27.1787  -19.6136  -14.5701 C   0  0  1  0  0  0  0  0  0  0  0  0
   25.8856  -19.9016  -13.8902 C   0  0  0  0  0  0  0  0  0  0  0  0
   24.8983  -20.0871  -14.6452 O   0  0  0  0  0  0  0  0  0  0  0  0
   26.5978  -21.9518   -9.6676 C   0  0  0  0  0  0  0  0  0  0  0  0
   26.0235  -20.5805   -9.5510 C   0  0  2  0  0  0  0  0  0  0  0  0
   25.9067  -20.2671   -8.0379 C   0  0  0  0  0  0  0  0  0  0  0  0
   24.7222  -20.4213  -10.2300 C   0  0  0  0  0  0  0  0  0  0  0  0
   24.6459  -20.4725  -11.7048 C   0  0  2  0  0  0  0  0  0  0  0  0
   25.7022  -19.9780  -12.4926 N   0  0  0  0  0  0  0  0  0  0  0  0
   23.2453  -20.2098  -12.1485 C   0  0  0  0  0  0  0  0  0  0  0  0
   22.2700  -21.0690  -11.6208 O   0  0  0  0  0  0  0  0  0  0  0  0
   22.8957  -19.3414  -12.9043 O   0  0  0  0  0  0  0  0  0  0  0  0
  1  2  1  0
  2  3  2  0
  4  2  1  0
  5  4  1  0
  5  6  1  1
  7  5  1  0
  7  8  2  0
  9  7  1  0
 10  9  1  0
 11 12  1  0
 11 10  1  0
 12 13  1  0
 13  9  1  0
 14 21  1  0
 13 14  1  6
 15 14  2  0
 17 16  1  1
 18 17  1  0
 19 17  1  0
 20 21  1  0
 20 19  1  1
 22 20  1  0
 23 22  1  0
 24 22  2  0
M  END
$$$$
