NPL.pdb
     RDKit          3D

 24 24  0  0  1  0  0  0  0  0999 V2000
   21.1035  -21.2148  -14.3137 N   0  0  0  0  0  0  0  0  0  0  0  0
   22.2794  -20.5403  -13.9138 C   0  0  0  0  0  0  0  0  0  0  0  0
   22.5271  -19.4231  -14.4262 O   0  0  0  0  0  0  0  0  0  0  0  0
   23.2532  -21.0764  -12.9133 C   0  0  0  0  0  0  0  0  0  0  0  0
   24.4776  -21.5615  -13.6483 C   0  0  2  0  0  0  0  0  0  0  0  0
   24.0332  -22.7229  -14.4320 N   0  0  0  0  0  0  0  0  0  0  0  0
   25.6152  -21.9128  -12.7795 C   0  0  0  0  0  0  0  0  0  0  0  0
   25.7038  -23.0592  -12.2642 O   0  0  0  0  0  0  0  0  0  0  0  0
   26.6355  -20.9808  -12.5067 N   0  0  0  0  0  0  0  0  0  0  0  0
   26.8138  -19.7024  -13.1867 C   0  0  0  0  0  0  0  0  0  0  0  0
   28.3244  -19.5040  -13.2404 C   0  0  0  0  0  0  0  0  0  0  0  0
   28.9318  -20.4905  -12.2733 C   0  0  0  0  0  0  0  0  0  0  0  0
   27.7126  -21.1146  -11.5772 C   0  0  1  0  0  0  0  0  0  0  0  0
   27.5161  -20.4898  -10.2399 C   0  0  0  0  0  0  0  0  0  0  0  0
   26.7125  -19.5246  -10.1982 O   0  0  0  0  0  0  0  0  0  0  0  0
   28.0917  -18.8053   -5.2150 C   0  0  0  0  0  0  0  0  0  0  0  0
   28.5651  -20.2171   -5.2952 C   0  0  2  0  0  0  0  0  0  0  0  0
   29.7991  -20.3330   -4.3650 C   0  0  0  0  0  0  0  0  0  0  0  0
   28.8884  -20.6587   -6.6665 C   0  0  0  0  0  0  0  0  0  0  0  0
   27.8272  -20.7228   -7.6928 C   0  0  2  0  0  0  0  0  0  0  0  0
   28.1552  -20.9000   -9.0499 N   0  0  0  0  0  0  0  0  0  0  0  0
   26.7293  -19.7734   -7.3453 C   0  0  0  0  0  0  0  0  0  0  0  0
   26.8889  -18.4618   -7.8167 O   0  0  0  0  0  0  0  0  0  0  0  0
   25.7431  -20.0376   -6.7086 O   0  0  0  0  0  0  0  0  0  0  0  0
  1  2  1  0
  2  3  2  0
  4  2  1  0
  5  4  1  0
  5  6  1  1
  7  5  1  0
  7  8  2  0
  9  7  1  0
 10  9  1  0
 11 12  1  0
 11 10  1  0
 12 13  1  0
 13  9  1  0
 14 21  1  0
 13 14  1  1
 15 14  2  0
 17 16  1  6
 18 17  1  0
 19 17  1  0
 20 21  1  0
 20 19  1  1
 22 20  1  0
 23 22  1  0
 24 22  2  0
M  END
$$$$
