NPL.pdb
     RDKit          3D

 24 24  0  0  1  0  0  0  0  0999 V2000
   25.0616  -13.4193  -21.1004 N   0  0  0  0  0  0  0  0  0  0  0  0
   23.9455  -12.5626  -20.9659 C   0  0  0  0  0  0  0  0  0  0  0  0
   23.0215  -12.6537  -21.8084 O   0  0  0  0  0  0  0  0  0  0  0  0
   23.7947  -11.5483  -19.8772 C   0  0  0  0  0  0  0  0  0  0  0  0
   23.7782  -12.2671  -18.5513 C   0  0  2  0  0  0  0  0  0  0  0  0
   22.5969  -13.1408  -18.5906 N   0  0  0  0  0  0  0  0  0  0  0  0
   23.7426  -11.3810  -17.3740 C   0  0  0  0  0  0  0  0  0  0  0  0
   22.6626  -11.1630  -16.7628 O   0  0  0  0  0  0  0  0  0  0  0  0
   24.9133  -10.7596  -16.8972 N   0  0  0  0  0  0  0  0  0  0  0  0
   26.2558  -10.9694  -17.4286 C   0  0  0  0  0  0  0  0  0  0  0  0
   27.1695  -10.8697  -16.2122 C   0  0  0  0  0  0  0  0  0  0  0  0
   26.3572  -10.2490  -15.1021 C   0  0  0  0  0  0  0  0  0  0  0  0
   25.0366   -9.8670  -15.7881 C   0  0  1  0  0  0  0  0  0  0  0  0
   25.0306   -8.4118  -16.1039 C   0  0  0  0  0  0  0  0  0  0  0  0
   25.6886   -8.0679  -17.1178 O   0  0  0  0  0  0  0  0  0  0  0  0
   20.9203   -4.6710  -16.6856 C   0  0  0  0  0  0  0  0  0  0  0  0
   22.1454   -5.0617  -17.4409 C   0  0  2  0  0  0  0  0  0  0  0  0
   21.7361   -5.1895  -18.9301 C   0  0  0  0  0  0  0  0  0  0  0  0
   22.7735   -6.3054  -16.9525 C   0  0  0  0  0  0  0  0  0  0  0  0
   23.6300   -6.2784  -15.7487 C   0  0  2  0  0  0  0  0  0  0  0  0
   24.3526   -7.4220  -15.3600 N   0  0  0  0  0  0  0  0  0  0  0  0
   22.9853   -5.4507  -14.6873 C   0  0  0  0  0  0  0  0  0  0  0  0
   23.2912   -4.0819  -14.7152 O   0  0  0  0  0  0  0  0  0  0  0  0
   22.2429   -5.8546  -13.8310 O   0  0  0  0  0  0  0  0  0  0  0  0
  1  2  1  0
  2  3  2  0
  4  2  1  0
  5  4  1  0
  5  6  1  6
  7  5  1  0
  7  8  2  0
  9  7  1  0
 10  9  1  0
 11 12  1  0
 11 10  1  0
 12 13  1  0
 13  9  1  0
 14 21  1  0
 13 14  1  6
 15 14  2  0
 17 16  1  1
 18 17  1  0
 19 17  1  0
 20 21  1  0
 20 19  1  6
 22 20  1  0
 23 22  1  0
 24 22  2  0
M  END
$$$$
