NPL.pdb
     RDKit          3D

 24 24  0  0  1  0  0  0  0  0999 V2000
   21.7066  -19.9426  -14.0875 N   0  0  0  0  0  0  0  0  0  0  0  0
   22.3139  -18.6942  -13.8222 C   0  0  0  0  0  0  0  0  0  0  0  0
   21.5817  -17.7411  -13.4652 O   0  0  0  0  0  0  0  0  0  0  0  0
   23.7821  -18.4350  -13.9407 C   0  0  0  0  0  0  0  0  0  0  0  0
   24.4778  -19.7418  -14.2289 C   0  0  2  0  0  0  0  0  0  0  0  0
   23.5311  -20.5232  -15.0373 N   0  0  0  0  0  0  0  0  0  0  0  0
   24.8954  -20.4913  -13.0305 C   0  0  0  0  0  0  0  0  0  0  0  0
   24.0502  -21.1068  -12.3272 O   0  0  0  0  0  0  0  0  0  0  0  0
   26.2484  -20.5453  -12.6426 N   0  0  0  0  0  0  0  0  0  0  0  0
   27.3607  -19.9523  -13.3773 C   0  0  0  0  0  0  0  0  0  0  0  0
   28.5233  -20.9128  -13.1539 C   0  0  0  0  0  0  0  0  0  0  0  0
   28.1329  -21.8169  -12.0104 C   0  0  0  0  0  0  0  0  0  0  0  0
   26.8055  -21.2231  -11.5146 C   0  0  1  0  0  0  0  0  0  0  0  0
   27.0407  -20.4002  -10.2960 C   0  0  0  0  0  0  0  0  0  0  0  0
   27.9803  -19.5689  -10.3685 O   0  0  0  0  0  0  0  0  0  0  0  0
   27.1126  -19.4672   -4.7533 C   0  0  0  0  0  0  0  0  0  0  0  0
   28.0847  -20.0519   -5.7212 C   0  0  2  0  0  0  0  0  0  0  0  0
   29.4664  -19.4233   -5.4089 C   0  0  0  0  0  0  0  0  0  0  0  0
   27.7130  -19.8455   -7.1352 C   0  0  0  0  0  0  0  0  0  0  0  0
   26.6836  -20.7004   -7.7620 C   0  0  2  0  0  0  0  0  0  0  0  0
   26.2977  -20.4905   -9.0991 N   0  0  0  0  0  0  0  0  0  0  0  0
   25.6277  -21.0366   -6.7622 C   0  0  0  0  0  0  0  0  0  0  0  0
   26.0737  -21.6938   -5.6059 O   0  0  0  0  0  0  0  0  0  0  0  0
   24.4538  -20.7948   -6.8674 O   0  0  0  0  0  0  0  0  0  0  0  0
  1  2  1  0
  2  3  2  0
  4  2  1  0
  5  4  1  0
  5  6  1  1
  7  5  1  0
  7  8  2  0
  9  7  1  0
 10  9  1  0
 11 12  1  0
 11 10  1  0
 12 13  1  0
 13  9  1  0
 14 21  1  0
 13 14  1  1
 15 14  2  0
 17 16  1  1
 18 17  1  0
 19 17  1  0
 20 21  1  0
 20 19  1  1
 22 20  1  0
 23 22  1  0
 24 22  2  0
M  END
$$$$
