NPL.pdb
     RDKit          3D

 24 24  0  0  1  0  0  0  0  0999 V2000
   14.5863  -12.8020  -16.8624 N   0  0  0  0  0  0  0  0  0  0  0  0
   15.6170  -11.9801  -17.3720 C   0  0  0  0  0  0  0  0  0  0  0  0
   15.6582  -11.7763  -18.6084 O   0  0  0  0  0  0  0  0  0  0  0  0
   16.6681  -11.3341  -16.5266 C   0  0  0  0  0  0  0  0  0  0  0  0
   17.9914  -11.9967  -16.8176 C   0  0  2  0  0  0  0  0  0  0  0  0
   17.9408  -13.2968  -16.1339 N   0  0  0  0  0  0  0  0  0  0  0  0
   19.1714  -11.2214  -16.3946 C   0  0  0  0  0  0  0  0  0  0  0  0
   19.7222  -11.4397  -15.2826 O   0  0  0  0  0  0  0  0  0  0  0  0
   19.7183  -10.2215  -17.2223 N   0  0  0  0  0  0  0  0  0  0  0  0
   19.3429   -9.9777  -18.6109 C   0  0  0  0  0  0  0  0  0  0  0  0
   20.6354   -9.5305  -19.2847 C   0  0  0  0  0  0  0  0  0  0  0  0
   21.6089   -9.1877  -18.1839 C   0  0  0  0  0  0  0  0  0  0  0  0
   20.7663   -9.3035  -16.9044 C   0  0  1  0  0  0  0  0  0  0  0  0
   20.3464   -7.9496  -16.4483 C   0  0  0  0  0  0  0  0  0  0  0  0
   19.1978   -7.5831  -16.8030 O   0  0  0  0  0  0  0  0  0  0  0  0
   19.2716   -5.3772  -12.1720 C   0  0  0  0  0  0  0  0  0  0  0  0
   20.0499   -6.6379  -12.0027 C   0  0  2  0  0  0  0  0  0  0  0  0
   21.3169   -6.2801  -11.1852 C   0  0  0  0  0  0  0  0  0  0  0  0
   20.4059   -7.2926  -13.2774 C   0  0  0  0  0  0  0  0  0  0  0  0
   20.9173   -6.4868  -14.4055 C   0  0  2  0  0  0  0  0  0  0  0  0
   21.1320   -7.0764  -15.6653 N   0  0  0  0  0  0  0  0  0  0  0  0
   21.9131   -5.4931  -13.9071 C   0  0  0  0  0  0  0  0  0  0  0  0
   23.2430   -5.9371  -13.8610 O   0  0  0  0  0  0  0  0  0  0  0  0
   21.6712   -4.3698  -13.5505 O   0  0  0  0  0  0  0  0  0  0  0  0
  1  2  1  0
  2  3  2  0
  4  2  1  0
  5  4  1  0
  5  6  1  1
  7  5  1  0
  7  8  2  0
  9  7  1  0
 10  9  1  0
 11 12  1  0
 11 10  1  0
 12 13  1  0
 13  9  1  0
 14 21  1  0
 13 14  1  6
 15 14  2  0
 17 16  1  6
 18 17  1  0
 19 17  1  0
 20 21  1  0
 20 19  1  1
 22 20  1  0
 23 22  1  0
 24 22  2  0
M  END
$$$$
