NPL.pdb
     RDKit          3D

 24 24  0  0  1  0  0  0  0  0999 V2000
   30.1781  -23.4255  -16.6918 N   0  0  0  0  0  0  0  0  0  0  0  0
   28.8313  -23.1965  -17.0540 C   0  0  0  0  0  0  0  0  0  0  0  0
   28.3970  -23.7359  -18.0992 O   0  0  0  0  0  0  0  0  0  0  0  0
   27.8852  -22.3469  -16.2666 C   0  0  0  0  0  0  0  0  0  0  0  0
   27.4308  -21.2022  -17.1372 C   0  0  2  0  0  0  0  0  0  0  0  0
   28.6360  -20.4024  -17.3983 N   0  0  0  0  0  0  0  0  0  0  0  0
   26.3618  -20.3735  -16.5517 C   0  0  0  0  0  0  0  0  0  0  0  0
   26.6352  -19.4337  -15.7581 O   0  0  0  0  0  0  0  0  0  0  0  0
   25.0086  -20.6047  -16.8670 N   0  0  0  0  0  0  0  0  0  0  0  0
   24.5274  -21.5095  -17.9054 C   0  0  0  0  0  0  0  0  0  0  0  0
   23.2745  -20.8343  -18.4519 C   0  0  0  0  0  0  0  0  0  0  0  0
   22.8875  -19.7609  -17.4643 C   0  0  0  0  0  0  0  0  0  0  0  0
   23.8603  -19.9755  -16.2946 C   0  0  1  0  0  0  0  0  0  0  0  0
   23.1785  -20.7132  -15.1955 C   0  0  0  0  0  0  0  0  0  0  0  0
   22.5501  -21.7469  -15.5360 O   0  0  0  0  0  0  0  0  0  0  0  0
   25.5159  -22.0864  -11.7192 C   0  0  0  0  0  0  0  0  0  0  0  0
   24.8803  -20.7903  -11.3451 C   0  0  2  0  0  0  0  0  0  0  0  0
   25.3944  -20.4275   -9.9289 C   0  0  0  0  0  0  0  0  0  0  0  0
   23.4047  -20.8183  -11.3851 C   0  0  0  0  0  0  0  0  0  0  0  0
   22.7022  -20.9695  -12.6763 C   0  0  2  0  0  0  0  0  0  0  0  0
   23.1924  -20.3380  -13.8347 N   0  0  0  0  0  0  0  0  0  0  0  0
   21.2272  -20.9932  -12.4501 C   0  0  0  0  0  0  0  0  0  0  0  0
   20.7616  -21.9947  -11.5852 O   0  0  0  0  0  0  0  0  0  0  0  0
   20.4261  -20.2403  -12.9391 O   0  0  0  0  0  0  0  0  0  0  0  0
  1  2  1  0
  2  3  2  0
  4  2  1  0
  5  4  1  0
  5  6  1  1
  7  5  1  0
  7  8  2  0
  9  7  1  0
 10  9  1  0
 11 12  1  0
 11 10  1  0
 12 13  1  0
 13  9  1  0
 14 21  1  0
 13 14  1  1
 15 14  2  0
 17 16  1  1
 18 17  1  0
 19 17  1  0
 20 21  1  0
 20 19  1  1
 22 20  1  0
 23 22  1  0
 24 22  2  0
M  END
$$$$
