NPL.pdb
     RDKit          3D

 24 24  0  0  1  0  0  0  0  0999 V2000
   21.1228  -20.4325  -14.2873 N   0  0  0  0  0  0  0  0  0  0  0  0
   22.3661  -21.0023  -13.9307 C   0  0  0  0  0  0  0  0  0  0  0  0
   22.9872  -20.5124  -12.9580 O   0  0  0  0  0  0  0  0  0  0  0  0
   22.9925  -22.1585  -14.6432 C   0  0  0  0  0  0  0  0  0  0  0  0
   24.3680  -21.7481  -15.1062 C   0  0  2  0  0  0  0  0  0  0  0  0
   24.6701  -22.6094  -16.2582 N   0  0  0  0  0  0  0  0  0  0  0  0
   25.4179  -21.8525  -14.0770 C   0  0  0  0  0  0  0  0  0  0  0  0
   25.8082  -22.9775  -13.6652 O   0  0  0  0  0  0  0  0  0  0  0  0
   26.0167  -20.7004  -13.5310 N   0  0  0  0  0  0  0  0  0  0  0  0
   25.7099  -19.3272  -13.9164 C   0  0  0  0  0  0  0  0  0  0  0  0
   27.0384  -18.5891  -13.7960 C   0  0  0  0  0  0  0  0  0  0  0  0
   27.9644  -19.4778  -13.0022 C   0  0  0  0  0  0  0  0  0  0  0  0
   27.0615  -20.6388  -12.5580 C   0  0  1  0  0  0  0  0  0  0  0  0
   26.6398  -20.4421  -11.1435 C   0  0  0  0  0  0  0  0  0  0  0  0
   25.5545  -19.8315  -10.9746 O   0  0  0  0  0  0  0  0  0  0  0  0
   26.9607  -19.1538   -6.0645 C   0  0  0  0  0  0  0  0  0  0  0  0
   27.7335  -20.4190   -6.2257 C   0  0  2  0  0  0  0  0  0  0  0  0
   28.9942  -20.2949   -5.3330 C   0  0  0  0  0  0  0  0  0  0  0  0
   28.0987  -20.7184   -7.6246 C   0  0  0  0  0  0  0  0  0  0  0  0
   27.0428  -20.9056   -8.6412 C   0  0  2  0  0  0  0  0  0  0  0  0
   27.3592  -20.8847  -10.0124 N   0  0  0  0  0  0  0  0  0  0  0  0
   25.7845  -20.2404   -8.1922 C   0  0  0  0  0  0  0  0  0  0  0  0
   24.8369  -21.0791   -7.5867 O   0  0  0  0  0  0  0  0  0  0  0  0
   25.5251  -19.0710   -8.3061 O   0  0  0  0  0  0  0  0  0  0  0  0
  1  2  1  0
  2  3  2  0
  4  2  1  0
  5  4  1  0
  5  6  1  6
  7  5  1  0
  7  8  2  0
  9  7  1  0
 10  9  1  0
 11 12  1  0
 11 10  1  0
 12 13  1  0
 13  9  1  0
 14 21  1  0
 13 14  1  1
 15 14  2  0
 17 16  1  6
 18 17  1  0
 19 17  1  0
 20 21  1  0
 20 19  1  1
 22 20  1  0
 23 22  1  0
 24 22  2  0
M  END
$$$$
