NPL.pdb
     RDKit          3D

 24 24  0  0  1  0  0  0  0  0999 V2000
   18.6765  -13.6286  -19.9543 N   0  0  0  0  0  0  0  0  0  0  0  0
   19.7874  -13.0124  -19.3349 C   0  0  0  0  0  0  0  0  0  0  0  0
   20.9368  -13.3440  -19.7104 O   0  0  0  0  0  0  0  0  0  0  0  0
   19.6800  -11.9844  -18.2539 C   0  0  0  0  0  0  0  0  0  0  0  0
   20.2098  -12.5786  -16.9730 C   0  0  2  0  0  0  0  0  0  0  0  0
   19.2156  -13.5799  -16.5614 N   0  0  0  0  0  0  0  0  0  0  0  0
   20.4526  -11.6003  -15.8977 C   0  0  0  0  0  0  0  0  0  0  0  0
   19.5222  -11.2460  -15.1254 O   0  0  0  0  0  0  0  0  0  0  0  0
   21.7298  -11.0401  -15.7004 N   0  0  0  0  0  0  0  0  0  0  0  0
   22.9434  -11.4379  -16.4059 C   0  0  0  0  0  0  0  0  0  0  0  0
   24.0553  -11.2808  -15.3748 C   0  0  0  0  0  0  0  0  0  0  0  0
   23.4914  -10.4581  -14.2423 C   0  0  0  0  0  0  0  0  0  0  0  0
   22.1052  -10.0373  -14.7540 C   0  0  1  0  0  0  0  0  0  0  0  0
   22.1527   -8.6362  -15.2559 C   0  0  0  0  0  0  0  0  0  0  0  0
   22.6329   -8.4818  -16.4069 O   0  0  0  0  0  0  0  0  0  0  0  0
   19.3814   -4.3525  -16.9858 C   0  0  0  0  0  0  0  0  0  0  0  0
   19.7380   -4.3526  -15.5378 C   0  0  2  0  0  0  0  0  0  0  0  0
   20.9534   -3.4054  -15.3722 C   0  0  0  0  0  0  0  0  0  0  0  0
   20.0315   -5.6950  -14.9979 C   0  0  0  0  0  0  0  0  0  0  0  0
   21.4251   -6.1838  -14.9472 C   0  0  2  0  0  0  0  0  0  0  0  0
   21.7056   -7.5026  -14.5433 N   0  0  0  0  0  0  0  0  0  0  0  0
   22.3281   -5.0907  -14.4811 C   0  0  0  0  0  0  0  0  0  0  0  0
   22.6145   -5.0839  -13.1079 O   0  0  0  0  0  0  0  0  0  0  0  0
   22.8170   -4.2363  -15.1728 O   0  0  0  0  0  0  0  0  0  0  0  0
  1  2  1  0
  2  3  2  0
  4  2  1  0
  5  4  1  0
  5  6  1  1
  7  5  1  0
  7  8  2  0
  9  7  1  0
 10  9  1  0
 11 12  1  0
 11 10  1  0
 12 13  1  0
 13  9  1  0
 14 21  1  0
 13 14  1  6
 15 14  2  0
 17 16  1  6
 18 17  1  0
 19 17  1  0
 20 21  1  0
 20 19  1  1
 22 20  1  0
 23 22  1  0
 24 22  2  0
M  END
$$$$
