MRR.pdb
     RDKit          3D

 31 30  0  0  1  0  0  0  0  0999 V2000
   27.9371  -17.0351   -7.3267 C   0  0  0  0  0  0  0  0  0  0  0  0
   28.3997  -18.5325   -6.3858 S   0  0  0  0  0  0  0  0  0  0  0  0
   27.3541  -19.8868   -7.0201 C   0  0  0  0  0  0  0  0  0  0  0  0
   26.4766  -19.4288   -8.1375 C   0  0  0  0  0  0  0  0  0  0  0  0
   25.5463  -20.4919   -8.6739 C   0  0  2  0  0  0  0  0  0  0  0  0
   26.2561  -21.7465   -8.5676 N   0  0  0  0  0  0  0  0  0  0  0  0
   25.2530  -20.1768  -10.1034 C   0  0  0  0  0  0  0  0  0  0  0  0
   24.5655  -19.1837  -10.4433 O   0  0  0  0  0  0  0  0  0  0  0  0
   24.7441  -25.8854  -15.3160 N   0  0  0  0  0  0  0  0  0  0  0  0
   24.3424  -24.9576  -16.3059 C   0  0  0  0  0  0  0  0  0  0  0  0
   23.3748  -25.2345  -17.0987 N   0  0  0  0  0  0  0  0  0  0  0  0
   25.0023  -23.7148  -16.4335 N   0  0  0  0  0  0  0  0  0  0  0  0
   25.8520  -23.2581  -15.3675 C   0  0  0  0  0  0  0  0  0  0  0  0
   25.1000  -22.3474  -14.4397 C   0  0  0  0  0  0  0  0  0  0  0  0
   26.0466  -21.7876  -13.4206 C   0  0  0  0  0  0  0  0  0  0  0  0
   25.3968  -20.8073  -12.4651 C   0  0  2  0  0  0  0  0  0  0  0  0
   25.7878  -21.0573  -11.1147 N   0  0  0  0  0  0  0  0  0  0  0  0
   23.9157  -21.0036  -12.6469 C   0  0  0  0  0  0  0  0  0  0  0  0
   23.3207  -21.9419  -12.0234 O   0  0  0  0  0  0  0  0  0  0  0  0
   23.0596  -24.5932  -17.8522 N   0  0  0  0  0  0  0  0  0  0  0  0
   19.6694  -15.6340  -18.0208 C   0  0  0  0  0  0  0  0  0  0  0  0
   18.7115  -16.4494  -17.3388 N   0  0  0  0  0  0  0  0  0  0  0  0
   17.4739  -16.1720  -17.3708 N   0  0  0  0  0  0  0  0  0  0  0  0
   19.1863  -17.5704  -16.6288 C   0  0  0  0  0  0  0  0  0  0  0  0
   20.6405  -17.8376  -16.5301 C   0  0  0  0  0  0  0  0  0  0  0  0
   20.8307  -19.0796  -15.7411 C   0  0  0  0  0  0  0  0  0  0  0  0
   21.4447  -18.9848  -14.4307 C   0  0  1  0  0  0  0  0  0  0  0  0
   21.7285  -20.1539  -13.5518 N   0  0  0  0  0  0  0  0  0  0  0  0
   23.2416  -20.1357  -13.5054 C   0  0  0  0  0  0  0  0  0  0  0  0
   21.4473  -21.4343  -14.2497 O   0  0  0  0  0  0  0  0  0  0  0  0
   20.3918  -22.0884  -14.1919 O   0  0  0  0  0  0  0  0  0  0  0  0
  1  2  1  0
  2  3  1  0
  4  3  1  0
  5  4  1  0
  5  6  1  6
  7  8  2  0
  7  5  1  0
  9 10  1  0
 10 12  1  0
 11 10  2  0
 12 13  1  0
 13 14  1  0
 14 15  1  0
 16 15  1  6
 16 17  1  0
 17  7  1  0
 18 19  2  0
 18 16  1  0
 20 21  1  0
 21 22  2  0
 23 21  1  0
 23 24  1  0
 24 25  1  0
 25 26  1  0
 27 26  1  1
 27 28  1  0
 28 18  1  0
 29 27  1  0
 30 29  2  0
 31 29  1  0
M  END
$$$$
