MRR.pdb
     RDKit          3D

 31 30  0  0  1  0  0  0  0  0999 V2000
   27.3366  -18.3633   -7.3221 C   0  0  0  0  0  0  0  0  0  0  0  0
   27.3987  -20.1897   -7.2780 S   0  0  0  0  0  0  0  0  0  0  0  0
   26.5443  -20.7737   -8.7808 C   0  0  0  0  0  0  0  0  0  0  0  0
   27.0340  -20.0693  -10.0025 C   0  0  0  0  0  0  0  0  0  0  0  0
   26.3487  -20.4919  -11.2812 C   0  0  2  0  0  0  0  0  0  0  0  0
   25.8672  -21.8367  -11.0608 N   0  0  0  0  0  0  0  0  0  0  0  0
   27.3589  -20.4719  -12.3802 C   0  0  0  0  0  0  0  0  0  0  0  0
   27.8156  -19.4024  -12.8514 O   0  0  0  0  0  0  0  0  0  0  0  0
   34.4157  -24.3169  -12.8659 N   0  0  0  0  0  0  0  0  0  0  0  0
   33.6747  -24.3241  -14.0711 C   0  0  0  0  0  0  0  0  0  0  0  0
   33.9634  -25.1533  -15.0042 N   0  0  0  0  0  0  0  0  0  0  0  0
   32.6077  -23.4177  -14.2621 N   0  0  0  0  0  0  0  0  0  0  0  0
   31.6025  -23.7137  -15.2463 C   0  0  0  0  0  0  0  0  0  0  0  0
   30.5849  -22.6113  -15.3168 C   0  0  0  0  0  0  0  0  0  0  0  0
   29.7718  -22.6068  -14.0572 C   0  0  0  0  0  0  0  0  0  0  0  0
   28.5563  -21.7044  -14.1246 C   0  0  2  0  0  0  0  0  0  0  0  0
   27.8134  -21.7374  -12.9057 N   0  0  0  0  0  0  0  0  0  0  0  0
   27.7388  -22.2309  -15.2734 C   0  0  0  0  0  0  0  0  0  0  0  0
   27.1280  -23.3430  -15.1578 O   0  0  0  0  0  0  0  0  0  0  0  0
   33.4336  -25.2089  -15.8956 N   0  0  0  0  0  0  0  0  0  0  0  0
   23.0879  -26.7559  -16.7437 C   0  0  0  0  0  0  0  0  0  0  0  0
   22.1289  -25.8003  -17.2071 N   0  0  0  0  0  0  0  0  0  0  0  0
   21.0710  -26.1693  -17.8022 N   0  0  0  0  0  0  0  0  0  0  0  0
   22.3972  -24.4350  -16.9825 C   0  0  0  0  0  0  0  0  0  0  0  0
   23.6105  -24.0190  -16.2403 C   0  0  0  0  0  0  0  0  0  0  0  0
   24.3615  -23.0562  -17.0830 C   0  0  0  0  0  0  0  0  0  0  0  0
   25.6103  -22.5172  -16.5799 C   0  0  2  0  0  0  0  0  0  0  0  0
   26.4323  -21.5003  -17.2943 N   0  0  0  0  0  0  0  0  0  0  0  0
   27.6809  -21.4673  -16.4388 C   0  0  0  0  0  0  0  0  0  0  0  0
   25.8822  -20.1336  -17.1068 O   0  0  0  0  0  0  0  0  0  0  0  0
   25.3157  -19.7010  -16.0884 O   0  0  0  0  0  0  0  0  0  0  0  0
  1  2  1  0
  2  3  1  0
  4  3  1  0
  5  4  1  0
  5  6  1  1
  7  8  2  0
  7  5  1  0
  9 10  1  0
 10 12  1  0
 11 10  2  0
 12 13  1  0
 13 14  1  0
 14 15  1  0
 16 15  1  1
 16 17  1  0
 17  7  1  0
 18 19  2  0
 18 16  1  0
 20 21  1  0
 21 22  2  0
 23 21  1  0
 23 24  1  0
 24 25  1  0
 25 26  1  0
 27 26  1  6
 27 28  1  0
 28 18  1  0
 29 27  1  0
 30 29  2  0
 31 29  1  0
M  END
$$$$
