MRR.pdb
     RDKit          3D

 31 30  0  0  1  0  0  0  0  0999 V2000
   24.0105   -9.4998  -14.0487 C   0  0  0  0  0  0  0  0  0  0  0  0
   22.7209   -8.4670  -14.8310 S   0  0  0  0  0  0  0  0  0  0  0  0
   21.2239   -9.5042  -14.9437 C   0  0  0  0  0  0  0  0  0  0  0  0
   20.0685   -8.8842  -14.2303 C   0  0  0  0  0  0  0  0  0  0  0  0
   19.9118   -9.3297  -12.7949 C   0  0  2  0  0  0  0  0  0  0  0  0
   19.7784  -10.7686  -12.8267 N   0  0  0  0  0  0  0  0  0  0  0  0
   18.6742   -8.7021  -12.2443 C   0  0  0  0  0  0  0  0  0  0  0  0
   18.4605   -7.4677  -12.3147 O   0  0  0  0  0  0  0  0  0  0  0  0
   11.7786  -13.4580  -10.1946 N   0  0  0  0  0  0  0  0  0  0  0  0
   11.9221  -13.1281  -11.5630 C   0  0  0  0  0  0  0  0  0  0  0  0
   11.1808  -13.6879  -12.4454 N   0  0  0  0  0  0  0  0  0  0  0  0
   12.8839  -12.1784  -11.9744 N   0  0  0  0  0  0  0  0  0  0  0  0
   13.7101  -11.5418  -10.9850 C   0  0  0  0  0  0  0  0  0  0  0  0
   14.6711  -10.5842  -11.6293 C   0  0  0  0  0  0  0  0  0  0  0  0
   15.5405   -9.9698  -10.5736 C   0  0  0  0  0  0  0  0  0  0  0  0
   16.5154   -8.9434  -11.1142 C   0  0  2  0  0  0  0  0  0  0  0  0
   17.7018   -9.5621  -11.6128 N   0  0  0  0  0  0  0  0  0  0  0  0
   16.8221   -8.0405   -9.9497 C   0  0  0  0  0  0  0  0  0  0  0  0
   17.5903   -8.4479   -9.0185 O   0  0  0  0  0  0  0  0  0  0  0  0
   11.2946  -13.5262  -13.4649 N   0  0  0  0  0  0  0  0  0  0  0  0
   18.5217    0.1135  -10.7455 C   0  0  0  0  0  0  0  0  0  0  0  0
   18.8431   -0.2439   -9.3977 N   0  0  0  0  0  0  0  0  0  0  0  0
   19.5776    0.5008   -8.6798 N   0  0  0  0  0  0  0  0  0  0  0  0
   18.3185   -1.4505   -8.8927 C   0  0  0  0  0  0  0  0  0  0  0  0
   17.1566   -2.0975   -9.5463 C   0  0  0  0  0  0  0  0  0  0  0  0
   16.7873   -3.2960   -8.7535 C   0  0  0  0  0  0  0  0  0  0  0  0
   16.8647   -4.5993   -9.3848 C   0  0  1  0  0  0  0  0  0  0  0  0
   16.4416   -5.8716   -8.7349 N   0  0  0  0  0  0  0  0  0  0  0  0
   16.2433   -6.7718   -9.9359 C   0  0  0  0  0  0  0  0  0  0  0  0
   15.0655   -5.7656   -8.1865 O   0  0  0  0  0  0  0  0  0  0  0  0
   14.7456   -5.2776   -7.0889 O   0  0  0  0  0  0  0  0  0  0  0  0
  1  2  1  0
  2  3  1  0
  4  3  1  0
  5  4  1  0
  5  6  1  6
  7  8  2  0
  7  5  1  0
  9 10  1  0
 10 12  1  0
 11 10  2  0
 12 13  1  0
 13 14  1  0
 14 15  1  0
 16 15  1  1
 16 17  1  0
 17  7  1  0
 18 19  2  0
 18 16  1  0
 20 21  1  0
 21 22  2  0
 23 21  1  0
 23 24  1  0
 24 25  1  0
 25 26  1  0
 27 26  1  1
 27 28  1  0
 28 18  1  0
 29 27  1  0
 30 29  2  0
 31 29  1  0
M  END
$$$$
