MRR.pdb
     RDKit          3D

 31 30  0  0  1  0  0  0  0  0999 V2000
   21.9429  -16.0893    1.4506 C   0  0  0  0  0  0  0  0  0  0  0  0
   20.6523  -14.9524    0.8312 S   0  0  0  0  0  0  0  0  0  0  0  0
   19.7942  -14.2928    2.3003 C   0  0  0  0  0  0  0  0  0  0  0  0
   18.8541  -15.2938    2.8855 C   0  0  0  0  0  0  0  0  0  0  0  0
   17.4823  -15.3041    2.2518 C   0  0  2  0  0  0  0  0  0  0  0  0
   16.8154  -14.1040    2.7035 N   0  0  0  0  0  0  0  0  0  0  0  0
   16.7564  -16.5174    2.7308 C   0  0  0  0  0  0  0  0  0  0  0  0
   16.0571  -16.5122    3.7726 O   0  0  0  0  0  0  0  0  0  0  0  0
   16.5247  -24.7794    0.9041 N   0  0  0  0  0  0  0  0  0  0  0  0
   15.1567  -24.6156    1.2261 C   0  0  0  0  0  0  0  0  0  0  0  0
   14.4544  -25.6199    1.5998 N   0  0  0  0  0  0  0  0  0  0  0  0
   14.5472  -23.3439    1.1396 N   0  0  0  0  0  0  0  0  0  0  0  0
   15.3445  -22.2068    0.7677 C   0  0  0  0  0  0  0  0  0  0  0  0
   15.3724  -21.1910    1.8736 C   0  0  0  0  0  0  0  0  0  0  0  0
   16.1143  -19.9737    1.4091 C   0  0  0  0  0  0  0  0  0  0  0  0
   16.2259  -18.8931    2.4655 C   0  0  2  0  0  0  0  0  0  0  0  0
   16.8757  -17.7288    1.9547 N   0  0  0  0  0  0  0  0  0  0  0  0
   17.0226  -19.5143    3.5811 C   0  0  0  0  0  0  0  0  0  0  0  0
   18.2818  -19.6609    3.4537 O   0  0  0  0  0  0  0  0  0  0  0  0
   13.4375  -25.5560    1.8002 N   0  0  0  0  0  0  0  0  0  0  0  0
   15.7675  -17.1447   11.6297 C   0  0  0  0  0  0  0  0  0  0  0  0
   17.1680  -17.2588   11.3592 N   0  0  0  0  0  0  0  0  0  0  0  0
   18.0269  -16.6913   12.1006 N   0  0  0  0  0  0  0  0  0  0  0  0
   17.5637  -18.0210   10.2417 C   0  0  0  0  0  0  0  0  0  0  0  0
   16.5691  -18.4382    9.2254 C   0  0  0  0  0  0  0  0  0  0  0  0
   17.2693  -19.2458    8.1965 C   0  0  0  0  0  0  0  0  0  0  0  0
   16.5219  -19.6977    7.0388 C   0  0  2  0  0  0  0  0  0  0  0  0
   17.1132  -20.4659    5.9072 N   0  0  0  0  0  0  0  0  0  0  0  0
   16.3393  -19.9117    4.7299 C   0  0  0  0  0  0  0  0  0  0  0  0
   16.6782  -21.8857    5.9336 O   0  0  0  0  0  0  0  0  0  0  0  0
   15.9057  -22.4344    5.1290 O   0  0  0  0  0  0  0  0  0  0  0  0
  1  2  1  0
  2  3  1  0
  4  3  1  0
  5  4  1  0
  5  6  1  1
  7  8  2  0
  7  5  1  0
  9 10  1  0
 10 12  1  0
 11 10  2  0
 12 13  1  0
 13 14  1  0
 14 15  1  0
 16 15  1  6
 16 17  1  0
 17  7  1  0
 18 19  2  0
 18 16  1  0
 20 21  1  0
 21 22  2  0
 23 21  1  0
 23 24  1  0
 24 25  1  0
 25 26  1  0
 27 26  1  6
 27 28  1  0
 28 18  1  0
 29 27  1  0
 30 29  2  0
 31 29  1  0
M  END
$$$$
