MRR.pdb
     RDKit          3D

 31 30  0  0  1  0  0  0  0  0999 V2000
   29.7225  -16.2127  -18.5758 C   0  0  0  0  0  0  0  0  0  0  0  0
   30.3494  -17.7890  -19.2568 S   0  0  0  0  0  0  0  0  0  0  0  0
   29.4169  -19.1196  -18.4263 C   0  0  0  0  0  0  0  0  0  0  0  0
   28.2743  -18.5793  -17.6321 C   0  0  0  0  0  0  0  0  0  0  0  0
   27.5504  -19.6129  -16.8007 C   0  0  2  0  0  0  0  0  0  0  0  0
   27.2866  -20.7305  -17.6784 N   0  0  0  0  0  0  0  0  0  0  0  0
   26.2709  -19.0121  -16.3203 C   0  0  0  0  0  0  0  0  0  0  0  0
   26.2430  -18.0210  -15.5513 O   0  0  0  0  0  0  0  0  0  0  0  0
   18.8770  -20.0041  -16.9951 N   0  0  0  0  0  0  0  0  0  0  0  0
   18.4666  -18.6569  -17.1308 C   0  0  0  0  0  0  0  0  0  0  0  0
   17.3158  -18.2846  -16.7085 N   0  0  0  0  0  0  0  0  0  0  0  0
   19.3193  -17.7050  -17.7336 N   0  0  0  0  0  0  0  0  0  0  0  0
   20.6319  -18.1081  -18.1596 C   0  0  0  0  0  0  0  0  0  0  0  0
   21.4543  -18.5668  -16.9895 C   0  0  0  0  0  0  0  0  0  0  0  0
   22.8977  -18.6236  -17.3910 C   0  0  0  0  0  0  0  0  0  0  0  0
   23.8231  -19.0394  -16.2653 C   0  0  2  0  0  0  0  0  0  0  0  0
   25.0336  -19.6066  -16.7672 N   0  0  0  0  0  0  0  0  0  0  0  0
   23.0418  -20.0471  -15.4657 C   0  0  0  0  0  0  0  0  0  0  0  0
   22.6132  -21.1065  -16.0290 O   0  0  0  0  0  0  0  0  0  0  0  0
   16.9799  -17.3039  -16.7717 N   0  0  0  0  0  0  0  0  0  0  0  0
   26.7712  -22.0315  -11.7613 C   0  0  0  0  0  0  0  0  0  0  0  0
   26.9476  -20.6263  -11.5564 N   0  0  0  0  0  0  0  0  0  0  0  0
   27.9455  -20.0133  -12.0440 N   0  0  0  0  0  0  0  0  0  0  0  0
   25.9779  -19.9443  -10.7943 C   0  0  0  0  0  0  0  0  0  0  0  0
   24.7632  -20.6478  -10.3193 C   0  0  0  0  0  0  0  0  0  0  0  0
   24.0560  -21.2001  -11.5008 C   0  0  0  0  0  0  0  0  0  0  0  0
   22.8222  -20.5708  -11.9306 C   0  0  2  0  0  0  0  0  0  0  0  0
   22.1633  -20.8273  -13.2422 N   0  0  0  0  0  0  0  0  0  0  0  0
   22.8142  -19.7768  -14.1167 C   0  0  0  0  0  0  0  0  0  0  0  0
   20.7433  -20.3927  -13.2266 O   0  0  0  0  0  0  0  0  0  0  0  0
   20.3264  -19.2324  -13.3850 O   0  0  0  0  0  0  0  0  0  0  0  0
  1  2  1  0
  2  3  1  0
  4  3  1  0
  5  4  1  0
  5  6  1  6
  7  8  2  0
  7  5  1  0
  9 10  1  0
 10 12  1  0
 11 10  2  0
 12 13  1  0
 13 14  1  0
 14 15  1  0
 16 15  1  6
 16 17  1  0
 17  7  1  0
 18 19  2  0
 18 16  1  0
 20 21  1  0
 21 22  2  0
 23 21  1  0
 23 24  1  0
 24 25  1  0
 25 26  1  0
 27 26  1  6
 27 28  1  0
 28 18  1  0
 29 27  1  0
 30 29  2  0
 31 29  1  0
M  END
$$$$
