MRR.pdb
     RDKit          3D

 31 30  0  0  1  0  0  0  0  0999 V2000
   29.9814  -18.7171   -4.9582 C   0  0  0  0  0  0  0  0  0  0  0  0
   28.2500  -18.7742   -4.3748 S   0  0  0  0  0  0  0  0  0  0  0  0
   27.4193  -20.0783   -5.3437 C   0  0  0  0  0  0  0  0  0  0  0  0
   27.3188  -19.7130   -6.7876 C   0  0  0  0  0  0  0  0  0  0  0  0
   25.9037  -19.6262   -7.3106 C   0  0  2  0  0  0  0  0  0  0  0  0
   25.2137  -20.7961   -6.8162 N   0  0  0  0  0  0  0  0  0  0  0  0
   25.9562  -19.6418   -8.8025 C   0  0  0  0  0  0  0  0  0  0  0  0
   26.5323  -18.7434   -9.4622 O   0  0  0  0  0  0  0  0  0  0  0  0
   29.2169  -21.4351  -14.8512 N   0  0  0  0  0  0  0  0  0  0  0  0
   29.3528  -22.2482  -13.7014 C   0  0  0  0  0  0  0  0  0  0  0  0
   30.5137  -22.5125  -13.2284 N   0  0  0  0  0  0  0  0  0  0  0  0
   28.2113  -22.7795  -13.0601 N   0  0  0  0  0  0  0  0  0  0  0  0
   26.9223  -22.6226  -13.6772 C   0  0  0  0  0  0  0  0  0  0  0  0
   26.1793  -21.4659  -13.0725 C   0  0  0  0  0  0  0  0  0  0  0  0
   25.9331  -21.7411  -11.6193 C   0  0  0  0  0  0  0  0  0  0  0  0
   25.1909  -20.6267  -10.9096 C   0  0  2  0  0  0  0  0  0  0  0  0
   25.3158  -20.7369   -9.4915 N   0  0  0  0  0  0  0  0  0  0  0  0
   23.7565  -20.7722  -11.3415 C   0  0  0  0  0  0  0  0  0  0  0  0
   22.9951  -21.5973  -10.7393 O   0  0  0  0  0  0  0  0  0  0  0  0
   30.6655  -23.1572  -12.4285 N   0  0  0  0  0  0  0  0  0  0  0  0
   22.1483  -19.0869  -19.4213 C   0  0  0  0  0  0  0  0  0  0  0  0
   21.8611  -18.1144  -18.4117 N   0  0  0  0  0  0  0  0  0  0  0  0
   21.8782  -16.8732  -18.6737 N   0  0  0  0  0  0  0  0  0  0  0  0
   21.5594  -18.5790  -17.1157 C   0  0  0  0  0  0  0  0  0  0  0  0
   21.4617  -20.0319  -16.8413 C   0  0  0  0  0  0  0  0  0  0  0  0
   21.1022  -20.2103  -15.4129 C   0  0  0  0  0  0  0  0  0  0  0  0
   22.1394  -20.0617  -14.4103 C   0  0  1  0  0  0  0  0  0  0  0  0
   21.9097  -20.1812  -12.9429 N   0  0  0  0  0  0  0  0  0  0  0  0
   23.3098  -19.9842  -12.4018 C   0  0  0  0  0  0  0  0  0  0  0  0
   21.6137  -21.5842  -12.5558 O   0  0  0  0  0  0  0  0  0  0  0  0
   22.3923  -22.5500  -12.6352 O   0  0  0  0  0  0  0  0  0  0  0  0
  1  2  1  0
  2  3  1  0
  4  3  1  0
  5  4  1  0
  5  6  1  1
  7  8  2  0
  7  5  1  0
  9 10  1  0
 10 12  1  0
 11 10  2  0
 12 13  1  0
 13 14  1  0
 14 15  1  0
 16 15  1  6
 16 17  1  0
 17  7  1  0
 18 19  2  0
 18 16  1  0
 20 21  1  0
 21 22  2  0
 23 21  1  0
 23 24  1  0
 24 25  1  0
 25 26  1  0
 27 26  1  1
 27 28  1  0
 28 18  1  0
 29 27  1  0
 30 29  2  0
 31 29  1  0
M  END
$$$$
