MRR.pdb
     RDKit          3D

 31 30  0  0  1  0  0  0  0  0999 V2000
   22.4209  -22.8622  -15.0814 C   0  0  0  0  0  0  0  0  0  0  0  0
   20.7232  -23.1354  -14.4611 S   0  0  0  0  0  0  0  0  0  0  0  0
   20.7594  -22.7702  -12.6737 C   0  0  0  0  0  0  0  0  0  0  0  0
   21.4957  -21.5043  -12.3844 C   0  0  0  0  0  0  0  0  0  0  0  0
   22.3341  -21.5453  -11.1279 C   0  0  2  0  0  0  0  0  0  0  0  0
   21.5524  -20.9042  -10.0949 N   0  0  0  0  0  0  0  0  0  0  0  0
   23.5918  -20.7819  -11.3813 C   0  0  0  0  0  0  0  0  0  0  0  0
   23.6303  -19.5279  -11.3604 O   0  0  0  0  0  0  0  0  0  0  0  0
   31.8750  -22.9349  -10.2444 N   0  0  0  0  0  0  0  0  0  0  0  0
   30.9440  -22.2216   -9.4529 C   0  0  0  0  0  0  0  0  0  0  0  0
   31.1193  -22.1107   -8.1886 N   0  0  0  0  0  0  0  0  0  0  0  0
   29.8095  -21.6229  -10.0454 N   0  0  0  0  0  0  0  0  0  0  0  0
   29.6690  -21.6475  -11.4759 C   0  0  0  0  0  0  0  0  0  0  0  0
   28.4940  -20.8190  -11.9103 C   0  0  0  0  0  0  0  0  0  0  0  0
   27.2254  -21.5406  -11.5669 C   0  0  0  0  0  0  0  0  0  0  0  0
   25.9729  -20.7795  -11.9520 C   0  0  2  0  0  0  0  0  0  0  0  0
   24.7946  -21.5306  -11.6581 N   0  0  0  0  0  0  0  0  0  0  0  0
   26.1033  -20.5299  -13.4305 C   0  0  0  0  0  0  0  0  0  0  0  0
   25.8695  -21.4733  -14.2543 O   0  0  0  0  0  0  0  0  0  0  0  0
   30.4513  -21.6160   -7.5661 N   0  0  0  0  0  0  0  0  0  0  0  0
   25.6571  -14.4577  -17.7099 C   0  0  0  0  0  0  0  0  0  0  0  0
   25.7617  -14.1453  -16.3174 N   0  0  0  0  0  0  0  0  0  0  0  0
   24.8844  -13.4359  -15.7374 N   0  0  0  0  0  0  0  0  0  0  0  0
   26.8714  -14.6499  -15.6101 C   0  0  0  0  0  0  0  0  0  0  0  0
   27.9355  -15.4012  -16.3167 C   0  0  0  0  0  0  0  0  0  0  0  0
   27.4824  -16.8047  -16.4779 C   0  0  0  0  0  0  0  0  0  0  0  0
   27.0197  -17.5257  -15.3078 C   0  0  1  0  0  0  0  0  0  0  0  0
   26.5474  -18.9387  -15.3266 N   0  0  0  0  0  0  0  0  0  0  0  0
   26.4810  -19.2539  -13.8473 C   0  0  0  0  0  0  0  0  0  0  0  0
   27.6138  -19.8576  -15.7999 O   0  0  0  0  0  0  0  0  0  0  0  0
   27.5493  -20.6171  -16.7818 O   0  0  0  0  0  0  0  0  0  0  0  0
  1  2  1  0
  2  3  1  0
  4  3  1  0
  5  4  1  0
  5  6  1  1
  7  8  2  0
  7  5  1  0
  9 10  1  0
 10 12  1  0
 11 10  2  0
 12 13  1  0
 13 14  1  0
 14 15  1  0
 16 15  1  6
 16 17  1  0
 17  7  1  0
 18 19  2  0
 18 16  1  0
 20 21  1  0
 21 22  2  0
 23 21  1  0
 23 24  1  0
 24 25  1  0
 25 26  1  0
 27 26  1  1
 27 28  1  0
 28 18  1  0
 29 27  1  0
 30 29  2  0
 31 29  1  0
M  END
$$$$
