MRR.pdb
     RDKit          3D

 31 30  0  0  1  0  0  0  0  0999 V2000
   31.2686  -20.6895   -7.3753 C   0  0  0  0  0  0  0  0  0  0  0  0
   32.5482  -21.6241   -8.2867 S   0  0  0  0  0  0  0  0  0  0  0  0
   31.9283  -21.8246   -9.9911 C   0  0  0  0  0  0  0  0  0  0  0  0
   30.6485  -21.0858  -10.2028 C   0  0  0  0  0  0  0  0  0  0  0  0
   29.5657  -21.8971  -10.8757 C   0  0  2  0  0  0  0  0  0  0  0  0
   30.2398  -22.9148  -11.6496 N   0  0  0  0  0  0  0  0  0  0  0  0
   28.7900  -20.9881  -11.7705 C   0  0  0  0  0  0  0  0  0  0  0  0
   28.1125  -20.0295  -11.3275 O   0  0  0  0  0  0  0  0  0  0  0  0
   30.4697  -18.4517  -18.8770 N   0  0  0  0  0  0  0  0  0  0  0  0
   29.2890  -17.6747  -18.8111 C   0  0  0  0  0  0  0  0  0  0  0  0
   29.2671  -16.4876  -19.2926 N   0  0  0  0  0  0  0  0  0  0  0  0
   28.1198  -18.1967  -18.2138 N   0  0  0  0  0  0  0  0  0  0  0  0
   28.1287  -19.5441  -17.7127 C   0  0  0  0  0  0  0  0  0  0  0  0
   27.5296  -19.6049  -16.3368 C   0  0  0  0  0  0  0  0  0  0  0  0
   28.4603  -20.3452  -15.4238 C   0  0  0  0  0  0  0  0  0  0  0  0
   27.9347  -20.4879  -14.0097 C   0  0  2  0  0  0  0  0  0  0  0  0
   28.8336  -21.2374  -13.1918 N   0  0  0  0  0  0  0  0  0  0  0  0
   26.6125  -21.1928  -14.1507 C   0  0  0  0  0  0  0  0  0  0  0  0
   26.5850  -22.4402  -14.4087 O   0  0  0  0  0  0  0  0  0  0  0  0
   28.4292  -15.8756  -19.2508 N   0  0  0  0  0  0  0  0  0  0  0  0
   19.2093  -19.9652  -10.3479 C   0  0  0  0  0  0  0  0  0  0  0  0
   19.6566  -21.2945  -10.6315 N   0  0  0  0  0  0  0  0  0  0  0  0
   18.8625  -22.2815  -10.5629 N   0  0  0  0  0  0  0  0  0  0  0  0
   21.0082  -21.4732  -10.9885 C   0  0  0  0  0  0  0  0  0  0  0  0
   21.9260  -20.3123  -11.0643 C   0  0  0  0  0  0  0  0  0  0  0  0
   22.4268  -20.2080  -12.4570 C   0  0  0  0  0  0  0  0  0  0  0  0
   23.5111  -21.0760  -12.8737 C   0  0  1  0  0  0  0  0  0  0  0  0
   24.1017  -21.0815  -14.2417 N   0  0  0  0  0  0  0  0  0  0  0  0
   25.4497  -20.4399  -13.9904 C   0  0  0  0  0  0  0  0  0  0  0  0
   23.4353  -20.0873  -15.1209 O   0  0  0  0  0  0  0  0  0  0  0  0
   23.7862  -18.9079  -15.2973 O   0  0  0  0  0  0  0  0  0  0  0  0
  1  2  1  0
  2  3  1  0
  4  3  1  0
  5  4  1  0
  5  6  1  6
  7  8  2  0
  7  5  1  0
  9 10  1  0
 10 12  1  0
 11 10  2  0
 12 13  1  0
 13 14  1  0
 14 15  1  0
 16 15  1  6
 16 17  1  0
 17  7  1  0
 18 19  2  0
 18 16  1  0
 20 21  1  0
 21 22  2  0
 23 21  1  0
 23 24  1  0
 24 25  1  0
 25 26  1  0
 27 26  1  1
 27 28  1  0
 28 18  1  0
 29 27  1  0
 30 29  2  0
 31 29  1  0
M  END
$$$$
