MRR.pdb
     RDKit          3D

 31 30  0  0  1  0  0  0  0  0999 V2000
   26.7852  -15.6690  -19.0730 C   0  0  0  0  0  0  0  0  0  0  0  0
   28.3133  -15.6974  -18.0701 S   0  0  0  0  0  0  0  0  0  0  0  0
   28.7181  -17.4548  -17.7919 C   0  0  0  0  0  0  0  0  0  0  0  0
   27.5204  -18.2351  -17.3619 C   0  0  0  0  0  0  0  0  0  0  0  0
   27.7870  -19.7032  -17.1231 C   0  0  2  0  0  0  0  0  0  0  0  0
   28.1433  -20.2670  -18.4054 N   0  0  0  0  0  0  0  0  0  0  0  0
   26.5324  -20.3273  -16.6081 C   0  0  0  0  0  0  0  0  0  0  0  0
   25.5919  -20.6655  -17.3666 O   0  0  0  0  0  0  0  0  0  0  0  0
   26.3071  -20.6316   -8.3935 N   0  0  0  0  0  0  0  0  0  0  0  0
   25.0819  -20.9996   -8.9981 C   0  0  0  0  0  0  0  0  0  0  0  0
   23.9807  -20.8825   -8.3539 N   0  0  0  0  0  0  0  0  0  0  0  0
   25.0565  -21.5011  -10.3188 N   0  0  0  0  0  0  0  0  0  0  0  0
   26.2790  -21.5546  -11.0734 C   0  0  0  0  0  0  0  0  0  0  0  0
   26.1286  -20.8354  -12.3833 C   0  0  0  0  0  0  0  0  0  0  0  0
   25.3424  -21.6914  -13.3305 C   0  0  0  0  0  0  0  0  0  0  0  0
   25.1838  -21.0810  -14.7084 C   0  0  2  0  0  0  0  0  0  0  0  0
   26.4166  -20.5407  -15.1850 N   0  0  0  0  0  0  0  0  0  0  0  0
   24.1459  -20.0036  -14.5444 C   0  0  0  0  0  0  0  0  0  0  0  0
   24.4326  -18.9415  -13.9017 O   0  0  0  0  0  0  0  0  0  0  0  0
   23.0539  -21.0846   -8.7764 N   0  0  0  0  0  0  0  0  0  0  0  0
   20.6163  -17.8177  -21.2608 C   0  0  0  0  0  0  0  0  0  0  0  0
   21.7075  -18.3434  -20.4988 N   0  0  0  0  0  0  0  0  0  0  0  0
   22.7633  -18.7584  -21.0668 N   0  0  0  0  0  0  0  0  0  0  0  0
   21.5720  -18.3869  -19.0967 C   0  0  0  0  0  0  0  0  0  0  0  0
   20.3590  -17.8441  -18.4410 C   0  0  0  0  0  0  0  0  0  0  0  0
   20.5051  -18.0236  -16.9755 C   0  0  0  0  0  0  0  0  0  0  0  0
   21.5720  -18.8723  -16.4810 C   0  0  1  0  0  0  0  0  0  0  0  0
   21.8422  -19.1234  -15.0374 N   0  0  0  0  0  0  0  0  0  0  0  0
   22.8897  -20.2139  -15.1122 C   0  0  0  0  0  0  0  0  0  0  0  0
   20.7028  -19.8211  -14.3888 O   0  0  0  0  0  0  0  0  0  0  0  0
   20.5552  -21.0509  -14.2843 O   0  0  0  0  0  0  0  0  0  0  0  0
  1  2  1  0
  2  3  1  0
  4  3  1  0
  5  4  1  0
  5  6  1  6
  7  8  2  0
  7  5  1  0
  9 10  1  0
 10 12  1  0
 11 10  2  0
 12 13  1  0
 13 14  1  0
 14 15  1  0
 16 15  1  1
 16 17  1  0
 17  7  1  0
 18 19  2  0
 18 16  1  0
 20 21  1  0
 21 22  2  0
 23 21  1  0
 23 24  1  0
 24 25  1  0
 25 26  1  0
 27 26  1  6
 27 28  1  0
 28 18  1  0
 29 27  1  0
 30 29  2  0
 31 29  1  0
M  END
$$$$
