MRR.pdb
     RDKit          3D

 31 30  0  0  1  0  0  0  0  0999 V2000
   28.3477  -20.8756   -4.7031 C   0  0  0  0  0  0  0  0  0  0  0  0
   28.8628  -19.5523   -5.8542 S   0  0  0  0  0  0  0  0  0  0  0  0
   27.4992  -19.3446   -7.0488 C   0  0  0  0  0  0  0  0  0  0  0  0
   26.7494  -20.6186   -7.2566 C   0  0  0  0  0  0  0  0  0  0  0  0
   25.5548  -20.4952   -8.1738 C   0  0  2  0  0  0  0  0  0  0  0  0
   24.9574  -21.8094   -8.2446 N   0  0  0  0  0  0  0  0  0  0  0  0
   26.0419  -20.0692   -9.5191 C   0  0  0  0  0  0  0  0  0  0  0  0
   26.4681  -18.9102   -9.7416 O   0  0  0  0  0  0  0  0  0  0  0  0
   27.3511  -21.8936  -17.8897 N   0  0  0  0  0  0  0  0  0  0  0  0
   28.3144  -22.3883  -16.9790 C   0  0  0  0  0  0  0  0  0  0  0  0
   28.6968  -23.6095  -17.0404 N   0  0  0  0  0  0  0  0  0  0  0  0
   28.8666  -21.5432  -15.9904 N   0  0  0  0  0  0  0  0  0  0  0  0
   28.6545  -21.8538  -14.6028 C   0  0  0  0  0  0  0  0  0  0  0  0
   27.5466  -21.0152  -14.0325 C   0  0  0  0  0  0  0  0  0  0  0  0
   27.3829  -21.3349  -12.5768 C   0  0  0  0  0  0  0  0  0  0  0  0
   26.2675  -20.5571  -11.9081 C   0  0  2  0  0  0  0  0  0  0  0  0
   26.0136  -21.0390  -10.5882 N   0  0  0  0  0  0  0  0  0  0  0  0
   25.0675  -20.7480  -12.7961 C   0  0  0  0  0  0  0  0  0  0  0  0
   24.4081  -21.8368  -12.7431 O   0  0  0  0  0  0  0  0  0  0  0  0
   29.2623  -24.0633  -16.2969 N   0  0  0  0  0  0  0  0  0  0  0  0
   20.7600  -15.7932  -17.5962 C   0  0  0  0  0  0  0  0  0  0  0  0
   19.6890  -16.6194  -17.1293 N   0  0  0  0  0  0  0  0  0  0  0  0
   18.6338  -16.7746  -17.8163 N   0  0  0  0  0  0  0  0  0  0  0  0
   19.8427  -17.2549  -15.8808 C   0  0  0  0  0  0  0  0  0  0  0  0
   21.0715  -17.0495  -15.0784 C   0  0  0  0  0  0  0  0  0  0  0  0
   22.1528  -17.8773  -15.6671 C   0  0  0  0  0  0  0  0  0  0  0  0
   23.2159  -18.3515  -14.8023 C   0  0  1  0  0  0  0  0  0  0  0  0
   23.4200  -19.7800  -14.4313 N   0  0  0  0  0  0  0  0  0  0  0  0
   24.7188  -19.7075  -13.6567 C   0  0  0  0  0  0  0  0  0  0  0  0
   23.7999  -20.5953  -15.6131 O   0  0  0  0  0  0  0  0  0  0  0  0
   24.9385  -20.6994  -16.1009 O   0  0  0  0  0  0  0  0  0  0  0  0
  1  2  1  0
  2  3  1  0
  4  3  1  0
  5  4  1  0
  5  6  1  6
  7  8  2  0
  7  5  1  0
  9 10  1  0
 10 12  1  0
 11 10  2  0
 12 13  1  0
 13 14  1  0
 14 15  1  0
 16 15  1  6
 16 17  1  0
 17  7  1  0
 18 19  2  0
 18 16  1  0
 20 21  1  0
 21 22  2  0
 23 21  1  0
 23 24  1  0
 24 25  1  0
 25 26  1  0
 27 26  1  1
 27 28  1  0
 28 18  1  0
 29 27  1  0
 30 29  2  0
 31 29  1  0
M  END
$$$$
