MRR.pdb
     RDKit          3D

 31 30  0  0  1  0  0  0  0  0999 V2000
   29.5079  -20.3757   -4.5573 C   0  0  0  0  0  0  0  0  0  0  0  0
   29.0657  -19.5058   -6.1030 S   0  0  0  0  0  0  0  0  0  0  0  0
   27.5353  -20.2867   -6.7176 C   0  0  0  0  0  0  0  0  0  0  0  0
   27.1113  -19.7124   -8.0286 C   0  0  0  0  0  0  0  0  0  0  0  0
   25.7332  -20.1388   -8.4783 C   0  0  2  0  0  0  0  0  0  0  0  0
   25.6223  -21.5473   -8.1735 N   0  0  0  0  0  0  0  0  0  0  0  0
   25.6324  -19.9131   -9.9506 C   0  0  0  0  0  0  0  0  0  0  0  0
   25.7000  -18.7681  -10.4592 O   0  0  0  0  0  0  0  0  0  0  0  0
   28.6173  -21.2915  -17.2726 N   0  0  0  0  0  0  0  0  0  0  0  0
   28.0341  -22.4595  -16.7272 C   0  0  0  0  0  0  0  0  0  0  0  0
   27.7825  -23.4682  -17.4760 N   0  0  0  0  0  0  0  0  0  0  0  0
   27.7212  -22.5291  -15.3511 N   0  0  0  0  0  0  0  0  0  0  0  0
   27.9508  -21.3789  -14.5197 C   0  0  0  0  0  0  0  0  0  0  0  0
   27.5994  -21.6761  -13.0901 C   0  0  0  0  0  0  0  0  0  0  0  0
   26.1224  -21.9098  -12.9817 C   0  0  0  0  0  0  0  0  0  0  0  0
   25.3937  -20.8291  -12.2088 C   0  0  2  0  0  0  0  0  0  0  0  0
   25.4509  -21.0649  -10.8017 N   0  0  0  0  0  0  0  0  0  0  0  0
   23.9753  -20.8754  -12.7100 C   0  0  0  0  0  0  0  0  0  0  0  0
   23.1450  -21.6866  -12.1849 O   0  0  0  0  0  0  0  0  0  0  0  0
   27.2989  -24.3208  -17.1330 N   0  0  0  0  0  0  0  0  0  0  0  0
   17.9490  -19.1519  -15.8974 C   0  0  0  0  0  0  0  0  0  0  0  0
   17.7413  -17.7413  -15.7771 N   0  0  0  0  0  0  0  0  0  0  0  0
   16.5803  -17.2630  -15.5963 N   0  0  0  0  0  0  0  0  0  0  0  0
   18.8677  -16.8990  -15.8671 C   0  0  0  0  0  0  0  0  0  0  0  0
   20.2237  -17.4720  -16.0376 C   0  0  0  0  0  0  0  0  0  0  0  0
   20.6571  -18.0321  -14.7339 C   0  0  0  0  0  0  0  0  0  0  0  0
   21.9735  -18.6326  -14.6373 C   0  0  2  0  0  0  0  0  0  0  0  0
   22.2188  -20.0672  -14.3182 N   0  0  0  0  0  0  0  0  0  0  0  0
   23.6199  -20.0135  -13.7471 C   0  0  0  0  0  0  0  0  0  0  0  0
   22.4097  -20.8695  -15.5533 O   0  0  0  0  0  0  0  0  0  0  0  0
   23.4348  -20.9086  -16.2552 O   0  0  0  0  0  0  0  0  0  0  0  0
  1  2  1  0
  2  3  1  0
  4  3  1  0
  5  4  1  0
  5  6  1  6
  7  8  2  0
  7  5  1  0
  9 10  1  0
 10 12  1  0
 11 10  2  0
 12 13  1  0
 13 14  1  0
 14 15  1  0
 16 15  1  6
 16 17  1  0
 17  7  1  0
 18 19  2  0
 18 16  1  0
 20 21  1  0
 21 22  2  0
 23 21  1  0
 23 24  1  0
 24 25  1  0
 25 26  1  0
 27 26  1  1
 27 28  1  0
 28 18  1  0
 29 27  1  0
 30 29  2  0
 31 29  1  0
M  END
$$$$
