VIF.pdb
     RDKit          3D

 27 27  0  0  1  0  0  0  0  0999 V2000
   25.8078  -17.9401  -16.0586 C   0  0  0  0  0  0  0  0  0  0  0  0
   26.9906  -17.7996  -15.1198 C   0  0  2  0  0  0  0  0  0  0  0  0
   28.0099  -16.8494  -15.7105 C   0  0  0  0  0  0  0  0  0  0  0  0
   27.5978  -19.1478  -14.7962 C   0  0  2  0  0  0  0  0  0  0  0  0
   28.2139  -19.7709  -15.9169 N   0  0  0  0  0  0  0  0  0  0  0  0
   26.5325  -19.9759  -14.1720 C   0  0  0  0  0  0  0  0  0  0  0  0
   25.9096  -20.8317  -14.8528 O   0  0  0  0  0  0  0  0  0  0  0  0
   27.0430  -20.8681   -8.8334 C   0  0  0  0  0  0  0  0  0  0  0  0
   26.7626  -21.0766  -10.2860 C   0  0  0  0  0  0  0  0  0  0  0  0
   25.3717  -20.6722  -10.7003 C   0  0  2  0  0  0  0  0  0  0  0  0
   24.3731  -21.4497   -9.9082 C   0  0  0  0  0  0  0  0  0  0  0  0
   25.1841  -20.7291  -12.1768 C   0  0  2  0  0  0  0  0  0  0  0  0
   26.1588  -19.8558  -12.7993 N   0  0  0  0  0  0  0  0  0  0  0  0
   23.8199  -20.1612  -12.4750 C   0  0  0  0  0  0  0  0  0  0  0  0
   23.5407  -18.9675  -12.2020 O   0  0  0  0  0  0  0  0  0  0  0  0
   22.8018  -20.9419  -13.0708 N   0  0  0  0  0  0  0  0  0  0  0  0
   21.5031  -20.3472  -13.3592 C   0  0  1  0  0  0  0  0  0  0  0  0
   21.4925  -19.6256  -14.6552 C   0  0  0  0  0  0  0  0  0  0  0  0
   21.7546  -20.5524  -15.7740 C   0  0  0  0  0  0  0  0  0  0  0  0
   20.7841  -21.3753  -16.3274 C   0  0  0  0  0  0  0  0  0  0  0  0
   21.0153  -22.2361  -17.3696 C   0  0  0  0  0  0  0  0  0  0  0  0
   22.2770  -22.3126  -17.9233 C   0  0  0  0  0  0  0  0  0  0  0  0
   23.2560  -21.5109  -17.3965 C   0  0  0  0  0  0  0  0  0  0  0  0
   23.0272  -20.6459  -16.3505 C   0  0  0  0  0  0  0  0  0  0  0  0
   20.4792  -21.3938  -13.2793 C   0  0  0  0  0  0  0  0  0  0  0  0
   19.1409  -21.0685  -13.3495 O   0  0  0  0  0  0  0  0  0  0  0  0
   20.7924  -22.5882  -13.1476 O   0  0  0  0  0  0  0  0  0  0  0  0
  2  1  1  6
  3  2  1  0
  4  2  1  0
  4  6  1  0
  4  5  1  6
  6  7  2  0
  6 13  1  0
  8  9  1  0
  9 10  1  0
 10 12  1  0
 10 11  1  1
 12 14  1  0
 12 13  1  6
 14 15  2  0
 14 16  1  0
 16 17  1  0
 17 25  1  0
 17 18  1  6
 19 18  1  0
 19 20  2  0
 21 20  1  0
 22 21  2  0
 23 24  2  0
 23 22  1  0
 24 19  1  0
 25 26  1  0
 27 25  2  0
M  END
$$$$
