VIF.pdb
     RDKit          3D

 27 27  0  0  1  0  0  0  0  0999 V2000
   29.0222   -7.3357  -19.5344 C   0  0  0  0  0  0  0  0  0  0  0  0
   29.9088   -7.8300  -18.4076 C   0  0  2  0  0  0  0  0  0  0  0  0
   31.2177   -7.0699  -18.4078 C   0  0  0  0  0  0  0  0  0  0  0  0
   30.1252   -9.3255  -18.4949 C   0  0  2  0  0  0  0  0  0  0  0  0
   30.8343   -9.7241  -19.6621 N   0  0  0  0  0  0  0  0  0  0  0  0
   28.7946   -9.9749  -18.3618 C   0  0  0  0  0  0  0  0  0  0  0  0
   28.1627  -10.3484  -19.3842 O   0  0  0  0  0  0  0  0  0  0  0  0
   27.7888  -14.1471  -15.5447 C   0  0  0  0  0  0  0  0  0  0  0  0
   27.7094  -13.0040  -16.5033 C   0  0  0  0  0  0  0  0  0  0  0  0
   26.8349  -11.8727  -16.0286 C   0  0  2  0  0  0  0  0  0  0  0  0
   25.4891  -12.4064  -15.6636 C   0  0  0  0  0  0  0  0  0  0  0  0
   26.8198  -10.7316  -16.9857 C   0  0  2  0  0  0  0  0  0  0  0  0
   28.1665  -10.2090  -17.1013 N   0  0  0  0  0  0  0  0  0  0  0  0
   25.9703   -9.6474  -16.3732 C   0  0  0  0  0  0  0  0  0  0  0  0
   26.2557   -9.1547  -15.2537 O   0  0  0  0  0  0  0  0  0  0  0  0
   24.8229   -9.1408  -17.0274 N   0  0  0  0  0  0  0  0  0  0  0  0
   23.9687   -8.1717  -16.3530 C   0  0  1  0  0  0  0  0  0  0  0  0
   24.3271   -6.7739  -16.6968 C   0  0  0  0  0  0  0  0  0  0  0  0
   23.3388   -5.8275  -16.1427 C   0  0  0  0  0  0  0  0  0  0  0  0
   23.4419   -5.2696  -14.8764 C   0  0  0  0  0  0  0  0  0  0  0  0
   22.5327   -4.3860  -14.3539 C   0  0  0  0  0  0  0  0  0  0  0  0
   21.4390   -4.0089  -15.1062 C   0  0  0  0  0  0  0  0  0  0  0  0
   21.3111   -4.5445  -16.3614 C   0  0  0  0  0  0  0  0  0  0  0  0
   22.2219   -5.4316  -16.8888 C   0  0  0  0  0  0  0  0  0  0  0  0
   22.5691   -8.4926  -16.6499 C   0  0  0  0  0  0  0  0  0  0  0  0
   22.2217   -9.0455  -17.8645 O   0  0  0  0  0  0  0  0  0  0  0  0
   21.6716   -8.2749  -15.8197 O   0  0  0  0  0  0  0  0  0  0  0  0
  2  1  1  6
  3  2  1  0
  4  2  1  0
  4  6  1  0
  4  5  1  6
  6  7  2  0
  6 13  1  0
  8  9  1  0
  9 10  1  0
 10 12  1  0
 10 11  1  6
 12 14  1  0
 12 13  1  1
 14 15  2  0
 14 16  1  0
 16 17  1  0
 17 25  1  0
 17 18  1  6
 19 18  1  0
 19 20  2  0
 21 20  1  0
 22 21  2  0
 23 24  2  0
 23 22  1  0
 24 19  1  0
 25 26  1  0
 27 25  2  0
M  END
$$$$
