VIF.pdb
     RDKit          3D

 27 27  0  0  1  0  0  0  0  0999 V2000
   20.7360  -15.1612  -20.6345 C   0  0  0  0  0  0  0  0  0  0  0  0
   21.7472  -15.3885  -19.5274 C   0  0  2  0  0  0  0  0  0  0  0  0
   22.1385  -16.8497  -19.4762 C   0  0  0  0  0  0  0  0  0  0  0  0
   21.2220  -14.8984  -18.1950 C   0  0  2  0  0  0  0  0  0  0  0  0
   20.1256  -15.6624  -17.7072 N   0  0  0  0  0  0  0  0  0  0  0  0
   20.9137  -13.4518  -18.3446 C   0  0  0  0  0  0  0  0  0  0  0  0
   21.7856  -12.6562  -18.7814 O   0  0  0  0  0  0  0  0  0  0  0  0
   16.2007  -11.0810  -16.6009 C   0  0  0  0  0  0  0  0  0  0  0  0
   17.0540  -12.0283  -17.3796 C   0  0  0  0  0  0  0  0  0  0  0  0
   17.8650  -11.3655  -18.4625 C   0  0  2  0  0  0  0  0  0  0  0  0
   17.3984  -11.8478  -19.7964 C   0  0  0  0  0  0  0  0  0  0  0  0
   19.3303  -11.4909  -18.2265 C   0  0  2  0  0  0  0  0  0  0  0  0
   19.6446  -12.8892  -18.0113 N   0  0  0  0  0  0  0  0  0  0  0  0
   19.6394  -10.7606  -16.9445 C   0  0  0  0  0  0  0  0  0  0  0  0
   19.3959  -11.2803  -15.8274 O   0  0  0  0  0  0  0  0  0  0  0  0
   20.2129   -9.4675  -16.9433 N   0  0  0  0  0  0  0  0  0  0  0  0
   20.4747   -8.7884  -15.6808 C   0  0  1  0  0  0  0  0  0  0  0  0
   21.9264   -8.6294  -15.4205 C   0  0  0  0  0  0  0  0  0  0  0  0
   22.2053   -7.3291  -14.7797 C   0  0  0  0  0  0  0  0  0  0  0  0
   22.1036   -7.1137  -13.4128 C   0  0  0  0  0  0  0  0  0  0  0  0
   22.3649   -5.9117  -12.8067 C   0  0  0  0  0  0  0  0  0  0  0  0
   22.7542   -4.8323  -13.5733 C   0  0  0  0  0  0  0  0  0  0  0  0
   22.8629   -5.0158  -14.9272 C   0  0  0  0  0  0  0  0  0  0  0  0
   22.6014   -6.2210  -15.5386 C   0  0  0  0  0  0  0  0  0  0  0  0
   19.7499   -7.5138  -15.6740 C   0  0  0  0  0  0  0  0  0  0  0  0
   19.1896   -7.0350  -14.5085 O   0  0  0  0  0  0  0  0  0  0  0  0
   19.6253   -6.8418  -16.7109 O   0  0  0  0  0  0  0  0  0  0  0  0
  2  1  1  6
  3  2  1  0
  4  2  1  0
  4  6  1  0
  4  5  1  6
  6  7  2  0
  6 13  1  0
  8  9  1  0
  9 10  1  0
 10 12  1  0
 10 11  1  6
 12 14  1  0
 12 13  1  1
 14 15  2  0
 14 16  1  0
 16 17  1  0
 17 25  1  0
 17 18  1  6
 19 18  1  0
 19 20  2  0
 21 20  1  0
 22 21  2  0
 23 24  2  0
 23 22  1  0
 24 19  1  0
 25 26  1  0
 27 25  2  0
M  END
$$$$
