VIF.pdb
     RDKit          3D

 27 27  0  0  1  0  0  0  0  0999 V2000
   25.4067  -22.3839  -17.8669 C   0  0  0  0  0  0  0  0  0  0  0  0
   24.6799  -21.9396  -19.1216 C   0  0  2  0  0  0  0  0  0  0  0  0
   25.1993  -22.7059  -20.3191 C   0  0  0  0  0  0  0  0  0  0  0  0
   24.7897  -20.4430  -19.3190 C   0  0  2  0  0  0  0  0  0  0  0  0
   26.1268  -19.9979  -19.5141 N   0  0  0  0  0  0  0  0  0  0  0  0
   24.1132  -19.7926  -18.1660 C   0  0  0  0  0  0  0  0  0  0  0  0
   24.7877  -19.2098  -17.2774 O   0  0  0  0  0  0  0  0  0  0  0  0
   19.9706  -16.6489  -18.9323 C   0  0  0  0  0  0  0  0  0  0  0  0
   21.1661  -17.3623  -18.3902 C   0  0  0  0  0  0  0  0  0  0  0  0
   20.8304  -18.4328  -17.3847 C   0  0  2  0  0  0  0  0  0  0  0  0
   19.9496  -17.8583  -16.3248 C   0  0  0  0  0  0  0  0  0  0  0  0
   22.0441  -19.1340  -16.8810 C   0  0  2  0  0  0  0  0  0  0  0  0
   22.6955  -19.7883  -17.9980 N   0  0  0  0  0  0  0  0  0  0  0  0
   21.5762  -20.2151  -15.9404 C   0  0  0  0  0  0  0  0  0  0  0  0
   20.8732  -21.1716  -16.3505 O   0  0  0  0  0  0  0  0  0  0  0  0
   21.9058  -20.2000  -14.5648 N   0  0  0  0  0  0  0  0  0  0  0  0
   21.4340  -21.2668  -13.6914 C   0  0  1  0  0  0  0  0  0  0  0  0
   22.5169  -21.8106  -12.8358 C   0  0  0  0  0  0  0  0  0  0  0  0
   23.6059  -22.3706  -13.6603 C   0  0  0  0  0  0  0  0  0  0  0  0
   24.6974  -21.6294  -14.0897 C   0  0  0  0  0  0  0  0  0  0  0  0
   25.7167  -22.1405  -14.8515 C   0  0  0  0  0  0  0  0  0  0  0  0
   25.6851  -23.4670  -15.2305 C   0  0  0  0  0  0  0  0  0  0  0  0
   24.6182  -24.2237  -14.8207 C   0  0  0  0  0  0  0  0  0  0  0  0
   23.5936  -23.7138  -14.0560 C   0  0  0  0  0  0  0  0  0  0  0  0
   20.2903  -20.7706  -12.9196 C   0  0  0  0  0  0  0  0  0  0  0  0
   19.3714  -21.6509  -12.3881 O   0  0  0  0  0  0  0  0  0  0  0  0
   20.1249  -19.5547  -12.7286 O   0  0  0  0  0  0  0  0  0  0  0  0
  2  1  1  1
  3  2  1  0
  4  2  1  0
  4  6  1  0
  4  5  1  1
  6  7  2  0
  6 13  1  0
  8  9  1  0
  9 10  1  0
 10 12  1  0
 10 11  1  1
 12 14  1  0
 12 13  1  6
 14 15  2  0
 14 16  1  0
 16 17  1  0
 17 25  1  0
 17 18  1  1
 19 18  1  0
 19 20  2  0
 21 20  1  0
 22 21  2  0
 23 24  2  0
 23 22  1  0
 24 19  1  0
 25 26  1  0
 27 25  2  0
M  END
$$$$
