VIF.pdb
     RDKit          3D

 27 27  0  0  1  0  0  0  0  0999 V2000
   26.6564  -16.0866  -13.7238 C   0  0  0  0  0  0  0  0  0  0  0  0
   27.4225  -17.1288  -14.5157 C   0  0  2  0  0  0  0  0  0  0  0  0
   28.2388  -16.4580  -15.5996 C   0  0  0  0  0  0  0  0  0  0  0  0
   26.4933  -18.1820  -15.0799 C   0  0  2  0  0  0  0  0  0  0  0  0
   25.6175  -17.6805  -16.0826 N   0  0  0  0  0  0  0  0  0  0  0  0
   25.7822  -18.8065  -13.9335 C   0  0  0  0  0  0  0  0  0  0  0  0
   24.7043  -18.3154  -13.5082 O   0  0  0  0  0  0  0  0  0  0  0  0
   23.1652  -21.8358  -14.0826 C   0  0  0  0  0  0  0  0  0  0  0  0
   24.6198  -22.1718  -14.1391 C   0  0  0  0  0  0  0  0  0  0  0  0
   25.3104  -22.1083  -12.8016 C   0  0  2  0  0  0  0  0  0  0  0  0
   24.6364  -23.0420  -11.8512 C   0  0  0  0  0  0  0  0  0  0  0  0
   25.4592  -20.7103  -12.3095 C   0  0  2  0  0  0  0  0  0  0  0  0
   26.2638  -19.9700  -13.2608 N   0  0  0  0  0  0  0  0  0  0  0  0
   26.2363  -20.7724  -11.0193 C   0  0  0  0  0  0  0  0  0  0  0  0
   27.4864  -20.6519  -11.0088 O   0  0  0  0  0  0  0  0  0  0  0  0
   25.5965  -20.9676   -9.7728 N   0  0  0  0  0  0  0  0  0  0  0  0
   26.3704  -20.9050   -8.5396 C   0  0  1  0  0  0  0  0  0  0  0  0
   27.0859  -19.6139   -8.3920 C   0  0  0  0  0  0  0  0  0  0  0  0
   27.7802  -19.5446   -7.0910 C   0  0  0  0  0  0  0  0  0  0  0  0
   27.3818  -18.7108   -6.0561 C   0  0  0  0  0  0  0  0  0  0  0  0
   28.0161  -18.6421   -4.8422 C   0  0  0  0  0  0  0  0  0  0  0  0
   29.1193  -19.4361   -4.6039 C   0  0  0  0  0  0  0  0  0  0  0  0
   29.5358  -20.2700   -5.6088 C   0  0  0  0  0  0  0  0  0  0  0  0
   28.9013  -20.3414   -6.8282 C   0  0  0  0  0  0  0  0  0  0  0  0
   25.4807  -21.1977   -7.4115 C   0  0  0  0  0  0  0  0  0  0  0  0
   25.9669  -21.8217   -6.2819 O   0  0  0  0  0  0  0  0  0  0  0  0
   24.2776  -20.8921   -7.4480 O   0  0  0  0  0  0  0  0  0  0  0  0
  2  1  1  6
  3  2  1  0
  4  2  1  0
  4  6  1  0
  4  5  1  6
  6  7  2  0
  6 13  1  0
  8  9  1  0
  9 10  1  0
 10 12  1  0
 10 11  1  1
 12 14  1  0
 12 13  1  6
 14 15  2  0
 14 16  1  0
 16 17  1  0
 17 25  1  0
 17 18  1  1
 19 18  1  0
 19 20  2  0
 21 20  1  0
 22 21  2  0
 23 24  2  0
 23 22  1  0
 24 19  1  0
 25 26  1  0
 27 25  2  0
M  END
$$$$
