VIF.pdb
     RDKit          3D

 27 27  0  0  1  0  0  0  0  0999 V2000
   24.1228  -17.2738  -15.0053 C   0  0  0  0  0  0  0  0  0  0  0  0
   25.1728  -17.1200  -16.0888 C   0  0  2  0  0  0  0  0  0  0  0  0
   24.7237  -17.8284  -17.3487 C   0  0  0  0  0  0  0  0  0  0  0  0
   26.5245  -17.6112  -15.6171 C   0  0  2  0  0  0  0  0  0  0  0  0
   27.4923  -17.6805  -16.6576 N   0  0  0  0  0  0  0  0  0  0  0  0
   26.3082  -18.9087  -14.9245 C   0  0  0  0  0  0  0  0  0  0  0  0
   26.1564  -19.9675  -15.5878 O   0  0  0  0  0  0  0  0  0  0  0  0
   28.9125  -21.1620  -12.6976 C   0  0  0  0  0  0  0  0  0  0  0  0
   28.2979  -20.1168  -11.8249 C   0  0  0  0  0  0  0  0  0  0  0  0
   26.8260  -20.3211  -11.5768 C   0  0  2  0  0  0  0  0  0  0  0  0
   26.6302  -21.5354  -10.7303 C   0  0  0  0  0  0  0  0  0  0  0  0
   26.0332  -20.2997  -12.8375 C   0  0  2  0  0  0  0  0  0  0  0  0
   26.2599  -19.0325  -13.5031 N   0  0  0  0  0  0  0  0  0  0  0  0
   24.5774  -20.3469  -12.4493 C   0  0  0  0  0  0  0  0  0  0  0  0
   24.1650  -19.7774  -11.4086 O   0  0  0  0  0  0  0  0  0  0  0  0
   23.6187  -21.0295  -13.2343 N   0  0  0  0  0  0  0  0  0  0  0  0
   22.2152  -21.0178  -12.8423 C   0  0  1  0  0  0  0  0  0  0  0  0
   21.6938  -19.6401  -12.6671 C   0  0  0  0  0  0  0  0  0  0  0  0
   20.2554  -19.6616  -12.3358 C   0  0  0  0  0  0  0  0  0  0  0  0
   19.7715  -19.7924  -11.0420 C   0  0  0  0  0  0  0  0  0  0  0  0
   18.4379  -19.8087  -10.7225 C   0  0  0  0  0  0  0  0  0  0  0  0
   17.4958  -19.6902  -11.7238 C   0  0  0  0  0  0  0  0  0  0  0  0
   17.9451  -19.5597  -13.0122 C   0  0  0  0  0  0  0  0  0  0  0  0
   19.2827  -19.5430  -13.3361 C   0  0  0  0  0  0  0  0  0  0  0  0
   21.4486  -21.7993  -13.8177 C   0  0  0  0  0  0  0  0  0  0  0  0
   20.3708  -22.5582  -13.4127 O   0  0  0  0  0  0  0  0  0  0  0  0
   21.7510  -21.7951  -15.0222 O   0  0  0  0  0  0  0  0  0  0  0  0
  2  1  1  1
  3  2  1  0
  4  2  1  0
  4  6  1  0
  4  5  1  6
  6  7  2  0
  6 13  1  0
  8  9  1  0
  9 10  1  0
 10 12  1  0
 10 11  1  6
 12 14  1  0
 12 13  1  1
 14 15  2  0
 14 16  1  0
 16 17  1  0
 17 25  1  0
 17 18  1  6
 19 18  1  0
 19 20  2  0
 21 20  1  0
 22 21  2  0
 23 24  2  0
 23 22  1  0
 24 19  1  0
 25 26  1  0
 27 25  2  0
M  END
$$$$
