VIF.pdb
     RDKit          3D

 27 27  0  0  1  0  0  0  0  0999 V2000
   26.0939  -25.8214  -15.3986 C   0  0  0  0  0  0  0  0  0  0  0  0
   24.6851  -25.5755  -15.9034 C   0  0  2  0  0  0  0  0  0  0  0  0
   24.0872  -26.8672  -16.4181 C   0  0  0  0  0  0  0  0  0  0  0  0
   24.6604  -24.4851  -16.9529 C   0  0  2  0  0  0  0  0  0  0  0  0
   25.3805  -24.8233  -18.1323 N   0  0  0  0  0  0  0  0  0  0  0  0
   25.1403  -23.2357  -16.3059 C   0  0  0  0  0  0  0  0  0  0  0  0
   26.2930  -22.7936  -16.5506 O   0  0  0  0  0  0  0  0  0  0  0  0
   22.5280  -18.9116  -16.9947 C   0  0  0  0  0  0  0  0  0  0  0  0
   23.5538  -19.9437  -16.6563 C   0  0  0  0  0  0  0  0  0  0  0  0
   23.7002  -20.1929  -15.1778 C   0  0  2  0  0  0  0  0  0  0  0  0
   23.8416  -18.8875  -14.4670 C   0  0  0  0  0  0  0  0  0  0  0  0
   24.7641  -21.1908  -14.8766 C   0  0  2  0  0  0  0  0  0  0  0  0
   24.3465  -22.4795  -15.3915 N   0  0  0  0  0  0  0  0  0  0  0  0
   24.8476  -21.3143  -13.3765 C   0  0  0  0  0  0  0  0  0  0  0  0
   23.8996  -21.8018  -12.7123 O   0  0  0  0  0  0  0  0  0  0  0  0
   25.9887  -20.8898  -12.6562 N   0  0  0  0  0  0  0  0  0  0  0  0
   25.9786  -20.9090  -11.1992 C   0  0  1  0  0  0  0  0  0  0  0  0
   27.2722  -20.4659  -10.6240 C   0  0  0  0  0  0  0  0  0  0  0  0
   27.1500  -20.2396   -9.1703 C   0  0  0  0  0  0  0  0  0  0  0  0
   27.4816  -21.1930   -8.2183 C   0  0  0  0  0  0  0  0  0  0  0  0
   27.3767  -20.9917   -6.8659 C   0  0  0  0  0  0  0  0  0  0  0  0
   26.9173  -19.7803   -6.3908 C   0  0  0  0  0  0  0  0  0  0  0  0
   26.5818  -18.8192   -7.3088 C   0  0  0  0  0  0  0  0  0  0  0  0
   26.6860  -19.0181   -8.6668 C   0  0  0  0  0  0  0  0  0  0  0  0
   24.8408  -20.1140  -10.7269 C   0  0  0  0  0  0  0  0  0  0  0  0
   24.0287  -20.5873   -9.7179 O   0  0  0  0  0  0  0  0  0  0  0  0
   24.5849  -19.0041  -11.2217 O   0  0  0  0  0  0  0  0  0  0  0  0
  2  1  1  6
  3  2  1  0
  4  2  1  0
  4  6  1  0
  4  5  1  6
  6  7  2  0
  6 13  1  0
  8  9  1  0
  9 10  1  0
 10 12  1  0
 10 11  1  1
 12 14  1  0
 12 13  1  6
 14 15  2  0
 14 16  1  0
 16 17  1  0
 17 25  1  0
 17 18  1  1
 19 18  1  0
 19 20  2  0
 21 20  1  0
 22 21  2  0
 23 24  2  0
 23 22  1  0
 24 19  1  0
 25 26  1  0
 27 25  2  0
M  END
$$$$
