VIF.pdb
     RDKit          3D

 27 27  0  0  1  0  0  0  0  0999 V2000
   28.5347  -16.6955  -15.7870 C   0  0  0  0  0  0  0  0  0  0  0  0
   27.7091  -17.2936  -14.6642 C   0  0  2  0  0  0  0  0  0  0  0  0
   28.6148  -17.7351  -13.5347 C   0  0  0  0  0  0  0  0  0  0  0  0
   26.8396  -18.4266  -15.1654 C   0  0  2  0  0  0  0  0  0  0  0  0
   26.0354  -18.0667  -16.2824 N   0  0  0  0  0  0  0  0  0  0  0  0
   26.0525  -18.9273  -14.0080 C   0  0  0  0  0  0  0  0  0  0  0  0
   25.0487  -18.2894  -13.5962 O   0  0  0  0  0  0  0  0  0  0  0  0
   24.3817  -23.6059  -14.6097 C   0  0  0  0  0  0  0  0  0  0  0  0
   24.5257  -22.2138  -14.0870 C   0  0  0  0  0  0  0  0  0  0  0  0
   25.2129  -22.1354  -12.7487 C   0  0  2  0  0  0  0  0  0  0  0  0
   24.4522  -22.9472  -11.7529 C   0  0  0  0  0  0  0  0  0  0  0  0
   25.4864  -20.7305  -12.3364 C   0  0  2  0  0  0  0  0  0  0  0  0
   26.3764  -20.1295  -13.3094 N   0  0  0  0  0  0  0  0  0  0  0  0
   26.2291  -20.7871  -11.0258 C   0  0  0  0  0  0  0  0  0  0  0  0
   27.4832  -20.8476  -10.9934 O   0  0  0  0  0  0  0  0  0  0  0  0
   25.5514  -20.7747   -9.7842 N   0  0  0  0  0  0  0  0  0  0  0  0
   26.3091  -20.8324   -8.5407 C   0  0  1  0  0  0  0  0  0  0  0  0
   27.2947  -19.7289   -8.4334 C   0  0  0  0  0  0  0  0  0  0  0  0
   27.9241  -19.7157   -7.0981 C   0  0  0  0  0  0  0  0  0  0  0  0
   28.9431  -20.5805   -6.7254 C   0  0  0  0  0  0  0  0  0  0  0  0
   29.5380  -20.5736   -5.4898 C   0  0  0  0  0  0  0  0  0  0  0  0
   29.1216  -19.6652   -4.5380 C   0  0  0  0  0  0  0  0  0  0  0  0
   28.1160  -18.7983   -4.8784 C   0  0  0  0  0  0  0  0  0  0  0  0
   27.5169  -18.8026   -6.1176 C   0  0  0  0  0  0  0  0  0  0  0  0
   25.3668  -20.8684   -7.4179 C   0  0  0  0  0  0  0  0  0  0  0  0
   25.7268  -21.4540   -6.2224 O   0  0  0  0  0  0  0  0  0  0  0  0
   24.2313  -20.3757   -7.5180 O   0  0  0  0  0  0  0  0  0  0  0  0
  2  1  1  6
  3  2  1  0
  4  2  1  0
  4  6  1  0
  4  5  1  6
  6  7  2  0
  6 13  1  0
  8  9  1  0
  9 10  1  0
 10 12  1  0
 10 11  1  1
 12 14  1  0
 12 13  1  6
 14 15  2  0
 14 16  1  0
 16 17  1  0
 17 25  1  0
 17 18  1  1
 19 18  1  0
 19 20  2  0
 21 20  1  0
 22 21  2  0
 23 24  2  0
 23 22  1  0
 24 19  1  0
 25 26  1  0
 27 25  2  0
M  END
$$$$
