VIF.pdb
     RDKit          3D

 27 27  0  0  1  0  0  0  0  0999 V2000
   28.5139  -21.8645  -15.3288 C   0  0  0  0  0  0  0  0  0  0  0  0
   27.6376  -22.1883  -16.5235 C   0  0  2  0  0  0  0  0  0  0  0  0
   28.4758  -22.7861  -17.6330 C   0  0  0  0  0  0  0  0  0  0  0  0
   26.8723  -20.9685  -16.9898 C   0  0  2  0  0  0  0  0  0  0  0  0
   27.6716  -20.0504  -17.7260 N   0  0  0  0  0  0  0  0  0  0  0  0
   26.2292  -20.3641  -15.7934 C   0  0  0  0  0  0  0  0  0  0  0  0
   26.6191  -19.2509  -15.3543 O   0  0  0  0  0  0  0  0  0  0  0  0
   22.7262  -18.3832  -15.2302 C   0  0  0  0  0  0  0  0  0  0  0  0
   22.4664  -19.8543  -15.2366 C   0  0  0  0  0  0  0  0  0  0  0  0
   23.0490  -20.5794  -14.0515 C   0  0  2  0  0  0  0  0  0  0  0  0
   22.2695  -20.2324  -12.8262 C   0  0  0  0  0  0  0  0  0  0  0  0
   24.5207  -20.3812  -13.9368 C   0  0  2  0  0  0  0  0  0  0  0  0
   25.1589  -20.9907  -15.0864 N   0  0  0  0  0  0  0  0  0  0  0  0
   24.9788  -21.1391  -12.7169 C   0  0  0  0  0  0  0  0  0  0  0  0
   24.9377  -22.3938  -12.6797 O   0  0  0  0  0  0  0  0  0  0  0  0
   25.4714  -20.4755  -11.5688 N   0  0  0  0  0  0  0  0  0  0  0  0
   25.9218  -21.2482  -10.4184 C   0  0  1  0  0  0  0  0  0  0  0  0
   27.3449  -20.9876  -10.0907 C   0  0  0  0  0  0  0  0  0  0  0  0
   27.4641  -20.2606   -8.8113 C   0  0  0  0  0  0  0  0  0  0  0  0
   26.9006  -19.0127   -8.5866 C   0  0  0  0  0  0  0  0  0  0  0  0
   27.0008  -18.3310   -7.4009 C   0  0  0  0  0  0  0  0  0  0  0  0
   27.6967  -18.8914   -6.3493 C   0  0  0  0  0  0  0  0  0  0  0  0
   28.2644  -20.1238   -6.5428 C   0  0  0  0  0  0  0  0  0  0  0  0
   28.1655  -20.8108   -7.7315 C   0  0  0  0  0  0  0  0  0  0  0  0
   25.0188  -20.9854   -9.2935 C   0  0  0  0  0  0  0  0  0  0  0  0
   25.0235  -21.8082   -8.1868 O   0  0  0  0  0  0  0  0  0  0  0  0
   24.2349  -20.0224   -9.3122 O   0  0  0  0  0  0  0  0  0  0  0  0
  2  1  1  1
  3  2  1  0
  4  2  1  0
  4  6  1  0
  4  5  1  1
  6  7  2  0
  6 13  1  0
  8  9  1  0
  9 10  1  0
 10 12  1  0
 10 11  1  1
 12 14  1  0
 12 13  1  6
 14 15  2  0
 14 16  1  0
 16 17  1  0
 17 25  1  0
 17 18  1  1
 19 18  1  0
 19 20  2  0
 21 20  1  0
 22 21  2  0
 23 24  2  0
 23 22  1  0
 24 19  1  0
 25 26  1  0
 27 25  2  0
M  END
$$$$
