VIF.pdb
     RDKit          3D

 27 27  0  0  1  0  0  0  0  0999 V2000
   20.2383  -13.6161  -21.8832 C   0  0  0  0  0  0  0  0  0  0  0  0
   20.8304  -14.2175  -20.6231 C   0  0  2  0  0  0  0  0  0  0  0  0
   20.6569  -15.7211  -20.6365 C   0  0  0  0  0  0  0  0  0  0  0  0
   20.2312  -13.5918  -19.3820 C   0  0  2  0  0  0  0  0  0  0  0  0
   18.8418  -13.8586  -19.2324 N   0  0  0  0  0  0  0  0  0  0  0  0
   20.5534  -12.1409  -19.4167 C   0  0  0  0  0  0  0  0  0  0  0  0
   21.7469  -11.7556  -19.5218 O   0  0  0  0  0  0  0  0  0  0  0  0
   17.4461   -8.6491  -22.0671 C   0  0  0  0  0  0  0  0  0  0  0  0
   18.5901   -9.3418  -21.4011 C   0  0  0  0  0  0  0  0  0  0  0  0
   18.7776   -8.9542  -19.9574 C   0  0  2  0  0  0  0  0  0  0  0  0
   18.8835   -7.4686  -19.8530 C   0  0  0  0  0  0  0  0  0  0  0  0
   19.8857   -9.7101  -19.3098 C   0  0  2  0  0  0  0  0  0  0  0  0
   19.5573  -11.1214  -19.3351 N   0  0  0  0  0  0  0  0  0  0  0  0
   19.9285   -9.2867  -17.8637 C   0  0  0  0  0  0  0  0  0  0  0  0
   19.0364   -9.6462  -17.0561 O   0  0  0  0  0  0  0  0  0  0  0  0
   20.9677   -8.4719  -17.3563 N   0  0  0  0  0  0  0  0  0  0  0  0
   20.9714   -8.0882  -15.9506 C   0  0  1  0  0  0  0  0  0  0  0  0
   22.2776   -8.3557  -15.3001 C   0  0  0  0  0  0  0  0  0  0  0  0
   22.2635   -7.9112  -13.8924 C   0  0  0  0  0  0  0  0  0  0  0  0
   22.0643   -8.7712  -12.8219 C   0  0  0  0  0  0  0  0  0  0  0  0
   22.0543   -8.3700  -11.5106 C   0  0  0  0  0  0  0  0  0  0  0  0
   22.2507   -7.0391  -11.2036 C   0  0  0  0  0  0  0  0  0  0  0  0
   22.4498   -6.1662  -12.2415 C   0  0  0  0  0  0  0  0  0  0  0  0
   22.4606   -6.5657  -13.5586 C   0  0  0  0  0  0  0  0  0  0  0  0
   20.5572   -6.6855  -15.8455 C   0  0  0  0  0  0  0  0  0  0  0  0
   19.7680   -6.2670  -14.7949 O   0  0  0  0  0  0  0  0  0  0  0  0
   20.9056   -5.8490  -16.6946 O   0  0  0  0  0  0  0  0  0  0  0  0
  2  1  1  6
  3  2  1  0
  4  2  1  0
  4  6  1  0
  4  5  1  6
  6  7  2  0
  6 13  1  0
  8  9  1  0
  9 10  1  0
 10 12  1  0
 10 11  1  6
 12 14  1  0
 12 13  1  1
 14 15  2  0
 14 16  1  0
 16 17  1  0
 17 25  1  0
 17 18  1  6
 19 18  1  0
 19 20  2  0
 21 20  1  0
 22 21  2  0
 23 24  2  0
 23 22  1  0
 24 19  1  0
 25 26  1  0
 27 25  2  0
M  END
$$$$
