VIF.pdb
     RDKit          3D

 27 27  0  0  1  0  0  0  0  0999 V2000
   23.5100  -19.9000  -16.1861 C   0  0  0  0  0  0  0  0  0  0  0  0
   22.3343  -20.3165  -15.3234 C   0  0  2  0  0  0  0  0  0  0  0  0
   21.0768  -19.6142  -15.7887 C   0  0  0  0  0  0  0  0  0  0  0  0
   22.6120  -20.0630  -13.8573 C   0  0  2  0  0  0  0  0  0  0  0  0
   22.5054  -18.6918  -13.4935 N   0  0  0  0  0  0  0  0  0  0  0  0
   23.9407  -20.6542  -13.5487 C   0  0  0  0  0  0  0  0  0  0  0  0
   24.1999  -21.8427  -13.8716 O   0  0  0  0  0  0  0  0  0  0  0  0
   28.3673  -19.2176  -15.3744 C   0  0  0  0  0  0  0  0  0  0  0  0
   27.2095  -19.8363  -14.6612 C   0  0  0  0  0  0  0  0  0  0  0  0
   27.3451  -19.8272  -13.1608 C   0  0  2  0  0  0  0  0  0  0  0  0
   28.7125  -20.2939  -12.7841 C   0  0  0  0  0  0  0  0  0  0  0  0
   26.2281  -20.5480  -12.4891 C   0  0  2  0  0  0  0  0  0  0  0  0
   24.9777  -19.9315  -12.8849 N   0  0  0  0  0  0  0  0  0  0  0  0
   26.3847  -20.3296  -11.0058 C   0  0  0  0  0  0  0  0  0  0  0  0
   26.4486  -19.1714  -10.5242 O   0  0  0  0  0  0  0  0  0  0  0  0
   26.4659  -21.4113  -10.0978 N   0  0  0  0  0  0  0  0  0  0  0  0
   26.7177  -21.1584   -8.6850 C   0  0  1  0  0  0  0  0  0  0  0  0
   27.9109  -20.3029   -8.4729 C   0  0  0  0  0  0  0  0  0  0  0  0
   28.1632  -20.1022   -7.0322 C   0  0  0  0  0  0  0  0  0  0  0  0
   28.8761  -20.9990   -6.2494 C   0  0  0  0  0  0  0  0  0  0  0  0
   29.1204  -20.8201   -4.9119 C   0  0  0  0  0  0  0  0  0  0  0  0
   28.6427  -19.6919   -4.2768 C   0  0  0  0  0  0  0  0  0  0  0  0
   27.9345  -18.7883   -5.0255 C   0  0  0  0  0  0  0  0  0  0  0  0
   27.6876  -18.9649   -6.3681 C   0  0  0  0  0  0  0  0  0  0  0  0
   25.5016  -20.6026   -8.0833 C   0  0  0  0  0  0  0  0  0  0  0  0
   25.0663  -21.0452   -6.8519 O   0  0  0  0  0  0  0  0  0  0  0  0
   24.8411  -19.7268   -8.6654 O   0  0  0  0  0  0  0  0  0  0  0  0
  2  1  1  6
  3  2  1  0
  4  2  1  0
  4  6  1  0
  4  5  1  6
  6  7  2  0
  6 13  1  0
  8  9  1  0
  9 10  1  0
 10 12  1  0
 10 11  1  6
 12 14  1  0
 12 13  1  6
 14 15  2  0
 14 16  1  0
 16 17  1  0
 17 25  1  0
 17 18  1  6
 19 18  1  0
 19 20  2  0
 21 20  1  0
 22 21  2  0
 23 24  2  0
 23 22  1  0
 24 19  1  0
 25 26  1  0
 27 25  2  0
M  END
$$$$
