VIF.pdb
     RDKit          3D

 27 27  0  0  1  0  0  0  0  0999 V2000
   23.2733  -22.1739  -12.2122 C   0  0  0  0  0  0  0  0  0  0  0  0
   23.0637  -21.3758  -10.9397 C   0  0  2  0  0  0  0  0  0  0  0  0
   22.2555  -20.1311  -11.2369 C   0  0  0  0  0  0  0  0  0  0  0  0
   24.3829  -21.0460  -10.2748 C   0  0  2  0  0  0  0  0  0  0  0  0
   24.2342  -20.3313   -9.0538 N   0  0  0  0  0  0  0  0  0  0  0  0
   25.2194  -20.3349  -11.2772 C   0  0  0  0  0  0  0  0  0  0  0  0
   25.1492  -19.0836  -11.3932 O   0  0  0  0  0  0  0  0  0  0  0  0
   30.1652  -21.0648  -10.9932 C   0  0  0  0  0  0  0  0  0  0  0  0
   28.8151  -20.5232  -11.3334 C   0  0  0  0  0  0  0  0  0  0  0  0
   28.4173  -20.7416  -12.7700 C   0  0  2  0  0  0  0  0  0  0  0  0
   29.4532  -20.1481  -13.6666 C   0  0  0  0  0  0  0  0  0  0  0  0
   27.0218  -20.2980  -13.0425 C   0  0  2  0  0  0  0  0  0  0  0  0
   26.1295  -21.0074  -12.1476 N   0  0  0  0  0  0  0  0  0  0  0  0
   26.6830  -20.7295  -14.4465 C   0  0  0  0  0  0  0  0  0  0  0  0
   26.5798  -21.9453  -14.7441 O   0  0  0  0  0  0  0  0  0  0  0  0
   26.4681  -19.7912  -15.4831 N   0  0  0  0  0  0  0  0  0  0  0  0
   25.9583  -20.2361  -16.7737 C   0  0  1  0  0  0  0  0  0  0  0  0
   24.4824  -20.1176  -16.8642 C   0  0  0  0  0  0  0  0  0  0  0  0
   24.0618  -18.7066  -16.7574 C   0  0  0  0  0  0  0  0  0  0  0  0
   23.4774  -18.1678  -15.6201 C   0  0  0  0  0  0  0  0  0  0  0  0
   23.0876  -16.8578  -15.5083 C   0  0  0  0  0  0  0  0  0  0  0  0
   23.2734  -15.9983  -16.5718 C   0  0  0  0  0  0  0  0  0  0  0  0
   23.8486  -16.5033  -17.7089 C   0  0  0  0  0  0  0  0  0  0  0  0
   24.2410  -17.8176  -17.8243 C   0  0  0  0  0  0  0  0  0  0  0  0
   26.6568  -19.5015  -17.8331 C   0  0  0  0  0  0  0  0  0  0  0  0
   26.5312  -19.8882  -19.1508 O   0  0  0  0  0  0  0  0  0  0  0  0
   27.3721  -18.5213  -17.5689 O   0  0  0  0  0  0  0  0  0  0  0  0
  2  1  1  6
  3  2  1  0
  4  2  1  0
  4  6  1  0
  4  5  1  1
  6  7  2  0
  6 13  1  0
  8  9  1  0
  9 10  1  0
 10 12  1  0
 10 11  1  6
 12 14  1  0
 12 13  1  1
 14 15  2  0
 14 16  1  0
 16 17  1  0
 17 25  1  0
 17 18  1  1
 19 18  1  0
 19 20  2  0
 21 20  1  0
 22 21  2  0
 23 24  2  0
 23 22  1  0
 24 19  1  0
 25 26  1  0
 27 25  2  0
M  END
$$$$
