GSM.pdb
     RDKit          3D

 19 18  0  0  1  0  0  0  0  0999 V2000
    7.7212  -12.6130   18.2870 N   0  0  0  0  0  0  0  0  0  0  0  0
    8.5489  -13.7030   18.6882 C   0  0  0  0  0  0  0  0  0  0  0  0
    8.1068  -14.3759   19.9140 C   0  0  0  0  0  0  0  0  0  0  0  0
    7.3534  -13.6971   20.6908 O   0  0  0  0  0  0  0  0  0  0  0  0
    9.5175  -18.0865   21.4810 O   0  0  0  0  0  0  0  0  0  0  0  0
    8.1875  -17.7392   21.6077 C   0  0  0  0  0  0  0  0  0  0  0  0
    7.9762  -16.2299   21.5141 C   0  0  2  0  0  0  0  0  0  0  0  0
    8.4600  -15.7030   20.2753 N   0  0  0  0  0  0  0  0  0  0  0  0
    8.6389  -15.6433   22.6944 C   0  0  0  0  0  0  0  0  0  0  0  0
    9.8009  -15.1828   22.6550 O   0  0  0  0  0  0  0  0  0  0  0  0
    6.5051  -10.7845   26.1483 C   0  0  0  0  0  0  0  0  0  0  0  0
    6.5297  -12.1157   27.3809 S   0  0  0  0  0  0  0  0  0  0  0  0
    7.7843  -13.3600   26.9345 C   0  0  0  0  0  0  0  0  0  0  0  0
    7.3986  -14.0115   25.6361 C   0  0  0  0  0  0  0  0  0  0  0  0
    8.4088  -14.9762   25.1311 C   0  0  2  0  0  0  0  0  0  0  0  0
    7.9221  -15.6049   23.9155 N   0  0  0  0  0  0  0  0  0  0  0  0
    8.8273  -16.0153   26.1010 C   0  0  0  0  0  0  0  0  0  0  0  0
    9.7335  -15.6838   27.0923 O   0  0  0  0  0  0  0  0  0  0  0  0
    8.4166  -17.2016   26.0992 O   0  0  0  0  0  0  0  0  0  0  0  0
  1  2  1  0
  3  2  1  0
  3  4  2  0
  5  6  1  0
  7  6  1  6
  7  8  1  0
  8  3  1  0
  9  7  1  0
 10  9  2  0
 11 12  1  0
 13 14  1  0
 13 12  1  0
 15 14  1  1
 15 16  1  0
 15 17  1  0
 16  9  1  0
 17 19  2  0
 17 18  1  0
M  END
$$$$
