GSM.pdb
     RDKit          3D

 19 18  0  0  1  0  0  0  0  0999 V2000
    2.3494  -19.6195   21.9089 N   0  0  0  0  0  0  0  0  0  0  0  0
    3.1361  -18.6177   21.2675 C   0  0  0  0  0  0  0  0  0  0  0  0
    4.4916  -18.4773   21.8094 C   0  0  0  0  0  0  0  0  0  0  0  0
    4.8121  -19.2848   22.7460 O   0  0  0  0  0  0  0  0  0  0  0  0
    7.7687  -16.3630   20.1096 O   0  0  0  0  0  0  0  0  0  0  0  0
    7.8496  -17.4747   20.9239 C   0  0  0  0  0  0  0  0  0  0  0  0
    6.7369  -17.5038   21.9691 C   0  0  2  0  0  0  0  0  0  0  0  0
    5.4412  -17.5203   21.3633 N   0  0  0  0  0  0  0  0  0  0  0  0
    6.9562  -16.3351   22.8424 C   0  0  0  0  0  0  0  0  0  0  0  0
    6.2337  -15.3154   22.7969 O   0  0  0  0  0  0  0  0  0  0  0  0
    7.0367  -11.2756   27.4150 C   0  0  0  0  0  0  0  0  0  0  0  0
    6.7444  -12.5192   26.1266 S   0  0  0  0  0  0  0  0  0  0  0  0
    7.2694  -14.1634   26.7120 C   0  0  0  0  0  0  0  0  0  0  0  0
    7.0806  -15.1674   25.6096 C   0  0  0  0  0  0  0  0  0  0  0  0
    8.2895  -15.3629   24.7691 C   0  0  2  0  0  0  0  0  0  0  0  0
    8.0299  -16.3799   23.7652 N   0  0  0  0  0  0  0  0  0  0  0  0
    9.5267  -15.6962   25.5133 C   0  0  0  0  0  0  0  0  0  0  0  0
   10.2676  -14.6737   26.0784 O   0  0  0  0  0  0  0  0  0  0  0  0
    9.9694  -16.8592   25.6795 O   0  0  0  0  0  0  0  0  0  0  0  0
  1  2  1  0
  3  2  1  0
  3  4  2  0
  5  6  1  0
  7  6  1  6
  7  8  1  0
  8  3  1  0
  9  7  1  0
 10  9  2  0
 11 12  1  0
 13 14  1  0
 13 12  1  0
 15 14  1  1
 15 16  1  0
 15 17  1  0
 16  9  1  0
 17 19  2  0
 17 18  1  0
M  END
$$$$
