GSM.pdb
     RDKit          3D

 19 18  0  0  1  0  0  0  0  0999 V2000
    8.1767  -19.3197   18.3441 N   0  0  0  0  0  0  0  0  0  0  0  0
    9.0390  -19.0114   19.4374 C   0  0  0  0  0  0  0  0  0  0  0  0
    8.3572  -18.4244   20.5956 C   0  0  0  0  0  0  0  0  0  0  0  0
    7.9253  -17.2309   20.4519 O   0  0  0  0  0  0  0  0  0  0  0  0
    8.0250  -20.0885   24.4950 O   0  0  0  0  0  0  0  0  0  0  0  0
    6.9610  -19.3998   23.9481 C   0  0  0  0  0  0  0  0  0  0  0  0
    7.4047  -18.4297   22.8556 C   0  0  2  0  0  0  0  0  0  0  0  0
    8.1562  -19.0906   21.8335 N   0  0  0  0  0  0  0  0  0  0  0  0
    8.1599  -17.3584   23.5326 C   0  0  0  0  0  0  0  0  0  0  0  0
    9.4097  -17.3147   23.5368 O   0  0  0  0  0  0  0  0  0  0  0  0
    6.7979  -10.4681   27.3104 C   0  0  0  0  0  0  0  0  0  0  0  0
    6.1627  -11.9319   26.4468 S   0  0  0  0  0  0  0  0  0  0  0  0
    7.5231  -13.0935   26.0983 C   0  0  0  0  0  0  0  0  0  0  0  0
    6.9951  -14.2526   25.3004 C   0  0  0  0  0  0  0  0  0  0  0  0
    8.0391  -15.2385   24.9208 C   0  0  2  0  0  0  0  0  0  0  0  0
    7.4313  -16.3441   24.2010 N   0  0  0  0  0  0  0  0  0  0  0  0
    8.8530  -15.7581   26.0447 C   0  0  0  0  0  0  0  0  0  0  0  0
   10.0924  -15.1961   26.2934 O   0  0  0  0  0  0  0  0  0  0  0  0
    8.5022  -16.6887   26.8109 O   0  0  0  0  0  0  0  0  0  0  0  0
  1  2  1  0
  3  2  1  0
  3  4  2  0
  5  6  1  0
  7  6  1  1
  7  8  1  0
  8  3  1  0
  9  7  1  0
 10  9  2  0
 11 12  1  0
 13 14  1  0
 13 12  1  0
 15 14  1  1
 15 16  1  0
 15 17  1  0
 16  9  1  0
 17 19  2  0
 17 18  1  0
M  END
$$$$
