GSM.pdb
     RDKit          3D

 19 18  0  0  1  0  0  0  0  0999 V2000
    8.5480  -17.6388   18.1198 N   0  0  0  0  0  0  0  0  0  0  0  0
    8.7304  -18.4024   19.3105 C   0  0  0  0  0  0  0  0  0  0  0  0
    8.1613  -17.7872   20.5140 C   0  0  0  0  0  0  0  0  0  0  0  0
    7.6914  -16.6072   20.3770 O   0  0  0  0  0  0  0  0  0  0  0  0
    7.5920  -19.6410   24.3431 O   0  0  0  0  0  0  0  0  0  0  0  0
    6.6971  -18.7669   23.7593 C   0  0  0  0  0  0  0  0  0  0  0  0
    7.3903  -17.7622   22.8420 C   0  0  2  0  0  0  0  0  0  0  0  0
    8.1051  -18.4128   21.7875 N   0  0  0  0  0  0  0  0  0  0  0  0
    8.2539  -16.9362   23.7072 C   0  0  0  0  0  0  0  0  0  0  0  0
    9.4916  -17.1008   23.7773 O   0  0  0  0  0  0  0  0  0  0  0  0
    5.7684  -11.5029   25.8292 C   0  0  0  0  0  0  0  0  0  0  0  0
    7.0139  -11.6052   27.1445 S   0  0  0  0  0  0  0  0  0  0  0  0
    8.1034  -13.0394   26.8658 C   0  0  0  0  0  0  0  0  0  0  0  0
    7.4631  -13.9641   25.8689 C   0  0  0  0  0  0  0  0  0  0  0  0
    8.3689  -15.0373   25.3853 C   0  0  2  0  0  0  0  0  0  0  0  0
    7.6473  -15.9196   24.4849 N   0  0  0  0  0  0  0  0  0  0  0  0
    9.0261  -15.8331   26.4485 C   0  0  0  0  0  0  0  0  0  0  0  0
   10.2535  -15.4207   26.9355 O   0  0  0  0  0  0  0  0  0  0  0  0
    8.5492  -16.8765   26.9584 O   0  0  0  0  0  0  0  0  0  0  0  0
  1  2  1  0
  3  2  1  0
  3  4  2  0
  5  6  1  0
  7  6  1  1
  7  8  1  0
  8  3  1  0
  9  7  1  0
 10  9  2  0
 11 12  1  0
 13 14  1  0
 13 12  1  0
 15 14  1  1
 15 16  1  0
 15 17  1  0
 16  9  1  0
 17 19  2  0
 17 18  1  0
M  END
$$$$
