GSM.pdb
     RDKit          3D

 19 18  0  0  1  0  0  0  0  0999 V2000
    8.2567  -12.4453   17.8445 N   0  0  0  0  0  0  0  0  0  0  0  0
    8.9245  -13.5635   18.4256 C   0  0  0  0  0  0  0  0  0  0  0  0
    8.3292  -14.0356   19.6800 C   0  0  0  0  0  0  0  0  0  0  0  0
    7.8986  -13.1337   20.4756 O   0  0  0  0  0  0  0  0  0  0  0  0
    8.2171  -18.0439   21.1619 O   0  0  0  0  0  0  0  0  0  0  0  0
    7.1425  -17.1942   21.3320 C   0  0  0  0  0  0  0  0  0  0  0  0
    7.5573  -15.7256   21.2809 C   0  0  2  0  0  0  0  0  0  0  0  0
    8.2085  -15.4015   20.0492 N   0  0  0  0  0  0  0  0  0  0  0  0
    8.4040  -15.4912   22.4661 C   0  0  0  0  0  0  0  0  0  0  0  0
    9.6503  -15.4140   22.3987 O   0  0  0  0  0  0  0  0  0  0  0  0
    5.9230  -10.5413   26.7747 C   0  0  0  0  0  0  0  0  0  0  0  0
    6.1127  -12.3381   26.9408 S   0  0  0  0  0  0  0  0  0  0  0  0
    7.3546  -12.9495   25.7553 C   0  0  0  0  0  0  0  0  0  0  0  0
    7.5230  -14.4325   25.9321 C   0  0  0  0  0  0  0  0  0  0  0  0
    8.4672  -15.0441   24.9624 C   0  0  2  0  0  0  0  0  0  0  0  0
    7.7704  -15.3494   23.7250 N   0  0  0  0  0  0  0  0  0  0  0  0
    9.1771  -16.2500   25.4496 C   0  0  0  0  0  0  0  0  0  0  0  0
    8.6982  -17.4997   25.0992 O   0  0  0  0  0  0  0  0  0  0  0  0
   10.2042  -16.2320   26.1713 O   0  0  0  0  0  0  0  0  0  0  0  0
  1  2  1  0
  3  2  1  0
  3  4  2  0
  5  6  1  0
  7  6  1  6
  7  8  1  0
  8  3  1  0
  9  7  1  0
 10  9  2  0
 11 12  1  0
 13 14  1  0
 13 12  1  0
 15 14  1  1
 15 16  1  0
 15 17  1  0
 16  9  1  0
 17 19  2  0
 17 18  1  0
M  END
$$$$
