GSM.pdb
     RDKit          3D

 19 18  0  0  1  0  0  0  0  0999 V2000
    7.4294  -12.5191   18.8178 N   0  0  0  0  0  0  0  0  0  0  0  0
    8.4172  -13.5403   18.9421 C   0  0  0  0  0  0  0  0  0  0  0  0
    8.2163  -14.4370   20.0852 C   0  0  0  0  0  0  0  0  0  0  0  0
    7.3279  -14.0825   20.9319 O   0  0  0  0  0  0  0  0  0  0  0  0
   10.8199  -17.6074   21.3866 O   0  0  0  0  0  0  0  0  0  0  0  0
    9.4497  -17.6967   21.5277 C   0  0  0  0  0  0  0  0  0  0  0  0
    8.7830  -16.3232   21.5465 C   0  0  2  0  0  0  0  0  0  0  0  0
    8.9344  -15.6436   20.2970 N   0  0  0  0  0  0  0  0  0  0  0  0
    9.3730  -15.5903   22.6829 C   0  0  0  0  0  0  0  0  0  0  0  0
    9.9757  -14.5035   22.5434 O   0  0  0  0  0  0  0  0  0  0  0  0
    6.3613  -11.2117   27.4242 C   0  0  0  0  0  0  0  0  0  0  0  0
    6.4661  -12.3938   26.0517 S   0  0  0  0  0  0  0  0  0  0  0  0
    7.8733  -13.5240   26.3040 C   0  0  0  0  0  0  0  0  0  0  0  0
    8.0341  -14.3966   25.0909 C   0  0  0  0  0  0  0  0  0  0  0  0
    9.1525  -15.3677   25.2003 C   0  0  2  0  0  0  0  0  0  0  0  0
    9.2460  -16.1480   23.9787 N   0  0  0  0  0  0  0  0  0  0  0  0
    9.0876  -16.2737   26.3710 C   0  0  0  0  0  0  0  0  0  0  0  0
    9.7077  -15.8960   27.5486 O   0  0  0  0  0  0  0  0  0  0  0  0
    8.5005  -17.3833   26.3845 O   0  0  0  0  0  0  0  0  0  0  0  0
  1  2  1  0
  3  2  1  0
  3  4  2  0
  5  6  1  0
  7  6  1  6
  7  8  1  0
  8  3  1  0
  9  7  1  0
 10  9  2  0
 11 12  1  0
 13 14  1  0
 13 12  1  0
 15 14  1  6
 15 16  1  0
 15 17  1  0
 16  9  1  0
 17 19  2  0
 17 18  1  0
M  END
$$$$
