GSM.pdb
     RDKit          3D

 19 18  0  0  1  0  0  0  0  0999 V2000
    7.7359  -12.7770   17.9065 N   0  0  0  0  0  0  0  0  0  0  0  0
    8.6864  -13.6075   18.5705 C   0  0  0  0  0  0  0  0  0  0  0  0
    8.1508  -14.3280   19.7302 C   0  0  0  0  0  0  0  0  0  0  0  0
    7.4402  -13.6436   20.5417 O   0  0  0  0  0  0  0  0  0  0  0  0
    9.2163  -18.2363   20.9972 O   0  0  0  0  0  0  0  0  0  0  0  0
    7.9208  -17.7975   21.1837 C   0  0  0  0  0  0  0  0  0  0  0  0
    7.8249  -16.2736   21.1872 C   0  0  2  0  0  0  0  0  0  0  0  0
    8.3720  -15.7057   19.9937 N   0  0  0  0  0  0  0  0  0  0  0  0
    8.5054  -15.8170   22.4140 C   0  0  0  0  0  0  0  0  0  0  0  0
    9.6970  -15.4376   22.4217 O   0  0  0  0  0  0  0  0  0  0  0  0
    6.7123  -10.6346   27.3322 C   0  0  0  0  0  0  0  0  0  0  0  0
    6.2054  -12.2760   26.7485 S   0  0  0  0  0  0  0  0  0  0  0  0
    7.6374  -13.1641   26.0541 C   0  0  0  0  0  0  0  0  0  0  0  0
    7.1952  -14.5142   25.5637 C   0  0  0  0  0  0  0  0  0  0  0  0
    8.2693  -15.2810   24.8822 C   0  0  2  0  0  0  0  0  0  0  0  0
    7.7712  -15.8120   23.6253 N   0  0  0  0  0  0  0  0  0  0  0  0
    8.8707  -16.3717   25.6849 C   0  0  0  0  0  0  0  0  0  0  0  0
    9.8863  -16.0704   26.5746 O   0  0  0  0  0  0  0  0  0  0  0  0
    8.5257  -17.5773   25.6247 O   0  0  0  0  0  0  0  0  0  0  0  0
  1  2  1  0
  3  2  1  0
  3  4  2  0
  5  6  1  0
  7  6  1  6
  7  8  1  0
  8  3  1  0
  9  7  1  0
 10  9  2  0
 11 12  1  0
 13 14  1  0
 13 12  1  0
 15 14  1  1
 15 16  1  0
 15 17  1  0
 16  9  1  0
 17 19  2  0
 17 18  1  0
M  END
$$$$
