GSM.pdb
     RDKit          3D

 19 18  0  0  1  0  0  0  0  0999 V2000
    8.0317  -12.4584   18.3093 N   0  0  0  0  0  0  0  0  0  0  0  0
    8.8100  -13.6026   18.6544 C   0  0  0  0  0  0  0  0  0  0  0  0
    8.3307  -14.3226   19.8387 C   0  0  0  0  0  0  0  0  0  0  0  0
    7.4580  -13.7204   20.5512 O   0  0  0  0  0  0  0  0  0  0  0  0
    9.8378  -18.0007   21.4001 O   0  0  0  0  0  0  0  0  0  0  0  0
    8.4945  -17.6955   21.4894 C   0  0  0  0  0  0  0  0  0  0  0  0
    8.2414  -16.1910   21.4247 C   0  0  2  0  0  0  0  0  0  0  0  0
    8.7706  -15.6158   20.2267 N   0  0  0  0  0  0  0  0  0  0  0  0
    8.8251  -15.6181   22.6526 C   0  0  0  0  0  0  0  0  0  0  0  0
   10.0014  -15.1970   22.7061 O   0  0  0  0  0  0  0  0  0  0  0  0
    5.6361  -11.3487   26.5148 C   0  0  0  0  0  0  0  0  0  0  0  0
    7.3574  -11.7864   26.8857 S   0  0  0  0  0  0  0  0  0  0  0  0
    7.5341  -13.5971   26.9946 C   0  0  0  0  0  0  0  0  0  0  0  0
    7.2451  -14.2066   25.6515 C   0  0  0  0  0  0  0  0  0  0  0  0
    8.4107  -14.9048   25.0515 C   0  0  2  0  0  0  0  0  0  0  0  0
    8.0127  -15.5466   23.8107 N   0  0  0  0  0  0  0  0  0  0  0  0
    9.0778  -15.8898   25.9348 C   0  0  0  0  0  0  0  0  0  0  0  0
    9.9654  -15.4388   26.8953 O   0  0  0  0  0  0  0  0  0  0  0  0
    8.8990  -17.1315   25.8842 O   0  0  0  0  0  0  0  0  0  0  0  0
  1  2  1  0
  3  2  1  0
  3  4  2  0
  5  6  1  0
  7  6  1  6
  7  8  1  0
  8  3  1  0
  9  7  1  0
 10  9  2  0
 11 12  1  0
 13 14  1  0
 13 12  1  0
 15 14  1  1
 15 16  1  0
 15 17  1  0
 16  9  1  0
 17 19  2  0
 17 18  1  0
M  END
$$$$
