GSM.pdb
     RDKit          3D

 19 18  0  0  1  0  0  0  0  0999 V2000
    8.0354  -12.3864   18.2638 N   0  0  0  0  0  0  0  0  0  0  0  0
    8.7724  -13.5910   18.4636 C   0  0  0  0  0  0  0  0  0  0  0  0
    8.3767  -14.3488   19.6553 C   0  0  0  0  0  0  0  0  0  0  0  0
    7.5725  -13.7627   20.4563 O   0  0  0  0  0  0  0  0  0  0  0  0
   10.0677  -17.9902   21.1494 O   0  0  0  0  0  0  0  0  0  0  0  0
    8.7052  -17.7731   21.1931 C   0  0  0  0  0  0  0  0  0  0  0  0
    8.3586  -16.2864   21.1586 C   0  0  2  0  0  0  0  0  0  0  0  0
    8.8255  -15.6612   19.9597 N   0  0  0  0  0  0  0  0  0  0  0  0
    8.9323  -15.6973   22.3836 C   0  0  0  0  0  0  0  0  0  0  0  0
   10.0316  -15.1012   22.3932 O   0  0  0  0  0  0  0  0  0  0  0  0
    6.5700  -11.0479   27.9657 C   0  0  0  0  0  0  0  0  0  0  0  0
    6.2166  -12.2089   26.6169 S   0  0  0  0  0  0  0  0  0  0  0  0
    7.6583  -13.2841   26.3216 C   0  0  0  0  0  0  0  0  0  0  0  0
    7.3909  -14.1578   25.1282 C   0  0  0  0  0  0  0  0  0  0  0  0
    8.5056  -15.0857   24.8083 C   0  0  2  0  0  0  0  0  0  0  0  0
    8.2011  -15.8171   23.5908 N   0  0  0  0  0  0  0  0  0  0  0  0
    8.8642  -16.0352   25.8879 C   0  0  0  0  0  0  0  0  0  0  0  0
    9.6117  -15.5826   26.9604 O   0  0  0  0  0  0  0  0  0  0  0  0
    8.5366  -17.2469   25.9121 O   0  0  0  0  0  0  0  0  0  0  0  0
  1  2  1  0
  3  2  1  0
  3  4  2  0
  5  6  1  0
  7  6  1  6
  7  8  1  0
  8  3  1  0
  9  7  1  0
 10  9  2  0
 11 12  1  0
 13 14  1  0
 13 12  1  0
 15 14  1  1
 15 16  1  0
 15 17  1  0
 16  9  1  0
 17 19  2  0
 17 18  1  0
M  END
$$$$
