GSM.pdb
     RDKit          3D

 19 18  0  0  1  0  0  0  0  0999 V2000
    8.7969  -18.8128   18.3588 N   0  0  0  0  0  0  0  0  0  0  0  0
    8.6829  -19.5121   19.5965 C   0  0  0  0  0  0  0  0  0  0  0  0
    8.0313  -18.7458   20.6638 C   0  0  0  0  0  0  0  0  0  0  0  0
    7.7890  -17.5174   20.4102 O   0  0  0  0  0  0  0  0  0  0  0  0
    7.0434  -20.0465   24.6397 O   0  0  0  0  0  0  0  0  0  0  0  0
    6.1755  -19.2967   23.8714 C   0  0  0  0  0  0  0  0  0  0  0  0
    6.9095  -18.4603   22.8259 C   0  0  2  0  0  0  0  0  0  0  0  0
    7.6651  -19.2784   21.9281 N   0  0  0  0  0  0  0  0  0  0  0  0
    7.7394  -17.4959   23.5727 C   0  0  0  0  0  0  0  0  0  0  0  0
    8.9834  -17.5967   23.6509 O   0  0  0  0  0  0  0  0  0  0  0  0
    6.8572  -10.6916   27.6530 C   0  0  0  0  0  0  0  0  0  0  0  0
    6.1378  -12.0297   26.6611 S   0  0  0  0  0  0  0  0  0  0  0  0
    7.4189  -13.2553   26.2390 C   0  0  0  0  0  0  0  0  0  0  0  0
    6.8197  -14.3193   25.3627 C   0  0  0  0  0  0  0  0  0  0  0  0
    7.7795  -15.3869   24.9818 C   0  0  2  0  0  0  0  0  0  0  0  0
    7.0918  -16.4170   24.2231 N   0  0  0  0  0  0  0  0  0  0  0  0
    8.5173  -16.0022   26.1099 C   0  0  0  0  0  0  0  0  0  0  0  0
    9.7874  -15.5447   26.4120 O   0  0  0  0  0  0  0  0  0  0  0  0
    8.0741  -16.9269   26.8342 O   0  0  0  0  0  0  0  0  0  0  0  0
  1  2  1  0
  3  2  1  0
  3  4  2  0
  5  6  1  0
  7  6  1  1
  7  8  1  0
  8  3  1  0
  9  7  1  0
 10  9  2  0
 11 12  1  0
 13 14  1  0
 13 12  1  0
 15 14  1  1
 15 16  1  0
 15 17  1  0
 16  9  1  0
 17 19  2  0
 17 18  1  0
M  END
$$$$
