GSM.pdb
     RDKit          3D

 19 18  0  0  1  0  0  0  0  0999 V2000
   13.0374  -16.9891   19.8600 N   0  0  0  0  0  0  0  0  0  0  0  0
   12.5419  -18.0619   20.6584 C   0  0  0  0  0  0  0  0  0  0  0  0
   11.5351  -17.6622   21.6470 C   0  0  0  0  0  0  0  0  0  0  0  0
   11.2115  -16.4265   21.6559 O   0  0  0  0  0  0  0  0  0  0  0  0
    9.7206  -20.1492   24.5998 O   0  0  0  0  0  0  0  0  0  0  0  0
    9.0179  -19.1210   24.0043 C   0  0  0  0  0  0  0  0  0  0  0  0
    9.9404  -18.0257   23.4744 C   0  0  2  0  0  0  0  0  0  0  0  0
   10.9172  -18.5478   22.5692 N   0  0  0  0  0  0  0  0  0  0  0  0
   10.5331  -17.3731   24.6573 C   0  0  0  0  0  0  0  0  0  0  0  0
   11.7182  -17.5634   25.0084 O   0  0  0  0  0  0  0  0  0  0  0  0
    6.8806  -12.6956   27.4477 C   0  0  0  0  0  0  0  0  0  0  0  0
    8.5550  -12.2219   27.9613 S   0  0  0  0  0  0  0  0  0  0  0  0
    9.6630  -13.6675   27.8962 C   0  0  0  0  0  0  0  0  0  0  0  0
    9.3313  -14.4943   26.6857 C   0  0  0  0  0  0  0  0  0  0  0  0
   10.1997  -15.6883   26.5243 C   0  0  2  0  0  0  0  0  0  0  0  0
    9.7195  -16.4983   25.4183 N   0  0  0  0  0  0  0  0  0  0  0  0
   10.3461  -16.5289   27.7357 C   0  0  0  0  0  0  0  0  0  0  0  0
    9.5792  -17.6739   27.8564 O   0  0  0  0  0  0  0  0  0  0  0  0
   11.1294  -16.2833   28.6856 O   0  0  0  0  0  0  0  0  0  0  0  0
  1  2  1  0
  3  2  1  0
  3  4  2  0
  5  6  1  0
  7  6  1  1
  7  8  1  0
  8  3  1  0
  9  7  1  0
 10  9  2  0
 11 12  1  0
 13 14  1  0
 13 12  1  0
 15 14  1  1
 15 16  1  0
 15 17  1  0
 16  9  1  0
 17 19  2  0
 17 18  1  0
M  END
$$$$
