GSM.pdb
     RDKit          3D

 19 18  0  0  1  0  0  0  0  0999 V2000
    7.8362  -12.7036   18.0357 N   0  0  0  0  0  0  0  0  0  0  0  0
    8.7490  -13.7459   18.3739 C   0  0  0  0  0  0  0  0  0  0  0  0
    8.4162  -14.4605   19.6106 C   0  0  0  0  0  0  0  0  0  0  0  0
    7.5499  -13.9058   20.3680 O   0  0  0  0  0  0  0  0  0  0  0  0
   10.3876  -17.8689   21.2082 O   0  0  0  0  0  0  0  0  0  0  0  0
    9.0183  -17.7520   21.3380 C   0  0  0  0  0  0  0  0  0  0  0  0
    8.5518  -16.3025   21.2241 C   0  0  2  0  0  0  0  0  0  0  0  0
    8.9877  -15.7001   20.0021 N   0  0  0  0  0  0  0  0  0  0  0  0
    9.0529  -15.6089   22.4259 C   0  0  0  0  0  0  0  0  0  0  0  0
   10.1063  -14.9350   22.4245 O   0  0  0  0  0  0  0  0  0  0  0  0
    6.2740  -11.0775   27.9738 C   0  0  0  0  0  0  0  0  0  0  0  0
    6.0937  -12.1184   26.4987 S   0  0  0  0  0  0  0  0  0  0  0  0
    7.4943  -13.2779   26.3748 C   0  0  0  0  0  0  0  0  0  0  0  0
    7.3581  -14.0897   25.1173 C   0  0  0  0  0  0  0  0  0  0  0  0
    8.5487  -14.9251   24.8162 C   0  0  2  0  0  0  0  0  0  0  0  0
    8.3037  -15.7166   23.6232 N   0  0  0  0  0  0  0  0  0  0  0  0
    8.9951  -15.8064   25.9206 C   0  0  0  0  0  0  0  0  0  0  0  0
    9.0217  -17.1749   25.7199 O   0  0  0  0  0  0  0  0  0  0  0  0
    9.3622  -15.4045   27.0519 O   0  0  0  0  0  0  0  0  0  0  0  0
  1  2  1  0
  3  2  1  0
  3  4  2  0
  5  6  1  0
  7  6  1  1
  7  8  1  0
  8  3  1  0
  9  7  1  0
 10  9  2  0
 11 12  1  0
 13 14  1  0
 13 12  1  0
 15 14  1  1
 15 16  1  0
 15 17  1  0
 16  9  1  0
 17 19  2  0
 17 18  1  0
M  END
$$$$
