LRM.pdb
     RDKit          3D

 28 27  0  0  1  0  0  0  0  0999 V2000
    5.1431  -19.5819   23.1419 C   0  0  0  0  0  0  0  0  0  0  0  0
    6.4770  -20.1701   23.5973 C   0  0  2  0  0  0  0  0  0  0  0  0
    6.3644  -20.5799   25.0492 C   0  0  0  0  0  0  0  0  0  0  0  0
    7.5167  -19.1117   23.3642 C   0  0  0  0  0  0  0  0  0  0  0  0
    7.4532  -18.5763   21.9483 C   0  0  2  0  0  0  0  0  0  0  0  0
    7.8432  -19.5949   20.9910 N   0  0  0  0  0  0  0  0  0  0  0  0
    8.3719  -17.4123   21.7879 C   0  0  0  0  0  0  0  0  0  0  0  0
    9.6295  -17.6074   21.7644 O   0  0  0  0  0  0  0  0  0  0  0  0
    8.7655  -15.3733   17.6021 N   0  0  0  0  0  0  0  0  0  0  0  0
    8.0837  -14.3057   16.9215 C   0  0  0  0  0  0  0  0  0  0  0  0
    8.3865  -14.0977   15.6898 N   0  0  0  0  0  0  0  0  0  0  0  0
    7.1273  -13.5396   17.6169 N   0  0  0  0  0  0  0  0  0  0  0  0
    7.0247  -13.5947   19.0516 C   0  0  0  0  0  0  0  0  0  0  0  0
    8.4237  -13.6747   19.6738 C   0  0  0  0  0  0  0  0  0  0  0  0
    8.3457  -13.7139   21.1779 C   0  0  0  0  0  0  0  0  0  0  0  0
    8.8699  -14.9966   21.7842 C   0  0  2  0  0  0  0  0  0  0  0  0
    7.9317  -16.0732   21.6561 N   0  0  0  0  0  0  0  0  0  0  0  0
    9.2825  -14.8148   23.2218 C   0  0  0  0  0  0  0  0  0  0  0  0
    8.9947  -13.7642   23.8465 O   0  0  0  0  0  0  0  0  0  0  0  0
    7.9360  -13.3548   15.1293 C   0  0  0  0  0  0  0  0  0  0  0  0
    8.1565  -12.6604   28.8157 S   0  0  0  0  0  0  0  0  0  0  0  0
    8.2316  -14.4506   28.4737 C   0  0  0  0  0  0  0  0  0  0  0  0
    9.6444  -14.8222   27.4976 C   0  0  0  0  0  0  0  0  0  0  0  0
    9.5082  -15.1876   26.1062 C   0  0  1  0  0  0  0  0  0  0  0  0
   10.6755  -15.4621   25.2151 N   0  0  0  0  0  0  0  0  0  0  0  0
    9.9941  -15.8050   23.9009 C   0  0  0  0  0  0  0  0  0  0  0  0
   11.3359  -16.7850   25.4901 O   0  0  0  0  0  0  0  0  0  0  0  0
   12.4218  -16.9757   26.2470 O   0  0  0  0  0  0  0  0  0  0  0  0
  2  1  1  1
  2  3  1  0
  4  2  1  0
  5  4  1  0
  5  6  1  6
  7  5  1  0
  7  8  2  0
  9 10  1  0
 10 11  2  0
 12 10  1  0
 12 13  1  0
 13 14  1  0
 15 14  1  0
 16 15  1  1
 16 17  1  0
 17  7  1  0
 18 25  1  0
 18 16  1  0
 19 18  2  0
 20 21  1  0
 21 22  1  0
 22 23  1  0
 24 23  1  6
 24 25  1  0
 24 26  1  0
 26 27  1  0
 28 26  2  0
M  END
$$$$
