LRM.pdb
     RDKit          3D

 28 27  0  0  1  0  0  0  0  0999 V2000
    9.2489  -12.8949   18.6277 C   0  0  0  0  0  0  0  0  0  0  0  0
    7.8058  -13.3791   18.5021 C   0  0  2  0  0  0  0  0  0  0  0  0
    6.9272  -12.2119   18.1091 C   0  0  0  0  0  0  0  0  0  0  0  0
    7.4338  -13.9740   19.8300 C   0  0  0  0  0  0  0  0  0  0  0  0
    8.4283  -15.0331   20.2598 C   0  0  2  0  0  0  0  0  0  0  0  0
    8.4644  -16.1271   19.3071 N   0  0  0  0  0  0  0  0  0  0  0  0
    8.0558  -15.5899   21.5924 C   0  0  0  0  0  0  0  0  0  0  0  0
    7.8827  -14.7984   22.5741 O   0  0  0  0  0  0  0  0  0  0  0  0
    6.1985  -21.2865   27.3154 N   0  0  0  0  0  0  0  0  0  0  0  0
    7.3138  -21.8563   26.6090 C   0  0  0  0  0  0  0  0  0  0  0  0
    8.1862  -22.5014   27.2980 N   0  0  0  0  0  0  0  0  0  0  0  0
    7.4090  -21.6887   25.2132 N   0  0  0  0  0  0  0  0  0  0  0  0
    6.4456  -20.9037   24.4869 C   0  0  0  0  0  0  0  0  0  0  0  0
    6.8278  -19.4201   24.5460 C   0  0  0  0  0  0  0  0  0  0  0  0
    7.1406  -18.8865   23.1722 C   0  0  0  0  0  0  0  0  0  0  0  0
    7.4695  -17.4103   23.1499 C   0  0  2  0  0  0  0  0  0  0  0  0
    7.8765  -16.9709   21.8473 N   0  0  0  0  0  0  0  0  0  0  0  0
    8.5023  -17.0457   24.1844 C   0  0  0  0  0  0  0  0  0  0  0  0
    9.7149  -17.3208   24.0086 O   0  0  0  0  0  0  0  0  0  0  0  0
    9.0328  -22.9123   26.8696 C   0  0  0  0  0  0  0  0  0  0  0  0
    6.0296  -11.6467   28.0088 S   0  0  0  0  0  0  0  0  0  0  0  0
    7.6480  -12.0531   27.2719 C   0  0  0  0  0  0  0  0  0  0  0  0
    7.7071  -13.7552   26.8408 C   0  0  0  0  0  0  0  0  0  0  0  0
    8.8532  -14.3063   26.1545 C   0  0  1  0  0  0  0  0  0  0  0  0
    9.2266  -15.7515   26.2174 N   0  0  0  0  0  0  0  0  0  0  0  0
    8.1446  -16.3932   25.3652 C   0  0  0  0  0  0  0  0  0  0  0  0
    8.8988  -16.3938   27.5372 O   0  0  0  0  0  0  0  0  0  0  0  0
    9.6642  -16.3652   28.6333 O   0  0  0  0  0  0  0  0  0  0  0  0
  2  1  1  1
  2  3  1  0
  4  2  1  0
  5  4  1  0
  5  6  1  6
  7  5  1  0
  7  8  2  0
  9 10  1  0
 10 11  2  0
 12 10  1  0
 12 13  1  0
 13 14  1  0
 15 14  1  0
 16 15  1  6
 16 17  1  0
 17  7  1  0
 18 25  1  0
 18 16  1  0
 19 18  2  0
 20 21  1  0
 21 22  1  0
 22 23  1  0
 24 23  1  6
 24 25  1  0
 24 26  1  0
 26 27  1  0
 28 26  2  0
M  END
$$$$
