LRM.pdb
     RDKit          3D

 28 27  0  0  1  0  0  0  0  0999 V2000
    5.9156  -12.1580   26.7482 C   0  0  0  0  0  0  0  0  0  0  0  0
    6.6765  -12.5408   25.4804 C   0  0  2  0  0  0  0  0  0  0  0  0
    6.7195  -11.3467   24.5525 C   0  0  0  0  0  0  0  0  0  0  0  0
    5.9605  -13.7204   24.8876 C   0  0  0  0  0  0  0  0  0  0  0  0
    6.4630  -15.0241   25.4736 C   0  0  2  0  0  0  0  0  0  0  0  0
    7.4046  -14.7795   26.5503 N   0  0  0  0  0  0  0  0  0  0  0  0
    7.1524  -15.8354   24.4291 C   0  0  0  0  0  0  0  0  0  0  0  0
    6.7094  -16.9943   24.1445 O   0  0  0  0  0  0  0  0  0  0  0  0
    6.6555  -13.0251   19.4669 N   0  0  0  0  0  0  0  0  0  0  0  0
    7.8450  -13.4256   18.7651 C   0  0  0  0  0  0  0  0  0  0  0  0
    8.5088  -12.5116   18.1521 N   0  0  0  0  0  0  0  0  0  0  0  0
    8.2317  -14.7805   18.7734 N   0  0  0  0  0  0  0  0  0  0  0  0
    8.0883  -15.5918   19.9538 C   0  0  0  0  0  0  0  0  0  0  0  0
    8.8550  -14.9584   21.1207 C   0  0  0  0  0  0  0  0  0  0  0  0
    9.7178  -15.9776   21.8182 C   0  0  0  0  0  0  0  0  0  0  0  0
    9.2262  -16.3531   23.1984 C   0  0  2  0  0  0  0  0  0  0  0  0
    8.2925  -15.3954   23.7144 N   0  0  0  0  0  0  0  0  0  0  0  0
   10.3626  -16.5666   24.1643 C   0  0  0  0  0  0  0  0  0  0  0  0
   11.2745  -15.7116   24.2849 O   0  0  0  0  0  0  0  0  0  0  0  0
    9.3258  -12.7290   17.5568 C   0  0  0  0  0  0  0  0  0  0  0  0
    9.5599  -14.0294   29.0685 S   0  0  0  0  0  0  0  0  0  0  0  0
   11.0617  -15.0219   28.7743 C   0  0  0  0  0  0  0  0  0  0  0  0
   10.6355  -16.7097   28.5365 C   0  0  0  0  0  0  0  0  0  0  0  0
   10.2652  -17.2032   27.2298 C   0  0  2  0  0  0  0  0  0  0  0  0
   11.2604  -17.6919   26.2284 N   0  0  0  0  0  0  0  0  0  0  0  0
   10.4362  -17.7164   24.9521 C   0  0  0  0  0  0  0  0  0  0  0  0
   11.5524  -19.1623   26.3485 O   0  0  0  0  0  0  0  0  0  0  0  0
   12.5707  -19.7057   27.0237 O   0  0  0  0  0  0  0  0  0  0  0  0
  2  1  1  1
  2  3  1  0
  4  2  1  0
  5  4  1  0
  5  6  1  1
  7  5  1  0
  7  8  2  0
  9 10  1  0
 10 11  2  0
 12 10  1  0
 12 13  1  0
 13 14  1  0
 15 14  1  0
 16 15  1  6
 16 17  1  0
 17  7  1  0
 18 25  1  0
 18 16  1  0
 19 18  2  0
 20 21  1  0
 21 22  1  0
 22 23  1  0
 24 23  1  6
 24 25  1  0
 24 26  1  0
 26 27  1  0
 28 26  2  0
M  END
$$$$
