LRM.pdb
     RDKit          3D

 28 27  0  0  1  0  0  0  0  0999 V2000
    8.8634  -12.2244   18.8635 C   0  0  0  0  0  0  0  0  0  0  0  0
    7.8254  -13.3149   18.6063 C   0  0  2  0  0  0  0  0  0  0  0  0
    6.5190  -12.6661   18.2049 C   0  0  0  0  0  0  0  0  0  0  0  0
    7.7193  -14.1161   19.8721 C   0  0  0  0  0  0  0  0  0  0  0  0
    9.0860  -14.4157   20.4532 C   0  0  2  0  0  0  0  0  0  0  0  0
    9.9378  -15.0586   19.4699 N   0  0  0  0  0  0  0  0  0  0  0  0
    8.9661  -15.3253   21.6292 C   0  0  0  0  0  0  0  0  0  0  0  0
    8.1040  -15.0710   22.5306 O   0  0  0  0  0  0  0  0  0  0  0  0
   12.0201  -20.0138   19.4704 N   0  0  0  0  0  0  0  0  0  0  0  0
   11.0563  -21.0810   19.4629 C   0  0  0  0  0  0  0  0  0  0  0  0
   11.3950  -22.1829   18.8947 N   0  0  0  0  0  0  0  0  0  0  0  0
    9.7984  -20.8832   20.0662 N   0  0  0  0  0  0  0  0  0  0  0  0
    9.6844  -20.3796   21.4098 C   0  0  0  0  0  0  0  0  0  0  0  0
   10.5097  -19.0962   21.5597 C   0  0  0  0  0  0  0  0  0  0  0  0
   10.4023  -18.5436   22.9571 C   0  0  0  0  0  0  0  0  0  0  0  0
    9.6663  -17.2246   23.0383 C   0  0  2  0  0  0  0  0  0  0  0  0
    9.7633  -16.4800   21.8170 N   0  0  0  0  0  0  0  0  0  0  0  0
   10.1231  -16.3938   24.2091 C   0  0  0  0  0  0  0  0  0  0  0  0
   11.2233  -15.7892   24.1796 O   0  0  0  0  0  0  0  0  0  0  0  0
   10.7698  -23.0061   18.8716 C   0  0  0  0  0  0  0  0  0  0  0  0
    5.6937  -12.8755   26.5239 S   0  0  0  0  0  0  0  0  0  0  0  0
    7.1191  -12.1916   27.4338 C   0  0  0  0  0  0  0  0  0  0  0  0
    8.3924  -13.3957   27.5586 C   0  0  0  0  0  0  0  0  0  0  0  0
    8.5381  -14.4264   26.5563 C   0  0  1  0  0  0  0  0  0  0  0  0
    9.7546  -15.2856   26.4383 N   0  0  0  0  0  0  0  0  0  0  0  0
    9.3402  -16.2706   25.3580 C   0  0  0  0  0  0  0  0  0  0  0  0
    9.9176  -16.2468   27.5835 O   0  0  0  0  0  0  0  0  0  0  0  0
   10.4809  -15.9695   28.7642 O   0  0  0  0  0  0  0  0  0  0  0  0
  2  1  1  1
  2  3  1  0
  4  2  1  0
  5  4  1  0
  5  6  1  6
  7  5  1  0
  7  8  2  0
  9 10  1  0
 10 11  2  0
 12 10  1  0
 12 13  1  0
 13 14  1  0
 15 14  1  0
 16 15  1  6
 16 17  1  0
 17  7  1  0
 18 25  1  0
 18 16  1  0
 19 18  2  0
 20 21  1  0
 21 22  1  0
 22 23  1  0
 24 23  1  6
 24 25  1  0
 24 26  1  0
 26 27  1  0
 28 26  2  0
M  END
$$$$
