LRM.pdb
     RDKit          3D

 28 27  0  0  1  0  0  0  0  0999 V2000
    7.9900  -11.9359   19.8047 C   0  0  0  0  0  0  0  0  0  0  0  0
    8.5543  -13.3509   19.6944 C   0  0  2  0  0  0  0  0  0  0  0  0
    9.8624  -13.3016   18.9360 C   0  0  0  0  0  0  0  0  0  0  0  0
    7.5074  -14.1800   19.0072 C   0  0  0  0  0  0  0  0  0  0  0  0
    7.9277  -15.6323   18.9101 C   0  0  2  0  0  0  0  0  0  0  0  0
    6.9796  -16.3945   18.1188 N   0  0  0  0  0  0  0  0  0  0  0  0
    8.0005  -16.2474   20.2669 C   0  0  0  0  0  0  0  0  0  0  0  0
    6.9419  -16.3429   20.9673 O   0  0  0  0  0  0  0  0  0  0  0  0
   12.4153  -18.8901   25.1297 N   0  0  0  0  0  0  0  0  0  0  0  0
   11.9606  -20.1569   25.6358 C   0  0  0  0  0  0  0  0  0  0  0  0
   12.2931  -20.4704   26.8371 N   0  0  0  0  0  0  0  0  0  0  0  0
   11.1827  -20.9939   24.8112 N   0  0  0  0  0  0  0  0  0  0  0  0
   10.8313  -20.6054   23.4705 C   0  0  0  0  0  0  0  0  0  0  0  0
    9.9664  -19.3397   23.5020 C   0  0  0  0  0  0  0  0  0  0  0  0
    9.9782  -18.6427   22.1664 C   0  0  0  0  0  0  0  0  0  0  0  0
    9.1571  -17.3729   22.1320 C   0  0  2  0  0  0  0  0  0  0  0  0
    9.1938  -16.7449   20.8437 N   0  0  0  0  0  0  0  0  0  0  0  0
    9.5679  -16.4049   23.2110 C   0  0  0  0  0  0  0  0  0  0  0  0
   10.6167  -15.7233   23.0993 O   0  0  0  0  0  0  0  0  0  0  0  0
   12.0888  -21.4001   27.2408 C   0  0  0  0  0  0  0  0  0  0  0  0
    6.4635  -11.2227   27.0385 S   0  0  0  0  0  0  0  0  0  0  0  0
    5.9212  -12.7476   26.1971 C   0  0  0  0  0  0  0  0  0  0  0  0
    7.2744  -13.4909   25.3586 C   0  0  0  0  0  0  0  0  0  0  0  0
    7.8950  -14.6908   25.8716 C   0  0  2  0  0  0  0  0  0  0  0  0
    9.2155  -15.1978   25.3908 N   0  0  0  0  0  0  0  0  0  0  0  0
    8.7983  -16.2364   24.3630 C   0  0  0  0  0  0  0  0  0  0  0  0
    9.8998  -16.1041   26.3768 O   0  0  0  0  0  0  0  0  0  0  0  0
   10.8724  -15.7484   27.2229 O   0  0  0  0  0  0  0  0  0  0  0  0
  2  1  1  6
  2  3  1  0
  4  2  1  0
  5  4  1  0
  5  6  1  6
  7  5  1  0
  7  8  2  0
  9 10  1  0
 10 11  2  0
 12 10  1  0
 12 13  1  0
 13 14  1  0
 15 14  1  0
 16 15  1  6
 16 17  1  0
 17  7  1  0
 18 25  1  0
 18 16  1  0
 19 18  2  0
 20 21  1  0
 21 22  1  0
 22 23  1  0
 24 23  1  6
 24 25  1  0
 24 26  1  0
 26 27  1  0
 28 26  2  0
M  END
$$$$
