LRM.pdb
     RDKit          3D

 28 27  0  0  1  0  0  0  0  0999 V2000
    7.1400  -10.8972   25.7170 C   0  0  0  0  0  0  0  0  0  0  0  0
    6.0305  -11.9365   25.8646 C   0  0  2  0  0  0  0  0  0  0  0  0
    5.3873  -11.7802   27.2249 C   0  0  0  0  0  0  0  0  0  0  0  0
    6.6705  -13.2808   25.6679 C   0  0  0  0  0  0  0  0  0  0  0  0
    7.5401  -13.3034   24.4275 C   0  0  2  0  0  0  0  0  0  0  0  0
    6.7861  -12.8903   23.2584 N   0  0  0  0  0  0  0  0  0  0  0  0
    8.0632  -14.6781   24.1806 C   0  0  0  0  0  0  0  0  0  0  0  0
    8.1489  -15.4977   25.1509 O   0  0  0  0  0  0  0  0  0  0  0  0
    7.8376  -14.1016   17.6062 N   0  0  0  0  0  0  0  0  0  0  0  0
    9.0216  -13.8851   18.3930 C   0  0  0  0  0  0  0  0  0  0  0  0
    9.4489  -12.6779   18.5030 N   0  0  0  0  0  0  0  0  0  0  0  0
    9.6595  -14.9838   19.0023 N   0  0  0  0  0  0  0  0  0  0  0  0
    9.0699  -16.2967   18.9812 C   0  0  0  0  0  0  0  0  0  0  0  0
    8.5430  -16.6565   20.3753 C   0  0  0  0  0  0  0  0  0  0  0  0
    9.6554  -16.6550   21.3914 C   0  0  0  0  0  0  0  0  0  0  0  0
    9.1913  -16.3871   22.8059 C   0  0  2  0  0  0  0  0  0  0  0  0
    8.4806  -15.1465   22.9115 N   0  0  0  0  0  0  0  0  0  0  0  0
   10.3284  -16.4381   23.7929 C   0  0  0  0  0  0  0  0  0  0  0  0
   11.4029  -15.8278   23.5695 O   0  0  0  0  0  0  0  0  0  0  0  0
   10.3164  -12.4447   19.0148 C   0  0  0  0  0  0  0  0  0  0  0  0
   11.1597  -14.5258   31.0012 S   0  0  0  0  0  0  0  0  0  0  0  0
   10.3022  -14.6145   29.3937 C   0  0  0  0  0  0  0  0  0  0  0  0
   10.9682  -15.9187   28.4230 C   0  0  0  0  0  0  0  0  0  0  0  0
   10.4955  -16.1572   27.0784 C   0  0  1  0  0  0  0  0  0  0  0  0
   11.2597  -16.9552   26.0728 N   0  0  0  0  0  0  0  0  0  0  0  0
   10.2227  -17.1619   24.9816 C   0  0  0  0  0  0  0  0  0  0  0  0
   11.4618  -18.3888   26.4801 O   0  0  0  0  0  0  0  0  0  0  0  0
   10.5829  -19.3822   26.3105 O   0  0  0  0  0  0  0  0  0  0  0  0
  2  1  1  1
  2  3  1  0
  4  2  1  0
  5  4  1  0
  5  6  1  6
  7  5  1  0
  7  8  2  0
  9 10  1  0
 10 11  2  0
 12 10  1  0
 12 13  1  0
 13 14  1  0
 15 14  1  0
 16 15  1  6
 16 17  1  0
 17  7  1  0
 18 25  1  0
 18 16  1  0
 19 18  2  0
 20 21  1  0
 21 22  1  0
 22 23  1  0
 24 23  1  6
 24 25  1  0
 24 26  1  0
 26 27  1  0
 28 26  2  0
M  END
$$$$
