LRM.pdb
     RDKit          3D

 28 27  0  0  1  0  0  0  0  0999 V2000
    9.8209  -12.5662   19.7889 C   0  0  0  0  0  0  0  0  0  0  0  0
    8.6487  -12.5576   18.8097 C   0  0  2  0  0  0  0  0  0  0  0  0
    7.7508  -11.3821   19.1269 C   0  0  0  0  0  0  0  0  0  0  0  0
    7.9562  -13.8823   18.9551 C   0  0  0  0  0  0  0  0  0  0  0  0
    8.9525  -15.0187   19.0611 C   0  0  2  0  0  0  0  0  0  0  0  0
    8.9641  -15.8129   17.8467 N   0  0  0  0  0  0  0  0  0  0  0  0
    8.6024  -15.9164   20.1997 C   0  0  0  0  0  0  0  0  0  0  0  0
    7.8203  -16.9009   20.0015 O   0  0  0  0  0  0  0  0  0  0  0  0
    9.6166  -22.9986   21.3010 N   0  0  0  0  0  0  0  0  0  0  0  0
   10.1170  -22.7774   22.6308 C   0  0  0  0  0  0  0  0  0  0  0  0
   10.0010  -23.7384   23.4764 N   0  0  0  0  0  0  0  0  0  0  0  0
   10.7041  -21.5377   22.9531 N   0  0  0  0  0  0  0  0  0  0  0  0
   10.6300  -20.4182   22.0514 C   0  0  0  0  0  0  0  0  0  0  0  0
    9.9187  -19.2433   22.7329 C   0  0  0  0  0  0  0  0  0  0  0  0
    9.8186  -18.0599   21.8060 C   0  0  0  0  0  0  0  0  0  0  0  0
    9.1264  -16.8616   22.4167 C   0  0  2  0  0  0  0  0  0  0  0  0
    9.0918  -15.7459   21.5171 N   0  0  0  0  0  0  0  0  0  0  0  0
    9.7386  -16.4668   23.7355 C   0  0  0  0  0  0  0  0  0  0  0  0
   10.9566  -16.1724   23.8177 O   0  0  0  0  0  0  0  0  0  0  0  0
   10.2209  -23.6193   24.4797 C   0  0  0  0  0  0  0  0  0  0  0  0
    6.3214  -11.4026   26.4883 S   0  0  0  0  0  0  0  0  0  0  0  0
    6.5930  -13.0709   27.1743 C   0  0  0  0  0  0  0  0  0  0  0  0
    7.9713  -13.8301   26.3930 C   0  0  0  0  0  0  0  0  0  0  0  0
    8.4138  -15.1477   26.7884 C   0  0  2  0  0  0  0  0  0  0  0  0
    9.5846  -15.8374   26.1671 N   0  0  0  0  0  0  0  0  0  0  0  0
    8.9736  -16.4158   24.9018 C   0  0  0  0  0  0  0  0  0  0  0  0
    9.9543  -17.1210   26.8582 O   0  0  0  0  0  0  0  0  0  0  0  0
   10.8292  -17.2460   27.8618 O   0  0  0  0  0  0  0  0  0  0  0  0
  2  1  1  1
  2  3  1  0
  4  2  1  0
  5  4  1  0
  5  6  1  6
  7  5  1  0
  7  8  2  0
  9 10  1  0
 10 11  2  0
 12 10  1  0
 12 13  1  0
 13 14  1  0
 15 14  1  0
 16 15  1  6
 16 17  1  0
 17  7  1  0
 18 25  1  0
 18 16  1  0
 19 18  2  0
 20 21  1  0
 21 22  1  0
 22 23  1  0
 24 23  1  6
 24 25  1  0
 24 26  1  0
 26 27  1  0
 28 26  2  0
M  END
$$$$
