LRM.pdb
     RDKit          3D

 28 27  0  0  1  0  0  0  0  0999 V2000
    7.3121  -10.9879   26.0596 C   0  0  0  0  0  0  0  0  0  0  0  0
    6.1244  -11.9362   25.9076 C   0  0  2  0  0  0  0  0  0  0  0  0
    5.3540  -11.9729   27.2091 C   0  0  0  0  0  0  0  0  0  0  0  0
    6.6876  -13.2734   25.5200 C   0  0  0  0  0  0  0  0  0  0  0  0
    7.8623  -13.1259   24.5746 C   0  0  2  0  0  0  0  0  0  0  0  0
    7.4988  -12.3307   23.4164 N   0  0  0  0  0  0  0  0  0  0  0  0
    8.3187  -14.4625   24.0954 C   0  0  0  0  0  0  0  0  0  0  0  0
    8.2292  -15.4683   24.8705 O   0  0  0  0  0  0  0  0  0  0  0  0
    8.6600  -14.6115   16.0100 N   0  0  0  0  0  0  0  0  0  0  0  0
    8.2247  -14.3341   17.3521 C   0  0  0  0  0  0  0  0  0  0  0  0
    8.3797  -13.1361   17.7910 N   0  0  0  0  0  0  0  0  0  0  0  0
    7.6559  -15.3668   18.1237 N   0  0  0  0  0  0  0  0  0  0  0  0
    8.4542  -16.1496   19.0302 C   0  0  0  0  0  0  0  0  0  0  0  0
    9.0791  -15.2410   20.0955 C   0  0  0  0  0  0  0  0  0  0  0  0
    9.9170  -16.0370   21.0620 C   0  0  0  0  0  0  0  0  0  0  0  0
    9.4281  -15.9730   22.4919 C   0  0  2  0  0  0  0  0  0  0  0  0
    8.8571  -14.6963   22.8070 N   0  0  0  0  0  0  0  0  0  0  0  0
   10.5109  -16.3323   23.4759 C   0  0  0  0  0  0  0  0  0  0  0  0
   11.5498  -15.6337   23.5739 O   0  0  0  0  0  0  0  0  0  0  0  0
    8.1642  -12.8747   18.7679 C   0  0  0  0  0  0  0  0  0  0  0  0
   10.4382  -14.6306   30.1469 S   0  0  0  0  0  0  0  0  0  0  0  0
   10.1994  -14.8326   28.3498 C   0  0  0  0  0  0  0  0  0  0  0  0
   10.2289  -16.5366   27.9226 C   0  0  0  0  0  0  0  0  0  0  0  0
    9.9963  -16.9632   26.5618 C   0  0  2  0  0  0  0  0  0  0  0  0
   11.0847  -17.4452   25.6589 N   0  0  0  0  0  0  0  0  0  0  0  0
   10.3928  -17.4481   24.3060 C   0  0  0  0  0  0  0  0  0  0  0  0
   11.3559  -18.9188   25.7879 O   0  0  0  0  0  0  0  0  0  0  0  0
   12.3942  -19.4710   26.4245 O   0  0  0  0  0  0  0  0  0  0  0  0
  2  1  1  1
  2  3  1  0
  4  2  1  0
  5  4  1  0
  5  6  1  6
  7  5  1  0
  7  8  2  0
  9 10  1  0
 10 11  2  0
 12 10  1  0
 12 13  1  0
 13 14  1  0
 15 14  1  0
 16 15  1  6
 16 17  1  0
 17  7  1  0
 18 25  1  0
 18 16  1  0
 19 18  2  0
 20 21  1  0
 21 22  1  0
 22 23  1  0
 24 23  1  6
 24 25  1  0
 24 26  1  0
 26 27  1  0
 28 26  2  0
M  END
$$$$
