LRM.pdb
     RDKit          3D

 28 27  0  0  1  0  0  0  0  0999 V2000
    9.1818  -12.6868   18.7789 C   0  0  0  0  0  0  0  0  0  0  0  0
    7.8026  -13.2783   19.0629 C   0  0  2  0  0  0  0  0  0  0  0  0
    6.8464  -12.1566   19.4036 C   0  0  0  0  0  0  0  0  0  0  0  0
    7.9782  -14.2619   20.1842 C   0  0  0  0  0  0  0  0  0  0  0  0
    8.9176  -15.3845   19.7933 C   0  0  2  0  0  0  0  0  0  0  0  0
    8.4005  -16.1199   18.6541 N   0  0  0  0  0  0  0  0  0  0  0  0
    9.0884  -16.3412   20.9248 C   0  0  0  0  0  0  0  0  0  0  0  0
    8.7446  -17.5572   20.7723 O   0  0  0  0  0  0  0  0  0  0  0  0
   12.0679  -21.9026   20.7725 N   0  0  0  0  0  0  0  0  0  0  0  0
   12.2428  -22.0606   22.1910 C   0  0  0  0  0  0  0  0  0  0  0  0
   11.7790  -23.1309   22.7309 N   0  0  0  0  0  0  0  0  0  0  0  0
   12.9027  -21.0546   22.9243 N   0  0  0  0  0  0  0  0  0  0  0  0
   12.8908  -19.6825   22.4895 C   0  0  0  0  0  0  0  0  0  0  0  0
   11.7979  -18.9068   23.2343 C   0  0  0  0  0  0  0  0  0  0  0  0
   11.2389  -17.8012   22.3770 C   0  0  0  0  0  0  0  0  0  0  0  0
   10.1525  -16.9938   23.0520 C   0  0  2  0  0  0  0  0  0  0  0  0
    9.6199  -15.9822   22.1869 N   0  0  0  0  0  0  0  0  0  0  0  0
   10.6198  -16.3938   24.3526 C   0  0  0  0  0  0  0  0  0  0  0  0
   11.3582  -17.0437   25.1331 O   0  0  0  0  0  0  0  0  0  0  0  0
   11.9446  -23.3633   23.7247 C   0  0  0  0  0  0  0  0  0  0  0  0
    5.5161  -11.7310   26.9458 S   0  0  0  0  0  0  0  0  0  0  0  0
    7.1091  -12.3979   26.3583 C   0  0  0  0  0  0  0  0  0  0  0  0
    6.8462  -13.8687   25.4341 C   0  0  0  0  0  0  0  0  0  0  0  0
    7.9617  -14.6621   24.9713 C   0  0  2  0  0  0  0  0  0  0  0  0
    9.1823  -14.9152   25.7949 N   0  0  0  0  0  0  0  0  0  0  0  0
   10.2482  -15.1019   24.7281 C   0  0  0  0  0  0  0  0  0  0  0  0
    9.2148  -16.2902   26.4034 O   0  0  0  0  0  0  0  0  0  0  0  0
   10.0050  -16.6831   27.4081 O   0  0  0  0  0  0  0  0  0  0  0  0
  2  1  1  1
  2  3  1  0
  4  2  1  0
  5  4  1  0
  5  6  1  6
  7  5  1  0
  7  8  2  0
  9 10  1  0
 10 11  2  0
 12 10  1  0
 12 13  1  0
 13 14  1  0
 15 14  1  0
 16 15  1  6
 16 17  1  0
 17  7  1  0
 18 25  1  0
 18 16  1  0
 19 18  2  0
 20 21  1  0
 21 22  1  0
 22 23  1  0
 24 23  1  1
 24 25  1  0
 24 26  1  0
 26 27  1  0
 28 26  2  0
M  END
$$$$
