LRM.pdb
     RDKit          3D

 28 27  0  0  1  0  0  0  0  0999 V2000
    8.9842  -13.4406   18.4294 C   0  0  0  0  0  0  0  0  0  0  0  0
    7.6444  -13.4530   19.1625 C   0  0  2  0  0  0  0  0  0  0  0  0
    7.2768  -12.0350   19.5404 C   0  0  0  0  0  0  0  0  0  0  0  0
    7.8127  -14.3536   20.3526 C   0  0  0  0  0  0  0  0  0  0  0  0
    8.2122  -15.7539   19.9344 C   0  0  2  0  0  0  0  0  0  0  0  0
    7.1094  -16.4340   19.2807 N   0  0  0  0  0  0  0  0  0  0  0  0
    8.6154  -16.5595   21.1231 C   0  0  0  0  0  0  0  0  0  0  0  0
    7.7425  -17.2619   21.7273 O   0  0  0  0  0  0  0  0  0  0  0  0
   13.9530  -20.3244   20.3268 N   0  0  0  0  0  0  0  0  0  0  0  0
   12.8937  -21.2592   20.0589 C   0  0  0  0  0  0  0  0  0  0  0  0
   12.9566  -21.9302   18.9645 N   0  0  0  0  0  0  0  0  0  0  0  0
   11.8440  -21.4021   20.9878 N   0  0  0  0  0  0  0  0  0  0  0  0
   11.6690  -20.4672   22.0682 C   0  0  0  0  0  0  0  0  0  0  0  0
   11.7878  -19.0317   21.5427 C   0  0  0  0  0  0  0  0  0  0  0  0
   11.6282  -18.0319   22.6583 C   0  0  0  0  0  0  0  0  0  0  0  0
   10.2388  -17.4421   22.7568 C   0  0  2  0  0  0  0  0  0  0  0  0
    9.9335  -16.5987   21.6383 N   0  0  0  0  0  0  0  0  0  0  0  0
   10.0278  -16.7067   24.0547 C   0  0  0  0  0  0  0  0  0  0  0  0
   10.3454  -17.2307   25.1508 O   0  0  0  0  0  0  0  0  0  0  0  0
   12.2217  -22.6026   18.6871 C   0  0  0  0  0  0  0  0  0  0  0  0
    6.7918  -10.7508   26.7544 S   0  0  0  0  0  0  0  0  0  0  0  0
    6.0511  -12.2677   26.0633 C   0  0  0  0  0  0  0  0  0  0  0  0
    7.1021  -13.6441   26.3589 C   0  0  0  0  0  0  0  0  0  0  0  0
    7.8361  -14.2614   25.2780 C   0  0  1  0  0  0  0  0  0  0  0  0
    9.2449  -14.7394   25.4148 N   0  0  0  0  0  0  0  0  0  0  0  0
    9.4755  -15.4251   24.0785 C   0  0  0  0  0  0  0  0  0  0  0  0
    9.3830  -15.9333   26.3189 O   0  0  0  0  0  0  0  0  0  0  0  0
    9.4290  -17.2110   25.9271 O   0  0  0  0  0  0  0  0  0  0  0  0
  2  1  1  1
  2  3  1  0
  4  2  1  0
  5  4  1  0
  5  6  1  1
  7  5  1  0
  7  8  2  0
  9 10  1  0
 10 11  2  0
 12 10  1  0
 12 13  1  0
 13 14  1  0
 15 14  1  0
 16 15  1  6
 16 17  1  0
 17  7  1  0
 18 25  1  0
 18 16  1  0
 19 18  2  0
 20 21  1  0
 21 22  1  0
 22 23  1  0
 24 23  1  6
 24 25  1  0
 24 26  1  0
 26 27  1  0
 28 26  2  0
M  END
$$$$
