LRM.pdb
     RDKit          3D

 28 27  0  0  1  0  0  0  0  0999 V2000
    8.9737  -12.2641   18.6688 C   0  0  0  0  0  0  0  0  0  0  0  0
    7.7590  -13.1704   18.4792 C   0  0  2  0  0  0  0  0  0  0  0  0
    6.5771  -12.3271   18.0542 C   0  0  0  0  0  0  0  0  0  0  0  0
    7.5384  -13.8747   19.7872 C   0  0  0  0  0  0  0  0  0  0  0  0
    8.8220  -14.4879   20.3086 C   0  0  2  0  0  0  0  0  0  0  0  0
    9.4674  -15.2883   19.2845 N   0  0  0  0  0  0  0  0  0  0  0  0
    8.5427  -15.3689   21.4792 C   0  0  0  0  0  0  0  0  0  0  0  0
    7.8613  -14.9155   22.4541 O   0  0  0  0  0  0  0  0  0  0  0  0
    9.2812  -20.1526   18.6005 N   0  0  0  0  0  0  0  0  0  0  0  0
    8.1207  -20.9844   18.7713 C   0  0  0  0  0  0  0  0  0  0  0  0
    7.4276  -21.2588   17.7244 N   0  0  0  0  0  0  0  0  0  0  0  0
    7.7909  -21.4585   20.0565 N   0  0  0  0  0  0  0  0  0  0  0  0
    8.4698  -20.9736   21.2295 C   0  0  0  0  0  0  0  0  0  0  0  0
    8.2492  -19.4634   21.3753 C   0  0  0  0  0  0  0  0  0  0  0  0
    8.9511  -18.9293   22.5968 C   0  0  0  0  0  0  0  0  0  0  0  0
    8.7808  -17.4398   22.7976 C   0  0  2  0  0  0  0  0  0  0  0  0
    8.9931  -16.7070   21.5837 N   0  0  0  0  0  0  0  0  0  0  0  0
    9.6618  -16.9140   23.9009 C   0  0  0  0  0  0  0  0  0  0  0  0
   10.7551  -16.3539   23.6405 O   0  0  0  0  0  0  0  0  0  0  0  0
    6.5945  -21.8703   17.7595 C   0  0  0  0  0  0  0  0  0  0  0  0
    6.8675  -11.7665   28.3425 S   0  0  0  0  0  0  0  0  0  0  0  0
    7.0567  -12.8090   26.8577 C   0  0  0  0  0  0  0  0  0  0  0  0
    8.2999  -14.0217   27.1234 C   0  0  0  0  0  0  0  0  0  0  0  0
    8.6920  -14.9247   26.0656 C   0  0  1  0  0  0  0  0  0  0  0  0
    9.7420  -15.9741   26.2340 N   0  0  0  0  0  0  0  0  0  0  0  0
    9.2909  -17.0324   25.2413 C   0  0  0  0  0  0  0  0  0  0  0  0
    9.5944  -16.7650   27.5046 O   0  0  0  0  0  0  0  0  0  0  0  0
    9.1642  -18.0279   27.5952 O   0  0  0  0  0  0  0  0  0  0  0  0
  2  1  1  1
  2  3  1  0
  4  2  1  0
  5  4  1  0
  5  6  1  6
  7  5  1  0
  7  8  2  0
  9 10  1  0
 10 11  2  0
 12 10  1  0
 12 13  1  0
 13 14  1  0
 15 14  1  0
 16 15  1  6
 16 17  1  0
 17  7  1  0
 18 25  1  0
 18 16  1  0
 19 18  2  0
 20 21  1  0
 21 22  1  0
 22 23  1  0
 24 23  1  6
 24 25  1  0
 24 26  1  0
 26 27  1  0
 28 26  2  0
M  END
$$$$
