LRM.pdb
     RDKit          3D

 28 27  0  0  1  0  0  0  0  0999 V2000
    8.8963  -13.6806   20.6123 C   0  0  0  0  0  0  0  0  0  0  0  0
    8.5179  -13.4704   19.1476 C   0  0  2  0  0  0  0  0  0  0  0  0
    7.7761  -12.1586   19.0141 C   0  0  0  0  0  0  0  0  0  0  0  0
    7.6916  -14.6569   18.7414 C   0  0  0  0  0  0  0  0  0  0  0  0
    8.4905  -15.9416   18.8237 C   0  0  2  0  0  0  0  0  0  0  0  0
    7.7298  -17.0595   18.2970 N   0  0  0  0  0  0  0  0  0  0  0  0
    8.8448  -16.2471   20.2399 C   0  0  0  0  0  0  0  0  0  0  0  0
    7.9368  -16.2182   21.1315 O   0  0  0  0  0  0  0  0  0  0  0  0
   16.7445  -15.2631   22.4481 N   0  0  0  0  0  0  0  0  0  0  0  0
   15.6660  -16.1782   22.7074 C   0  0  0  0  0  0  0  0  0  0  0  0
   15.0670  -16.0842   23.8407 N   0  0  0  0  0  0  0  0  0  0  0  0
   15.3123  -17.1279   21.7285 N   0  0  0  0  0  0  0  0  0  0  0  0
   14.1437  -17.9551   21.8768 C   0  0  0  0  0  0  0  0  0  0  0  0
   12.8811  -17.0854   21.8592 C   0  0  0  0  0  0  0  0  0  0  0  0
   11.6445  -17.9224   22.0598 C   0  0  0  0  0  0  0  0  0  0  0  0
   10.3544  -17.1373   21.9754 C   0  0  2  0  0  0  0  0  0  0  0  0
   10.1524  -16.5756   20.6719 N   0  0  0  0  0  0  0  0  0  0  0  0
   10.2716  -16.0707   23.0363 C   0  0  0  0  0  0  0  0  0  0  0  0
   10.8599  -14.9708   22.8910 O   0  0  0  0  0  0  0  0  0  0  0  0
   14.3508  -16.7656   24.1438 C   0  0  0  0  0  0  0  0  0  0  0  0
    6.0111  -11.4037   27.0206 S   0  0  0  0  0  0  0  0  0  0  0  0
    6.1954  -12.8477   25.9214 C   0  0  0  0  0  0  0  0  0  0  0  0
    7.8131  -13.5173   26.0670 C   0  0  0  0  0  0  0  0  0  0  0  0
    8.2516  -14.5895   25.2030 C   0  0  1  0  0  0  0  0  0  0  0  0
    9.5992  -15.2257   25.3093 N   0  0  0  0  0  0  0  0  0  0  0  0
    9.5409  -16.2715   24.2084 C   0  0  0  0  0  0  0  0  0  0  0  0
    9.7335  -16.1402   26.4958 O   0  0  0  0  0  0  0  0  0  0  0  0
   10.2671  -15.8153   27.6781 O   0  0  0  0  0  0  0  0  0  0  0  0
  2  1  1  1
  2  3  1  0
  4  2  1  0
  5  4  1  0
  5  6  1  1
  7  5  1  0
  7  8  2  0
  9 10  1  0
 10 11  2  0
 12 10  1  0
 12 13  1  0
 13 14  1  0
 15 14  1  0
 16 15  1  6
 16 17  1  0
 17  7  1  0
 18 25  1  0
 18 16  1  0
 19 18  2  0
 20 21  1  0
 21 22  1  0
 22 23  1  0
 24 23  1  6
 24 25  1  0
 24 26  1  0
 26 27  1  0
 28 26  2  0
M  END
$$$$
