RGH.pdb
     RDKit          3D

 26 26  0  0  1  0  0  0  0  0999 V2000
   30.8664  -25.4989  -16.2285 N   0  0  0  0  0  0  0  0  0  0  0  0
   29.4859  -25.7333  -16.4123 C   0  0  0  0  0  0  0  0  0  0  0  0
   28.9240  -26.6895  -15.7437 N   0  0  0  0  0  0  0  0  0  0  0  0
   28.6686  -24.9651  -17.3044 N   0  0  0  0  0  0  0  0  0  0  0  0
   29.1894  -23.8714  -18.0765 C   0  0  0  0  0  0  0  0  0  0  0  0
   29.6513  -22.7110  -17.2752 C   0  0  0  0  0  0  0  0  0  0  0  0
   28.5767  -22.0367  -16.4970 C   0  0  0  0  0  0  0  0  0  0  0  0
   28.0982  -20.7677  -17.1738 C   0  0  2  0  0  0  0  0  0  0  0  0
   29.0168  -20.2064  -18.0988 N   0  0  0  0  0  0  0  0  0  0  0  0
   27.7222  -19.7972  -16.1402 C   0  0  0  0  0  0  0  0  0  0  0  0
   28.5579  -19.4919  -15.2624 O   0  0  0  0  0  0  0  0  0  0  0  0
   27.9263  -26.9175  -15.8270 N   0  0  0  0  0  0  0  0  0  0  0  0
   26.4271  -19.2248  -16.1511 C   0  0  0  0  0  0  0  0  0  0  0  0
   25.4490  -19.4240  -15.1273 C   0  0  0  0  0  0  0  0  0  0  0  0
   24.2422  -18.6296  -15.3779 O   0  0  0  0  0  0  0  0  0  0  0  0
   24.2971  -17.7385  -16.2865 N   0  0  0  0  0  0  0  0  0  0  0  0
   23.0589  -18.8205  -14.6672 C   0  0  1  0  0  0  0  0  0  0  0  0
   21.7892  -18.9893  -15.3772 C   0  0  0  0  0  0  0  0  0  0  0  0
   21.8870  -20.1123  -16.3535 C   0  0  0  0  0  0  0  0  0  0  0  0
   20.6353  -20.2382  -17.1202 C   0  0  0  0  0  0  0  0  0  0  0  0
   19.7243  -19.2855  -17.5120 N   0  0  0  0  0  0  0  0  0  0  0  0
   18.6970  -19.8481  -18.1867 C   0  0  0  0  0  0  0  0  0  0  0  0
   18.9539  -21.1604  -18.2245 N   0  0  0  0  0  0  0  0  0  0  0  0
   20.1118  -21.4094  -17.5895 C   0  0  0  0  0  0  0  0  0  0  0  0
   20.7309  -19.1799  -14.3748 O   0  0  0  0  0  0  0  0  0  0  0  0
   19.4430  -18.7723  -14.6385 O   0  0  0  0  0  0  0  0  0  0  0  0
  2  1  1  0
  3  2  2  0
  4  2  1  0
  5  4  1  0
  6  5  1  0
  6  7  1  0
  7  8  1  0
  8  9  1  1
 10  8  1  0
 11 10  2  0
 12 10  1  0
 13 12  1  0
 14 13  1  0
 14 16  1  0
 15 14  2  0
 17 16  1  0
 17 24  1  0
 17 18  1  6
 19 18  1  0
 19 20  2  0
 21 20  1  0
 22 21  1  0
 23 22  2  0
 23 19  1  0
 24 26  2  0
 24 25  1  0
M  END
$$$$
