RGH.pdb
     RDKit          3D

 26 26  0  0  1  0  0  0  0  0999 V2000
   27.1468  -25.4943  -16.6099 N   0  0  0  0  0  0  0  0  0  0  0  0
   28.0932  -25.7788  -17.6187 C   0  0  0  0  0  0  0  0  0  0  0  0
   28.0246  -26.9178  -18.2311 N   0  0  0  0  0  0  0  0  0  0  0  0
   29.1318  -24.8692  -18.0033 N   0  0  0  0  0  0  0  0  0  0  0  0
   29.2561  -23.5568  -17.4327 C   0  0  0  0  0  0  0  0  0  0  0  0
   28.4583  -22.5066  -18.1128 C   0  0  0  0  0  0  0  0  0  0  0  0
   28.6164  -21.1450  -17.5332 C   0  0  0  0  0  0  0  0  0  0  0  0
   28.0186  -21.0478  -16.1438 C   0  0  2  0  0  0  0  0  0  0  0  0
   27.6934  -22.2950  -15.5496 N   0  0  0  0  0  0  0  0  0  0  0  0
   26.8510  -20.1614  -16.1958 C   0  0  0  0  0  0  0  0  0  0  0  0
   27.0101  -18.9681  -16.5315 O   0  0  0  0  0  0  0  0  0  0  0  0
   28.7284  -27.2295  -18.9107 N   0  0  0  0  0  0  0  0  0  0  0  0
   25.5698  -20.6666  -15.8665 C   0  0  0  0  0  0  0  0  0  0  0  0
   24.3670  -19.8939  -15.8943 C   0  0  0  0  0  0  0  0  0  0  0  0
   23.3445  -20.4630  -15.0106 O   0  0  0  0  0  0  0  0  0  0  0  0
   23.2002  -21.7286  -15.0088 N   0  0  0  0  0  0  0  0  0  0  0  0
   22.5445  -19.6747  -14.1858 C   0  0  1  0  0  0  0  0  0  0  0  0
   21.6251  -20.2990  -13.2319 C   0  0  0  0  0  0  0  0  0  0  0  0
   21.8632  -19.7673  -11.8592 C   0  0  0  0  0  0  0  0  0  0  0  0
   23.1767  -20.2074  -11.3575 C   0  0  0  0  0  0  0  0  0  0  0  0
   24.1181  -21.0383  -11.9185 N   0  0  0  0  0  0  0  0  0  0  0  0
   25.1797  -21.1903  -11.0957 C   0  0  0  0  0  0  0  0  0  0  0  0
   24.9141  -20.4556  -10.0097 N   0  0  0  0  0  0  0  0  0  0  0  0
   23.7174  -19.8609  -10.1519 C   0  0  0  0  0  0  0  0  0  0  0  0
   20.2535  -20.0772  -13.7124 O   0  0  0  0  0  0  0  0  0  0  0  0
   19.2938  -21.0496  -13.5463 O   0  0  0  0  0  0  0  0  0  0  0  0
  2  1  1  0
  3  2  2  0
  4  2  1  0
  5  4  1  0
  6  5  1  0
  6  7  1  0
  7  8  1  0
  8  9  1  6
 10  8  1  0
 11 10  2  0
 12 10  1  0
 13 12  1  0
 14 13  1  0
 14 16  1  0
 15 14  2  0
 17 16  1  0
 17 24  1  0
 17 18  1  1
 19 18  1  0
 19 20  2  0
 21 20  1  0
 22 21  1  0
 23 22  2  0
 23 19  1  0
 24 26  2  0
 24 25  1  0
M  END
$$$$
