RGH.pdb
     RDKit          3D

 26 26  0  0  1  0  0  0  0  0999 V2000
   29.3753  -17.8000  -18.0222 N   0  0  0  0  0  0  0  0  0  0  0  0
   28.7815  -16.9463  -18.9776 C   0  0  0  0  0  0  0  0  0  0  0  0
   28.9097  -17.2354  -20.2335 N   0  0  0  0  0  0  0  0  0  0  0  0
   28.0403  -15.7700  -18.6299 N   0  0  0  0  0  0  0  0  0  0  0  0
   27.6767  -15.4617  -17.2749 C   0  0  0  0  0  0  0  0  0  0  0  0
   26.4592  -16.1552  -16.7862 C   0  0  0  0  0  0  0  0  0  0  0  0
   26.7263  -17.4369  -16.0784 C   0  0  0  0  0  0  0  0  0  0  0  0
   25.6807  -18.4875  -16.3952 C   0  0  2  0  0  0  0  0  0  0  0  0
   24.3526  -18.1256  -16.0493 N   0  0  0  0  0  0  0  0  0  0  0  0
   26.0732  -19.7484  -15.7566 C   0  0  0  0  0  0  0  0  0  0  0  0
   27.2164  -20.2060  -15.9701 O   0  0  0  0  0  0  0  0  0  0  0  0
   28.4775  -16.6798  -20.9811 N   0  0  0  0  0  0  0  0  0  0  0  0
   25.1576  -20.4245  -14.9141 C   0  0  0  0  0  0  0  0  0  0  0  0
   25.4327  -21.6623  -14.2535 C   0  0  0  0  0  0  0  0  0  0  0  0
   24.2648  -22.1426  -13.5082 O   0  0  0  0  0  0  0  0  0  0  0  0
   24.4718  -22.9021  -12.5067 N   0  0  0  0  0  0  0  0  0  0  0  0
   22.9605  -21.7957  -13.8548 C   0  0  1  0  0  0  0  0  0  0  0  0
   22.0415  -21.2701  -12.8428 C   0  0  0  0  0  0  0  0  0  0  0  0
   22.6609  -20.1160  -12.1301 C   0  0  0  0  0  0  0  0  0  0  0  0
   23.5686  -20.5918  -11.0716 C   0  0  0  0  0  0  0  0  0  0  0  0
   23.8575  -21.8667  -10.6447 N   0  0  0  0  0  0  0  0  0  0  0  0
   24.7389  -21.8448   -9.6201 C   0  0  0  0  0  0  0  0  0  0  0  0
   25.0114  -20.5547   -9.3942 N   0  0  0  0  0  0  0  0  0  0  0  0
   24.3175  -19.7919  -10.2560 C   0  0  0  0  0  0  0  0  0  0  0  0
   20.7768  -20.9310  -13.5111 O   0  0  0  0  0  0  0  0  0  0  0  0
   19.5954  -20.9350  -12.8051 O   0  0  0  0  0  0  0  0  0  0  0  0
  2  1  1  0
  3  2  2  0
  4  2  1  0
  5  4  1  0
  6  5  1  0
  6  7  1  0
  7  8  1  0
  8  9  1  1
 10  8  1  0
 11 10  2  0
 12 10  1  0
 13 12  1  0
 14 13  1  0
 14 16  1  0
 15 14  2  0
 17 16  1  0
 17 24  1  0
 17 18  1  1
 19 18  1  0
 19 20  2  0
 21 20  1  0
 22 21  1  0
 23 22  2  0
 23 19  1  0
 24 26  2  0
 24 25  1  0
M  END
$$$$
