RGH.pdb
     RDKit          3D

 26 26  0  0  1  0  0  0  0  0999 V2000
   21.8868  -13.1293  -23.5040 N   0  0  0  0  0  0  0  0  0  0  0  0
   21.5821  -14.0951  -22.5199 C   0  0  0  0  0  0  0  0  0  0  0  0
   21.2810  -15.2958  -22.9003 N   0  0  0  0  0  0  0  0  0  0  0  0
   21.5884  -13.8161  -21.1141 N   0  0  0  0  0  0  0  0  0  0  0  0
   21.9002  -12.5161  -20.5886 C   0  0  0  0  0  0  0  0  0  0  0  0
   21.7593  -12.3918  -19.1167 C   0  0  0  0  0  0  0  0  0  0  0  0
   22.0266  -11.0264  -18.5884 C   0  0  0  0  0  0  0  0  0  0  0  0
   21.8478  -10.9555  -17.0849 C   0  0  2  0  0  0  0  0  0  0  0  0
   20.9364  -11.9034  -16.5509 N   0  0  0  0  0  0  0  0  0  0  0  0
   21.4673   -9.5864  -16.7211 C   0  0  0  0  0  0  0  0  0  0  0  0
   22.2998   -8.6661  -16.8694 O   0  0  0  0  0  0  0  0  0  0  0  0
   21.0547  -16.0500  -22.2412 N   0  0  0  0  0  0  0  0  0  0  0  0
   20.1720   -9.3290  -16.2102 C   0  0  0  0  0  0  0  0  0  0  0  0
   19.6814   -8.0285  -15.8749 C   0  0  0  0  0  0  0  0  0  0  0  0
   19.7698   -7.7782  -14.4328 O   0  0  0  0  0  0  0  0  0  0  0  0
   20.2979   -8.6810  -13.7057 N   0  0  0  0  0  0  0  0  0  0  0  0
   19.3055   -6.6023  -13.8468 C   0  0  1  0  0  0  0  0  0  0  0  0
   19.4063   -6.4080  -12.3987 C   0  0  0  0  0  0  0  0  0  0  0  0
   20.8288   -6.5030  -11.9612 C   0  0  0  0  0  0  0  0  0  0  0  0
   20.9462   -6.2021  -10.5238 C   0  0  0  0  0  0  0  0  0  0  0  0
   19.9783   -5.9877   -9.5708 N   0  0  0  0  0  0  0  0  0  0  0  0
   20.5352   -5.7185   -8.3689 C   0  0  0  0  0  0  0  0  0  0  0  0
   21.8590   -5.7615   -8.5567 N   0  0  0  0  0  0  0  0  0  0  0  0
   22.1206   -6.0500   -9.8429 C   0  0  0  0  0  0  0  0  0  0  0  0
   18.7808   -5.1190  -12.0695 O   0  0  0  0  0  0  0  0  0  0  0  0
   18.1773   -4.9323  -10.8467 O   0  0  0  0  0  0  0  0  0  0  0  0
  2  1  1  0
  3  2  2  0
  4  2  1  0
  5  4  1  0
  6  5  1  0
  6  7  1  0
  7  8  1  0
  8  9  1  6
 10  8  1  0
 11 10  2  0
 12 10  1  0
 13 12  1  0
 14 13  1  0
 14 16  1  0
 15 14  2  0
 17 16  1  0
 17 24  1  0
 17 18  1  1
 19 18  1  0
 19 20  2  0
 21 20  1  0
 22 21  1  0
 23 22  2  0
 23 19  1  0
 24 26  2  0
 24 25  1  0
M  END
$$$$
