RGH.pdb
     RDKit          3D

 26 26  0  0  1  0  0  0  0  0999 V2000
   25.1114  -24.9231  -16.4574 N   0  0  0  0  0  0  0  0  0  0  0  0
   26.4238  -24.4096  -16.5470 C   0  0  0  0  0  0  0  0  0  0  0  0
   27.2346  -24.9256  -17.4150 N   0  0  0  0  0  0  0  0  0  0  0  0
   26.9095  -23.3415  -15.7240 N   0  0  0  0  0  0  0  0  0  0  0  0
   26.0970  -22.7129  -14.7199 C   0  0  0  0  0  0  0  0  0  0  0  0
   25.3696  -21.5035  -15.1782 C   0  0  0  0  0  0  0  0  0  0  0  0
   24.4616  -20.9111  -14.1585 C   0  0  0  0  0  0  0  0  0  0  0  0
   23.1788  -21.7051  -14.0127 C   0  0  2  0  0  0  0  0  0  0  0  0
   22.4291  -21.8459  -15.2096 N   0  0  0  0  0  0  0  0  0  0  0  0
   22.3720  -21.1024  -12.9461 C   0  0  0  0  0  0  0  0  0  0  0  0
   22.8797  -20.9503  -11.8142 O   0  0  0  0  0  0  0  0  0  0  0  0
   28.2178  -24.6412  -17.4985 N   0  0  0  0  0  0  0  0  0  0  0  0
   21.0391  -20.7053  -13.2119 C   0  0  0  0  0  0  0  0  0  0  0  0
   20.0985  -20.3157  -12.2080 C   0  0  0  0  0  0  0  0  0  0  0  0
   19.6889  -21.4586  -11.3857 O   0  0  0  0  0  0  0  0  0  0  0  0
   20.6058  -22.1698  -10.8602 N   0  0  0  0  0  0  0  0  0  0  0  0
   18.3515  -21.7804  -11.1636 C   0  0  1  0  0  0  0  0  0  0  0  0
   17.9964  -22.9785  -10.3998 C   0  0  0  0  0  0  0  0  0  0  0  0
   18.6201  -22.9335   -9.0461 C   0  0  0  0  0  0  0  0  0  0  0  0
   18.0569  -23.9877   -8.1846 C   0  0  0  0  0  0  0  0  0  0  0  0
   17.0323  -24.8769   -8.4095 N   0  0  0  0  0  0  0  0  0  0  0  0
   16.8292  -25.6631   -7.3289 C   0  0  0  0  0  0  0  0  0  0  0  0
   17.7252  -25.2741   -6.4149 N   0  0  0  0  0  0  0  0  0  0  0  0
   18.4678  -24.2709   -6.9131 C   0  0  0  0  0  0  0  0  0  0  0  0
   16.5299  -23.0743  -10.3622 O   0  0  0  0  0  0  0  0  0  0  0  0
   15.7553  -22.1078  -10.9623 O   0  0  0  0  0  0  0  0  0  0  0  0
  2  1  1  0
  3  2  2  0
  4  2  1  0
  5  4  1  0
  6  5  1  0
  6  7  1  0
  7  8  1  0
  8  9  1  6
 10  8  1  0
 11 10  2  0
 12 10  1  0
 13 12  1  0
 14 13  1  0
 14 16  1  0
 15 14  2  0
 17 16  1  0
 17 24  1  0
 17 18  1  6
 19 18  1  0
 19 20  2  0
 21 20  1  0
 22 21  1  0
 23 22  2  0
 23 19  1  0
 24 26  2  0
 24 25  1  0
M  END
$$$$
