RGH.pdb
     RDKit          3D

 26 26  0  0  1  0  0  0  0  0999 V2000
   31.5898  -22.9219  -11.7860 N   0  0  0  0  0  0  0  0  0  0  0  0
   31.5876  -22.1315  -10.6158 C   0  0  0  0  0  0  0  0  0  0  0  0
   32.6937  -21.5700  -10.2437 N   0  0  0  0  0  0  0  0  0  0  0  0
   30.4201  -21.9162   -9.8130 N   0  0  0  0  0  0  0  0  0  0  0  0
   29.0898  -22.0245  -10.3442 C   0  0  0  0  0  0  0  0  0  0  0  0
   28.2841  -20.7815  -10.2572 C   0  0  0  0  0  0  0  0  0  0  0  0
   26.8938  -20.9150  -10.7714 C   0  0  0  0  0  0  0  0  0  0  0  0
   26.8432  -21.6891  -12.0735 C   0  0  2  0  0  0  0  0  0  0  0  0
   27.6308  -21.1418  -13.1197 N   0  0  0  0  0  0  0  0  0  0  0  0
   25.4413  -21.8324  -12.4807 C   0  0  0  0  0  0  0  0  0  0  0  0
   24.6335  -22.3713  -11.6938 O   0  0  0  0  0  0  0  0  0  0  0  0
   32.7659  -20.9795   -9.4067 N   0  0  0  0  0  0  0  0  0  0  0  0
   25.0264  -21.3622  -13.7502 C   0  0  0  0  0  0  0  0  0  0  0  0
   23.7233  -21.5704  -14.3007 C   0  0  0  0  0  0  0  0  0  0  0  0
   22.7606  -20.5936  -13.7818 O   0  0  0  0  0  0  0  0  0  0  0  0
   22.9301  -20.1678  -12.5933 N   0  0  0  0  0  0  0  0  0  0  0  0
   21.6887  -20.1239  -14.5382 C   0  0  1  0  0  0  0  0  0  0  0  0
   20.8255  -19.0617  -14.0173 C   0  0  0  0  0  0  0  0  0  0  0  0
   20.5911  -18.0251  -15.0634 C   0  0  0  0  0  0  0  0  0  0  0  0
   19.7372  -16.9463  -14.5366 C   0  0  0  0  0  0  0  0  0  0  0  0
   19.3253  -16.6748  -13.2529 N   0  0  0  0  0  0  0  0  0  0  0  0
   18.5218  -15.5882  -13.2231 C   0  0  0  0  0  0  0  0  0  0  0  0
   18.4218  -15.1674  -14.4890 N   0  0  0  0  0  0  0  0  0  0  0  0
   19.1444  -15.9712  -15.2876 C   0  0  0  0  0  0  0  0  0  0  0  0
   19.5872  -19.6835  -13.5261 O   0  0  0  0  0  0  0  0  0  0  0  0
   18.8973  -19.1219  -12.4760 O   0  0  0  0  0  0  0  0  0  0  0  0
  2  1  1  0
  3  2  2  0
  4  2  1  0
  5  4  1  0
  6  5  1  0
  6  7  1  0
  7  8  1  0
  8  9  1  6
 10  8  1  0
 11 10  2  0
 12 10  1  0
 13 12  1  0
 14 13  1  0
 14 16  1  0
 15 14  2  0
 17 16  1  0
 17 24  1  0
 17 18  1  1
 19 18  1  0
 19 20  2  0
 21 20  1  0
 22 21  1  0
 23 22  2  0
 23 19  1  0
 24 26  2  0
 24 25  1  0
M  END
$$$$
