RGH.pdb
     RDKit          3D

 26 26  0  0  1  0  0  0  0  0999 V2000
   29.1473  -20.2337  -12.8500 N   0  0  0  0  0  0  0  0  0  0  0  0
   28.4027  -19.5589  -13.8422 C   0  0  0  0  0  0  0  0  0  0  0  0
   28.3539  -18.2652  -13.8096 N   0  0  0  0  0  0  0  0  0  0  0  0
   27.6938  -20.2330  -14.8897 N   0  0  0  0  0  0  0  0  0  0  0  0
   27.6088  -21.6651  -14.9639 C   0  0  0  0  0  0  0  0  0  0  0  0
   26.8305  -22.1814  -16.1169 C   0  0  0  0  0  0  0  0  0  0  0  0
   25.4553  -22.6356  -15.7741 C   0  0  0  0  0  0  0  0  0  0  0  0
   25.4057  -24.1225  -15.4840 C   0  0  2  0  0  0  0  0  0  0  0  0
   25.9377  -24.9451  -16.5109 N   0  0  0  0  0  0  0  0  0  0  0  0
   24.0223  -24.4932  -15.1668 C   0  0  0  0  0  0  0  0  0  0  0  0
   23.1884  -24.5739  -16.0943 O   0  0  0  0  0  0  0  0  0  0  0  0
   27.8337  -17.7087  -14.4981 N   0  0  0  0  0  0  0  0  0  0  0  0
   23.6540  -24.7517  -13.8242 C   0  0  0  0  0  0  0  0  0  0  0  0
   22.3074  -24.7524  -13.3435 C   0  0  0  0  0  0  0  0  0  0  0  0
   21.8644  -23.4000  -12.9900 O   0  0  0  0  0  0  0  0  0  0  0  0
   21.6179  -23.1585  -11.7638 N   0  0  0  0  0  0  0  0  0  0  0  0
   21.7122  -22.3899  -13.9378 C   0  0  1  0  0  0  0  0  0  0  0  0
   21.5438  -20.9981  -13.5144 C   0  0  0  0  0  0  0  0  0  0  0  0
   22.8057  -20.2340  -13.7325 C   0  0  0  0  0  0  0  0  0  0  0  0
   23.8117  -20.6024  -12.7211 C   0  0  0  0  0  0  0  0  0  0  0  0
   23.6645  -20.9891  -11.4097 N   0  0  0  0  0  0  0  0  0  0  0  0
   24.8669  -21.2135  -10.8344 C   0  0  0  0  0  0  0  0  0  0  0  0
   25.7807  -20.9693  -11.7805 N   0  0  0  0  0  0  0  0  0  0  0  0
   25.1636  -20.6020  -12.9164 C   0  0  0  0  0  0  0  0  0  0  0  0
   20.3926  -20.4399  -14.2385 O   0  0  0  0  0  0  0  0  0  0  0  0
   19.6028  -19.4779  -13.6512 O   0  0  0  0  0  0  0  0  0  0  0  0
  2  1  1  0
  3  2  2  0
  4  2  1  0
  5  4  1  0
  6  5  1  0
  6  7  1  0
  7  8  1  0
  8  9  1  6
 10  8  1  0
 11 10  2  0
 12 10  1  0
 13 12  1  0
 14 13  1  0
 14 16  1  0
 15 14  2  0
 17 16  1  0
 17 24  1  0
 17 18  1  1
 19 18  1  0
 19 20  2  0
 21 20  1  0
 22 21  1  0
 23 22  2  0
 23 19  1  0
 24 26  2  0
 24 25  1  0
M  END
$$$$
