RGH.pdb
     RDKit          3D

 26 26  0  0  1  0  0  0  0  0999 V2000
   26.1027  -17.6709  -17.0974 N   0  0  0  0  0  0  0  0  0  0  0  0
   25.8636  -18.9538  -17.6371 C   0  0  0  0  0  0  0  0  0  0  0  0
   26.8634  -19.7650  -17.7767 N   0  0  0  0  0  0  0  0  0  0  0  0
   24.5661  -19.4089  -18.0411 N   0  0  0  0  0  0  0  0  0  0  0  0
   23.5120  -19.6641  -17.0992 C   0  0  0  0  0  0  0  0  0  0  0  0
   22.9137  -18.4488  -16.4935 C   0  0  0  0  0  0  0  0  0  0  0  0
   22.5148  -18.6070  -15.0684 C   0  0  0  0  0  0  0  0  0  0  0  0
   21.4744  -19.6945  -14.8886 C   0  0  2  0  0  0  0  0  0  0  0  0
   20.2301  -19.4349  -15.5201 N   0  0  0  0  0  0  0  0  0  0  0  0
   21.3018  -19.9470  -13.4540 C   0  0  0  0  0  0  0  0  0  0  0  0
   22.3122  -20.1621  -12.7504 O   0  0  0  0  0  0  0  0  0  0  0  0
   26.7947  -20.6530  -18.2878 N   0  0  0  0  0  0  0  0  0  0  0  0
   20.0026  -19.9441  -12.8910 C   0  0  0  0  0  0  0  0  0  0  0  0
   19.7066  -20.3232  -11.5445 C   0  0  0  0  0  0  0  0  0  0  0  0
   19.3695  -21.7472  -11.4510 O   0  0  0  0  0  0  0  0  0  0  0  0
   19.2622  -22.4037  -12.5373 N   0  0  0  0  0  0  0  0  0  0  0  0
   19.1709  -22.3914  -10.2314 C   0  0  1  0  0  0  0  0  0  0  0  0
   18.7822  -23.8029  -10.1955 C   0  0  0  0  0  0  0  0  0  0  0  0
   18.9402  -24.3487   -8.8168 C   0  0  0  0  0  0  0  0  0  0  0  0
   18.3734  -25.7060   -8.7326 C   0  0  0  0  0  0  0  0  0  0  0  0
   17.6304  -26.4251   -9.6393 N   0  0  0  0  0  0  0  0  0  0  0  0
   17.2956  -27.6349   -9.1380 C   0  0  0  0  0  0  0  0  0  0  0  0
   17.8257  -27.6863   -7.9108 N   0  0  0  0  0  0  0  0  0  0  0  0
   18.4744  -26.5377   -7.6537 C   0  0  0  0  0  0  0  0  0  0  0  0
   17.4089  -23.9083  -10.7096 O   0  0  0  0  0  0  0  0  0  0  0  0
   16.9547  -25.0948  -11.2387 O   0  0  0  0  0  0  0  0  0  0  0  0
  2  1  1  0
  3  2  2  0
  4  2  1  0
  5  4  1  0
  6  5  1  0
  6  7  1  0
  7  8  1  0
  8  9  1  1
 10  8  1  0
 11 10  2  0
 12 10  1  0
 13 12  1  0
 14 13  1  0
 14 16  1  0
 15 14  2  0
 17 16  1  0
 17 24  1  0
 17 18  1  6
 19 18  1  0
 19 20  2  0
 21 20  1  0
 22 21  1  0
 23 22  2  0
 23 19  1  0
 24 26  2  0
 24 25  1  0
M  END
$$$$
