RGH.pdb
     RDKit          3D

 26 26  0  0  1  0  0  0  0  0999 V2000
   34.6173  -23.7794  -21.3753 N   0  0  0  0  0  0  0  0  0  0  0  0
   33.4931  -24.5879  -21.0978 C   0  0  0  0  0  0  0  0  0  0  0  0
   32.3366  -24.2195  -21.5493 N   0  0  0  0  0  0  0  0  0  0  0  0
   33.5640  -25.8015  -20.3388 N   0  0  0  0  0  0  0  0  0  0  0  0
   34.5831  -26.7895  -20.5599 C   0  0  0  0  0  0  0  0  0  0  0  0
   34.1484  -27.9605  -21.3609 C   0  0  0  0  0  0  0  0  0  0  0  0
   33.6102  -29.0894  -20.5540 C   0  0  0  0  0  0  0  0  0  0  0  0
   34.7130  -29.8760  -19.8740 C   0  0  2  0  0  0  0  0  0  0  0  0
   35.8969  -30.0234  -20.6427 N   0  0  0  0  0  0  0  0  0  0  0  0
   34.1772  -31.1788  -19.4651 C   0  0  0  0  0  0  0  0  0  0  0  0
   34.3870  -32.1752  -20.1899 O   0  0  0  0  0  0  0  0  0  0  0  0
   31.4845  -24.7785  -21.4237 N   0  0  0  0  0  0  0  0  0  0  0  0
   33.4347  -31.2881  -18.2644 C   0  0  0  0  0  0  0  0  0  0  0  0
   32.8408  -32.4996  -17.7912 C   0  0  0  0  0  0  0  0  0  0  0  0
   31.4342  -32.3002  -17.4281 O   0  0  0  0  0  0  0  0  0  0  0  0
   30.8895  -31.1949  -17.7508 N   0  0  0  0  0  0  0  0  0  0  0  0
   30.6895  -33.2679  -16.7567 C   0  0  2  0  0  0  0  0  0  0  0  0
   29.3042  -32.9961  -16.3671 C   0  0  0  0  0  0  0  0  0  0  0  0
   28.6972  -34.2033  -15.7363 C   0  0  0  0  0  0  0  0  0  0  0  0
   27.3054  -33.9306  -15.3371 C   0  0  0  0  0  0  0  0  0  0  0  0
   26.2381  -33.4641  -16.0681 N   0  0  0  0  0  0  0  0  0  0  0  0
   25.1390  -33.3382  -15.2915 C   0  0  0  0  0  0  0  0  0  0  0  0
   25.5067  -33.7248  -14.0648 N   0  0  0  0  0  0  0  0  0  0  0  0
   26.8020  -34.0826  -14.0764 C   0  0  0  0  0  0  0  0  0  0  0  0
   29.3030  -31.8173  -15.4886 O   0  0  0  0  0  0  0  0  0  0  0  0
   28.3718  -30.8196  -15.6665 O   0  0  0  0  0  0  0  0  0  0  0  0
  2  1  1  0
  3  2  2  0
  4  2  1  0
  5  4  1  0
  6  5  1  0
  6  7  1  0
  7  8  1  0
  8  9  1  6
 10  8  1  0
 11 10  2  0
 12 10  1  0
 13 12  1  0
 14 13  1  0
 14 16  1  0
 15 14  2  0
 17 16  1  0
 17 24  1  0
 17 18  1  1
 19 18  1  0
 19 20  2  0
 21 20  1  0
 22 21  1  0
 23 22  2  0
 23 19  1  0
 24 26  2  0
 24 25  1  0
M  END
$$$$
