RGH.pdb
     RDKit          3D

 26 26  0  0  1  0  0  0  0  0999 V2000
   18.7025  -24.4654   -6.6203 N   0  0  0  0  0  0  0  0  0  0  0  0
   17.4899  -25.1432   -6.8738 C   0  0  0  0  0  0  0  0  0  0  0  0
   16.7920  -25.5649   -5.8677 N   0  0  0  0  0  0  0  0  0  0  0  0
   16.9871  -25.3911   -8.1929 N   0  0  0  0  0  0  0  0  0  0  0  0
   17.7770  -25.1693   -9.3721 C   0  0  0  0  0  0  0  0  0  0  0  0
   17.4876  -23.8992  -10.0827 C   0  0  0  0  0  0  0  0  0  0  0  0
   18.2230  -23.7335  -11.3660 C   0  0  0  0  0  0  0  0  0  0  0  0
   19.7133  -23.5644  -11.1472 C   0  0  2  0  0  0  0  0  0  0  0  0
   20.0610  -22.7337  -10.0502 N   0  0  0  0  0  0  0  0  0  0  0  0
   20.3194  -23.0833  -12.3933 C   0  0  0  0  0  0  0  0  0  0  0  0
   20.0874  -23.6974  -13.4569 O   0  0  0  0  0  0  0  0  0  0  0  0
   15.9172  -26.0914   -5.9767 N   0  0  0  0  0  0  0  0  0  0  0  0
   21.1531  -21.9390  -12.3735 C   0  0  0  0  0  0  0  0  0  0  0  0
   21.7759  -21.3752  -13.5305 C   0  0  0  0  0  0  0  0  0  0  0  0
   21.1060  -20.1405  -13.9512 O   0  0  0  0  0  0  0  0  0  0  0  0
   20.0671  -19.7809  -13.3078 N   0  0  0  0  0  0  0  0  0  0  0  0
   21.5665  -19.3624  -15.0115 C   0  0  2  0  0  0  0  0  0  0  0  0
   20.9064  -18.0974  -15.3414 C   0  0  0  0  0  0  0  0  0  0  0  0
   21.8107  -17.2392  -16.1595 C   0  0  0  0  0  0  0  0  0  0  0  0
   21.1702  -15.9438  -16.4468 C   0  0  0  0  0  0  0  0  0  0  0  0
   20.4953  -15.0750  -15.6217 N   0  0  0  0  0  0  0  0  0  0  0  0
   20.0470  -14.0030  -16.3123 C   0  0  0  0  0  0  0  0  0  0  0  0
   20.4366  -14.1894  -17.5784 N   0  0  0  0  0  0  0  0  0  0  0  0
   21.1106  -15.3481  -17.6745 C   0  0  0  0  0  0  0  0  0  0  0  0
   19.6362  -18.4101  -16.0123 O   0  0  0  0  0  0  0  0  0  0  0  0
   18.5624  -17.5568  -15.8989 O   0  0  0  0  0  0  0  0  0  0  0  0
  2  1  1  0
  3  2  2  0
  4  2  1  0
  5  4  1  0
  6  5  1  0
  6  7  1  0
  7  8  1  0
  8  9  1  1
 10  8  1  0
 11 10  2  0
 12 10  1  0
 13 12  1  0
 14 13  1  0
 14 16  1  0
 15 14  2  0
 17 16  1  0
 17 24  1  0
 17 18  1  6
 19 18  1  0
 19 20  2  0
 21 20  1  0
 22 21  1  0
 23 22  2  0
 23 19  1  0
 24 26  2  0
 24 25  1  0
M  END
$$$$
