RGH.pdb
     RDKit          3D

 26 26  0  0  1  0  0  0  0  0999 V2000
   31.4870  -21.6707   -9.3662 N   0  0  0  0  0  0  0  0  0  0  0  0
   30.5345  -22.0664  -10.3308 C   0  0  0  0  0  0  0  0  0  0  0  0
   30.9262  -22.7930  -11.3286 N   0  0  0  0  0  0  0  0  0  0  0  0
   29.1493  -21.7047  -10.2643 N   0  0  0  0  0  0  0  0  0  0  0  0
   28.2970  -21.7058  -11.4207 C   0  0  0  0  0  0  0  0  0  0  0  0
   28.6581  -20.7083  -12.4582 C   0  0  0  0  0  0  0  0  0  0  0  0
   27.4949  -20.1350  -13.1886 C   0  0  0  0  0  0  0  0  0  0  0  0
   26.1814  -20.7228  -12.7125 C   0  0  2  0  0  0  0  0  0  0  0  0
   26.1596  -22.1397  -12.6340 N   0  0  0  0  0  0  0  0  0  0  0  0
   25.1033  -20.2197  -13.5705 C   0  0  0  0  0  0  0  0  0  0  0  0
   24.8972  -18.9882  -13.6259 O   0  0  0  0  0  0  0  0  0  0  0  0
   30.3083  -23.0527  -12.1066 N   0  0  0  0  0  0  0  0  0  0  0  0
   24.3167  -21.1297  -14.3175 C   0  0  0  0  0  0  0  0  0  0  0  0
   23.2537  -20.7463  -15.1935 C   0  0  0  0  0  0  0  0  0  0  0  0
   22.0734  -20.3065  -14.4427 O   0  0  0  0  0  0  0  0  0  0  0  0
   22.2372  -19.9674  -13.2259 N   0  0  0  0  0  0  0  0  0  0  0  0
   20.8030  -20.2463  -15.0122 C   0  0  1  0  0  0  0  0  0  0  0  0
   19.6443  -19.8748  -14.1972 C   0  0  0  0  0  0  0  0  0  0  0  0
   18.8483  -18.8154  -14.8811 C   0  0  0  0  0  0  0  0  0  0  0  0
   19.6270  -17.5684  -14.9778 C   0  0  0  0  0  0  0  0  0  0  0  0
   20.3408  -17.0362  -16.0259 N   0  0  0  0  0  0  0  0  0  0  0  0
   20.9273  -15.8719  -15.6689 C   0  0  0  0  0  0  0  0  0  0  0  0
   20.5869  -15.6624  -14.3923 N   0  0  0  0  0  0  0  0  0  0  0  0
   19.8080  -16.6706  -13.9644 C   0  0  0  0  0  0  0  0  0  0  0  0
   18.8733  -21.0959  -13.9219 O   0  0  0  0  0  0  0  0  0  0  0  0
   18.1478  -21.2114  -12.7581 O   0  0  0  0  0  0  0  0  0  0  0  0
  2  1  1  0
  3  2  2  0
  4  2  1  0
  5  4  1  0
  6  5  1  0
  6  7  1  0
  7  8  1  0
  8  9  1  6
 10  8  1  0
 11 10  2  0
 12 10  1  0
 13 12  1  0
 14 13  1  0
 14 16  1  0
 15 14  2  0
 17 16  1  0
 17 24  1  0
 17 18  1  1
 19 18  1  0
 19 20  2  0
 21 20  1  0
 22 21  1  0
 23 22  2  0
 23 19  1  0
 24 26  2  0
 24 25  1  0
M  END
$$$$
