KIQ.pdb
     RDKit          3D

 27 26  0  0  1  0  0  0  0  0999 V2000
   28.3937  -21.5313  -15.5001 N   0  0  0  0  0  0  0  0  0  0  0  0
   27.7407  -20.4695  -14.8249 C   0  0  1  0  0  0  0  0  0  0  0  0
   27.2542  -19.3241  -15.5588 C   0  0  0  0  0  0  0  0  0  0  0  0
   27.9134  -18.4727  -16.5016 C   0  0  0  0  0  0  0  0  0  0  0  0
   29.3135  -18.1898  -16.6220 C   0  0  0  0  0  0  0  0  0  0  0  0
   29.9251  -17.3088  -17.6236 C   0  0  0  0  0  0  0  0  0  0  0  0
   29.4784  -17.2053  -18.9349 N   0  0  0  0  0  0  0  0  0  0  0  0
   26.6164  -21.0060  -13.9624 C   0  0  0  0  0  0  0  0  0  0  0  0
   25.9496  -21.9485  -14.4600 O   0  0  0  0  0  0  0  0  0  0  0  0
   26.9193  -20.4244   -8.5741 C   0  0  0  0  0  0  0  0  0  0  0  0
   26.5595  -21.1626   -9.8676 C   0  0  0  0  0  0  0  0  0  0  0  0
   25.3155  -20.6341  -10.4741 C   0  0  2  0  0  0  0  0  0  0  0  0
   24.0774  -20.9635   -9.6602 C   0  0  0  0  0  0  0  0  0  0  0  0
   25.1781  -21.0093  -11.9056 C   0  0  2  0  0  0  0  0  0  0  0  0
   26.3172  -20.5071  -12.6860 N   0  0  0  0  0  0  0  0  0  0  0  0
   23.9440  -20.4768  -12.4830 C   0  0  0  0  0  0  0  0  0  0  0  0
   23.8434  -19.2457  -12.6783 O   0  0  0  0  0  0  0  0  0  0  0  0
   21.0261  -22.8597  -17.0582 N   0  0  0  0  0  0  0  0  0  0  0  0
   20.0587  -21.8813  -16.6813 C   0  0  0  0  0  0  0  0  0  0  0  0
   19.0814  -21.7263  -17.4387 O   0  0  0  0  0  0  0  0  0  0  0  0
   20.2076  -21.0954  -15.4647 C   0  0  0  0  0  0  0  0  0  0  0  0
   21.4446  -21.4635  -14.7222 C   0  0  0  0  0  0  0  0  0  0  0  0
   21.6756  -20.7472  -13.4303 C   0  0  2  0  0  0  0  0  0  0  0  0
   22.8798  -21.3268  -12.8176 N   0  0  0  0  0  0  0  0  0  0  0  0
   20.5832  -20.8652  -12.4417 C   0  0  0  0  0  0  0  0  0  0  0  0
   19.5157  -19.9963  -12.4890 O   0  0  0  0  0  0  0  0  0  0  0  0
   20.5781  -21.7277  -11.5485 O   0  0  0  0  0  0  0  0  0  0  0  0
  2  1  1  6
  3  2  1  0
  4  3  1  0
  5  4  1  0
  6  5  1  0
  7  6  1  0
  8  9  2  0
  8  2  1  0
 10 11  1  0
 12 11  1  0
 12 14  1  0
 12 13  1  1
 14 15  1  6
 15  8  1  0
 16 24  1  0
 16 14  1  0
 17 16  2  0
 18 19  1  0
 19 21  1  0
 20 19  2  0
 21 22  1  0
 23 22  1  6
 23 24  1  0
 23 25  1  0
 25 26  1  0
 27 25  2  0
M  END
$$$$
