KIQ.pdb
     RDKit          3D

 27 26  0  0  1  0  0  0  0  0999 V2000
   30.4925  -23.6743  -17.8903 N   0  0  0  0  0  0  0  0  0  0  0  0
   29.1585  -23.8087  -17.4300 C   0  0  1  0  0  0  0  0  0  0  0  0
   28.6798  -25.0773  -16.9314 C   0  0  0  0  0  0  0  0  0  0  0  0
   28.5357  -26.3416  -17.5864 C   0  0  0  0  0  0  0  0  0  0  0  0
   27.4670  -26.7941  -18.4278 C   0  0  0  0  0  0  0  0  0  0  0  0
   26.3399  -27.6323  -18.0028 C   0  0  0  0  0  0  0  0  0  0  0  0
   26.4624  -28.7017  -17.1247 N   0  0  0  0  0  0  0  0  0  0  0  0
   28.8435  -22.7358  -16.4075 C   0  0  0  0  0  0  0  0  0  0  0  0
   29.7606  -22.4784  -15.5871 O   0  0  0  0  0  0  0  0  0  0  0  0
   28.2231  -17.9923  -17.6187 C   0  0  0  0  0  0  0  0  0  0  0  0
   28.4262  -19.2993  -16.8454 C   0  0  0  0  0  0  0  0  0  0  0  0
   27.2202  -19.6720  -16.0698 C   0  0  2  0  0  0  0  0  0  0  0  0
   26.7572  -18.5694  -15.1351 C   0  0  0  0  0  0  0  0  0  0  0  0
   27.3694  -20.9817  -15.3832 C   0  0  2  0  0  0  0  0  0  0  0  0
   27.6190  -22.0533  -16.3569 N   0  0  0  0  0  0  0  0  0  0  0  0
   26.1744  -21.3206  -14.6104 C   0  0  0  0  0  0  0  0  0  0  0  0
   25.1197  -21.6141  -15.2150 O   0  0  0  0  0  0  0  0  0  0  0  0
   25.9771  -21.7643   -8.3598 N   0  0  0  0  0  0  0  0  0  0  0  0
   25.6352  -20.4874   -8.8964 C   0  0  0  0  0  0  0  0  0  0  0  0
   25.6805  -19.5136   -8.1203 O   0  0  0  0  0  0  0  0  0  0  0  0
   25.2475  -20.3287  -10.2909 C   0  0  0  0  0  0  0  0  0  0  0  0
   25.2866  -21.6253  -11.0218 C   0  0  0  0  0  0  0  0  0  0  0  0
   24.9486  -21.5718  -12.4772 C   0  0  2  0  0  0  0  0  0  0  0  0
   26.1991  -21.3199  -13.2081 N   0  0  0  0  0  0  0  0  0  0  0  0
   23.9962  -20.5095  -12.8631 C   0  0  0  0  0  0  0  0  0  0  0  0
   24.4652  -19.2873  -13.2911 O   0  0  0  0  0  0  0  0  0  0  0  0
   22.7651  -20.6651  -12.8198 O   0  0  0  0  0  0  0  0  0  0  0  0
  2  1  1  1
  3  2  1  0
  4  3  1  0
  5  4  1  0
  6  5  1  0
  7  6  1  0
  8  9  2  0
  8  2  1  0
 10 11  1  0
 12 11  1  0
 12 14  1  0
 12 13  1  1
 14 15  1  6
 15  8  1  0
 16 24  1  0
 16 14  1  0
 17 16  2  0
 18 19  1  0
 19 21  1  0
 20 19  2  0
 21 22  1  0
 23 22  1  1
 23 24  1  0
 23 25  1  0
 25 26  1  0
 27 25  2  0
M  END
$$$$
