KIQ.pdb
     RDKit          3D

 27 26  0  0  1  0  0  0  0  0999 V2000
   19.6770  -21.2447  -10.8762 N   0  0  0  0  0  0  0  0  0  0  0  0
   20.3886  -21.7714  -11.9833 C   0  0  1  0  0  0  0  0  0  0  0  0
   19.6955  -22.1147  -13.2035 C   0  0  0  0  0  0  0  0  0  0  0  0
   18.7510  -23.1544  -13.4779 C   0  0  0  0  0  0  0  0  0  0  0  0
   18.9124  -24.5703  -13.3236 C   0  0  0  0  0  0  0  0  0  0  0  0
   19.6224  -25.4566  -14.2531 C   0  0  0  0  0  0  0  0  0  0  0  0
   19.8265  -26.8112  -14.0229 N   0  0  0  0  0  0  0  0  0  0  0  0
   21.5632  -20.8783  -12.3277 C   0  0  0  0  0  0  0  0  0  0  0  0
   21.3410  -19.6419  -12.2780 O   0  0  0  0  0  0  0  0  0  0  0  0
   26.6319  -21.6107  -10.6527 C   0  0  0  0  0  0  0  0  0  0  0  0
   25.2981  -21.0327  -11.1369 C   0  0  0  0  0  0  0  0  0  0  0  0
   25.2280  -20.9762  -12.6156 C   0  0  2  0  0  0  0  0  0  0  0  0
   26.4025  -20.2392  -13.2330 C   0  0  0  0  0  0  0  0  0  0  0  0
   23.9161  -20.4759  -13.1029 C   0  0  2  0  0  0  0  0  0  0  0  0
   22.8294  -21.3693  -12.6788 N   0  0  0  0  0  0  0  0  0  0  0  0
   23.8918  -20.3690  -14.5617 C   0  0  0  0  0  0  0  0  0  0  0  0
   23.9157  -21.4126  -15.2503 O   0  0  0  0  0  0  0  0  0  0  0  0
   20.8993  -15.9346  -17.4279 N   0  0  0  0  0  0  0  0  0  0  0  0
   21.4651  -16.6101  -18.5499 C   0  0  0  0  0  0  0  0  0  0  0  0
   21.1029  -16.2351  -19.6816 O   0  0  0  0  0  0  0  0  0  0  0  0
   22.4233  -17.6932  -18.3802 C   0  0  0  0  0  0  0  0  0  0  0  0
   22.6999  -17.9603  -16.9418 C   0  0  0  0  0  0  0  0  0  0  0  0
   23.6655  -19.0638  -16.6501 C   0  0  2  0  0  0  0  0  0  0  0  0
   23.8422  -19.1169  -15.1915 N   0  0  0  0  0  0  0  0  0  0  0  0
   25.0078  -18.8989  -17.2464 C   0  0  0  0  0  0  0  0  0  0  0  0
   25.2808  -19.4348  -18.4854 O   0  0  0  0  0  0  0  0  0  0  0  0
   25.9248  -18.2878  -16.6742 O   0  0  0  0  0  0  0  0  0  0  0  0
  2  1  1  1
  3  2  1  0
  4  3  1  0
  5  4  1  0
  6  5  1  0
  7  6  1  0
  8  9  2  0
  8  2  1  0
 10 11  1  0
 12 11  1  0
 12 14  1  0
 12 13  1  1
 14 15  1  6
 15  8  1  0
 16 24  1  0
 16 14  1  0
 17 16  2  0
 18 19  1  0
 19 21  1  0
 20 19  2  0
 21 22  1  0
 23 22  1  1
 23 24  1  0
 23 25  1  0
 25 26  1  0
 27 25  2  0
M  END
$$$$
