KIQ.pdb
     RDKit          3D

 27 26  0  0  1  0  0  0  0  0999 V2000
   20.1691  -19.5731  -11.3134 N   0  0  0  0  0  0  0  0  0  0  0  0
   20.8745  -20.6826  -11.8437 C   0  0  1  0  0  0  0  0  0  0  0  0
   20.3056  -21.4688  -12.9139 C   0  0  0  0  0  0  0  0  0  0  0  0
   19.0419  -22.1334  -13.0120 C   0  0  0  0  0  0  0  0  0  0  0  0
   18.4434  -23.0533  -12.0898 C   0  0  0  0  0  0  0  0  0  0  0  0
   17.1221  -23.6744  -12.2373 C   0  0  0  0  0  0  0  0  0  0  0  0
   16.9285  -25.0329  -12.4535 N   0  0  0  0  0  0  0  0  0  0  0  0
   22.2800  -20.2747  -12.2360 C   0  0  0  0  0  0  0  0  0  0  0  0
   22.4143  -19.0870  -12.6257 O   0  0  0  0  0  0  0  0  0  0  0  0
   25.6478  -19.9372   -9.7331 C   0  0  0  0  0  0  0  0  0  0  0  0
   25.4892  -21.3631  -10.2710 C   0  0  0  0  0  0  0  0  0  0  0  0
   25.7529  -21.4336  -11.7271 C   0  0  2  0  0  0  0  0  0  0  0  0
   27.1751  -21.0450  -12.0875 C   0  0  0  0  0  0  0  0  0  0  0  0
   24.7371  -20.6974  -12.5241 C   0  0  2  0  0  0  0  0  0  0  0  0
   23.3808  -21.1419  -12.1750 N   0  0  0  0  0  0  0  0  0  0  0  0
   24.9385  -20.8924  -13.9599 C   0  0  0  0  0  0  0  0  0  0  0  0
   24.9493  -22.0544  -14.4222 O   0  0  0  0  0  0  0  0  0  0  0  0
   20.9512  -21.2219  -16.8609 N   0  0  0  0  0  0  0  0  0  0  0  0
   21.7520  -21.0035  -18.0212 C   0  0  0  0  0  0  0  0  0  0  0  0
   21.1921  -21.1177  -19.1285 O   0  0  0  0  0  0  0  0  0  0  0  0
   23.1640  -20.6638  -17.9166 C   0  0  0  0  0  0  0  0  0  0  0  0
   23.5985  -20.5572  -16.4965 C   0  0  0  0  0  0  0  0  0  0  0  0
   24.9661  -19.9990  -16.2658 C   0  0  2  0  0  0  0  0  0  0  0  0
   25.1182  -19.7973  -14.8175 N   0  0  0  0  0  0  0  0  0  0  0  0
   25.2331  -18.6995  -16.9175 C   0  0  0  0  0  0  0  0  0  0  0  0
   25.4684  -18.6454  -18.2734 O   0  0  0  0  0  0  0  0  0  0  0  0
   25.2574  -17.6279  -16.2907 O   0  0  0  0  0  0  0  0  0  0  0  0
  2  1  1  6
  3  2  1  0
  4  3  1  0
  5  4  1  0
  6  5  1  0
  7  6  1  0
  8  9  2  0
  8  2  1  0
 10 11  1  0
 12 11  1  0
 12 14  1  0
 12 13  1  1
 14 15  1  1
 15  8  1  0
 16 24  1  0
 16 14  1  0
 17 16  2  0
 18 19  1  0
 19 21  1  0
 20 19  2  0
 21 22  1  0
 23 22  1  1
 23 24  1  0
 23 25  1  0
 25 26  1  0
 27 25  2  0
M  END
$$$$
