KIQ.pdb
     RDKit          3D

 27 26  0  0  1  0  0  0  0  0999 V2000
   28.0788  -21.6250  -15.7885 N   0  0  0  0  0  0  0  0  0  0  0  0
   27.4913  -20.5347  -15.0989 C   0  0  1  0  0  0  0  0  0  0  0  0
   26.9629  -19.4054  -15.8288 C   0  0  0  0  0  0  0  0  0  0  0  0
   27.5625  -18.5827  -16.8347 C   0  0  0  0  0  0  0  0  0  0  0  0
   28.9531  -18.3136  -17.0555 C   0  0  0  0  0  0  0  0  0  0  0  0
   29.5011  -17.4579  -18.1142 C   0  0  0  0  0  0  0  0  0  0  0  0
   29.0924  -17.5148  -19.4406 N   0  0  0  0  0  0  0  0  0  0  0  0
   26.4303  -21.0298  -14.1371 C   0  0  0  0  0  0  0  0  0  0  0  0
   25.7211  -21.9819  -14.5506 O   0  0  0  0  0  0  0  0  0  0  0  0
   27.0812  -20.3081   -8.8271 C   0  0  0  0  0  0  0  0  0  0  0  0
   26.6066  -21.0587  -10.0757 C   0  0  0  0  0  0  0  0  0  0  0  0
   25.3360  -20.5058  -10.5995 C   0  0  2  0  0  0  0  0  0  0  0  0
   24.1488  -20.8071   -9.7032 C   0  0  0  0  0  0  0  0  0  0  0  0
   25.0951  -20.8817  -12.0171 C   0  0  2  0  0  0  0  0  0  0  0  0
   26.2310  -20.4845  -12.8602 N   0  0  0  0  0  0  0  0  0  0  0  0
   23.8820  -20.2527  -12.5395 C   0  0  0  0  0  0  0  0  0  0  0  0
   23.9710  -19.1566  -13.1348 O   0  0  0  0  0  0  0  0  0  0  0  0
   22.3011  -18.3758  -16.2312 N   0  0  0  0  0  0  0  0  0  0  0  0
   21.0906  -19.1097  -16.4086 C   0  0  0  0  0  0  0  0  0  0  0  0
   20.2849  -18.6814  -17.2571 O   0  0  0  0  0  0  0  0  0  0  0  0
   20.8074  -20.3070  -15.6300 C   0  0  0  0  0  0  0  0  0  0  0  0
   21.8771  -20.5766  -14.6301 C   0  0  0  0  0  0  0  0  0  0  0  0
   21.5013  -20.3866  -13.1955 C   0  0  2  0  0  0  0  0  0  0  0  0
   22.6289  -20.8622  -12.3808 N   0  0  0  0  0  0  0  0  0  0  0  0
   20.3016  -21.1296  -12.7559 C   0  0  0  0  0  0  0  0  0  0  0  0
   20.4212  -22.4267  -12.3086 O   0  0  0  0  0  0  0  0  0  0  0  0
   19.1635  -20.6333  -12.7699 O   0  0  0  0  0  0  0  0  0  0  0  0
  2  1  1  6
  3  2  1  0
  4  3  1  0
  5  4  1  0
  6  5  1  0
  7  6  1  0
  8  9  2  0
  8  2  1  0
 10 11  1  0
 12 11  1  0
 12 14  1  0
 12 13  1  1
 14 15  1  6
 15  8  1  0
 16 24  1  0
 16 14  1  0
 17 16  2  0
 18 19  1  0
 19 21  1  0
 20 19  2  0
 21 22  1  0
 23 22  1  6
 23 24  1  0
 23 25  1  0
 25 26  1  0
 27 25  2  0
M  END
$$$$
