KIQ.pdb
     RDKit          3D

 27 26  0  0  1  0  0  0  0  0999 V2000
   27.2305  -22.4298  -15.8432 N   0  0  0  0  0  0  0  0  0  0  0  0
   26.5626  -21.2207  -15.5243 C   0  0  1  0  0  0  0  0  0  0  0  0
   25.9896  -20.4029  -16.5684 C   0  0  0  0  0  0  0  0  0  0  0  0
   26.5239  -19.9956  -17.8321 C   0  0  0  0  0  0  0  0  0  0  0  0
   27.4436  -18.9320  -18.1112 C   0  0  0  0  0  0  0  0  0  0  0  0
   27.2704  -17.8992  -19.1391 C   0  0  0  0  0  0  0  0  0  0  0  0
   26.0339  -17.4061  -19.5361 N   0  0  0  0  0  0  0  0  0  0  0  0
   25.5065  -21.4658  -14.4658 C   0  0  0  0  0  0  0  0  0  0  0  0
   24.6380  -22.3287  -14.7516 O   0  0  0  0  0  0  0  0  0  0  0  0
   26.7252  -20.7228   -9.2131 C   0  0  0  0  0  0  0  0  0  0  0  0
   26.1372  -21.3179  -10.4967 C   0  0  0  0  0  0  0  0  0  0  0  0
   24.8737  -20.6484  -10.8842 C   0  0  2  0  0  0  0  0  0  0  0  0
   23.7843  -20.7953   -9.8376 C   0  0  0  0  0  0  0  0  0  0  0  0
   24.4191  -21.0379  -12.2446 C   0  0  2  0  0  0  0  0  0  0  0  0
   25.4758  -20.7925  -13.2356 N   0  0  0  0  0  0  0  0  0  0  0  0
   23.2227  -20.2961  -12.6425 C   0  0  0  0  0  0  0  0  0  0  0  0
   23.3439  -19.1274  -13.0708 O   0  0  0  0  0  0  0  0  0  0  0  0
   21.4989  -20.2324  -17.3517 N   0  0  0  0  0  0  0  0  0  0  0  0
   20.2622  -19.6883  -16.8937 C   0  0  0  0  0  0  0  0  0  0  0  0
   19.4673  -19.2746  -17.7595 O   0  0  0  0  0  0  0  0  0  0  0  0
   19.9430  -19.6170  -15.4749 C   0  0  0  0  0  0  0  0  0  0  0  0
   21.0642  -20.1208  -14.6346 C   0  0  0  0  0  0  0  0  0  0  0  0
   20.8076  -20.1854  -13.1631 C   0  0  2  0  0  0  0  0  0  0  0  0
   21.9501  -20.8780  -12.5495 N   0  0  0  0  0  0  0  0  0  0  0  0
   19.5882  -20.9219  -12.7692 C   0  0  0  0  0  0  0  0  0  0  0  0
   19.6723  -22.2478  -12.4063 O   0  0  0  0  0  0  0  0  0  0  0  0
   18.4642  -20.3947  -12.7483 O   0  0  0  0  0  0  0  0  0  0  0  0
  2  1  1  6
  3  2  1  0
  4  3  1  0
  5  4  1  0
  6  5  1  0
  7  6  1  0
  8  9  2  0
  8  2  1  0
 10 11  1  0
 12 11  1  0
 12 14  1  0
 12 13  1  1
 14 15  1  6
 15  8  1  0
 16 24  1  0
 16 14  1  0
 17 16  2  0
 18 19  1  0
 19 21  1  0
 20 19  2  0
 21 22  1  0
 23 22  1  6
 23 24  1  0
 23 25  1  0
 25 26  1  0
 27 25  2  0
M  END
$$$$
