KIQ.pdb
     RDKit          3D

 27 26  0  0  1  0  0  0  0  0999 V2000
   16.6228  -13.4956  -15.3707 N   0  0  0  0  0  0  0  0  0  0  0  0
   16.7015  -12.3497  -16.2016 C   0  0  1  0  0  0  0  0  0  0  0  0
   15.5105  -11.8015  -16.8082 C   0  0  0  0  0  0  0  0  0  0  0  0
   14.5498  -12.4011  -17.6834 C   0  0  0  0  0  0  0  0  0  0  0  0
   14.7786  -13.2859  -18.7878 C   0  0  0  0  0  0  0  0  0  0  0  0
   13.7489  -13.8056  -19.6950 C   0  0  0  0  0  0  0  0  0  0  0  0
   13.2985  -15.1195  -19.6783 N   0  0  0  0  0  0  0  0  0  0  0  0
   17.4416  -11.2342  -15.4918 C   0  0  0  0  0  0  0  0  0  0  0  0
   17.1074  -11.0322  -14.2968 O   0  0  0  0  0  0  0  0  0  0  0  0
   23.0069   -9.1000  -14.8455 C   0  0  0  0  0  0  0  0  0  0  0  0
   21.5126   -8.7844  -14.7230 C   0  0  0  0  0  0  0  0  0  0  0  0
   20.6826   -9.7550  -15.4739 C   0  0  2  0  0  0  0  0  0  0  0  0
   21.1229   -9.9133  -16.9178 C   0  0  0  0  0  0  0  0  0  0  0  0
   19.2282   -9.4777  -15.3444 C   0  0  2  0  0  0  0  0  0  0  0  0
   18.4423  -10.4624  -16.1005 N   0  0  0  0  0  0  0  0  0  0  0  0
   18.8927   -8.1390  -15.8295 C   0  0  0  0  0  0  0  0  0  0  0  0
   18.6553   -7.9727  -17.0460 O   0  0  0  0  0  0  0  0  0  0  0  0
   14.3836   -5.3302  -13.9235 N   0  0  0  0  0  0  0  0  0  0  0  0
   14.9667   -4.2032  -14.5755 C   0  0  0  0  0  0  0  0  0  0  0  0
   14.2681   -3.1756  -14.6688 O   0  0  0  0  0  0  0  0  0  0  0  0
   16.3197   -4.2519  -15.1114 C   0  0  0  0  0  0  0  0  0  0  0  0
   16.9478   -5.5843  -14.8942 C   0  0  0  0  0  0  0  0  0  0  0  0
   18.3245   -5.7623  -15.4493 C   0  0  2  0  0  0  0  0  0  0  0  0
   18.8349   -7.0477  -14.9505 N   0  0  0  0  0  0  0  0  0  0  0  0
   19.3000   -4.7237  -15.0566 C   0  0  0  0  0  0  0  0  0  0  0  0
   19.3274   -3.5185  -15.7225 O   0  0  0  0  0  0  0  0  0  0  0  0
   20.1167   -4.8854  -14.1353 O   0  0  0  0  0  0  0  0  0  0  0  0
  2  1  1  1
  3  2  1  0
  4  3  1  0
  5  4  1  0
  6  5  1  0
  7  6  1  0
  8  9  2  0
  8  2  1  0
 10 11  1  0
 12 11  1  0
 12 14  1  0
 12 13  1  6
 14 15  1  6
 15  8  1  0
 16 24  1  0
 16 14  1  0
 17 16  2  0
 18 19  1  0
 19 21  1  0
 20 19  2  0
 21 22  1  0
 23 22  1  1
 23 24  1  0
 23 25  1  0
 25 26  1  0
 27 25  2  0
M  END
$$$$
