KIQ.pdb
     RDKit          3D

 27 26  0  0  1  0  0  0  0  0999 V2000
   27.9534  -21.7891  -15.7746 N   0  0  0  0  0  0  0  0  0  0  0  0
   27.2906  -20.6532  -15.2454 C   0  0  1  0  0  0  0  0  0  0  0  0
   26.7988  -19.6168  -16.1236 C   0  0  0  0  0  0  0  0  0  0  0  0
   27.4768  -18.8308  -17.1089 C   0  0  0  0  0  0  0  0  0  0  0  0
   28.7461  -18.1725  -17.0067 C   0  0  0  0  0  0  0  0  0  0  0  0
   29.3766  -17.3628  -18.0555 C   0  0  0  0  0  0  0  0  0  0  0  0
   29.7040  -17.8508  -19.3142 N   0  0  0  0  0  0  0  0  0  0  0  0
   26.1670  -21.0809  -14.3233 C   0  0  0  0  0  0  0  0  0  0  0  0
   25.4584  -22.0350  -14.7333 O   0  0  0  0  0  0  0  0  0  0  0  0
   26.8195  -20.5472   -9.0023 C   0  0  0  0  0  0  0  0  0  0  0  0
   26.3514  -21.1839  -10.3149 C   0  0  0  0  0  0  0  0  0  0  0  0
   25.0885  -20.5796  -10.7992 C   0  0  2  0  0  0  0  0  0  0  0  0
   23.9104  -20.8662   -9.8860 C   0  0  0  0  0  0  0  0  0  0  0  0
   24.8078  -20.9133  -12.2200 C   0  0  2  0  0  0  0  0  0  0  0  0
   25.9116  -20.4741  -13.0846 N   0  0  0  0  0  0  0  0  0  0  0  0
   23.5711  -20.2843  -12.6839 C   0  0  0  0  0  0  0  0  0  0  0  0
   23.5180  -19.0383  -12.7765 O   0  0  0  0  0  0  0  0  0  0  0  0
   20.9919  -18.5669  -16.3940 N   0  0  0  0  0  0  0  0  0  0  0  0
   19.7098  -19.1376  -16.1379 C   0  0  0  0  0  0  0  0  0  0  0  0
   18.7219  -18.5633  -16.6348 O   0  0  0  0  0  0  0  0  0  0  0  0
   19.5611  -20.3388  -15.3284 C   0  0  0  0  0  0  0  0  0  0  0  0
   20.8705  -20.8063  -14.7955 C   0  0  0  0  0  0  0  0  0  0  0  0
   21.2069  -20.3764  -13.4036 C   0  0  2  0  0  0  0  0  0  0  0  0
   22.4524  -21.0589  -13.0236 N   0  0  0  0  0  0  0  0  0  0  0  0
   20.1954  -20.7126  -12.3797 C   0  0  0  0  0  0  0  0  0  0  0  0
   19.1632  -19.8389  -12.1194 O   0  0  0  0  0  0  0  0  0  0  0  0
   20.2289  -21.7676  -11.7256 O   0  0  0  0  0  0  0  0  0  0  0  0
  2  1  1  6
  3  2  1  0
  4  3  1  0
  5  4  1  0
  6  5  1  0
  7  6  1  0
  8  9  2  0
  8  2  1  0
 10 11  1  0
 12 11  1  0
 12 14  1  0
 12 13  1  1
 14 15  1  6
 15  8  1  0
 16 24  1  0
 16 14  1  0
 17 16  2  0
 18 19  1  0
 19 21  1  0
 20 19  2  0
 21 22  1  0
 23 22  1  6
 23 24  1  0
 23 25  1  0
 25 26  1  0
 27 25  2  0
M  END
$$$$
