KIQ.pdb
     RDKit          3D

 27 26  0  0  1  0  0  0  0  0999 V2000
   24.5161  -15.8733  -18.6471 N   0  0  0  0  0  0  0  0  0  0  0  0
   24.6567  -14.5237  -19.0573 C   0  0  1  0  0  0  0  0  0  0  0  0
   23.8123  -13.9822  -20.0970 C   0  0  0  0  0  0  0  0  0  0  0  0
   23.1534  -14.6261  -21.1922 C   0  0  0  0  0  0  0  0  0  0  0  0
   23.5642  -14.6973  -22.5637 C   0  0  0  0  0  0  0  0  0  0  0  0
   22.7957  -15.3046  -23.6564 C   0  0  0  0  0  0  0  0  0  0  0  0
   21.7696  -16.2204  -23.4612 N   0  0  0  0  0  0  0  0  0  0  0  0
   24.6012  -13.6000  -17.8574 C   0  0  0  0  0  0  0  0  0  0  0  0
   23.8901  -13.9939  -16.8984 O   0  0  0  0  0  0  0  0  0  0  0  0
   29.0236  -11.3355  -16.0932 C   0  0  0  0  0  0  0  0  0  0  0  0
   27.6229  -11.9557  -16.1252 C   0  0  0  0  0  0  0  0  0  0  0  0
   26.5718  -10.9296  -16.3178 C   0  0  2  0  0  0  0  0  0  0  0  0
   26.5344   -9.9073  -15.1966 C   0  0  0  0  0  0  0  0  0  0  0  0
   25.2394  -11.5270  -16.5946 C   0  0  2  0  0  0  0  0  0  0  0  0
   25.2907  -12.3803  -17.7897 N   0  0  0  0  0  0  0  0  0  0  0  0
   24.2220  -10.4959  -16.7991 C   0  0  0  0  0  0  0  0  0  0  0  0
   24.2547   -9.8046  -17.8406 O   0  0  0  0  0  0  0  0  0  0  0  0
   18.4239  -11.1724  -16.0879 N   0  0  0  0  0  0  0  0  0  0  0  0
   18.4371   -9.7462  -16.1199 C   0  0  0  0  0  0  0  0  0  0  0  0
   17.3345   -9.1681  -16.1726 O   0  0  0  0  0  0  0  0  0  0  0  0
   19.6856   -8.9975  -16.0945 C   0  0  0  0  0  0  0  0  0  0  0  0
   20.8671   -9.9028  -16.0553 C   0  0  0  0  0  0  0  0  0  0  0  0
   22.2066   -9.2408  -16.1068 C   0  0  2  0  0  0  0  0  0  0  0  0
   23.2171  -10.2763  -15.8457 N   0  0  0  0  0  0  0  0  0  0  0  0
   22.4160   -8.1668  -15.1132 C   0  0  0  0  0  0  0  0  0  0  0  0
   21.9783   -6.8884  -15.3795 O   0  0  0  0  0  0  0  0  0  0  0  0
   22.9802   -8.3617  -14.0245 O   0  0  0  0  0  0  0  0  0  0  0  0
  2  1  1  1
  3  2  1  0
  4  3  1  0
  5  4  1  0
  6  5  1  0
  7  6  1  0
  8  9  2  0
  8  2  1  0
 10 11  1  0
 12 11  1  0
 12 14  1  0
 12 13  1  1
 14 15  1  6
 15  8  1  0
 16 24  1  0
 16 14  1  0
 17 16  2  0
 18 19  1  0
 19 21  1  0
 20 19  2  0
 21 22  1  0
 23 22  1  1
 23 24  1  0
 23 25  1  0
 25 26  1  0
 27 25  2  0
M  END
$$$$
