KIQ.pdb
     RDKit          3D

 27 26  0  0  1  0  0  0  0  0999 V2000
   22.0925  -15.7503  -16.6721 N   0  0  0  0  0  0  0  0  0  0  0  0
   22.2669  -14.5696  -17.4371 C   0  0  1  0  0  0  0  0  0  0  0  0
   21.2464  -14.1408  -18.3655 C   0  0  0  0  0  0  0  0  0  0  0  0
   20.4384  -14.8941  -19.2755 C   0  0  0  0  0  0  0  0  0  0  0  0
   20.8461  -15.9135  -20.1972 C   0  0  0  0  0  0  0  0  0  0  0  0
   19.9618  -16.6382  -21.1171 C   0  0  0  0  0  0  0  0  0  0  0  0
   18.9562  -16.0312  -21.8586 N   0  0  0  0  0  0  0  0  0  0  0  0
   22.6219  -13.4051  -16.5351 C   0  0  0  0  0  0  0  0  0  0  0  0
   21.8783  -13.2441  -15.5343 O   0  0  0  0  0  0  0  0  0  0  0  0
   27.7591  -12.1697  -15.5919 C   0  0  0  0  0  0  0  0  0  0  0  0
   26.2485  -12.3919  -15.4642 C   0  0  0  0  0  0  0  0  0  0  0  0
   25.4816  -11.1787  -15.8310 C   0  0  2  0  0  0  0  0  0  0  0  0
   25.8473   -9.9727  -14.9849 C   0  0  0  0  0  0  0  0  0  0  0  0
   24.0167  -11.4253  -15.8762 C   0  0  2  0  0  0  0  0  0  0  0  0
   23.7062  -12.5474  -16.7725 N   0  0  0  0  0  0  0  0  0  0  0  0
   23.2883  -10.2431  -16.3366 C   0  0  0  0  0  0  0  0  0  0  0  0
   23.4716   -9.8293  -17.5024 O   0  0  0  0  0  0  0  0  0  0  0  0
   18.7337   -8.9367  -18.4541 N   0  0  0  0  0  0  0  0  0  0  0  0
   18.5220   -7.8145  -17.5991 C   0  0  0  0  0  0  0  0  0  0  0  0
   17.6341   -7.0058  -17.9312 O   0  0  0  0  0  0  0  0  0  0  0  0
   19.3112   -7.6207  -16.3909 C   0  0  0  0  0  0  0  0  0  0  0  0
   20.2544   -8.7504  -16.1650 C   0  0  0  0  0  0  0  0  0  0  0  0
   21.6939   -8.3834  -15.9964 C   0  0  2  0  0  0  0  0  0  0  0  0
   22.3927   -9.5737  -15.4899 N   0  0  0  0  0  0  0  0  0  0  0  0
   21.9553   -7.2853  -15.0423 C   0  0  0  0  0  0  0  0  0  0  0  0
   21.7465   -5.9784  -15.4235 O   0  0  0  0  0  0  0  0  0  0  0  0
   22.3640   -7.4845  -13.8868 O   0  0  0  0  0  0  0  0  0  0  0  0
  2  1  1  1
  3  2  1  0
  4  3  1  0
  5  4  1  0
  6  5  1  0
  7  6  1  0
  8  9  2  0
  8  2  1  0
 10 11  1  0
 12 11  1  0
 12 14  1  0
 12 13  1  1
 14 15  1  6
 15  8  1  0
 16 24  1  0
 16 14  1  0
 17 16  2  0
 18 19  1  0
 19 21  1  0
 20 19  2  0
 21 22  1  0
 23 22  1  1
 23 24  1  0
 23 25  1  0
 25 26  1  0
 27 25  2  0
M  END
$$$$
