KIQ.pdb
     RDKit          3D

 27 26  0  0  1  0  0  0  0  0999 V2000
   19.0056  -23.6195   -8.0732 N   0  0  0  0  0  0  0  0  0  0  0  0
   19.3801  -23.8097   -9.4272 C   0  0  1  0  0  0  0  0  0  0  0  0
   18.4638  -24.4215  -10.3617 C   0  0  0  0  0  0  0  0  0  0  0  0
   18.1023  -25.7934  -10.5498 C   0  0  0  0  0  0  0  0  0  0  0  0
   18.9592  -26.9404  -10.6208 C   0  0  0  0  0  0  0  0  0  0  0  0
   18.5253  -28.3173  -10.8842 C   0  0  0  0  0  0  0  0  0  0  0  0
   17.7449  -29.0608  -10.0079 N   0  0  0  0  0  0  0  0  0  0  0  0
   19.8835  -22.5102  -10.0220 C   0  0  0  0  0  0  0  0  0  0  0  0
   19.0403  -21.5805  -10.0935 O   0  0  0  0  0  0  0  0  0  0  0  0
   24.9245  -20.7913   -9.1485 C   0  0  0  0  0  0  0  0  0  0  0  0
   23.4118  -20.8405   -9.3876 C   0  0  0  0  0  0  0  0  0  0  0  0
   23.0832  -20.8299  -10.8320 C   0  0  2  0  0  0  0  0  0  0  0  0
   23.6114  -19.5997  -11.5471 C   0  0  0  0  0  0  0  0  0  0  0  0
   21.6381  -21.0658  -11.0871 C   0  0  2  0  0  0  0  0  0  0  0  0
   21.2002  -22.3247  -10.4688 N   0  0  0  0  0  0  0  0  0  0  0  0
   21.3493  -21.1228  -12.5201 C   0  0  0  0  0  0  0  0  0  0  0  0
   21.5844  -22.1783  -13.1482 O   0  0  0  0  0  0  0  0  0  0  0  0
   18.5738  -23.6854  -16.9894 N   0  0  0  0  0  0  0  0  0  0  0  0
   19.2436  -22.4551  -16.7192 C   0  0  0  0  0  0  0  0  0  0  0  0
   20.3840  -22.3107  -17.2002 O   0  0  0  0  0  0  0  0  0  0  0  0
   18.6225  -21.4132  -15.9138 C   0  0  0  0  0  0  0  0  0  0  0  0
   19.3309  -21.2268  -14.6175 C   0  0  0  0  0  0  0  0  0  0  0  0
   20.3884  -20.1703  -14.5902 C   0  0  2  0  0  0  0  0  0  0  0  0
   20.8149  -20.0138  -13.1919 N   0  0  0  0  0  0  0  0  0  0  0  0
   19.9594  -18.8387  -15.0670 C   0  0  0  0  0  0  0  0  0  0  0  0
   19.6773  -17.8412  -14.1602 O   0  0  0  0  0  0  0  0  0  0  0  0
   19.8366  -18.5659  -16.2721 O   0  0  0  0  0  0  0  0  0  0  0  0
  2  1  1  1
  3  2  1  0
  4  3  1  0
  5  4  1  0
  6  5  1  0
  7  6  1  0
  8  9  2  0
  8  2  1  0
 10 11  1  0
 12 11  1  0
 12 14  1  0
 12 13  1  1
 14 15  1  1
 15  8  1  0
 16 24  1  0
 16 14  1  0
 17 16  2  0
 18 19  1  0
 19 21  1  0
 20 19  2  0
 21 22  1  0
 23 22  1  1
 23 24  1  0
 23 25  1  0
 25 26  1  0
 27 25  2  0
M  END
$$$$
