KIQ.pdb
     RDKit          3D

 27 26  0  0  1  0  0  0  0  0999 V2000
   28.2763  -21.5800  -15.4153 N   0  0  0  0  0  0  0  0  0  0  0  0
   27.5461  -20.4908  -14.8769 C   0  0  1  0  0  0  0  0  0  0  0  0
   27.0602  -19.4375  -15.7380 C   0  0  0  0  0  0  0  0  0  0  0  0
   27.7395  -18.6492  -16.7206 C   0  0  0  0  0  0  0  0  0  0  0  0
   29.1499  -18.5207  -16.9423 C   0  0  0  0  0  0  0  0  0  0  0  0
   29.7818  -17.6789  -17.9648 C   0  0  0  0  0  0  0  0  0  0  0  0
   29.6069  -16.3033  -18.0471 N   0  0  0  0  0  0  0  0  0  0  0  0
   26.3947  -20.9953  -14.0309 C   0  0  0  0  0  0  0  0  0  0  0  0
   25.7751  -21.9883  -14.4897 O   0  0  0  0  0  0  0  0  0  0  0  0
   26.7553  -20.7073   -8.6734 C   0  0  0  0  0  0  0  0  0  0  0  0
   26.4365  -21.1896  -10.0924 C   0  0  0  0  0  0  0  0  0  0  0  0
   25.1271  -20.6820  -10.5641 C   0  0  2  0  0  0  0  0  0  0  0  0
   23.9689  -21.1494   -9.7015 C   0  0  0  0  0  0  0  0  0  0  0  0
   24.9061  -20.9403  -12.0110 C   0  0  2  0  0  0  0  0  0  0  0  0
   26.0228  -20.4157  -12.8089 N   0  0  0  0  0  0  0  0  0  0  0  0
   23.6650  -20.3253  -12.4815 C   0  0  0  0  0  0  0  0  0  0  0  0
   23.6467  -19.0993  -12.7275 O   0  0  0  0  0  0  0  0  0  0  0  0
   21.9364  -19.2237  -17.2126 N   0  0  0  0  0  0  0  0  0  0  0  0
   21.8875  -20.6244  -16.9463 C   0  0  0  0  0  0  0  0  0  0  0  0
   22.0485  -21.3933  -17.9135 O   0  0  0  0  0  0  0  0  0  0  0  0
   21.6569  -21.1343  -15.6020 C   0  0  0  0  0  0  0  0  0  0  0  0
   21.5996  -20.0339  -14.6006 C   0  0  0  0  0  0  0  0  0  0  0  0
   21.2992  -20.4387  -13.1931 C   0  0  2  0  0  0  0  0  0  0  0  0
   22.5035  -21.0911  -12.6586 N   0  0  0  0  0  0  0  0  0  0  0  0
   20.1811  -21.3929  -13.0381 C   0  0  0  0  0  0  0  0  0  0  0  0
   18.8891  -20.9847  -13.2848 O   0  0  0  0  0  0  0  0  0  0  0  0
   20.3501  -22.5722  -12.6880 O   0  0  0  0  0  0  0  0  0  0  0  0
  2  1  1  6
  3  2  1  0
  4  3  1  0
  5  4  1  0
  6  5  1  0
  7  6  1  0
  8  9  2  0
  8  2  1  0
 10 11  1  0
 12 11  1  0
 12 14  1  0
 12 13  1  1
 14 15  1  6
 15  8  1  0
 16 24  1  0
 16 14  1  0
 17 16  2  0
 18 19  1  0
 19 21  1  0
 20 19  2  0
 21 22  1  0
 23 22  1  6
 23 24  1  0
 23 25  1  0
 25 26  1  0
 27 25  2  0
M  END
$$$$
