MEH.pdb
     RDKit          3D

 28 28  0  0  1  0  0  0  0  0999 V2000
    6.9455  -11.1797   25.9815 C   0  0  0  0  0  0  0  0  0  0  0  0
    6.5066  -12.4418   27.1811 S   0  0  0  0  0  0  0  0  0  0  0  0
    6.1527  -14.0304   26.4286 C   0  0  0  0  0  0  0  0  0  0  0  0
    6.8997  -14.2291   25.1453 C   0  0  0  0  0  0  0  0  0  0  0  0
    6.5921  -15.5353   24.4468 C   0  0  2  0  0  0  0  0  0  0  0  0
    5.7055  -16.3185   25.2708 N   0  0  0  0  0  0  0  0  0  0  0  0
    7.9116  -16.2362   24.2999 C   0  0  0  0  0  0  0  0  0  0  0  0
    8.3509  -17.0017   25.2013 O   0  0  0  0  0  0  0  0  0  0  0  0
    8.7418  -16.1049   23.1830 N   0  0  0  0  0  0  0  0  0  0  0  0
    9.9680  -16.7774   22.9041 C   0  0  1  0  0  0  0  0  0  0  0  0
   10.4545  -16.7192   21.5039 C   0  0  0  0  0  0  0  0  0  0  0  0
   11.7704  -17.4360   21.2691 C   0  0  0  0  0  0  0  0  0  0  0  0
   12.2107  -17.3229   19.8604 C   0  0  0  0  0  0  0  0  0  0  0  0
   13.2491  -16.7042   19.5629 O   0  0  0  0  0  0  0  0  0  0  0  0
   10.9974  -16.3030   23.8461 C   0  0  0  0  0  0  0  0  0  0  0  0
   11.2974  -15.0787   23.9124 O   0  0  0  0  0  0  0  0  0  0  0  0
   11.4690  -17.9102   18.8490 O   0  0  0  0  0  0  0  0  0  0  0  0
   11.7279  -17.1591   24.7436 N   0  0  0  0  0  0  0  0  0  0  0  0
   12.9016  -16.6308   25.4033 C   0  0  1  0  0  0  0  0  0  0  0  0
   12.9013  -17.0205   26.8320 C   0  0  0  0  0  0  0  0  0  0  0  0
   12.0813  -16.1793   27.7225 C   0  0  0  0  0  0  0  0  0  0  0  0
   11.4571  -14.9896   27.3267 C   0  0  0  0  0  0  0  0  0  0  0  0
   10.8097  -14.4680   28.3725 N   0  0  0  0  0  0  0  0  0  0  0  0
   11.0014  -15.2903   29.4234 C   0  0  0  0  0  0  0  0  0  0  0  0
   11.7616  -16.3043   29.0158 N   0  0  0  0  0  0  0  0  0  0  0  0
   14.1455  -17.1594   24.7170 C   0  0  0  0  0  0  0  0  0  0  0  0
   14.0343  -17.9615   23.7609 O   0  0  0  0  0  0  0  0  0  0  0  0
   15.4088  -16.7798   25.1165 O   0  0  0  0  0  0  0  0  0  0  0  0
  1  2  1  0
  3  2  1  0
  4  3  1  0
  5  4  1  0
  5  6  1  1
  7  5  1  0
  8  7  2  0
  9  7  1  0
 10  9  1  0
 11 12  1  0
 10 11  1  6
 12 13  1  0
 13 17  1  0
 13 14  2  0
 15 10  1  0
 15 18  1  0
 16 15  2  0
 19 18  1  0
 19 20  1  1
 20 21  1  0
 21 22  2  0
 21 25  1  0
 22 23  1  0
 23 24  1  0
 25 24  2  0
 26 19  1  0
 27 26  2  0
 28 26  1  0
M  END
$$$$
