MEH.pdb
     RDKit          3D

 28 28  0  0  1  0  0  0  0  0999 V2000
    6.5287  -11.8470   18.2178 C   0  0  0  0  0  0  0  0  0  0  0  0
    6.6749  -13.0661   19.5282 S   0  0  0  0  0  0  0  0  0  0  0  0
    8.3579  -13.2669   20.1133 C   0  0  0  0  0  0  0  0  0  0  0  0
    8.4459  -14.2083   21.2753 C   0  0  0  0  0  0  0  0  0  0  0  0
    9.8599  -14.5105   21.7204 C   0  0  2  0  0  0  0  0  0  0  0  0
   10.6330  -14.9486   20.5852 N   0  0  0  0  0  0  0  0  0  0  0  0
    9.7399  -15.6228   22.7217 C   0  0  0  0  0  0  0  0  0  0  0  0
    8.8813  -15.5833   23.6451 O   0  0  0  0  0  0  0  0  0  0  0  0
   10.5457  -16.7649   22.7155 N   0  0  0  0  0  0  0  0  0  0  0  0
   10.7904  -17.6847   23.7774 C   0  0  1  0  0  0  0  0  0  0  0  0
   11.8334  -18.7124   23.5396 C   0  0  0  0  0  0  0  0  0  0  0  0
   11.6724  -19.4771   22.2396 C   0  0  0  0  0  0  0  0  0  0  0  0
   12.9165  -20.1862   21.8648 C   0  0  0  0  0  0  0  0  0  0  0  0
   13.2592  -21.2295   22.4510 O   0  0  0  0  0  0  0  0  0  0  0  0
   11.0607  -16.9269   25.0122 C   0  0  0  0  0  0  0  0  0  0  0  0
   11.2802  -15.6845   24.9728 O   0  0  0  0  0  0  0  0  0  0  0  0
   13.7194  -19.6954   20.8486 O   0  0  0  0  0  0  0  0  0  0  0  0
   11.0977  -17.5110   26.3273 N   0  0  0  0  0  0  0  0  0  0  0  0
   10.4276  -16.8241   27.4095 C   0  0  1  0  0  0  0  0  0  0  0  0
    8.9890  -16.6634   27.0971 C   0  0  0  0  0  0  0  0  0  0  0  0
    8.5081  -15.2731   27.0026 C   0  0  0  0  0  0  0  0  0  0  0  0
    9.3111  -14.1462   27.2195 C   0  0  0  0  0  0  0  0  0  0  0  0
    8.5674  -13.0461   27.0726 N   0  0  0  0  0  0  0  0  0  0  0  0
    7.3141  -13.4378   26.7674 C   0  0  0  0  0  0  0  0  0  0  0  0
    7.2992  -14.7684   26.7301 N   0  0  0  0  0  0  0  0  0  0  0  0
   10.5996  -17.6154   28.6910 C   0  0  0  0  0  0  0  0  0  0  0  0
   10.8749  -18.8364   28.6350 O   0  0  0  0  0  0  0  0  0  0  0  0
   10.4615  -17.0261   29.9292 O   0  0  0  0  0  0  0  0  0  0  0  0
  1  2  1  0
  3  2  1  0
  4  3  1  0
  5  4  1  0
  5  6  1  6
  7  5  1  0
  8  7  2  0
  9  7  1  0
 10  9  1  0
 11 12  1  0
 10 11  1  6
 12 13  1  0
 13 17  1  0
 13 14  2  0
 15 10  1  0
 15 18  1  0
 16 15  2  0
 19 18  1  0
 19 20  1  6
 20 21  1  0
 21 22  2  0
 21 25  1  0
 22 23  1  0
 23 24  1  0
 25 24  2  0
 26 19  1  0
 27 26  2  0
 28 26  1  0
M  END
$$$$
