MEH.pdb
     RDKit          3D

 28 28  0  0  1  0  0  0  0  0999 V2000
    6.8802  -11.1424   27.1193 C   0  0  0  0  0  0  0  0  0  0  0  0
    6.2197  -12.2997   25.9156 S   0  0  0  0  0  0  0  0  0  0  0  0
    7.0912  -13.8666   25.8991 C   0  0  0  0  0  0  0  0  0  0  0  0
    6.4448  -14.8656   24.9888 C   0  0  0  0  0  0  0  0  0  0  0  0
    7.0928  -16.2325   25.0114 C   0  0  2  0  0  0  0  0  0  0  0  0
    7.8928  -16.3604   26.2039 N   0  0  0  0  0  0  0  0  0  0  0  0
    7.9706  -16.2844   23.7946 C   0  0  0  0  0  0  0  0  0  0  0  0
    7.4797  -16.2914   22.6325 O   0  0  0  0  0  0  0  0  0  0  0  0
    9.3668  -16.3271   23.8442 N   0  0  0  0  0  0  0  0  0  0  0  0
   10.2207  -17.4693   23.8457 C   0  0  1  0  0  0  0  0  0  0  0  0
   10.8340  -17.8424   22.5475 C   0  0  0  0  0  0  0  0  0  0  0  0
   10.8412  -16.7296   21.5169 C   0  0  0  0  0  0  0  0  0  0  0  0
   11.9760  -16.8633   20.5759 C   0  0  0  0  0  0  0  0  0  0  0  0
   13.0324  -16.2294   20.7543 O   0  0  0  0  0  0  0  0  0  0  0  0
   11.2466  -17.2966   24.8897 C   0  0  0  0  0  0  0  0  0  0  0  0
   11.8380  -16.1914   25.0377 O   0  0  0  0  0  0  0  0  0  0  0  0
   11.8767  -17.7028   19.4789 O   0  0  0  0  0  0  0  0  0  0  0  0
   11.6533  -18.3327   25.8024 N   0  0  0  0  0  0  0  0  0  0  0  0
   11.4719  -18.1167   27.2210 C   0  0  1  0  0  0  0  0  0  0  0  0
   10.1919  -17.4144   27.4694 C   0  0  0  0  0  0  0  0  0  0  0  0
   10.3089  -16.0184   27.9283 C   0  0  0  0  0  0  0  0  0  0  0  0
   11.5255  -15.3741   28.1865 C   0  0  0  0  0  0  0  0  0  0  0  0
   11.2796  -14.1277   28.6000 N   0  0  0  0  0  0  0  0  0  0  0  0
    9.9424  -13.9575   28.6120 C   0  0  0  0  0  0  0  0  0  0  0  0
    9.3816  -15.0953   28.2083 N   0  0  0  0  0  0  0  0  0  0  0  0
   11.4841  -19.4516   27.9391 C   0  0  0  0  0  0  0  0  0  0  0  0
   12.1556  -19.5867   28.9883 O   0  0  0  0  0  0  0  0  0  0  0  0
   10.7707  -20.5329   27.4683 O   0  0  0  0  0  0  0  0  0  0  0  0
  1  2  1  0
  3  2  1  0
  4  3  1  0
  5  4  1  0
  5  6  1  1
  7  5  1  0
  8  7  2  0
  9  7  1  0
 10  9  1  0
 11 12  1  0
 10 11  1  6
 12 13  1  0
 13 17  1  0
 13 14  2  0
 15 10  1  0
 15 18  1  0
 16 15  2  0
 19 18  1  0
 19 20  1  6
 20 21  1  0
 21 22  2  0
 21 25  1  0
 22 23  1  0
 23 24  1  0
 25 24  2  0
 26 19  1  0
 27 26  2  0
 28 26  1  0
M  END
$$$$
