MEH.pdb
     RDKit          3D

 28 28  0  0  1  0  0  0  0  0999 V2000
    7.4385  -11.4374   19.7897 C   0  0  0  0  0  0  0  0  0  0  0  0
    6.6505  -12.8717   19.0505 S   0  0  0  0  0  0  0  0  0  0  0  0
    7.4411  -14.4161   19.5030 C   0  0  0  0  0  0  0  0  0  0  0  0
    7.8684  -14.4352   20.9387 C   0  0  0  0  0  0  0  0  0  0  0  0
    8.5851  -15.7013   21.3536 C   0  0  2  0  0  0  0  0  0  0  0  0
    8.2423  -16.7633   20.4409 N   0  0  0  0  0  0  0  0  0  0  0  0
    8.0773  -16.0214   22.7297 C   0  0  0  0  0  0  0  0  0  0  0  0
    7.8394  -15.1098   23.5688 O   0  0  0  0  0  0  0  0  0  0  0  0
    7.8307  -17.3197   23.1852 N   0  0  0  0  0  0  0  0  0  0  0  0
    7.3692  -17.7379   24.4680 C   0  0  1  0  0  0  0  0  0  0  0  0
    6.9773  -19.1625   24.6014 C   0  0  0  0  0  0  0  0  0  0  0  0
    6.0340  -19.6550   23.5207 C   0  0  0  0  0  0  0  0  0  0  0  0
    5.7609  -21.1039   23.6521 C   0  0  0  0  0  0  0  0  0  0  0  0
    6.2991  -21.7770   24.5504 O   0  0  0  0  0  0  0  0  0  0  0  0
    8.3723  -17.3641   25.4810 C   0  0  0  0  0  0  0  0  0  0  0  0
    9.6042  -17.5318   25.2631 O   0  0  0  0  0  0  0  0  0  0  0  0
    4.8955  -21.7327   22.7724 O   0  0  0  0  0  0  0  0  0  0  0  0
    8.0522  -16.7945   26.7637 N   0  0  0  0  0  0  0  0  0  0  0  0
    9.1361  -16.4127   27.6420 C   0  0  1  0  0  0  0  0  0  0  0  0
    8.8544  -15.0941   28.2546 C   0  0  0  0  0  0  0  0  0  0  0  0
    8.3726  -14.0514   27.3307 C   0  0  0  0  0  0  0  0  0  0  0  0
    8.9996  -13.7189   26.1232 C   0  0  0  0  0  0  0  0  0  0  0  0
    8.3212  -12.7277   25.5381 N   0  0  0  0  0  0  0  0  0  0  0  0
    7.2793  -12.4190   26.3360 C   0  0  0  0  0  0  0  0  0  0  0  0
    7.3272  -13.2189   27.3990 N   0  0  0  0  0  0  0  0  0  0  0  0
    9.3049  -17.4650   28.7200 C   0  0  0  0  0  0  0  0  0  0  0  0
    8.4872  -18.4111   28.7982 O   0  0  0  0  0  0  0  0  0  0  0  0
   10.3423  -17.4127   29.6259 O   0  0  0  0  0  0  0  0  0  0  0  0
  1  2  1  0
  3  2  1  0
  4  3  1  0
  5  4  1  0
  5  6  1  6
  7  5  1  0
  8  7  2  0
  9  7  1  0
 10  9  1  0
 11 12  1  0
 10 11  1  6
 12 13  1  0
 13 17  1  0
 13 14  2  0
 15 10  1  0
 15 18  1  0
 16 15  2  0
 19 18  1  0
 19 20  1  1
 20 21  1  0
 21 22  2  0
 21 25  1  0
 22 23  1  0
 23 24  1  0
 25 24  2  0
 26 19  1  0
 27 26  2  0
 28 26  1  0
M  END
$$$$
