MEH.pdb
     RDKit          3D

 28 28  0  0  1  0  0  0  0  0999 V2000
    7.2908  -11.0821   25.3001 C   0  0  0  0  0  0  0  0  0  0  0  0
    6.2441  -12.2647   26.1550 S   0  0  0  0  0  0  0  0  0  0  0  0
    5.9364  -13.7485   25.1966 C   0  0  0  0  0  0  0  0  0  0  0  0
    7.1248  -14.6601   25.1652 C   0  0  0  0  0  0  0  0  0  0  0  0
    6.9894  -15.8194   24.2027 C   0  0  2  0  0  0  0  0  0  0  0  0
    5.8930  -16.6580   24.6188 N   0  0  0  0  0  0  0  0  0  0  0  0
    8.2819  -16.5773   24.2978 C   0  0  0  0  0  0  0  0  0  0  0  0
    8.3772  -17.6254   24.9935 O   0  0  0  0  0  0  0  0  0  0  0  0
    9.4561  -16.1977   23.6413 N   0  0  0  0  0  0  0  0  0  0  0  0
   10.6607  -16.9426   23.4746 C   0  0  1  0  0  0  0  0  0  0  0  0
   11.4930  -16.6048   22.2940 C   0  0  0  0  0  0  0  0  0  0  0  0
   11.2556  -17.4924   21.0872 C   0  0  0  0  0  0  0  0  0  0  0  0
   12.4907  -17.6766   20.2925 C   0  0  0  0  0  0  0  0  0  0  0  0
   12.8725  -16.8025   19.4927 O   0  0  0  0  0  0  0  0  0  0  0  0
   11.4455  -16.8654   24.7196 C   0  0  0  0  0  0  0  0  0  0  0  0
   11.8711  -15.7567   25.1474 O   0  0  0  0  0  0  0  0  0  0  0  0
   13.2433  -18.8308   20.4315 O   0  0  0  0  0  0  0  0  0  0  0  0
   11.7862  -18.0037   25.5322 N   0  0  0  0  0  0  0  0  0  0  0  0
   11.7740  -17.8563   26.9710 C   0  0  1  0  0  0  0  0  0  0  0  0
   10.4557  -17.3524   27.4199 C   0  0  0  0  0  0  0  0  0  0  0  0
   10.4325  -15.9544   27.8869 C   0  0  0  0  0  0  0  0  0  0  0  0
   11.5700  -15.1461   28.0079 C   0  0  0  0  0  0  0  0  0  0  0  0
   11.2055  -13.9470   28.4710 N   0  0  0  0  0  0  0  0  0  0  0  0
    9.8691  -13.9662   28.6477 C   0  0  0  0  0  0  0  0  0  0  0  0
    9.4271  -15.1709   28.2939 N   0  0  0  0  0  0  0  0  0  0  0  0
   12.0697  -19.1955   27.6167 C   0  0  0  0  0  0  0  0  0  0  0  0
   11.6497  -20.2487   27.0834 O   0  0  0  0  0  0  0  0  0  0  0  0
   12.7950  -19.2911   28.7847 O   0  0  0  0  0  0  0  0  0  0  0  0
  1  2  1  0
  3  2  1  0
  4  3  1  0
  5  4  1  0
  5  6  1  1
  7  5  1  0
  8  7  2  0
  9  7  1  0
 10  9  1  0
 11 12  1  0
 10 11  1  6
 12 13  1  0
 13 17  1  0
 13 14  2  0
 15 10  1  0
 15 18  1  0
 16 15  2  0
 19 18  1  0
 19 20  1  1
 20 21  1  0
 21 22  2  0
 21 25  1  0
 22 23  1  0
 23 24  1  0
 25 24  2  0
 26 19  1  0
 27 26  2  0
 28 26  1  0
M  END
$$$$
