MEH.pdb
     RDKit          3D

 28 28  0  0  1  0  0  0  0  0999 V2000
    7.3274  -11.0212   25.7431 C   0  0  0  0  0  0  0  0  0  0  0  0
    6.1778  -12.1104   26.5896 S   0  0  0  0  0  0  0  0  0  0  0  0
    5.7702  -13.5744   25.6378 C   0  0  0  0  0  0  0  0  0  0  0  0
    6.9392  -14.4999   25.4922 C   0  0  0  0  0  0  0  0  0  0  0  0
    6.6903  -15.6690   24.5649 C   0  0  2  0  0  0  0  0  0  0  0  0
    5.6139  -16.4719   25.0894 N   0  0  0  0  0  0  0  0  0  0  0  0
    7.9666  -16.4597   24.5591 C   0  0  0  0  0  0  0  0  0  0  0  0
    8.1775  -17.3695   25.4072 O   0  0  0  0  0  0  0  0  0  0  0  0
    9.0000  -16.2615   23.6390 N   0  0  0  0  0  0  0  0  0  0  0  0
   10.2214  -16.9854   23.5061 C   0  0  1  0  0  0  0  0  0  0  0  0
   11.0334  -16.7028   22.2971 C   0  0  0  0  0  0  0  0  0  0  0  0
   12.2615  -17.5805   22.1498 C   0  0  0  0  0  0  0  0  0  0  0  0
   12.9816  -17.3058   20.8861 C   0  0  0  0  0  0  0  0  0  0  0  0
   12.3593  -17.0791   19.8320 O   0  0  0  0  0  0  0  0  0  0  0  0
   11.0162  -16.8097   24.7347 C   0  0  0  0  0  0  0  0  0  0  0  0
   11.1426  -15.6714   25.2652 O   0  0  0  0  0  0  0  0  0  0  0  0
   14.3662  -17.2952   20.8608 O   0  0  0  0  0  0  0  0  0  0  0  0
   11.6957  -17.8793   25.4176 N   0  0  0  0  0  0  0  0  0  0  0  0
   11.9461  -17.7469   26.8360 C   0  0  1  0  0  0  0  0  0  0  0  0
   10.6647  -17.6570   27.5730 C   0  0  0  0  0  0  0  0  0  0  0  0
   10.2364  -16.2962   27.9439 C   0  0  0  0  0  0  0  0  0  0  0  0
   11.1053  -15.2909   28.3869 C   0  0  0  0  0  0  0  0  0  0  0  0
   10.3977  -14.1894   28.6536 N   0  0  0  0  0  0  0  0  0  0  0  0
    9.1035  -14.4619   28.3927 C   0  0  0  0  0  0  0  0  0  0  0  0
    9.0279  -15.7222   27.9707 N   0  0  0  0  0  0  0  0  0  0  0  0
   12.7451  -18.9409   27.3196 C   0  0  0  0  0  0  0  0  0  0  0  0
   13.1792  -18.9633   28.4948 O   0  0  0  0  0  0  0  0  0  0  0  0
   13.0109  -20.0147   26.4974 O   0  0  0  0  0  0  0  0  0  0  0  0
  1  2  1  0
  3  2  1  0
  4  3  1  0
  5  4  1  0
  5  6  1  1
  7  5  1  0
  8  7  2  0
  9  7  1  0
 10  9  1  0
 11 12  1  0
 10 11  1  6
 12 13  1  0
 13 17  1  0
 13 14  2  0
 15 10  1  0
 15 18  1  0
 16 15  2  0
 19 18  1  0
 19 20  1  1
 20 21  1  0
 21 22  2  0
 21 25  1  0
 22 23  1  0
 23 24  1  0
 25 24  2  0
 26 19  1  0
 27 26  2  0
 28 26  1  0
M  END
$$$$
