MEH.pdb
     RDKit          3D

 28 28  0  0  1  0  0  0  0  0999 V2000
    7.9159  -10.8460   19.1035 C   0  0  0  0  0  0  0  0  0  0  0  0
    8.3582  -12.4068   19.8736 S   0  0  0  0  0  0  0  0  0  0  0  0
    7.2891  -13.7590   19.3800 C   0  0  0  0  0  0  0  0  0  0  0  0
    7.6004  -15.0260   20.1162 C   0  0  0  0  0  0  0  0  0  0  0  0
    8.9908  -15.0698   20.7109 C   0  0  2  0  0  0  0  0  0  0  0  0
    9.9401  -15.4016   19.6779 N   0  0  0  0  0  0  0  0  0  0  0  0
    8.9545  -16.1573   21.7452 C   0  0  0  0  0  0  0  0  0  0  0  0
    8.0953  -16.1546   22.6689 O   0  0  0  0  0  0  0  0  0  0  0  0
    9.8437  -17.2355   21.7715 N   0  0  0  0  0  0  0  0  0  0  0  0
    9.9816  -18.2486   22.7656 C   0  0  1  0  0  0  0  0  0  0  0  0
   11.0495  -19.2545   22.5458 C   0  0  0  0  0  0  0  0  0  0  0  0
   11.2013  -19.6999   21.1038 C   0  0  0  0  0  0  0  0  0  0  0  0
   12.5835  -20.1412   20.8106 C   0  0  0  0  0  0  0  0  0  0  0  0
   13.1513  -20.9845   21.5289 O   0  0  0  0  0  0  0  0  0  0  0  0
   10.1177  -17.6067   24.0853 C   0  0  0  0  0  0  0  0  0  0  0  0
   10.9585  -16.6838   24.2712 O   0  0  0  0  0  0  0  0  0  0  0  0
   13.2662  -19.6194   19.7245 O   0  0  0  0  0  0  0  0  0  0  0  0
    9.3341  -17.9592   25.2402 N   0  0  0  0  0  0  0  0  0  0  0  0
    9.5445  -17.2271   26.4698 C   0  0  1  0  0  0  0  0  0  0  0  0
    8.2549  -16.7074   26.9799 C   0  0  0  0  0  0  0  0  0  0  0  0
    7.6960  -15.5571   26.2468 C   0  0  0  0  0  0  0  0  0  0  0  0
    8.3631  -14.8798   25.2182 C   0  0  0  0  0  0  0  0  0  0  0  0
    7.5901  -13.8820   24.7802 N   0  0  0  0  0  0  0  0  0  0  0  0
    6.4492  -13.9035   25.4980 C   0  0  0  0  0  0  0  0  0  0  0  0
    6.5315  -14.9090   26.3666 N   0  0  0  0  0  0  0  0  0  0  0  0
   10.1833  -18.1410   27.4967 C   0  0  0  0  0  0  0  0  0  0  0  0
   10.4138  -19.3376   27.2055 O   0  0  0  0  0  0  0  0  0  0  0  0
   10.5226  -17.6906   28.7543 O   0  0  0  0  0  0  0  0  0  0  0  0
  1  2  1  0
  3  2  1  0
  4  3  1  0
  5  4  1  0
  5  6  1  6
  7  5  1  0
  8  7  2  0
  9  7  1  0
 10  9  1  0
 11 12  1  0
 10 11  1  6
 12 13  1  0
 13 17  1  0
 13 14  2  0
 15 10  1  0
 15 18  1  0
 16 15  2  0
 19 18  1  0
 19 20  1  1
 20 21  1  0
 21 22  2  0
 21 25  1  0
 22 23  1  0
 23 24  1  0
 25 24  2  0
 26 19  1  0
 27 26  2  0
 28 26  1  0
M  END
$$$$
