MEH.pdb
     RDKit          3D

 28 28  0  0  1  0  0  0  0  0999 V2000
    6.4678  -11.2585   26.2865 C   0  0  0  0  0  0  0  0  0  0  0  0
    7.5333  -12.6741   25.9941 S   0  0  0  0  0  0  0  0  0  0  0  0
    6.7149  -13.9930   25.0964 C   0  0  0  0  0  0  0  0  0  0  0  0
    7.1102  -14.0261   23.6518 C   0  0  0  0  0  0  0  0  0  0  0  0
    8.6039  -14.0927   23.4209 C   0  0  2  0  0  0  0  0  0  0  0  0
    8.8659  -14.1188   22.0035 N   0  0  0  0  0  0  0  0  0  0  0  0
    9.0538  -15.3789   24.0512 C   0  0  0  0  0  0  0  0  0  0  0  0
    8.9096  -15.5886   25.2869 O   0  0  0  0  0  0  0  0  0  0  0  0
    9.6528  -16.4244   23.3427 N   0  0  0  0  0  0  0  0  0  0  0  0
   10.0068  -17.7247   23.8090 C   0  0  1  0  0  0  0  0  0  0  0  0
   10.5962  -18.6509   22.8113 C   0  0  0  0  0  0  0  0  0  0  0  0
   10.9554  -17.9996   21.4894 C   0  0  0  0  0  0  0  0  0  0  0  0
   11.9854  -18.7734   20.7607 C   0  0  0  0  0  0  0  0  0  0  0  0
   12.4402  -19.8330   21.2300 O   0  0  0  0  0  0  0  0  0  0  0  0
   10.8789  -17.5873   24.9891 C   0  0  0  0  0  0  0  0  0  0  0  0
   11.7603  -16.6850   25.0395 O   0  0  0  0  0  0  0  0  0  0  0  0
   12.4579  -18.3264   19.5379 O   0  0  0  0  0  0  0  0  0  0  0  0
   10.8090  -18.4366   26.1491 N   0  0  0  0  0  0  0  0  0  0  0  0
   11.6853  -18.1580   27.2656 C   0  0  1  0  0  0  0  0  0  0  0  0
   10.8989  -17.6639   28.4191 C   0  0  0  0  0  0  0  0  0  0  0  0
   10.4927  -16.2483   28.3547 C   0  0  0  0  0  0  0  0  0  0  0  0
   10.6796  -15.4259   27.2365 C   0  0  0  0  0  0  0  0  0  0  0  0
   10.2178  -14.2030   27.5125 N   0  0  0  0  0  0  0  0  0  0  0  0
    9.7407  -14.2213   28.7732 C   0  0  0  0  0  0  0  0  0  0  0  0
    9.9134  -15.4490   29.2581 N   0  0  0  0  0  0  0  0  0  0  0  0
   12.4340  -19.4202   27.6450 C   0  0  0  0  0  0  0  0  0  0  0  0
   11.9527  -20.5396   27.3533 O   0  0  0  0  0  0  0  0  0  0  0  0
   13.6417  -19.3735   28.3075 O   0  0  0  0  0  0  0  0  0  0  0  0
  1  2  1  0
  3  2  1  0
  4  3  1  0
  5  4  1  0
  5  6  1  6
  7  5  1  0
  8  7  2  0
  9  7  1  0
 10  9  1  0
 11 12  1  0
 10 11  1  6
 12 13  1  0
 13 17  1  0
 13 14  2  0
 15 10  1  0
 15 18  1  0
 16 15  2  0
 19 18  1  0
 19 20  1  1
 20 21  1  0
 21 22  2  0
 21 25  1  0
 22 23  1  0
 23 24  1  0
 25 24  2  0
 26 19  1  0
 27 26  2  0
 28 26  1  0
M  END
$$$$
