MEH.pdb
     RDKit          3D

 28 28  0  0  1  0  0  0  0  0999 V2000
    8.0457  -11.3732   25.7863 C   0  0  0  0  0  0  0  0  0  0  0  0
    6.3460  -11.7769   25.3707 S   0  0  0  0  0  0  0  0  0  0  0  0
    6.2039  -12.7504   23.8717 C   0  0  0  0  0  0  0  0  0  0  0  0
    7.1313  -13.9269   23.8694 C   0  0  0  0  0  0  0  0  0  0  0  0
    7.1566  -14.6917   22.5643 C   0  0  2  0  0  0  0  0  0  0  0  0
    5.8484  -15.2412   22.3092 N   0  0  0  0  0  0  0  0  0  0  0  0
    8.1502  -15.7994   22.7635 C   0  0  0  0  0  0  0  0  0  0  0  0
    7.8267  -16.8741   23.3396 O   0  0  0  0  0  0  0  0  0  0  0  0
    9.4805  -15.7365   22.3388 N   0  0  0  0  0  0  0  0  0  0  0  0
   10.5482  -16.6365   22.6276 C   0  0  1  0  0  0  0  0  0  0  0  0
   11.6747  -16.6629   21.6627 C   0  0  0  0  0  0  0  0  0  0  0  0
   12.8356  -17.5448   22.0812 C   0  0  0  0  0  0  0  0  0  0  0  0
   13.9109  -17.5522   21.0641 C   0  0  0  0  0  0  0  0  0  0  0  0
   14.4242  -18.6208   20.6841 O   0  0  0  0  0  0  0  0  0  0  0  0
   11.0267  -16.3847   23.9987 C   0  0  0  0  0  0  0  0  0  0  0  0
   11.4936  -15.2577   24.3232 O   0  0  0  0  0  0  0  0  0  0  0  0
   14.3611  -16.3622   20.5170 O   0  0  0  0  0  0  0  0  0  0  0  0
   11.0066  -17.3631   25.0543 N   0  0  0  0  0  0  0  0  0  0  0  0
   11.4042  -16.9559   26.3840 C   0  0  1  0  0  0  0  0  0  0  0  0
   10.2239  -16.9120   27.2773 C   0  0  0  0  0  0  0  0  0  0  0  0
   10.4868  -16.4760   28.6607 C   0  0  0  0  0  0  0  0  0  0  0  0
   11.3978  -15.4709   29.0095 C   0  0  0  0  0  0  0  0  0  0  0  0
   11.4079  -15.3337   30.3384 N   0  0  0  0  0  0  0  0  0  0  0  0
   10.5295  -16.2207   30.8476 C   0  0  0  0  0  0  0  0  0  0  0  0
    9.9908  -16.8917   29.8319 N   0  0  0  0  0  0  0  0  0  0  0  0
   12.4321  -17.9311   26.9228 C   0  0  0  0  0  0  0  0  0  0  0  0
   13.1164  -17.6215   27.9256 O   0  0  0  0  0  0  0  0  0  0  0  0
   12.6385  -19.1616   26.3372 O   0  0  0  0  0  0  0  0  0  0  0  0
  1  2  1  0
  3  2  1  0
  4  3  1  0
  5  4  1  0
  5  6  1  1
  7  5  1  0
  8  7  2  0
  9  7  1  0
 10  9  1  0
 11 12  1  0
 10 11  1  6
 12 13  1  0
 13 17  1  0
 13 14  2  0
 15 10  1  0
 15 18  1  0
 16 15  2  0
 19 18  1  0
 19 20  1  1
 20 21  1  0
 21 22  2  0
 21 25  1  0
 22 23  1  0
 23 24  1  0
 25 24  2  0
 26 19  1  0
 27 26  2  0
 28 26  1  0
M  END
$$$$
