MEH.pdb
     RDKit          3D

 28 28  0  0  1  0  0  0  0  0999 V2000
    5.8647  -12.9418   26.3254 C   0  0  0  0  0  0  0  0  0  0  0  0
    6.7065  -12.5503   24.7882 S   0  0  0  0  0  0  0  0  0  0  0  0
    6.8270  -13.9538   23.6787 C   0  0  0  0  0  0  0  0  0  0  0  0
    7.6952  -13.6660   22.4923 C   0  0  0  0  0  0  0  0  0  0  0  0
    7.7401  -14.7835   21.4735 C   0  0  2  0  0  0  0  0  0  0  0  0
    6.3941  -15.1594   21.1195 N   0  0  0  0  0  0  0  0  0  0  0  0
    8.4310  -15.9274   22.1577 C   0  0  0  0  0  0  0  0  0  0  0  0
    7.7847  -16.7710   22.8374 O   0  0  0  0  0  0  0  0  0  0  0  0
    9.8099  -16.1493   22.1007 N   0  0  0  0  0  0  0  0  0  0  0  0
   10.5679  -17.1893   22.7149 C   0  0  1  0  0  0  0  0  0  0  0  0
   11.9134  -17.4542   22.1491 C   0  0  0  0  0  0  0  0  0  0  0  0
   11.9096  -18.3326   20.9125 C   0  0  0  0  0  0  0  0  0  0  0  0
   13.2690  -18.4876   20.3478 C   0  0  0  0  0  0  0  0  0  0  0  0
   13.8952  -19.5562   20.4730 O   0  0  0  0  0  0  0  0  0  0  0  0
   10.6403  -16.9345   24.1647 C   0  0  0  0  0  0  0  0  0  0  0  0
   11.1526  -15.8698   24.6088 O   0  0  0  0  0  0  0  0  0  0  0  0
   13.8645  -17.4391   19.6665 O   0  0  0  0  0  0  0  0  0  0  0  0
   10.1519  -17.8415   25.1702 N   0  0  0  0  0  0  0  0  0  0  0  0
   10.3335  -17.4951   26.5627 C   0  0  1  0  0  0  0  0  0  0  0  0
    9.0974  -16.8816   27.1001 C   0  0  0  0  0  0  0  0  0  0  0  0
    9.0614  -15.4080   27.0929 C   0  0  0  0  0  0  0  0  0  0  0  0
   10.1336  -14.5964   26.7011 C   0  0  0  0  0  0  0  0  0  0  0  0
    9.7791  -13.3145   26.8275 N   0  0  0  0  0  0  0  0  0  0  0  0
    8.5122  -13.2843   27.2873 C   0  0  0  0  0  0  0  0  0  0  0  0
    8.1020  -14.5416   27.4388 N   0  0  0  0  0  0  0  0  0  0  0  0
   10.6837  -18.7422   27.3501 C   0  0  0  0  0  0  0  0  0  0  0  0
   10.5016  -19.8714   26.8387 O   0  0  0  0  0  0  0  0  0  0  0  0
   11.2029  -18.6709   28.6248 O   0  0  0  0  0  0  0  0  0  0  0  0
  1  2  1  0
  3  2  1  0
  4  3  1  0
  5  4  1  0
  5  6  1  1
  7  5  1  0
  8  7  2  0
  9  7  1  0
 10  9  1  0
 11 12  1  0
 10 11  1  6
 12 13  1  0
 13 17  1  0
 13 14  2  0
 15 10  1  0
 15 18  1  0
 16 15  2  0
 19 18  1  0
 19 20  1  1
 20 21  1  0
 21 22  2  0
 21 25  1  0
 22 23  1  0
 23 24  1  0
 25 24  2  0
 26 19  1  0
 27 26  2  0
 28 26  1  0
M  END
$$$$
