MEH.pdb
     RDKit          3D

 28 28  0  0  1  0  0  0  0  0999 V2000
    7.6066  -11.7758   26.0481 C   0  0  0  0  0  0  0  0  0  0  0  0
    6.4721  -13.1187   26.4141 S   0  0  0  0  0  0  0  0  0  0  0  0
    6.5614  -14.4554   25.2223 C   0  0  0  0  0  0  0  0  0  0  0  0
    7.2363  -14.0381   23.9516 C   0  0  0  0  0  0  0  0  0  0  0  0
    7.3089  -15.1269   22.9037 C   0  0  2  0  0  0  0  0  0  0  0  0
    6.0656  -15.8566   22.8884 N   0  0  0  0  0  0  0  0  0  0  0  0
    8.4296  -16.0285   23.3340 C   0  0  0  0  0  0  0  0  0  0  0  0
    8.2184  -17.0305   24.0709 O   0  0  0  0  0  0  0  0  0  0  0  0
    9.7645  -15.8405   22.9645 N   0  0  0  0  0  0  0  0  0  0  0  0
   10.9039  -16.6179   23.3264 C   0  0  1  0  0  0  0  0  0  0  0  0
   12.1911  -16.2475   22.6886 C   0  0  0  0  0  0  0  0  0  0  0  0
   13.3590  -17.1338   23.0773 C   0  0  0  0  0  0  0  0  0  0  0  0
   14.5718  -16.8162   22.2904 C   0  0  0  0  0  0  0  0  0  0  0  0
   14.6357  -17.0870   21.0771 O   0  0  0  0  0  0  0  0  0  0  0  0
   11.0225  -16.6352   24.7953 C   0  0  0  0  0  0  0  0  0  0  0  0
   10.9411  -15.5669   25.4627 O   0  0  0  0  0  0  0  0  0  0  0  0
   15.6574  -16.2076   22.8980 O   0  0  0  0  0  0  0  0  0  0  0  0
   11.2340  -17.8265   25.5752 N   0  0  0  0  0  0  0  0  0  0  0  0
   11.3483  -17.7028   27.0117 C   0  0  1  0  0  0  0  0  0  0  0  0
   10.0162  -17.4532   27.6087 C   0  0  0  0  0  0  0  0  0  0  0  0
    8.9794  -18.4533   27.2960 C   0  0  0  0  0  0  0  0  0  0  0  0
    7.6197  -18.1553   27.1407 C   0  0  0  0  0  0  0  0  0  0  0  0
    6.9531  -19.2834   26.8801 N   0  0  0  0  0  0  0  0  0  0  0  0
    7.8474  -20.2920   26.8633 C   0  0  0  0  0  0  0  0  0  0  0  0
    9.0493  -19.7770   27.1130 N   0  0  0  0  0  0  0  0  0  0  0  0
   11.9465  -18.9743   27.5804 C   0  0  0  0  0  0  0  0  0  0  0  0
   12.1991  -19.9367   26.8189 O   0  0  0  0  0  0  0  0  0  0  0  0
   12.2247  -19.1051   28.9239 O   0  0  0  0  0  0  0  0  0  0  0  0
  1  2  1  0
  3  2  1  0
  4  3  1  0
  5  4  1  0
  5  6  1  1
  7  5  1  0
  8  7  2  0
  9  7  1  0
 10  9  1  0
 11 12  1  0
 10 11  1  6
 12 13  1  0
 13 17  1  0
 13 14  2  0
 15 10  1  0
 15 18  1  0
 16 15  2  0
 19 18  1  0
 19 20  1  1
 20 21  1  0
 21 22  2  0
 21 25  1  0
 22 23  1  0
 23 24  1  0
 25 24  2  0
 26 19  1  0
 27 26  2  0
 28 26  1  0
M  END
$$$$
