MEH.pdb
     RDKit          3D

 28 28  0  0  1  0  0  0  0  0999 V2000
    5.7141  -11.5479   26.1500 C   0  0  0  0  0  0  0  0  0  0  0  0
    7.1758  -12.5382   26.4776 S   0  0  0  0  0  0  0  0  0  0  0  0
    7.0392  -14.2150   25.8574 C   0  0  0  0  0  0  0  0  0  0  0  0
    7.1606  -14.2797   24.3656 C   0  0  0  0  0  0  0  0  0  0  0  0
    6.8994  -15.6512   23.7829 C   0  0  2  0  0  0  0  0  0  0  0  0
    5.8846  -16.3144   24.5630 N   0  0  0  0  0  0  0  0  0  0  0  0
    8.2003  -16.3924   23.8938 C   0  0  0  0  0  0  0  0  0  0  0  0
    8.3928  -17.2457   24.8029 O   0  0  0  0  0  0  0  0  0  0  0  0
    9.2780  -16.2063   23.0234 N   0  0  0  0  0  0  0  0  0  0  0  0
   10.5069  -16.9274   22.9650 C   0  0  1  0  0  0  0  0  0  0  0  0
   11.3572  -16.6961   21.7716 C   0  0  0  0  0  0  0  0  0  0  0  0
   12.6093  -17.5507   21.7212 C   0  0  0  0  0  0  0  0  0  0  0  0
   12.3366  -18.8865   21.1447 C   0  0  0  0  0  0  0  0  0  0  0  0
   12.9240  -19.8983   21.5699 O   0  0  0  0  0  0  0  0  0  0  0  0
   11.2594  -16.6893   24.2097 C   0  0  0  0  0  0  0  0  0  0  0  0
   11.9503  -15.6433   24.3569 O   0  0  0  0  0  0  0  0  0  0  0  0
   11.4165  -19.0286   20.1194 O   0  0  0  0  0  0  0  0  0  0  0  0
   11.2753  -17.5931   25.3300 N   0  0  0  0  0  0  0  0  0  0  0  0
   12.3371  -17.4699   26.3043 C   0  0  1  0  0  0  0  0  0  0  0  0
   11.7681  -17.3761   27.6684 C   0  0  0  0  0  0  0  0  0  0  0  0
   11.1082  -16.0997   27.9978 C   0  0  0  0  0  0  0  0  0  0  0  0
   10.9829  -15.0257   27.1075 C   0  0  0  0  0  0  0  0  0  0  0  0
   10.3521  -14.0211   27.7221 N   0  0  0  0  0  0  0  0  0  0  0  0
   10.0702  -14.4229   28.9778 C   0  0  0  0  0  0  0  0  0  0  0  0
   10.5286  -15.6643   29.1225 N   0  0  0  0  0  0  0  0  0  0  0  0
   13.2557  -18.6715   26.2023 C   0  0  0  0  0  0  0  0  0  0  0  0
   12.9946  -19.5856   25.3862 O   0  0  0  0  0  0  0  0  0  0  0  0
   14.3821  -18.7898   26.9877 O   0  0  0  0  0  0  0  0  0  0  0  0
  1  2  1  0
  3  2  1  0
  4  3  1  0
  5  4  1  0
  5  6  1  1
  7  5  1  0
  8  7  2  0
  9  7  1  0
 10  9  1  0
 11 12  1  0
 10 11  1  6
 12 13  1  0
 13 17  1  0
 13 14  2  0
 15 10  1  0
 15 18  1  0
 16 15  2  0
 19 18  1  0
 19 20  1  1
 20 21  1  0
 21 22  2  0
 21 25  1  0
 22 23  1  0
 23 24  1  0
 25 24  2  0
 26 19  1  0
 27 26  2  0
 28 26  1  0
M  END
$$$$
