MEH.pdb
     RDKit          3D

 28 28  0  0  1  0  0  0  0  0999 V2000
    8.9382  -11.7414   19.4686 C   0  0  0  0  0  0  0  0  0  0  0  0
    7.7384  -12.2567   20.7014 S   0  0  0  0  0  0  0  0  0  0  0  0
    7.4747  -14.0301   20.7235 C   0  0  0  0  0  0  0  0  0  0  0  0
    8.3914  -14.7516   19.7837 C   0  0  0  0  0  0  0  0  0  0  0  0
    8.1597  -16.2452   19.7188 C   0  0  2  0  0  0  0  0  0  0  0  0
    6.7826  -16.4988   19.3758 N   0  0  0  0  0  0  0  0  0  0  0  0
    8.4496  -16.7601   21.0989 C   0  0  0  0  0  0  0  0  0  0  0  0
    7.5321  -16.8942   21.9544 O   0  0  0  0  0  0  0  0  0  0  0  0
    9.7244  -17.1253   21.5408 N   0  0  0  0  0  0  0  0  0  0  0  0
   10.0865  -17.8133   22.7363 C   0  0  1  0  0  0  0  0  0  0  0  0
   11.4435  -18.4114   22.7740 C   0  0  0  0  0  0  0  0  0  0  0  0
   12.5732  -17.4054   22.6624 C   0  0  0  0  0  0  0  0  0  0  0  0
   13.8953  -18.0700   22.6244 C   0  0  0  0  0  0  0  0  0  0  0  0
   13.9876  -19.3112   22.6433 O   0  0  0  0  0  0  0  0  0  0  0  0
    9.8661  -16.9190   23.8868 C   0  0  0  0  0  0  0  0  0  0  0  0
   10.1620  -15.6938   23.8187 O   0  0  0  0  0  0  0  0  0  0  0  0
   15.0541  -17.3138   22.5647 O   0  0  0  0  0  0  0  0  0  0  0  0
    9.3139  -17.3436   25.1465 N   0  0  0  0  0  0  0  0  0  0  0  0
    9.1188  -16.3563   26.1854 C   0  0  1  0  0  0  0  0  0  0  0  0
    7.6728  -16.1059   26.3846 C   0  0  0  0  0  0  0  0  0  0  0  0
    7.2297  -14.7172   26.1648 C   0  0  0  0  0  0  0  0  0  0  0  0
    8.0962  -13.6431   25.9257 C   0  0  0  0  0  0  0  0  0  0  0  0
    7.3773  -12.5256   25.7867 N   0  0  0  0  0  0  0  0  0  0  0  0
    6.0779  -12.8552   25.9287 C   0  0  0  0  0  0  0  0  0  0  0  0
    6.0106  -14.1656   26.1532 N   0  0  0  0  0  0  0  0  0  0  0  0
    9.7465  -16.8504   27.4736 C   0  0  0  0  0  0  0  0  0  0  0  0
    9.6888  -16.1411   28.5049 O   0  0  0  0  0  0  0  0  0  0  0  0
   10.3851  -18.0696   27.5461 O   0  0  0  0  0  0  0  0  0  0  0  0
  1  2  1  0
  3  2  1  0
  4  3  1  0
  5  4  1  0
  5  6  1  1
  7  5  1  0
  8  7  2  0
  9  7  1  0
 10  9  1  0
 11 12  1  0
 10 11  1  6
 12 13  1  0
 13 17  1  0
 13 14  2  0
 15 10  1  0
 15 18  1  0
 16 15  2  0
 19 18  1  0
 19 20  1  1
 20 21  1  0
 21 22  2  0
 21 25  1  0
 22 23  1  0
 23 24  1  0
 25 24  2  0
 26 19  1  0
 27 26  2  0
 28 26  1  0
M  END
$$$$
