MEH.pdb
     RDKit          3D

 28 28  0  0  1  0  0  0  0  0999 V2000
    8.1951  -11.9200   20.5231 C   0  0  0  0  0  0  0  0  0  0  0  0
    7.4918  -12.3639   18.9316 S   0  0  0  0  0  0  0  0  0  0  0  0
    7.1778  -14.1219   18.7705 C   0  0  0  0  0  0  0  0  0  0  0  0
    7.3751  -14.8540   20.0626 C   0  0  0  0  0  0  0  0  0  0  0  0
    8.8216  -15.1552   20.3879 C   0  0  2  0  0  0  0  0  0  0  0  0
    9.4360  -15.8123   19.2613 N   0  0  0  0  0  0  0  0  0  0  0  0
    8.7863  -16.0824   21.5681 C   0  0  0  0  0  0  0  0  0  0  0  0
    7.9466  -15.9289   22.4970 O   0  0  0  0  0  0  0  0  0  0  0  0
    9.6555  -17.1646   21.7332 N   0  0  0  0  0  0  0  0  0  0  0  0
    9.6602  -18.1505   22.7634 C   0  0  1  0  0  0  0  0  0  0  0  0
   10.6295  -19.2635   22.6139 C   0  0  0  0  0  0  0  0  0  0  0  0
   10.4445  -20.0884   21.3545 C   0  0  0  0  0  0  0  0  0  0  0  0
   11.5115  -21.1033   21.2041 C   0  0  0  0  0  0  0  0  0  0  0  0
   12.4493  -20.9311   20.4038 O   0  0  0  0  0  0  0  0  0  0  0  0
    9.8169  -17.4788   24.0659 C   0  0  0  0  0  0  0  0  0  0  0  0
   10.5858  -16.4857   24.1922 O   0  0  0  0  0  0  0  0  0  0  0  0
   11.4807  -22.2642   21.9587 O   0  0  0  0  0  0  0  0  0  0  0  0
    9.1337  -17.8776   25.2684 N   0  0  0  0  0  0  0  0  0  0  0  0
    9.3489  -17.1093   26.4748 C   0  0  1  0  0  0  0  0  0  0  0  0
    8.1031  -16.4076   26.8605 C   0  0  0  0  0  0  0  0  0  0  0  0
    7.8826  -15.0995   26.2177 C   0  0  0  0  0  0  0  0  0  0  0  0
    8.8098  -14.4687   25.3784 C   0  0  0  0  0  0  0  0  0  0  0  0
    8.3091  -13.2963   24.9787 N   0  0  0  0  0  0  0  0  0  0  0  0
    7.0895  -13.1610   25.5372 C   0  0  0  0  0  0  0  0  0  0  0  0
    6.8535  -14.2460   26.2716 N   0  0  0  0  0  0  0  0  0  0  0  0
    9.7940  -18.0358   27.5890 C   0  0  0  0  0  0  0  0  0  0  0  0
   10.1494  -17.5566   28.6908 O   0  0  0  0  0  0  0  0  0  0  0  0
    9.8191  -19.4041   27.4254 O   0  0  0  0  0  0  0  0  0  0  0  0
  1  2  1  0
  3  2  1  0
  4  3  1  0
  5  4  1  0
  5  6  1  6
  7  5  1  0
  8  7  2  0
  9  7  1  0
 10  9  1  0
 11 12  1  0
 10 11  1  6
 12 13  1  0
 13 17  1  0
 13 14  2  0
 15 10  1  0
 15 18  1  0
 16 15  2  0
 19 18  1  0
 19 20  1  1
 20 21  1  0
 21 22  2  0
 21 25  1  0
 22 23  1  0
 23 24  1  0
 25 24  2  0
 26 19  1  0
 27 26  2  0
 28 26  1  0
M  END
$$$$
