MEH.pdb
     RDKit          3D

 28 28  0  0  1  0  0  0  0  0999 V2000
    6.9650  -12.2211   23.8611 C   0  0  0  0  0  0  0  0  0  0  0  0
    7.4578  -11.6098   22.2462 S   0  0  0  0  0  0  0  0  0  0  0  0
    7.5860  -12.9074   21.0154 C   0  0  0  0  0  0  0  0  0  0  0  0
    8.1709  -14.1668   21.5778 C   0  0  0  0  0  0  0  0  0  0  0  0
    8.3406  -15.2764   20.5635 C   0  0  2  0  0  0  0  0  0  0  0  0
    7.0435  -15.6925   20.0916 N   0  0  0  0  0  0  0  0  0  0  0  0
    9.0050  -16.4019   21.3023 C   0  0  0  0  0  0  0  0  0  0  0  0
    8.3288  -17.3127   21.8542 O   0  0  0  0  0  0  0  0  0  0  0  0
   10.3901  -16.5333   21.4368 N   0  0  0  0  0  0  0  0  0  0  0  0
   11.1218  -17.5098   22.1748 C   0  0  1  0  0  0  0  0  0  0  0  0
   12.5536  -17.6734   21.8231 C   0  0  0  0  0  0  0  0  0  0  0  0
   13.2637  -18.7731   22.5891 C   0  0  0  0  0  0  0  0  0  0  0  0
   14.3544  -19.3782   21.7920 C   0  0  0  0  0  0  0  0  0  0  0  0
   14.7737  -18.8250   20.7586 O   0  0  0  0  0  0  0  0  0  0  0  0
   10.9537  -17.2443   23.6147 C   0  0  0  0  0  0  0  0  0  0  0  0
   11.3749  -16.1704   24.1271 O   0  0  0  0  0  0  0  0  0  0  0  0
   14.9275  -20.5746   22.1898 O   0  0  0  0  0  0  0  0  0  0  0  0
   10.3178  -18.1504   24.5348 N   0  0  0  0  0  0  0  0  0  0  0  0
   10.2790  -17.7994   25.9374 C   0  0  1  0  0  0  0  0  0  0  0  0
    8.8829  -17.8277   26.4309 C   0  0  0  0  0  0  0  0  0  0  0  0
    8.0235  -16.7193   25.9773 C   0  0  0  0  0  0  0  0  0  0  0  0
    8.4938  -15.5805   25.3110 C   0  0  0  0  0  0  0  0  0  0  0  0
    7.4643  -14.7678   25.0567 N   0  0  0  0  0  0  0  0  0  0  0  0
    6.3511  -15.3549   25.5399 C   0  0  0  0  0  0  0  0  0  0  0  0
    6.7051  -16.5169   26.0844 N   0  0  0  0  0  0  0  0  0  0  0  0
   11.1318  -18.7748   26.7242 C   0  0  0  0  0  0  0  0  0  0  0  0
   11.7457  -19.6876   26.1243 O   0  0  0  0  0  0  0  0  0  0  0  0
   11.2546  -18.6868   28.0942 O   0  0  0  0  0  0  0  0  0  0  0  0
  1  2  1  0
  3  2  1  0
  4  3  1  0
  5  4  1  0
  5  6  1  1
  7  5  1  0
  8  7  2  0
  9  7  1  0
 10  9  1  0
 11 12  1  0
 10 11  1  6
 12 13  1  0
 13 17  1  0
 13 14  2  0
 15 10  1  0
 15 18  1  0
 16 15  2  0
 19 18  1  0
 19 20  1  1
 20 21  1  0
 21 22  2  0
 21 25  1  0
 22 23  1  0
 23 24  1  0
 25 24  2  0
 26 19  1  0
 27 26  2  0
 28 26  1  0
M  END
$$$$
