CHV.pdb
     RDKit          3D

 24 24  0  0  1  0  0  0  0  0999 V2000
   21.1434  -12.8677  -17.9292 N   0  0  0  0  0  0  0  0  0  0  0  0
   21.7745  -12.0938  -16.8911 C   0  0  1  0  0  0  0  0  0  0  0  0
   23.2533  -12.1591  -17.0816 C   0  0  0  0  0  0  0  0  0  0  0  0
   23.8623  -13.6640  -16.2607 S   0  0  0  0  0  0  0  0  0  0  0  0
   21.2125  -10.7566  -16.7937 C   0  0  0  0  0  0  0  0  0  0  0  0
   20.9705  -10.1260  -17.8545 O   0  0  0  0  0  0  0  0  0  0  0  0
   20.9127  -10.1011  -15.5690 N   0  0  0  0  0  0  0  0  0  0  0  0
   20.2738   -8.7793  -15.5587 C   0  0  1  0  0  0  0  0  0  0  0  0
   18.9154   -8.9423  -14.9541 C   0  0  0  0  0  0  0  0  0  0  0  0
   17.9388   -9.6309  -15.8248 C   0  0  0  0  0  0  0  0  0  0  0  0
   17.3832   -8.9948  -16.9303 C   0  0  0  0  0  0  0  0  0  0  0  0
   16.5414   -9.8720  -17.5123 N   0  0  0  0  0  0  0  0  0  0  0  0
   16.5614  -11.0171  -16.8063 C   0  0  0  0  0  0  0  0  0  0  0  0
   17.4114  -10.8581  -15.7872 N   0  0  0  0  0  0  0  0  0  0  0  0
   21.1566   -7.8523  -14.7741 C   0  0  0  0  0  0  0  0  0  0  0  0
   21.7133   -8.1609  -13.7031 O   0  0  0  0  0  0  0  0  0  0  0  0
   22.6674   -4.3846  -16.6858 C   0  0  0  0  0  0  0  0  0  0  0  0
   23.3392   -5.1461  -15.5893 C   0  0  2  0  0  0  0  0  0  0  0  0
   24.1582   -6.2872  -16.1463 C   0  0  0  0  0  0  0  0  0  0  0  0
   22.2999   -5.6262  -14.6066 C   0  0  2  0  0  0  0  0  0  0  0  0
   21.3892   -6.5195  -15.2690 N   0  0  0  0  0  0  0  0  0  0  0  0
   21.5585   -4.4602  -14.0326 C   0  0  0  0  0  0  0  0  0  0  0  0
   20.4129   -4.1792  -14.4576 O   0  0  0  0  0  0  0  0  0  0  0  0
   22.0951   -3.6659  -13.0347 O   0  0  0  0  0  0  0  0  0  0  0  0
  2  1  1  6
  2  5  1  0
  3  2  1  0
  4  3  1  0
  5  6  2  0
  7  5  1  0
  7  8  1  0
  9 10  1  0
  8  9  1  1
 10 14  1  0
 11 12  1  0
 11 10  2  0
 12 13  1  0
 13 14  2  0
 15  8  1  0
 15 21  1  0
 16 15  2  0
 18 19  1  6
 18 17  1  0
 20 21  1  6
 20 18  1  0
 22 20  1  0
 23 22  2  0
 24 22  1  0
M  END
$$$$
