CHV.pdb
     RDKit          3D

 24 24  0  0  1  0  0  0  0  0999 V2000
   15.6480  -12.0637  -14.8532 N   0  0  0  0  0  0  0  0  0  0  0  0
   16.9043  -11.4477  -14.5110 C   0  0  1  0  0  0  0  0  0  0  0  0
   17.7611  -11.4048  -15.7323 C   0  0  0  0  0  0  0  0  0  0  0  0
   18.1708  -13.1160  -16.1947 S   0  0  0  0  0  0  0  0  0  0  0  0
   16.7176  -10.1768  -13.8302 C   0  0  0  0  0  0  0  0  0  0  0  0
   15.5469   -9.7489  -13.6636 O   0  0  0  0  0  0  0  0  0  0  0  0
   17.7775   -9.3717  -13.3323 N   0  0  0  0  0  0  0  0  0  0  0  0
   17.5009   -8.1764  -12.5260 C   0  0  1  0  0  0  0  0  0  0  0  0
   16.7034   -8.6117  -11.3377 C   0  0  0  0  0  0  0  0  0  0  0  0
   16.4349   -7.5384  -10.3568 C   0  0  0  0  0  0  0  0  0  0  0  0
   16.9242   -6.2498  -10.5450 C   0  0  0  0  0  0  0  0  0  0  0  0
   16.5155   -5.5119   -9.4936 N   0  0  0  0  0  0  0  0  0  0  0  0
   15.7969   -6.2986   -8.6723 C   0  0  0  0  0  0  0  0  0  0  0  0
   15.7555   -7.5232   -9.2062 N   0  0  0  0  0  0  0  0  0  0  0  0
   18.8195   -7.5626  -12.1532 C   0  0  0  0  0  0  0  0  0  0  0  0
   19.6030   -8.0504  -11.3164 O   0  0  0  0  0  0  0  0  0  0  0  0
   20.5780   -5.7095  -15.2278 C   0  0  0  0  0  0  0  0  0  0  0  0
   21.2635   -6.3558  -14.0677 C   0  0  2  0  0  0  0  0  0  0  0  0
   21.2668   -7.8600  -14.2108 C   0  0  0  0  0  0  0  0  0  0  0  0
   20.5999   -5.9137  -12.7869 C   0  0  2  0  0  0  0  0  0  0  0  0
   19.2256   -6.3349  -12.7880 N   0  0  0  0  0  0  0  0  0  0  0  0
   20.6872   -4.4262  -12.6503 C   0  0  0  0  0  0  0  0  0  0  0  0
   19.6821   -3.7176  -12.8943 O   0  0  0  0  0  0  0  0  0  0  0  0
   21.8521   -3.7903  -12.2589 O   0  0  0  0  0  0  0  0  0  0  0  0
  2  1  1  6
  2  5  1  0
  3  2  1  0
  4  3  1  0
  5  6  2  0
  7  5  1  0
  7  8  1  0
  9 10  1  0
  8  9  1  1
 10 14  1  0
 11 12  1  0
 11 10  2  0
 12 13  1  0
 13 14  2  0
 15  8  1  0
 15 21  1  0
 16 15  2  0
 18 19  1  6
 18 17  1  0
 20 21  1  6
 20 18  1  0
 22 20  1  0
 23 22  2  0
 24 22  1  0
M  END
$$$$
