CHV.pdb
     RDKit          3D

 24 24  0  0  1  0  0  0  0  0999 V2000
   19.3880  -17.2732    7.8120 N   0  0  0  0  0  0  0  0  0  0  0  0
   20.6188  -18.0087    7.9505 C   0  0  1  0  0  0  0  0  0  0  0  0
   21.4533  -17.7722    6.7359 C   0  0  0  0  0  0  0  0  0  0  0  0
   21.1225  -19.1148    5.5537 S   0  0  0  0  0  0  0  0  0  0  0  0
   21.2707  -17.7406    9.2220 C   0  0  0  0  0  0  0  0  0  0  0  0
   21.0826  -16.6256    9.7722 O   0  0  0  0  0  0  0  0  0  0  0  0
   22.1172  -18.6606    9.8976 N   0  0  0  0  0  0  0  0  0  0  0  0
   22.6970  -18.3303   11.2054 C   0  0  1  0  0  0  0  0  0  0  0  0
   22.2640  -19.3897   12.1685 C   0  0  0  0  0  0  0  0  0  0  0  0
   20.8880  -19.2211   12.6827 C   0  0  0  0  0  0  0  0  0  0  0  0
   20.1196  -18.1136   12.3387 C   0  0  0  0  0  0  0  0  0  0  0  0
   18.9296  -18.2475   12.9575 N   0  0  0  0  0  0  0  0  0  0  0  0
   18.9416  -19.3919   13.6647 C   0  0  0  0  0  0  0  0  0  0  0  0
   20.1329  -19.9720   13.4899 N   0  0  0  0  0  0  0  0  0  0  0  0
   24.1878  -18.2638   11.0395 C   0  0  0  0  0  0  0  0  0  0  0  0
   24.8296  -18.9553   10.2258 O   0  0  0  0  0  0  0  0  0  0  0  0
   28.2399  -15.6634   11.5665 C   0  0  0  0  0  0  0  0  0  0  0  0
   26.7706  -15.7864   11.8104 C   0  0  2  0  0  0  0  0  0  0  0  0
   26.3893  -15.1718   13.1371 C   0  0  0  0  0  0  0  0  0  0  0  0
   26.3712  -17.2389   11.7273 C   0  0  2  0  0  0  0  0  0  0  0  0
   24.9444  -17.3528   11.8598 N   0  0  0  0  0  0  0  0  0  0  0  0
   27.0568  -18.0224   12.8020 C   0  0  0  0  0  0  0  0  0  0  0  0
   26.4822  -18.2090   13.9006 O   0  0  0  0  0  0  0  0  0  0  0  0
   28.3208  -18.5583   12.6294 O   0  0  0  0  0  0  0  0  0  0  0  0
  2  1  1  6
  2  5  1  0
  3  2  1  0
  4  3  1  0
  5  6  2  0
  7  5  1  0
  7  8  1  0
  9 10  1  0
  8  9  1  1
 10 14  1  0
 11 12  1  0
 11 10  2  0
 12 13  1  0
 13 14  2  0
 15  8  1  0
 15 21  1  0
 16 15  2  0
 18 19  1  1
 18 17  1  0
 20 21  1  1
 20 18  1  0
 22 20  1  0
 23 22  2  0
 24 22  1  0
M  END
$$$$
