CHV.pdb
     RDKit          3D

 24 24  0  0  1  0  0  0  0  0999 V2000
   28.2397  -16.3169  -17.2627 N   0  0  0  0  0  0  0  0  0  0  0  0
   27.7740  -16.8105  -15.9921 C   0  0  1  0  0  0  0  0  0  0  0  0
   27.2363  -15.6627  -15.2042 C   0  0  0  0  0  0  0  0  0  0  0  0
   25.4822  -15.4524  -15.6384 S   0  0  0  0  0  0  0  0  0  0  0  0
   26.8746  -17.9421  -16.1465 C   0  0  0  0  0  0  0  0  0  0  0  0
   26.3121  -18.1175  -17.2576 O   0  0  0  0  0  0  0  0  0  0  0  0
   26.5808  -18.8778  -15.1181 N   0  0  0  0  0  0  0  0  0  0  0  0
   25.6149  -19.9613  -15.3388 C   0  0  1  0  0  0  0  0  0  0  0  0
   26.1726  -21.1956  -14.7042 C   0  0  0  0  0  0  0  0  0  0  0  0
   27.1964  -21.8891  -15.5148 C   0  0  0  0  0  0  0  0  0  0  0  0
   27.6351  -21.3642  -16.7261 C   0  0  0  0  0  0  0  0  0  0  0  0
   28.5573  -22.2156  -17.2177 N   0  0  0  0  0  0  0  0  0  0  0  0
   28.6983  -23.2382  -16.3549 C   0  0  0  0  0  0  0  0  0  0  0  0
   27.8689  -23.0286  -15.3281 N   0  0  0  0  0  0  0  0  0  0  0  0
   24.3063  -19.5346  -14.7389 C   0  0  0  0  0  0  0  0  0  0  0  0
   24.1881  -19.0528  -13.5961 O   0  0  0  0  0  0  0  0  0  0  0  0
   21.8545  -17.5208  -16.8239 C   0  0  0  0  0  0  0  0  0  0  0  0
   21.0532  -18.6036  -16.1767 C   0  0  2  0  0  0  0  0  0  0  0  0
   19.7051  -18.0864  -15.7315 C   0  0  0  0  0  0  0  0  0  0  0  0
   21.8393  -19.1874  -15.0289 C   0  0  2  0  0  0  0  0  0  0  0  0
   23.0997  -19.6812  -15.5123 N   0  0  0  0  0  0  0  0  0  0  0  0
   21.0622  -20.2910  -14.3831 C   0  0  0  0  0  0  0  0  0  0  0  0
   21.1181  -21.4515  -14.8543 O   0  0  0  0  0  0  0  0  0  0  0  0
   20.2710  -20.0790  -13.2679 O   0  0  0  0  0  0  0  0  0  0  0  0
  2  1  1  6
  2  5  1  0
  3  2  1  0
  4  3  1  0
  5  6  2  0
  7  5  1  0
  7  8  1  0
  9 10  1  0
  8  9  1  1
 10 14  1  0
 11 12  1  0
 11 10  2  0
 12 13  1  0
 13 14  2  0
 15  8  1  0
 15 21  1  0
 16 15  2  0
 18 19  1  1
 18 17  1  0
 20 21  1  6
 20 18  1  0
 22 20  1  0
 23 22  2  0
 24 22  1  0
M  END
$$$$
