CHV.pdb
     RDKit          3D

 24 24  0  0  1  0  0  0  0  0999 V2000
   26.4586  -17.1059  -19.1696 N   0  0  0  0  0  0  0  0  0  0  0  0
   26.2638  -16.9762  -17.7483 C   0  0  1  0  0  0  0  0  0  0  0  0
   25.4481  -15.7535  -17.4896 C   0  0  0  0  0  0  0  0  0  0  0  0
   23.7740  -16.0439  -18.1399 S   0  0  0  0  0  0  0  0  0  0  0  0
   25.7596  -18.2042  -17.1556 C   0  0  0  0  0  0  0  0  0  0  0  0
   25.1076  -18.9993  -17.8798 O   0  0  0  0  0  0  0  0  0  0  0  0
   25.9529  -18.5765  -15.7979 N   0  0  0  0  0  0  0  0  0  0  0  0
   25.4422  -19.8547  -15.2871 C   0  0  1  0  0  0  0  0  0  0  0  0
   26.5865  -20.5687  -14.6405 C   0  0  0  0  0  0  0  0  0  0  0  0
   27.5557  -21.1545  -15.5911 C   0  0  0  0  0  0  0  0  0  0  0  0
   27.5957  -22.5247  -15.8285 C   0  0  0  0  0  0  0  0  0  0  0  0
   28.5721  -22.7434  -16.7316 N   0  0  0  0  0  0  0  0  0  0  0  0
   29.1289  -21.5620  -17.0543 C   0  0  0  0  0  0  0  0  0  0  0  0
   28.5045  -20.6079  -16.3570 N   0  0  0  0  0  0  0  0  0  0  0  0
   24.3261  -19.5502  -14.3302 C   0  0  0  0  0  0  0  0  0  0  0  0
   24.4637  -18.8762  -13.2914 O   0  0  0  0  0  0  0  0  0  0  0  0
   20.3305  -19.9276  -15.6157 C   0  0  0  0  0  0  0  0  0  0  0  0
   20.8257  -19.0437  -14.5171 C   0  0  2  0  0  0  0  0  0  0  0  0
   21.3190  -17.7247  -15.0649 C   0  0  0  0  0  0  0  0  0  0  0  0
   21.8980  -19.7670  -13.7403 C   0  0  2  0  0  0  0  0  0  0  0  0
   23.0065  -20.0570  -14.6081 N   0  0  0  0  0  0  0  0  0  0  0  0
   21.3474  -21.0317  -13.1605 C   0  0  0  0  0  0  0  0  0  0  0  0
   21.6122  -22.1320  -13.7001 O   0  0  0  0  0  0  0  0  0  0  0  0
   20.5443  -21.0361  -12.0337 O   0  0  0  0  0  0  0  0  0  0  0  0
  2  1  1  6
  2  5  1  0
  3  2  1  0
  4  3  1  0
  5  6  2  0
  7  5  1  0
  7  8  1  0
  9 10  1  0
  8  9  1  1
 10 14  1  0
 11 12  1  0
 11 10  2  0
 12 13  1  0
 13 14  2  0
 15  8  1  0
 15 21  1  0
 16 15  2  0
 18 19  1  6
 18 17  1  0
 20 21  1  6
 20 18  1  0
 22 20  1  0
 23 22  2  0
 24 22  1  0
M  END
$$$$
