CHV.pdb
     RDKit          3D

 24 24  0  0  1  0  0  0  0  0999 V2000
   18.3825  -23.5958  -11.7535 N   0  0  0  0  0  0  0  0  0  0  0  0
   18.8425  -23.4430  -10.3970 C   0  0  1  0  0  0  0  0  0  0  0  0
   18.7415  -22.0025  -10.0200 C   0  0  0  0  0  0  0  0  0  0  0  0
   20.1381  -21.1203  -10.7821 S   0  0  0  0  0  0  0  0  0  0  0  0
   18.1881  -24.3756   -9.4941 C   0  0  0  0  0  0  0  0  0  0  0  0
   16.9335  -24.4596   -9.5201 O   0  0  0  0  0  0  0  0  0  0  0  0
   18.8732  -25.2112   -8.5711 N   0  0  0  0  0  0  0  0  0  0  0  0
   18.1499  -26.2214   -7.7888 C   0  0  1  0  0  0  0  0  0  0  0  0
   18.8524  -27.5274   -7.9839 C   0  0  0  0  0  0  0  0  0  0  0  0
   18.5749  -28.1817   -9.2805 C   0  0  0  0  0  0  0  0  0  0  0  0
   17.7061  -27.6114  -10.2053 C   0  0  0  0  0  0  0  0  0  0  0  0
   17.6632  -28.4354  -11.2712 N   0  0  0  0  0  0  0  0  0  0  0  0
   18.4708  -29.4848  -11.0335 C   0  0  0  0  0  0  0  0  0  0  0  0
   19.0168  -29.3192   -9.8249 N   0  0  0  0  0  0  0  0  0  0  0  0
   18.1414  -25.7692   -6.3571 C   0  0  0  0  0  0  0  0  0  0  0  0
   19.1109  -25.2282   -5.7918 O   0  0  0  0  0  0  0  0  0  0  0  0
   14.5670  -26.3061   -4.0324 C   0  0  0  0  0  0  0  0  0  0  0  0
   15.4168  -25.0804   -3.9376 C   0  0  2  0  0  0  0  0  0  0  0  0
   14.9095  -23.9978   -4.8615 C   0  0  0  0  0  0  0  0  0  0  0  0
   16.8513  -25.4443   -4.2309 C   0  0  2  0  0  0  0  0  0  0  0  0
   16.9515  -25.9618   -5.5682 N   0  0  0  0  0  0  0  0  0  0  0  0
   17.3359  -26.4590   -3.2437 C   0  0  0  0  0  0  0  0  0  0  0  0
   17.3726  -27.6710   -3.5623 O   0  0  0  0  0  0  0  0  0  0  0  0
   17.7522  -26.1077   -1.9717 O   0  0  0  0  0  0  0  0  0  0  0  0
  2  1  1  6
  2  5  1  0
  3  2  1  0
  4  3  1  0
  5  6  2  0
  7  5  1  0
  7  8  1  0
  9 10  1  0
  8  9  1  1
 10 14  1  0
 11 12  1  0
 11 10  2  0
 12 13  1  0
 13 14  2  0
 15  8  1  0
 15 21  1  0
 16 15  2  0
 18 19  1  6
 18 17  1  0
 20 21  1  6
 20 18  1  0
 22 20  1  0
 23 22  2  0
 24 22  1  0
M  END
$$$$
