CHV.pdb
     RDKit          3D

 24 24  0  0  1  0  0  0  0  0999 V2000
   19.5220  -15.6861  -18.2864 N   0  0  0  0  0  0  0  0  0  0  0  0
   18.8384  -14.6235  -17.5948 C   0  0  1  0  0  0  0  0  0  0  0  0
   18.4840  -15.0984  -16.2250 C   0  0  0  0  0  0  0  0  0  0  0  0
   17.0033  -16.1471  -16.3567 S   0  0  0  0  0  0  0  0  0  0  0  0
   19.5784  -13.3736  -17.6540 C   0  0  0  0  0  0  0  0  0  0  0  0
   20.7900  -13.3742  -17.3168 O   0  0  0  0  0  0  0  0  0  0  0  0
   19.0239  -12.1335  -18.0712 N   0  0  0  0  0  0  0  0  0  0  0  0
   19.8558  -10.9267  -18.1560 C   0  0  1  0  0  0  0  0  0  0  0  0
   19.1664   -9.9704  -19.0765 C   0  0  0  0  0  0  0  0  0  0  0  0
   19.8973   -8.7047  -19.3003 C   0  0  0  0  0  0  0  0  0  0  0  0
   21.1346   -8.4716  -18.7088 C   0  0  0  0  0  0  0  0  0  0  0  0
   21.5378   -7.2463  -19.1001 N   0  0  0  0  0  0  0  0  0  0  0  0
   20.5963   -6.7233  -19.9063 C   0  0  0  0  0  0  0  0  0  0  0  0
   19.6082   -7.6162  -20.0195 N   0  0  0  0  0  0  0  0  0  0  0  0
   20.0181  -10.3862  -16.7646 C   0  0  0  0  0  0  0  0  0  0  0  0
   19.1313  -10.4343  -15.8909 O   0  0  0  0  0  0  0  0  0  0  0  0
   23.8583   -9.6947  -15.1476 C   0  0  0  0  0  0  0  0  0  0  0  0
   22.5903   -9.9206  -14.3896 C   0  0  2  0  0  0  0  0  0  0  0  0
   22.3107  -11.3970  -14.2310 C   0  0  0  0  0  0  0  0  0  0  0  0
   21.4590   -9.2050  -15.0856 C   0  0  2  0  0  0  0  0  0  0  0  0
   21.2661   -9.7697  -16.3933 N   0  0  0  0  0  0  0  0  0  0  0  0
   21.7631   -7.7437  -15.1906 C   0  0  0  0  0  0  0  0  0  0  0  0
   22.2666   -7.2857  -16.2435 O   0  0  0  0  0  0  0  0  0  0  0  0
   21.5068   -6.8625  -14.1550 O   0  0  0  0  0  0  0  0  0  0  0  0
  2  1  1  1
  2  5  1  0
  3  2  1  0
  4  3  1  0
  5  6  2  0
  7  5  1  0
  7  8  1  0
  9 10  1  0
  8  9  1  6
 10 14  1  0
 11 12  1  0
 11 10  2  0
 12 13  1  0
 13 14  2  0
 15  8  1  0
 15 21  1  0
 16 15  2  0
 18 19  1  6
 18 17  1  0
 20 21  1  6
 20 18  1  0
 22 20  1  0
 23 22  2  0
 24 22  1  0
M  END
$$$$
