CHV.pdb
     RDKit          3D

 24 24  0  0  1  0  0  0  0  0999 V2000
   14.3344  -10.1455  -12.4207 N   0  0  0  0  0  0  0  0  0  0  0  0
   15.6854  -10.1273  -11.9213 C   0  0  1  0  0  0  0  0  0  0  0  0
   16.5231  -11.0117  -12.7836 C   0  0  0  0  0  0  0  0  0  0  0  0
   16.0661  -10.7062  -14.5178 S   0  0  0  0  0  0  0  0  0  0  0  0
   16.1801   -8.7717  -11.7445 C   0  0  0  0  0  0  0  0  0  0  0  0
   15.7602   -7.8717  -12.5160 O   0  0  0  0  0  0  0  0  0  0  0  0
   17.1171   -8.3846  -10.7487 N   0  0  0  0  0  0  0  0  0  0  0  0
   17.5496   -6.9872  -10.6238 C   0  0  1  0  0  0  0  0  0  0  0  0
   17.3217   -6.5722   -9.2049 C   0  0  0  0  0  0  0  0  0  0  0  0
   15.9096   -6.2872   -8.8720 C   0  0  0  0  0  0  0  0  0  0  0  0
   14.9147   -6.3382   -9.8430 C   0  0  0  0  0  0  0  0  0  0  0  0
   13.7504   -6.0338   -9.2358 N   0  0  0  0  0  0  0  0  0  0  0  0
   13.9955   -5.7993   -7.9339 C   0  0  0  0  0  0  0  0  0  0  0  0
   15.3065   -5.9560   -7.7265 N   0  0  0  0  0  0  0  0  0  0  0  0
   18.9937   -6.9188  -11.0291 C   0  0  0  0  0  0  0  0  0  0  0  0
   19.9009   -7.5797  -10.4883 O   0  0  0  0  0  0  0  0  0  0  0  0
   19.9478   -5.8624  -14.8929 C   0  0  0  0  0  0  0  0  0  0  0  0
   20.8182   -6.6228  -13.9454 C   0  0  2  0  0  0  0  0  0  0  0  0
   20.4379   -8.0848  -13.9162 C   0  0  0  0  0  0  0  0  0  0  0  0
   20.7358   -5.9922  -12.5772 C   0  0  2  0  0  0  0  0  0  0  0  0
   19.3788   -6.0430  -12.1061 N   0  0  0  0  0  0  0  0  0  0  0  0
   21.2128   -4.5751  -12.6354 C   0  0  0  0  0  0  0  0  0  0  0  0
   20.3806   -3.6384  -12.6774 O   0  0  0  0  0  0  0  0  0  0  0  0
   22.5580   -4.2513  -12.6448 O   0  0  0  0  0  0  0  0  0  0  0  0
  2  1  1  6
  2  5  1  0
  3  2  1  0
  4  3  1  0
  5  6  2  0
  7  5  1  0
  7  8  1  0
  9 10  1  0
  8  9  1  1
 10 14  1  0
 11 12  1  0
 11 10  2  0
 12 13  1  0
 13 14  2  0
 15  8  1  0
 15 21  1  0
 16 15  2  0
 18 19  1  1
 18 17  1  0
 20 21  1  6
 20 18  1  0
 22 20  1  0
 23 22  2  0
 24 22  1  0
M  END
$$$$
