CHV.pdb
     RDKit          3D

 24 24  0  0  1  0  0  0  0  0999 V2000
   18.9667  -12.9973  -16.4044 N   0  0  0  0  0  0  0  0  0  0  0  0
   18.7143  -11.7698  -17.1148 C   0  0  1  0  0  0  0  0  0  0  0  0
   17.2660  -11.7157  -17.4710 C   0  0  0  0  0  0  0  0  0  0  0  0
   16.9262  -13.0524  -18.6574 S   0  0  0  0  0  0  0  0  0  0  0  0
   19.2284  -10.6135  -16.3993 C   0  0  0  0  0  0  0  0  0  0  0  0
   18.9469  -10.4851  -15.1804 O   0  0  0  0  0  0  0  0  0  0  0  0
   20.0376   -9.6033  -16.9860 N   0  0  0  0  0  0  0  0  0  0  0  0
   20.5086   -8.4606  -16.1936 C   0  0  1  0  0  0  0  0  0  0  0  0
   21.9978   -8.4079  -16.3237 C   0  0  0  0  0  0  0  0  0  0  0  0
   22.7139   -9.4561  -15.5658 C   0  0  0  0  0  0  0  0  0  0  0  0
   22.0379  -10.3099  -14.7000 C   0  0  0  0  0  0  0  0  0  0  0  0
   22.9541  -11.1424  -14.1667 N   0  0  0  0  0  0  0  0  0  0  0  0
   24.1612  -10.8305  -14.6724 C   0  0  0  0  0  0  0  0  0  0  0  0
   24.0021   -9.8080  -15.5182 N   0  0  0  0  0  0  0  0  0  0  0  0
   19.8307   -7.2293  -16.7216 C   0  0  0  0  0  0  0  0  0  0  0  0
   19.8320   -6.8939  -17.9215 O   0  0  0  0  0  0  0  0  0  0  0  0
   16.3443   -4.2233  -17.0111 C   0  0  0  0  0  0  0  0  0  0  0  0
   17.0220   -5.4696  -16.5413 C   0  0  2  0  0  0  0  0  0  0  0  0
   16.3191   -6.0454  -15.3340 C   0  0  0  0  0  0  0  0  0  0  0  0
   18.4737   -5.1715  -16.2585 C   0  0  2  0  0  0  0  0  0  0  0  0
   19.1297   -6.3673  -15.8047 N   0  0  0  0  0  0  0  0  0  0  0  0
   18.5851   -4.0942  -15.2262 C   0  0  0  0  0  0  0  0  0  0  0  0
   18.6118   -4.3966  -14.0098 O   0  0  0  0  0  0  0  0  0  0  0  0
   18.6610   -2.7549  -15.5655 O   0  0  0  0  0  0  0  0  0  0  0  0
  2  1  1  1
  2  5  1  0
  3  2  1  0
  4  3  1  0
  5  6  2  0
  7  5  1  0
  7  8  1  0
  9 10  1  0
  8  9  1  6
 10 14  1  0
 11 12  1  0
 11 10  2  0
 12 13  1  0
 13 14  2  0
 15  8  1  0
 15 21  1  0
 16 15  2  0
 18 19  1  1
 18 17  1  0
 20 21  1  1
 20 18  1  0
 22 20  1  0
 23 22  2  0
 24 22  1  0
M  END
$$$$
