CHV.pdb
     RDKit          3D

 24 24  0  0  1  0  0  0  0  0999 V2000
   22.6435  -14.6434  -16.0684 N   0  0  0  0  0  0  0  0  0  0  0  0
   22.1635  -13.5224  -16.8352 C   0  0  1  0  0  0  0  0  0  0  0  0
   20.6858  -13.6551  -16.9974 C   0  0  0  0  0  0  0  0  0  0  0  0
   20.3611  -15.1069  -18.0446 S   0  0  0  0  0  0  0  0  0  0  0  0
   22.6240  -12.2557  -16.2904 C   0  0  0  0  0  0  0  0  0  0  0  0
   22.5244  -12.0606  -15.0520 O   0  0  0  0  0  0  0  0  0  0  0  0
   23.1865  -11.2070  -17.0672 N   0  0  0  0  0  0  0  0  0  0  0  0
   23.6332   -9.9587  -16.4366 C   0  0  1  0  0  0  0  0  0  0  0  0
   25.0326   -9.6994  -16.8970 C   0  0  0  0  0  0  0  0  0  0  0  0
   26.0206  -10.6997  -16.4395 C   0  0  0  0  0  0  0  0  0  0  0  0
   26.3713  -10.8062  -15.0975 C   0  0  0  0  0  0  0  0  0  0  0  0
   27.2812  -11.7961  -15.0017 N   0  0  0  0  0  0  0  0  0  0  0  0
   27.4993  -12.2971  -16.2310 C   0  0  0  0  0  0  0  0  0  0  0  0
   26.7300  -11.6247  -17.0926 N   0  0  0  0  0  0  0  0  0  0  0  0
   22.6742   -8.8759  -16.8392 C   0  0  0  0  0  0  0  0  0  0  0  0
   22.3056   -8.6726  -18.0118 O   0  0  0  0  0  0  0  0  0  0  0  0
   18.7316   -6.8370  -16.7590 C   0  0  0  0  0  0  0  0  0  0  0  0
   19.8195   -7.8165  -16.4586 C   0  0  2  0  0  0  0  0  0  0  0  0
   19.4120   -8.7530  -15.3450 C   0  0  0  0  0  0  0  0  0  0  0  0
   21.0874   -7.0680  -16.1291 C   0  0  2  0  0  0  0  0  0  0  0  0
   22.1337   -8.0059  -15.8261 N   0  0  0  0  0  0  0  0  0  0  0  0
   20.8568   -6.1538  -14.9672 C   0  0  0  0  0  0  0  0  0  0  0  0
   20.2563   -5.0667  -15.1387 O   0  0  0  0  0  0  0  0  0  0  0  0
   21.2869   -6.4650  -13.6894 O   0  0  0  0  0  0  0  0  0  0  0  0
  2  1  1  1
  2  5  1  0
  3  2  1  0
  4  3  1  0
  5  6  2  0
  7  5  1  0
  7  8  1  0
  9 10  1  0
  8  9  1  6
 10 14  1  0
 11 12  1  0
 11 10  2  0
 12 13  1  0
 13 14  2  0
 15  8  1  0
 15 21  1  0
 16 15  2  0
 18 19  1  1
 18 17  1  0
 20 21  1  1
 20 18  1  0
 22 20  1  0
 23 22  2  0
 24 22  1  0
M  END
$$$$
