CHV.pdb
     RDKit          3D

 24 24  0  0  1  0  0  0  0  0999 V2000
   38.8332  -27.4819    3.6603 N   0  0  0  0  0  0  0  0  0  0  0  0
   37.4587  -27.6448    4.0589 C   0  0  1  0  0  0  0  0  0  0  0  0
   37.3703  -28.7993    5.0007 C   0  0  0  0  0  0  0  0  0  0  0  0
   38.2967  -28.3713    6.5067 S   0  0  0  0  0  0  0  0  0  0  0  0
   36.8813  -26.3992    4.5369 C   0  0  0  0  0  0  0  0  0  0  0  0
   37.6549  -25.4794    4.9069 O   0  0  0  0  0  0  0  0  0  0  0  0
   35.4860  -26.1421    4.6173 N   0  0  0  0  0  0  0  0  0  0  0  0
   34.9849  -24.8427    5.0820 C   0  0  1  0  0  0  0  0  0  0  0  0
   33.7280  -24.5501    4.3257 C   0  0  0  0  0  0  0  0  0  0  0  0
   33.1072  -23.2490    4.6543 C   0  0  0  0  0  0  0  0  0  0  0  0
   33.6707  -22.3988    5.6003 C   0  0  0  0  0  0  0  0  0  0  0  0
   32.8827  -21.3078    5.6739 N   0  0  0  0  0  0  0  0  0  0  0  0
   31.8616  -21.4586    4.8110 C   0  0  0  0  0  0  0  0  0  0  0  0
   32.0091  -22.6380    4.1999 N   0  0  0  0  0  0  0  0  0  0  0  0
   34.7667  -24.9418    6.5642 C   0  0  0  0  0  0  0  0  0  0  0  0
   34.3387  -25.9612    7.1386 O   0  0  0  0  0  0  0  0  0  0  0  0
   36.1806  -23.4835   10.9215 C   0  0  0  0  0  0  0  0  0  0  0  0
   36.2144  -23.2790    9.4414 C   0  0  2  0  0  0  0  0  0  0  0  0
   36.3599  -21.8141    9.1009 C   0  0  0  0  0  0  0  0  0  0  0  0
   34.9742  -23.8794    8.8267 C   0  0  2  0  0  0  0  0  0  0  0  0
   35.0629  -23.8021    7.3941 N   0  0  0  0  0  0  0  0  0  0  0  0
   33.7583  -23.1547    9.3117 C   0  0  0  0  0  0  0  0  0  0  0  0
   33.3145  -22.1778    8.6631 O   0  0  0  0  0  0  0  0  0  0  0  0
   33.0925  -23.5254   10.4667 O   0  0  0  0  0  0  0  0  0  0  0  0
  2  1  1  1
  2  5  1  0
  3  2  1  0
  4  3  1  0
  5  6  2  0
  7  5  1  0
  7  8  1  0
  9 10  1  0
  8  9  1  6
 10 14  1  0
 11 12  1  0
 11 10  2  0
 12 13  1  0
 13 14  2  0
 15  8  1  0
 15 21  1  0
 16 15  2  0
 18 19  1  1
 18 17  1  0
 20 21  1  6
 20 18  1  0
 22 20  1  0
 23 22  2  0
 24 22  1  0
M  END
$$$$
