CHV.pdb
     RDKit          3D

 24 24  0  0  1  0  0  0  0  0999 V2000
   26.3988  -26.6561  -16.2080 N   0  0  0  0  0  0  0  0  0  0  0  0
   27.1552  -26.7536  -17.4300 C   0  0  1  0  0  0  0  0  0  0  0  0
   27.6102  -25.3861  -17.8179 C   0  0  0  0  0  0  0  0  0  0  0  0
   26.5703  -24.8154  -19.1973 S   0  0  0  0  0  0  0  0  0  0  0  0
   28.1993  -27.7613  -17.3427 C   0  0  0  0  0  0  0  0  0  0  0  0
   28.9751  -27.7410  -16.3531 O   0  0  0  0  0  0  0  0  0  0  0  0
   28.4097  -28.7823  -18.3085 N   0  0  0  0  0  0  0  0  0  0  0  0
   29.4189  -29.8267  -18.0931 C   0  0  1  0  0  0  0  0  0  0  0  0
   28.6987  -31.1346  -18.0029 C   0  0  0  0  0  0  0  0  0  0  0  0
   28.0375  -31.3786  -16.7032 C   0  0  0  0  0  0  0  0  0  0  0  0
   28.7746  -31.6945  -15.5664 C   0  0  0  0  0  0  0  0  0  0  0  0
   27.8974  -31.8559  -14.5558 N   0  0  0  0  0  0  0  0  0  0  0  0
   26.6554  -31.6511  -15.0306 C   0  0  0  0  0  0  0  0  0  0  0  0
   26.7539  -31.3629  -16.3320 N   0  0  0  0  0  0  0  0  0  0  0  0
   30.3867  -29.7690  -19.2395 C   0  0  0  0  0  0  0  0  0  0  0  0
   30.0868  -29.3823  -20.3853 O   0  0  0  0  0  0  0  0  0  0  0  0
   34.3129  -31.2834  -18.6414 C   0  0  0  0  0  0  0  0  0  0  0  0
   34.1140  -30.0501  -19.4617 C   0  0  2  0  0  0  0  0  0  0  0  0
   34.3446  -28.8071  -18.6341 C   0  0  0  0  0  0  0  0  0  0  0  0
   32.7336  -30.0732  -20.0702 C   0  0  2  0  0  0  0  0  0  0  0  0
   31.7508  -30.1805  -19.0268 N   0  0  0  0  0  0  0  0  0  0  0  0
   32.6103  -31.2227  -21.0201 C   0  0  0  0  0  0  0  0  0  0  0  0
   33.1295  -31.1489  -22.1589 O   0  0  0  0  0  0  0  0  0  0  0  0
   31.9350  -32.3835  -20.6869 O   0  0  0  0  0  0  0  0  0  0  0  0
  2  1  1  1
  2  5  1  0
  3  2  1  0
  4  3  1  0
  5  6  2  0
  7  5  1  0
  7  8  1  0
  9 10  1  0
  8  9  1  6
 10 14  1  0
 11 12  1  0
 11 10  2  0
 12 13  1  0
 13 14  2  0
 15  8  1  0
 15 21  1  0
 16 15  2  0
 18 19  1  1
 18 17  1  0
 20 21  1  1
 20 18  1  0
 22 20  1  0
 23 22  2  0
 24 22  1  0
M  END
$$$$
