AVV.pdb
     RDKit          3D

 20 19  0  0  1  0  0  0  0  0999 V2000
   22.9798  -10.1852  -21.1347 C   0  0  0  0  0  0  0  0  0  0  0  0
   23.8100  -11.0488  -20.2114 C   0  0  2  0  0  0  0  0  0  0  0  0
   23.4759  -12.4527  -20.3475 N   0  0  0  0  0  0  0  0  0  0  0  0
   23.5329  -10.6446  -18.8252 C   0  0  0  0  0  0  0  0  0  0  0  0
   22.3734  -10.8670  -18.3510 O   0  0  0  0  0  0  0  0  0  0  0  0
   25.2236  -11.7752  -15.6320 C   0  0  0  0  0  0  0  0  0  0  0  0
   25.1596  -10.2749  -15.6258 C   0  0  1  0  0  0  0  0  0  0  0  0
   26.5036   -9.6999  -15.9483 C   0  0  0  0  0  0  0  0  0  0  0  0
   24.1361   -9.7299  -16.5911 C   0  0  2  0  0  0  0  0  0  0  0  0
   24.4577  -10.0202  -17.9594 N   0  0  0  0  0  0  0  0  0  0  0  0
   23.9513   -8.2545  -16.3733 C   0  0  0  0  0  0  0  0  0  0  0  0
   24.8214   -7.4655  -16.8227 O   0  0  0  0  0  0  0  0  0  0  0  0
   20.3215   -6.5124  -16.1116 C   0  0  0  0  0  0  0  0  0  0  0  0
   21.5803   -5.7372  -16.4019 C   0  0  1  0  0  0  0  0  0  0  0  0
   21.3535   -4.2759  -16.1997 C   0  0  0  0  0  0  0  0  0  0  0  0
   22.6954   -6.3007  -15.5586 C   0  0  2  0  0  0  0  0  0  0  0  0
   22.8447   -7.7151  -15.6871 N   0  0  0  0  0  0  0  0  0  0  0  0
   22.3865   -5.9360  -14.1375 C   0  0  0  0  0  0  0  0  0  0  0  0
   22.6533   -4.6957  -13.6186 O   0  0  0  0  0  0  0  0  0  0  0  0
   21.8613   -6.7949  -13.3821 O   0  0  0  0  0  0  0  0  0  0  0  0
  2  1  1  6
  2  4  1  0
  3  2  1  0
  4  5  2  0
  7  6  1  6
  7  9  1  0
  7  8  1  0
  9 11  1  0
 10  4  1  0
  9 10  1  6
 11 12  2  0
 14 13  1  1
 14 15  1  0
 14 16  1  0
 16 18  1  0
 16 17  1  1
 17 11  1  0
 18 20  2  0
 18 19  1  0
M  END
$$$$
