AVV.pdb
     RDKit          3D

 20 19  0  0  1  0  0  0  0  0999 V2000
   14.0661  -13.4910  -17.3878 C   0  0  0  0  0  0  0  0  0  0  0  0
   15.4167  -14.1467  -17.5712 C   0  0  2  0  0  0  0  0  0  0  0  0
   15.4190  -15.5124  -17.0857 N   0  0  0  0  0  0  0  0  0  0  0  0
   16.4100  -13.3850  -16.7999 C   0  0  0  0  0  0  0  0  0  0  0  0
   16.4595  -13.5582  -15.5403 O   0  0  0  0  0  0  0  0  0  0  0  0
   19.7968  -12.8476  -18.2548 C   0  0  0  0  0  0  0  0  0  0  0  0
   19.6971  -11.8733  -17.1164 C   0  0  1  0  0  0  0  0  0  0  0  0
   20.1211  -10.5098  -17.5657 C   0  0  0  0  0  0  0  0  0  0  0  0
   18.3087  -11.7993  -16.5308 C   0  0  2  0  0  0  0  0  0  0  0  0
   17.3297  -12.4620  -17.3447 N   0  0  0  0  0  0  0  0  0  0  0  0
   17.9291  -10.3679  -16.2744 C   0  0  0  0  0  0  0  0  0  0  0  0
   17.5148   -9.6729  -17.2370 O   0  0  0  0  0  0  0  0  0  0  0  0
   17.8834   -8.6414  -12.3859 C   0  0  0  0  0  0  0  0  0  0  0  0
   16.9209   -8.2059  -13.4600 C   0  0  1  0  0  0  0  0  0  0  0  0
   16.4822   -6.7979  -13.2301 C   0  0  0  0  0  0  0  0  0  0  0  0
   17.5688   -8.4281  -14.8028 C   0  0  2  0  0  0  0  0  0  0  0  0
   18.0170   -9.7693  -15.0014 N   0  0  0  0  0  0  0  0  0  0  0  0
   18.7229   -7.4748  -14.8867 C   0  0  0  0  0  0  0  0  0  0  0  0
   18.5698   -6.1588  -15.2378 O   0  0  0  0  0  0  0  0  0  0  0  0
   19.8828   -7.8886  -14.6264 O   0  0  0  0  0  0  0  0  0  0  0  0
  2  1  1  1
  2  4  1  0
  3  2  1  0
  4  5  2  0
  7  6  1  6
  7  9  1  0
  7  8  1  0
  9 11  1  0
 10  4  1  0
  9 10  1  6
 11 12  2  0
 14 13  1  1
 14 15  1  0
 14 16  1  0
 16 18  1  0
 16 17  1  1
 17 11  1  0
 18 20  2  0
 18 19  1  0
M  END
$$$$
