AVV.pdb
     RDKit          3D

 20 19  0  0  1  0  0  0  0  0999 V2000
   12.4366   -9.9728  -14.4103 C   0  0  0  0  0  0  0  0  0  0  0  0
   12.7178   -9.1978  -13.1422 C   0  0  2  0  0  0  0  0  0  0  0  0
   13.9563   -8.4506  -13.2352 N   0  0  0  0  0  0  0  0  0  0  0  0
   12.8425  -10.1544  -12.0327 C   0  0  0  0  0  0  0  0  0  0  0  0
   13.9561  -10.7475  -11.8681 O   0  0  0  0  0  0  0  0  0  0  0  0
   13.0267   -9.8172   -8.4353 C   0  0  0  0  0  0  0  0  0  0  0  0
   11.9290  -10.8090   -8.6929 C   0  0  1  0  0  0  0  0  0  0  0  0
   10.5929  -10.1549   -8.5261 C   0  0  0  0  0  0  0  0  0  0  0  0
   12.0147  -11.4320  -10.0643 C   0  0  2  0  0  0  0  0  0  0  0  0
   11.8161  -10.4779  -11.1179 N   0  0  0  0  0  0  0  0  0  0  0  0
   11.0492  -12.5785  -10.1749 C   0  0  0  0  0  0  0  0  0  0  0  0
    9.8328  -12.3251  -10.3686 O   0  0  0  0  0  0  0  0  0  0  0  0
   11.8541  -16.1978  -11.8587 C   0  0  0  0  0  0  0  0  0  0  0  0
   11.1163  -16.3104  -10.5499 C   0  0  1  0  0  0  0  0  0  0  0  0
   12.0245  -16.8162   -9.4789 C   0  0  0  0  0  0  0  0  0  0  0  0
   10.4917  -14.9751  -10.2354 C   0  0  2  0  0  0  0  0  0  0  0  0
   11.4471  -13.9266  -10.0710 N   0  0  0  0  0  0  0  0  0  0  0  0
    9.6963  -15.1577   -8.9777 C   0  0  0  0  0  0  0  0  0  0  0  0
    8.4506  -15.7294   -8.9680 O   0  0  0  0  0  0  0  0  0  0  0  0
   10.1820  -14.7745   -7.8815 O   0  0  0  0  0  0  0  0  0  0  0  0
  2  1  1  6
  2  4  1  0
  3  2  1  0
  4  5  2  0
  7  6  1  6
  7  9  1  0
  7  8  1  0
  9 11  1  0
 10  4  1  0
  9 10  1  6
 11 12  2  0
 14 13  1  6
 14 15  1  0
 14 16  1  0
 16 18  1  0
 16 17  1  1
 17 11  1  0
 18 20  2  0
 18 19  1  0
M  END
$$$$
