AVV.pdb
     RDKit          3D

 20 19  0  0  1  0  0  0  0  0999 V2000
   29.2953  -21.9262  -15.6291 C   0  0  0  0  0  0  0  0  0  0  0  0
   27.7878  -21.8777  -15.7435 C   0  0  2  0  0  0  0  0  0  0  0  0
   27.3641  -21.1711  -16.9360 N   0  0  0  0  0  0  0  0  0  0  0  0
   27.2573  -21.1615  -14.5741 C   0  0  0  0  0  0  0  0  0  0  0  0
   27.7643  -20.0336  -14.2749 O   0  0  0  0  0  0  0  0  0  0  0  0
   23.3047  -21.7471  -13.2315 C   0  0  0  0  0  0  0  0  0  0  0  0
   24.1268  -20.4937  -13.1403 C   0  0  1  0  0  0  0  0  0  0  0  0
   23.5358  -19.5615  -12.1291 C   0  0  0  0  0  0  0  0  0  0  0  0
   25.5689  -20.7652  -12.7898 C   0  0  2  0  0  0  0  0  0  0  0  0
   26.2160  -21.6246  -13.7399 N   0  0  0  0  0  0  0  0  0  0  0  0
   25.6691  -21.3171  -11.3955 C   0  0  0  0  0  0  0  0  0  0  0  0
   25.4569  -22.5436  -11.2163 O   0  0  0  0  0  0  0  0  0  0  0  0
   28.3007  -20.3477   -8.4472 C   0  0  0  0  0  0  0  0  0  0  0  0
   26.8641  -20.3026   -7.9956 C   0  0  1  0  0  0  0  0  0  0  0  0
   26.4129  -18.8901   -7.8258 C   0  0  0  0  0  0  0  0  0  0  0  0
   26.0301  -21.0931   -8.9710 C   0  0  2  0  0  0  0  0  0  0  0  0
   25.9907  -20.5200  -10.2784 N   0  0  0  0  0  0  0  0  0  0  0  0
   24.6487  -21.1690   -8.3932 C   0  0  0  0  0  0  0  0  0  0  0  0
   24.3195  -22.0273   -7.3765 O   0  0  0  0  0  0  0  0  0  0  0  0
   23.7477  -20.4194   -8.8522 O   0  0  0  0  0  0  0  0  0  0  0  0
  2  1  1  1
  2  4  1  0
  3  2  1  0
  4  5  2  0
  7  6  1  1
  7  9  1  0
  7  8  1  0
  9 11  1  0
 10  4  1  0
  9 10  1  6
 11 12  2  0
 14 13  1  6
 14 15  1  0
 14 16  1  0
 16 18  1  0
 16 17  1  6
 17 11  1  0
 18 20  2  0
 18 19  1  0
M  END
$$$$
