AVV.pdb
     RDKit          3D

 20 19  0  0  1  0  0  0  0  0999 V2000
   18.8046  -13.2158  -19.2037 C   0  0  0  0  0  0  0  0  0  0  0  0
   19.8614  -13.9108  -18.3742 C   0  0  2  0  0  0  0  0  0  0  0  0
   19.3703  -15.1544  -17.8146 N   0  0  0  0  0  0  0  0  0  0  0  0
   20.2346  -13.0243  -17.2622 C   0  0  0  0  0  0  0  0  0  0  0  0
   19.3949  -12.8463  -16.3230 O   0  0  0  0  0  0  0  0  0  0  0  0
   24.1626  -11.3456  -16.7013 C   0  0  0  0  0  0  0  0  0  0  0  0
   23.1909  -11.5790  -15.5805 C   0  0  1  0  0  0  0  0  0  0  0  0
   23.4326  -10.5984  -14.4755 C   0  0  0  0  0  0  0  0  0  0  0  0
   21.7524  -11.4880  -16.0261 C   0  0  2  0  0  0  0  0  0  0  0  0
   21.4652  -12.3414  -17.1437 N   0  0  0  0  0  0  0  0  0  0  0  0
   21.3896  -10.0596  -16.3206 C   0  0  0  0  0  0  0  0  0  0  0  0
   21.6817   -9.5840  -17.4475 O   0  0  0  0  0  0  0  0  0  0  0  0
   18.7216   -6.1479  -16.0625 C   0  0  0  0  0  0  0  0  0  0  0  0
   18.9391   -7.6249  -15.8603 C   0  0  1  0  0  0  0  0  0  0  0  0
   18.2941   -8.4040  -16.9579 C   0  0  0  0  0  0  0  0  0  0  0  0
   20.4191   -7.8773  -15.7255 C   0  0  2  0  0  0  0  0  0  0  0  0
   20.7358   -9.2285  -15.3888 N   0  0  0  0  0  0  0  0  0  0  0  0
   20.9197   -6.9444  -14.6639 C   0  0  0  0  0  0  0  0  0  0  0  0
   21.4735   -5.7246  -14.9540 O   0  0  0  0  0  0  0  0  0  0  0  0
   20.8330   -7.2845  -13.4552 O   0  0  0  0  0  0  0  0  0  0  0  0
  2  1  1  1
  2  4  1  0
  3  2  1  0
  4  5  2  0
  7  6  1  6
  7  9  1  0
  7  8  1  0
  9 11  1  0
 10  4  1  0
  9 10  1  6
 11 12  2  0
 14 13  1  6
 14 15  1  0
 14 16  1  0
 16 18  1  0
 16 17  1  1
 17 11  1  0
 18 20  2  0
 18 19  1  0
M  END
$$$$
