AVV.pdb
     RDKit          3D

 20 19  0  0  1  0  0  0  0  0999 V2000
   17.0128  -14.3277  -14.8129 C   0  0  0  0  0  0  0  0  0  0  0  0
   15.9765  -13.5188  -15.5611 C   0  0  2  0  0  0  0  0  0  0  0  0
   15.3640  -14.2880  -16.6261 N   0  0  0  0  0  0  0  0  0  0  0  0
   16.6431  -12.3544  -16.1623 C   0  0  0  0  0  0  0  0  0  0  0  0
   17.5173  -12.5573  -17.0642 O   0  0  0  0  0  0  0  0  0  0  0  0
   14.8403   -9.7368  -17.6695 C   0  0  0  0  0  0  0  0  0  0  0  0
   16.0776   -9.0176  -17.2146 C   0  0  1  0  0  0  0  0  0  0  0  0
   15.7103   -7.8713  -16.3246 C   0  0  0  0  0  0  0  0  0  0  0  0
   17.0469   -9.9216  -16.4938 C   0  0  2  0  0  0  0  0  0  0  0  0
   16.3933  -11.0072  -15.8199 N   0  0  0  0  0  0  0  0  0  0  0  0
   17.8967   -9.1216  -15.5468 C   0  0  0  0  0  0  0  0  0  0  0  0
   17.5274   -9.0150  -14.3494 O   0  0  0  0  0  0  0  0  0  0  0  0
   22.1907   -7.1995  -14.2860 C   0  0  0  0  0  0  0  0  0  0  0  0
   21.4071   -7.9882  -15.3028 C   0  0  1  0  0  0  0  0  0  0  0  0
   21.9058   -9.3933  -15.3727 C   0  0  0  0  0  0  0  0  0  0  0  0
   19.9416   -7.8803  -14.9673 C   0  0  2  0  0  0  0  0  0  0  0  0
   19.0905   -8.4849  -15.9416 N   0  0  0  0  0  0  0  0  0  0  0  0
   19.6352   -6.4179  -14.8429 C   0  0  0  0  0  0  0  0  0  0  0  0
   18.9147   -5.7315  -15.7854 O   0  0  0  0  0  0  0  0  0  0  0  0
   20.0512   -5.7856  -13.8372 O   0  0  0  0  0  0  0  0  0  0  0  0
  2  1  1  6
  2  4  1  0
  3  2  1  0
  4  5  2  0
  7  6  1  1
  7  9  1  0
  7  8  1  0
  9 11  1  0
 10  4  1  0
  9 10  1  1
 11 12  2  0
 14 13  1  1
 14 15  1  0
 14 16  1  0
 16 18  1  0
 16 17  1  6
 17 11  1  0
 18 20  2  0
 18 19  1  0
M  END
$$$$
