AVV.pdb
     RDKit          3D

 20 19  0  0  1  0  0  0  0  0999 V2000
   23.2831  -11.7563  -21.5052 C   0  0  0  0  0  0  0  0  0  0  0  0
   24.3207  -12.1818  -20.4903 C   0  0  2  0  0  0  0  0  0  0  0  0
   24.4517  -13.6241  -20.4314 N   0  0  0  0  0  0  0  0  0  0  0  0
   23.8954  -11.7063  -19.1656 C   0  0  0  0  0  0  0  0  0  0  0  0
   22.7538  -12.0644  -18.7327 O   0  0  0  0  0  0  0  0  0  0  0  0
   25.8190  -12.0587  -15.8277 C   0  0  0  0  0  0  0  0  0  0  0  0
   25.3067  -10.6538  -15.9651 C   0  0  1  0  0  0  0  0  0  0  0  0
   26.4291   -9.7275  -16.3158 C   0  0  0  0  0  0  0  0  0  0  0  0
   24.2126  -10.5292  -16.9964 C   0  0  2  0  0  0  0  0  0  0  0  0
   24.6568  -10.8725  -18.3173 N   0  0  0  0  0  0  0  0  0  0  0  0
   23.6195   -9.1488  -16.9598 C   0  0  0  0  0  0  0  0  0  0  0  0
   24.2240   -8.2176  -17.5506 O   0  0  0  0  0  0  0  0  0  0  0  0
   20.7065   -7.6907  -18.4500 C   0  0  0  0  0  0  0  0  0  0  0  0
   20.5367   -7.4276  -16.9763 C   0  0  1  0  0  0  0  0  0  0  0  0
   19.5145   -8.3468  -16.3950 C   0  0  0  0  0  0  0  0  0  0  0  0
   21.8869   -7.5243  -16.3135 C   0  0  2  0  0  0  0  0  0  0  0  0
   22.4146   -8.8512  -16.2919 N   0  0  0  0  0  0  0  0  0  0  0  0
   21.7183   -7.0076  -14.9162 C   0  0  0  0  0  0  0  0  0  0  0  0
   21.5362   -5.6780  -14.6374 O   0  0  0  0  0  0  0  0  0  0  0  0
   21.7433   -7.8179  -13.9533 O   0  0  0  0  0  0  0  0  0  0  0  0
  2  1  1  6
  2  4  1  0
  3  2  1  0
  4  5  2  0
  7  6  1  6
  7  9  1  0
  7  8  1  0
  9 11  1  0
 10  4  1  0
  9 10  1  6
 11 12  2  0
 14 13  1  6
 14 15  1  0
 14 16  1  0
 16 18  1  0
 16 17  1  1
 17 11  1  0
 18 20  2  0
 18 19  1  0
M  END
$$$$
