AVV.pdb
     RDKit          3D

 20 19  0  0  1  0  0  0  0  0999 V2000
   27.2871  -19.6754  -17.7144 C   0  0  0  0  0  0  0  0  0  0  0  0
   25.7976  -19.5214  -17.9280 C   0  0  2  0  0  0  0  0  0  0  0  0
   25.4977  -18.4408  -18.8463 N   0  0  0  0  0  0  0  0  0  0  0  0
   25.1739  -19.2087  -16.6338 C   0  0  0  0  0  0  0  0  0  0  0  0
   25.5974  -18.1981  -15.9871 O   0  0  0  0  0  0  0  0  0  0  0  0
   21.4125  -20.7441  -15.3742 C   0  0  0  0  0  0  0  0  0  0  0  0
   22.0297  -19.4749  -14.8609 C   0  0  1  0  0  0  0  0  0  0  0  0
   21.4836  -19.1467  -13.5063 C   0  0  0  0  0  0  0  0  0  0  0  0
   23.5352  -19.5440  -14.7915 C   0  0  2  0  0  0  0  0  0  0  0  0
   24.1278  -19.9452  -16.0356 N   0  0  0  0  0  0  0  0  0  0  0  0
   23.9622  -20.4441  -13.6663 C   0  0  0  0  0  0  0  0  0  0  0  0
   23.8575  -21.6882  -13.8172 O   0  0  0  0  0  0  0  0  0  0  0  0
   25.0772  -19.0983   -9.7252 C   0  0  0  0  0  0  0  0  0  0  0  0
   25.7800  -20.2526  -10.3910 C   0  0  1  0  0  0  0  0  0  0  0  0
   26.2721  -21.2246   -9.3708 C   0  0  0  0  0  0  0  0  0  0  0  0
   24.8471  -20.8598  -11.4074 C   0  0  2  0  0  0  0  0  0  0  0  0
   24.4755  -19.9553  -12.4481 N   0  0  0  0  0  0  0  0  0  0  0  0
   23.6329  -21.3185  -10.6570 C   0  0  0  0  0  0  0  0  0  0  0  0
   22.4615  -20.6069  -10.6419 O   0  0  0  0  0  0  0  0  0  0  0  0
   23.6797  -22.3982  -10.0119 O   0  0  0  0  0  0  0  0  0  0  0  0
  2  1  1  1
  2  4  1  0
  3  2  1  0
  4  5  2  0
  7  6  1  1
  7  9  1  0
  7  8  1  0
  9 11  1  0
 10  4  1  0
  9 10  1  6
 11 12  2  0
 14 13  1  1
 14 15  1  0
 14 16  1  0
 16 18  1  0
 16 17  1  6
 17 11  1  0
 18 20  2  0
 18 19  1  0
M  END
$$$$
