AVV.pdb
     RDKit          3D

 20 19  0  0  1  0  0  0  0  0999 V2000
   18.5470  -15.7224  -15.8287 C   0  0  0  0  0  0  0  0  0  0  0  0
   17.7573  -14.9609  -16.8699 C   0  0  2  0  0  0  0  0  0  0  0  0
   17.6406  -15.7090  -18.1059 N   0  0  0  0  0  0  0  0  0  0  0  0
   18.4638  -13.7046  -17.1601 C   0  0  0  0  0  0  0  0  0  0  0  0
   19.4342  -13.7330  -17.9825 O   0  0  0  0  0  0  0  0  0  0  0  0
   17.4746  -10.9050  -19.0532 C   0  0  0  0  0  0  0  0  0  0  0  0
   17.9752  -10.3051  -17.7708 C   0  0  1  0  0  0  0  0  0  0  0  0
   16.8228   -9.8675  -16.9215 C   0  0  0  0  0  0  0  0  0  0  0  0
   18.8470  -11.2523  -16.9840 C   0  0  2  0  0  0  0  0  0  0  0  0
   18.1539  -12.4476  -16.5958 N   0  0  0  0  0  0  0  0  0  0  0  0
   19.4346  -10.5489  -15.7930 C   0  0  0  0  0  0  0  0  0  0  0  0
   18.8006  -10.5706  -14.7072 O   0  0  0  0  0  0  0  0  0  0  0  0
   22.8545  -10.9981  -14.1952 C   0  0  0  0  0  0  0  0  0  0  0  0
   22.6682   -9.5268  -14.4609 C   0  0  1  0  0  0  0  0  0  0  0  0
   23.5203   -9.0897  -15.6057 C   0  0  0  0  0  0  0  0  0  0  0  0
   21.1986   -9.2583  -14.6610 C   0  0  2  0  0  0  0  0  0  0  0  0
   20.6662   -9.8652  -15.8390 N   0  0  0  0  0  0  0  0  0  0  0  0
   21.0379   -7.7690  -14.7236 C   0  0  0  0  0  0  0  0  0  0  0  0
   21.1907   -6.9629  -13.6257 O   0  0  0  0  0  0  0  0  0  0  0  0
   20.7514   -7.2267  -15.8228 O   0  0  0  0  0  0  0  0  0  0  0  0
  2  1  1  1
  2  4  1  0
  3  2  1  0
  4  5  2  0
  7  6  1  6
  7  9  1  0
  7  8  1  0
  9 11  1  0
 10  4  1  0
  9 10  1  1
 11 12  2  0
 14 13  1  6
 14 15  1  0
 14 16  1  0
 16 18  1  0
 16 17  1  6
 17 11  1  0
 18 20  2  0
 18 19  1  0
M  END
$$$$
