AVV.pdb
     RDKit          3D

 20 19  0  0  1  0  0  0  0  0999 V2000
   21.4644  -12.4436  -17.2473 C   0  0  0  0  0  0  0  0  0  0  0  0
   19.9946  -12.2116  -17.5188 C   0  0  2  0  0  0  0  0  0  0  0  0
   19.6084  -12.7010  -18.8273 N   0  0  0  0  0  0  0  0  0  0  0  0
   19.7386  -10.7644  -17.4773 C   0  0  0  0  0  0  0  0  0  0  0  0
   19.9963  -10.0750  -18.5152 O   0  0  0  0  0  0  0  0  0  0  0  0
   16.8710   -9.0859  -15.0934 C   0  0  0  0  0  0  0  0  0  0  0  0
   17.4890   -8.3343  -16.2372 C   0  0  1  0  0  0  0  0  0  0  0  0
   17.3218   -6.8604  -16.0364 C   0  0  0  0  0  0  0  0  0  0  0  0
   18.9522   -8.6524  -16.4224 C   0  0  2  0  0  0  0  0  0  0  0  0
   19.2227  -10.0609  -16.3667 N   0  0  0  0  0  0  0  0  0  0  0  0
   19.7787   -7.8962  -15.4206 C   0  0  0  0  0  0  0  0  0  0  0  0
   19.8083   -8.3059  -14.2320 O   0  0  0  0  0  0  0  0  0  0  0  0
   23.4179   -7.4094  -15.8155 C   0  0  0  0  0  0  0  0  0  0  0  0
   22.8600   -6.0513  -15.4778 C   0  0  1  0  0  0  0  0  0  0  0  0
   22.8509   -5.1742  -16.6855 C   0  0  0  0  0  0  0  0  0  0  0  0
   21.5018   -6.2337  -14.8500 C   0  0  2  0  0  0  0  0  0  0  0  0
   20.5230   -6.7468  -15.7545 N   0  0  0  0  0  0  0  0  0  0  0  0
   21.0819   -4.8897  -14.3349 C   0  0  0  0  0  0  0  0  0  0  0  0
   21.6643   -4.3028  -13.2418 O   0  0  0  0  0  0  0  0  0  0  0  0
   20.1590   -4.2668  -14.9219 O   0  0  0  0  0  0  0  0  0  0  0  0
  2  1  1  6
  2  4  1  0
  3  2  1  0
  4  5  2  0
  7  6  1  1
  7  9  1  0
  7  8  1  0
  9 11  1  0
 10  4  1  0
  9 10  1  1
 11 12  2  0
 14 13  1  6
 14 15  1  0
 14 16  1  0
 16 18  1  0
 16 17  1  6
 17 11  1  0
 18 20  2  0
 18 19  1  0
M  END
$$$$
