AVV.pdb
     RDKit          3D

 20 19  0  0  1  0  0  0  0  0999 V2000
   26.0406  -20.7976  -11.1382 C   0  0  0  0  0  0  0  0  0  0  0  0
   24.9737  -21.6383  -11.8036 C   0  0  2  0  0  0  0  0  0  0  0  0
   25.4100  -23.0080  -11.9891 N   0  0  0  0  0  0  0  0  0  0  0  0
   24.6906  -21.0648  -13.1275 C   0  0  0  0  0  0  0  0  0  0  0  0
   25.4285  -21.4085  -14.1055 O   0  0  0  0  0  0  0  0  0  0  0  0
   21.1462  -20.6575  -14.1174 C   0  0  0  0  0  0  0  0  0  0  0  0
   22.0007  -20.1041  -15.2214 C   0  0  1  0  0  0  0  0  0  0  0  0
   21.3315  -18.9206  -15.8478 C   0  0  0  0  0  0  0  0  0  0  0  0
   23.3793  -19.7104  -14.7517 C   0  0  2  0  0  0  0  0  0  0  0  0
   23.6532  -20.1500  -13.4131 N   0  0  0  0  0  0  0  0  0  0  0  0
   23.5708  -18.2263  -14.8905 C   0  0  0  0  0  0  0  0  0  0  0  0
   22.9971  -17.4655  -14.0699 O   0  0  0  0  0  0  0  0  0  0  0  0
   26.1372  -14.3744  -16.3026 C   0  0  0  0  0  0  0  0  0  0  0  0
   25.9849  -15.8707  -16.3903 C   0  0  1  0  0  0  0  0  0  0  0  0
   27.0807  -16.5532  -15.6413 C   0  0  0  0  0  0  0  0  0  0  0  0
   24.6031  -16.2405  -15.9150 C   0  0  2  0  0  0  0  0  0  0  0  0
   24.3659  -17.6486  -15.9008 N   0  0  0  0  0  0  0  0  0  0  0  0
   23.6349  -15.5579  -16.8340 C   0  0  0  0  0  0  0  0  0  0  0  0
   22.9449  -14.4296  -16.4741 O   0  0  0  0  0  0  0  0  0  0  0  0
   23.4402  -16.0311  -17.9840 O   0  0  0  0  0  0  0  0  0  0  0  0
  2  1  1  6
  2  4  1  0
  3  2  1  0
  4  5  2  0
  7  6  1  1
  7  9  1  0
  7  8  1  0
  9 11  1  0
 10  4  1  0
  9 10  1  1
 11 12  2  0
 14 13  1  1
 14 15  1  0
 14 16  1  0
 16 18  1  0
 16 17  1  6
 17 11  1  0
 18 20  2  0
 18 19  1  0
M  END
$$$$
