AVV.pdb
     RDKit          3D

 20 19  0  0  1  0  0  0  0  0999 V2000
   16.2764  -10.8353  -14.3952 C   0  0  0  0  0  0  0  0  0  0  0  0
   15.4803  -10.2443  -13.2529 C   0  0  2  0  0  0  0  0  0  0  0  0
   14.0839  -10.0774  -13.6039 N   0  0  0  0  0  0  0  0  0  0  0  0
   16.0348   -8.9194  -12.9385 C   0  0  0  0  0  0  0  0  0  0  0  0
   15.9576   -8.0067  -13.8216 O   0  0  0  0  0  0  0  0  0  0  0  0
   16.5874   -7.7542   -9.0626 C   0  0  0  0  0  0  0  0  0  0  0  0
   16.6114   -6.7005  -10.1323 C   0  0  1  0  0  0  0  0  0  0  0  0
   17.4700   -5.5511   -9.7051 C   0  0  0  0  0  0  0  0  0  0  0  0
   17.1008   -7.2262  -11.4591 C   0  0  2  0  0  0  0  0  0  0  0  0
   16.6563   -8.5656  -11.7206 N   0  0  0  0  0  0  0  0  0  0  0  0
   18.5978   -7.1208  -11.5389 C   0  0  0  0  0  0  0  0  0  0  0  0
   19.2931   -7.8079  -10.7478 O   0  0  0  0  0  0  0  0  0  0  0  0
   20.7376   -8.3214  -14.0351 C   0  0  0  0  0  0  0  0  0  0  0  0
   21.1307   -6.8704  -13.9359 C   0  0  1  0  0  0  0  0  0  0  0  0
   20.5951   -6.1024  -15.0982 C   0  0  0  0  0  0  0  0  0  0  0  0
   20.6782   -6.3417  -12.5988 C   0  0  2  0  0  0  0  0  0  0  0  0
   19.2579   -6.2851  -12.4622 N   0  0  0  0  0  0  0  0  0  0  0  0
   21.2709   -4.9720  -12.4548 C   0  0  0  0  0  0  0  0  0  0  0  0
   22.6132   -4.7635  -12.2721 O   0  0  0  0  0  0  0  0  0  0  0  0
   20.5151   -3.9666  -12.5021 O   0  0  0  0  0  0  0  0  0  0  0  0
  2  1  1  6
  2  4  1  0
  3  2  1  0
  4  5  2  0
  7  6  1  1
  7  9  1  0
  7  8  1  0
  9 11  1  0
 10  4  1  0
  9 10  1  1
 11 12  2  0
 14 13  1  6
 14 15  1  0
 14 16  1  0
 16 18  1  0
 16 17  1  6
 17 11  1  0
 18 20  2  0
 18 19  1  0
M  END
$$$$
