AVV.pdb
     RDKit          3D

 20 19  0  0  1  0  0  0  0  0999 V2000
   26.0797  -20.5681  -10.9054 C   0  0  0  0  0  0  0  0  0  0  0  0
   25.0206  -21.3308  -11.6699 C   0  0  2  0  0  0  0  0  0  0  0  0
   25.3771  -22.7266  -11.8300 N   0  0  0  0  0  0  0  0  0  0  0  0
   24.8950  -20.7341  -13.0078 C   0  0  0  0  0  0  0  0  0  0  0  0
   25.7597  -21.0397  -13.8896 O   0  0  0  0  0  0  0  0  0  0  0  0
   21.5952  -18.9711  -16.0536 C   0  0  0  0  0  0  0  0  0  0  0  0
   22.4259  -20.0182  -15.3691 C   0  0  1  0  0  0  0  0  0  0  0  0
   22.7615  -21.1182  -16.3274 C   0  0  0  0  0  0  0  0  0  0  0  0
   23.6981  -19.4612  -14.7795 C   0  0  2  0  0  0  0  0  0  0  0  0
   23.8806  -19.8357  -13.4060 N   0  0  0  0  0  0  0  0  0  0  0  0
   23.7392  -17.9686  -14.9500 C   0  0  0  0  0  0  0  0  0  0  0  0
   22.9911  -17.2592  -14.2300 O   0  0  0  0  0  0  0  0  0  0  0  0
   26.8958  -15.6624  -15.1624 C   0  0  0  0  0  0  0  0  0  0  0  0
   25.9617  -15.3436  -16.3007 C   0  0  1  0  0  0  0  0  0  0  0  0
   26.5219  -15.8400  -17.5921 C   0  0  0  0  0  0  0  0  0  0  0  0
   24.6005  -15.9030  -15.9747 C   0  0  2  0  0  0  0  0  0  0  0  0
   24.5800  -17.3279  -15.8823 N   0  0  0  0  0  0  0  0  0  0  0  0
   23.6735  -15.4373  -17.0570 C   0  0  0  0  0  0  0  0  0  0  0  0
   23.1391  -14.1753  -17.0793 O   0  0  0  0  0  0  0  0  0  0  0  0
   23.3670  -16.2281  -17.9870 O   0  0  0  0  0  0  0  0  0  0  0  0
  2  1  1  1
  2  4  1  0
  3  2  1  0
  4  5  2  0
  7  6  1  6
  7  9  1  0
  7  8  1  0
  9 11  1  0
 10  4  1  0
  9 10  1  1
 11 12  2  0
 14 13  1  1
 14 15  1  0
 14 16  1  0
 16 18  1  0
 16 17  1  6
 17 11  1  0
 18 20  2  0
 18 19  1  0
M  END
$$$$
