AVV.pdb
     RDKit          3D

 20 19  0  0  1  0  0  0  0  0999 V2000
   22.3197  -20.2357  -17.1488 C   0  0  0  0  0  0  0  0  0  0  0  0
   23.6219  -20.0512  -16.4018 C   0  0  2  0  0  0  0  0  0  0  0  0
   23.7163  -20.9425  -15.2627 N   0  0  0  0  0  0  0  0  0  0  0  0
   23.6800  -18.6680  -15.9067 C   0  0  0  0  0  0  0  0  0  0  0  0
   22.8442  -18.3087  -15.0172 O   0  0  0  0  0  0  0  0  0  0  0  0
   27.0192  -16.0959  -16.4842 C   0  0  0  0  0  0  0  0  0  0  0  0
   26.0306  -15.9553  -15.3627 C   0  0  1  0  0  0  0  0  0  0  0  0
   26.0042  -14.5411  -14.8725 C   0  0  0  0  0  0  0  0  0  0  0  0
   24.6362  -16.3756  -15.7570 C   0  0  2  0  0  0  0  0  0  0  0  0
   24.5985  -17.6865  -16.3400 N   0  0  0  0  0  0  0  0  0  0  0  0
   24.0246  -15.3519  -16.6716 C   0  0  0  0  0  0  0  0  0  0  0  0
   24.3748  -15.3373  -17.8793 O   0  0  0  0  0  0  0  0  0  0  0  0
   20.4393  -12.2904  -17.8299 C   0  0  0  0  0  0  0  0  0  0  0  0
   20.9537  -13.4052  -16.9568 C   0  0  1  0  0  0  0  0  0  0  0  0
   20.1951  -14.6645  -17.2145 C   0  0  0  0  0  0  0  0  0  0  0  0
   22.4396  -13.5368  -17.1733 C   0  0  2  0  0  0  0  0  0  0  0  0
   23.0748  -14.4063  -16.2353 N   0  0  0  0  0  0  0  0  0  0  0  0
   23.0129  -12.1549  -17.0743 C   0  0  0  0  0  0  0  0  0  0  0  0
   23.1990  -11.3523  -18.1696 O   0  0  0  0  0  0  0  0  0  0  0  0
   23.3396  -11.7038  -15.9455 O   0  0  0  0  0  0  0  0  0  0  0  0
  2  1  1  1
  2  4  1  0
  3  2  1  0
  4  5  2  0
  7  6  1  6
  7  9  1  0
  7  8  1  0
  9 11  1  0
 10  4  1  0
  9 10  1  6
 11 12  2  0
 14 13  1  6
 14 15  1  0
 14 16  1  0
 16 18  1  0
 16 17  1  1
 17 11  1  0
 18 20  2  0
 18 19  1  0
M  END
$$$$
