AVV.pdb
     RDKit          3D

 20 19  0  0  1  0  0  0  0  0999 V2000
   21.8504  -20.3897  -11.8029 C   0  0  0  0  0  0  0  0  0  0  0  0
   23.1673  -20.5874  -12.5203 C   0  0  2  0  0  0  0  0  0  0  0  0
   23.0673  -21.5994  -13.5532 N   0  0  0  0  0  0  0  0  0  0  0  0
   24.1673  -21.0325  -11.5387 C   0  0  0  0  0  0  0  0  0  0  0  0
   24.0649  -22.2075  -11.0617 O   0  0  0  0  0  0  0  0  0  0  0  0
   27.5451  -21.7439  -12.1773 C   0  0  0  0  0  0  0  0  0  0  0  0
   27.6058  -20.9149  -10.9266 C   0  0  1  0  0  0  0  0  0  0  0  0
   28.1109  -19.5416  -11.2419 C   0  0  0  0  0  0  0  0  0  0  0  0
   26.2718  -20.8109  -10.2295 C   0  0  2  0  0  0  0  0  0  0  0  0
   25.2504  -20.2558  -11.0713 N   0  0  0  0  0  0  0  0  0  0  0  0
   26.4128  -20.0307   -8.9527 C   0  0  0  0  0  0  0  0  0  0  0  0
   26.0760  -18.8191   -8.9468 O   0  0  0  0  0  0  0  0  0  0  0  0
   25.9704  -21.3937   -5.1544 C   0  0  0  0  0  0  0  0  0  0  0  0
   27.2238  -20.5756   -5.3271 C   0  0  1  0  0  0  0  0  0  0  0  0
   28.4317  -21.4506   -5.2711 C   0  0  0  0  0  0  0  0  0  0  0  0
   27.1068  -19.7835   -6.6042 C   0  0  2  0  0  0  0  0  0  0  0  0
   26.9062  -20.5974   -7.7603 N   0  0  0  0  0  0  0  0  0  0  0  0
   28.3733  -18.9922   -6.7371 C   0  0  0  0  0  0  0  0  0  0  0  0
   29.3228  -19.2718   -7.6852 O   0  0  0  0  0  0  0  0  0  0  0  0
   28.5834  -18.0308   -5.9523 O   0  0  0  0  0  0  0  0  0  0  0  0
  2  1  1  1
  2  4  1  0
  3  2  1  0
  4  5  2  0
  7  6  1  6
  7  9  1  0
  7  8  1  0
  9 11  1  0
 10  4  1  0
  9 10  1  6
 11 12  2  0
 14 13  1  6
 14 15  1  0
 14 16  1  0
 16 18  1  0
 16 17  1  6
 17 11  1  0
 18 20  2  0
 18 19  1  0
M  END
$$$$
