KEN.pdb
     RDKit          3D

 27 26  0  0  1  0  0  0  0  0999 V2000
   11.2973  -14.3262   19.5348 N   0  0  0  0  0  0  0  0  0  0  0  0
   10.2563  -13.8120   20.3815 C   0  0  1  0  0  0  0  0  0  0  0  0
    8.9975  -13.4354   19.6874 C   0  0  0  0  0  0  0  0  0  0  0  0
    8.9244  -14.1454   18.3541 C   0  0  0  0  0  0  0  0  0  0  0  0
    7.7458  -13.7268   17.5182 C   0  0  0  0  0  0  0  0  0  0  0  0
    7.7308  -14.4153   16.1682 C   0  0  0  0  0  0  0  0  0  0  0  0
    6.5842  -13.9913   15.4177 N   0  0  0  0  0  0  0  0  0  0  0  0
   10.0580  -14.7720   21.5250 C   0  0  0  0  0  0  0  0  0  0  0  0
    9.1391  -14.5633   22.3581 O   0  0  0  0  0  0  0  0  0  0  0  0
   10.8776  -15.9076   21.6893 N   0  0  0  0  0  0  0  0  0  0  0  0
   10.7886  -16.9370   22.6795 C   0  0  1  0  0  0  0  0  0  0  0  0
   11.3701  -18.2775   22.2875 C   0  0  0  0  0  0  0  0  0  0  0  0
   11.1293  -19.2556   23.4045 C   0  0  0  0  0  0  0  0  0  0  0  0
   11.7199  -20.5955   23.0729 C   0  0  0  0  0  0  0  0  0  0  0  0
   10.9711  -21.5900   23.0998 O   0  0  0  0  0  0  0  0  0  0  0  0
   11.0789  -16.4860   24.0234 C   0  0  0  0  0  0  0  0  0  0  0  0
   12.2658  -16.0791   24.2699 O   0  0  0  0  0  0  0  0  0  0  0  0
   13.0466  -20.6766   22.7560 O   0  0  0  0  0  0  0  0  0  0  0  0
    9.0599  -13.8678   29.0432 N   0  0  0  0  0  0  0  0  0  0  0  0
   10.0713  -14.2316   28.1114 C   0  0  0  0  0  0  0  0  0  0  0  0
   11.2593  -14.0294   28.4597 O   0  0  0  0  0  0  0  0  0  0  0  0
    9.7418  -14.8139   26.8087 C   0  0  0  0  0  0  0  0  0  0  0  0
   10.6013  -15.9824   26.4087 C   0  0  2  0  0  0  0  0  0  0  0  0
   10.1746  -16.4492   25.1024 N   0  0  0  0  0  0  0  0  0  0  0  0
   10.6421  -17.0538   27.4067 C   0  0  0  0  0  0  0  0  0  0  0  0
   11.2630  -16.8670   28.6281 O   0  0  0  0  0  0  0  0  0  0  0  0
   10.1193  -18.1735   27.1927 O   0  0  0  0  0  0  0  0  0  0  0  0
  2  1  1  6
  3  2  1  0
  4  5  1  0
  4  3  1  0
  5  6  1  0
  7  6  1  0
  8  9  2  0
  8  2  1  0
 10  8  1  0
 11 10  1  0
 11 12  1  6
 12 13  1  0
 13 14  1  0
 14 18  1  0
 15 14  2  0
 16 17  2  0
 16 11  1  0
 19 20  1  0
 20 22  1  0
 21 20  2  0
 23 22  1  1
 23 24  1  0
 24 16  1  0
 25 23  1  0
 26 25  1  0
 27 25  2  0
M  END
$$$$
