KEN.pdb
     RDKit          3D

 27 26  0  0  1  0  0  0  0  0999 V2000
    6.8669  -16.2457   21.7688 N   0  0  0  0  0  0  0  0  0  0  0  0
    8.1104  -15.5354   21.8865 C   0  0  1  0  0  0  0  0  0  0  0  0
    7.9904  -14.0662   22.0738 C   0  0  0  0  0  0  0  0  0  0  0  0
    7.4431  -13.4394   20.8111 C   0  0  0  0  0  0  0  0  0  0  0  0
    8.4244  -13.4382   19.6708 C   0  0  0  0  0  0  0  0  0  0  0  0
    7.8416  -12.8166   18.4175 C   0  0  0  0  0  0  0  0  0  0  0  0
    8.8209  -12.8242   17.3693 N   0  0  0  0  0  0  0  0  0  0  0  0
    8.9481  -16.2172   22.9364 C   0  0  0  0  0  0  0  0  0  0  0  0
    8.4377  -16.4990   24.0508 O   0  0  0  0  0  0  0  0  0  0  0  0
   10.2978  -16.5530   22.7040 N   0  0  0  0  0  0  0  0  0  0  0  0
   11.3070  -16.9037   23.6561 C   0  0  1  0  0  0  0  0  0  0  0  0
   12.7032  -17.0765   23.0998 C   0  0  0  0  0  0  0  0  0  0  0  0
   13.3348  -15.7202   22.9456 C   0  0  0  0  0  0  0  0  0  0  0  0
   14.7046  -15.8382   22.3426 C   0  0  0  0  0  0  0  0  0  0  0  0
   15.6896  -15.6722   23.0860 O   0  0  0  0  0  0  0  0  0  0  0  0
   11.2057  -16.1884   24.9099 C   0  0  0  0  0  0  0  0  0  0  0  0
   11.3186  -14.9151   24.8780 O   0  0  0  0  0  0  0  0  0  0  0  0
   14.8220  -16.1213   21.0109 O   0  0  0  0  0  0  0  0  0  0  0  0
    8.0095  -13.7199   28.4721 N   0  0  0  0  0  0  0  0  0  0  0  0
    9.3605  -14.0785   28.2079 C   0  0  0  0  0  0  0  0  0  0  0  0
   10.2277  -13.6342   28.9980 O   0  0  0  0  0  0  0  0  0  0  0  0
    9.7217  -14.9253   27.0690 C   0  0  0  0  0  0  0  0  0  0  0  0
   10.8169  -15.9186   27.3486 C   0  0  2  0  0  0  0  0  0  0  0  0
   10.9926  -16.7600   26.1792 N   0  0  0  0  0  0  0  0  0  0  0  0
   10.6132  -16.6915   28.5761 C   0  0  0  0  0  0  0  0  0  0  0  0
   10.5492  -18.0725   28.5465 O   0  0  0  0  0  0  0  0  0  0  0  0
   10.4899  -16.1340   29.6927 O   0  0  0  0  0  0  0  0  0  0  0  0
  2  1  1  1
  3  2  1  0
  4  5  1  0
  4  3  1  0
  5  6  1  0
  7  6  1  0
  8  9  2  0
  8  2  1  0
 10  8  1  0
 11 10  1  0
 11 12  1  6
 12 13  1  0
 13 14  1  0
 14 18  1  0
 15 14  2  0
 16 17  2  0
 16 11  1  0
 19 20  1  0
 20 22  1  0
 21 20  2  0
 23 22  1  6
 23 24  1  0
 24 16  1  0
 25 23  1  0
 26 25  1  0
 27 25  2  0
M  END
$$$$
