KEN.pdb
     RDKit          3D

 27 26  0  0  1  0  0  0  0  0999 V2000
    9.6538  -15.7069   17.6626 N   0  0  0  0  0  0  0  0  0  0  0  0
   10.4814  -14.6777   18.2288 C   0  0  1  0  0  0  0  0  0  0  0  0
    9.8039  -13.7739   19.1944 C   0  0  0  0  0  0  0  0  0  0  0  0
    8.5324  -13.2370   18.5766 C   0  0  0  0  0  0  0  0  0  0  0  0
    7.8402  -12.2102   19.4309 C   0  0  0  0  0  0  0  0  0  0  0  0
    6.5599  -11.7079   18.7943 C   0  0  0  0  0  0  0  0  0  0  0  0
    5.4980  -12.6424   19.0329 N   0  0  0  0  0  0  0  0  0  0  0  0
   11.7324  -15.3191   18.7692 C   0  0  0  0  0  0  0  0  0  0  0  0
   11.6690  -16.4636   19.2871 O   0  0  0  0  0  0  0  0  0  0  0  0
   12.9828  -14.6699   18.7095 N   0  0  0  0  0  0  0  0  0  0  0  0
   14.2292  -15.0790   19.2814 C   0  0  1  0  0  0  0  0  0  0  0  0
   15.4657  -14.4437   18.6846 C   0  0  0  0  0  0  0  0  0  0  0  0
   15.5404  -14.8046   17.2264 C   0  0  0  0  0  0  0  0  0  0  0  0
   16.8179  -14.3005   16.6198 C   0  0  0  0  0  0  0  0  0  0  0  0
   17.4663  -13.4416   17.2462 O   0  0  0  0  0  0  0  0  0  0  0  0
   14.2048  -15.1915   20.7238 C   0  0  0  0  0  0  0  0  0  0  0  0
   13.8967  -14.1481   21.3959 O   0  0  0  0  0  0  0  0  0  0  0  0
   17.2212  -14.7971   15.4124 O   0  0  0  0  0  0  0  0  0  0  0  0
   11.2222  -16.1061   24.7799 N   0  0  0  0  0  0  0  0  0  0  0  0
   11.7644  -17.0976   23.9158 C   0  0  0  0  0  0  0  0  0  0  0  0
   11.6337  -18.2924   24.2749 O   0  0  0  0  0  0  0  0  0  0  0  0
   12.4424  -16.7410   22.6676 C   0  0  0  0  0  0  0  0  0  0  0  0
   13.9263  -16.5294   22.7985 C   0  0  2  0  0  0  0  0  0  0  0  0
   14.4900  -16.3493   21.4732 N   0  0  0  0  0  0  0  0  0  0  0  0
   14.6063  -17.5762   23.5648 C   0  0  0  0  0  0  0  0  0  0  0  0
   15.2736  -18.6065   22.9279 O   0  0  0  0  0  0  0  0  0  0  0  0
   14.6092  -17.5779   24.8189 O   0  0  0  0  0  0  0  0  0  0  0  0
  2  1  1  1
  3  2  1  0
  4  5  1  0
  4  3  1  0
  5  6  1  0
  7  6  1  0
  8  9  2  0
  8  2  1  0
 10  8  1  0
 11 10  1  0
 11 12  1  1
 12 13  1  0
 13 14  1  0
 14 18  1  0
 15 14  2  0
 16 17  2  0
 16 11  1  0
 19 20  1  0
 20 22  1  0
 21 20  2  0
 23 22  1  6
 23 24  1  0
 24 16  1  0
 25 23  1  0
 26 25  1  0
 27 25  2  0
M  END
$$$$
