KEN.pdb
     RDKit          3D

 27 26  0  0  1  0  0  0  0  0999 V2000
    6.7203  -17.3731   21.3020 N   0  0  0  0  0  0  0  0  0  0  0  0
    7.9762  -16.6907   21.4494 C   0  0  1  0  0  0  0  0  0  0  0  0
    7.9018  -15.2067   21.4293 C   0  0  0  0  0  0  0  0  0  0  0  0
    7.7196  -14.7296   20.0060 C   0  0  0  0  0  0  0  0  0  0  0  0
    7.7456  -13.2316   19.8699 C   0  0  0  0  0  0  0  0  0  0  0  0
    7.6318  -12.7880   18.4252 C   0  0  0  0  0  0  0  0  0  0  0  0
    7.6250  -11.3553   18.3546 N   0  0  0  0  0  0  0  0  0  0  0  0
    8.6801  -17.2493   22.6582 C   0  0  0  0  0  0  0  0  0  0  0  0
    8.0111  -17.8208   23.5568 O   0  0  0  0  0  0  0  0  0  0  0  0
   10.0784  -17.1509   22.8121 N   0  0  0  0  0  0  0  0  0  0  0  0
   10.8984  -17.6631   23.8672 C   0  0  1  0  0  0  0  0  0  0  0  0
   12.1873  -18.3265   23.4343 C   0  0  0  0  0  0  0  0  0  0  0  0
   13.1663  -17.2613   23.0229 C   0  0  0  0  0  0  0  0  0  0  0  0
   14.4210  -17.8771   22.4748 C   0  0  0  0  0  0  0  0  0  0  0  0
   14.8977  -17.4038   21.4263 O   0  0  0  0  0  0  0  0  0  0  0  0
   10.9872  -16.7908   25.0183 C   0  0  0  0  0  0  0  0  0  0  0  0
   10.8791  -15.5323   24.8196 O   0  0  0  0  0  0  0  0  0  0  0  0
   14.9914  -18.9260   23.1394 O   0  0  0  0  0  0  0  0  0  0  0  0
    9.7716  -13.0869   28.2674 N   0  0  0  0  0  0  0  0  0  0  0  0
    9.6905  -14.4935   28.4638 C   0  0  0  0  0  0  0  0  0  0  0  0
    9.4395  -14.8877   29.6279 O   0  0  0  0  0  0  0  0  0  0  0  0
    9.8903  -15.4357   27.3606 C   0  0  0  0  0  0  0  0  0  0  0  0
   11.1746  -16.2169   27.4281 C   0  0  2  0  0  0  0  0  0  0  0  0
   11.1835  -17.1927   26.3538 N   0  0  0  0  0  0  0  0  0  0  0  0
   11.4320  -16.8169   28.7393 C   0  0  0  0  0  0  0  0  0  0  0  0
   11.4724  -18.1899   28.8994 O   0  0  0  0  0  0  0  0  0  0  0  0
   11.6242  -16.1132   29.7595 O   0  0  0  0  0  0  0  0  0  0  0  0
  2  1  1  1
  3  2  1  0
  4  5  1  0
  4  3  1  0
  5  6  1  0
  7  6  1  0
  8  9  2  0
  8  2  1  0
 10  8  1  0
 11 10  1  0
 11 12  1  6
 12 13  1  0
 13 14  1  0
 14 18  1  0
 15 14  2  0
 16 17  2  0
 16 11  1  0
 19 20  1  0
 20 22  1  0
 21 20  2  0
 23 22  1  1
 23 24  1  0
 24 16  1  0
 25 23  1  0
 26 25  1  0
 27 25  2  0
M  END
$$$$
