KEN.pdb
     RDKit          3D

 27 26  0  0  1  0  0  0  0  0999 V2000
   12.5450  -20.8368   15.8451 N   0  0  0  0  0  0  0  0  0  0  0  0
   12.5574  -19.5156   16.4099 C   0  0  1  0  0  0  0  0  0  0  0  0
   11.2673  -18.7811   16.3425 C   0  0  0  0  0  0  0  0  0  0  0  0
   10.1265  -19.7400   16.5998 C   0  0  0  0  0  0  0  0  0  0  0  0
    8.7838  -19.0654   16.6724 C   0  0  0  0  0  0  0  0  0  0  0  0
    7.6519  -20.0623   16.8196 C   0  0  0  0  0  0  0  0  0  0  0  0
    6.3954  -19.3712   16.8538 N   0  0  0  0  0  0  0  0  0  0  0  0
   13.1397  -19.5983   17.7965 C   0  0  0  0  0  0  0  0  0  0  0  0
   12.8126  -20.5498   18.5512 O   0  0  0  0  0  0  0  0  0  0  0  0
   14.0494  -18.6335   18.2764 N   0  0  0  0  0  0  0  0  0  0  0  0
   14.6691  -18.5537   19.5640 C   0  0  1  0  0  0  0  0  0  0  0  0
   15.8530  -17.6174   19.6661 C   0  0  0  0  0  0  0  0  0  0  0  0
   16.9550  -18.1311   18.7807 C   0  0  0  0  0  0  0  0  0  0  0  0
   18.1641  -17.2456   18.8705 C   0  0  0  0  0  0  0  0  0  0  0  0
   18.9056  -17.3635   19.8639 O   0  0  0  0  0  0  0  0  0  0  0  0
   13.7317  -18.5165   20.6657 C   0  0  0  0  0  0  0  0  0  0  0  0
   12.8286  -17.6114   20.6470 O   0  0  0  0  0  0  0  0  0  0  0  0
   18.4068  -16.3491   17.8683 O   0  0  0  0  0  0  0  0  0  0  0  0
   10.7211  -19.5522   24.8259 N   0  0  0  0  0  0  0  0  0  0  0  0
   11.0193  -20.6829   24.0159 C   0  0  0  0  0  0  0  0  0  0  0  0
   10.3957  -21.7409   24.2712 O   0  0  0  0  0  0  0  0  0  0  0  0
   12.0065  -20.6153   22.9362 C   0  0  0  0  0  0  0  0  0  0  0  0
   12.6769  -19.2770   22.7824 C   0  0  2  0  0  0  0  0  0  0  0  0
   13.7127  -19.3880   21.7719 N   0  0  0  0  0  0  0  0  0  0  0  0
   13.1731  -18.7174   24.0418 C   0  0  0  0  0  0  0  0  0  0  0  0
   12.3143  -18.4586   25.0944 O   0  0  0  0  0  0  0  0  0  0  0  0
   14.3872  -18.4534   24.2123 O   0  0  0  0  0  0  0  0  0  0  0  0
  2  1  1  1
  3  2  1  0
  4  5  1  0
  4  3  1  0
  5  6  1  0
  7  6  1  0
  8  9  2  0
  8  2  1  0
 10  8  1  0
 11 10  1  0
 11 12  1  6
 12 13  1  0
 13 14  1  0
 14 18  1  0
 15 14  2  0
 16 17  2  0
 16 11  1  0
 19 20  1  0
 20 22  1  0
 21 20  2  0
 23 22  1  1
 23 24  1  0
 24 16  1  0
 25 23  1  0
 26 25  1  0
 27 25  2  0
M  END
$$$$
