KEN.pdb
     RDKit          3D

 27 26  0  0  1  0  0  0  0  0999 V2000
    6.3970  -16.5763   24.6852 N   0  0  0  0  0  0  0  0  0  0  0  0
    7.6229  -15.8503   24.4986 C   0  0  1  0  0  0  0  0  0  0  0  0
    7.7927  -14.6528   25.3621 C   0  0  0  0  0  0  0  0  0  0  0  0
    6.6316  -13.7078   25.1485 C   0  0  0  0  0  0  0  0  0  0  0  0
    6.7166  -12.4588   25.9827 C   0  0  0  0  0  0  0  0  0  0  0  0
    5.5380  -11.5353   25.7486 C   0  0  0  0  0  0  0  0  0  0  0  0
    5.5522  -10.4732   26.7127 N   0  0  0  0  0  0  0  0  0  0  0  0
    8.7680  -16.8255   24.5773 C   0  0  0  0  0  0  0  0  0  0  0  0
    8.7166  -17.7782   25.3969 O   0  0  0  0  0  0  0  0  0  0  0  0
    9.9042  -16.7019   23.7512 N   0  0  0  0  0  0  0  0  0  0  0  0
   11.0633  -17.5395   23.6963 C   0  0  1  0  0  0  0  0  0  0  0  0
   11.9818  -17.3132   22.5157 C   0  0  0  0  0  0  0  0  0  0  0  0
   11.2519  -17.6873   21.2550 C   0  0  0  0  0  0  0  0  0  0  0  0
   12.0877  -17.3787   20.0466 C   0  0  0  0  0  0  0  0  0  0  0  0
   12.9913  -18.1779   19.7381 O   0  0  0  0  0  0  0  0  0  0  0  0
   11.7089  -17.7335   24.9767 C   0  0  0  0  0  0  0  0  0  0  0  0
   12.1398  -16.6962   25.5879 O   0  0  0  0  0  0  0  0  0  0  0  0
   11.8302  -16.2419   19.3335 O   0  0  0  0  0  0  0  0  0  0  0  0
   10.7057  -18.4737   29.4003 N   0  0  0  0  0  0  0  0  0  0  0  0
   10.7012  -19.4643   28.3794 C   0  0  0  0  0  0  0  0  0  0  0  0
    9.5797  -19.8743   27.9951 O   0  0  0  0  0  0  0  0  0  0  0  0
   11.9454  -19.9806   27.8047 C   0  0  0  0  0  0  0  0  0  0  0  0
   12.6497  -19.0286   26.8765 C   0  0  2  0  0  0  0  0  0  0  0  0
   11.9138  -18.9657   25.6271 N   0  0  0  0  0  0  0  0  0  0  0  0
   14.0688  -19.3352   26.6822 C   0  0  0  0  0  0  0  0  0  0  0  0
   14.5894  -19.5286   25.4158 O   0  0  0  0  0  0  0  0  0  0  0  0
   14.8600  -19.4335   27.6503 O   0  0  0  0  0  0  0  0  0  0  0  0
  2  1  1  1
  3  2  1  0
  4  5  1  0
  4  3  1  0
  5  6  1  0
  7  6  1  0
  8  9  2  0
  8  2  1  0
 10  8  1  0
 11 10  1  0
 11 12  1  6
 12 13  1  0
 13 14  1  0
 14 18  1  0
 15 14  2  0
 16 17  2  0
 16 11  1  0
 19 20  1  0
 20 22  1  0
 21 20  2  0
 23 22  1  1
 23 24  1  0
 24 16  1  0
 25 23  1  0
 26 25  1  0
 27 25  2  0
M  END
$$$$
