KEN.pdb
     RDKit          3D

 27 26  0  0  1  0  0  0  0  0999 V2000
    8.3961  -16.5904   20.5895 N   0  0  0  0  0  0  0  0  0  0  0  0
    8.6182  -15.5217   21.5241 C   0  0  1  0  0  0  0  0  0  0  0  0
    7.4301  -14.6821   21.8267 C   0  0  0  0  0  0  0  0  0  0  0  0
    6.9177  -14.0536   20.5503 C   0  0  0  0  0  0  0  0  0  0  0  0
    7.9851  -13.3421   19.7643 C   0  0  0  0  0  0  0  0  0  0  0  0
    7.4303  -12.6782   18.5200 C   0  0  0  0  0  0  0  0  0  0  0  0
    8.5000  -12.1042   17.7559 N   0  0  0  0  0  0  0  0  0  0  0  0
    9.2883  -16.0926   22.7462 C   0  0  0  0  0  0  0  0  0  0  0  0
    8.7742  -15.9077   23.8791 O   0  0  0  0  0  0  0  0  0  0  0  0
   10.4836  -16.8354   22.6567 N   0  0  0  0  0  0  0  0  0  0  0  0
   11.2844  -17.3689   23.7159 C   0  0  1  0  0  0  0  0  0  0  0  0
   12.6175  -17.9522   23.3017 C   0  0  0  0  0  0  0  0  0  0  0  0
   13.2559  -18.6007   24.4992 C   0  0  0  0  0  0  0  0  0  0  0  0
   14.5982  -19.1702   24.1415 C   0  0  0  0  0  0  0  0  0  0  0  0
   14.7298  -20.4085   24.1430 O   0  0  0  0  0  0  0  0  0  0  0  0
   11.2897  -16.5577   24.9141 C   0  0  0  0  0  0  0  0  0  0  0  0
   11.7046  -15.3523   24.8136 O   0  0  0  0  0  0  0  0  0  0  0  0
   15.6197  -18.3180   23.8293 O   0  0  0  0  0  0  0  0  0  0  0  0
    8.2901  -13.2151   27.9618 N   0  0  0  0  0  0  0  0  0  0  0  0
    9.5165  -13.9339   27.9088 C   0  0  0  0  0  0  0  0  0  0  0  0
   10.3726  -13.6554   28.7824 O   0  0  0  0  0  0  0  0  0  0  0  0
    9.7677  -14.9497   26.8843 C   0  0  0  0  0  0  0  0  0  0  0  0
   10.7655  -16.0047   27.2787 C   0  0  2  0  0  0  0  0  0  0  0  0
   10.8787  -16.9665   26.1977 N   0  0  0  0  0  0  0  0  0  0  0  0
   10.4784  -16.6354   28.5691 C   0  0  0  0  0  0  0  0  0  0  0  0
   10.5936  -15.9262   29.7506 O   0  0  0  0  0  0  0  0  0  0  0  0
   10.1197  -17.8344   28.6509 O   0  0  0  0  0  0  0  0  0  0  0  0
  2  1  1  6
  3  2  1  0
  4  5  1  0
  4  3  1  0
  5  6  1  0
  7  6  1  0
  8  9  2  0
  8  2  1  0
 10  8  1  0
 11 10  1  0
 11 12  1  6
 12 13  1  0
 13 14  1  0
 14 18  1  0
 15 14  2  0
 16 17  2  0
 16 11  1  0
 19 20  1  0
 20 22  1  0
 21 20  2  0
 23 22  1  6
 23 24  1  0
 24 16  1  0
 25 23  1  0
 26 25  1  0
 27 25  2  0
M  END
$$$$
