KEN.pdb
     RDKit          3D

 27 26  0  0  1  0  0  0  0  0999 V2000
    8.0605  -15.8152   20.7319 N   0  0  0  0  0  0  0  0  0  0  0  0
    9.1765  -15.0813   20.2023 C   0  0  1  0  0  0  0  0  0  0  0  0
    8.8554  -13.7353   19.6607 C   0  0  0  0  0  0  0  0  0  0  0  0
    7.7437  -13.8531   18.6423 C   0  0  0  0  0  0  0  0  0  0  0  0
    8.1379  -13.3792   17.2700 C   0  0  0  0  0  0  0  0  0  0  0  0
    6.9686  -13.3879   16.3059 C   0  0  0  0  0  0  0  0  0  0  0  0
    7.3898  -12.8988   15.0248 N   0  0  0  0  0  0  0  0  0  0  0  0
   10.2736  -15.0770   21.2343 C   0  0  0  0  0  0  0  0  0  0  0  0
   11.3397  -14.4507   21.0040 O   0  0  0  0  0  0  0  0  0  0  0  0
   10.1388  -15.7585   22.4615 N   0  0  0  0  0  0  0  0  0  0  0  0
   11.1323  -15.9985   23.4631 C   0  0  1  0  0  0  0  0  0  0  0  0
   10.6317  -16.6159   24.7503 C   0  0  0  0  0  0  0  0  0  0  0  0
   11.7838  -16.7386   25.7093 C   0  0  0  0  0  0  0  0  0  0  0  0
   11.3292  -17.3309   27.0118 C   0  0  0  0  0  0  0  0  0  0  0  0
   10.4429  -18.2050   26.9816 O   0  0  0  0  0  0  0  0  0  0  0  0
   12.3739  -16.5299   22.9434 C   0  0  0  0  0  0  0  0  0  0  0  0
   12.3305  -17.6536   22.3347 O   0  0  0  0  0  0  0  0  0  0  0  0
   11.8985  -16.8943   28.1747 O   0  0  0  0  0  0  0  0  0  0  0  0
   15.1988  -14.0387   20.8831 N   0  0  0  0  0  0  0  0  0  0  0  0
   14.7816  -15.1912   20.1612 C   0  0  0  0  0  0  0  0  0  0  0  0
   14.7066  -15.0800   18.9139 O   0  0  0  0  0  0  0  0  0  0  0  0
   14.4553  -16.4468   20.8408 C   0  0  0  0  0  0  0  0  0  0  0  0
   14.7754  -16.4655   22.3109 C   0  0  2  0  0  0  0  0  0  0  0  0
   13.6429  -15.9269   23.0414 N   0  0  0  0  0  0  0  0  0  0  0  0
   16.0352  -15.7991   22.6490 C   0  0  0  0  0  0  0  0  0  0  0  0
   16.0785  -14.7971   23.6011 O   0  0  0  0  0  0  0  0  0  0  0  0
   17.1150  -16.1096   22.0918 O   0  0  0  0  0  0  0  0  0  0  0  0
  2  1  1  1
  3  2  1  0
  4  5  1  0
  4  3  1  0
  5  6  1  0
  7  6  1  0
  8  9  2  0
  8  2  1  0
 10  8  1  0
 11 10  1  0
 11 12  1  1
 12 13  1  0
 13 14  1  0
 14 18  1  0
 15 14  2  0
 16 17  2  0
 16 11  1  0
 19 20  1  0
 20 22  1  0
 21 20  2  0
 23 22  1  6
 23 24  1  0
 24 16  1  0
 25 23  1  0
 26 25  1  0
 27 25  2  0
M  END
$$$$
