KEN.pdb
     RDKit          3D

 27 26  0  0  1  0  0  0  0  0999 V2000
   10.4186  -15.4218   17.7940 N   0  0  0  0  0  0  0  0  0  0  0  0
   11.1271  -14.4034   18.5190 C   0  0  1  0  0  0  0  0  0  0  0  0
   10.2870  -13.5356   19.3847 C   0  0  0  0  0  0  0  0  0  0  0  0
    8.9813  -13.2356   18.6834 C   0  0  0  0  0  0  0  0  0  0  0  0
    8.1025  -12.2780   19.4410 C   0  0  0  0  0  0  0  0  0  0  0  0
    6.8444  -11.9279   18.6718 C   0  0  0  0  0  0  0  0  0  0  0  0
    6.0082  -13.0873   18.5520 N   0  0  0  0  0  0  0  0  0  0  0  0
   12.2802  -15.0503   19.2403 C   0  0  0  0  0  0  0  0  0  0  0  0
   12.1198  -16.1718   19.7866 O   0  0  0  0  0  0  0  0  0  0  0  0
   13.5448  -14.4313   19.3202 N   0  0  0  0  0  0  0  0  0  0  0  0
   14.7213  -14.8887   19.9945 C   0  0  1  0  0  0  0  0  0  0  0  0
   15.9592  -14.0400   19.8040 C   0  0  0  0  0  0  0  0  0  0  0  0
   17.1267  -14.7338   20.4506 C   0  0  0  0  0  0  0  0  0  0  0  0
   18.3914  -13.9531   20.2387 C   0  0  0  0  0  0  0  0  0  0  0  0
   18.9165  -13.9811   19.1099 O   0  0  0  0  0  0  0  0  0  0  0  0
   14.4794  -15.3684   21.3380 C   0  0  0  0  0  0  0  0  0  0  0  0
   14.0252  -14.5339   22.1939 O   0  0  0  0  0  0  0  0  0  0  0  0
   18.9179  -13.2453   21.2822 O   0  0  0  0  0  0  0  0  0  0  0  0
   11.8321  -19.0806   24.8623 N   0  0  0  0  0  0  0  0  0  0  0  0
   13.1695  -18.8444   24.4390 C   0  0  0  0  0  0  0  0  0  0  0  0
   14.0800  -19.1553   25.2440 O   0  0  0  0  0  0  0  0  0  0  0  0
   13.4692  -18.2665   23.1272 C   0  0  0  0  0  0  0  0  0  0  0  0
   14.3481  -17.0458   23.1658 C   0  0  2  0  0  0  0  0  0  0  0  0
   14.6964  -16.6791   21.8054 N   0  0  0  0  0  0  0  0  0  0  0  0
   15.5214  -17.1906   24.0305 C   0  0  0  0  0  0  0  0  0  0  0  0
   15.4829  -16.7984   25.3560 O   0  0  0  0  0  0  0  0  0  0  0  0
   16.5982  -17.6723   23.6046 O   0  0  0  0  0  0  0  0  0  0  0  0
  2  1  1  1
  3  2  1  0
  4  5  1  0
  4  3  1  0
  5  6  1  0
  7  6  1  0
  8  9  2  0
  8  2  1  0
 10  8  1  0
 11 10  1  0
 11 12  1  1
 12 13  1  0
 13 14  1  0
 14 18  1  0
 15 14  2  0
 16 17  2  0
 16 11  1  0
 19 20  1  0
 20 22  1  0
 21 20  2  0
 23 22  1  6
 23 24  1  0
 24 16  1  0
 25 23  1  0
 26 25  1  0
 27 25  2  0
M  END
$$$$
