KEN.pdb
     RDKit          3D

 27 26  0  0  1  0  0  0  0  0999 V2000
   16.9061  -19.4878   17.2242 N   0  0  0  0  0  0  0  0  0  0  0  0
   16.2568  -18.6649   18.2070 C   0  0  1  0  0  0  0  0  0  0  0  0
   15.0362  -19.2486   18.8216 C   0  0  0  0  0  0  0  0  0  0  0  0
   13.9655  -19.4067   17.7655 C   0  0  0  0  0  0  0  0  0  0  0  0
   12.6806  -19.9798   18.2983 C   0  0  0  0  0  0  0  0  0  0  0  0
   11.6150  -20.0848   17.2259 C   0  0  0  0  0  0  0  0  0  0  0  0
   10.4106  -20.6254   17.7872 N   0  0  0  0  0  0  0  0  0  0  0  0
   17.2894  -18.2185   19.2085 C   0  0  0  0  0  0  0  0  0  0  0  0
   17.7607  -19.0498   20.0263 O   0  0  0  0  0  0  0  0  0  0  0  0
   17.7481  -16.8858   19.2553 N   0  0  0  0  0  0  0  0  0  0  0  0
   18.6471  -16.2837   20.1919 C   0  0  1  0  0  0  0  0  0  0  0  0
   19.2714  -14.9764   19.7559 C   0  0  0  0  0  0  0  0  0  0  0  0
   20.2572  -15.2536   18.6544 C   0  0  0  0  0  0  0  0  0  0  0  0
   20.8525  -13.9746   18.1408 C   0  0  0  0  0  0  0  0  0  0  0  0
   21.9894  -13.6559   18.5362 O   0  0  0  0  0  0  0  0  0  0  0  0
   18.1935  -16.3455   21.5646 C   0  0  0  0  0  0  0  0  0  0  0  0
   16.9821  -16.0141   21.8053 O   0  0  0  0  0  0  0  0  0  0  0  0
   20.1326  -13.2114   17.2653 O   0  0  0  0  0  0  0  0  0  0  0  0
   15.9834  -16.6817   25.5280 N   0  0  0  0  0  0  0  0  0  0  0  0
   16.4303  -17.9300   25.0128 C   0  0  0  0  0  0  0  0  0  0  0  0
   15.7218  -18.9330   25.2689 O   0  0  0  0  0  0  0  0  0  0  0  0
   17.6580  -18.0392   24.2218 C   0  0  0  0  0  0  0  0  0  0  0  0
   18.3851  -16.7391   24.0100 C   0  0  2  0  0  0  0  0  0  0  0  0
   18.9611  -16.7389   22.6779 N   0  0  0  0  0  0  0  0  0  0  0  0
   19.3693  -16.4369   25.0518 C   0  0  0  0  0  0  0  0  0  0  0  0
   19.9585  -15.1886   25.1356 O   0  0  0  0  0  0  0  0  0  0  0  0
   19.7129  -17.2929   25.9016 O   0  0  0  0  0  0  0  0  0  0  0  0
  2  1  1  6
  3  2  1  0
  4  5  1  0
  4  3  1  0
  5  6  1  0
  7  6  1  0
  8  9  2  0
  8  2  1  0
 10  8  1  0
 11 10  1  0
 11 12  1  6
 12 13  1  0
 13 14  1  0
 14 18  1  0
 15 14  2  0
 16 17  2  0
 16 11  1  0
 19 20  1  0
 20 22  1  0
 21 20  2  0
 23 22  1  1
 23 24  1  0
 24 16  1  0
 25 23  1  0
 26 25  1  0
 27 25  2  0
M  END
$$$$
