KEN.pdb
     RDKit          3D

 27 26  0  0  1  0  0  0  0  0999 V2000
    8.6398  -18.7713   18.2591 N   0  0  0  0  0  0  0  0  0  0  0  0
    8.6208  -20.1100   18.7807 C   0  0  1  0  0  0  0  0  0  0  0  0
    7.8367  -21.0923   17.9878 C   0  0  0  0  0  0  0  0  0  0  0  0
    6.4992  -20.4907   17.6192 C   0  0  0  0  0  0  0  0  0  0  0  0
    6.1814  -20.5941   16.1523 C   0  0  0  0  0  0  0  0  0  0  0  0
    4.7735  -20.1287   15.8396 C   0  0  0  0  0  0  0  0  0  0  0  0
    4.5643  -20.1286   14.4204 N   0  0  0  0  0  0  0  0  0  0  0  0
   10.0411  -20.5357   19.0457 C   0  0  0  0  0  0  0  0  0  0  0  0
   10.2807  -21.7248   19.3780 O   0  0  0  0  0  0  0  0  0  0  0  0
   11.1185  -19.6334   18.9295 N   0  0  0  0  0  0  0  0  0  0  0  0
   12.5165  -19.8856   19.1026 C   0  0  1  0  0  0  0  0  0  0  0  0
   13.4043  -19.4870   17.9443 C   0  0  0  0  0  0  0  0  0  0  0  0
   12.6660  -19.7398   16.6585 C   0  0  0  0  0  0  0  0  0  0  0  0
   13.4756  -19.2769   15.4820 C   0  0  0  0  0  0  0  0  0  0  0  0
   13.0075  -19.4524   14.3415 O   0  0  0  0  0  0  0  0  0  0  0  0
   13.0121  -19.5647   20.4237 C   0  0  0  0  0  0  0  0  0  0  0  0
   12.9533  -18.3439   20.7998 O   0  0  0  0  0  0  0  0  0  0  0  0
   14.6873  -18.6843   15.7013 O   0  0  0  0  0  0  0  0  0  0  0  0
   11.7643  -22.5217   23.7890 N   0  0  0  0  0  0  0  0  0  0  0  0
   12.4019  -21.2656   23.9880 C   0  0  0  0  0  0  0  0  0  0  0  0
   11.6941  -20.3403   24.4533 O   0  0  0  0  0  0  0  0  0  0  0  0
   13.8159  -21.0624   23.6653 C   0  0  0  0  0  0  0  0  0  0  0  0
   14.0762  -20.0075   22.6245 C   0  0  2  0  0  0  0  0  0  0  0  0
   13.5603  -20.4728   21.3502 N   0  0  0  0  0  0  0  0  0  0  0  0
   15.4772  -19.5871   22.5479 C   0  0  0  0  0  0  0  0  0  0  0  0
   16.1651  -19.6143   21.3486 O   0  0  0  0  0  0  0  0  0  0  0  0
   16.1018  -19.1892   23.5601 O   0  0  0  0  0  0  0  0  0  0  0  0
  2  1  1  6
  3  2  1  0
  4  5  1  0
  4  3  1  0
  5  6  1  0
  7  6  1  0
  8  9  2  0
  8  2  1  0
 10  8  1  0
 11 10  1  0
 11 12  1  6
 12 13  1  0
 13 14  1  0
 14 18  1  0
 15 14  2  0
 16 17  2  0
 16 11  1  0
 19 20  1  0
 20 22  1  0
 21 20  2  0
 23 22  1  1
 23 24  1  0
 24 16  1  0
 25 23  1  0
 26 25  1  0
 27 25  2  0
M  END
$$$$
