KEN.pdb
     RDKit          3D

 27 26  0  0  1  0  0  0  0  0999 V2000
   12.1996  -16.9995   16.0180 N   0  0  0  0  0  0  0  0  0  0  0  0
   12.2098  -15.9032   16.9468 C   0  0  1  0  0  0  0  0  0  0  0  0
   11.0438  -15.8348   17.8654 C   0  0  0  0  0  0  0  0  0  0  0  0
   10.6079  -17.2354   18.2330 C   0  0  0  0  0  0  0  0  0  0  0  0
    9.3259  -17.2752   19.0193 C   0  0  0  0  0  0  0  0  0  0  0  0
    8.9596  -18.6837   19.4419 C   0  0  0  0  0  0  0  0  0  0  0  0
    7.7585  -18.6603   20.2259 N   0  0  0  0  0  0  0  0  0  0  0  0
   13.5415  -15.8906   17.6505 C   0  0  0  0  0  0  0  0  0  0  0  0
   14.2777  -16.9092   17.6036 O   0  0  0  0  0  0  0  0  0  0  0  0
   13.9912  -14.7607   18.3645 N   0  0  0  0  0  0  0  0  0  0  0  0
   15.2368  -14.5713   19.0432 C   0  0  1  0  0  0  0  0  0  0  0  0
   16.0939  -13.4320   18.5370 C   0  0  0  0  0  0  0  0  0  0  0  0
   16.5934  -13.7756   17.1606 C   0  0  0  0  0  0  0  0  0  0  0  0
   17.6062  -12.7690   16.6971 C   0  0  0  0  0  0  0  0  0  0  0  0
   17.1974  -11.6525   16.3269 O   0  0  0  0  0  0  0  0  0  0  0  0
   15.1498  -14.7121   20.4807 C   0  0  0  0  0  0  0  0  0  0  0  0
   15.6442  -13.7776   21.2000 O   0  0  0  0  0  0  0  0  0  0  0  0
   18.9295  -13.1095   16.6975 O   0  0  0  0  0  0  0  0  0  0  0  0
   11.2734  -17.1193   21.8519 N   0  0  0  0  0  0  0  0  0  0  0  0
   12.1083  -16.2355   22.5905 C   0  0  0  0  0  0  0  0  0  0  0  0
   11.6708  -15.0762   22.7859 O   0  0  0  0  0  0  0  0  0  0  0  0
   13.4154  -16.6584   23.0981 C   0  0  0  0  0  0  0  0  0  0  0  0
   14.5720  -15.8182   22.6288 C   0  0  2  0  0  0  0  0  0  0  0  0
   14.5681  -15.7888   21.1777 N   0  0  0  0  0  0  0  0  0  0  0  0
   15.8638  -16.2305   23.1826 C   0  0  0  0  0  0  0  0  0  0  0  0
   16.9119  -16.5903   22.3554 O   0  0  0  0  0  0  0  0  0  0  0  0
   16.0670  -16.2726   24.4195 O   0  0  0  0  0  0  0  0  0  0  0  0
  2  1  1  1
  3  2  1  0
  4  5  1  0
  4  3  1  0
  5  6  1  0
  7  6  1  0
  8  9  2  0
  8  2  1  0
 10  8  1  0
 11 10  1  0
 11 12  1  1
 12 13  1  0
 13 14  1  0
 14 18  1  0
 15 14  2  0
 16 17  2  0
 16 11  1  0
 19 20  1  0
 20 22  1  0
 21 20  2  0
 23 22  1  6
 23 24  1  0
 24 16  1  0
 25 23  1  0
 26 25  1  0
 27 25  2  0
M  END
$$$$
