DDM.pdb
     RDKit          3D

 25 24  0  0  1  0  0  0  0  0999 V2000
    7.9318  -15.5912   18.7569 N   0  0  0  0  0  0  0  0  0  0  0  0
    7.1318  -16.2846   19.7284 C   0  0  1  0  0  0  0  0  0  0  0  0
    6.3546  -17.4155   19.0836 C   0  0  0  0  0  0  0  0  0  0  0  0
    7.2481  -18.2968   18.3120 C   0  0  0  0  0  0  0  0  0  0  0  0
    8.4731  -18.0728   18.2845 O   0  0  0  0  0  0  0  0  0  0  0  0
    7.8973  -16.7078   20.9025 C   0  0  0  0  0  0  0  0  0  0  0  0
    7.3416  -17.3347   21.8399 O   0  0  0  0  0  0  0  0  0  0  0  0
    6.7244  -19.3677   17.6224 O   0  0  0  0  0  0  0  0  0  0  0  0
    9.2980  -16.4456   21.0654 N   0  0  0  0  0  0  0  0  0  0  0  0
   10.0788  -16.8638   22.1851 C   0  0  1  0  0  0  0  0  0  0  0  0
   11.5190  -17.0571   21.7251 C   0  0  0  0  0  0  0  0  0  0  0  0
   12.3693  -17.5646   22.8227 C   0  0  0  0  0  0  0  0  0  0  0  0
   13.0242  -16.8130   23.5839 O   0  0  0  0  0  0  0  0  0  0  0  0
    9.9956  -15.8729   23.2822 C   0  0  0  0  0  0  0  0  0  0  0  0
   10.0054  -14.6289   23.0883 O   0  0  0  0  0  0  0  0  0  0  0  0
   12.4308  -18.9426   23.0005 O   0  0  0  0  0  0  0  0  0  0  0  0
    6.6093  -11.1266   26.8795 C   0  0  0  0  0  0  0  0  0  0  0  0
    6.6246  -12.8887   26.5229 S   0  0  0  0  0  0  0  0  0  0  0  0
    8.0428  -13.3302   25.4813 C   0  0  0  0  0  0  0  0  0  0  0  0
    8.0467  -14.8251   25.2908 C   0  0  0  0  0  0  0  0  0  0  0  0
    9.3618  -15.4511   25.6948 C   0  0  2  0  0  0  0  0  0  0  0  0
    9.8979  -16.2845   24.6438 N   0  0  0  0  0  0  0  0  0  0  0  0
    9.3169  -16.1011   26.9991 C   0  0  0  0  0  0  0  0  0  0  0  0
    8.9663  -17.2890   27.0958 O   0  0  0  0  0  0  0  0  0  0  0  0
    9.6602  -15.4136   28.1364 O   0  0  0  0  0  0  0  0  0  0  0  0
  2  3  1  0
  2  1  1  6
  3  4  1  0
  4  8  1  0
  5  4  2  0
  6  7  2  0
  6  2  1  0
  9  6  1  0
 10 14  1  0
 10  9  1  0
 10 11  1  6
 12 11  1  0
 12 16  1  0
 13 12  2  0
 14 22  1  0
 15 14  2  0
 18 19  1  0
 18 17  1  0
 21 20  1  6
 20 19  1  0
 22 21  1  0
 23 21  1  0
 23 25  1  0
 24 23  2  0
M  END
$$$$
