DDM.pdb
     RDKit          3D

 25 24  0  0  1  0  0  0  0  0999 V2000
    8.0148  -12.5584   19.4987 N   0  0  0  0  0  0  0  0  0  0  0  0
    7.7432  -13.8224   18.8716 C   0  0  1  0  0  0  0  0  0  0  0  0
    8.3110  -13.8639   17.4663 C   0  0  0  0  0  0  0  0  0  0  0  0
    8.0708  -15.1749   16.8388 C   0  0  0  0  0  0  0  0  0  0  0  0
    7.1406  -15.3141   16.0221 O   0  0  0  0  0  0  0  0  0  0  0  0
    8.1491  -14.9660   19.6908 C   0  0  0  0  0  0  0  0  0  0  0  0
    7.3903  -15.9588   19.8289 O   0  0  0  0  0  0  0  0  0  0  0  0
    8.8777  -16.2443   17.1580 O   0  0  0  0  0  0  0  0  0  0  0  0
    9.4067  -15.0360   20.3770 N   0  0  0  0  0  0  0  0  0  0  0  0
    9.7196  -15.9729   21.4078 C   0  0  1  0  0  0  0  0  0  0  0  0
   11.1510  -16.4556   21.2042 C   0  0  0  0  0  0  0  0  0  0  0  0
   11.6240  -17.2372   22.3663 C   0  0  0  0  0  0  0  0  0  0  0  0
   12.6270  -16.9126   23.0461 O   0  0  0  0  0  0  0  0  0  0  0  0
    9.5465  -15.3597   22.7444 C   0  0  0  0  0  0  0  0  0  0  0  0
   10.1037  -14.2834   23.0853 O   0  0  0  0  0  0  0  0  0  0  0  0
   10.9086  -18.3814   22.7028 O   0  0  0  0  0  0  0  0  0  0  0  0
    6.8710  -11.1014   27.5276 C   0  0  0  0  0  0  0  0  0  0  0  0
    7.0338  -12.0186   25.9898 S   0  0  0  0  0  0  0  0  0  0  0  0
    6.9509  -13.8065   26.2858 C   0  0  0  0  0  0  0  0  0  0  0  0
    7.1996  -14.5174   24.9805 C   0  0  0  0  0  0  0  0  0  0  0  0
    8.4449  -15.3729   25.0219 C   0  0  2  0  0  0  0  0  0  0  0  0
    8.7222  -15.9689   23.7356 N   0  0  0  0  0  0  0  0  0  0  0  0
    8.4583  -16.3226   26.1280 C   0  0  0  0  0  0  0  0  0  0  0  0
    8.4121  -15.9185   27.3019 O   0  0  0  0  0  0  0  0  0  0  0  0
    8.5217  -17.6731   25.8909 O   0  0  0  0  0  0  0  0  0  0  0  0
  2  3  1  0
  2  1  1  1
  3  4  1  0
  4  8  1  0
  5  4  2  0
  6  7  2  0
  6  2  1  0
  9  6  1  0
 10 14  1  0
 10  9  1  0
 10 11  1  6
 12 11  1  0
 12 16  1  0
 13 12  2  0
 14 22  1  0
 15 14  2  0
 18 19  1  0
 18 17  1  0
 21 20  1  6
 20 19  1  0
 22 21  1  0
 23 21  1  0
 23 25  1  0
 24 23  2  0
M  END
$$$$
