DDM.pdb
     RDKit          3D

 25 24  0  0  1  0  0  0  0  0999 V2000
    8.0632  -16.9697   19.3893 N   0  0  0  0  0  0  0  0  0  0  0  0
    8.7256  -16.0442   20.2665 C   0  0  1  0  0  0  0  0  0  0  0  0
    7.8927  -14.7926   20.4636 C   0  0  0  0  0  0  0  0  0  0  0  0
    7.6428  -14.1175   19.1783 C   0  0  0  0  0  0  0  0  0  0  0  0
    8.0440  -14.6304   18.1164 O   0  0  0  0  0  0  0  0  0  0  0  0
    9.1527  -16.6561   21.5261 C   0  0  0  0  0  0  0  0  0  0  0  0
    8.3116  -17.1581   22.3141 O   0  0  0  0  0  0  0  0  0  0  0  0
    6.9648  -12.9191   19.1555 O   0  0  0  0  0  0  0  0  0  0  0  0
   10.5236  -16.7257   21.9425 N   0  0  0  0  0  0  0  0  0  0  0  0
   10.9730  -17.3054   23.1673 C   0  0  1  0  0  0  0  0  0  0  0  0
   12.4401  -17.6884   23.0112 C   0  0  0  0  0  0  0  0  0  0  0  0
   12.6118  -18.7538   22.0010 C   0  0  0  0  0  0  0  0  0  0  0  0
   11.7780  -19.6753   21.8304 O   0  0  0  0  0  0  0  0  0  0  0  0
   10.7825  -16.3641   24.2943 C   0  0  0  0  0  0  0  0  0  0  0  0
   11.5680  -15.4099   24.5345 O   0  0  0  0  0  0  0  0  0  0  0  0
   13.7584  -18.7124   21.2150 O   0  0  0  0  0  0  0  0  0  0  0  0
    6.7071  -11.3740   25.1647 C   0  0  0  0  0  0  0  0  0  0  0  0
    6.7439  -12.9383   26.0503 S   0  0  0  0  0  0  0  0  0  0  0  0
    8.3147  -13.8041   25.7781 C   0  0  0  0  0  0  0  0  0  0  0  0
    8.3238  -15.0514   26.6238 C   0  0  0  0  0  0  0  0  0  0  0  0
    9.6051  -15.8383   26.4710 C   0  0  2  0  0  0  0  0  0  0  0  0
    9.6763  -16.4918   25.1847 N   0  0  0  0  0  0  0  0  0  0  0  0
    9.8800  -16.7214   27.5981 C   0  0  0  0  0  0  0  0  0  0  0  0
    9.6997  -17.9461   27.4936 O   0  0  0  0  0  0  0  0  0  0  0  0
   10.3408  -16.2155   28.7879 O   0  0  0  0  0  0  0  0  0  0  0  0
  2  3  1  0
  2  1  1  1
  3  4  1  0
  4  8  1  0
  5  4  2  0
  6  7  2  0
  6  2  1  0
  9  6  1  0
 10 14  1  0
 10  9  1  0
 10 11  1  6
 12 11  1  0
 12 16  1  0
 13 12  2  0
 14 22  1  0
 15 14  2  0
 18 19  1  0
 18 17  1  0
 21 20  1  1
 20 19  1  0
 22 21  1  0
 23 21  1  0
 23 25  1  0
 24 23  2  0
M  END
$$$$
