DDM.pdb
     RDKit          3D

 25 24  0  0  1  0  0  0  0  0999 V2000
    9.9384  -12.9257   18.5754 N   0  0  0  0  0  0  0  0  0  0  0  0
    8.5703  -13.1835   18.9308 C   0  0  1  0  0  0  0  0  0  0  0  0
    7.7148  -13.3731   17.6934 C   0  0  0  0  0  0  0  0  0  0  0  0
    8.3185  -14.3596   16.7809 C   0  0  0  0  0  0  0  0  0  0  0  0
    9.3779  -14.9339   17.0962 O   0  0  0  0  0  0  0  0  0  0  0  0
    8.4267  -14.2694   19.9023 C   0  0  0  0  0  0  0  0  0  0  0  0
    7.3145  -14.5108   20.4362 O   0  0  0  0  0  0  0  0  0  0  0  0
    7.7077  -14.6441   15.5799 O   0  0  0  0  0  0  0  0  0  0  0  0
    9.5138  -15.1139   20.3054 N   0  0  0  0  0  0  0  0  0  0  0  0
    9.4269  -16.1301   21.3044 C   0  0  1  0  0  0  0  0  0  0  0  0
   10.4957  -17.1792   21.0211 C   0  0  0  0  0  0  0  0  0  0  0  0
   10.2414  -18.4225   21.7793 C   0  0  0  0  0  0  0  0  0  0  0  0
   10.1835  -18.4599   23.0318 O   0  0  0  0  0  0  0  0  0  0  0  0
    9.5904  -15.5510   22.6573 C   0  0  0  0  0  0  0  0  0  0  0  0
   10.5798  -14.8469   22.9898 O   0  0  0  0  0  0  0  0  0  0  0  0
   10.0612  -19.5924   21.0492 O   0  0  0  0  0  0  0  0  0  0  0  0
    6.1252  -11.1953   27.8904 C   0  0  0  0  0  0  0  0  0  0  0  0
    6.1426  -12.1556   26.3705 S   0  0  0  0  0  0  0  0  0  0  0  0
    7.4973  -13.3622   26.3779 C   0  0  0  0  0  0  0  0  0  0  0  0
    7.4974  -14.0863   25.0562 C   0  0  0  0  0  0  0  0  0  0  0  0
    8.6269  -15.0849   24.9497 C   0  0  2  0  0  0  0  0  0  0  0  0
    8.6154  -15.7651   23.6754 N   0  0  0  0  0  0  0  0  0  0  0  0
    8.7177  -15.9806   26.0965 C   0  0  0  0  0  0  0  0  0  0  0  0
    8.4737  -17.1918   25.9668 O   0  0  0  0  0  0  0  0  0  0  0  0
    9.0731  -15.5018   27.3328 O   0  0  0  0  0  0  0  0  0  0  0  0
  2  3  1  0
  2  1  1  6
  3  4  1  0
  4  8  1  0
  5  4  2  0
  6  7  2  0
  6  2  1  0
  9  6  1  0
 10 14  1  0
 10  9  1  0
 10 11  1  6
 12 11  1  0
 12 16  1  0
 13 12  2  0
 14 22  1  0
 15 14  2  0
 18 19  1  0
 18 17  1  0
 21 20  1  1
 20 19  1  0
 22 21  1  0
 23 21  1  0
 23 25  1  0
 24 23  2  0
M  END
$$$$
