DDM.pdb
     RDKit          3D

 25 24  0  0  1  0  0  0  0  0999 V2000
    9.6678  -15.4227   17.9826 N   0  0  0  0  0  0  0  0  0  0  0  0
    8.9814  -14.5291   18.8742 C   0  0  1  0  0  0  0  0  0  0  0  0
    7.7531  -13.9379   18.2104 C   0  0  0  0  0  0  0  0  0  0  0  0
    8.0353  -13.5682   16.8125 C   0  0  0  0  0  0  0  0  0  0  0  0
    9.0965  -13.9346   16.2729 O   0  0  0  0  0  0  0  0  0  0  0  0
    8.6981  -15.1294   20.1792 C   0  0  0  0  0  0  0  0  0  0  0  0
    8.0956  -14.4772   21.0692 O   0  0  0  0  0  0  0  0  0  0  0  0
    7.1226  -12.8171   16.1059 O   0  0  0  0  0  0  0  0  0  0  0  0
    9.0767  -16.4680   20.5289 N   0  0  0  0  0  0  0  0  0  0  0  0
    8.9477  -17.0353   21.8326 C   0  0  1  0  0  0  0  0  0  0  0  0
    9.4729  -18.4656   21.7916 C   0  0  0  0  0  0  0  0  0  0  0  0
    8.5406  -19.3989   22.4586 C   0  0  0  0  0  0  0  0  0  0  0  0
    7.3631  -19.0897   22.7609 O   0  0  0  0  0  0  0  0  0  0  0  0
    9.6795  -16.2247   22.8324 C   0  0  0  0  0  0  0  0  0  0  0  0
   10.3979  -15.2373   22.5253 O   0  0  0  0  0  0  0  0  0  0  0  0
    9.0126  -20.6730   22.7552 O   0  0  0  0  0  0  0  0  0  0  0  0
    6.3884  -11.7400   27.5161 C   0  0  0  0  0  0  0  0  0  0  0  0
    6.5818  -13.0017   26.2498 S   0  0  0  0  0  0  0  0  0  0  0  0
    8.3221  -13.4808   26.0683 C   0  0  0  0  0  0  0  0  0  0  0  0
    8.4161  -14.5365   24.9970 C   0  0  0  0  0  0  0  0  0  0  0  0
    9.5339  -15.5199   25.2578 C   0  0  2  0  0  0  0  0  0  0  0  0
    9.6073  -16.5262   24.2240 N   0  0  0  0  0  0  0  0  0  0  0  0
    9.5233  -16.0629   26.6109 C   0  0  0  0  0  0  0  0  0  0  0  0
   10.2901  -15.6069   27.4755 O   0  0  0  0  0  0  0  0  0  0  0  0
    8.6690  -17.0824   26.9497 O   0  0  0  0  0  0  0  0  0  0  0  0
  2  3  1  0
  2  1  1  6
  3  4  1  0
  4  8  1  0
  5  4  2  0
  6  7  2  0
  6  2  1  0
  9  6  1  0
 10 14  1  0
 10  9  1  0
 10 11  1  6
 12 11  1  0
 12 16  1  0
 13 12  2  0
 14 22  1  0
 15 14  2  0
 18 19  1  0
 18 17  1  0
 21 20  1  6
 20 19  1  0
 22 21  1  0
 23 21  1  0
 23 25  1  0
 24 23  2  0
M  END
$$$$
