DDM.pdb
     RDKit          3D

 25 24  0  0  1  0  0  0  0  0999 V2000
    9.8745  -13.1098   18.5481 N   0  0  0  0  0  0  0  0  0  0  0  0
    8.5363  -13.3531   19.0115 C   0  0  1  0  0  0  0  0  0  0  0  0
    7.5767  -13.4978   17.8465 C   0  0  0  0  0  0  0  0  0  0  0  0
    8.0395  -14.5341   16.9074 C   0  0  0  0  0  0  0  0  0  0  0  0
    9.1544  -14.4281   16.3621 O   0  0  0  0  0  0  0  0  0  0  0  0
    8.4542  -14.4600   19.9662 C   0  0  0  0  0  0  0  0  0  0  0  0
    7.3593  -14.7654   20.5032 O   0  0  0  0  0  0  0  0  0  0  0  0
    7.2360  -15.6189   16.6353 O   0  0  0  0  0  0  0  0  0  0  0  0
    9.5851  -15.2552   20.3487 N   0  0  0  0  0  0  0  0  0  0  0  0
    9.5652  -16.2651   21.3576 C   0  0  1  0  0  0  0  0  0  0  0  0
   10.6902  -17.2538   21.0744 C   0  0  0  0  0  0  0  0  0  0  0  0
   10.3535  -18.1387   19.9391 C   0  0  0  0  0  0  0  0  0  0  0  0
    9.1961  -18.5757   19.7326 O   0  0  0  0  0  0  0  0  0  0  0  0
    9.7063  -15.6648   22.7038 C   0  0  0  0  0  0  0  0  0  0  0  0
   10.7508  -15.0767   23.0891 O   0  0  0  0  0  0  0  0  0  0  0  0
   11.3838  -18.4898   19.0733 O   0  0  0  0  0  0  0  0  0  0  0  0
    6.3266  -11.1113   27.9159 C   0  0  0  0  0  0  0  0  0  0  0  0
    6.2602  -12.1075   26.4206 S   0  0  0  0  0  0  0  0  0  0  0  0
    7.5906  -13.3407   26.3999 C   0  0  0  0  0  0  0  0  0  0  0  0
    7.5857  -14.0240   25.0568 C   0  0  0  0  0  0  0  0  0  0  0  0
    8.6812  -15.0582   24.9358 C   0  0  2  0  0  0  0  0  0  0  0  0
    8.6445  -15.7225   23.6536 N   0  0  0  0  0  0  0  0  0  0  0  0
    8.7446  -15.9700   26.0717 C   0  0  0  0  0  0  0  0  0  0  0  0
    8.3942  -17.1551   25.9447 O   0  0  0  0  0  0  0  0  0  0  0  0
    9.1909  -15.5352   27.2947 O   0  0  0  0  0  0  0  0  0  0  0  0
  2  3  1  0
  2  1  1  6
  3  4  1  0
  4  8  1  0
  5  4  2  0
  6  7  2  0
  6  2  1  0
  9  6  1  0
 10 14  1  0
 10  9  1  0
 10 11  1  6
 12 11  1  0
 12 16  1  0
 13 12  2  0
 14 22  1  0
 15 14  2  0
 18 19  1  0
 18 17  1  0
 21 20  1  1
 20 19  1  0
 22 21  1  0
 23 21  1  0
 23 25  1  0
 24 23  2  0
M  END
$$$$
