DDM.pdb
     RDKit          3D

 25 24  0  0  1  0  0  0  0  0999 V2000
    9.9197  -16.1011   19.5768 N   0  0  0  0  0  0  0  0  0  0  0  0
    8.7219  -16.1970   20.3648 C   0  0  1  0  0  0  0  0  0  0  0  0
    7.6583  -16.9982   19.6396 C   0  0  0  0  0  0  0  0  0  0  0  0
    8.0452  -17.2429   18.2394 C   0  0  0  0  0  0  0  0  0  0  0  0
    9.0315  -17.9585   17.9812 O   0  0  0  0  0  0  0  0  0  0  0  0
    8.9704  -16.6704   21.7277 C   0  0  0  0  0  0  0  0  0  0  0  0
    8.0337  -16.7445   22.5628 O   0  0  0  0  0  0  0  0  0  0  0  0
    7.3132  -16.6784   17.2187 O   0  0  0  0  0  0  0  0  0  0  0  0
   10.2645  -17.0730   22.1976 N   0  0  0  0  0  0  0  0  0  0  0  0
   10.5460  -17.5159   23.5253 C   0  0  1  0  0  0  0  0  0  0  0  0
   11.7220  -18.4842   23.4728 C   0  0  0  0  0  0  0  0  0  0  0  0
   11.3922  -19.6863   22.6782 C   0  0  0  0  0  0  0  0  0  0  0  0
   11.9791  -19.9820   21.6098 O   0  0  0  0  0  0  0  0  0  0  0  0
   10.8384  -16.3660   24.4110 C   0  0  0  0  0  0  0  0  0  0  0  0
   11.8263  -15.6033   24.2454 O   0  0  0  0  0  0  0  0  0  0  0  0
   10.3810  -20.5126   23.1566 O   0  0  0  0  0  0  0  0  0  0  0  0
    5.7977  -12.1795   26.2399 C   0  0  0  0  0  0  0  0  0  0  0  0
    7.5893  -12.1780   26.3915 S   0  0  0  0  0  0  0  0  0  0  0  0
    8.2533  -13.8630   26.2868 C   0  0  0  0  0  0  0  0  0  0  0  0
    9.7535  -13.7922   26.4098 C   0  0  0  0  0  0  0  0  0  0  0  0
   10.3794  -15.1567   26.5853 C   0  0  2  0  0  0  0  0  0  0  0  0
    9.9987  -16.0559   25.5208 N   0  0  0  0  0  0  0  0  0  0  0  0
   10.1945  -15.7109   27.9211 C   0  0  0  0  0  0  0  0  0  0  0  0
    9.5996  -16.7907   28.0751 O   0  0  0  0  0  0  0  0  0  0  0  0
   10.6729  -15.0511   29.0255 O   0  0  0  0  0  0  0  0  0  0  0  0
  2  3  1  0
  2  1  1  6
  3  4  1  0
  4  8  1  0
  5  4  2  0
  6  7  2  0
  6  2  1  0
  9  6  1  0
 10 14  1  0
 10  9  1  0
 10 11  1  6
 12 11  1  0
 12 16  1  0
 13 12  2  0
 14 22  1  0
 15 14  2  0
 18 19  1  0
 18 17  1  0
 21 20  1  1
 20 19  1  0
 22 21  1  0
 23 21  1  0
 23 25  1  0
 24 23  2  0
M  END
$$$$
