DDM.pdb
     RDKit          3D

 25 24  0  0  1  0  0  0  0  0999 V2000
   10.1228  -14.0760   18.0815 N   0  0  0  0  0  0  0  0  0  0  0  0
    8.8909  -13.7194   18.7295 C   0  0  1  0  0  0  0  0  0  0  0  0
    7.7485  -13.6709   17.7338 C   0  0  0  0  0  0  0  0  0  0  0  0
    8.1933  -14.1074   16.3989 C   0  0  0  0  0  0  0  0  0  0  0  0
    9.0684  -14.9871   16.2902 O   0  0  0  0  0  0  0  0  0  0  0  0
    8.5997  -14.5487   19.9003 C   0  0  0  0  0  0  0  0  0  0  0  0
    7.5754  -14.3380   20.5982 O   0  0  0  0  0  0  0  0  0  0  0  0
    7.6384  -13.5400   15.2735 O   0  0  0  0  0  0  0  0  0  0  0  0
    9.4379  -15.6322   20.3258 N   0  0  0  0  0  0  0  0  0  0  0  0
    9.1749  -16.4703   21.4512 C   0  0  1  0  0  0  0  0  0  0  0  0
   10.0627  -17.7054   21.3522 C   0  0  0  0  0  0  0  0  0  0  0  0
    9.7425  -18.5010   20.1482 C   0  0  0  0  0  0  0  0  0  0  0  0
    8.6082  -18.9923   19.9349 O   0  0  0  0  0  0  0  0  0  0  0  0
    9.4135  -15.7396   22.7167 C   0  0  0  0  0  0  0  0  0  0  0  0
   10.4679  -15.0921   22.9495 O   0  0  0  0  0  0  0  0  0  0  0  0
   10.7616  -18.7014   19.2232 O   0  0  0  0  0  0  0  0  0  0  0  0
    6.0783  -10.9992   27.8696 C   0  0  0  0  0  0  0  0  0  0  0  0
    6.0118  -12.0732   26.4292 S   0  0  0  0  0  0  0  0  0  0  0  0
    7.4644  -13.1575   26.3575 C   0  0  0  0  0  0  0  0  0  0  0  0
    7.3860  -13.9758   25.0945 C   0  0  0  0  0  0  0  0  0  0  0  0
    8.5546  -14.9238   24.9522 C   0  0  2  0  0  0  0  0  0  0  0  0
    8.4410  -15.7306   23.7594 N   0  0  0  0  0  0  0  0  0  0  0  0
    8.8274  -15.6919   26.1610 C   0  0  0  0  0  0  0  0  0  0  0  0
    8.6635  -16.9233   26.1718 O   0  0  0  0  0  0  0  0  0  0  0  0
    9.2682  -15.0690   27.3020 O   0  0  0  0  0  0  0  0  0  0  0  0
  2  3  1  0
  2  1  1  6
  3  4  1  0
  4  8  1  0
  5  4  2  0
  6  7  2  0
  6  2  1  0
  9  6  1  0
 10 14  1  0
 10  9  1  0
 10 11  1  6
 12 11  1  0
 12 16  1  0
 13 12  2  0
 14 22  1  0
 15 14  2  0
 18 19  1  0
 18 17  1  0
 21 20  1  1
 20 19  1  0
 22 21  1  0
 23 21  1  0
 23 25  1  0
 24 23  2  0
M  END
$$$$
