DDM.pdb
     RDKit          3D

 25 24  0  0  1  0  0  0  0  0999 V2000
   10.1189  -13.6850   18.5069 N   0  0  0  0  0  0  0  0  0  0  0  0
    8.7216  -13.5997   18.8309 C   0  0  1  0  0  0  0  0  0  0  0  0
    7.8676  -13.7086   17.5828 C   0  0  0  0  0  0  0  0  0  0  0  0
    8.5536  -14.4925   16.5411 C   0  0  0  0  0  0  0  0  0  0  0  0
    9.6297  -15.0645   16.7986 O   0  0  0  0  0  0  0  0  0  0  0  0
    8.3214  -14.5326   19.8859 C   0  0  0  0  0  0  0  0  0  0  0  0
    7.1305  -14.5770   20.2864 O   0  0  0  0  0  0  0  0  0  0  0  0
    8.0011  -14.5903   15.2834 O   0  0  0  0  0  0  0  0  0  0  0  0
    9.2327  -15.4389   20.5228 N   0  0  0  0  0  0  0  0  0  0  0  0
    8.8796  -16.3491   21.5645 C   0  0  1  0  0  0  0  0  0  0  0  0
    9.6685  -17.6383   21.3681 C   0  0  0  0  0  0  0  0  0  0  0  0
   11.0665  -17.3577   20.9782 C   0  0  0  0  0  0  0  0  0  0  0  0
   11.6037  -16.2332   21.1209 O   0  0  0  0  0  0  0  0  0  0  0  0
    9.1477  -15.7545   22.8938 C   0  0  0  0  0  0  0  0  0  0  0  0
   10.2426  -15.2119   23.1970 O   0  0  0  0  0  0  0  0  0  0  0  0
   11.8008  -18.4038   20.4296 O   0  0  0  0  0  0  0  0  0  0  0  0
    6.6179  -10.7327   27.8540 C   0  0  0  0  0  0  0  0  0  0  0  0
    6.1763  -12.1728   26.8722 S   0  0  0  0  0  0  0  0  0  0  0  0
    7.6489  -13.1349   26.4283 C   0  0  0  0  0  0  0  0  0  0  0  0
    7.2054  -14.3693   25.6863 C   0  0  0  0  0  0  0  0  0  0  0  0
    8.3721  -15.2213   25.2421 C   0  0  2  0  0  0  0  0  0  0  0  0
    8.1592  -15.7657   23.9212 N   0  0  0  0  0  0  0  0  0  0  0  0
    8.7743  -16.2134   26.2320 C   0  0  0  0  0  0  0  0  0  0  0  0
    8.4291  -17.4002   26.1063 O   0  0  0  0  0  0  0  0  0  0  0  0
    9.5379  -15.8533   27.3142 O   0  0  0  0  0  0  0  0  0  0  0  0
  2  3  1  0
  2  1  1  6
  3  4  1  0
  4  8  1  0
  5  4  2  0
  6  7  2  0
  6  2  1  0
  9  6  1  0
 10 14  1  0
 10  9  1  0
 10 11  1  6
 12 11  1  0
 12 16  1  0
 13 12  2  0
 14 22  1  0
 15 14  2  0
 18 19  1  0
 18 17  1  0
 21 20  1  1
 20 19  1  0
 22 21  1  0
 23 21  1  0
 23 25  1  0
 24 23  2  0
M  END
$$$$
