DDM.pdb
     RDKit          3D

 25 24  0  0  1  0  0  0  0  0999 V2000
   10.0176  -14.2745   18.3320 N   0  0  0  0  0  0  0  0  0  0  0  0
    8.7124  -14.2490   18.9325 C   0  0  1  0  0  0  0  0  0  0  0  0
    7.6382  -14.5610   17.9089 C   0  0  0  0  0  0  0  0  0  0  0  0
    7.9859  -14.0003   16.5917 C   0  0  0  0  0  0  0  0  0  0  0  0
    8.8449  -14.5589   15.8835 O   0  0  0  0  0  0  0  0  0  0  0  0
    8.6201  -15.0784   20.1354 C   0  0  0  0  0  0  0  0  0  0  0  0
    7.5625  -15.1101   20.8143 O   0  0  0  0  0  0  0  0  0  0  0  0
    7.3581  -12.8580   16.1471 O   0  0  0  0  0  0  0  0  0  0  0  0
    9.6991  -15.8929   20.6148 N   0  0  0  0  0  0  0  0  0  0  0  0
    9.6720  -16.6481   21.8260 C   0  0  1  0  0  0  0  0  0  0  0  0
   10.8272  -17.6423   21.8019 C   0  0  0  0  0  0  0  0  0  0  0  0
   10.7078  -18.5758   20.6620 C   0  0  0  0  0  0  0  0  0  0  0  0
    9.6666  -19.2332   20.4225 O   0  0  0  0  0  0  0  0  0  0  0  0
    9.7592  -15.7546   23.0035 C   0  0  0  0  0  0  0  0  0  0  0  0
   10.0984  -14.5445   22.9257 O   0  0  0  0  0  0  0  0  0  0  0  0
   11.8135  -18.7158   19.8302 O   0  0  0  0  0  0  0  0  0  0  0  0
    6.1192  -11.1988   27.2153 C   0  0  0  0  0  0  0  0  0  0  0  0
    6.5032  -12.3208   25.8639 S   0  0  0  0  0  0  0  0  0  0  0  0
    7.8106  -13.4863   26.3364 C   0  0  0  0  0  0  0  0  0  0  0  0
    8.1493  -14.3338   25.1372 C   0  0  0  0  0  0  0  0  0  0  0  0
    9.2173  -15.3588   25.4428 C   0  0  2  0  0  0  0  0  0  0  0  0
    9.4572  -16.2278   24.3141 N   0  0  0  0  0  0  0  0  0  0  0  0
    8.9971  -16.0676   26.6977 C   0  0  0  0  0  0  0  0  0  0  0  0
    8.5444  -17.2245   26.6931 O   0  0  0  0  0  0  0  0  0  0  0  0
    9.2856  -15.4704   27.8993 O   0  0  0  0  0  0  0  0  0  0  0  0
  2  3  1  0
  2  1  1  6
  3  4  1  0
  4  8  1  0
  5  4  2  0
  6  7  2  0
  6  2  1  0
  9  6  1  0
 10 14  1  0
 10  9  1  0
 10 11  1  6
 12 11  1  0
 12 16  1  0
 13 12  2  0
 14 22  1  0
 15 14  2  0
 18 19  1  0
 18 17  1  0
 21 20  1  6
 20 19  1  0
 22 21  1  0
 23 21  1  0
 23 25  1  0
 24 23  2  0
M  END
$$$$
