DDM.pdb
     RDKit          3D

 25 24  0  0  1  0  0  0  0  0999 V2000
   12.2284  -19.1395   20.2811 N   0  0  0  0  0  0  0  0  0  0  0  0
   11.6723  -17.8394   20.0256 C   0  0  1  0  0  0  0  0  0  0  0  0
   11.5556  -17.5825   18.5359 C   0  0  0  0  0  0  0  0  0  0  0  0
   12.8773  -17.6305   17.8871 C   0  0  0  0  0  0  0  0  0  0  0  0
   13.6446  -18.5870   18.1058 O   0  0  0  0  0  0  0  0  0  0  0  0
   10.4236  -17.5990   20.7512 C   0  0  0  0  0  0  0  0  0  0  0  0
    9.6458  -16.6749   20.4026 O   0  0  0  0  0  0  0  0  0  0  0  0
   13.2605  -16.6153   17.0392 O   0  0  0  0  0  0  0  0  0  0  0  0
   10.0073  -18.3778   21.8815 N   0  0  0  0  0  0  0  0  0  0  0  0
    8.7839  -18.1894   22.5928 C   0  0  1  0  0  0  0  0  0  0  0  0
    8.3265  -19.5389   23.1340 C   0  0  0  0  0  0  0  0  0  0  0  0
    7.9528  -20.4577   22.0380 C   0  0  0  0  0  0  0  0  0  0  0  0
    6.8812  -20.3542   21.3943 O   0  0  0  0  0  0  0  0  0  0  0  0
    8.9584  -17.2056   23.6855 C   0  0  0  0  0  0  0  0  0  0  0  0
   10.0425  -17.0523   24.3070 O   0  0  0  0  0  0  0  0  0  0  0  0
    8.8458  -21.4765   21.7237 O   0  0  0  0  0  0  0  0  0  0  0  0
    7.5229  -10.8044   27.1948 C   0  0  0  0  0  0  0  0  0  0  0  0
    7.5001  -12.0219   25.8719 S   0  0  0  0  0  0  0  0  0  0  0  0
    6.8100  -13.5974   26.4486 C   0  0  0  0  0  0  0  0  0  0  0  0
    6.7517  -14.5477   25.2804 C   0  0  0  0  0  0  0  0  0  0  0  0
    7.9849  -15.4164   25.1860 C   0  0  2  0  0  0  0  0  0  0  0  0
    7.8854  -16.3628   24.0993 N   0  0  0  0  0  0  0  0  0  0  0  0
    8.3694  -16.0160   26.4581 C   0  0  0  0  0  0  0  0  0  0  0  0
    9.1660  -15.4317   27.2113 O   0  0  0  0  0  0  0  0  0  0  0  0
    7.8590  -17.2309   26.8423 O   0  0  0  0  0  0  0  0  0  0  0  0
  2  3  1  0
  2  1  1  6
  3  4  1  0
  4  8  1  0
  5  4  2  0
  6  7  2  0
  6  2  1  0
  9  6  1  0
 10 14  1  0
 10  9  1  0
 10 11  1  1
 12 11  1  0
 12 16  1  0
 13 12  2  0
 14 22  1  0
 15 14  2  0
 18 19  1  0
 18 17  1  0
 21 20  1  1
 20 19  1  0
 22 21  1  0
 23 21  1  0
 23 25  1  0
 24 23  2  0
M  END
$$$$
