DDM.pdb
     RDKit          3D

 25 24  0  0  1  0  0  0  0  0999 V2000
    9.6046  -14.3233   19.7307 N   0  0  0  0  0  0  0  0  0  0  0  0
    8.4291  -14.3218   20.5572 C   0  0  1  0  0  0  0  0  0  0  0  0
    7.1879  -14.6103   19.7355 C   0  0  0  0  0  0  0  0  0  0  0  0
    7.2986  -15.9103   19.0513 C   0  0  0  0  0  0  0  0  0  0  0  0
    6.6492  -16.8896   19.4646 O   0  0  0  0  0  0  0  0  0  0  0  0
    8.5554  -15.1857   21.7325 C   0  0  0  0  0  0  0  0  0  0  0  0
    7.6179  -15.2791   22.5648 O   0  0  0  0  0  0  0  0  0  0  0  0
    8.1215  -16.0382   17.9544 O   0  0  0  0  0  0  0  0  0  0  0  0
    9.7252  -15.9668   22.0134 N   0  0  0  0  0  0  0  0  0  0  0  0
    9.8963  -16.7887   23.1681 C   0  0  1  0  0  0  0  0  0  0  0  0
   10.9867  -17.8127   22.8754 C   0  0  0  0  0  0  0  0  0  0  0  0
   12.2938  -17.1574   22.6581 C   0  0  0  0  0  0  0  0  0  0  0  0
   13.1643  -17.0535   23.5553 O   0  0  0  0  0  0  0  0  0  0  0  0
   10.2376  -15.9666   24.3513 C   0  0  0  0  0  0  0  0  0  0  0  0
   11.0217  -14.9828   24.3030 O   0  0  0  0  0  0  0  0  0  0  0  0
   12.5480  -16.6392   21.3927 O   0  0  0  0  0  0  0  0  0  0  0  0
    6.9019  -12.1026   26.4037 C   0  0  0  0  0  0  0  0  0  0  0  0
    7.6834  -12.1658   28.0217 S   0  0  0  0  0  0  0  0  0  0  0  0
    8.9567  -13.4567   28.0800 C   0  0  0  0  0  0  0  0  0  0  0  0
    8.7910  -14.3439   26.8732 C   0  0  0  0  0  0  0  0  0  0  0  0
    9.8645  -15.4046   26.7897 C   0  0  2  0  0  0  0  0  0  0  0  0
    9.6842  -16.2522   25.6340 N   0  0  0  0  0  0  0  0  0  0  0  0
   10.0523  -16.1374   28.0360 C   0  0  0  0  0  0  0  0  0  0  0  0
    9.8219  -17.3572   28.0870 O   0  0  0  0  0  0  0  0  0  0  0  0
   10.4852  -15.4938   29.1685 O   0  0  0  0  0  0  0  0  0  0  0  0
  2  3  1  0
  2  1  1  6
  3  4  1  0
  4  8  1  0
  5  4  2  0
  6  7  2  0
  6  2  1  0
  9  6  1  0
 10 14  1  0
 10  9  1  0
 10 11  1  6
 12 11  1  0
 12 16  1  0
 13 12  2  0
 14 22  1  0
 15 14  2  0
 18 19  1  0
 18 17  1  0
 21 20  1  1
 20 19  1  0
 22 21  1  0
 23 21  1  0
 23 25  1  0
 24 23  2  0
M  END
$$$$
