DDM.pdb
     RDKit          3D

 25 24  0  0  1  0  0  0  0  0999 V2000
    9.5527  -13.4576   18.4958 N   0  0  0  0  0  0  0  0  0  0  0  0
    8.2872  -13.9611   18.9536 C   0  0  1  0  0  0  0  0  0  0  0  0
    7.4604  -14.4844   17.7953 C   0  0  0  0  0  0  0  0  0  0  0  0
    8.1408  -14.2447   16.5108 C   0  0  0  0  0  0  0  0  0  0  0  0
    9.2911  -13.7671   16.4943 O   0  0  0  0  0  0  0  0  0  0  0  0
    8.4172  -14.9233   20.0494 C   0  0  0  0  0  0  0  0  0  0  0  0
    7.3979  -15.4161   20.5959 O   0  0  0  0  0  0  0  0  0  0  0  0
    7.5011  -14.5505   15.3302 O   0  0  0  0  0  0  0  0  0  0  0  0
    9.6814  -15.3620   20.5661 N   0  0  0  0  0  0  0  0  0  0  0  0
    9.8453  -16.2089   21.7036 C   0  0  1  0  0  0  0  0  0  0  0  0
   11.1595  -16.9669   21.5567 C   0  0  0  0  0  0  0  0  0  0  0  0
   11.1023  -17.9273   20.4345 C   0  0  0  0  0  0  0  0  0  0  0  0
   12.0334  -18.0667   19.6055 O   0  0  0  0  0  0  0  0  0  0  0  0
    9.8206  -15.4176   22.9548 C   0  0  0  0  0  0  0  0  0  0  0  0
   10.1249  -14.1968   23.0033 O   0  0  0  0  0  0  0  0  0  0  0  0
    9.9533  -18.7013   20.3117 O   0  0  0  0  0  0  0  0  0  0  0  0
    6.7939  -11.4060   27.4334 C   0  0  0  0  0  0  0  0  0  0  0  0
    7.6407  -12.3196   26.1368 S   0  0  0  0  0  0  0  0  0  0  0  0
    6.7407  -13.8372   25.7151 C   0  0  0  0  0  0  0  0  0  0  0  0
    7.5187  -14.5732   24.6550 C   0  0  0  0  0  0  0  0  0  0  0  0
    8.7092  -15.3097   25.2250 C   0  0  2  0  0  0  0  0  0  0  0  0
    9.4430  -16.0091   24.1959 N   0  0  0  0  0  0  0  0  0  0  0  0
    8.3799  -16.1355   26.3805 C   0  0  0  0  0  0  0  0  0  0  0  0
    7.7873  -17.2170   26.2298 O   0  0  0  0  0  0  0  0  0  0  0  0
    8.7182  -15.7329   27.6484 O   0  0  0  0  0  0  0  0  0  0  0  0
  2  3  1  0
  2  1  1  6
  3  4  1  0
  4  8  1  0
  5  4  2  0
  6  7  2  0
  6  2  1  0
  9  6  1  0
 10 14  1  0
 10  9  1  0
 10 11  1  6
 12 11  1  0
 12 16  1  0
 13 12  2  0
 14 22  1  0
 15 14  2  0
 18 19  1  0
 18 17  1  0
 21 20  1  6
 20 19  1  0
 22 21  1  0
 23 21  1  0
 23 25  1  0
 24 23  2  0
M  END
$$$$
