DDM.pdb
     RDKit          3D

 25 24  0  0  1  0  0  0  0  0999 V2000
    8.6315  -16.8438   19.7709 N   0  0  0  0  0  0  0  0  0  0  0  0
    7.7556  -17.4310   20.7470 C   0  0  1  0  0  0  0  0  0  0  0  0
    7.1134  -18.6947   20.2090 C   0  0  0  0  0  0  0  0  0  0  0  0
    6.7482  -18.5381   18.7904 C   0  0  0  0  0  0  0  0  0  0  0  0
    7.6188  -18.2356   17.9524 O   0  0  0  0  0  0  0  0  0  0  0  0
    8.3962  -17.6201   22.0498 C   0  0  0  0  0  0  0  0  0  0  0  0
    7.7295  -18.0053   23.0436 O   0  0  0  0  0  0  0  0  0  0  0  0
    5.4428  -18.7275   18.3951 O   0  0  0  0  0  0  0  0  0  0  0  0
    9.7922  -17.3862   22.2821 N   0  0  0  0  0  0  0  0  0  0  0  0
   10.4512  -17.5756   23.5343 C   0  0  1  0  0  0  0  0  0  0  0  0
   11.9104  -17.9241   23.2649 C   0  0  0  0  0  0  0  0  0  0  0  0
   12.6161  -16.8052   22.6050 C   0  0  0  0  0  0  0  0  0  0  0  0
   12.0688  -15.7051   22.3530 O   0  0  0  0  0  0  0  0  0  0  0  0
   10.3370  -16.3629   24.3761 C   0  0  0  0  0  0  0  0  0  0  0  0
   10.2576  -15.1998   23.9005 O   0  0  0  0  0  0  0  0  0  0  0  0
   13.9476  -17.0045   22.2563 O   0  0  0  0  0  0  0  0  0  0  0  0
    6.6938  -10.9697   26.5091 C   0  0  0  0  0  0  0  0  0  0  0  0
    6.7984  -12.7633   26.4381 S   0  0  0  0  0  0  0  0  0  0  0  0
    8.5161  -13.3076   26.2271 C   0  0  0  0  0  0  0  0  0  0  0  0
    8.5365  -14.8139   26.1854 C   0  0  0  0  0  0  0  0  0  0  0  0
    9.8547  -15.3826   26.6580 C   0  0  2  0  0  0  0  0  0  0  0  0
   10.3102  -16.4509   25.7989 N   0  0  0  0  0  0  0  0  0  0  0  0
    9.8643  -15.7205   28.0762 C   0  0  0  0  0  0  0  0  0  0  0  0
    9.5366  -16.8585   28.4519 O   0  0  0  0  0  0  0  0  0  0  0  0
   10.2341  -14.7902   29.0153 O   0  0  0  0  0  0  0  0  0  0  0  0
  2  3  1  0
  2  1  1  6
  3  4  1  0
  4  8  1  0
  5  4  2  0
  6  7  2  0
  6  2  1  0
  9  6  1  0
 10 14  1  0
 10  9  1  0
 10 11  1  6
 12 11  1  0
 12 16  1  0
 13 12  2  0
 14 22  1  0
 15 14  2  0
 18 19  1  0
 18 17  1  0
 21 20  1  6
 20 19  1  0
 22 21  1  0
 23 21  1  0
 23 25  1  0
 24 23  2  0
M  END
$$$$
