FHY.pdb
     RDKit          3D

 34 36  0  0  1  0  0  0  0  0999 V2000
   32.9631   -6.7992  -17.7765 N   0  0  0  0  0  0  0  0  0  0  0  0
   32.7247   -5.4506  -18.2282 C   0  0  1  0  0  0  0  0  0  0  0  0
   31.6606   -5.5315  -19.3274 C   0  0  0  0  0  0  0  0  0  0  0  0
   32.1788   -6.1329  -20.5598 C   0  0  0  0  0  0  0  0  0  0  0  0
   31.8980   -7.4570  -20.8551 C   0  0  0  0  0  0  0  0  0  0  0  0
   32.4022   -7.9819  -22.0189 C   0  0  0  0  0  0  0  0  0  0  0  0
   33.1675   -7.2382  -22.8866 C   0  0  0  0  0  0  0  0  0  0  0  0
   33.4333   -5.9245  -22.5720 C   0  0  0  0  0  0  0  0  0  0  0  0
   32.9442   -5.3766  -21.4204 C   0  0  0  0  0  0  0  0  0  0  0  0
   32.1568   -4.5878  -17.1672 C   0  0  0  0  0  0  0  0  0  0  0  0
   32.1974   -5.0017  -15.9850 O   0  0  0  0  0  0  0  0  0  0  0  0
   31.5611   -3.3082  -17.3923 N   0  0  0  0  0  0  0  0  0  0  0  0
   31.3856   -2.3403  -16.3398 C   0  0  1  0  0  0  0  0  0  0  0  0
   32.6887   -2.0654  -15.6820 C   0  0  0  0  0  0  0  0  0  0  0  0
   32.6505   -1.1776  -14.5143 C   0  0  0  0  0  0  0  0  0  0  0  0
   31.6404   -0.5127  -13.8840 C   0  0  0  0  0  0  0  0  0  0  0  0
   32.2018    0.1429  -12.8205 N   0  0  0  0  0  0  0  0  0  0  0  0
   33.5011   -0.0927  -12.7759 C   0  0  0  0  0  0  0  0  0  0  0  0
   33.7906   -0.8927  -13.7967 N   0  0  0  0  0  0  0  0  0  0  0  0
   30.7710   -1.0744  -16.7966 C   0  0  0  0  0  0  0  0  0  0  0  0
   31.1933   -0.3624  -17.7399 O   0  0  0  0  0  0  0  0  0  0  0  0
   24.0646   -3.2159  -18.2179 O   0  0  0  0  0  0  0  0  0  0  0  0
   25.1464   -2.3513  -18.1571 C   0  0  0  0  0  0  0  0  0  0  0  0
   24.9169   -1.0491  -17.7645 C   0  0  0  0  0  0  0  0  0  0  0  0
   25.9831   -0.1435  -17.6899 C   0  0  0  0  0  0  0  0  0  0  0  0
   27.2514   -0.5712  -18.0124 C   0  0  0  0  0  0  0  0  0  0  0  0
   28.3961    0.3280  -17.9632 C   0  0  0  0  0  0  0  0  0  0  0  0
   28.9342    0.6032  -16.5790 C   0  0  2  0  0  0  0  0  0  0  0  0
   29.6081   -0.6230  -16.1173 N   0  0  0  0  0  0  0  0  0  0  0  0
   27.7955    0.8697  -15.6793 C   0  0  0  0  0  0  0  0  0  0  0  0
   27.5495    0.0529  -14.7562 O   0  0  0  0  0  0  0  0  0  0  0  0
   27.4646   -1.8851  -18.4055 C   0  0  0  0  0  0  0  0  0  0  0  0
   26.4099   -2.7956  -18.4830 C   0  0  0  0  0  0  0  0  0  0  0  0
   26.9803    1.9893  -15.8071 O   0  0  0  0  0  0  0  0  0  0  0  0
  2  1  1  1
  3  2  1  0
  4  5  2  0
  4  3  1  0
  6  5  1  0
  7  6  2  0
  8  7  1  0
  8  9  2  0
  9  4  1  0
 10 11  2  0
 10  2  1  0
 12 10  1  0
 13 14  1  6
 13 12  1  0
 14 15  1  0
 15 16  2  0
 15 19  1  0
 16 17  1  0
 17 18  1  0
 19 18  2  0
 20 13  1  0
 21 20  2  0
 23 22  1  0
 23 24  2  0
 25 24  1  0
 26 25  2  0
 27 26  1  0
 28 27  1  6
 28 29  1  0
 29 20  1  0
 30 28  1  0
 30 34  1  0
 31 30  2  0
 32 33  2  0
 32 26  1  0
 33 23  1  0
M  END
$$$$
