FHY.pdb
     RDKit          3D

 34 36  0  0  1  0  0  0  0  0999 V2000
   21.8181  -12.2035  -18.6064 N   0  0  0  0  0  0  0  0  0  0  0  0
   22.0428  -10.8204  -18.2655 C   0  0  1  0  0  0  0  0  0  0  0  0
   21.8715  -10.0111  -19.5551 C   0  0  0  0  0  0  0  0  0  0  0  0
   22.9344  -10.2826  -20.5274 C   0  0  0  0  0  0  0  0  0  0  0  0
   22.7690  -11.2815  -21.4730 C   0  0  0  0  0  0  0  0  0  0  0  0
   23.7883  -11.5038  -22.3651 C   0  0  0  0  0  0  0  0  0  0  0  0
   24.9522  -10.7713  -22.3447 C   0  0  0  0  0  0  0  0  0  0  0  0
   25.0938   -9.7839  -21.3959 C   0  0  0  0  0  0  0  0  0  0  0  0
   24.0955   -9.5414  -20.4959 C   0  0  0  0  0  0  0  0  0  0  0  0
   21.0351  -10.2985  -17.3143 C   0  0  0  0  0  0  0  0  0  0  0  0
   19.8436  -10.6586  -17.4600 O   0  0  0  0  0  0  0  0  0  0  0  0
   21.3220   -9.4077  -16.2340 N   0  0  0  0  0  0  0  0  0  0  0  0
   20.2904   -8.8427  -15.4021 C   0  0  1  0  0  0  0  0  0  0  0  0
   20.1542   -9.6370  -14.1542 C   0  0  0  0  0  0  0  0  0  0  0  0
   19.0869  -10.6439  -14.1404 C   0  0  0  0  0  0  0  0  0  0  0  0
   18.1089  -10.9751  -15.0312 C   0  0  0  0  0  0  0  0  0  0  0  0
   17.4185  -12.0258  -14.4878 N   0  0  0  0  0  0  0  0  0  0  0  0
   17.9305  -12.3470  -13.3130 C   0  0  0  0  0  0  0  0  0  0  0  0
   18.9443  -11.5184  -13.0863 N   0  0  0  0  0  0  0  0  0  0  0  0
   20.5095   -7.4167  -15.0742 C   0  0  0  0  0  0  0  0  0  0  0  0
   21.5678   -6.9360  -14.6008 O   0  0  0  0  0  0  0  0  0  0  0  0
   16.4816   -5.0864  -20.5792 O   0  0  0  0  0  0  0  0  0  0  0  0
   17.3592   -4.9079  -19.5212 C   0  0  0  0  0  0  0  0  0  0  0  0
   18.4606   -5.7345  -19.4432 C   0  0  0  0  0  0  0  0  0  0  0  0
   19.3720   -5.5868  -18.3896 C   0  0  0  0  0  0  0  0  0  0  0  0
   19.1514   -4.6123  -17.4424 C   0  0  0  0  0  0  0  0  0  0  0  0
   20.0589   -4.4194  -16.3197 C   0  0  0  0  0  0  0  0  0  0  0  0
   19.6308   -5.0797  -15.0304 C   0  0  2  0  0  0  0  0  0  0  0  0
   19.4400   -6.5132  -15.3129 N   0  0  0  0  0  0  0  0  0  0  0  0
   18.3305   -4.5131  -14.6243 C   0  0  0  0  0  0  0  0  0  0  0  0
   18.2770   -3.3047  -14.2824 O   0  0  0  0  0  0  0  0  0  0  0  0
   18.0380   -3.7891  -17.5362 C   0  0  0  0  0  0  0  0  0  0  0  0
   17.1239   -3.9272  -18.5815 C   0  0  0  0  0  0  0  0  0  0  0  0
   17.1568   -5.2591  -14.6044 O   0  0  0  0  0  0  0  0  0  0  0  0
  2  1  1  6
  3  2  1  0
  4  5  2  0
  4  3  1  0
  6  5  1  0
  7  6  2  0
  8  7  1  0
  8  9  2  0
  9  4  1  0
 10 11  2  0
 10  2  1  0
 12 10  1  0
 13 14  1  1
 13 12  1  0
 14 15  1  0
 15 16  2  0
 15 19  1  0
 16 17  1  0
 17 18  1  0
 19 18  2  0
 20 13  1  0
 21 20  2  0
 23 22  1  0
 23 24  2  0
 25 24  1  0
 26 25  2  0
 27 26  1  0
 28 27  1  6
 28 29  1  0
 29 20  1  0
 30 28  1  0
 30 34  1  0
 31 30  2  0
 32 33  2  0
 32 26  1  0
 33 23  1  0
M  END
$$$$
