FHY.pdb
     RDKit          3D

 34 36  0  0  1  0  0  0  0  0999 V2000
   26.9547  -24.3972  -17.2181 N   0  0  0  0  0  0  0  0  0  0  0  0
   26.9990  -23.0315  -16.7570 C   0  0  1  0  0  0  0  0  0  0  0  0
   26.3409  -22.1741  -17.8427 C   0  0  0  0  0  0  0  0  0  0  0  0
   27.1935  -22.0238  -19.0257 C   0  0  0  0  0  0  0  0  0  0  0  0
   27.0343  -22.8757  -20.1065 C   0  0  0  0  0  0  0  0  0  0  0  0
   27.8529  -22.7014  -21.1945 C   0  0  0  0  0  0  0  0  0  0  0  0
   28.8128  -21.7174  -21.2386 C   0  0  0  0  0  0  0  0  0  0  0  0
   28.9526  -20.8829  -20.1526 C   0  0  0  0  0  0  0  0  0  0  0  0
   28.1514  -21.0339  -19.0568 C   0  0  0  0  0  0  0  0  0  0  0  0
   26.2029  -22.8210  -15.5264 C   0  0  0  0  0  0  0  0  0  0  0  0
   25.1431  -23.4758  -15.3897 O   0  0  0  0  0  0  0  0  0  0  0  0
   26.5554  -21.9198  -14.4745 N   0  0  0  0  0  0  0  0  0  0  0  0
   25.7415  -21.7467  -13.2985 C   0  0  1  0  0  0  0  0  0  0  0  0
   26.5802  -21.2748  -12.1669 C   0  0  0  0  0  0  0  0  0  0  0  0
   25.8670  -20.9283  -10.9323 C   0  0  0  0  0  0  0  0  0  0  0  0
   24.5443  -20.8861  -10.6026 C   0  0  0  0  0  0  0  0  0  0  0  0
   24.4769  -20.5193   -9.2848 N   0  0  0  0  0  0  0  0  0  0  0  0
   25.6928  -20.3380   -8.8007 C   0  0  0  0  0  0  0  0  0  0  0  0
   26.5489  -20.5821   -9.7872 N   0  0  0  0  0  0  0  0  0  0  0  0
   24.5986  -20.8289  -13.4998 C   0  0  0  0  0  0  0  0  0  0  0  0
   24.6430  -19.7423  -14.1262 O   0  0  0  0  0  0  0  0  0  0  0  0
   20.2105  -25.3531  -16.5510 O   0  0  0  0  0  0  0  0  0  0  0  0
   20.6014  -24.1135  -16.0695 C   0  0  0  0  0  0  0  0  0  0  0  0
   21.8760  -23.6746  -16.3616 C   0  0  0  0  0  0  0  0  0  0  0  0
   22.3101  -22.4275  -15.8939 C   0  0  0  0  0  0  0  0  0  0  0  0
   21.4513  -21.6552  -15.1446 C   0  0  0  0  0  0  0  0  0  0  0  0
   21.8510  -20.3553  -14.6232 C   0  0  0  0  0  0  0  0  0  0  0  0
   22.1771  -20.3303  -13.1487 C   0  0  2  0  0  0  0  0  0  0  0  0
   23.3468  -21.2023  -12.9422 N   0  0  0  0  0  0  0  0  0  0  0  0
   21.0377  -20.9051  -12.4082 C   0  0  0  0  0  0  0  0  0  0  0  0
   19.9248  -20.3236  -12.4633 O   0  0  0  0  0  0  0  0  0  0  0  0
   20.1720  -22.1120  -14.8600 C   0  0  0  0  0  0  0  0  0  0  0  0
   19.7291  -23.3525  -15.3210 C   0  0  0  0  0  0  0  0  0  0  0  0
   21.1406  -22.0668  -11.6504 O   0  0  0  0  0  0  0  0  0  0  0  0
  2  1  1  6
  3  2  1  0
  4  5  2  0
  4  3  1  0
  6  5  1  0
  7  6  2  0
  8  7  1  0
  8  9  2  0
  9  4  1  0
 10 11  2  0
 10  2  1  0
 12 10  1  0
 13 14  1  1
 13 12  1  0
 14 15  1  0
 15 16  2  0
 15 19  1  0
 16 17  1  0
 17 18  1  0
 19 18  2  0
 20 13  1  0
 21 20  2  0
 23 22  1  0
 23 24  2  0
 25 24  1  0
 26 25  2  0
 27 26  1  0
 28 27  1  6
 28 29  1  0
 29 20  1  0
 30 28  1  0
 30 34  1  0
 31 30  2  0
 32 33  2  0
 32 26  1  0
 33 23  1  0
M  END
$$$$
