FHY.pdb
     RDKit          3D

 34 36  0  0  1  0  0  0  0  0999 V2000
   23.3638  -32.5767  -17.5457 N   0  0  0  0  0  0  0  0  0  0  0  0
   23.0927  -33.5547  -16.5213 C   0  0  1  0  0  0  0  0  0  0  0  0
   23.3837  -34.9297  -17.1312 C   0  0  0  0  0  0  0  0  0  0  0  0
   22.3820  -35.3192  -18.1281 C   0  0  0  0  0  0  0  0  0  0  0  0
   21.1280  -35.7439  -17.7201 C   0  0  0  0  0  0  0  0  0  0  0  0
   20.2191  -36.0996  -18.6853 C   0  0  0  0  0  0  0  0  0  0  0  0
   20.5168  -36.0461  -20.0269 C   0  0  0  0  0  0  0  0  0  0  0  0
   21.7694  -35.6209  -20.4084 C   0  0  0  0  0  0  0  0  0  0  0  0
   22.6933  -35.2609  -19.4690 C   0  0  0  0  0  0  0  0  0  0  0  0
   23.9954  -33.4216  -15.3551 C   0  0  0  0  0  0  0  0  0  0  0  0
   24.8413  -32.4969  -15.3659 O   0  0  0  0  0  0  0  0  0  0  0  0
   23.9741  -34.2754  -14.2091 N   0  0  0  0  0  0  0  0  0  0  0  0
   24.0773  -33.7686  -12.8645 C   0  0  1  0  0  0  0  0  0  0  0  0
   23.0067  -32.7693  -12.6162 C   0  0  0  0  0  0  0  0  0  0  0  0
   22.9991  -32.1442  -11.2886 C   0  0  0  0  0  0  0  0  0  0  0  0
   23.8021  -32.2752  -10.1941 C   0  0  0  0  0  0  0  0  0  0  0  0
   23.3246  -31.4083   -9.2475 N   0  0  0  0  0  0  0  0  0  0  0  0
   22.2731  -30.7590   -9.7149 C   0  0  0  0  0  0  0  0  0  0  0  0
   22.0615  -31.1933  -10.9528 N   0  0  0  0  0  0  0  0  0  0  0  0
   24.0351  -34.8248  -11.8292 C   0  0  0  0  0  0  0  0  0  0  0  0
   23.1744  -35.7354  -11.7571 O   0  0  0  0  0  0  0  0  0  0  0  0
   26.7445  -32.6136   -4.6964 O   0  0  0  0  0  0  0  0  0  0  0  0
   26.6886  -33.4054   -5.8328 C   0  0  0  0  0  0  0  0  0  0  0  0
   26.5156  -34.7642   -5.6708 C   0  0  0  0  0  0  0  0  0  0  0  0
   26.4538  -35.5995   -6.7937 C   0  0  0  0  0  0  0  0  0  0  0  0
   26.5679  -35.0464   -8.0493 C   0  0  0  0  0  0  0  0  0  0  0  0
   26.5214  -35.8665   -9.2521 C   0  0  0  0  0  0  0  0  0  0  0  0
   25.1659  -35.9572   -9.9123 C   0  0  2  0  0  0  0  0  0  0  0  0
   25.0483  -34.8136  -10.8340 N   0  0  0  0  0  0  0  0  0  0  0  0
   24.1290  -35.8188   -8.8718 C   0  0  0  0  0  0  0  0  0  0  0  0
   23.9296  -36.7781   -8.0846 O   0  0  0  0  0  0  0  0  0  0  0  0
   26.7415  -33.6771   -8.1942 C   0  0  0  0  0  0  0  0  0  0  0  0
   26.8042  -32.8357   -7.0826 C   0  0  0  0  0  0  0  0  0  0  0  0
   23.3608  -34.6691   -8.7221 O   0  0  0  0  0  0  0  0  0  0  0  0
  2  1  1  6
  3  2  1  0
  4  5  2  0
  4  3  1  0
  6  5  1  0
  7  6  2  0
  8  7  1  0
  8  9  2  0
  9  4  1  0
 10 11  2  0
 10  2  1  0
 12 10  1  0
 13 14  1  1
 13 12  1  0
 14 15  1  0
 15 16  2  0
 15 19  1  0
 16 17  1  0
 17 18  1  0
 19 18  2  0
 20 13  1  0
 21 20  2  0
 23 22  1  0
 23 24  2  0
 25 24  1  0
 26 25  2  0
 27 26  1  0
 28 27  1  1
 28 29  1  0
 29 20  1  0
 30 28  1  0
 30 34  1  0
 31 30  2  0
 32 33  2  0
 32 26  1  0
 33 23  1  0
M  END
$$$$
