FHY.pdb
     RDKit          3D

 34 36  0  0  1  0  0  0  0  0999 V2000
   25.8170  -10.5919  -18.5080 N   0  0  0  0  0  0  0  0  0  0  0  0
   25.3722  -10.8103  -17.1537 C   0  0  1  0  0  0  0  0  0  0  0  0
   26.2569   -9.9453  -16.2502 C   0  0  0  0  0  0  0  0  0  0  0  0
   27.6552  -10.3852  -16.2551 C   0  0  0  0  0  0  0  0  0  0  0  0
   27.9921  -11.6268  -15.7411 C   0  0  0  0  0  0  0  0  0  0  0  0
   29.3127  -12.0006  -15.7646 C   0  0  0  0  0  0  0  0  0  0  0  0
   30.2954  -11.1865  -16.2776 C   0  0  0  0  0  0  0  0  0  0  0  0
   29.9365   -9.9571  -16.7828 C   0  0  0  0  0  0  0  0  0  0  0  0
   28.6298   -9.5597  -16.7721 C   0  0  0  0  0  0  0  0  0  0  0  0
   23.9821  -10.3516  -16.9309 C   0  0  0  0  0  0  0  0  0  0  0  0
   23.5890   -9.3363  -17.5515 O   0  0  0  0  0  0  0  0  0  0  0  0
   23.0478  -10.9851  -16.0542 N   0  0  0  0  0  0  0  0  0  0  0  0
   21.6875  -10.5318  -15.9147 C   0  0  1  0  0  0  0  0  0  0  0  0
   20.8194  -11.6586  -15.4866 C   0  0  0  0  0  0  0  0  0  0  0  0
   19.3868  -11.3640  -15.3680 C   0  0  0  0  0  0  0  0  0  0  0  0
   18.6513  -10.2313  -15.5571 C   0  0  0  0  0  0  0  0  0  0  0  0
   17.3432  -10.5666  -15.3286 N   0  0  0  0  0  0  0  0  0  0  0  0
   17.2506  -11.8458  -15.0114 C   0  0  0  0  0  0  0  0  0  0  0  0
   18.4818  -12.3455  -15.0307 N   0  0  0  0  0  0  0  0  0  0  0  0
   21.5360   -9.3926  -14.9829 C   0  0  0  0  0  0  0  0  0  0  0  0
   22.1070   -9.2851  -13.8704 O   0  0  0  0  0  0  0  0  0  0  0  0
   18.8864   -4.6272  -20.1712 O   0  0  0  0  0  0  0  0  0  0  0  0
   19.4850   -4.9612  -18.9665 C   0  0  0  0  0  0  0  0  0  0  0  0
   20.5840   -5.7942  -18.9952 C   0  0  0  0  0  0  0  0  0  0  0  0
   21.2182   -6.1559  -17.7997 C   0  0  0  0  0  0  0  0  0  0  0  0
   20.7303   -5.6708  -16.6071 C   0  0  0  0  0  0  0  0  0  0  0  0
   21.3422   -6.0209  -15.3327 C   0  0  0  0  0  0  0  0  0  0  0  0
   20.6306   -7.1046  -14.5577 C   0  0  2  0  0  0  0  0  0  0  0  0
   20.6771   -8.3310  -15.3732 N   0  0  0  0  0  0  0  0  0  0  0  0
   19.2176   -6.7124  -14.3958 C   0  0  0  0  0  0  0  0  0  0  0  0
   18.3335   -7.3709  -14.9995 O   0  0  0  0  0  0  0  0  0  0  0  0
   19.6235   -4.8335  -16.5964 C   0  0  0  0  0  0  0  0  0  0  0  0
   18.9842   -4.4666  -17.7813 C   0  0  0  0  0  0  0  0  0  0  0  0
   18.8189   -5.6431  -13.6006 O   0  0  0  0  0  0  0  0  0  0  0  0
  2  1  1  6
  3  2  1  0
  4  5  2  0
  4  3  1  0
  6  5  1  0
  7  6  2  0
  8  7  1  0
  8  9  2  0
  9  4  1  0
 10 11  2  0
 10  2  1  0
 12 10  1  0
 13 14  1  1
 13 12  1  0
 14 15  1  0
 15 16  2  0
 15 19  1  0
 16 17  1  0
 17 18  1  0
 19 18  2  0
 20 13  1  0
 21 20  2  0
 23 22  1  0
 23 24  2  0
 25 24  1  0
 26 25  2  0
 27 26  1  0
 28 27  1  6
 28 29  1  0
 29 20  1  0
 30 28  1  0
 30 34  1  0
 31 30  2  0
 32 33  2  0
 32 26  1  0
 33 23  1  0
M  END
$$$$
