FHY.pdb
     RDKit          3D

 34 36  0  0  1  0  0  0  0  0999 V2000
   22.6916  -10.8537  -18.3331 N   0  0  0  0  0  0  0  0  0  0  0  0
   23.0593   -9.4697  -18.5034 C   0  0  1  0  0  0  0  0  0  0  0  0
   23.0929   -9.2010  -20.0114 C   0  0  0  0  0  0  0  0  0  0  0  0
   24.1755   -9.9274  -20.6817 C   0  0  0  0  0  0  0  0  0  0  0  0
   25.4953   -9.6508  -20.3639 C   0  0  0  0  0  0  0  0  0  0  0  0
   26.4788  -10.3533  -21.0146 C   0  0  0  0  0  0  0  0  0  0  0  0
   26.1922  -11.3104  -21.9598 C   0  0  0  0  0  0  0  0  0  0  0  0
   24.8732  -11.5680  -22.2590 C   0  0  0  0  0  0  0  0  0  0  0  0
   23.8744  -10.8838  -21.6268 C   0  0  0  0  0  0  0  0  0  0  0  0
   22.0525   -8.5407  -17.9415 C   0  0  0  0  0  0  0  0  0  0  0  0
   20.8447   -8.7519  -18.2009 O   0  0  0  0  0  0  0  0  0  0  0  0
   22.3574   -7.4124  -17.1189 N   0  0  0  0  0  0  0  0  0  0  0  0
   21.3423   -6.5162  -16.6271 C   0  0  1  0  0  0  0  0  0  0  0  0
   21.3127   -6.5502  -15.1423 C   0  0  0  0  0  0  0  0  0  0  0  0
   20.7790   -7.7736  -14.5328 C   0  0  0  0  0  0  0  0  0  0  0  0
   20.1884   -8.8890  -15.0493 C   0  0  0  0  0  0  0  0  0  0  0  0
   19.9238   -9.7210  -13.9939 N   0  0  0  0  0  0  0  0  0  0  0  0
   20.3254   -9.1646  -12.8649 C   0  0  0  0  0  0  0  0  0  0  0  0
   20.8472   -7.9821  -13.1733 N   0  0  0  0  0  0  0  0  0  0  0  0
   21.5033   -5.1234  -17.0994 C   0  0  0  0  0  0  0  0  0  0  0  0
   22.6007   -4.5474  -17.2977 O   0  0  0  0  0  0  0  0  0  0  0  0
   19.1837    2.2522  -21.2739 O   0  0  0  0  0  0  0  0  0  0  0  0
   19.2238    0.9963  -20.6887 C   0  0  0  0  0  0  0  0  0  0  0  0
   18.3554    0.7351  -19.6494 C   0  0  0  0  0  0  0  0  0  0  0  0
   18.3640   -0.5218  -19.0308 C   0  0  0  0  0  0  0  0  0  0  0  0
   19.2456   -1.4822  -19.4733 C   0  0  0  0  0  0  0  0  0  0  0  0
   19.3065   -2.8027  -18.8619 C   0  0  0  0  0  0  0  0  0  0  0  0
   20.4427   -3.0045  -17.8873 C   0  0  2  0  0  0  0  0  0  0  0  0
   20.3247   -4.3720  -17.3515 N   0  0  0  0  0  0  0  0  0  0  0  0
   20.2741   -2.0558  -16.7700 C   0  0  0  0  0  0  0  0  0  0  0  0
   19.6265   -2.4226  -15.7570 O   0  0  0  0  0  0  0  0  0  0  0  0
   20.1124   -1.2025  -20.5205 C   0  0  0  0  0  0  0  0  0  0  0  0
   20.1123    0.0459  -21.1441 C   0  0  0  0  0  0  0  0  0  0  0  0
   20.8031   -0.7696  -16.7873 O   0  0  0  0  0  0  0  0  0  0  0  0
  2  1  1  6
  3  2  1  0
  4  5  2  0
  4  3  1  0
  6  5  1  0
  7  6  2  0
  8  7  1  0
  8  9  2  0
  9  4  1  0
 10 11  2  0
 10  2  1  0
 12 10  1  0
 13 14  1  1
 13 12  1  0
 14 15  1  0
 15 16  2  0
 15 19  1  0
 16 17  1  0
 17 18  1  0
 19 18  2  0
 20 13  1  0
 21 20  2  0
 23 22  1  0
 23 24  2  0
 25 24  1  0
 26 25  2  0
 27 26  1  0
 28 27  1  6
 28 29  1  0
 29 20  1  0
 30 28  1  0
 30 34  1  0
 31 30  2  0
 32 33  2  0
 32 26  1  0
 33 23  1  0
M  END
$$$$
