FHY.pdb
     RDKit          3D

 34 36  0  0  1  0  0  0  0  0999 V2000
   26.8933  -17.6433  -13.3392 N   0  0  0  0  0  0  0  0  0  0  0  0
   26.7702  -18.6250  -14.3883 C   0  0  1  0  0  0  0  0  0  0  0  0
   26.6411  -19.9908  -13.7063 C   0  0  0  0  0  0  0  0  0  0  0  0
   27.8353  -20.3405  -12.9313 C   0  0  0  0  0  0  0  0  0  0  0  0
   29.0567  -20.4845  -13.5690 C   0  0  0  0  0  0  0  0  0  0  0  0
   30.1503  -20.8126  -12.8070 C   0  0  0  0  0  0  0  0  0  0  0  0
   30.0660  -20.9993  -11.4470 C   0  0  0  0  0  0  0  0  0  0  0  0
   28.8415  -20.8509  -10.8353 C   0  0  0  0  0  0  0  0  0  0  0  0
   27.7369  -20.5248  -11.5694 C   0  0  0  0  0  0  0  0  0  0  0  0
   25.5389  -18.4473  -15.1915 C   0  0  0  0  0  0  0  0  0  0  0  0
   24.4508  -18.3187  -14.5832 O   0  0  0  0  0  0  0  0  0  0  0  0
   25.4984  -18.4111  -16.6197 N   0  0  0  0  0  0  0  0  0  0  0  0
   24.2638  -18.4618  -17.3604 C   0  0  1  0  0  0  0  0  0  0  0  0
   24.5356  -18.2902  -18.8106 C   0  0  0  0  0  0  0  0  0  0  0  0
   23.3614  -18.2533  -19.6899 C   0  0  0  0  0  0  0  0  0  0  0  0
   22.0209  -18.3436  -19.4561 C   0  0  0  0  0  0  0  0  0  0  0  0
   21.3983  -18.2115  -20.6688 N   0  0  0  0  0  0  0  0  0  0  0  0
   22.2953  -18.0453  -21.6245 C   0  0  0  0  0  0  0  0  0  0  0  0
   23.4924  -18.0679  -21.0481 N   0  0  0  0  0  0  0  0  0  0  0  0
   23.4878  -19.7008  -17.1329 C   0  0  0  0  0  0  0  0  0  0  0  0
   23.9623  -20.8627  -17.1275 O   0  0  0  0  0  0  0  0  0  0  0  0
   19.6757  -17.7711  -11.1372 O   0  0  0  0  0  0  0  0  0  0  0  0
   20.1831  -18.5930  -12.1315 C   0  0  0  0  0  0  0  0  0  0  0  0
   19.8264  -19.9254  -12.1188 C   0  0  0  0  0  0  0  0  0  0  0  0
   20.3175  -20.7897  -13.1059 C   0  0  0  0  0  0  0  0  0  0  0  0
   21.1543  -20.2914  -14.0790 C   0  0  0  0  0  0  0  0  0  0  0  0
   21.7034  -21.1445  -15.1240 C   0  0  0  0  0  0  0  0  0  0  0  0
   21.3101  -20.7648  -16.5321 C   0  0  2  0  0  0  0  0  0  0  0  0
   22.0926  -19.5719  -16.9006 N   0  0  0  0  0  0  0  0  0  0  0  0
   19.8812  -20.3976  -16.5354 C   0  0  0  0  0  0  0  0  0  0  0  0
   19.0323  -21.2660  -16.2114 O   0  0  0  0  0  0  0  0  0  0  0  0
   21.5029  -18.9480  -14.0770 C   0  0  0  0  0  0  0  0  0  0  0  0
   21.0195  -18.0782  -13.0987 C   0  0  0  0  0  0  0  0  0  0  0  0
   19.4304  -19.1280  -16.8809 O   0  0  0  0  0  0  0  0  0  0  0  0
  2  1  1  1
  3  2  1  0
  4  5  2  0
  4  3  1  0
  6  5  1  0
  7  6  2  0
  8  7  1  0
  8  9  2  0
  9  4  1  0
 10 11  2  0
 10  2  1  0
 12 10  1  0
 13 14  1  6
 13 12  1  0
 14 15  1  0
 15 16  2  0
 15 19  1  0
 16 17  1  0
 17 18  1  0
 19 18  2  0
 20 13  1  0
 21 20  2  0
 23 22  1  0
 23 24  2  0
 25 24  1  0
 26 25  2  0
 27 26  1  0
 28 27  1  1
 28 29  1  0
 29 20  1  0
 30 28  1  0
 30 34  1  0
 31 30  2  0
 32 33  2  0
 32 26  1  0
 33 23  1  0
M  END
$$$$
