FHY.pdb
     RDKit          3D

 34 36  0  0  1  0  0  0  0  0999 V2000
   20.9666   -8.2636  -21.4553 N   0  0  0  0  0  0  0  0  0  0  0  0
   21.5008   -7.8904  -20.1689 C   0  0  1  0  0  0  0  0  0  0  0  0
   21.8477   -6.4001  -20.2469 C   0  0  0  0  0  0  0  0  0  0  0  0
   22.9524   -6.1340  -21.1729 C   0  0  0  0  0  0  0  0  0  0  0  0
   24.2007   -6.6873  -20.9386 C   0  0  0  0  0  0  0  0  0  0  0  0
   25.2081   -6.4133  -21.8298 C   0  0  0  0  0  0  0  0  0  0  0  0
   25.0131   -5.6155  -22.9330 C   0  0  0  0  0  0  0  0  0  0  0  0
   23.7641   -5.0767  -23.1451 C   0  0  0  0  0  0  0  0  0  0  0  0
   22.7435   -5.3329  -22.2743 C   0  0  0  0  0  0  0  0  0  0  0  0
   20.5069   -8.0259  -19.0797 C   0  0  0  0  0  0  0  0  0  0  0  0
   19.3115   -7.7480  -19.3334 O   0  0  0  0  0  0  0  0  0  0  0  0
   20.8113   -8.4533  -17.7502 N   0  0  0  0  0  0  0  0  0  0  0  0
   19.8010   -8.5982  -16.7335 C   0  0  1  0  0  0  0  0  0  0  0  0
   20.1063   -9.7749  -15.8799 C   0  0  0  0  0  0  0  0  0  0  0  0
   19.0669  -10.1671  -14.9213 C   0  0  0  0  0  0  0  0  0  0  0  0
   17.8580   -9.6307  -14.5887 C   0  0  0  0  0  0  0  0  0  0  0  0
   17.3074  -10.4533  -13.6422 N   0  0  0  0  0  0  0  0  0  0  0  0
   18.1227  -11.4609  -13.3861 C   0  0  0  0  0  0  0  0  0  0  0  0
   19.1957  -11.3031  -14.1538 N   0  0  0  0  0  0  0  0  0  0  0  0
   19.6303   -7.3926  -15.8929 C   0  0  0  0  0  0  0  0  0  0  0  0
   20.5139   -6.8920  -15.1555 O   0  0  0  0  0  0  0  0  0  0  0  0
   22.4639   -2.1388  -18.5355 O   0  0  0  0  0  0  0  0  0  0  0  0
   21.3336   -2.7049  -17.9669 C   0  0  0  0  0  0  0  0  0  0  0  0
   20.9586   -2.2843  -16.7079 C   0  0  0  0  0  0  0  0  0  0  0  0
   19.8224   -2.8314  -16.0979 C   0  0  0  0  0  0  0  0  0  0  0  0
   19.0938   -3.7870  -16.7698 C   0  0  0  0  0  0  0  0  0  0  0  0
   17.9099   -4.3982  -16.1814 C   0  0  0  0  0  0  0  0  0  0  0  0
   18.1870   -5.4869  -15.1716 C   0  0  2  0  0  0  0  0  0  0  0  0
   18.3670   -6.7440  -15.9187 N   0  0  0  0  0  0  0  0  0  0  0  0
   17.0024   -5.6322  -14.3042 C   0  0  0  0  0  0  0  0  0  0  0  0
   16.2994   -6.6689  -14.4082 O   0  0  0  0  0  0  0  0  0  0  0  0
   19.4851   -4.1987  -18.0361 C   0  0  0  0  0  0  0  0  0  0  0  0
   20.6151   -3.6603  -18.6532 C   0  0  0  0  0  0  0  0  0  0  0  0
   16.6286   -4.6700  -13.3720 O   0  0  0  0  0  0  0  0  0  0  0  0
  2  1  1  6
  3  2  1  0
  4  5  2  0
  4  3  1  0
  6  5  1  0
  7  6  2  0
  8  7  1  0
  8  9  2  0
  9  4  1  0
 10 11  2  0
 10  2  1  0
 12 10  1  0
 13 14  1  1
 13 12  1  0
 14 15  1  0
 15 16  2  0
 15 19  1  0
 16 17  1  0
 17 18  1  0
 19 18  2  0
 20 13  1  0
 21 20  2  0
 23 22  1  0
 23 24  2  0
 25 24  1  0
 26 25  2  0
 27 26  1  0
 28 27  1  6
 28 29  1  0
 29 20  1  0
 30 28  1  0
 30 34  1  0
 31 30  2  0
 32 33  2  0
 32 26  1  0
 33 23  1  0
M  END
$$$$
