FHY.pdb
     RDKit          3D

 34 36  0  0  1  0  0  0  0  0999 V2000
   25.2406   -8.5305  -19.5124 N   0  0  0  0  0  0  0  0  0  0  0  0
   25.2357   -8.7250  -18.0836 C   0  0  1  0  0  0  0  0  0  0  0  0
   26.0657   -7.5888  -17.4774 C   0  0  0  0  0  0  0  0  0  0  0  0
   27.5011   -7.7557  -17.7243 C   0  0  0  0  0  0  0  0  0  0  0  0
   28.1390   -8.9228  -17.3368 C   0  0  0  0  0  0  0  0  0  0  0  0
   29.4838   -9.0391  -17.5863 C   0  0  0  0  0  0  0  0  0  0  0  0
   30.2035   -8.0418  -18.2019 C   0  0  0  0  0  0  0  0  0  0  0  0
   29.5479   -6.8910  -18.5780 C   0  0  0  0  0  0  0  0  0  0  0  0
   28.2102   -6.7487  -18.3419 C   0  0  0  0  0  0  0  0  0  0  0  0
   23.8811   -8.6038  -17.4979 C   0  0  0  0  0  0  0  0  0  0  0  0
   23.0982   -7.7587  -17.9914 O   0  0  0  0  0  0  0  0  0  0  0  0
   23.3959   -9.3846  -16.4035 N   0  0  0  0  0  0  0  0  0  0  0  0
   22.0630   -9.2357  -15.8775 C   0  0  1  0  0  0  0  0  0  0  0  0
   21.5231  -10.5620  -15.4827 C   0  0  0  0  0  0  0  0  0  0  0  0
   21.1026  -11.4426  -16.5785 C   0  0  0  0  0  0  0  0  0  0  0  0
   21.0586  -11.2867  -17.9326 C   0  0  0  0  0  0  0  0  0  0  0  0
   20.6018  -12.4688  -18.4520 N   0  0  0  0  0  0  0  0  0  0  0  0
   20.3678  -13.3322  -17.4797 C   0  0  0  0  0  0  0  0  0  0  0  0
   20.6665  -12.7260  -16.3356 N   0  0  0  0  0  0  0  0  0  0  0  0
   21.9778   -8.2942  -14.7394 C   0  0  0  0  0  0  0  0  0  0  0  0
   22.7947   -8.2302  -13.7887 O   0  0  0  0  0  0  0  0  0  0  0  0
   19.9526   -2.6882  -18.8345 O   0  0  0  0  0  0  0  0  0  0  0  0
   20.3868   -3.3177  -17.6784 C   0  0  0  0  0  0  0  0  0  0  0  0
   19.7803   -2.9793  -16.4867 C   0  0  0  0  0  0  0  0  0  0  0  0
   20.1896   -3.5924  -15.2954 C   0  0  0  0  0  0  0  0  0  0  0  0
   21.1980   -4.5290  -15.3341 C   0  0  0  0  0  0  0  0  0  0  0  0
   21.6718   -5.1913  -14.1266 C   0  0  0  0  0  0  0  0  0  0  0  0
   20.8289   -6.3558  -13.6631 C   0  0  2  0  0  0  0  0  0  0  0  0
   20.8860   -7.3861  -14.7150 N   0  0  0  0  0  0  0  0  0  0  0  0
   19.4309   -5.9009  -13.5393 C   0  0  0  0  0  0  0  0  0  0  0  0
   18.5736   -6.3549  -14.3385 O   0  0  0  0  0  0  0  0  0  0  0  0
   21.7973   -4.8578  -16.5420 C   0  0  0  0  0  0  0  0  0  0  0  0
   21.3973   -4.2535  -17.7346 C   0  0  0  0  0  0  0  0  0  0  0  0
   19.0178   -4.9898  -12.5730 O   0  0  0  0  0  0  0  0  0  0  0  0
  2  1  1  6
  3  2  1  0
  4  5  2  0
  4  3  1  0
  6  5  1  0
  7  6  2  0
  8  7  1  0
  8  9  2  0
  9  4  1  0
 10 11  2  0
 10  2  1  0
 12 10  1  0
 13 14  1  1
 13 12  1  0
 14 15  1  0
 15 16  2  0
 15 19  1  0
 16 17  1  0
 17 18  1  0
 19 18  2  0
 20 13  1  0
 21 20  2  0
 23 22  1  0
 23 24  2  0
 25 24  1  0
 26 25  2  0
 27 26  1  0
 28 27  1  6
 28 29  1  0
 29 20  1  0
 30 28  1  0
 30 34  1  0
 31 30  2  0
 32 33  2  0
 32 26  1  0
 33 23  1  0
M  END
$$$$
