FHY.pdb
     RDKit          3D

 34 36  0  0  1  0  0  0  0  0999 V2000
   24.2147  -15.7621  -19.3064 N   0  0  0  0  0  0  0  0  0  0  0  0
   24.2105  -16.9788  -18.5323 C   0  0  1  0  0  0  0  0  0  0  0  0
   25.2366  -16.7950  -17.4096 C   0  0  0  0  0  0  0  0  0  0  0  0
   26.6149  -16.8046  -17.9087 C   0  0  0  0  0  0  0  0  0  0  0  0
   27.3103  -15.6141  -18.0443 C   0  0  0  0  0  0  0  0  0  0  0  0
   28.5987  -15.6669  -18.5152 C   0  0  0  0  0  0  0  0  0  0  0  0
   29.2078  -16.8535  -18.8507 C   0  0  0  0  0  0  0  0  0  0  0  0
   28.4968  -18.0237  -18.7075 C   0  0  0  0  0  0  0  0  0  0  0  0
   27.2133  -18.0004  -18.2412 C   0  0  0  0  0  0  0  0  0  0  0  0
   22.9108  -17.2248  -17.8669 C   0  0  0  0  0  0  0  0  0  0  0  0
   22.0966  -16.2750  -17.7926 O   0  0  0  0  0  0  0  0  0  0  0  0
   22.5123  -18.4743  -17.2986 N   0  0  0  0  0  0  0  0  0  0  0  0
   21.1834  -18.7055  -16.7927 C   0  0  1  0  0  0  0  0  0  0  0  0
   20.1858  -18.4903  -17.8721 C   0  0  0  0  0  0  0  0  0  0  0  0
   19.8090  -17.0972  -18.1377 C   0  0  0  0  0  0  0  0  0  0  0  0
   19.9869  -16.2737  -19.2100 C   0  0  0  0  0  0  0  0  0  0  0  0
   19.3903  -15.0814  -18.8961 N   0  0  0  0  0  0  0  0  0  0  0  0
   18.8600  -15.1429  -17.6876 C   0  0  0  0  0  0  0  0  0  0  0  0
   19.1047  -16.3595  -17.2125 N   0  0  0  0  0  0  0  0  0  0  0  0
   21.0028  -20.0471  -16.1954 C   0  0  0  0  0  0  0  0  0  0  0  0
   21.1662  -21.1364  -16.7969 O   0  0  0  0  0  0  0  0  0  0  0  0
   26.6856  -22.3132  -15.4325 O   0  0  0  0  0  0  0  0  0  0  0  0
   25.4251  -22.1425  -14.8819 C   0  0  0  0  0  0  0  0  0  0  0  0
   25.0618  -20.8777  -14.4686 C   0  0  0  0  0  0  0  0  0  0  0  0
   23.7966  -20.6625  -13.9068 C   0  0  0  0  0  0  0  0  0  0  0  0
   22.9308  -21.7248  -13.7751 C   0  0  0  0  0  0  0  0  0  0  0  0
   21.6072  -21.5631  -13.1892 C   0  0  0  0  0  0  0  0  0  0  0  0
   20.4788  -21.4318  -14.1846 C   0  0  2  0  0  0  0  0  0  0  0  0
   20.6138  -20.1147  -14.8311 N   0  0  0  0  0  0  0  0  0  0  0  0
   19.2006  -21.4545  -13.4479 C   0  0  0  0  0  0  0  0  0  0  0  0
   18.5592  -20.3818  -13.3155 O   0  0  0  0  0  0  0  0  0  0  0  0
   23.3125  -22.9909  -14.1963 C   0  0  0  0  0  0  0  0  0  0  0  0
   24.5701  -23.2166  -14.7575 C   0  0  0  0  0  0  0  0  0  0  0  0
   18.6716  -22.6149  -12.8928 O   0  0  0  0  0  0  0  0  0  0  0  0
  2  1  1  1
  3  2  1  0
  4  5  2  0
  4  3  1  0
  6  5  1  0
  7  6  2  0
  8  7  1  0
  8  9  2  0
  9  4  1  0
 10 11  2  0
 10  2  1  0
 12 10  1  0
 13 14  1  6
 13 12  1  0
 14 15  1  0
 15 16  2  0
 15 19  1  0
 16 17  1  0
 17 18  1  0
 19 18  2  0
 20 13  1  0
 21 20  2  0
 23 22  1  0
 23 24  2  0
 25 24  1  0
 26 25  2  0
 27 26  1  0
 28 27  1  1
 28 29  1  0
 29 20  1  0
 30 28  1  0
 30 34  1  0
 31 30  2  0
 32 33  2  0
 32 26  1  0
 33 23  1  0
M  END
$$$$
