FHY.pdb
     RDKit          3D

 34 36  0  0  1  0  0  0  0  0999 V2000
   25.7646  -18.4084  -20.0121 N   0  0  0  0  0  0  0  0  0  0  0  0
   25.9910  -18.2340  -18.5986 C   0  0  1  0  0  0  0  0  0  0  0  0
   25.6271  -16.7835  -18.2658 C   0  0  0  0  0  0  0  0  0  0  0  0
   26.5389  -15.8230  -18.8945 C   0  0  0  0  0  0  0  0  0  0  0  0
   26.0305  -14.7733  -19.6421 C   0  0  0  0  0  0  0  0  0  0  0  0
   26.9182  -13.8963  -20.2141 C   0  0  0  0  0  0  0  0  0  0  0  0
   28.2789  -14.0308  -20.0663 C   0  0  0  0  0  0  0  0  0  0  0  0
   28.7607  -15.0818  -19.3188 C   0  0  0  0  0  0  0  0  0  0  0  0
   27.9000  -15.9694  -18.7384 C   0  0  0  0  0  0  0  0  0  0  0  0
   25.1026  -19.0821  -17.7716 C   0  0  0  0  0  0  0  0  0  0  0  0
   23.9216  -19.2502  -18.1558 O   0  0  0  0  0  0  0  0  0  0  0  0
   25.4943  -19.7285  -16.5585 N   0  0  0  0  0  0  0  0  0  0  0  0
   24.5902  -20.5459  -15.7904 C   0  0  1  0  0  0  0  0  0  0  0  0
   25.3596  -21.4736  -14.9220 C   0  0  0  0  0  0  0  0  0  0  0  0
   24.5689  -22.3643  -14.0649 C   0  0  0  0  0  0  0  0  0  0  0  0
   23.2284  -22.5126  -13.8631 C   0  0  0  0  0  0  0  0  0  0  0  0
   23.0747  -23.5328  -12.9622 N   0  0  0  0  0  0  0  0  0  0  0  0
   24.2554  -24.0094  -12.6095 C   0  0  0  0  0  0  0  0  0  0  0  0
   25.1738  -23.3117  -13.2695 N   0  0  0  0  0  0  0  0  0  0  0  0
   23.6333  -19.7650  -14.9759 C   0  0  0  0  0  0  0  0  0  0  0  0
   23.9441  -18.8762  -14.1460 O   0  0  0  0  0  0  0  0  0  0  0  0
   16.5518  -15.2833  -12.7622 O   0  0  0  0  0  0  0  0  0  0  0  0
   17.5604  -16.0224  -13.3604 C   0  0  0  0  0  0  0  0  0  0  0  0
   18.8640  -15.6101  -13.1787 C   0  0  0  0  0  0  0  0  0  0  0  0
   19.9128  -16.3294  -13.7664 C   0  0  0  0  0  0  0  0  0  0  0  0
   19.6227  -17.4436  -14.5212 C   0  0  0  0  0  0  0  0  0  0  0  0
   20.6707  -18.2243  -15.1643 C   0  0  0  0  0  0  0  0  0  0  0  0
   21.2681  -19.3184  -14.3113 C   0  0  2  0  0  0  0  0  0  0  0  0
   22.2494  -20.0376  -15.1424 N   0  0  0  0  0  0  0  0  0  0  0  0
   20.1956  -20.2627  -13.9437 C   0  0  0  0  0  0  0  0  0  0  0  0
   19.5571  -20.0686  -12.8787 O   0  0  0  0  0  0  0  0  0  0  0  0
   18.3053  -17.8446  -14.6937 C   0  0  0  0  0  0  0  0  0  0  0  0
   17.2529  -17.1357  -14.1128 C   0  0  0  0  0  0  0  0  0  0  0  0
   19.8578  -21.3611  -14.7272 O   0  0  0  0  0  0  0  0  0  0  0  0
  2  1  1  6
  3  2  1  0
  4  5  2  0
  4  3  1  0
  6  5  1  0
  7  6  2  0
  8  7  1  0
  8  9  2  0
  9  4  1  0
 10 11  2  0
 10  2  1  0
 12 10  1  0
 13 14  1  1
 13 12  1  0
 14 15  1  0
 15 16  2  0
 15 19  1  0
 16 17  1  0
 17 18  1  0
 19 18  2  0
 20 13  1  0
 21 20  2  0
 23 22  1  0
 23 24  2  0
 25 24  1  0
 26 25  2  0
 27 26  1  0
 28 27  1  6
 28 29  1  0
 29 20  1  0
 30 28  1  0
 30 34  1  0
 31 30  2  0
 32 33  2  0
 32 26  1  0
 33 23  1  0
M  END
$$$$
