WEE.pdb
     RDKit          3D

 33 34  0  0  1  0  0  0  0  0999 V2000
   27.0098  -22.5548  -13.3687 N   0  0  0  0  0  0  0  0  0  0  0  0
   26.2112  -21.6561  -12.6207 C   0  0  1  0  0  0  0  0  0  0  0  0
   26.8349  -20.3657  -12.2185 C   0  0  0  0  0  0  0  0  0  0  0  0
   27.8401  -20.5608  -11.1695 C   0  0  0  0  0  0  0  0  0  0  0  0
   29.1660  -20.8622  -11.4132 C   0  0  0  0  0  0  0  0  0  0  0  0
   29.7609  -20.9356  -10.2170 N   0  0  0  0  0  0  0  0  0  0  0  0
   28.8706  -20.6946   -9.2332 C   0  0  0  0  0  0  0  0  0  0  0  0
   28.9681  -20.6550   -7.8551 C   0  0  0  0  0  0  0  0  0  0  0  0
   27.8620  -20.3824   -7.0949 C   0  0  0  0  0  0  0  0  0  0  0  0
   26.6247  -20.1397   -7.6514 C   0  0  0  0  0  0  0  0  0  0  0  0
   26.5195  -20.1777   -9.0319 C   0  0  0  0  0  0  0  0  0  0  0  0
   27.6343  -20.4516   -9.7998 C   0  0  0  0  0  0  0  0  0  0  0  0
   24.8719  -21.3713  -13.2058 C   0  0  0  0  0  0  0  0  0  0  0  0
   24.8336  -21.2969  -14.4490 O   0  0  0  0  0  0  0  0  0  0  0  0
   23.6895  -21.1856  -12.4920 N   0  0  0  0  0  0  0  0  0  0  0  0
   22.3979  -21.0695  -13.0448 C   0  0  1  0  0  0  0  0  0  0  0  0
   21.2320  -21.6510  -12.3425 C   0  0  0  0  0  0  0  0  0  0  0  0
   19.9772  -21.6008  -13.1443 C   0  0  0  0  0  0  0  0  0  0  0  0
   18.8870  -22.2893  -12.3783 C   0  0  0  0  0  0  0  0  0  0  0  0
   19.0546  -22.8017  -11.2563 O   0  0  0  0  0  0  0  0  0  0  0  0
   22.1949  -19.7347  -13.6260 C   0  0  0  0  0  0  0  0  0  0  0  0
   22.3152  -18.7061  -12.8676 O   0  0  0  0  0  0  0  0  0  0  0  0
   17.5983  -22.3881  -12.9070 O   0  0  0  0  0  0  0  0  0  0  0  0
   21.8730  -19.4900  -14.9736 N   0  0  0  0  0  0  0  0  0  0  0  0
   21.7696  -18.1233  -15.4406 C   0  0  1  0  0  0  0  0  0  0  0  0
   22.3546  -18.0661  -16.8180 C   0  0  0  0  0  0  0  0  0  0  0  0
   21.6122  -18.8187  -17.8609 C   0  0  0  0  0  0  0  0  0  0  0  0
   22.1630  -18.7521  -19.2189 C   0  0  0  0  0  0  0  0  0  0  0  0
   23.1253  -17.9802  -19.4603 O   0  0  0  0  0  0  0  0  0  0  0  0
   20.2997  -17.8037  -15.4641 C   0  0  0  0  0  0  0  0  0  0  0  0
   19.8419  -16.4890  -15.5404 O   0  0  0  0  0  0  0  0  0  0  0  0
   21.6737  -19.5073  -20.2739 O   0  0  0  0  0  0  0  0  0  0  0  0
   19.4287  -18.7062  -15.4157 O   0  0  0  0  0  0  0  0  0  0  0  0
  2  1  1  6
  2  3  1  0
  4  5  2  0
  4  3  1  0
  6  5  1  0
  7 12  2  0
  7  6  1  0
  8  7  1  0
  9 10  1  0
  9  8  2  0
 10 11  2  0
 11 12  1  0
 12  4  1  0
 13  2  1  0
 14 13  2  0
 15 13  1  0
 16 15  1  0
 16 17  1  1
 18 19  1  0
 18 17  1  0
 19 23  1  0
 20 19  2  0
 21 24  1  0
 21 16  1  0
 22 21  2  0
 25 24  1  0
 25 30  1  0
 25 26  1  6
 26 27  1  0
 27 28  1  0
 28 29  2  0
 30 31  1  0
 32 28  1  0
 33 30  2  0
M  END
$$$$
