WEE.pdb
     RDKit          3D

 33 34  0  0  1  0  0  0  0  0999 V2000
   25.1191    1.1178   -5.3105 N   0  0  0  0  0  0  0  0  0  0  0  0
   25.5483    1.8663   -4.1878 C   0  0  1  0  0  0  0  0  0  0  0  0
   26.3815    1.1586   -3.1773 C   0  0  0  0  0  0  0  0  0  0  0  0
   25.5709    0.2617   -2.3482 C   0  0  0  0  0  0  0  0  0  0  0  0
   24.3601   -0.2743   -2.7418 C   0  0  0  0  0  0  0  0  0  0  0  0
   23.9479   -1.0519   -1.7342 N   0  0  0  0  0  0  0  0  0  0  0  0
   24.8429   -1.0293   -0.7258 C   0  0  0  0  0  0  0  0  0  0  0  0
   24.8911   -1.6401    0.5131 C   0  0  0  0  0  0  0  0  0  0  0  0
   25.9536   -1.4185    1.3484 C   0  0  0  0  0  0  0  0  0  0  0  0
   27.0038   -0.5948    1.0050 C   0  0  0  0  0  0  0  0  0  0  0  0
   26.9624    0.0206   -0.2351 C   0  0  0  0  0  0  0  0  0  0  0  0
   25.8920   -0.2026   -1.0787 C   0  0  0  0  0  0  0  0  0  0  0  0
   26.2008    3.1649   -4.5121 C   0  0  0  0  0  0  0  0  0  0  0  0
   27.3171    3.0832   -5.0595 O   0  0  0  0  0  0  0  0  0  0  0  0
   25.6759    4.4306   -4.2581 N   0  0  0  0  0  0  0  0  0  0  0  0
   26.2973    5.6602   -4.5570 C   0  0  1  0  0  0  0  0  0  0  0  0
   25.4788    6.8447   -4.8998 C   0  0  0  0  0  0  0  0  0  0  0  0
   24.6730    6.6641   -6.1399 C   0  0  0  0  0  0  0  0  0  0  0  0
   23.4026    7.4505   -6.0089 C   0  0  0  0  0  0  0  0  0  0  0  0
   23.0947    8.0921   -4.9876 O   0  0  0  0  0  0  0  0  0  0  0  0
   27.4333    5.9055   -3.6570 C   0  0  0  0  0  0  0  0  0  0  0  0
   27.3284    5.5657   -2.4236 O   0  0  0  0  0  0  0  0  0  0  0  0
   22.4830    7.4979   -7.0588 O   0  0  0  0  0  0  0  0  0  0  0  0
   28.6499    6.4946   -4.0471 N   0  0  0  0  0  0  0  0  0  0  0  0
   29.6917    6.6890   -3.0605 C   0  0  1  0  0  0  0  0  0  0  0  0
   30.9285    6.0103   -3.5628 C   0  0  0  0  0  0  0  0  0  0  0  0
   32.1387    6.1775   -2.7185 C   0  0  0  0  0  0  0  0  0  0  0  0
   33.3939    5.6706   -3.2836 C   0  0  0  0  0  0  0  0  0  0  0  0
   33.3817    5.0890   -4.3980 O   0  0  0  0  0  0  0  0  0  0  0  0
   29.8944    8.1764   -2.9599 C   0  0  0  0  0  0  0  0  0  0  0  0
   30.6826    8.7371   -1.9558 O   0  0  0  0  0  0  0  0  0  0  0  0
   34.6189    5.7988   -2.6467 O   0  0  0  0  0  0  0  0  0  0  0  0
   29.3630    8.9700   -3.7743 O   0  0  0  0  0  0  0  0  0  0  0  0
  2  1  1  6
  2  3  1  0
  4  5  2  0
  4  3  1  0
  6  5  1  0
  7 12  2  0
  7  6  1  0
  8  7  1  0
  9 10  1  0
  9  8  2  0
 10 11  2  0
 11 12  1  0
 12  4  1  0
 13  2  1  0
 14 13  2  0
 15 13  1  0
 16 15  1  0
 16 17  1  1
 18 19  1  0
 18 17  1  0
 19 23  1  0
 20 19  2  0
 21 24  1  0
 21 16  1  0
 22 21  2  0
 25 24  1  0
 25 30  1  0
 25 26  1  6
 26 27  1  0
 27 28  1  0
 28 29  2  0
 30 31  1  0
 32 28  1  0
 33 30  2  0
M  END
$$$$
