WEE.pdb
     RDKit          3D

 33 34  0  0  1  0  0  0  0  0999 V2000
   27.7693  -20.6317  -13.7369 N   0  0  0  0  0  0  0  0  0  0  0  0
   26.8747  -21.1896  -12.7918 C   0  0  1  0  0  0  0  0  0  0  0  0
   26.6782  -20.4432  -11.5189 C   0  0  0  0  0  0  0  0  0  0  0  0
   27.7970  -20.6550  -10.5958 C   0  0  0  0  0  0  0  0  0  0  0  0
   29.0986  -20.8873  -10.9962 C   0  0  0  0  0  0  0  0  0  0  0  0
   29.8215  -21.0028   -9.8763 N   0  0  0  0  0  0  0  0  0  0  0  0
   29.0349  -20.8543   -8.7911 C   0  0  0  0  0  0  0  0  0  0  0  0
   29.2794  -20.8878   -7.4312 C   0  0  0  0  0  0  0  0  0  0  0  0
   28.2530  -20.7041   -6.5431 C   0  0  0  0  0  0  0  0  0  0  0  0
   26.9551  -20.4821   -6.9499 C   0  0  0  0  0  0  0  0  0  0  0  0
   26.7027  -20.4470   -8.3114 C   0  0  0  0  0  0  0  0  0  0  0  0
   27.7368  -20.6312   -9.2080 C   0  0  0  0  0  0  0  0  0  0  0  0
   25.5378  -21.5573  -13.3349 C   0  0  0  0  0  0  0  0  0  0  0  0
   24.9984  -20.6998  -14.0603 O   0  0  0  0  0  0  0  0  0  0  0  0
   24.8602  -22.7525  -13.1018 N   0  0  0  0  0  0  0  0  0  0  0  0
   23.6951  -23.1871  -13.7660 C   0  0  1  0  0  0  0  0  0  0  0  0
   23.4955  -24.6246  -14.0565 C   0  0  0  0  0  0  0  0  0  0  0  0
   22.2482  -24.9024  -14.8225 C   0  0  0  0  0  0  0  0  0  0  0  0
   22.1455  -26.3799  -15.0584 C   0  0  0  0  0  0  0  0  0  0  0  0
   23.0100  -27.1958  -14.6889 O   0  0  0  0  0  0  0  0  0  0  0  0
   22.5129  -22.4622  -13.2785 C   0  0  0  0  0  0  0  0  0  0  0  0
   22.4326  -22.1816  -12.0285 O   0  0  0  0  0  0  0  0  0  0  0  0
   21.0422  -26.9200  -15.7227 O   0  0  0  0  0  0  0  0  0  0  0  0
   21.4416  -22.0432  -14.0886 N   0  0  0  0  0  0  0  0  0  0  0  0
   20.3466  -21.3080  -13.4911 C   0  0  1  0  0  0  0  0  0  0  0  0
   19.8801  -20.2931  -14.4886 C   0  0  0  0  0  0  0  0  0  0  0  0
   18.6790  -19.5135  -14.0953 C   0  0  0  0  0  0  0  0  0  0  0  0
   18.1422  -18.6006  -15.1103 C   0  0  0  0  0  0  0  0  0  0  0  0
   18.5452  -18.6880  -16.2979 O   0  0  0  0  0  0  0  0  0  0  0  0
   19.2718  -22.3223  -13.2092 C   0  0  0  0  0  0  0  0  0  0  0  0
   19.3007  -23.5922  -13.7840 O   0  0  0  0  0  0  0  0  0  0  0  0
   17.1960  -17.6265  -14.8302 O   0  0  0  0  0  0  0  0  0  0  0  0
   18.3082  -22.0660  -12.4468 O   0  0  0  0  0  0  0  0  0  0  0  0
  2  1  1  6
  2  3  1  0
  4  5  2  0
  4  3  1  0
  6  5  1  0
  7 12  2  0
  7  6  1  0
  8  7  1  0
  9 10  1  0
  9  8  2  0
 10 11  2  0
 11 12  1  0
 12  4  1  0
 13  2  1  0
 14 13  2  0
 15 13  1  0
 16 15  1  0
 16 17  1  1
 18 19  1  0
 18 17  1  0
 19 23  1  0
 20 19  2  0
 21 24  1  0
 21 16  1  0
 22 21  2  0
 25 24  1  0
 25 30  1  0
 25 26  1  6
 26 27  1  0
 27 28  1  0
 28 29  2  0
 30 31  1  0
 32 28  1  0
 33 30  2  0
M  END
$$$$
