WEE.pdb
     RDKit          3D

 33 34  0  0  1  0  0  0  0  0999 V2000
   28.1862  -20.7035   -9.6469 N   0  0  0  0  0  0  0  0  0  0  0  0
   26.8722  -21.1779   -9.4166 C   0  0  1  0  0  0  0  0  0  0  0  0
   26.3413  -21.0633   -8.0305 C   0  0  0  0  0  0  0  0  0  0  0  0
   27.1131  -20.1003   -7.2395 C   0  0  0  0  0  0  0  0  0  0  0  0
   27.3155  -18.7834   -7.6042 C   0  0  0  0  0  0  0  0  0  0  0  0
   28.0381  -18.2286   -6.6243 N   0  0  0  0  0  0  0  0  0  0  0  0
   28.2993  -19.1356   -5.6611 C   0  0  0  0  0  0  0  0  0  0  0  0
   28.9935  -19.0775   -4.4674 C   0  0  0  0  0  0  0  0  0  0  0  0
   29.0987  -20.1918   -3.6781 C   0  0  0  0  0  0  0  0  0  0  0  0
   28.5317  -21.3991   -4.0251 C   0  0  0  0  0  0  0  0  0  0  0  0
   27.8343  -21.4646   -5.2201 C   0  0  0  0  0  0  0  0  0  0  0  0
   27.7268  -20.3415   -6.0166 C   0  0  0  0  0  0  0  0  0  0  0  0
   25.8439  -20.6594  -10.3606 C   0  0  0  0  0  0  0  0  0  0  0  0
   25.7049  -19.4213  -10.3763 O   0  0  0  0  0  0  0  0  0  0  0  0
   25.0456  -21.4288  -11.2047 N   0  0  0  0  0  0  0  0  0  0  0  0
   24.4330  -20.9872  -12.3951 C   0  0  1  0  0  0  0  0  0  0  0  0
   24.9863  -21.3840  -13.7093 C   0  0  0  0  0  0  0  0  0  0  0  0
   25.7015  -22.6905  -13.6763 C   0  0  0  0  0  0  0  0  0  0  0  0
   26.2554  -22.9723  -15.0413 C   0  0  0  0  0  0  0  0  0  0  0  0
   26.1607  -24.0777  -15.6058 O   0  0  0  0  0  0  0  0  0  0  0  0
   22.9684  -21.0300  -12.2777 C   0  0  0  0  0  0  0  0  0  0  0  0
   22.4370  -21.8927  -11.4896 O   0  0  0  0  0  0  0  0  0  0  0  0
   26.9213  -21.9766  -15.7591 O   0  0  0  0  0  0  0  0  0  0  0  0
   22.0854  -20.1844  -12.9738 N   0  0  0  0  0  0  0  0  0  0  0  0
   20.6577  -20.3840  -12.8377 C   0  0  1  0  0  0  0  0  0  0  0  0
   19.9704  -19.2251  -13.4914 C   0  0  0  0  0  0  0  0  0  0  0  0
   19.9129  -17.9780  -12.6872 C   0  0  0  0  0  0  0  0  0  0  0  0
   18.6558  -17.2250  -12.7546 C   0  0  0  0  0  0  0  0  0  0  0  0
   18.3881  -16.5565  -13.7851 O   0  0  0  0  0  0  0  0  0  0  0  0
   20.3490  -21.6699  -13.5550 C   0  0  0  0  0  0  0  0  0  0  0  0
   21.1840  -22.1630  -14.5568 O   0  0  0  0  0  0  0  0  0  0  0  0
   17.7259  -17.2075  -11.7262 O   0  0  0  0  0  0  0  0  0  0  0  0
   19.3295  -22.3486  -13.2806 O   0  0  0  0  0  0  0  0  0  0  0  0
  2  1  1  1
  2  3  1  0
  4  5  2  0
  4  3  1  0
  6  5  1  0
  7 12  2  0
  7  6  1  0
  8  7  1  0
  9 10  1  0
  9  8  2  0
 10 11  2  0
 11 12  1  0
 12  4  1  0
 13  2  1  0
 14 13  2  0
 15 13  1  0
 16 15  1  0
 16 17  1  6
 18 19  1  0
 18 17  1  0
 19 23  1  0
 20 19  2  0
 21 24  1  0
 21 16  1  0
 22 21  2  0
 25 24  1  0
 25 30  1  0
 25 26  1  6
 26 27  1  0
 27 28  1  0
 28 29  2  0
 30 31  1  0
 32 28  1  0
 33 30  2  0
M  END
$$$$
