WEE.pdb
     RDKit          3D

 33 34  0  0  1  0  0  0  0  0999 V2000
   26.5132  -19.3162  -10.4276 N   0  0  0  0  0  0  0  0  0  0  0  0
   25.7263  -20.4286  -10.0425 C   0  0  1  0  0  0  0  0  0  0  0  0
   25.9225  -20.9552   -8.6640 C   0  0  0  0  0  0  0  0  0  0  0  0
   27.3325  -20.9036   -8.2667 C   0  0  0  0  0  0  0  0  0  0  0  0
   28.3635  -21.4663   -8.9937 C   0  0  0  0  0  0  0  0  0  0  0  0
   29.4895  -21.1882   -8.3266 N   0  0  0  0  0  0  0  0  0  0  0  0
   29.2140  -20.4773   -7.2143 C   0  0  0  0  0  0  0  0  0  0  0  0
   29.9994  -19.9554   -6.2039 C   0  0  0  0  0  0  0  0  0  0  0  0
   29.4226  -19.2644   -5.1716 C   0  0  0  0  0  0  0  0  0  0  0  0
   28.0623  -19.0592   -5.0891 C   0  0  0  0  0  0  0  0  0  0  0  0
   27.2689  -19.5793   -6.0983 C   0  0  0  0  0  0  0  0  0  0  0  0
   27.8493  -20.2755   -7.1402 C   0  0  0  0  0  0  0  0  0  0  0  0
   24.2652  -20.2780  -10.2871 C   0  0  0  0  0  0  0  0  0  0  0  0
   23.6404  -19.6301   -9.4255 O   0  0  0  0  0  0  0  0  0  0  0  0
   23.5601  -20.7911  -11.3741 N   0  0  0  0  0  0  0  0  0  0  0  0
   22.1933  -20.5814  -11.6482 C   0  0  1  0  0  0  0  0  0  0  0  0
   21.7688  -20.0682  -12.9700 C   0  0  0  0  0  0  0  0  0  0  0  0
   22.8305  -19.2901  -13.6677 C   0  0  0  0  0  0  0  0  0  0  0  0
   22.3042  -18.8405  -14.9981 C   0  0  0  0  0  0  0  0  0  0  0  0
   21.1913  -19.1746  -15.4446 O   0  0  0  0  0  0  0  0  0  0  0  0
   21.3745  -21.6668  -11.0896 C   0  0  0  0  0  0  0  0  0  0  0  0
   21.8184  -22.8697  -11.1511 O   0  0  0  0  0  0  0  0  0  0  0  0
   23.0631  -18.0025  -15.8179 O   0  0  0  0  0  0  0  0  0  0  0  0
   20.1185  -21.4890  -10.4812 N   0  0  0  0  0  0  0  0  0  0  0  0
   19.3854  -22.6481  -10.0168 C   0  0  1  0  0  0  0  0  0  0  0  0
   18.9951  -22.4008   -8.5923 C   0  0  0  0  0  0  0  0  0  0  0  0
   18.1745  -23.4643   -7.9591 C   0  0  0  0  0  0  0  0  0  0  0  0
   18.8636  -24.3145   -6.9823 C   0  0  0  0  0  0  0  0  0  0  0  0
   19.8429  -23.8547   -6.3420 O   0  0  0  0  0  0  0  0  0  0  0  0
   18.1715  -22.7514  -10.8995 C   0  0  0  0  0  0  0  0  0  0  0  0
   17.4308  -23.9297  -10.9833 O   0  0  0  0  0  0  0  0  0  0  0  0
   18.4895  -25.6234   -6.7183 O   0  0  0  0  0  0  0  0  0  0  0  0
   17.7783  -21.7830  -11.5944 O   0  0  0  0  0  0  0  0  0  0  0  0
  2  1  1  1
  2  3  1  0
  4  5  2  0
  4  3  1  0
  6  5  1  0
  7 12  2  0
  7  6  1  0
  8  7  1  0
  9 10  1  0
  9  8  2  0
 10 11  2  0
 11 12  1  0
 12  4  1  0
 13  2  1  0
 14 13  2  0
 15 13  1  0
 16 15  1  0
 16 17  1  6
 18 19  1  0
 18 17  1  0
 19 23  1  0
 20 19  2  0
 21 24  1  0
 21 16  1  0
 22 21  2  0
 25 24  1  0
 25 30  1  0
 25 26  1  1
 26 27  1  0
 27 28  1  0
 28 29  2  0
 30 31  1  0
 32 28  1  0
 33 30  2  0
M  END
$$$$
