WEE.pdb
     RDKit          3D

 33 34  0  0  1  0  0  0  0  0999 V2000
   25.4771  -11.9689  -17.6211 N   0  0  0  0  0  0  0  0  0  0  0  0
   24.2210  -11.9730  -16.9676 C   0  0  1  0  0  0  0  0  0  0  0  0
   24.1993  -12.3917  -15.5391 C   0  0  0  0  0  0  0  0  0  0  0  0
   24.6677  -13.7714  -15.3785 C   0  0  0  0  0  0  0  0  0  0  0  0
   25.9455  -14.1146  -14.9814 C   0  0  0  0  0  0  0  0  0  0  0  0
   25.9766  -15.4512  -14.9286 N   0  0  0  0  0  0  0  0  0  0  0  0
   24.7781  -15.9636  -15.2742 C   0  0  0  0  0  0  0  0  0  0  0  0
   24.2943  -17.2537  -15.3828 C   0  0  0  0  0  0  0  0  0  0  0  0
   22.9995  -17.4723  -15.7721 C   0  0  0  0  0  0  0  0  0  0  0  0
   22.1334  -16.4421  -16.0686 C   0  0  0  0  0  0  0  0  0  0  0  0
   22.6114  -15.1465  -15.9618 C   0  0  0  0  0  0  0  0  0  0  0  0
   23.9165  -14.9246  -15.5685 C   0  0  0  0  0  0  0  0  0  0  0  0
   23.4400  -10.7123  -17.1021 C   0  0  0  0  0  0  0  0  0  0  0  0
   24.0817   -9.6606  -16.9162 O   0  0  0  0  0  0  0  0  0  0  0  0
   22.0843  -10.6183  -17.4106 N   0  0  0  0  0  0  0  0  0  0  0  0
   21.3509   -9.4243  -17.5649 C   0  0  1  0  0  0  0  0  0  0  0  0
   20.3154   -9.3167  -18.6169 C   0  0  0  0  0  0  0  0  0  0  0  0
   18.9323   -9.5274  -18.1047 C   0  0  0  0  0  0  0  0  0  0  0  0
   17.9710   -9.4169  -19.2506 C   0  0  0  0  0  0  0  0  0  0  0  0
   16.7344   -9.3952  -19.1095 O   0  0  0  0  0  0  0  0  0  0  0  0
   20.9968   -8.8543  -16.2571 C   0  0  0  0  0  0  0  0  0  0  0  0
   20.4039   -9.6014  -15.3980 O   0  0  0  0  0  0  0  0  0  0  0  0
   18.4361   -9.3310  -20.5645 O   0  0  0  0  0  0  0  0  0  0  0  0
   21.2609   -7.5295  -15.8643 N   0  0  0  0  0  0  0  0  0  0  0  0
   20.8479   -7.0842  -14.5499 C   0  0  1  0  0  0  0  0  0  0  0  0
   21.6403   -5.8590  -14.2130 C   0  0  0  0  0  0  0  0  0  0  0  0
   21.2993   -4.6415  -14.9919 C   0  0  0  0  0  0  0  0  0  0  0  0
   22.0284   -3.4206  -14.6318 C   0  0  0  0  0  0  0  0  0  0  0  0
   21.4113   -2.3275  -14.5631 O   0  0  0  0  0  0  0  0  0  0  0  0
   19.3818   -6.7657  -14.6622 C   0  0  0  0  0  0  0  0  0  0  0  0
   18.6002   -6.5276  -13.5325 O   0  0  0  0  0  0  0  0  0  0  0  0
   23.3873   -3.4019  -14.3565 O   0  0  0  0  0  0  0  0  0  0  0  0
   18.8052   -6.7018  -15.7752 O   0  0  0  0  0  0  0  0  0  0  0  0
  2  1  1  1
  2  3  1  0
  4  5  2  0
  4  3  1  0
  6  5  1  0
  7 12  2  0
  7  6  1  0
  8  7  1  0
  9 10  1  0
  9  8  2  0
 10 11  2  0
 11 12  1  0
 12  4  1  0
 13  2  1  0
 14 13  2  0
 15 13  1  0
 16 15  1  0
 16 17  1  6
 18 19  1  0
 18 17  1  0
 19 23  1  0
 20 19  2  0
 21 24  1  0
 21 16  1  0
 22 21  2  0
 25 24  1  0
 25 30  1  0
 25 26  1  6
 26 27  1  0
 27 28  1  0
 28 29  2  0
 30 31  1  0
 32 28  1  0
 33 30  2  0
M  END
$$$$
