WEE.pdb
     RDKit          3D

 33 34  0  0  1  0  0  0  0  0999 V2000
   26.0397  -19.6988  -18.1705 N   0  0  0  0  0  0  0  0  0  0  0  0
   26.0260  -19.0405  -16.9170 C   0  0  1  0  0  0  0  0  0  0  0  0
   25.8257  -17.5654  -16.9260 C   0  0  0  0  0  0  0  0  0  0  0  0
   26.8968  -16.8842  -17.6591 C   0  0  0  0  0  0  0  0  0  0  0  0
   26.6841  -16.0151  -18.7116 C   0  0  0  0  0  0  0  0  0  0  0  0
   27.8920  -15.5852  -19.0942 N   0  0  0  0  0  0  0  0  0  0  0  0
   28.8536  -16.1439  -18.3315 C   0  0  0  0  0  0  0  0  0  0  0  0
   30.2317  -16.0400  -18.3165 C   0  0  0  0  0  0  0  0  0  0  0  0
   30.9652  -16.7513  -17.4045 C   0  0  0  0  0  0  0  0  0  0  0  0
   30.3811  -17.5871  -16.4773 C   0  0  0  0  0  0  0  0  0  0  0  0
   29.0004  -17.6961  -16.4864 C   0  0  0  0  0  0  0  0  0  0  0  0
   28.2594  -16.9788  -17.4049 C   0  0  0  0  0  0  0  0  0  0  0  0
   25.1086  -19.6356  -15.9063 C   0  0  0  0  0  0  0  0  0  0  0  0
   24.1761  -20.3225  -16.3658 O   0  0  0  0  0  0  0  0  0  0  0  0
   25.2074  -19.4884  -14.5240 N   0  0  0  0  0  0  0  0  0  0  0  0
   24.3826  -20.1091  -13.5640 C   0  0  1  0  0  0  0  0  0  0  0  0
   24.8660  -20.3000  -12.1781 C   0  0  0  0  0  0  0  0  0  0  0  0
   23.9173  -21.0689  -11.3247 C   0  0  0  0  0  0  0  0  0  0  0  0
   24.5191  -21.2330   -9.9608 C   0  0  0  0  0  0  0  0  0  0  0  0
   25.5407  -21.9084   -9.7380 O   0  0  0  0  0  0  0  0  0  0  0  0
   22.9899  -19.6590  -13.7001 C   0  0  0  0  0  0  0  0  0  0  0  0
   22.7240  -18.4145  -13.5316 O   0  0  0  0  0  0  0  0  0  0  0  0
   23.9415  -20.6166   -8.8488 O   0  0  0  0  0  0  0  0  0  0  0  0
   21.9042  -20.4996  -14.0061 N   0  0  0  0  0  0  0  0  0  0  0  0
   20.5853  -19.9239  -14.1669 C   0  0  1  0  0  0  0  0  0  0  0  0
   19.6685  -21.0085  -14.6420 C   0  0  0  0  0  0  0  0  0  0  0  0
   19.2758  -22.0095  -13.6178 C   0  0  0  0  0  0  0  0  0  0  0  0
   18.4784  -23.1436  -14.0974 C   0  0  0  0  0  0  0  0  0  0  0  0
   18.2151  -23.2421  -15.3227 O   0  0  0  0  0  0  0  0  0  0  0  0
   20.1795  -19.4315  -12.8044 C   0  0  0  0  0  0  0  0  0  0  0  0
   20.8131  -19.8851  -11.6482 O   0  0  0  0  0  0  0  0  0  0  0  0
   17.9882  -24.1342  -13.2601 O   0  0  0  0  0  0  0  0  0  0  0  0
   19.2561  -18.5946  -12.6548 O   0  0  0  0  0  0  0  0  0  0  0  0
  2  1  1  6
  2  3  1  0
  4  5  2  0
  4  3  1  0
  6  5  1  0
  7 12  2  0
  7  6  1  0
  8  7  1  0
  9 10  1  0
  9  8  2  0
 10 11  2  0
 11 12  1  0
 12  4  1  0
 13  2  1  0
 14 13  2  0
 15 13  1  0
 16 15  1  0
 16 17  1  1
 18 19  1  0
 18 17  1  0
 19 23  1  0
 20 19  2  0
 21 24  1  0
 21 16  1  0
 22 21  2  0
 25 24  1  0
 25 30  1  0
 25 26  1  1
 26 27  1  0
 27 28  1  0
 28 29  2  0
 30 31  1  0
 32 28  1  0
 33 30  2  0
M  END
$$$$
