WEE.pdb
     RDKit          3D

 33 34  0  0  1  0  0  0  0  0999 V2000
   25.9423  -18.6919   -8.8075 N   0  0  0  0  0  0  0  0  0  0  0  0
   26.3386  -19.8892   -9.4511 C   0  0  1  0  0  0  0  0  0  0  0  0
   26.2962  -21.1402   -8.6453 C   0  0  0  0  0  0  0  0  0  0  0  0
   26.4628  -20.8621   -7.2157 C   0  0  0  0  0  0  0  0  0  0  0  0
   25.4675  -21.0297   -6.2726 C   0  0  0  0  0  0  0  0  0  0  0  0
   26.0074  -20.7001   -5.0936 N   0  0  0  0  0  0  0  0  0  0  0  0
   27.2953  -20.3330   -5.2521 C   0  0  0  0  0  0  0  0  0  0  0  0
   28.2750  -19.9086   -4.3744 C   0  0  0  0  0  0  0  0  0  0  0  0
   29.5238  -19.5914   -4.8388 C   0  0  0  0  0  0  0  0  0  0  0  0
   29.8597  -19.6768   -6.1727 C   0  0  0  0  0  0  0  0  0  0  0  0
   28.8828  -20.1016   -7.0580 C   0  0  0  0  0  0  0  0  0  0  0  0
   27.6234  -20.4226   -6.5910 C   0  0  0  0  0  0  0  0  0  0  0  0
   25.6755  -20.1472  -10.7591 C   0  0  0  0  0  0  0  0  0  0  0  0
   24.4910  -19.7700  -10.8444 O   0  0  0  0  0  0  0  0  0  0  0  0
   26.2590  -20.7612  -11.8657 N   0  0  0  0  0  0  0  0  0  0  0  0
   25.7327  -20.7845  -13.1733 C   0  0  1  0  0  0  0  0  0  0  0  0
   26.6212  -20.5717  -14.3378 C   0  0  0  0  0  0  0  0  0  0  0  0
   27.7603  -21.5304  -14.3917 C   0  0  0  0  0  0  0  0  0  0  0  0
   28.5758  -21.2429  -15.6171 C   0  0  0  0  0  0  0  0  0  0  0  0
   29.6066  -21.8721  -15.9189 O   0  0  0  0  0  0  0  0  0  0  0  0
   24.7336  -21.8531  -13.3169 C   0  0  0  0  0  0  0  0  0  0  0  0
   24.6565  -22.7530  -12.4049 O   0  0  0  0  0  0  0  0  0  0  0  0
   28.2024  -20.2262  -16.4986 O   0  0  0  0  0  0  0  0  0  0  0  0
   23.8377  -21.9703  -14.3954 N   0  0  0  0  0  0  0  0  0  0  0  0
   22.4229  -22.1233  -14.1280 C   0  0  1  0  0  0  0  0  0  0  0  0
   21.9819  -20.9455  -13.3151 C   0  0  0  0  0  0  0  0  0  0  0  0
   20.9851  -21.2370  -12.2536 C   0  0  0  0  0  0  0  0  0  0  0  0
   19.9956  -20.1860  -11.9925 C   0  0  0  0  0  0  0  0  0  0  0  0
   19.2078  -20.3042  -11.0199 O   0  0  0  0  0  0  0  0  0  0  0  0
   21.7465  -22.1362  -15.4718 C   0  0  0  0  0  0  0  0  0  0  0  0
   21.2343  -23.3125  -16.0175 O   0  0  0  0  0  0  0  0  0  0  0  0
   19.8763  -19.0457  -12.7723 O   0  0  0  0  0  0  0  0  0  0  0  0
   21.6168  -21.0905  -16.1537 O   0  0  0  0  0  0  0  0  0  0  0  0
  2  1  1  1
  2  3  1  0
  4  5  2  0
  4  3  1  0
  6  5  1  0
  7 12  2  0
  7  6  1  0
  8  7  1  0
  9 10  1  0
  9  8  2  0
 10 11  2  0
 11 12  1  0
 12  4  1  0
 13  2  1  0
 14 13  2  0
 15 13  1  0
 16 15  1  0
 16 17  1  6
 18 19  1  0
 18 17  1  0
 19 23  1  0
 20 19  2  0
 21 24  1  0
 21 16  1  0
 22 21  2  0
 25 24  1  0
 25 30  1  0
 25 26  1  1
 26 27  1  0
 27 28  1  0
 28 29  2  0
 30 31  1  0
 32 28  1  0
 33 30  2  0
M  END
$$$$
