WEE.pdb
     RDKit          3D

 33 34  0  0  1  0  0  0  0  0999 V2000
   25.9786  -11.1255  -19.0014 N   0  0  0  0  0  0  0  0  0  0  0  0
   25.6332  -10.9417  -17.6406 C   0  0  1  0  0  0  0  0  0  0  0  0
   26.7181  -10.5125  -16.7160 C   0  0  0  0  0  0  0  0  0  0  0  0
   27.8125  -11.4873  -16.6856 C   0  0  0  0  0  0  0  0  0  0  0  0
   29.0858  -11.2379  -17.1595 C   0  0  0  0  0  0  0  0  0  0  0  0
   29.7953  -12.3497  -16.9344 N   0  0  0  0  0  0  0  0  0  0  0  0
   29.0270  -13.2860  -16.3415 C   0  0  0  0  0  0  0  0  0  0  0  0
   29.2682  -14.5775  -15.9125 C   0  0  0  0  0  0  0  0  0  0  0  0
   28.2645  -15.3093  -15.3354 C   0  0  0  0  0  0  0  0  0  0  0  0
   26.9932  -14.8077  -15.1574 C   0  0  0  0  0  0  0  0  0  0  0  0
   26.7444  -13.5139  -15.5848 C   0  0  0  0  0  0  0  0  0  0  0  0
   27.7557  -12.7747  -16.1661 C   0  0  0  0  0  0  0  0  0  0  0  0
   24.4438  -10.0768  -17.4069 C   0  0  0  0  0  0  0  0  0  0  0  0
   24.4379   -8.9937  -18.0227 O   0  0  0  0  0  0  0  0  0  0  0  0
   23.3658  -10.3748  -16.5756 N   0  0  0  0  0  0  0  0  0  0  0  0
   22.1821   -9.6193  -16.4514 C   0  0  1  0  0  0  0  0  0  0  0  0
   20.8801  -10.2991  -16.2686 C   0  0  0  0  0  0  0  0  0  0  0  0
   20.7324  -10.9373  -14.9305 C   0  0  0  0  0  0  0  0  0  0  0  0
   19.6502  -11.9729  -15.0063 C   0  0  0  0  0  0  0  0  0  0  0  0
   19.8738  -13.1940  -15.0990 O   0  0  0  0  0  0  0  0  0  0  0  0
   22.4054   -8.4289  -15.6186 C   0  0  0  0  0  0  0  0  0  0  0  0
   23.3130   -8.4710  -14.7119 O   0  0  0  0  0  0  0  0  0  0  0  0
   18.3047  -11.6004  -14.9753 O   0  0  0  0  0  0  0  0  0  0  0  0
   21.6896   -7.2236  -15.7382 N   0  0  0  0  0  0  0  0  0  0  0  0
   22.0205   -6.1135  -14.8694 C   0  0  1  0  0  0  0  0  0  0  0  0
   21.7785   -4.8483  -15.6330 C   0  0  0  0  0  0  0  0  0  0  0  0
   22.0647   -3.5909  -14.8966 C   0  0  0  0  0  0  0  0  0  0  0  0
   21.7670   -2.3441  -15.6098 C   0  0  0  0  0  0  0  0  0  0  0  0
   21.3476   -2.3923  -16.7939 O   0  0  0  0  0  0  0  0  0  0  0  0
   21.0919   -6.2192  -13.6904 C   0  0  0  0  0  0  0  0  0  0  0  0
   21.4148   -5.6552  -12.4570 O   0  0  0  0  0  0  0  0  0  0  0  0
   21.9244   -1.0890  -15.0417 O   0  0  0  0  0  0  0  0  0  0  0  0
   19.9919   -6.8183  -13.7703 O   0  0  0  0  0  0  0  0  0  0  0  0
  2  1  1  6
  2  3  1  0
  4  5  2  0
  4  3  1  0
  6  5  1  0
  7 12  2  0
  7  6  1  0
  8  7  1  0
  9 10  1  0
  9  8  2  0
 10 11  2  0
 11 12  1  0
 12  4  1  0
 13  2  1  0
 14 13  2  0
 15 13  1  0
 16 15  1  0
 16 17  1  1
 18 19  1  0
 18 17  1  0
 19 23  1  0
 20 19  2  0
 21 24  1  0
 21 16  1  0
 22 21  2  0
 25 24  1  0
 25 30  1  0
 25 26  1  6
 26 27  1  0
 27 28  1  0
 28 29  2  0
 30 31  1  0
 32 28  1  0
 33 30  2  0
M  END
$$$$
