WEE.pdb
     RDKit          3D

 33 34  0  0  1  0  0  0  0  0999 V2000
   25.6142  -10.3507  -18.8208 N   0  0  0  0  0  0  0  0  0  0  0  0
   25.4033  -10.1370  -17.4370 C   0  0  1  0  0  0  0  0  0  0  0  0
   26.5630   -9.6513  -16.6399 C   0  0  0  0  0  0  0  0  0  0  0  0
   27.7104  -10.5559  -16.7580 C   0  0  0  0  0  0  0  0  0  0  0  0
   28.9573  -10.1708  -17.2111 C   0  0  0  0  0  0  0  0  0  0  0  0
   29.7324  -11.2597  -17.1498 N   0  0  0  0  0  0  0  0  0  0  0  0
   29.0306  -12.3109  -16.6797 C   0  0  0  0  0  0  0  0  0  0  0  0
   29.3526  -13.6323  -16.4345 C   0  0  0  0  0  0  0  0  0  0  0  0
   28.4040  -14.4927  -15.9489 C   0  0  0  0  0  0  0  0  0  0  0  0
   27.1109  -14.0948  -15.6864 C   0  0  0  0  0  0  0  0  0  0  0  0
   26.7811  -12.7717  -15.9297 C   0  0  0  0  0  0  0  0  0  0  0  0
   27.7368  -11.9029  -16.4185 C   0  0  0  0  0  0  0  0  0  0  0  0
   24.2181   -9.2989  -17.1055 C   0  0  0  0  0  0  0  0  0  0  0  0
   24.0520   -8.2950  -17.8246 O   0  0  0  0  0  0  0  0  0  0  0  0
   23.3046   -9.5416  -16.0815 N   0  0  0  0  0  0  0  0  0  0  0  0
   22.1522   -8.7793  -15.8017 C   0  0  1  0  0  0  0  0  0  0  0  0
   20.9863   -9.4069  -15.1402 C   0  0  0  0  0  0  0  0  0  0  0  0
   20.6123  -10.7223  -15.7312 C   0  0  0  0  0  0  0  0  0  0  0  0
   19.4586  -11.2885  -14.9580 C   0  0  0  0  0  0  0  0  0  0  0  0
   19.4768  -11.4601  -13.7252 O   0  0  0  0  0  0  0  0  0  0  0  0
   22.5150   -7.4380  -15.3223 C   0  0  0  0  0  0  0  0  0  0  0  0
   23.5841   -7.2995  -14.6254 O   0  0  0  0  0  0  0  0  0  0  0  0
   18.2792  -11.6587  -15.6075 O   0  0  0  0  0  0  0  0  0  0  0  0
   21.7694   -6.2711  -15.5711 N   0  0  0  0  0  0  0  0  0  0  0  0
   22.2634   -4.9982  -15.0892 C   0  0  1  0  0  0  0  0  0  0  0  0
   21.6372   -3.9213  -15.9203 C   0  0  0  0  0  0  0  0  0  0  0  0
   22.0406   -3.8988  -17.3493 C   0  0  0  0  0  0  0  0  0  0  0  0
   21.0879   -3.2815  -18.2784 C   0  0  0  0  0  0  0  0  0  0  0  0
   19.9911   -2.8471  -17.8439 O   0  0  0  0  0  0  0  0  0  0  0  0
   21.8220   -4.8990  -13.6543 C   0  0  0  0  0  0  0  0  0  0  0  0
   22.2254   -3.8414  -12.8403 O   0  0  0  0  0  0  0  0  0  0  0  0
   21.3321   -3.1463  -19.6366 O   0  0  0  0  0  0  0  0  0  0  0  0
   21.0746   -5.7628  -13.1341 O   0  0  0  0  0  0  0  0  0  0  0  0
  2  1  1  6
  2  3  1  0
  4  5  2  0
  4  3  1  0
  6  5  1  0
  7 12  2  0
  7  6  1  0
  8  7  1  0
  9 10  1  0
  9  8  2  0
 10 11  2  0
 11 12  1  0
 12  4  1  0
 13  2  1  0
 14 13  2  0
 15 13  1  0
 16 15  1  0
 16 17  1  1
 18 19  1  0
 18 17  1  0
 19 23  1  0
 20 19  2  0
 21 24  1  0
 21 16  1  0
 22 21  2  0
 25 24  1  0
 25 30  1  0
 25 26  1  6
 26 27  1  0
 27 28  1  0
 28 29  2  0
 30 31  1  0
 32 28  1  0
 33 30  2  0
M  END
$$$$
