WEE.pdb
     RDKit          3D

 33 34  0  0  1  0  0  0  0  0999 V2000
   28.0336  -21.9613  -14.0860 N   0  0  0  0  0  0  0  0  0  0  0  0
   27.0553  -21.5997  -13.1284 C   0  0  1  0  0  0  0  0  0  0  0  0
   27.3034  -20.3636  -12.3367 C   0  0  0  0  0  0  0  0  0  0  0  0
   28.2556  -20.6065  -11.2491 C   0  0  0  0  0  0  0  0  0  0  0  0
   29.6274  -20.6262  -11.4102 C   0  0  0  0  0  0  0  0  0  0  0  0
   30.1453  -20.8506  -10.1971 N   0  0  0  0  0  0  0  0  0  0  0  0
   29.1629  -20.9731   -9.2815 C   0  0  0  0  0  0  0  0  0  0  0  0
   29.1602  -21.2092   -7.9197 C   0  0  0  0  0  0  0  0  0  0  0  0
   27.9750  -21.2897   -7.2379 C   0  0  0  0  0  0  0  0  0  0  0  0
   26.7538  -21.1433   -7.8597 C   0  0  0  0  0  0  0  0  0  0  0  0
   26.7489  -20.9062   -9.2243 C   0  0  0  0  0  0  0  0  0  0  0  0
   27.9432  -20.8239   -9.9128 C   0  0  0  0  0  0  0  0  0  0  0  0
   25.6588  -21.5583  -13.6435 C   0  0  0  0  0  0  0  0  0  0  0  0
   25.4969  -20.9289  -14.7066 O   0  0  0  0  0  0  0  0  0  0  0  0
   24.5482  -22.1516  -13.0464 N   0  0  0  0  0  0  0  0  0  0  0  0
   23.2795  -22.3175  -13.6381 C   0  0  1  0  0  0  0  0  0  0  0  0
   22.5797  -23.6186  -13.5477 C   0  0  0  0  0  0  0  0  0  0  0  0
   23.4201  -24.7700  -13.9809 C   0  0  0  0  0  0  0  0  0  0  0  0
   23.4448  -24.8127  -15.4798 C   0  0  0  0  0  0  0  0  0  0  0  0
   22.6743  -24.1495  -16.1982 O   0  0  0  0  0  0  0  0  0  0  0  0
   22.4447  -21.1256  -13.4305 C   0  0  0  0  0  0  0  0  0  0  0  0
   22.5295  -20.4993  -12.3132 O   0  0  0  0  0  0  0  0  0  0  0  0
   24.3608  -25.6229  -16.1541 O   0  0  0  0  0  0  0  0  0  0  0  0
   21.5425  -20.6066  -14.3770 N   0  0  0  0  0  0  0  0  0  0  0  0
   20.7297  -19.4604  -14.0272 C   0  0  1  0  0  0  0  0  0  0  0  0
   20.2239  -18.8540  -15.2997 C   0  0  0  0  0  0  0  0  0  0  0  0
   19.2800  -17.7191  -15.1375 C   0  0  0  0  0  0  0  0  0  0  0  0
   18.6647  -17.2115  -16.3686 C   0  0  0  0  0  0  0  0  0  0  0  0
   19.3067  -16.4154  -17.0997 O   0  0  0  0  0  0  0  0  0  0  0  0
   19.5958  -19.9952  -13.1954 C   0  0  0  0  0  0  0  0  0  0  0  0
   19.0014  -19.2267  -12.1954 O   0  0  0  0  0  0  0  0  0  0  0  0
   17.3895  -17.5664  -16.7815 O   0  0  0  0  0  0  0  0  0  0  0  0
   19.1409  -21.1521  -13.3683 O   0  0  0  0  0  0  0  0  0  0  0  0
  2  1  1  6
  2  3  1  0
  4  5  2  0
  4  3  1  0
  6  5  1  0
  7 12  2  0
  7  6  1  0
  8  7  1  0
  9 10  1  0
  9  8  2  0
 10 11  2  0
 11 12  1  0
 12  4  1  0
 13  2  1  0
 14 13  2  0
 15 13  1  0
 16 15  1  0
 16 17  1  1
 18 19  1  0
 18 17  1  0
 19 23  1  0
 20 19  2  0
 21 24  1  0
 21 16  1  0
 22 21  2  0
 25 24  1  0
 25 30  1  0
 25 26  1  6
 26 27  1  0
 27 28  1  0
 28 29  2  0
 30 31  1  0
 32 28  1  0
 33 30  2  0
M  END
$$$$
