WEE.pdb
     RDKit          3D

 33 34  0  0  1  0  0  0  0  0999 V2000
   24.3481  -16.1545  -18.2970 N   0  0  0  0  0  0  0  0  0  0  0  0
   24.1647  -16.5141  -16.9398 C   0  0  1  0  0  0  0  0  0  0  0  0
   23.4127  -15.5600  -16.0794 C   0  0  0  0  0  0  0  0  0  0  0  0
   23.9825  -14.2112  -16.1508 C   0  0  0  0  0  0  0  0  0  0  0  0
   23.2937  -13.1019  -16.6014 C   0  0  0  0  0  0  0  0  0  0  0  0
   24.1346  -12.0670  -16.4916 N   0  0  0  0  0  0  0  0  0  0  0  0
   25.3196  -12.4744  -15.9934 C   0  0  0  0  0  0  0  0  0  0  0  0
   26.4994  -11.8184  -15.6972 C   0  0  0  0  0  0  0  0  0  0  0  0
   27.5658  -12.5148  -15.1934 C   0  0  0  0  0  0  0  0  0  0  0  0
   27.5184  -13.8725  -14.9616 C   0  0  0  0  0  0  0  0  0  0  0  0
   26.3390  -14.5365  -15.2559 C   0  0  0  0  0  0  0  0  0  0  0  0
   25.2627  -13.8354  -15.7632 C   0  0  0  0  0  0  0  0  0  0  0  0
   23.6148  -17.8807  -16.7220 C   0  0  0  0  0  0  0  0  0  0  0  0
   22.6915  -18.2166  -17.4883 O   0  0  0  0  0  0  0  0  0  0  0  0
   24.0395  -18.7892  -15.7544 N   0  0  0  0  0  0  0  0  0  0  0  0
   23.6023  -20.1229  -15.6220 C   0  0  1  0  0  0  0  0  0  0  0  0
   24.5868  -21.2258  -15.5492 C   0  0  0  0  0  0  0  0  0  0  0  0
   25.9177  -20.7936  -15.0381 C   0  0  0  0  0  0  0  0  0  0  0  0
   26.9520  -21.7822  -15.4880 C   0  0  0  0  0  0  0  0  0  0  0  0
   26.7026  -22.7421  -16.2403 O   0  0  0  0  0  0  0  0  0  0  0  0
   22.4698  -20.2129  -14.6894 C   0  0  0  0  0  0  0  0  0  0  0  0
   22.2544  -19.2372  -13.8836 O   0  0  0  0  0  0  0  0  0  0  0  0
   28.2791  -21.6646  -15.0696 O   0  0  0  0  0  0  0  0  0  0  0  0
   21.5858  -21.3044  -14.6079 N   0  0  0  0  0  0  0  0  0  0  0  0
   20.4282  -21.2158  -13.7427 C   0  0  1  0  0  0  0  0  0  0  0  0
   19.5323  -20.1463  -14.2870 C   0  0  0  0  0  0  0  0  0  0  0  0
   18.1988  -20.0383  -13.6423 C   0  0  0  0  0  0  0  0  0  0  0  0
   18.0164  -18.9091  -12.7239 C   0  0  0  0  0  0  0  0  0  0  0  0
   18.4934  -17.7847  -13.0215 O   0  0  0  0  0  0  0  0  0  0  0  0
   19.7609  -22.5628  -13.8044 C   0  0  0  0  0  0  0  0  0  0  0  0
   19.9990  -23.4452  -14.8573 O   0  0  0  0  0  0  0  0  0  0  0  0
   17.3337  -19.0120  -11.5214 O   0  0  0  0  0  0  0  0  0  0  0  0
   18.9649  -22.9449  -12.9124 O   0  0  0  0  0  0  0  0  0  0  0  0
  2  1  1  6
  2  3  1  0
  4  5  2  0
  4  3  1  0
  6  5  1  0
  7 12  2  0
  7  6  1  0
  8  7  1  0
  9 10  1  0
  9  8  2  0
 10 11  2  0
 11 12  1  0
 12  4  1  0
 13  2  1  0
 14 13  2  0
 15 13  1  0
 16 15  1  0
 16 17  1  1
 18 19  1  0
 18 17  1  0
 19 23  1  0
 20 19  2  0
 21 24  1  0
 21 16  1  0
 22 21  2  0
 25 24  1  0
 25 30  1  0
 25 26  1  6
 26 27  1  0
 27 28  1  0
 28 29  2  0
 30 31  1  0
 32 28  1  0
 33 30  2  0
M  END
$$$$
