WEE.pdb
     RDKit          3D

 33 34  0  0  1  0  0  0  0  0999 V2000
   26.3016  -18.8417   -9.8136 N   0  0  0  0  0  0  0  0  0  0  0  0
   26.6842  -20.1253  -10.2728 C   0  0  1  0  0  0  0  0  0  0  0  0
   26.5814  -21.2519   -9.3051 C   0  0  0  0  0  0  0  0  0  0  0  0
   26.7369  -20.7869   -7.9236 C   0  0  0  0  0  0  0  0  0  0  0  0
   25.6823  -20.4767   -7.0871 C   0  0  0  0  0  0  0  0  0  0  0  0
   26.2232  -20.1203   -5.9164 N   0  0  0  0  0  0  0  0  0  0  0  0
   27.5684  -20.1918   -5.9785 C   0  0  0  0  0  0  0  0  0  0  0  0
   28.5746  -19.9325   -5.0673 C   0  0  0  0  0  0  0  0  0  0  0  0
   29.8864  -20.0934   -5.4267 C   0  0  0  0  0  0  0  0  0  0  0  0
   30.2614  -20.5119   -6.6851 C   0  0  0  0  0  0  0  0  0  0  0  0
   29.2582  -20.7739   -7.6036 C   0  0  0  0  0  0  0  0  0  0  0  0
   27.9351  -20.6128   -7.2421 C   0  0  0  0  0  0  0  0  0  0  0  0
   26.0553  -20.5456  -11.5554 C   0  0  0  0  0  0  0  0  0  0  0  0
   24.9165  -20.0882  -11.7705 O   0  0  0  0  0  0  0  0  0  0  0  0
   26.6243  -21.3880  -12.5086 N   0  0  0  0  0  0  0  0  0  0  0  0
   26.3027  -21.4228  -13.8807 C   0  0  1  0  0  0  0  0  0  0  0  0
   27.3678  -21.6123  -14.8909 C   0  0  0  0  0  0  0  0  0  0  0  0
   27.9745  -20.3326  -15.3533 C   0  0  0  0  0  0  0  0  0  0  0  0
   27.3009  -19.9106  -16.6251 C   0  0  0  0  0  0  0  0  0  0  0  0
   26.5842  -18.8971  -16.7188 O   0  0  0  0  0  0  0  0  0  0  0  0
   25.0620  -22.1772  -14.1091 C   0  0  0  0  0  0  0  0  0  0  0  0
   25.0076  -23.4040  -13.7354 O   0  0  0  0  0  0  0  0  0  0  0  0
   27.4532  -20.6594  -17.7940 O   0  0  0  0  0  0  0  0  0  0  0  0
   23.9069  -21.6516  -14.7164 N   0  0  0  0  0  0  0  0  0  0  0  0
   22.6865  -22.4307  -14.7113 C   0  0  1  0  0  0  0  0  0  0  0  0
   21.5372  -21.4779  -14.5930 C   0  0  0  0  0  0  0  0  0  0  0  0
   20.1868  -22.0877  -14.6930 C   0  0  0  0  0  0  0  0  0  0  0  0
   19.0536  -21.1581  -14.6310 C   0  0  0  0  0  0  0  0  0  0  0  0
   18.8275  -20.5265  -13.5678 O   0  0  0  0  0  0  0  0  0  0  0  0
   22.6531  -23.1568  -16.0285 C   0  0  0  0  0  0  0  0  0  0  0  0
   23.0145  -22.5245  -17.2174 O   0  0  0  0  0  0  0  0  0  0  0  0
   18.1997  -20.9307  -15.6995 O   0  0  0  0  0  0  0  0  0  0  0  0
   22.2991  -24.3583  -16.1094 O   0  0  0  0  0  0  0  0  0  0  0  0
  2  1  1  1
  2  3  1  0
  4  5  2  0
  4  3  1  0
  6  5  1  0
  7 12  2  0
  7  6  1  0
  8  7  1  0
  9 10  1  0
  9  8  2  0
 10 11  2  0
 11 12  1  0
 12  4  1  0
 13  2  1  0
 14 13  2  0
 15 13  1  0
 16 15  1  0
 16 17  1  6
 18 19  1  0
 18 17  1  0
 19 23  1  0
 20 19  2  0
 21 24  1  0
 21 16  1  0
 22 21  2  0
 25 24  1  0
 25 30  1  0
 25 26  1  6
 26 27  1  0
 27 28  1  0
 28 29  2  0
 30 31  1  0
 32 28  1  0
 33 30  2  0
M  END
$$$$
