WEE.pdb
     RDKit          3D

 33 34  0  0  1  0  0  0  0  0999 V2000
   25.4838  -18.5354  -10.3525 N   0  0  0  0  0  0  0  0  0  0  0  0
   26.1566  -19.7409  -10.6671 C   0  0  1  0  0  0  0  0  0  0  0  0
   25.9241  -20.9038   -9.7674 C   0  0  0  0  0  0  0  0  0  0  0  0
   26.1755  -20.5552   -8.3659 C   0  0  0  0  0  0  0  0  0  0  0  0
   25.1820  -20.3018   -7.4402 C   0  0  0  0  0  0  0  0  0  0  0  0
   25.8028  -20.0488   -6.2823 N   0  0  0  0  0  0  0  0  0  0  0  0
   27.1398  -20.1311   -6.4374 C   0  0  0  0  0  0  0  0  0  0  0  0
   28.2065  -19.9591   -5.5756 C   0  0  0  0  0  0  0  0  0  0  0  0
   29.4896  -20.1058   -6.0316 C   0  0  0  0  0  0  0  0  0  0  0  0
   29.7762  -20.4246   -7.3414 C   0  0  0  0  0  0  0  0  0  0  0  0
   28.7120  -20.5986   -8.2108 C   0  0  0  0  0  0  0  0  0  0  0  0
   27.4176  -20.4517   -7.7521 C   0  0  0  0  0  0  0  0  0  0  0  0
   26.0021  -20.1958  -12.0766 C   0  0  0  0  0  0  0  0  0  0  0  0
   24.8734  -20.0240  -12.5757 O   0  0  0  0  0  0  0  0  0  0  0  0
   26.9933  -20.7833  -12.8603 N   0  0  0  0  0  0  0  0  0  0  0  0
   26.9860  -20.8842  -14.2664 C   0  0  1  0  0  0  0  0  0  0  0  0
   28.2566  -21.0445  -15.0084 C   0  0  0  0  0  0  0  0  0  0  0  0
   28.0649  -21.1920  -16.4785 C   0  0  0  0  0  0  0  0  0  0  0  0
   28.9284  -22.3165  -16.9676 C   0  0  0  0  0  0  0  0  0  0  0  0
   28.6197  -23.0540  -17.9217 O   0  0  0  0  0  0  0  0  0  0  0  0
   25.8664  -21.7184  -14.7260 C   0  0  0  0  0  0  0  0  0  0  0  0
   25.9139  -22.9843  -14.5188 O   0  0  0  0  0  0  0  0  0  0  0  0
   30.1526  -22.5927  -16.3550 O   0  0  0  0  0  0  0  0  0  0  0  0
   24.7249  -21.2306  -15.3879 N   0  0  0  0  0  0  0  0  0  0  0  0
   23.6142  -22.1253  -15.6382 C   0  0  1  0  0  0  0  0  0  0  0  0
   23.0216  -22.4987  -14.3146 C   0  0  0  0  0  0  0  0  0  0  0  0
   22.2300  -21.4358  -13.6444 C   0  0  0  0  0  0  0  0  0  0  0  0
   20.8913  -21.8217  -13.1853 C   0  0  0  0  0  0  0  0  0  0  0  0
   20.2028  -21.0033  -12.5246 O   0  0  0  0  0  0  0  0  0  0  0  0
   22.6324  -21.3444  -16.4688 C   0  0  0  0  0  0  0  0  0  0  0  0
   21.5415  -21.9625  -17.0785 O   0  0  0  0  0  0  0  0  0  0  0  0
   20.3293  -23.0627  -13.4433 O   0  0  0  0  0  0  0  0  0  0  0  0
   22.7564  -20.1080  -16.6457 O   0  0  0  0  0  0  0  0  0  0  0  0
  2  1  1  1
  2  3  1  0
  4  5  2  0
  4  3  1  0
  6  5  1  0
  7 12  2  0
  7  6  1  0
  8  7  1  0
  9 10  1  0
  9  8  2  0
 10 11  2  0
 11 12  1  0
 12  4  1  0
 13  2  1  0
 14 13  2  0
 15 13  1  0
 16 15  1  0
 16 17  1  1
 18 19  1  0
 18 17  1  0
 19 23  1  0
 20 19  2  0
 21 24  1  0
 21 16  1  0
 22 21  2  0
 25 24  1  0
 25 30  1  0
 25 26  1  1
 26 27  1  0
 27 28  1  0
 28 29  2  0
 30 31  1  0
 32 28  1  0
 33 30  2  0
M  END
$$$$
