PFS.pdb
     RDKit          3D

 25 26  0  0  1  0  0  0  0  0999 V2000
    7.7014  -15.2911   19.0095 N   0  0  0  0  0  0  0  0  0  0  0  0
    7.5252  -15.0058   17.5976 C   0  0  0  0  0  0  0  0  0  0  0  0
    8.0793  -13.6436   17.3382 C   0  0  0  0  0  0  0  0  0  0  0  0
    8.4264  -13.1355   18.7228 C   0  0  0  0  0  0  0  0  0  0  0  0
    8.7867  -14.4508   19.4046 C   0  0  1  0  0  0  0  0  0  0  0  0
    8.9523  -14.3088   20.8478 C   0  0  0  0  0  0  0  0  0  0  0  0
   10.0553  -13.8887   21.2805 O   0  0  0  0  0  0  0  0  0  0  0  0
    7.9449  -14.6154   21.7989 N   0  0  0  0  0  0  0  0  0  0  0  0
    8.0926  -14.2420   23.1882 C   0  0  1  0  0  0  0  0  0  0  0  0
    6.8442  -13.6141   23.7466 C   0  0  0  0  0  0  0  0  0  0  0  0
    6.9719  -13.2420   25.1739 C   0  0  0  0  0  0  0  0  0  0  0  0
    7.7317  -12.1149   25.4614 C   0  0  0  0  0  0  0  0  0  0  0  0
    7.9029  -11.6961   26.7700 C   0  0  0  0  0  0  0  0  0  0  0  0
    7.3221  -12.3911   27.8094 C   0  0  0  0  0  0  0  0  0  0  0  0
    6.5666  -13.5144   27.5053 C   0  0  0  0  0  0  0  0  0  0  0  0
    6.4054  -13.9173   26.2075 C   0  0  0  0  0  0  0  0  0  0  0  0
    8.3237  -15.5054   23.9493 C   0  0  0  0  0  0  0  0  0  0  0  0
    7.4460  -16.4036   23.8708 O   0  0  0  0  0  0  0  0  0  0  0  0
   11.8876  -17.0008   24.5319 O   0  0  0  0  0  0  0  0  0  0  0  0
   10.7664  -17.8017   24.5987 C   0  0  0  0  0  0  0  0  0  0  0  0
    9.6610  -17.0582   25.3219 C   0  0  2  0  0  0  0  0  0  0  0  0
    9.4763  -15.7286   24.7448 N   0  0  0  0  0  0  0  0  0  0  0  0
    9.9554  -16.8898   26.7558 C   0  0  0  0  0  0  0  0  0  0  0  0
   10.0556  -15.7538   27.2811 O   0  0  0  0  0  0  0  0  0  0  0  0
   10.1297  -18.0252   27.5620 O   0  0  0  0  0  0  0  0  0  0  0  0
  1  2  1  0
  3  2  1  0
  4  5  1  0
  4  3  1  0
  5  6  1  1
  5  1  1  0
  6  7  2  0
  8  6  1  0
  8  9  1  0
  9 17  1  0
 10 11  1  0
  9 10  1  1
 11 16  1  0
 12 11  2  0
 12 13  1  0
 13 14  2  0
 14 15  1  0
 16 15  2  0
 17 18  2  0
 19 20  1  0
 21 20  1  6
 21 23  1  0
 22 21  1  0
 22 17  1  0
 23 24  2  0
 23 25  1  0
M  END
$$$$
