PFS.pdb
     RDKit          3D

 25 26  0  0  1  0  0  0  0  0999 V2000
    7.6289  -15.1727   19.6111 N   0  0  0  0  0  0  0  0  0  0  0  0
    7.3296  -14.6302   18.2989 C   0  0  0  0  0  0  0  0  0  0  0  0
    7.6971  -13.1829   18.3126 C   0  0  0  0  0  0  0  0  0  0  0  0
    8.0681  -12.9277   19.7594 C   0  0  0  0  0  0  0  0  0  0  0  0
    8.6277  -14.2957   20.1341 C   0  0  1  0  0  0  0  0  0  0  0  0
    8.8669  -14.4316   21.5674 C   0  0  0  0  0  0  0  0  0  0  0  0
    9.9462  -13.9871   22.0342 O   0  0  0  0  0  0  0  0  0  0  0  0
    7.9565  -15.0355   22.4730 N   0  0  0  0  0  0  0  0  0  0  0  0
    8.1788  -14.9814   23.9010 C   0  0  1  0  0  0  0  0  0  0  0  0
    6.8909  -14.9362   24.6781 C   0  0  0  0  0  0  0  0  0  0  0  0
    6.8451  -13.8280   25.6587 C   0  0  0  0  0  0  0  0  0  0  0  0
    7.6625  -13.9466   26.7759 C   0  0  0  0  0  0  0  0  0  0  0  0
    7.6815  -12.9557   27.7429 C   0  0  0  0  0  0  0  0  0  0  0  0
    6.8893  -11.8349   27.6127 C   0  0  0  0  0  0  0  0  0  0  0  0
    6.0789  -11.7319   26.4912 C   0  0  0  0  0  0  0  0  0  0  0  0
    6.0698  -12.7185   25.5431 C   0  0  0  0  0  0  0  0  0  0  0  0
    8.8701  -16.2505   24.2754 C   0  0  0  0  0  0  0  0  0  0  0  0
    8.3163  -17.3340   23.9549 O   0  0  0  0  0  0  0  0  0  0  0  0
   12.8147  -16.5443   25.0283 O   0  0  0  0  0  0  0  0  0  0  0  0
   12.1007  -17.6647   24.6570 C   0  0  0  0  0  0  0  0  0  0  0  0
   10.7044  -17.5866   25.2416 C   0  0  2  0  0  0  0  0  0  0  0  0
   10.1075  -16.2815   24.9676 N   0  0  0  0  0  0  0  0  0  0  0  0
   10.7056  -17.7835   26.7019 C   0  0  0  0  0  0  0  0  0  0  0  0
   10.2693  -16.9067   27.4875 O   0  0  0  0  0  0  0  0  0  0  0  0
   11.2062  -18.9809   27.2359 O   0  0  0  0  0  0  0  0  0  0  0  0
  1  2  1  0
  3  2  1  0
  4  5  1  0
  4  3  1  0
  5  6  1  1
  5  1  1  0
  6  7  2  0
  8  6  1  0
  8  9  1  0
  9 17  1  0
 10 11  1  0
  9 10  1  1
 11 16  1  0
 12 11  2  0
 12 13  1  0
 13 14  2  0
 14 15  1  0
 16 15  2  0
 17 18  2  0
 19 20  1  0
 21 20  1  1
 21 23  1  0
 22 21  1  0
 22 17  1  0
 23 24  2  0
 23 25  1  0
M  END
$$$$
