PFS.pdb
     RDKit          3D

 25 26  0  0  1  0  0  0  0  0999 V2000
    7.5651  -15.3186   19.1702 N   0  0  0  0  0  0  0  0  0  0  0  0
    7.2986  -14.9395   17.7951 C   0  0  0  0  0  0  0  0  0  0  0  0
    7.7505  -13.5271   17.6190 C   0  0  0  0  0  0  0  0  0  0  0  0
    8.1354  -13.1033   19.0219 C   0  0  0  0  0  0  0  0  0  0  0  0
    8.6135  -14.4393   19.5800 C   0  0  1  0  0  0  0  0  0  0  0  0
    8.8437  -14.3965   21.0206 C   0  0  0  0  0  0  0  0  0  0  0  0
    9.9548  -13.9762   21.4322 O   0  0  0  0  0  0  0  0  0  0  0  0
    7.8911  -14.8001   21.9917 N   0  0  0  0  0  0  0  0  0  0  0  0
    8.1013  -14.5350   23.3977 C   0  0  1  0  0  0  0  0  0  0  0  0
    6.8090  -14.3135   24.1364 C   0  0  0  0  0  0  0  0  0  0  0  0
    6.9873  -13.5715   25.4051 C   0  0  0  0  0  0  0  0  0  0  0  0
    7.3223  -14.3202   26.5265 C   0  0  0  0  0  0  0  0  0  0  0  0
    7.5079  -13.7062   27.7535 C   0  0  0  0  0  0  0  0  0  0  0  0
    7.3632  -12.3411   27.8825 C   0  0  0  0  0  0  0  0  0  0  0  0
    7.0285  -11.6080   26.7531 C   0  0  0  0  0  0  0  0  0  0  0  0
    6.8480  -12.2276   25.5464 C   0  0  0  0  0  0  0  0  0  0  0  0
    8.7299  -15.7596   23.9754 C   0  0  0  0  0  0  0  0  0  0  0  0
    8.2105  -16.8708   23.6949 O   0  0  0  0  0  0  0  0  0  0  0  0
   12.5703  -18.1548   25.1118 O   0  0  0  0  0  0  0  0  0  0  0  0
   11.9783  -16.9616   24.7529 C   0  0  0  0  0  0  0  0  0  0  0  0
   10.5164  -16.9864   25.1529 C   0  0  2  0  0  0  0  0  0  0  0  0
    9.8721  -15.7194   24.8150 N   0  0  0  0  0  0  0  0  0  0  0  0
   10.3437  -17.2077   26.5995 C   0  0  0  0  0  0  0  0  0  0  0  0
    9.8078  -16.3474   27.3405 O   0  0  0  0  0  0  0  0  0  0  0  0
   10.7877  -18.4101   27.1711 O   0  0  0  0  0  0  0  0  0  0  0  0
  1  2  1  0
  3  2  1  0
  4  5  1  0
  4  3  1  0
  5  6  1  1
  5  1  1  0
  6  7  2  0
  8  6  1  0
  8  9  1  0
  9 17  1  0
 10 11  1  0
  9 10  1  1
 11 16  1  0
 12 11  2  0
 12 13  1  0
 13 14  2  0
 14 15  1  0
 16 15  2  0
 17 18  2  0
 19 20  1  0
 21 20  1  1
 21 23  1  0
 22 21  1  0
 22 17  1  0
 23 24  2  0
 23 25  1  0
M  END
$$$$
