PFS.pdb
     RDKit          3D

 25 26  0  0  1  0  0  0  0  0999 V2000
    7.1904  -14.9232   20.1348 N   0  0  0  0  0  0  0  0  0  0  0  0
    6.7629  -14.2403   18.9278 C   0  0  0  0  0  0  0  0  0  0  0  0
    7.4005  -12.8899   18.9216 C   0  0  0  0  0  0  0  0  0  0  0  0
    8.0769  -12.8139   20.2753 C   0  0  0  0  0  0  0  0  0  0  0  0
    8.4201  -14.2850   20.4824 C   0  0  1  0  0  0  0  0  0  0  0  0
    8.8911  -14.5672   21.8347 C   0  0  0  0  0  0  0  0  0  0  0  0
   10.0527  -14.2021   22.1473 O   0  0  0  0  0  0  0  0  0  0  0  0
    8.1199  -15.2299   22.8246 N   0  0  0  0  0  0  0  0  0  0  0  0
    8.5691  -15.2985   24.1976 C   0  0  1  0  0  0  0  0  0  0  0  0
    7.4266  -15.2438   25.1755 C   0  0  0  0  0  0  0  0  0  0  0  0
    7.2041  -13.8895   25.7306 C   0  0  0  0  0  0  0  0  0  0  0  0
    5.8997  -13.4114   25.7108 C   0  0  0  0  0  0  0  0  0  0  0  0
    5.6028  -12.1545   26.2100 C   0  0  0  0  0  0  0  0  0  0  0  0
    6.5970  -11.3566   26.7351 C   0  0  0  0  0  0  0  0  0  0  0  0
    7.8942  -11.8489   26.7474 C   0  0  0  0  0  0  0  0  0  0  0  0
    8.1738  -13.0929   26.2507 C   0  0  0  0  0  0  0  0  0  0  0  0
    9.2259  -16.6282   24.3676 C   0  0  0  0  0  0  0  0  0  0  0  0
    8.5188  -17.6551   24.1979 O   0  0  0  0  0  0  0  0  0  0  0  0
   13.2827  -17.1996   25.0354 O   0  0  0  0  0  0  0  0  0  0  0  0
   12.5643  -18.1953   24.4067 C   0  0  0  0  0  0  0  0  0  0  0  0
   11.1185  -18.1321   24.8576 C   0  0  2  0  0  0  0  0  0  0  0  0
   10.5947  -16.7764   24.7076 N   0  0  0  0  0  0  0  0  0  0  0  0
   10.9633  -18.5210   26.2704 C   0  0  0  0  0  0  0  0  0  0  0  0
   10.5102  -17.7251   27.1292 O   0  0  0  0  0  0  0  0  0  0  0  0
   11.3299  -19.8142   26.6740 O   0  0  0  0  0  0  0  0  0  0  0  0
  1  2  1  0
  3  2  1  0
  4  5  1  0
  4  3  1  0
  5  6  1  1
  5  1  1  0
  6  7  2  0
  8  6  1  0
  8  9  1  0
  9 17  1  0
 10 11  1  0
  9 10  1  1
 11 16  1  0
 12 11  2  0
 12 13  1  0
 13 14  2  0
 14 15  1  0
 16 15  2  0
 17 18  2  0
 19 20  1  0
 21 20  1  1
 21 23  1  0
 22 21  1  0
 22 17  1  0
 23 24  2  0
 23 25  1  0
M  END
$$$$
