PFS.pdb
     RDKit          3D

 25 26  0  0  1  0  0  0  0  0999 V2000
    7.7773  -15.2657   19.3319 N   0  0  0  0  0  0  0  0  0  0  0  0
    7.4967  -14.8364   17.9744 C   0  0  0  0  0  0  0  0  0  0  0  0
    7.7824  -13.3729   17.8940 C   0  0  0  0  0  0  0  0  0  0  0  0
    8.0854  -12.9941   19.3295 C   0  0  0  0  0  0  0  0  0  0  0  0
    8.7060  -14.2971   19.8214 C   0  0  1  0  0  0  0  0  0  0  0  0
    8.8995  -14.3163   21.2679 C   0  0  0  0  0  0  0  0  0  0  0  0
    9.9657  -13.8374   21.7309 O   0  0  0  0  0  0  0  0  0  0  0  0
    7.9585  -14.8427   22.1904 N   0  0  0  0  0  0  0  0  0  0  0  0
    8.1428  -14.6840   23.6160 C   0  0  1  0  0  0  0  0  0  0  0  0
    6.8452  -14.4303   24.3347 C   0  0  0  0  0  0  0  0  0  0  0  0
    7.0088  -13.5980   25.5481 C   0  0  0  0  0  0  0  0  0  0  0  0
    7.7584  -14.1417   26.5839 C   0  0  0  0  0  0  0  0  0  0  0  0
    7.9612  -13.4311   27.7548 C   0  0  0  0  0  0  0  0  0  0  0  0
    7.4224  -12.1718   27.9120 C   0  0  0  0  0  0  0  0  0  0  0  0
    6.6764  -11.6433   26.8683 C   0  0  0  0  0  0  0  0  0  0  0  0
    6.4837  -12.3565   25.7164 C   0  0  0  0  0  0  0  0  0  0  0  0
    8.6778  -15.9811   24.1259 C   0  0  0  0  0  0  0  0  0  0  0  0
    7.9993  -17.0184   23.9098 O   0  0  0  0  0  0  0  0  0  0  0  0
   12.5698  -16.6219   24.8738 O   0  0  0  0  0  0  0  0  0  0  0  0
   11.7379  -17.6863   24.5947 C   0  0  0  0  0  0  0  0  0  0  0  0
   10.3699  -17.4243   25.1925 C   0  0  2  0  0  0  0  0  0  0  0  0
    9.9023  -16.0874   24.8335 N   0  0  0  0  0  0  0  0  0  0  0  0
   10.3832  -17.5169   26.6630 C   0  0  0  0  0  0  0  0  0  0  0  0
   10.0799  -16.5389   27.3897 O   0  0  0  0  0  0  0  0  0  0  0  0
   10.7434  -18.7276   27.2746 O   0  0  0  0  0  0  0  0  0  0  0  0
  1  2  1  0
  3  2  1  0
  4  5  1  0
  4  3  1  0
  5  6  1  1
  5  1  1  0
  6  7  2  0
  8  6  1  0
  8  9  1  0
  9 17  1  0
 10 11  1  0
  9 10  1  1
 11 16  1  0
 12 11  2  0
 12 13  1  0
 13 14  2  0
 14 15  1  0
 16 15  2  0
 17 18  2  0
 19 20  1  0
 21 20  1  1
 21 23  1  0
 22 21  1  0
 22 17  1  0
 23 24  2  0
 23 25  1  0
M  END
$$$$
