PFS.pdb
     RDKit          3D

 25 26  0  0  1  0  0  0  0  0999 V2000
    7.6915  -15.2486   18.9936 N   0  0  0  0  0  0  0  0  0  0  0  0
    7.4820  -14.9388   17.5915 C   0  0  0  0  0  0  0  0  0  0  0  0
    7.9896  -13.5549   17.3526 C   0  0  0  0  0  0  0  0  0  0  0  0
    8.3454  -13.0660   18.7419 C   0  0  0  0  0  0  0  0  0  0  0  0
    8.7575  -14.3838   19.3886 C   0  0  1  0  0  0  0  0  0  0  0  0
    8.9440  -14.2677   20.8315 C   0  0  0  0  0  0  0  0  0  0  0  0
   10.0509  -13.8489   21.2555 O   0  0  0  0  0  0  0  0  0  0  0  0
    7.9528  -14.5980   21.7918 N   0  0  0  0  0  0  0  0  0  0  0  0
    8.1107  -14.2329   23.1822 C   0  0  1  0  0  0  0  0  0  0  0  0
    6.8716  -13.5941   23.7490 C   0  0  0  0  0  0  0  0  0  0  0  0
    7.0250  -13.1891   25.1647 C   0  0  0  0  0  0  0  0  0  0  0  0
    6.3893  -13.9794   26.1143 C   0  0  0  0  0  0  0  0  0  0  0  0
    6.4807  -13.6724   27.4613 C   0  0  0  0  0  0  0  0  0  0  0  0
    7.2045  -12.5771   27.8825 C   0  0  0  0  0  0  0  0  0  0  0  0
    7.8333  -11.7983   26.9216 C   0  0  0  0  0  0  0  0  0  0  0  0
    7.7347  -12.1131   25.5935 C   0  0  0  0  0  0  0  0  0  0  0  0
    8.3312  -15.5024   23.9362 C   0  0  0  0  0  0  0  0  0  0  0  0
    7.4641  -16.4072   23.8231 O   0  0  0  0  0  0  0  0  0  0  0  0
   11.8003  -16.9324   24.4361 O   0  0  0  0  0  0  0  0  0  0  0  0
   10.7544  -17.7995   24.6750 C   0  0  0  0  0  0  0  0  0  0  0  0
    9.6261  -17.0497   25.3548 C   0  0  2  0  0  0  0  0  0  0  0  0
    9.4625  -15.7243   24.7620 N   0  0  0  0  0  0  0  0  0  0  0  0
    9.8721  -16.8708   26.7966 C   0  0  0  0  0  0  0  0  0  0  0  0
    9.8774  -15.7344   27.3303 O   0  0  0  0  0  0  0  0  0  0  0  0
   10.1077  -17.9965   27.6009 O   0  0  0  0  0  0  0  0  0  0  0  0
  1  2  1  0
  3  2  1  0
  4  5  1  0
  4  3  1  0
  5  6  1  1
  5  1  1  0
  6  7  2  0
  8  6  1  0
  8  9  1  0
  9 17  1  0
 10 11  1  0
  9 10  1  1
 11 16  1  0
 12 11  2  0
 12 13  1  0
 13 14  2  0
 14 15  1  0
 16 15  2  0
 17 18  2  0
 19 20  1  0
 21 20  1  6
 21 23  1  0
 22 21  1  0
 22 17  1  0
 23 24  2  0
 23 25  1  0
M  END
$$$$
