PFS.pdb
     RDKit          3D

 25 26  0  0  1  0  0  0  0  0999 V2000
    7.0905  -15.4737   20.3865 N   0  0  0  0  0  0  0  0  0  0  0  0
    6.4998  -15.0392   19.1342 C   0  0  0  0  0  0  0  0  0  0  0  0
    7.0664  -13.6967   18.8079 C   0  0  0  0  0  0  0  0  0  0  0  0
    7.8837  -13.3516   20.0362 C   0  0  0  0  0  0  0  0  0  0  0  0
    8.3186  -14.7485   20.4655 C   0  0  1  0  0  0  0  0  0  0  0  0
    8.9491  -14.7611   21.7817 C   0  0  0  0  0  0  0  0  0  0  0  0
   10.1401  -14.3689   21.8735 O   0  0  0  0  0  0  0  0  0  0  0  0
    8.3029  -15.1891   22.9703 N   0  0  0  0  0  0  0  0  0  0  0  0
    8.8951  -14.9513   24.2681 C   0  0  1  0  0  0  0  0  0  0  0  0
    7.8735  -14.5472   25.2965 C   0  0  0  0  0  0  0  0  0  0  0  0
    8.4733  -14.2126   26.6080 C   0  0  0  0  0  0  0  0  0  0  0  0
    8.4469  -12.8758   26.9857 C   0  0  0  0  0  0  0  0  0  0  0  0
    8.9860  -12.4754   28.1965 C   0  0  0  0  0  0  0  0  0  0  0  0
    9.5581  -13.3971   29.0475 C   0  0  0  0  0  0  0  0  0  0  0  0
    9.5764  -14.7279   28.6554 C   0  0  0  0  0  0  0  0  0  0  0  0
    9.0400  -15.1100   27.4559 C   0  0  0  0  0  0  0  0  0  0  0  0
    9.4770  -16.2504   24.7181 C   0  0  0  0  0  0  0  0  0  0  0  0
    8.7061  -17.2423   24.7897 O   0  0  0  0  0  0  0  0  0  0  0  0
   13.5165  -16.9795   24.9067 O   0  0  0  0  0  0  0  0  0  0  0  0
   12.6409  -18.0082   24.6273 C   0  0  0  0  0  0  0  0  0  0  0  0
   11.3276  -17.7573   25.3412 C   0  0  2  0  0  0  0  0  0  0  0  0
   10.8438  -16.4070   25.0625 N   0  0  0  0  0  0  0  0  0  0  0  0
   11.4582  -17.8961   26.8023 C   0  0  0  0  0  0  0  0  0  0  0  0
   11.1781  -16.9540   27.5835 O   0  0  0  0  0  0  0  0  0  0  0  0
   11.9070  -19.1113   27.3422 O   0  0  0  0  0  0  0  0  0  0  0  0
  1  2  1  0
  3  2  1  0
  4  5  1  0
  4  3  1  0
  5  6  1  1
  5  1  1  0
  6  7  2  0
  8  6  1  0
  8  9  1  0
  9 17  1  0
 10 11  1  0
  9 10  1  1
 11 16  1  0
 12 11  2  0
 12 13  1  0
 13 14  2  0
 14 15  1  0
 16 15  2  0
 17 18  2  0
 19 20  1  0
 21 20  1  6
 21 23  1  0
 22 21  1  0
 22 17  1  0
 23 24  2  0
 23 25  1  0
M  END
$$$$
