PFS.pdb
     RDKit          3D

 25 26  0  0  1  0  0  0  0  0999 V2000
    7.7018  -15.2281   19.1159 N   0  0  0  0  0  0  0  0  0  0  0  0
    7.5135  -14.9037   17.7141 C   0  0  0  0  0  0  0  0  0  0  0  0
    8.0748  -13.5388   17.4857 C   0  0  0  0  0  0  0  0  0  0  0  0
    8.4396  -13.0706   18.8798 C   0  0  0  0  0  0  0  0  0  0  0  0
    8.7971  -14.4063   19.5223 C   0  0  1  0  0  0  0  0  0  0  0  0
    8.9782  -14.3043   20.9670 C   0  0  0  0  0  0  0  0  0  0  0  0
   10.1015  -13.9429   21.4007 O   0  0  0  0  0  0  0  0  0  0  0  0
    7.9645  -14.5878   21.9186 N   0  0  0  0  0  0  0  0  0  0  0  0
    8.1319  -14.2401   23.3124 C   0  0  1  0  0  0  0  0  0  0  0  0
    6.9064  -13.5835   23.8883 C   0  0  0  0  0  0  0  0  0  0  0  0
    7.0722  -13.1910   25.3061 C   0  0  0  0  0  0  0  0  0  0  0  0
    6.2106  -13.7797   26.2234 C   0  0  0  0  0  0  0  0  0  0  0  0
    6.2965  -13.4692   27.5700 C   0  0  0  0  0  0  0  0  0  0  0  0
    7.2388  -12.5704   28.0227 C   0  0  0  0  0  0  0  0  0  0  0  0
    8.0915  -11.9914   27.0938 C   0  0  0  0  0  0  0  0  0  0  0  0
    7.9957  -12.3073   25.7658 C   0  0  0  0  0  0  0  0  0  0  0  0
    8.3295  -15.5212   24.0529 C   0  0  0  0  0  0  0  0  0  0  0  0
    7.3993  -16.3676   24.0144 O   0  0  0  0  0  0  0  0  0  0  0  0
   11.7850  -17.2370   24.4212 O   0  0  0  0  0  0  0  0  0  0  0  0
   10.6381  -17.9782   24.6164 C   0  0  0  0  0  0  0  0  0  0  0  0
    9.6267  -17.1462   25.3795 C   0  0  2  0  0  0  0  0  0  0  0  0
    9.5067  -15.8163   24.7865 N   0  0  0  0  0  0  0  0  0  0  0  0
   10.0058  -16.9763   26.7932 C   0  0  0  0  0  0  0  0  0  0  0  0
   10.1608  -15.8400   27.3041 O   0  0  0  0  0  0  0  0  0  0  0  0
   10.2006  -18.1108   27.5962 O   0  0  0  0  0  0  0  0  0  0  0  0
  1  2  1  0
  3  2  1  0
  4  5  1  0
  4  3  1  0
  5  6  1  1
  5  1  1  0
  6  7  2  0
  8  6  1  0
  8  9  1  0
  9 17  1  0
 10 11  1  0
  9 10  1  1
 11 16  1  0
 12 11  2  0
 12 13  1  0
 13 14  2  0
 14 15  1  0
 16 15  2  0
 17 18  2  0
 19 20  1  0
 21 20  1  6
 21 23  1  0
 22 21  1  0
 22 17  1  0
 23 24  2  0
 23 25  1  0
M  END
$$$$
