PFS.pdb
     RDKit          3D

 25 26  0  0  1  0  0  0  0  0999 V2000
    7.2976  -14.9205   20.3338 N   0  0  0  0  0  0  0  0  0  0  0  0
    6.9714  -14.2028   19.1155 C   0  0  0  0  0  0  0  0  0  0  0  0
    7.7172  -12.9093   19.1384 C   0  0  0  0  0  0  0  0  0  0  0  0
    8.3483  -12.8913   20.5158 C   0  0  0  0  0  0  0  0  0  0  0  0
    8.5621  -14.3859   20.7283 C   0  0  1  0  0  0  0  0  0  0  0  0
    8.9592  -14.7081   22.0953 C   0  0  0  0  0  0  0  0  0  0  0  0
   10.1611  -14.5348   22.4210 O   0  0  0  0  0  0  0  0  0  0  0  0
    8.0735  -15.2065   23.0855 N   0  0  0  0  0  0  0  0  0  0  0  0
    8.4751  -15.2876   24.4724 C   0  0  1  0  0  0  0  0  0  0  0  0
    7.3155  -15.1058   25.4142 C   0  0  0  0  0  0  0  0  0  0  0  0
    7.1240  -13.6984   25.8316 C   0  0  0  0  0  0  0  0  0  0  0  0
    5.8278  -13.2007   25.7794 C   0  0  0  0  0  0  0  0  0  0  0  0
    5.5595  -11.8945   26.1521 C   0  0  0  0  0  0  0  0  0  0  0  0
    6.5745  -11.0661   26.5813 C   0  0  0  0  0  0  0  0  0  0  0  0
    7.8631  -11.5784   26.6276 C   0  0  0  0  0  0  0  0  0  0  0  0
    8.1144  -12.8713   26.2563 C   0  0  0  0  0  0  0  0  0  0  0  0
    8.9989  -16.6690   24.6867 C   0  0  0  0  0  0  0  0  0  0  0  0
    8.2309  -17.6317   24.4285 O   0  0  0  0  0  0  0  0  0  0  0  0
   12.9190  -17.5625   24.7467 O   0  0  0  0  0  0  0  0  0  0  0  0
   11.9999  -18.5402   24.4266 C   0  0  0  0  0  0  0  0  0  0  0  0
   10.7382  -18.3283   25.2394 C   0  0  2  0  0  0  0  0  0  0  0  0
   10.3083  -16.9339   25.1626 N   0  0  0  0  0  0  0  0  0  0  0  0
   10.9351  -18.6610   26.6613 C   0  0  0  0  0  0  0  0  0  0  0  0
   11.3260  -19.7969   27.0264 O   0  0  0  0  0  0  0  0  0  0  0  0
   10.6809  -17.6869   27.6391 O   0  0  0  0  0  0  0  0  0  0  0  0
  1  2  1  0
  3  2  1  0
  4  5  1  0
  4  3  1  0
  5  6  1  1
  5  1  1  0
  6  7  2  0
  8  6  1  0
  8  9  1  0
  9 17  1  0
 10 11  1  0
  9 10  1  1
 11 16  1  0
 12 11  2  0
 12 13  1  0
 13 14  2  0
 14 15  1  0
 16 15  2  0
 17 18  2  0
 19 20  1  0
 21 20  1  6
 21 23  1  0
 22 21  1  0
 22 17  1  0
 23 24  2  0
 23 25  1  0
M  END
$$$$
