PFS.pdb
     RDKit          3D

 25 26  0  0  1  0  0  0  0  0999 V2000
    7.2989  -15.9345   21.0623 N   0  0  0  0  0  0  0  0  0  0  0  0
    6.7997  -15.4150   19.8027 C   0  0  0  0  0  0  0  0  0  0  0  0
    7.3087  -14.0190   19.6548 C   0  0  0  0  0  0  0  0  0  0  0  0
    7.9865  -13.7492   20.9829 C   0  0  0  0  0  0  0  0  0  0  0  0
    8.4668  -15.1552   21.3252 C   0  0  1  0  0  0  0  0  0  0  0  0
    8.9733  -15.2593   22.6900 C   0  0  0  0  0  0  0  0  0  0  0  0
   10.1008  -14.7648   22.9443 O   0  0  0  0  0  0  0  0  0  0  0  0
    8.2731  -15.8850   23.7538 N   0  0  0  0  0  0  0  0  0  0  0  0
    8.7456  -15.7869   25.1172 C   0  0  1  0  0  0  0  0  0  0  0  0
    7.6282  -15.5281   26.0914 C   0  0  0  0  0  0  0  0  0  0  0  0
    7.3014  -14.0907   26.2288 C   0  0  0  0  0  0  0  0  0  0  0  0
    5.9832  -13.7228   25.9893 C   0  0  0  0  0  0  0  0  0  0  0  0
    5.5911  -12.3991   26.0955 C   0  0  0  0  0  0  0  0  0  0  0  0
    6.5027  -11.4242   26.4409 C   0  0  0  0  0  0  0  0  0  0  0  0
    7.8150  -11.8082   26.6767 C   0  0  0  0  0  0  0  0  0  0  0  0
    8.1890  -13.1200   26.5682 C   0  0  0  0  0  0  0  0  0  0  0  0
    9.3289  -17.1162   25.4652 C   0  0  0  0  0  0  0  0  0  0  0  0
    8.5901  -18.1278   25.3460 O   0  0  0  0  0  0  0  0  0  0  0  0
   13.3308  -17.8139   25.8947 O   0  0  0  0  0  0  0  0  0  0  0  0
   12.4965  -18.8564   25.5482 C   0  0  0  0  0  0  0  0  0  0  0  0
   11.1342  -18.6390   26.1762 C   0  0  2  0  0  0  0  0  0  0  0  0
   10.6628  -17.2803   25.9179 N   0  0  0  0  0  0  0  0  0  0  0  0
   11.1617  -18.8360   27.6363 C   0  0  0  0  0  0  0  0  0  0  0  0
   11.5220  -19.9236   28.1499 O   0  0  0  0  0  0  0  0  0  0  0  0
   10.7761  -17.7841   28.4815 O   0  0  0  0  0  0  0  0  0  0  0  0
  1  2  1  0
  3  2  1  0
  4  5  1  0
  4  3  1  0
  5  6  1  1
  5  1  1  0
  6  7  2  0
  8  6  1  0
  8  9  1  0
  9 17  1  0
 10 11  1  0
  9 10  1  1
 11 16  1  0
 12 11  2  0
 12 13  1  0
 13 14  2  0
 14 15  1  0
 16 15  2  0
 17 18  2  0
 19 20  1  0
 21 20  1  1
 21 23  1  0
 22 21  1  0
 22 17  1  0
 23 24  2  0
 23 25  1  0
M  END
$$$$
