PFS.pdb
     RDKit          3D

 25 26  0  0  1  0  0  0  0  0999 V2000
    7.7227  -15.2408   18.9727 N   0  0  0  0  0  0  0  0  0  0  0  0
    7.5393  -14.8992   17.5743 C   0  0  0  0  0  0  0  0  0  0  0  0
    8.1020  -13.5319   17.3645 C   0  0  0  0  0  0  0  0  0  0  0  0
    8.4622  -13.0809   18.7655 C   0  0  0  0  0  0  0  0  0  0  0  0
    8.8170  -14.4245   19.3929 C   0  0  1  0  0  0  0  0  0  0  0  0
    8.9931  -14.3404   20.8393 C   0  0  0  0  0  0  0  0  0  0  0  0
   10.1291  -14.0340   21.2823 O   0  0  0  0  0  0  0  0  0  0  0  0
    7.9613  -14.5828   21.7827 N   0  0  0  0  0  0  0  0  0  0  0  0
    8.1371  -14.2561   23.1805 C   0  0  1  0  0  0  0  0  0  0  0  0
    6.9513  -13.5248   23.7495 C   0  0  0  0  0  0  0  0  0  0  0  0
    7.1092  -13.1935   25.1837 C   0  0  0  0  0  0  0  0  0  0  0  0
    6.1033  -13.6238   26.0400 C   0  0  0  0  0  0  0  0  0  0  0  0
    6.1715  -13.3568   27.3969 C   0  0  0  0  0  0  0  0  0  0  0  0
    7.2392  -12.6593   27.9206 C   0  0  0  0  0  0  0  0  0  0  0  0
    8.2353  -12.2367   27.0520 C   0  0  0  0  0  0  0  0  0  0  0  0
    8.1554  -12.5074   25.7131 C   0  0  0  0  0  0  0  0  0  0  0  0
    8.2432  -15.5523   23.9134 C   0  0  0  0  0  0  0  0  0  0  0  0
    7.2574  -16.3328   23.8659 O   0  0  0  0  0  0  0  0  0  0  0  0
   11.7585  -17.3815   24.8228 O   0  0  0  0  0  0  0  0  0  0  0  0
   10.5802  -18.0712   24.6255 C   0  0  0  0  0  0  0  0  0  0  0  0
    9.4302  -17.2788   25.2149 C   0  0  2  0  0  0  0  0  0  0  0  0
    9.3943  -15.9319   24.6496 N   0  0  0  0  0  0  0  0  0  0  0  0
    9.5415  -17.1500   26.6785 C   0  0  0  0  0  0  0  0  0  0  0  0
    9.6217  -16.0296   27.2394 O   0  0  0  0  0  0  0  0  0  0  0  0
    9.5588  -18.3066   27.4733 O   0  0  0  0  0  0  0  0  0  0  0  0
  1  2  1  0
  3  2  1  0
  4  5  1  0
  4  3  1  0
  5  6  1  1
  5  1  1  0
  6  7  2  0
  8  6  1  0
  8  9  1  0
  9 17  1  0
 10 11  1  0
  9 10  1  1
 11 16  1  0
 12 11  2  0
 12 13  1  0
 13 14  2  0
 14 15  1  0
 16 15  2  0
 17 18  2  0
 19 20  1  0
 21 20  1  6
 21 23  1  0
 22 21  1  0
 22 17  1  0
 23 24  2  0
 23 25  1  0
M  END
$$$$
