PFS.pdb
     RDKit          3D

 25 26  0  0  1  0  0  0  0  0999 V2000
    7.7253  -15.2530   18.9351 N   0  0  0  0  0  0  0  0  0  0  0  0
    7.5484  -14.8948   17.5401 C   0  0  0  0  0  0  0  0  0  0  0  0
    8.1020  -13.5207   17.3515 C   0  0  0  0  0  0  0  0  0  0  0  0
    8.4497  -13.0851   18.7605 C   0  0  0  0  0  0  0  0  0  0  0  0
    8.8107  -14.4340   19.3729 C   0  0  1  0  0  0  0  0  0  0  0  0
    8.9769  -14.3672   20.8214 C   0  0  0  0  0  0  0  0  0  0  0  0
   10.1239  -14.1282   21.2771 O   0  0  0  0  0  0  0  0  0  0  0  0
    7.9235  -14.5551   21.7534 N   0  0  0  0  0  0  0  0  0  0  0  0
    8.1003  -14.2361   23.1528 C   0  0  1  0  0  0  0  0  0  0  0  0
    6.8906  -13.5625   23.7422 C   0  0  0  0  0  0  0  0  0  0  0  0
    7.0850  -13.1533   25.1516 C   0  0  0  0  0  0  0  0  0  0  0  0
    6.2398  -13.7282   26.0927 C   0  0  0  0  0  0  0  0  0  0  0  0
    6.3529  -13.4016   27.4334 C   0  0  0  0  0  0  0  0  0  0  0  0
    7.3063  -12.5001   27.8567 C   0  0  0  0  0  0  0  0  0  0  0  0
    8.1423  -11.9351   26.9043 C   0  0  0  0  0  0  0  0  0  0  0  0
    8.0198  -12.2668   25.5824 C   0  0  0  0  0  0  0  0  0  0  0  0
    8.2699  -15.5343   23.8702 C   0  0  0  0  0  0  0  0  0  0  0  0
    7.3651  -16.3984   23.7362 O   0  0  0  0  0  0  0  0  0  0  0  0
   11.7745  -17.1851   24.5754 O   0  0  0  0  0  0  0  0  0  0  0  0
   10.6196  -17.9390   24.5490 C   0  0  0  0  0  0  0  0  0  0  0  0
    9.5054  -17.1747   25.2361 C   0  0  2  0  0  0  0  0  0  0  0  0
    9.3939  -15.8265   24.6840 N   0  0  0  0  0  0  0  0  0  0  0  0
    9.7345  -17.0498   26.6864 C   0  0  0  0  0  0  0  0  0  0  0  0
    9.8649  -15.9311   27.2411 O   0  0  0  0  0  0  0  0  0  0  0  0
    9.8102  -18.2083   27.4749 O   0  0  0  0  0  0  0  0  0  0  0  0
  1  2  1  0
  3  2  1  0
  4  5  1  0
  4  3  1  0
  5  6  1  1
  5  1  1  0
  6  7  2  0
  8  6  1  0
  8  9  1  0
  9 17  1  0
 10 11  1  0
  9 10  1  1
 11 16  1  0
 12 11  2  0
 12 13  1  0
 13 14  2  0
 14 15  1  0
 16 15  2  0
 17 18  2  0
 19 20  1  0
 21 20  1  6
 21 23  1  0
 22 21  1  0
 22 17  1  0
 23 24  2  0
 23 25  1  0
M  END
$$$$
