PFS.pdb
     RDKit          3D

 25 26  0  0  1  0  0  0  0  0999 V2000
    7.3366  -15.0580   20.4168 N   0  0  0  0  0  0  0  0  0  0  0  0
    6.7306  -14.4186   19.2637 C   0  0  0  0  0  0  0  0  0  0  0  0
    7.2607  -13.0246   19.1882 C   0  0  0  0  0  0  0  0  0  0  0  0
    8.0727  -12.8875   20.4601 C   0  0  0  0  0  0  0  0  0  0  0  0
    8.5455  -14.3273   20.6284 C   0  0  1  0  0  0  0  0  0  0  0  0
    9.1805  -14.5627   21.9213 C   0  0  0  0  0  0  0  0  0  0  0  0
   10.4273  -14.4240   22.0046 O   0  0  0  0  0  0  0  0  0  0  0  0
    8.4796  -14.9397   23.0960 N   0  0  0  0  0  0  0  0  0  0  0  0
    9.1368  -14.9544   24.3842 C   0  0  1  0  0  0  0  0  0  0  0  0
    8.2058  -14.5766   25.5045 C   0  0  0  0  0  0  0  0  0  0  0  0
    8.8705  -14.5552   26.8272 C   0  0  0  0  0  0  0  0  0  0  0  0
    9.2310  -13.3098   27.3266 C   0  0  0  0  0  0  0  0  0  0  0  0
    9.8572  -13.1987   28.5565 C   0  0  0  0  0  0  0  0  0  0  0  0
   10.1332  -14.3225   29.3059 C   0  0  0  0  0  0  0  0  0  0  0  0
    9.7667  -15.5584   28.7930 C   0  0  0  0  0  0  0  0  0  0  0  0
    9.1484  -15.6540   27.5760 C   0  0  0  0  0  0  0  0  0  0  0  0
    9.5664  -16.3628   24.6299 C   0  0  0  0  0  0  0  0  0  0  0  0
    8.6785  -17.2544   24.6219 O   0  0  0  0  0  0  0  0  0  0  0  0
   13.3595  -17.8199   24.0025 O   0  0  0  0  0  0  0  0  0  0  0  0
   12.2021  -18.5607   23.8821 C   0  0  0  0  0  0  0  0  0  0  0  0
   11.2293  -18.1523   24.9704 C   0  0  2  0  0  0  0  0  0  0  0  0
   10.9156  -16.7289   24.8683 N   0  0  0  0  0  0  0  0  0  0  0  0
   11.7734  -18.3979   26.3176 C   0  0  0  0  0  0  0  0  0  0  0  0
   11.9788  -17.4615   27.1284 O   0  0  0  0  0  0  0  0  0  0  0  0
   12.0723  -19.7112   26.7118 O   0  0  0  0  0  0  0  0  0  0  0  0
  1  2  1  0
  3  2  1  0
  4  5  1  0
  4  3  1  0
  5  6  1  1
  5  1  1  0
  6  7  2  0
  8  6  1  0
  8  9  1  0
  9 17  1  0
 10 11  1  0
  9 10  1  1
 11 16  1  0
 12 11  2  0
 12 13  1  0
 13 14  2  0
 14 15  1  0
 16 15  2  0
 17 18  2  0
 19 20  1  0
 21 20  1  6
 21 23  1  0
 22 21  1  0
 22 17  1  0
 23 24  2  0
 23 25  1  0
M  END
$$$$
