PFS.pdb
     RDKit          3D

 25 26  0  0  1  0  0  0  0  0999 V2000
    7.6257  -15.3243   19.2750 N   0  0  0  0  0  0  0  0  0  0  0  0
    7.3498  -14.8989   17.9153 C   0  0  0  0  0  0  0  0  0  0  0  0
    7.7949  -13.4794   17.7857 C   0  0  0  0  0  0  0  0  0  0  0  0
    8.1861  -13.1028   19.2002 C   0  0  0  0  0  0  0  0  0  0  0  0
    8.6729  -14.4552   19.7090 C   0  0  1  0  0  0  0  0  0  0  0  0
    8.9112  -14.4613   21.1489 C   0  0  0  0  0  0  0  0  0  0  0  0
   10.0783  -14.2365   21.5586 O   0  0  0  0  0  0  0  0  0  0  0  0
    7.9071  -14.7055   22.1214 N   0  0  0  0  0  0  0  0  0  0  0  0
    8.1233  -14.3815   23.5141 C   0  0  1  0  0  0  0  0  0  0  0  0
    6.8656  -13.9100   24.1925 C   0  0  0  0  0  0  0  0  0  0  0  0
    7.0910  -13.4683   25.5875 C   0  0  0  0  0  0  0  0  0  0  0  0
    7.2972  -12.1091   25.7882 C   0  0  0  0  0  0  0  0  0  0  0  0
    7.5158  -11.6104   27.0612 C   0  0  0  0  0  0  0  0  0  0  0  0
    7.5324  -12.4548   28.1509 C   0  0  0  0  0  0  0  0  0  0  0  0
    7.3248  -13.8094   27.9333 C   0  0  0  0  0  0  0  0  0  0  0  0
    7.1099  -14.2889   26.6699 C   0  0  0  0  0  0  0  0  0  0  0  0
    8.5354  -15.6474   24.1896 C   0  0  0  0  0  0  0  0  0  0  0  0
    7.7913  -16.6526   24.0509 O   0  0  0  0  0  0  0  0  0  0  0  0
   12.3779  -16.6090   25.0665 O   0  0  0  0  0  0  0  0  0  0  0  0
   11.3897  -17.5332   24.7979 C   0  0  0  0  0  0  0  0  0  0  0  0
   10.0948  -17.0865   25.4469 C   0  0  2  0  0  0  0  0  0  0  0  0
    9.7147  -15.7589   24.9693 N   0  0  0  0  0  0  0  0  0  0  0  0
   10.2067  -17.0219   26.9148 C   0  0  0  0  0  0  0  0  0  0  0  0
   10.0413  -15.9479   27.5437 O   0  0  0  0  0  0  0  0  0  0  0  0
   10.5058  -18.1883   27.6356 O   0  0  0  0  0  0  0  0  0  0  0  0
  1  2  1  0
  3  2  1  0
  4  5  1  0
  4  3  1  0
  5  6  1  1
  5  1  1  0
  6  7  2  0
  8  6  1  0
  8  9  1  0
  9 17  1  0
 10 11  1  0
  9 10  1  1
 11 16  1  0
 12 11  2  0
 12 13  1  0
 13 14  2  0
 14 15  1  0
 16 15  2  0
 17 18  2  0
 19 20  1  0
 21 20  1  6
 21 23  1  0
 22 21  1  0
 22 17  1  0
 23 24  2  0
 23 25  1  0
M  END
$$$$
