PFS.pdb
     RDKit          3D

 25 26  0  0  1  0  0  0  0  0999 V2000
    7.7269  -15.3079   18.9874 N   0  0  0  0  0  0  0  0  0  0  0  0
    7.5198  -14.9296   17.6019 C   0  0  0  0  0  0  0  0  0  0  0  0
    8.0255  -13.5348   17.4327 C   0  0  0  0  0  0  0  0  0  0  0  0
    8.3776  -13.1145   18.8452 C   0  0  0  0  0  0  0  0  0  0  0  0
    8.7907  -14.4620   19.4269 C   0  0  1  0  0  0  0  0  0  0  0  0
    8.9739  -14.4168   20.8742 C   0  0  0  0  0  0  0  0  0  0  0  0
   10.1395  -14.2669   21.3208 O   0  0  0  0  0  0  0  0  0  0  0  0
    7.9177  -14.5316   21.8147 N   0  0  0  0  0  0  0  0  0  0  0  0
    8.1216  -14.2049   23.2087 C   0  0  1  0  0  0  0  0  0  0  0  0
    6.9746  -13.4192   23.7847 C   0  0  0  0  0  0  0  0  0  0  0  0
    7.1447  -13.1175   25.2241 C   0  0  0  0  0  0  0  0  0  0  0  0
    6.1601  -13.5896   26.0833 C   0  0  0  0  0  0  0  0  0  0  0  0
    6.2409  -13.3523   27.4450 C   0  0  0  0  0  0  0  0  0  0  0  0
    7.3001  -12.6434   27.9707 C   0  0  0  0  0  0  0  0  0  0  0  0
    8.2748  -12.1790   27.0992 C   0  0  0  0  0  0  0  0  0  0  0  0
    8.1826  -12.4206   25.7555 C   0  0  0  0  0  0  0  0  0  0  0  0
    8.1785  -15.5002   23.9486 C   0  0  0  0  0  0  0  0  0  0  0  0
    7.1806  -16.2626   23.8694 O   0  0  0  0  0  0  0  0  0  0  0  0
   11.4846  -17.5313   24.5832 O   0  0  0  0  0  0  0  0  0  0  0  0
   10.2528  -18.1485   24.6509 C   0  0  0  0  0  0  0  0  0  0  0  0
    9.2657  -17.2250   25.3366 C   0  0  2  0  0  0  0  0  0  0  0  0
    9.2964  -15.8984   24.7250 N   0  0  0  0  0  0  0  0  0  0  0  0
    9.5630  -17.0664   26.7711 C   0  0  0  0  0  0  0  0  0  0  0  0
    9.8316  -15.9462   27.2706 O   0  0  0  0  0  0  0  0  0  0  0  0
    9.5474  -18.1933   27.6074 O   0  0  0  0  0  0  0  0  0  0  0  0
  1  2  1  0
  3  2  1  0
  4  5  1  0
  4  3  1  0
  5  6  1  1
  5  1  1  0
  6  7  2  0
  8  6  1  0
  8  9  1  0
  9 17  1  0
 10 11  1  0
  9 10  1  1
 11 16  1  0
 12 11  2  0
 12 13  1  0
 13 14  2  0
 14 15  1  0
 16 15  2  0
 17 18  2  0
 19 20  1  0
 21 20  1  6
 21 23  1  0
 22 21  1  0
 22 17  1  0
 23 24  2  0
 23 25  1  0
M  END
$$$$
