KYC.pdb
     RDKit          3D

 28 28  0  0  1  0  0  0  0  0999 V2000
   11.4769  -16.8752   19.6259 N   0  0  0  0  0  0  0  0  0  0  0  0
   10.6573  -17.5242   20.6267 C   0  0  1  0  0  0  0  0  0  0  0  0
   11.3411  -18.6920   21.2925 C   0  0  0  0  0  0  0  0  0  0  0  0
   11.6241  -19.7884   20.3435 C   0  0  0  0  0  0  0  0  0  0  0  0
   12.1270  -21.0686   20.8901 C   0  0  0  0  0  0  0  0  0  0  0  0
   12.4209  -22.1138   19.8450 C   0  0  0  0  0  0  0  0  0  0  0  0
   12.8173  -23.3217   20.5561 N   0  0  0  0  0  0  0  0  0  0  0  0
   10.3709  -16.5204   21.6905 C   0  0  0  0  0  0  0  0  0  0  0  0
   11.2356  -15.6180   21.9735 O   0  0  0  0  0  0  0  0  0  0  0  0
    5.9490  -11.1952   27.3254 O   0  0  0  0  0  0  0  0  0  0  0  0
    6.3056  -12.1786   26.4240 C   0  0  0  0  0  0  0  0  0  0  0  0
    5.9862  -13.5102   26.5885 C   0  0  0  0  0  0  0  0  0  0  0  0
    6.3844  -14.4501   25.6278 C   0  0  0  0  0  0  0  0  0  0  0  0
    7.0961  -14.0619   24.5118 C   0  0  0  0  0  0  0  0  0  0  0  0
    7.5033  -15.0344   23.5333 C   0  0  0  0  0  0  0  0  0  0  0  0
    8.9279  -15.3903   23.3971 C   0  0  2  0  0  0  0  0  0  0  0  0
    9.1766  -16.4709   22.4530 N   0  0  0  0  0  0  0  0  0  0  0  0
    9.4020  -15.9083   24.7361 C   0  0  0  0  0  0  0  0  0  0  0  0
    9.3078  -17.1196   25.0577 O   0  0  0  0  0  0  0  0  0  0  0  0
    7.3965  -12.7326   24.3794 C   0  0  0  0  0  0  0  0  0  0  0  0
    7.0239  -11.7759   25.3005 C   0  0  0  0  0  0  0  0  0  0  0  0
    9.9712  -14.9875   25.6535 N   0  0  0  0  0  0  0  0  0  0  0  0
   10.5188  -15.4405   26.9130 C   0  0  1  0  0  0  0  0  0  0  0  0
   10.6803  -14.2254   27.8018 C   0  0  0  0  0  0  0  0  0  0  0  0
   11.1655  -14.7098   29.4818 S   0  0  0  0  0  0  0  0  0  0  0  0
    9.6995  -16.4867   27.5261 C   0  0  0  0  0  0  0  0  0  0  0  0
    8.4527  -16.4603   27.5283 O   0  0  0  0  0  0  0  0  0  0  0  0
   10.3252  -17.5623   28.1360 O   0  0  0  0  0  0  0  0  0  0  0  0
  2  1  1  6
  3  2  1  0
  4  3  1  0
  5  4  1  0
  5  6  1  0
  7  6  1  0
  8  2  1  0
  8  9  2  0
 10 11  1  0
 11 12  2  0
 12 13  1  0
 14 13  2  0
 14 15  1  0
 16 15  1  1
 16 17  1  0
 17  8  1  0
 18 16  1  0
 19 18  2  0
 20 14  1  0
 21 11  1  0
 21 20  2  0
 22 18  1  0
 23 26  1  0
 23 22  1  0
 23 24  1  1
 25 24  1  0
 26 28  1  0
 27 26  2  0
M  END
$$$$
