KYC.pdb
     RDKit          3D

 28 28  0  0  1  0  0  0  0  0999 V2000
   10.5975  -17.1414   19.0738 N   0  0  0  0  0  0  0  0  0  0  0  0
    9.5143  -17.5618   19.9367 C   0  0  1  0  0  0  0  0  0  0  0  0
    9.6622  -18.9781   20.4334 C   0  0  0  0  0  0  0  0  0  0  0  0
    9.0232  -19.9564   19.5295 C   0  0  0  0  0  0  0  0  0  0  0  0
    7.7885  -20.6283   19.9931 C   0  0  0  0  0  0  0  0  0  0  0  0
    7.2203  -21.6220   19.0128 C   0  0  0  0  0  0  0  0  0  0  0  0
    6.0576  -22.2254   19.6498 N   0  0  0  0  0  0  0  0  0  0  0  0
    9.5260  -16.6747   21.1344 C   0  0  0  0  0  0  0  0  0  0  0  0
   10.6348  -16.3752   21.7026 O   0  0  0  0  0  0  0  0  0  0  0  0
    6.7599  -11.8595   28.1508 O   0  0  0  0  0  0  0  0  0  0  0  0
    6.8419  -12.5581   26.9626 C   0  0  0  0  0  0  0  0  0  0  0  0
    6.1932  -13.7546   26.7399 C   0  0  0  0  0  0  0  0  0  0  0  0
    6.3259  -14.4045   25.5050 C   0  0  0  0  0  0  0  0  0  0  0  0
    7.1008  -13.8625   24.5009 C   0  0  0  0  0  0  0  0  0  0  0  0
    7.2337  -14.5386   23.2383 C   0  0  0  0  0  0  0  0  0  0  0  0
    8.4656  -15.2885   22.9304 C   0  0  2  0  0  0  0  0  0  0  0  0
    8.3711  -16.1074   21.7298 N   0  0  0  0  0  0  0  0  0  0  0  0
    8.7067  -16.2606   24.0630 C   0  0  0  0  0  0  0  0  0  0  0  0
    7.9953  -17.2828   24.2319 O   0  0  0  0  0  0  0  0  0  0  0  0
    7.7310  -12.6737   24.7550 C   0  0  0  0  0  0  0  0  0  0  0  0
    7.6270  -12.0020   25.9552 C   0  0  0  0  0  0  0  0  0  0  0  0
    9.7752  -16.0011   24.9599 N   0  0  0  0  0  0  0  0  0  0  0  0
   10.0389  -16.8865   26.0726 C   0  0  1  0  0  0  0  0  0  0  0  0
   11.3798  -17.5439   25.8225 C   0  0  0  0  0  0  0  0  0  0  0  0
   11.7472  -18.7766   27.1023 S   0  0  0  0  0  0  0  0  0  0  0  0
    9.9801  -16.1892   27.3579 C   0  0  0  0  0  0  0  0  0  0  0  0
    9.8250  -14.9558   27.4560 O   0  0  0  0  0  0  0  0  0  0  0  0
   10.1013  -16.9215   28.5282 O   0  0  0  0  0  0  0  0  0  0  0  0
  2  1  1  6
  3  2  1  0
  4  3  1  0
  5  4  1  0
  5  6  1  0
  7  6  1  0
  8  2  1  0
  8  9  2  0
 10 11  1  0
 11 12  2  0
 12 13  1  0
 14 13  2  0
 14 15  1  0
 16 15  1  1
 16 17  1  0
 17  8  1  0
 18 16  1  0
 19 18  2  0
 20 14  1  0
 21 11  1  0
 21 20  2  0
 22 18  1  0
 23 26  1  0
 23 22  1  0
 23 24  1  6
 25 24  1  0
 26 28  1  0
 27 26  2  0
M  END
$$$$
