KYC.pdb
     RDKit          3D

 28 28  0  0  1  0  0  0  0  0999 V2000
    8.0602  -16.3683   18.7238 N   0  0  0  0  0  0  0  0  0  0  0  0
    9.1203  -15.3842   18.7728 C   0  0  1  0  0  0  0  0  0  0  0  0
    8.8978  -14.2204   17.8397 C   0  0  0  0  0  0  0  0  0  0  0  0
    8.0387  -14.5804   16.6930 C   0  0  0  0  0  0  0  0  0  0  0  0
    8.5956  -14.4233   15.3307 C   0  0  0  0  0  0  0  0  0  0  0  0
    7.6154  -14.7184   14.2246 C   0  0  0  0  0  0  0  0  0  0  0  0
    8.3550  -14.6363   12.9724 N   0  0  0  0  0  0  0  0  0  0  0  0
    9.1566  -14.8340   20.1575 C   0  0  0  0  0  0  0  0  0  0  0  0
   10.1859  -14.1900   20.5673 O   0  0  0  0  0  0  0  0  0  0  0  0
    7.1565  -12.7900   28.6234 O   0  0  0  0  0  0  0  0  0  0  0  0
    7.1537  -13.0940   27.2764 C   0  0  0  0  0  0  0  0  0  0  0  0
    7.5989  -12.2255   26.3019 C   0  0  0  0  0  0  0  0  0  0  0  0
    7.5640  -12.6076   24.9537 C   0  0  0  0  0  0  0  0  0  0  0  0
    7.0879  -13.8478   24.5828 C   0  0  0  0  0  0  0  0  0  0  0  0
    7.0528  -14.2295   23.1964 C   0  0  0  0  0  0  0  0  0  0  0  0
    8.3022  -14.5852   22.4984 C   0  0  2  0  0  0  0  0  0  0  0  0
    8.1104  -14.9644   21.1054 N   0  0  0  0  0  0  0  0  0  0  0  0
    8.8731  -15.8112   23.1745 C   0  0  0  0  0  0  0  0  0  0  0  0
    8.4209  -16.9647   22.9637 O   0  0  0  0  0  0  0  0  0  0  0  0
    6.6537  -14.6855   25.5751 C   0  0  0  0  0  0  0  0  0  0  0  0
    6.6709  -14.3490   26.9126 C   0  0  0  0  0  0  0  0  0  0  0  0
    9.9560  -15.6428   24.0758 N   0  0  0  0  0  0  0  0  0  0  0  0
   10.5062  -16.7731   24.7910 C   0  0  1  0  0  0  0  0  0  0  0  0
   11.9837  -16.8406   24.4670 C   0  0  0  0  0  0  0  0  0  0  0  0
   12.5756  -18.5557   24.4897 S   0  0  0  0  0  0  0  0  0  0  0  0
   10.2437  -16.6967   26.2286 C   0  0  0  0  0  0  0  0  0  0  0  0
    9.9935  -15.6268   26.8183 O   0  0  0  0  0  0  0  0  0  0  0  0
   10.2715  -17.8597   26.9817 O   0  0  0  0  0  0  0  0  0  0  0  0
  2  1  1  1
  3  2  1  0
  4  3  1  0
  5  4  1  0
  5  6  1  0
  7  6  1  0
  8  2  1  0
  8  9  2  0
 10 11  1  0
 11 12  2  0
 12 13  1  0
 14 13  2  0
 14 15  1  0
 16 15  1  1
 16 17  1  0
 17  8  1  0
 18 16  1  0
 19 18  2  0
 20 14  1  0
 21 11  1  0
 21 20  2  0
 22 18  1  0
 23 26  1  0
 23 22  1  0
 23 24  1  1
 25 24  1  0
 26 28  1  0
 27 26  2  0
M  END
$$$$
