KYC.pdb
     RDKit          3D

 28 28  0  0  1  0  0  0  0  0999 V2000
    8.6991  -17.1850   19.8593 N   0  0  0  0  0  0  0  0  0  0  0  0
    9.3824  -17.9327   20.8931 C   0  0  1  0  0  0  0  0  0  0  0  0
   10.7157  -18.4814   20.4504 C   0  0  0  0  0  0  0  0  0  0  0  0
   10.6027  -19.3058   19.2296 C   0  0  0  0  0  0  0  0  0  0  0  0
   11.8306  -19.9454   18.7064 C   0  0  0  0  0  0  0  0  0  0  0  0
   11.6264  -20.7265   17.4338 C   0  0  0  0  0  0  0  0  0  0  0  0
   12.9020  -21.3527   17.1139 N   0  0  0  0  0  0  0  0  0  0  0  0
    9.6478  -16.9962   22.0218 C   0  0  0  0  0  0  0  0  0  0  0  0
    9.9289  -15.7683   21.7867 O   0  0  0  0  0  0  0  0  0  0  0  0
   10.6400  -13.6944   30.2775 O   0  0  0  0  0  0  0  0  0  0  0  0
   10.3031  -14.4497   29.1717 C   0  0  0  0  0  0  0  0  0  0  0  0
   10.5526  -15.8025   29.0726 C   0  0  0  0  0  0  0  0  0  0  0  0
   10.1802  -16.5008   27.9157 C   0  0  0  0  0  0  0  0  0  0  0  0
    9.5634  -15.8520   26.8664 C   0  0  0  0  0  0  0  0  0  0  0  0
    9.1881  -16.5765   25.6818 C   0  0  0  0  0  0  0  0  0  0  0  0
    9.9513  -16.3930   24.4334 C   0  0  2  0  0  0  0  0  0  0  0  0
    9.6174  -17.3558   23.3929 N   0  0  0  0  0  0  0  0  0  0  0  0
   11.4109  -16.6305   24.7483 C   0  0  0  0  0  0  0  0  0  0  0  0
   12.0246  -15.9677   25.6221 O   0  0  0  0  0  0  0  0  0  0  0  0
    9.3305  -14.5090   26.9974 C   0  0  0  0  0  0  0  0  0  0  0  0
    9.6806  -13.7847   28.1178 C   0  0  0  0  0  0  0  0  0  0  0  0
   12.1021  -17.6383   24.0272 N   0  0  0  0  0  0  0  0  0  0  0  0
   13.4623  -17.9918   24.3689 C   0  0  1  0  0  0  0  0  0  0  0  0
   13.4169  -19.3138   25.1057 C   0  0  0  0  0  0  0  0  0  0  0  0
   12.6252  -19.1262   26.7276 S   0  0  0  0  0  0  0  0  0  0  0  0
   14.3345  -18.0269   23.1944 C   0  0  0  0  0  0  0  0  0  0  0  0
   13.9226  -17.8239   22.0351 O   0  0  0  0  0  0  0  0  0  0  0  0
   15.6831  -18.2972   23.3641 O   0  0  0  0  0  0  0  0  0  0  0  0
  2  1  1  6
  3  2  1  0
  4  3  1  0
  5  4  1  0
  5  6  1  0
  7  6  1  0
  8  2  1  0
  8  9  2  0
 10 11  1  0
 11 12  2  0
 12 13  1  0
 14 13  2  0
 14 15  1  0
 16 15  1  1
 16 17  1  0
 17  8  1  0
 18 16  1  0
 19 18  2  0
 20 14  1  0
 21 11  1  0
 21 20  2  0
 22 18  1  0
 23 26  1  0
 23 22  1  0
 23 24  1  6
 25 24  1  0
 26 28  1  0
 27 26  2  0
M  END
$$$$
