KYC.pdb
     RDKit          3D

 28 28  0  0  1  0  0  0  0  0999 V2000
    8.0416  -18.8503   20.7608 N   0  0  0  0  0  0  0  0  0  0  0  0
    9.3551  -18.4566   20.2977 C   0  0  1  0  0  0  0  0  0  0  0  0
    9.3693  -18.0008   18.8602 C   0  0  0  0  0  0  0  0  0  0  0  0
    8.4606  -18.7994   18.0122 C   0  0  0  0  0  0  0  0  0  0  0  0
    8.4557  -18.5341   16.5560 C   0  0  0  0  0  0  0  0  0  0  0  0
    7.4149  -19.3095   15.7901 C   0  0  0  0  0  0  0  0  0  0  0  0
    7.5104  -18.8845   14.4001 N   0  0  0  0  0  0  0  0  0  0  0  0
    9.7940  -17.2992   21.1279 C   0  0  0  0  0  0  0  0  0  0  0  0
   10.9552  -16.7858   20.9537 O   0  0  0  0  0  0  0  0  0  0  0  0
    7.4781  -12.7182   17.2651 O   0  0  0  0  0  0  0  0  0  0  0  0
    7.6932  -13.1293   18.5656 C   0  0  0  0  0  0  0  0  0  0  0  0
    6.7320  -13.7540   19.3324 C   0  0  0  0  0  0  0  0  0  0  0  0
    7.0271  -14.1420   20.6467 C   0  0  0  0  0  0  0  0  0  0  0  0
    8.2730  -13.9074   21.1899 C   0  0  0  0  0  0  0  0  0  0  0  0
    8.5652  -14.3060   22.5407 C   0  0  0  0  0  0  0  0  0  0  0  0
    9.4456  -15.4618   22.7935 C   0  0  2  0  0  0  0  0  0  0  0  0
    9.0100  -16.6874   22.1385 N   0  0  0  0  0  0  0  0  0  0  0  0
    9.3993  -15.7589   24.2753 C   0  0  0  0  0  0  0  0  0  0  0  0
    9.6681  -14.8894   25.1420 O   0  0  0  0  0  0  0  0  0  0  0  0
    9.2039  -13.2852   20.4016 C   0  0  0  0  0  0  0  0  0  0  0  0
    8.9548  -12.8875   19.1046 C   0  0  0  0  0  0  0  0  0  0  0  0
    9.0388  -17.0668   24.6910 N   0  0  0  0  0  0  0  0  0  0  0  0
    8.9658  -17.4031   26.0957 C   0  0  1  0  0  0  0  0  0  0  0  0
    7.5424  -17.8285   26.3880 C   0  0  0  0  0  0  0  0  0  0  0  0
    6.3771  -16.4837   26.0328 S   0  0  0  0  0  0  0  0  0  0  0  0
    9.9498  -18.4191   26.4712 C   0  0  0  0  0  0  0  0  0  0  0  0
   10.7895  -18.8804   25.6730 O   0  0  0  0  0  0  0  0  0  0  0  0
    9.9599  -18.8999   27.7709 O   0  0  0  0  0  0  0  0  0  0  0  0
  2  1  1  1
  3  2  1  0
  4  3  1  0
  5  4  1  0
  5  6  1  0
  7  6  1  0
  8  2  1  0
  8  9  2  0
 10 11  1  0
 11 12  2  0
 12 13  1  0
 14 13  2  0
 14 15  1  0
 16 15  1  1
 16 17  1  0
 17  8  1  0
 18 16  1  0
 19 18  2  0
 20 14  1  0
 21 11  1  0
 21 20  2  0
 22 18  1  0
 23 26  1  0
 23 22  1  0
 23 24  1  6
 25 24  1  0
 26 28  1  0
 27 26  2  0
M  END
$$$$
