KYC.pdb
     RDKit          3D

 28 28  0  0  1  0  0  0  0  0999 V2000
    9.9750  -16.9754   18.6873 N   0  0  0  0  0  0  0  0  0  0  0  0
    9.0466  -17.4890   19.6716 C   0  0  1  0  0  0  0  0  0  0  0  0
    9.3409  -18.9091   20.0858 C   0  0  0  0  0  0  0  0  0  0  0  0
    9.6634  -19.7720   18.9308 C   0  0  0  0  0  0  0  0  0  0  0  0
    9.9122  -21.2089   19.1845 C   0  0  0  0  0  0  0  0  0  0  0  0
   10.1958  -22.0154   17.9434 C   0  0  0  0  0  0  0  0  0  0  0  0
   10.4668  -23.3787   18.3790 N   0  0  0  0  0  0  0  0  0  0  0  0
    9.1738  -16.6423   20.8916 C   0  0  0  0  0  0  0  0  0  0  0  0
   10.3277  -16.2431   21.2805 O   0  0  0  0  0  0  0  0  0  0  0  0
    7.0599  -11.5036   27.9207 O   0  0  0  0  0  0  0  0  0  0  0  0
    7.0971  -12.2168   26.7389 C   0  0  0  0  0  0  0  0  0  0  0  0
    7.7260  -11.7628   25.5985 C   0  0  0  0  0  0  0  0  0  0  0  0
    7.7201  -12.5461   24.4360 C   0  0  0  0  0  0  0  0  0  0  0  0
    7.0905  -13.7731   24.4138 C   0  0  0  0  0  0  0  0  0  0  0  0
    7.0868  -14.5680   23.2150 C   0  0  0  0  0  0  0  0  0  0  0  0
    8.2896  -15.3313   22.8335 C   0  0  2  0  0  0  0  0  0  0  0  0
    8.0866  -16.2200   21.6978 N   0  0  0  0  0  0  0  0  0  0  0  0
    8.6473  -16.2341   23.9924 C   0  0  0  0  0  0  0  0  0  0  0  0
    7.9863  -17.2673   24.2660 O   0  0  0  0  0  0  0  0  0  0  0  0
    6.4759  -14.1937   25.5627 C   0  0  0  0  0  0  0  0  0  0  0  0
    6.4582  -13.4546   26.7272 C   0  0  0  0  0  0  0  0  0  0  0  0
    9.7693  -15.8944   24.7919 N   0  0  0  0  0  0  0  0  0  0  0  0
   10.1504  -16.7159   25.9195 C   0  0  1  0  0  0  0  0  0  0  0  0
   11.5249  -17.2799   25.6271 C   0  0  0  0  0  0  0  0  0  0  0  0
   11.6466  -17.8323   23.9031 S   0  0  0  0  0  0  0  0  0  0  0  0
   10.0970  -15.9782   27.1822 C   0  0  0  0  0  0  0  0  0  0  0  0
    9.8345  -14.7609   27.2481 O   0  0  0  0  0  0  0  0  0  0  0  0
   10.3478  -16.6513   28.3673 O   0  0  0  0  0  0  0  0  0  0  0  0
  2  1  1  6
  3  2  1  0
  4  3  1  0
  5  4  1  0
  5  6  1  0
  7  6  1  0
  8  2  1  0
  8  9  2  0
 10 11  1  0
 11 12  2  0
 12 13  1  0
 14 13  2  0
 14 15  1  0
 16 15  1  1
 16 17  1  0
 17  8  1  0
 18 16  1  0
 19 18  2  0
 20 14  1  0
 21 11  1  0
 21 20  2  0
 22 18  1  0
 23 26  1  0
 23 22  1  0
 23 24  1  6
 25 24  1  0
 26 28  1  0
 27 26  2  0
M  END
$$$$
