KYC.pdb
     RDKit          3D

 28 28  0  0  1  0  0  0  0  0999 V2000
    8.1458  -15.0319   19.7558 N   0  0  0  0  0  0  0  0  0  0  0  0
    8.8470  -16.0849   20.4588 C   0  0  1  0  0  0  0  0  0  0  0  0
   10.1862  -16.4191   19.8510 C   0  0  0  0  0  0  0  0  0  0  0  0
   10.0957  -17.5229   18.8731 C   0  0  0  0  0  0  0  0  0  0  0  0
   11.1831  -18.5269   18.8551 C   0  0  0  0  0  0  0  0  0  0  0  0
   10.9900  -19.6290   17.8456 C   0  0  0  0  0  0  0  0  0  0  0  0
   12.0809  -20.5746   18.0395 N   0  0  0  0  0  0  0  0  0  0  0  0
    9.1041  -15.6031   21.8455 C   0  0  0  0  0  0  0  0  0  0  0  0
    9.7802  -14.5319   22.0398 O   0  0  0  0  0  0  0  0  0  0  0  0
    5.9385  -10.3841   26.7184 O   0  0  0  0  0  0  0  0  0  0  0  0
    6.2936  -11.6619   26.3337 C   0  0  0  0  0  0  0  0  0  0  0  0
    5.4266  -12.7338   26.3712 C   0  0  0  0  0  0  0  0  0  0  0  0
    5.8625  -14.0022   25.9636 C   0  0  0  0  0  0  0  0  0  0  0  0
    7.1546  -14.1973   25.5222 C   0  0  0  0  0  0  0  0  0  0  0  0
    7.5936  -15.5033   25.1093 C   0  0  0  0  0  0  0  0  0  0  0  0
    8.8402  -15.6510   24.3355 C   0  0  2  0  0  0  0  0  0  0  0  0
    8.6498  -16.2508   23.0221 N   0  0  0  0  0  0  0  0  0  0  0  0
    9.7377  -16.6068   25.0884 C   0  0  0  0  0  0  0  0  0  0  0  0
    9.8326  -17.8213   24.7795 O   0  0  0  0  0  0  0  0  0  0  0  0
    7.9892  -13.1121   25.4976 C   0  0  0  0  0  0  0  0  0  0  0  0
    7.6007  -11.8480   25.8896 C   0  0  0  0  0  0  0  0  0  0  0  0
   10.4944  -16.1056   26.1791 N   0  0  0  0  0  0  0  0  0  0  0  0
   11.1477  -17.0066   27.1027 C   0  0  1  0  0  0  0  0  0  0  0  0
   11.8485  -16.1603   28.1444 C   0  0  0  0  0  0  0  0  0  0  0  0
   12.9113  -17.1816   29.2027 S   0  0  0  0  0  0  0  0  0  0  0  0
   10.2133  -17.9686   27.6885 C   0  0  0  0  0  0  0  0  0  0  0  0
    9.0236  -17.6936   27.9415 O   0  0  0  0  0  0  0  0  0  0  0  0
   10.6581  -19.2481   27.9808 O   0  0  0  0  0  0  0  0  0  0  0  0
  2  1  1  6
  3  2  1  0
  4  3  1  0
  5  4  1  0
  5  6  1  0
  7  6  1  0
  8  2  1  0
  8  9  2  0
 10 11  1  0
 11 12  2  0
 12 13  1  0
 14 13  2  0
 14 15  1  0
 16 15  1  1
 16 17  1  0
 17  8  1  0
 18 16  1  0
 19 18  2  0
 20 14  1  0
 21 11  1  0
 21 20  2  0
 22 18  1  0
 23 26  1  0
 23 22  1  0
 23 24  1  1
 25 24  1  0
 26 28  1  0
 27 26  2  0
M  END
$$$$
