KYC.pdb
     RDKit          3D

 28 28  0  0  1  0  0  0  0  0999 V2000
   10.7393  -17.0994   18.9983 N   0  0  0  0  0  0  0  0  0  0  0  0
    9.5548  -17.4072   19.7708 C   0  0  1  0  0  0  0  0  0  0  0  0
    9.4982  -18.8426   20.2303 C   0  0  0  0  0  0  0  0  0  0  0  0
    9.3279  -19.7832   19.1039 C   0  0  0  0  0  0  0  0  0  0  0  0
    7.9511  -20.1740   18.7265 C   0  0  0  0  0  0  0  0  0  0  0  0
    7.8770  -21.1337   17.5669 C   0  0  0  0  0  0  0  0  0  0  0  0
    6.4657  -21.3018   17.2479 N   0  0  0  0  0  0  0  0  0  0  0  0
    9.5850  -16.5570   20.9946 C   0  0  0  0  0  0  0  0  0  0  0  0
   10.6885  -16.3635   21.6167 O   0  0  0  0  0  0  0  0  0  0  0  0
    7.0416  -11.5594   27.9637 O   0  0  0  0  0  0  0  0  0  0  0  0
    7.0834  -12.2827   26.7882 C   0  0  0  0  0  0  0  0  0  0  0  0
    6.3807  -13.4532   26.5926 C   0  0  0  0  0  0  0  0  0  0  0  0
    6.4749  -14.1310   25.3691 C   0  0  0  0  0  0  0  0  0  0  0  0
    7.2651  -13.6424   24.3497 C   0  0  0  0  0  0  0  0  0  0  0  0
    7.3582  -14.3469   23.0990 C   0  0  0  0  0  0  0  0  0  0  0  0
    8.5604  -15.1429   22.7896 C   0  0  2  0  0  0  0  0  0  0  0  0
    8.4541  -15.9149   21.5593 N   0  0  0  0  0  0  0  0  0  0  0  0
    8.7317  -16.1634   23.8919 C   0  0  0  0  0  0  0  0  0  0  0  0
    7.9932  -17.1757   23.9890 O   0  0  0  0  0  0  0  0  0  0  0  0
    7.9492  -12.4783   24.5770 C   0  0  0  0  0  0  0  0  0  0  0  0
    7.8844  -11.7806   25.7651 C   0  0  0  0  0  0  0  0  0  0  0  0
    9.7645  -15.9623   24.8440 N   0  0  0  0  0  0  0  0  0  0  0  0
    9.9977  -16.9255   25.8974 C   0  0  1  0  0  0  0  0  0  0  0  0
   11.3944  -17.4783   25.7067 C   0  0  0  0  0  0  0  0  0  0  0  0
   11.8551  -18.5671   27.0833 S   0  0  0  0  0  0  0  0  0  0  0  0
    9.7925  -16.3491   27.2268 C   0  0  0  0  0  0  0  0  0  0  0  0
    9.8942  -15.1288   27.4620 O   0  0  0  0  0  0  0  0  0  0  0  0
    9.4699  -17.1871   28.2823 O   0  0  0  0  0  0  0  0  0  0  0  0
  2  1  1  1
  3  2  1  0
  4  3  1  0
  5  4  1  0
  5  6  1  0
  7  6  1  0
  8  2  1  0
  8  9  2  0
 10 11  1  0
 11 12  2  0
 12 13  1  0
 14 13  2  0
 14 15  1  0
 16 15  1  1
 16 17  1  0
 17  8  1  0
 18 16  1  0
 19 18  2  0
 20 14  1  0
 21 11  1  0
 21 20  2  0
 22 18  1  0
 23 26  1  0
 23 22  1  0
 23 24  1  1
 25 24  1  0
 26 28  1  0
 27 26  2  0
M  END
$$$$
