KYC.pdb
     RDKit          3D

 28 28  0  0  1  0  0  0  0  0999 V2000
    7.4957  -17.3249   20.0256 N   0  0  0  0  0  0  0  0  0  0  0  0
    7.9210  -16.2822   20.9347 C   0  0  1  0  0  0  0  0  0  0  0  0
    7.4702  -14.9051   20.5163 C   0  0  0  0  0  0  0  0  0  0  0  0
    8.1313  -14.4547   19.2742 C   0  0  0  0  0  0  0  0  0  0  0  0
    7.6510  -13.2040   18.6450 C   0  0  0  0  0  0  0  0  0  0  0  0
    8.4319  -12.7862   17.4257 C   0  0  0  0  0  0  0  0  0  0  0  0
    8.3402  -13.8818   16.4701 N   0  0  0  0  0  0  0  0  0  0  0  0
    7.2986  -16.5623   22.2597 C   0  0  0  0  0  0  0  0  0  0  0  0
    6.1287  -17.0810   22.3245 O   0  0  0  0  0  0  0  0  0  0  0  0
    8.2917  -23.0105   23.6379 O   0  0  0  0  0  0  0  0  0  0  0  0
    8.2865  -21.7013   24.0770 C   0  0  0  0  0  0  0  0  0  0  0  0
    9.3541  -20.8431   23.9161 C   0  0  0  0  0  0  0  0  0  0  0  0
    9.2723  -19.5264   24.3898 C   0  0  0  0  0  0  0  0  0  0  0  0
    8.1325  -19.0714   25.0193 C   0  0  0  0  0  0  0  0  0  0  0  0
    8.0594  -17.7195   25.5053 C   0  0  0  0  0  0  0  0  0  0  0  0
    7.2855  -16.7096   24.7597 C   0  0  2  0  0  0  0  0  0  0  0  0
    7.9094  -16.2945   23.5110 N   0  0  0  0  0  0  0  0  0  0  0  0
    7.2188  -15.4618   25.6109 C   0  0  0  0  0  0  0  0  0  0  0  0
    6.7965  -15.4795   26.7944 O   0  0  0  0  0  0  0  0  0  0  0  0
    7.0914  -19.9491   25.1627 C   0  0  0  0  0  0  0  0  0  0  0  0
    7.1306  -21.2519   24.7113 C   0  0  0  0  0  0  0  0  0  0  0  0
    7.6501  -14.2342   25.0448 N   0  0  0  0  0  0  0  0  0  0  0  0
    7.6365  -13.0152   25.8229 C   0  0  1  0  0  0  0  0  0  0  0  0
    6.1917  -12.5884   25.9739 C   0  0  0  0  0  0  0  0  0  0  0  0
    6.0209  -11.3179   27.2581 S   0  0  0  0  0  0  0  0  0  0  0  0
    8.3183  -13.1739   27.1081 C   0  0  0  0  0  0  0  0  0  0  0  0
    8.5263  -12.2245   27.8894 O   0  0  0  0  0  0  0  0  0  0  0  0
    8.7586  -14.4321   27.4867 O   0  0  0  0  0  0  0  0  0  0  0  0
  2  1  1  6
  3  2  1  0
  4  3  1  0
  5  4  1  0
  5  6  1  0
  7  6  1  0
  8  2  1  0
  8  9  2  0
 10 11  1  0
 11 12  2  0
 12 13  1  0
 14 13  2  0
 14 15  1  0
 16 15  1  1
 16 17  1  0
 17  8  1  0
 18 16  1  0
 19 18  2  0
 20 14  1  0
 21 11  1  0
 21 20  2  0
 22 18  1  0
 23 26  1  0
 23 22  1  0
 23 24  1  1
 25 24  1  0
 26 28  1  0
 27 26  2  0
M  END
$$$$
