KYC.pdb
     RDKit          3D

 28 28  0  0  1  0  0  0  0  0999 V2000
    7.6400  -23.3081   21.2353 N   0  0  0  0  0  0  0  0  0  0  0  0
    6.5030  -22.4860   20.8800 C   0  0  1  0  0  0  0  0  0  0  0  0
    5.4382  -23.2364   20.1200 C   0  0  0  0  0  0  0  0  0  0  0  0
    5.9736  -23.8917   18.9090 C   0  0  0  0  0  0  0  0  0  0  0  0
    5.0629  -24.7572   18.1264 C   0  0  0  0  0  0  0  0  0  0  0  0
    5.7119  -25.4261   16.9422 C   0  0  0  0  0  0  0  0  0  0  0  0
    4.7083  -26.2990   16.3484 N   0  0  0  0  0  0  0  0  0  0  0  0
    5.8816  -22.0094   22.1481 C   0  0  0  0  0  0  0  0  0  0  0  0
    4.8756  -21.2164   22.1135 O   0  0  0  0  0  0  0  0  0  0  0  0
    1.1240  -26.2589   22.5361 O   0  0  0  0  0  0  0  0  0  0  0  0
    2.0151  -25.4674   23.2333 C   0  0  0  0  0  0  0  0  0  0  0  0
    1.6343  -24.3686   23.9747 C   0  0  0  0  0  0  0  0  0  0  0  0
    2.5996  -23.6139   24.6556 C   0  0  0  0  0  0  0  0  0  0  0  0
    3.9347  -23.9550   24.5957 C   0  0  0  0  0  0  0  0  0  0  0  0
    4.9182  -23.1723   25.2950 C   0  0  0  0  0  0  0  0  0  0  0  0
    5.5485  -22.0166   24.6302 C   0  0  2  0  0  0  0  0  0  0  0  0
    6.3218  -22.3683   23.4473 N   0  0  0  0  0  0  0  0  0  0  0  0
    6.5433  -21.4165   25.5978 C   0  0  0  0  0  0  0  0  0  0  0  0
    6.2423  -21.1479   26.7881 O   0  0  0  0  0  0  0  0  0  0  0  0
    4.2784  -25.0513   23.8509 C   0  0  0  0  0  0  0  0  0  0  0  0
    3.3609  -25.8206   23.1662 C   0  0  0  0  0  0  0  0  0  0  0  0
    7.8588  -21.1517   25.1365 N   0  0  0  0  0  0  0  0  0  0  0  0
    8.8613  -20.6124   26.0286 C   0  0  1  0  0  0  0  0  0  0  0  0
    8.2904  -20.6512   27.4305 C   0  0  0  0  0  0  0  0  0  0  0  0
    9.5631  -20.2527   28.6610 S   0  0  0  0  0  0  0  0  0  0  0  0
   10.1373  -21.3199   25.9162 C   0  0  0  0  0  0  0  0  0  0  0  0
   10.2499  -22.4376   25.3748 O   0  0  0  0  0  0  0  0  0  0  0  0
   11.2817  -20.7320   26.4310 O   0  0  0  0  0  0  0  0  0  0  0  0
  2  1  1  1
  3  2  1  0
  4  3  1  0
  5  4  1  0
  5  6  1  0
  7  6  1  0
  8  2  1  0
  8  9  2  0
 10 11  1  0
 11 12  2  0
 12 13  1  0
 14 13  2  0
 14 15  1  0
 16 15  1  1
 16 17  1  0
 17  8  1  0
 18 16  1  0
 19 18  2  0
 20 14  1  0
 21 11  1  0
 21 20  2  0
 22 18  1  0
 23 26  1  0
 23 22  1  0
 23 24  1  1
 25 24  1  0
 26 28  1  0
 27 26  2  0
M  END
$$$$
