KYC.pdb
     RDKit          3D

 28 28  0  0  1  0  0  0  0  0999 V2000
   10.7006  -16.9592   19.0504 N   0  0  0  0  0  0  0  0  0  0  0  0
    9.6369  -17.4222   19.9157 C   0  0  1  0  0  0  0  0  0  0  0  0
    9.8446  -18.8297   20.4162 C   0  0  0  0  0  0  0  0  0  0  0  0
    9.1387  -19.8274   19.5861 C   0  0  0  0  0  0  0  0  0  0  0  0
    9.9542  -20.7837   18.8044 C   0  0  0  0  0  0  0  0  0  0  0  0
    9.1485  -21.8017   18.0391 C   0  0  0  0  0  0  0  0  0  0  0  0
   10.1004  -22.6527   17.3382 N   0  0  0  0  0  0  0  0  0  0  0  0
    9.6127  -16.5321   21.1110 C   0  0  0  0  0  0  0  0  0  0  0  0
   10.7056  -16.2184   21.7020 O   0  0  0  0  0  0  0  0  0  0  0  0
    6.6168  -11.6971   28.0360 O   0  0  0  0  0  0  0  0  0  0  0  0
    6.8175  -12.3228   26.8216 C   0  0  0  0  0  0  0  0  0  0  0  0
    7.7089  -11.8683   25.8724 C   0  0  0  0  0  0  0  0  0  0  0  0
    7.8565  -12.5595   24.6618 C   0  0  0  0  0  0  0  0  0  0  0  0
    7.1190  -13.6959   24.4024 C   0  0  0  0  0  0  0  0  0  0  0  0
    7.2749  -14.3963   23.1558 C   0  0  0  0  0  0  0  0  0  0  0  0
    8.4931  -15.1881   22.9031 C   0  0  2  0  0  0  0  0  0  0  0  0
    8.4388  -15.9767   21.6799 N   0  0  0  0  0  0  0  0  0  0  0  0
    8.6284  -16.1932   24.0245 C   0  0  0  0  0  0  0  0  0  0  0  0
    7.8136  -17.1372   24.1805 O   0  0  0  0  0  0  0  0  0  0  0  0
    6.2434  -14.1197   25.3660 C   0  0  0  0  0  0  0  0  0  0  0  0
    6.0678  -13.4695   26.5697 C   0  0  0  0  0  0  0  0  0  0  0  0
    9.7159  -16.0572   24.9258 N   0  0  0  0  0  0  0  0  0  0  0  0
    9.9011  -16.9972   26.0092 C   0  0  1  0  0  0  0  0  0  0  0  0
   11.2508  -17.6553   25.8143 C   0  0  0  0  0  0  0  0  0  0  0  0
   11.4134  -18.3172   24.1326 S   0  0  0  0  0  0  0  0  0  0  0  0
    9.7643  -16.3614   27.3202 C   0  0  0  0  0  0  0  0  0  0  0  0
    9.5608  -15.1398   27.4657 O   0  0  0  0  0  0  0  0  0  0  0  0
    9.8634  -17.1415   28.4613 O   0  0  0  0  0  0  0  0  0  0  0  0
  2  1  1  6
  3  2  1  0
  4  3  1  0
  5  4  1  0
  5  6  1  0
  7  6  1  0
  8  2  1  0
  8  9  2  0
 10 11  1  0
 11 12  2  0
 12 13  1  0
 14 13  2  0
 14 15  1  0
 16 15  1  1
 16 17  1  0
 17  8  1  0
 18 16  1  0
 19 18  2  0
 20 14  1  0
 21 11  1  0
 21 20  2  0
 22 18  1  0
 23 26  1  0
 23 22  1  0
 23 24  1  1
 25 24  1  0
 26 28  1  0
 27 26  2  0
M  END
$$$$
