SDI.pdb
     RDKit          3D

 23 22  0  0  1  0  0  0  0  0999 V2000
   14.0701  -12.6204  -14.2154 O   0  0  0  0  0  0  0  0  0  0  0  0
   15.2984  -12.0338  -14.4822 C   0  0  0  0  0  0  0  0  0  0  0  0
   15.7800  -12.2445  -15.8951 C   0  0  2  0  0  0  0  0  0  0  0  0
   16.0712  -13.6632  -16.0897 N   0  0  0  0  0  0  0  0  0  0  0  0
   16.9675  -11.4316  -16.2483 C   0  0  0  0  0  0  0  0  0  0  0  0
   18.1100  -11.9868  -16.1859 O   0  0  0  0  0  0  0  0  0  0  0  0
   16.8988  -10.0737  -16.6514 N   0  0  0  0  0  0  0  0  0  0  0  0
   18.0249   -9.2859  -17.0971 C   0  0  1  0  0  0  0  0  0  0  0  0
   17.6041   -8.2647  -18.0874 C   0  0  0  0  0  0  0  0  0  0  0  0
   18.7284   -7.4820  -18.6226 C   0  0  0  0  0  0  0  0  0  0  0  0
   19.8480   -8.0060  -18.7586 O   0  0  0  0  0  0  0  0  0  0  0  0
   18.7756   -8.7442  -15.9456 C   0  0  0  0  0  0  0  0  0  0  0  0
   18.1133   -8.2253  -15.0143 O   0  0  0  0  0  0  0  0  0  0  0  0
   18.5420   -6.1676  -18.9738 O   0  0  0  0  0  0  0  0  0  0  0  0
   24.0396  -10.4616  -14.9093 C   0  0  0  0  0  0  0  0  0  0  0  0
   23.0052   -9.4394  -15.2798 C   0  0  0  0  0  0  0  0  0  0  0  0
   21.9575   -9.2263  -14.2161 C   0  0  2  0  0  0  0  0  0  0  0  0
   21.4351  -10.5273  -13.6864 C   0  0  0  0  0  0  0  0  0  0  0  0
   20.8661   -8.2722  -14.6399 C   0  0  2  0  0  0  0  0  0  0  0  0
   20.1773   -8.7704  -15.8232 N   0  0  0  0  0  0  0  0  0  0  0  0
   21.5180   -6.9995  -15.0210 C   0  0  0  0  0  0  0  0  0  0  0  0
   22.1694   -6.2170  -14.0653 O   0  0  0  0  0  0  0  0  0  0  0  0
   21.5129   -6.5803  -16.1913 O   0  0  0  0  0  0  0  0  0  0  0  0
  2  1  1  0
  3  2  1  0
  3  4  1  1
  5  3  1  0
  6  5  2  0
  7  5  1  0
  8 12  1  0
  8  7  1  0
  8  9  1  6
 10 14  1  0
 10  9  1  0
 11 10  2  0
 12 20  1  0
 13 12  2  0
 16 15  1  0
 17 16  1  0
 17 18  1  6
 19 21  1  0
 19 17  1  0
 19 20  1  6
 21 22  1  0
 23 21  2  0
M  END
$$$$
