SDI.pdb
     RDKit          3D

 23 22  0  0  1  0  0  0  0  0999 V2000
   24.5790  -31.8426   -7.3245 O   0  0  0  0  0  0  0  0  0  0  0  0
   25.7530  -31.9194   -8.0592 C   0  0  0  0  0  0  0  0  0  0  0  0
   26.2722  -33.3241   -8.2328 C   0  0  2  0  0  0  0  0  0  0  0  0
   25.4369  -34.0204   -9.2090 N   0  0  0  0  0  0  0  0  0  0  0  0
   26.3289  -34.0996   -6.9715 C   0  0  0  0  0  0  0  0  0  0  0  0
   25.3493  -34.8624   -6.6960 O   0  0  0  0  0  0  0  0  0  0  0  0
   27.4128  -34.0379   -6.0590 N   0  0  0  0  0  0  0  0  0  0  0  0
   27.4680  -34.7321   -4.7933 C   0  0  1  0  0  0  0  0  0  0  0  0
   28.8658  -34.8553   -4.3119 C   0  0  0  0  0  0  0  0  0  0  0  0
   28.9874  -35.6726   -3.0952 C   0  0  0  0  0  0  0  0  0  0  0  0
   28.4883  -35.2816   -2.0254 O   0  0  0  0  0  0  0  0  0  0  0  0
   26.5401  -34.1223   -3.8186 C   0  0  0  0  0  0  0  0  0  0  0  0
   26.6645  -32.8944   -3.5899 O   0  0  0  0  0  0  0  0  0  0  0  0
   29.6543  -36.8722   -3.1399 O   0  0  0  0  0  0  0  0  0  0  0  0
   21.5292  -33.9159   -4.4028 C   0  0  0  0  0  0  0  0  0  0  0  0
   22.9322  -33.6880   -3.9209 C   0  0  0  0  0  0  0  0  0  0  0  0
   23.2139  -34.2962   -2.5699 C   0  0  2  0  0  0  0  0  0  0  0  0
   22.2570  -33.7984   -1.5294 C   0  0  0  0  0  0  0  0  0  0  0  0
   24.6615  -34.1786   -2.1556 C   0  0  2  0  0  0  0  0  0  0  0  0
   25.5305  -34.8222   -3.1321 N   0  0  0  0  0  0  0  0  0  0  0  0
   24.8162  -34.9181   -0.8831 C   0  0  0  0  0  0  0  0  0  0  0  0
   24.5713  -34.2919    0.3407 O   0  0  0  0  0  0  0  0  0  0  0  0
   25.1656  -36.1108   -0.8516 O   0  0  0  0  0  0  0  0  0  0  0  0
  2  1  1  0
  3  2  1  0
  3  4  1  6
  5  3  1  0
  6  5  2  0
  7  5  1  0
  8 12  1  0
  8  7  1  0
  8  9  1  1
 10 14  1  0
 10  9  1  0
 11 10  2  0
 12 20  1  0
 13 12  2  0
 16 15  1  0
 17 16  1  0
 17 18  1  1
 19 21  1  0
 19 17  1  0
 19 20  1  6
 21 22  1  0
 23 21  2  0
M  END
$$$$
