SDI.pdb
     RDKit          3D

 23 22  0  0  1  0  0  0  0  0999 V2000
   15.2782  -12.0174  -15.3093 O   0  0  0  0  0  0  0  0  0  0  0  0
   14.9054  -11.8241  -16.6314 C   0  0  0  0  0  0  0  0  0  0  0  0
   16.0332  -12.0068  -17.6151 C   0  0  2  0  0  0  0  0  0  0  0  0
   16.5144  -13.3841  -17.5336 N   0  0  0  0  0  0  0  0  0  0  0  0
   17.1593  -11.0651  -17.4135 C   0  0  0  0  0  0  0  0  0  0  0  0
   18.3299  -11.5501  -17.3050 O   0  0  0  0  0  0  0  0  0  0  0  0
   17.0028   -9.6577  -17.3364 N   0  0  0  0  0  0  0  0  0  0  0  0
   18.0893   -8.7066  -17.2900 C   0  0  1  0  0  0  0  0  0  0  0  0
   17.6573   -7.3771  -17.7864 C   0  0  0  0  0  0  0  0  0  0  0  0
   18.7343   -6.3756  -17.7664 C   0  0  0  0  0  0  0  0  0  0  0  0
   19.8697   -6.6683  -18.1809 O   0  0  0  0  0  0  0  0  0  0  0  0
   18.7104   -8.6836  -15.9496 C   0  0  0  0  0  0  0  0  0  0  0  0
   17.9439   -8.6661  -14.9559 O   0  0  0  0  0  0  0  0  0  0  0  0
   18.4860   -5.1124  -17.2885 O   0  0  0  0  0  0  0  0  0  0  0  0
   23.8603  -10.7021  -15.0305 C   0  0  0  0  0  0  0  0  0  0  0  0
   22.8437   -9.6065  -15.1671 C   0  0  0  0  0  0  0  0  0  0  0  0
   21.6993   -9.7185  -14.1913 C   0  0  2  0  0  0  0  0  0  0  0  0
   21.1211  -11.1011  -14.1738 C   0  0  0  0  0  0  0  0  0  0  0  0
   20.6591   -8.6379  -14.3690 C   0  0  2  0  0  0  0  0  0  0  0  0
   20.0977   -8.6796  -15.7128 N   0  0  0  0  0  0  0  0  0  0  0  0
   21.3486   -7.3362  -14.2269 C   0  0  0  0  0  0  0  0  0  0  0  0
   21.5210   -6.4958  -15.3287 O   0  0  0  0  0  0  0  0  0  0  0  0
   21.7963   -6.9425  -13.1360 O   0  0  0  0  0  0  0  0  0  0  0  0
  2  1  1  0
  3  2  1  0
  3  4  1  1
  5  3  1  0
  6  5  2  0
  7  5  1  0
  8 12  1  0
  8  7  1  0
  8  9  1  1
 10 14  1  0
 10  9  1  0
 11 10  2  0
 12 20  1  0
 13 12  2  0
 16 15  1  0
 17 16  1  0
 17 18  1  6
 19 21  1  0
 19 17  1  0
 19 20  1  6
 21 22  1  0
 23 21  2  0
M  END
$$$$
