SDI.pdb
     RDKit          3D

 23 22  0  0  1  0  0  0  0  0999 V2000
   16.6358  -13.8745  -17.1053 O   0  0  0  0  0  0  0  0  0  0  0  0
   17.1905  -12.6149  -17.2773 C   0  0  0  0  0  0  0  0  0  0  0  0
   17.3539  -11.8409  -15.9939 C   0  0  2  0  0  0  0  0  0  0  0  0
   16.0320  -11.5668  -15.4345 N   0  0  0  0  0  0  0  0  0  0  0  0
   18.1081  -10.5753  -16.1522 C   0  0  0  0  0  0  0  0  0  0  0  0
   19.3198  -10.6468  -16.5319 O   0  0  0  0  0  0  0  0  0  0  0  0
   17.5536   -9.2937  -15.9048 N   0  0  0  0  0  0  0  0  0  0  0  0
   18.2355   -8.0404  -16.1317 C   0  0  1  0  0  0  0  0  0  0  0  0
   17.2745   -6.9639  -16.4762 C   0  0  0  0  0  0  0  0  0  0  0  0
   17.9188   -5.6567  -16.6743 C   0  0  0  0  0  0  0  0  0  0  0  0
   17.4305   -4.6337  -16.1626 O   0  0  0  0  0  0  0  0  0  0  0  0
   19.1317   -7.7179  -15.0023 C   0  0  0  0  0  0  0  0  0  0  0  0
   18.6500   -7.7778  -13.8448 O   0  0  0  0  0  0  0  0  0  0  0  0
   19.0637   -5.5645  -17.4267 O   0  0  0  0  0  0  0  0  0  0  0  0
   24.2826   -9.3857  -15.0953 C   0  0  0  0  0  0  0  0  0  0  0  0
   23.2497   -8.2983  -15.1509 C   0  0  0  0  0  0  0  0  0  0  0  0
   22.4114   -8.1962  -13.9014 C   0  0  2  0  0  0  0  0  0  0  0  0
   21.8765   -9.5325  -13.4839 C   0  0  0  0  0  0  0  0  0  0  0  0
   21.3483   -7.1266  -13.9850 C   0  0  2  0  0  0  0  0  0  0  0  0
   20.4833   -7.3492  -15.1361 N   0  0  0  0  0  0  0  0  0  0  0  0
   22.0389   -5.8363  -14.2043 C   0  0  0  0  0  0  0  0  0  0  0  0
   21.8899   -5.1421  -15.4068 O   0  0  0  0  0  0  0  0  0  0  0  0
   22.7701   -5.3241  -13.3391 O   0  0  0  0  0  0  0  0  0  0  0  0
  2  1  1  0
  3  2  1  0
  3  4  1  6
  5  3  1  0
  6  5  2  0
  7  5  1  0
  8 12  1  0
  8  7  1  0
  8  9  1  1
 10 14  1  0
 10  9  1  0
 11 10  2  0
 12 20  1  0
 13 12  2  0
 16 15  1  0
 17 16  1  0
 17 18  1  6
 19 21  1  0
 19 17  1  0
 19 20  1  6
 21 22  1  0
 23 21  2  0
M  END
$$$$
