SDI.pdb
     RDKit          3D

 23 22  0  0  1  0  0  0  0  0999 V2000
   14.0769  -11.8545  -15.0126 O   0  0  0  0  0  0  0  0  0  0  0  0
   15.1812  -11.0157  -15.0449 C   0  0  0  0  0  0  0  0  0  0  0  0
   15.8278  -10.9121  -16.4028 C   0  0  2  0  0  0  0  0  0  0  0  0
   16.4182  -12.2040  -16.7461 N   0  0  0  0  0  0  0  0  0  0  0  0
   16.8536   -9.8469  -16.4956 C   0  0  0  0  0  0  0  0  0  0  0  0
   18.0240  -10.1770  -16.8679 O   0  0  0  0  0  0  0  0  0  0  0  0
   16.6013   -8.4843  -16.1938 N   0  0  0  0  0  0  0  0  0  0  0  0
   17.5545   -7.4112  -16.3583 C   0  0  1  0  0  0  0  0  0  0  0  0
   16.8676   -6.1059  -16.5161 C   0  0  0  0  0  0  0  0  0  0  0  0
   17.7979   -4.9847  -16.7175 C   0  0  0  0  0  0  0  0  0  0  0  0
   18.9166   -5.1821  -17.2236 O   0  0  0  0  0  0  0  0  0  0  0  0
   18.5682   -7.4397  -15.2838 C   0  0  0  0  0  0  0  0  0  0  0  0
   18.1601   -7.5850  -14.1058 O   0  0  0  0  0  0  0  0  0  0  0  0
   17.4306   -3.7148  -16.3457 O   0  0  0  0  0  0  0  0  0  0  0  0
   23.6829  -10.0606  -13.7192 C   0  0  0  0  0  0  0  0  0  0  0  0
   22.8883   -8.7941  -13.5887 C   0  0  0  0  0  0  0  0  0  0  0  0
   21.8337   -8.6294  -14.6540 C   0  0  2  0  0  0  0  0  0  0  0  0
   22.4304   -8.6406  -16.0288 C   0  0  0  0  0  0  0  0  0  0  0  0
   20.9201   -7.4520  -14.4087 C   0  0  2  0  0  0  0  0  0  0  0  0
   19.9545   -7.3150  -15.4911 N   0  0  0  0  0  0  0  0  0  0  0  0
   21.7601   -6.2337  -14.4198 C   0  0  0  0  0  0  0  0  0  0  0  0
   21.7095   -5.3415  -15.4927 O   0  0  0  0  0  0  0  0  0  0  0  0
   22.5348   -5.9581  -13.4873 O   0  0  0  0  0  0  0  0  0  0  0  0
  2  1  1  0
  3  2  1  0
  3  4  1  1
  5  3  1  0
  6  5  2  0
  7  5  1  0
  8 12  1  0
  8  7  1  0
  8  9  1  1
 10 14  1  0
 10  9  1  0
 11 10  2  0
 12 20  1  0
 13 12  2  0
 16 15  1  0
 17 16  1  0
 17 18  1  6
 19 21  1  0
 19 17  1  0
 19 20  1  6
 21 22  1  0
 23 21  2  0
M  END
$$$$
