SDI.pdb
     RDKit          3D

 23 22  0  0  1  0  0  0  0  0999 V2000
   17.2582  -13.7356  -16.4030 O   0  0  0  0  0  0  0  0  0  0  0  0
   16.8253  -13.6883  -17.7199 C   0  0  0  0  0  0  0  0  0  0  0  0
   17.9452  -13.6320  -18.7276 C   0  0  2  0  0  0  0  0  0  0  0  0
   18.6990  -14.8825  -18.6684 N   0  0  0  0  0  0  0  0  0  0  0  0
   18.8596  -12.4812  -18.5399 C   0  0  0  0  0  0  0  0  0  0  0  0
   20.0750  -12.7255  -18.2565 O   0  0  0  0  0  0  0  0  0  0  0  0
   18.4541  -11.1275  -18.6597 N   0  0  0  0  0  0  0  0  0  0  0  0
   19.3340   -9.9877  -18.5413 C   0  0  1  0  0  0  0  0  0  0  0  0
   18.7923   -8.8163  -19.2728 C   0  0  0  0  0  0  0  0  0  0  0  0
   19.6603   -7.6319  -19.1894 C   0  0  0  0  0  0  0  0  0  0  0  0
   19.1890   -6.5326  -18.8484 O   0  0  0  0  0  0  0  0  0  0  0  0
   19.6626   -9.7226  -17.1255 C   0  0  0  0  0  0  0  0  0  0  0  0
   18.7573   -9.9071  -16.2760 O   0  0  0  0  0  0  0  0  0  0  0  0
   20.9961   -7.7394  -19.4888 O   0  0  0  0  0  0  0  0  0  0  0  0
   23.8707  -11.7867  -14.9033 C   0  0  0  0  0  0  0  0  0  0  0  0
   22.5372  -11.1555  -15.1787 C   0  0  0  0  0  0  0  0  0  0  0  0
   22.4811   -9.6875  -14.8379 C   0  0  2  0  0  0  0  0  0  0  0  0
   22.8344   -9.4395  -13.4026 C   0  0  0  0  0  0  0  0  0  0  0  0
   21.1882   -9.0291  -15.2574 C   0  0  2  0  0  0  0  0  0  0  0  0
   20.9170   -9.2787  -16.6670 N   0  0  0  0  0  0  0  0  0  0  0  0
   21.3678   -7.5685  -15.1020 C   0  0  0  0  0  0  0  0  0  0  0  0
   21.2956   -6.9704  -13.8422 O   0  0  0  0  0  0  0  0  0  0  0  0
   21.5873   -6.8239  -16.0731 O   0  0  0  0  0  0  0  0  0  0  0  0
  2  1  1  0
  3  2  1  0
  3  4  1  1
  5  3  1  0
  6  5  2  0
  7  5  1  0
  8 12  1  0
  8  7  1  0
  8  9  1  1
 10 14  1  0
 10  9  1  0
 11 10  2  0
 12 20  1  0
 13 12  2  0
 16 15  1  0
 17 16  1  0
 17 18  1  1
 19 21  1  0
 19 17  1  0
 19 20  1  6
 21 22  1  0
 23 21  2  0
M  END
$$$$
