SDI.pdb
     RDKit          3D

 23 22  0  0  1  0  0  0  0  0999 V2000
   14.1574  -11.5466  -14.0666 O   0  0  0  0  0  0  0  0  0  0  0  0
   14.5919  -10.7966  -15.1496 C   0  0  0  0  0  0  0  0  0  0  0  0
   15.8908  -11.2797  -15.7431 C   0  0  2  0  0  0  0  0  0  0  0  0
   16.5825  -12.1082  -14.7580 N   0  0  0  0  0  0  0  0  0  0  0  0
   16.7814  -10.1869  -16.1993 C   0  0  0  0  0  0  0  0  0  0  0  0
   17.7929  -10.4974  -16.9048 O   0  0  0  0  0  0  0  0  0  0  0  0
   16.5670   -8.8188  -15.8935 N   0  0  0  0  0  0  0  0  0  0  0  0
   17.3350   -7.7209  -16.4338 C   0  0  1  0  0  0  0  0  0  0  0  0
   16.4473   -6.6423  -16.9331 C   0  0  0  0  0  0  0  0  0  0  0  0
   17.1856   -5.4856  -17.4622 C   0  0  0  0  0  0  0  0  0  0  0  0
   18.0437   -5.6423  -18.3486 O   0  0  0  0  0  0  0  0  0  0  0  0
   18.3575   -7.2694  -15.4676 C   0  0  0  0  0  0  0  0  0  0  0  0
   18.0328   -7.2307  -14.2559 O   0  0  0  0  0  0  0  0  0  0  0  0
   16.9270   -4.2276  -16.9763 O   0  0  0  0  0  0  0  0  0  0  0  0
   22.0911   -9.2291  -14.0230 C   0  0  0  0  0  0  0  0  0  0  0  0
   22.1210   -8.5236  -15.3473 C   0  0  0  0  0  0  0  0  0  0  0  0
   22.0330   -7.0223  -15.2348 C   0  0  2  0  0  0  0  0  0  0  0  0
   23.1451   -6.4646  -14.3992 C   0  0  0  0  0  0  0  0  0  0  0  0
   20.6666   -6.5373  -14.8118 C   0  0  2  0  0  0  0  0  0  0  0  0
   19.6654   -6.8810  -15.8129 N   0  0  0  0  0  0  0  0  0  0  0  0
   20.7252   -5.0601  -14.7459 C   0  0  0  0  0  0  0  0  0  0  0  0
   21.1246   -4.4130  -13.5747 O   0  0  0  0  0  0  0  0  0  0  0  0
   20.4255   -4.3442  -15.7171 O   0  0  0  0  0  0  0  0  0  0  0  0
  2  1  1  0
  3  2  1  0
  3  4  1  1
  5  3  1  0
  6  5  2  0
  7  5  1  0
  8 12  1  0
  8  7  1  0
  8  9  1  1
 10 14  1  0
 10  9  1  0
 11 10  2  0
 12 20  1  0
 13 12  2  0
 16 15  1  0
 17 16  1  0
 17 18  1  1
 19 21  1  0
 19 17  1  0
 19 20  1  6
 21 22  1  0
 23 21  2  0
M  END
$$$$
