SDI.pdb
     RDKit          3D

 23 22  0  0  1  0  0  0  0  0999 V2000
   20.4249  -19.0462  -11.8570 O   0  0  0  0  0  0  0  0  0  0  0  0
   21.4347  -19.6652  -11.1351 C   0  0  0  0  0  0  0  0  0  0  0  0
   22.3448  -20.5249  -11.9749 C   0  0  2  0  0  0  0  0  0  0  0  0
   21.6158  -21.7213  -12.3904 N   0  0  0  0  0  0  0  0  0  0  0  0
   23.6009  -20.9107  -11.2900 C   0  0  0  0  0  0  0  0  0  0  0  0
   23.5453  -21.8361  -10.4194 O   0  0  0  0  0  0  0  0  0  0  0  0
   24.8568  -20.3067  -11.5527 N   0  0  0  0  0  0  0  0  0  0  0  0
   26.0941  -20.6513  -10.8912 C   0  0  1  0  0  0  0  0  0  0  0  0
   27.2663  -20.2338  -11.6989 C   0  0  0  0  0  0  0  0  0  0  0  0
   27.3795  -20.9625  -12.9714 C   0  0  0  0  0  0  0  0  0  0  0  0
   26.8457  -22.0779  -13.1043 O   0  0  0  0  0  0  0  0  0  0  0  0
   26.1036  -20.1512   -9.5009 C   0  0  0  0  0  0  0  0  0  0  0  0
   25.4095  -19.1372   -9.2451 O   0  0  0  0  0  0  0  0  0  0  0  0
   28.0769  -20.4098  -14.0173 O   0  0  0  0  0  0  0  0  0  0  0  0
   28.8165  -21.1474   -3.9213 C   0  0  0  0  0  0  0  0  0  0  0  0
   27.8577  -20.4064   -4.8068 C   0  0  0  0  0  0  0  0  0  0  0  0
   27.7928  -20.9467   -6.2133 C   0  0  2  0  0  0  0  0  0  0  0  0
   29.1608  -21.1618   -6.7864 C   0  0  0  0  0  0  0  0  0  0  0  0
   26.8859  -20.1448   -7.1165 C   0  0  2  0  0  0  0  0  0  0  0  0
   26.8354  -20.7325   -8.4487 N   0  0  0  0  0  0  0  0  0  0  0  0
   27.4846  -18.7989   -7.2583 C   0  0  0  0  0  0  0  0  0  0  0  0
   28.2875  -18.4870   -8.3574 O   0  0  0  0  0  0  0  0  0  0  0  0
   27.3001  -17.9029   -6.4165 O   0  0  0  0  0  0  0  0  0  0  0  0
  2  1  1  0
  3  2  1  0
  3  4  1  1
  5  3  1  0
  6  5  2  0
  7  5  1  0
  8 12  1  0
  8  7  1  0
  8  9  1  6
 10 14  1  0
 10  9  1  0
 11 10  2  0
 12 20  1  0
 13 12  2  0
 16 15  1  0
 17 16  1  0
 17 18  1  6
 19 21  1  0
 19 17  1  0
 19 20  1  6
 21 22  1  0
 23 21  2  0
M  END
$$$$
