SDI.pdb
     RDKit          3D

 23 22  0  0  1  0  0  0  0  0999 V2000
   20.8111  -22.0916  -11.2306 O   0  0  0  0  0  0  0  0  0  0  0  0
   19.9370  -21.2172  -11.8592 C   0  0  0  0  0  0  0  0  0  0  0  0
   19.6822  -21.5472  -13.3080 C   0  0  2  0  0  0  0  0  0  0  0  0
   19.3022  -22.9543  -13.4136 N   0  0  0  0  0  0  0  0  0  0  0  0
   20.8351  -21.2669  -14.1956 C   0  0  0  0  0  0  0  0  0  0  0  0
   21.6365  -22.2207  -14.4510 O   0  0  0  0  0  0  0  0  0  0  0  0
   21.0914  -19.9976  -14.7740 N   0  0  0  0  0  0  0  0  0  0  0  0
   22.1689  -19.7104  -15.6924 C   0  0  1  0  0  0  0  0  0  0  0  0
   21.7752  -18.6641  -16.6677 C   0  0  0  0  0  0  0  0  0  0  0  0
   22.8096  -18.3993  -17.6792 C   0  0  0  0  0  0  0  0  0  0  0  0
   23.6397  -19.2781  -17.9712 O   0  0  0  0  0  0  0  0  0  0  0  0
   23.4196  -19.4210  -14.9609 C   0  0  0  0  0  0  0  0  0  0  0  0
   23.3699  -18.5653  -14.0440 O   0  0  0  0  0  0  0  0  0  0  0  0
   22.8594  -17.1776  -18.3041 O   0  0  0  0  0  0  0  0  0  0  0  0
   25.9969  -22.0355  -11.5591 C   0  0  0  0  0  0  0  0  0  0  0  0
   25.5104  -20.9416  -12.4642 C   0  0  0  0  0  0  0  0  0  0  0  0
   26.4069  -20.6958  -13.6517 C   0  0  2  0  0  0  0  0  0  0  0  0
   27.8318  -20.4901  -13.2353 C   0  0  0  0  0  0  0  0  0  0  0  0
   25.8912  -19.6148  -14.5718 C   0  0  2  0  0  0  0  0  0  0  0  0
   24.6576  -20.0371  -15.2220 N   0  0  0  0  0  0  0  0  0  0  0  0
   26.9005  -19.4256  -15.6373 C   0  0  0  0  0  0  0  0  0  0  0  0
   26.8292  -20.1553  -16.8258 O   0  0  0  0  0  0  0  0  0  0  0  0
   27.8405  -18.6205  -15.5201 O   0  0  0  0  0  0  0  0  0  0  0  0
  2  1  1  0
  3  2  1  0
  3  4  1  1
  5  3  1  0
  6  5  2  0
  7  5  1  0
  8 12  1  0
  8  7  1  0
  8  9  1  1
 10 14  1  0
 10  9  1  0
 11 10  2  0
 12 20  1  0
 13 12  2  0
 16 15  1  0
 17 16  1  0
 17 18  1  1
 19 21  1  0
 19 17  1  0
 19 20  1  6
 21 22  1  0
 23 21  2  0
M  END
$$$$
