SDI.pdb
     RDKit          3D

 23 22  0  0  1  0  0  0  0  0999 V2000
   45.7775  -13.0840  -10.0542 O   0  0  0  0  0  0  0  0  0  0  0  0
   44.7581  -12.6069   -9.2435 C   0  0  0  0  0  0  0  0  0  0  0  0
   45.2220  -12.1625   -7.8796 C   0  0  2  0  0  0  0  0  0  0  0  0
   45.6325  -13.3369   -7.1130 N   0  0  0  0  0  0  0  0  0  0  0  0
   44.2041  -11.3958   -7.1236 C   0  0  0  0  0  0  0  0  0  0  0  0
   43.4145  -12.0411   -6.3636 O   0  0  0  0  0  0  0  0  0  0  0  0
   44.0640   -9.9866   -7.2008 N   0  0  0  0  0  0  0  0  0  0  0  0
   43.1068   -9.2088   -6.4484 C   0  0  1  0  0  0  0  0  0  0  0  0
   43.7562   -8.0418   -5.8026 C   0  0  0  0  0  0  0  0  0  0  0  0
   42.8132   -7.1982   -5.0528 C   0  0  0  0  0  0  0  0  0  0  0  0
   42.4825   -6.0836   -5.4942 O   0  0  0  0  0  0  0  0  0  0  0  0
   41.9348   -8.8694   -7.2816 C   0  0  0  0  0  0  0  0  0  0  0  0
   42.1491   -8.5157   -8.4667 O   0  0  0  0  0  0  0  0  0  0  0  0
   42.2955   -7.6423   -3.8610 O   0  0  0  0  0  0  0  0  0  0  0  0
   37.3377  -11.2432   -5.9715 C   0  0  0  0  0  0  0  0  0  0  0  0
   38.2811  -10.7045   -7.0070 C   0  0  0  0  0  0  0  0  0  0  0  0
   38.2006   -9.2083   -7.1783 C   0  0  2  0  0  0  0  0  0  0  0  0
   36.9833   -8.8056   -7.9544 C   0  0  0  0  0  0  0  0  0  0  0  0
   39.4769   -8.6018   -7.7114 C   0  0  2  0  0  0  0  0  0  0  0  0
   40.6001   -8.9153   -6.8379 N   0  0  0  0  0  0  0  0  0  0  0  0
   39.3077   -7.1319   -7.6902 C   0  0  0  0  0  0  0  0  0  0  0  0
   38.8007   -6.4556   -8.8018 O   0  0  0  0  0  0  0  0  0  0  0  0
   39.6056   -6.4479   -6.6958 O   0  0  0  0  0  0  0  0  0  0  0  0
  2  1  1  0
  3  2  1  0
  3  4  1  1
  5  3  1  0
  6  5  2  0
  7  5  1  0
  8 12  1  0
  8  7  1  0
  8  9  1  6
 10 14  1  0
 10  9  1  0
 11 10  2  0
 12 20  1  0
 13 12  2  0
 16 15  1  0
 17 16  1  0
 17 18  1  6
 19 21  1  0
 19 17  1  0
 19 20  1  1
 21 22  1  0
 23 21  2  0
M  END
$$$$
