SDI.pdb
     RDKit          3D

 23 22  0  0  1  0  0  0  0  0999 V2000
   26.7692  -23.4898  -17.7603 O   0  0  0  0  0  0  0  0  0  0  0  0
   27.6275  -22.4588  -18.1129 C   0  0  0  0  0  0  0  0  0  0  0  0
   28.1157  -21.6451  -16.9415 C   0  0  2  0  0  0  0  0  0  0  0  0
   28.8230  -22.5262  -16.0147 N   0  0  0  0  0  0  0  0  0  0  0  0
   27.0382  -20.9207  -16.2276 C   0  0  0  0  0  0  0  0  0  0  0  0
   27.3560  -20.2394  -15.2018 O   0  0  0  0  0  0  0  0  0  0  0  0
   25.6772  -20.9454  -16.6254 N   0  0  0  0  0  0  0  0  0  0  0  0
   24.6164  -20.1995  -15.9887 C   0  0  1  0  0  0  0  0  0  0  0  0
   23.5594  -19.8352  -16.9639 C   0  0  0  0  0  0  0  0  0  0  0  0
   22.4291  -19.1217  -16.3504 C   0  0  0  0  0  0  0  0  0  0  0  0
   22.6156  -18.0442  -15.7580 O   0  0  0  0  0  0  0  0  0  0  0  0
   24.1212  -20.9086  -14.7908 C   0  0  0  0  0  0  0  0  0  0  0  0
   23.8137  -22.1186  -14.9195 O   0  0  0  0  0  0  0  0  0  0  0  0
   21.1627  -19.6465  -16.4316 O   0  0  0  0  0  0  0  0  0  0  0  0
   26.3518  -20.4310   -9.8937 C   0  0  0  0  0  0  0  0  0  0  0  0
   25.6248  -20.9619  -11.0945 C   0  0  0  0  0  0  0  0  0  0  0  0
   24.1536  -20.6304  -11.1060 C   0  0  2  0  0  0  0  0  0  0  0  0
   23.4691  -21.1107   -9.8623 C   0  0  0  0  0  0  0  0  0  0  0  0
   23.4575  -21.0609  -12.3755 C   0  0  2  0  0  0  0  0  0  0  0  0
   23.9715  -20.3213  -13.5207 N   0  0  0  0  0  0  0  0  0  0  0  0
   22.0279  -20.7054  -12.2353 C   0  0  0  0  0  0  0  0  0  0  0  0
   21.6079  -19.3783  -12.3479 O   0  0  0  0  0  0  0  0  0  0  0  0
   21.1538  -21.5615  -12.0148 O   0  0  0  0  0  0  0  0  0  0  0  0
  2  1  1  0
  3  2  1  0
  3  4  1  1
  5  3  1  0
  6  5  2  0
  7  5  1  0
  8 12  1  0
  8  7  1  0
  8  9  1  6
 10 14  1  0
 10  9  1  0
 11 10  2  0
 12 20  1  0
 13 12  2  0
 16 15  1  0
 17 16  1  0
 17 18  1  1
 19 21  1  0
 19 17  1  0
 19 20  1  6
 21 22  1  0
 23 21  2  0
M  END
$$$$
