SDI.pdb
     RDKit          3D

 23 22  0  0  1  0  0  0  0  0999 V2000
   16.9547  -15.5055  -16.5850 O   0  0  0  0  0  0  0  0  0  0  0  0
   17.4294  -14.2754  -17.0156 C   0  0  0  0  0  0  0  0  0  0  0  0
   17.5719  -13.2575  -15.9127 C   0  0  2  0  0  0  0  0  0  0  0  0
   16.2841  -13.1056  -15.2390 N   0  0  0  0  0  0  0  0  0  0  0  0
   18.0576  -11.9372  -16.3781 C   0  0  0  0  0  0  0  0  0  0  0  0
   19.2085  -11.8813  -16.9165 O   0  0  0  0  0  0  0  0  0  0  0  0
   17.3110  -10.7376  -16.2568 N   0  0  0  0  0  0  0  0  0  0  0  0
   17.7549   -9.4388  -16.7075 C   0  0  1  0  0  0  0  0  0  0  0  0
   16.6026   -8.5693  -17.0497 C   0  0  0  0  0  0  0  0  0  0  0  0
   15.8156   -9.0741  -18.1850 C   0  0  0  0  0  0  0  0  0  0  0  0
   14.6644   -9.5089  -18.0053 O   0  0  0  0  0  0  0  0  0  0  0  0
   18.7015   -8.8430  -15.7421 C   0  0  0  0  0  0  0  0  0  0  0  0
   18.4098   -8.9167  -14.5236 O   0  0  0  0  0  0  0  0  0  0  0  0
   16.3533   -9.0654  -19.4486 O   0  0  0  0  0  0  0  0  0  0  0  0
   22.3256  -10.1245  -13.8889 C   0  0  0  0  0  0  0  0  0  0  0  0
   22.4281   -9.5970  -15.2902 C   0  0  0  0  0  0  0  0  0  0  0  0
   22.2380   -8.1042  -15.3898 C   0  0  2  0  0  0  0  0  0  0  0  0
   23.2648   -7.3617  -14.5895 C   0  0  0  0  0  0  0  0  0  0  0  0
   20.8222   -7.6650  -15.1000 C   0  0  2  0  0  0  0  0  0  0  0  0
   19.9029   -8.2008  -16.0953 N   0  0  0  0  0  0  0  0  0  0  0  0
   20.7851   -6.1908  -15.2240 C   0  0  0  0  0  0  0  0  0  0  0  0
   20.9246   -5.3761  -14.0985 O   0  0  0  0  0  0  0  0  0  0  0  0
   20.6303   -5.6247  -16.3199 O   0  0  0  0  0  0  0  0  0  0  0  0
  2  1  1  0
  3  2  1  0
  3  4  1  6
  5  3  1  0
  6  5  2  0
  7  5  1  0
  8 12  1  0
  8  7  1  0
  8  9  1  1
 10 14  1  0
 10  9  1  0
 11 10  2  0
 12 20  1  0
 13 12  2  0
 16 15  1  0
 17 16  1  0
 17 18  1  1
 19 21  1  0
 19 17  1  0
 19 20  1  6
 21 22  1  0
 23 21  2  0
M  END
$$$$
