SDI.pdb
     RDKit          3D

 23 22  0  0  1  0  0  0  0  0999 V2000
   16.4754   -9.3419   -9.8704 O   0  0  0  0  0  0  0  0  0  0  0  0
   15.2330   -8.9280  -10.3277 C   0  0  0  0  0  0  0  0  0  0  0  0
   14.7993   -9.6003  -11.6055 C   0  0  2  0  0  0  0  0  0  0  0  0
   14.5109  -11.0055  -11.3272 N   0  0  0  0  0  0  0  0  0  0  0  0
   15.7910   -9.4952  -12.7014 C   0  0  0  0  0  0  0  0  0  0  0  0
   16.3990  -10.5535  -13.0589 O   0  0  0  0  0  0  0  0  0  0  0  0
   16.0969   -8.2831  -13.3712 N   0  0  0  0  0  0  0  0  0  0  0  0
   16.9622   -8.1707  -14.5226 C   0  0  1  0  0  0  0  0  0  0  0  0
   16.4796   -7.1211  -15.4533 C   0  0  0  0  0  0  0  0  0  0  0  0
   17.2819   -7.0260  -16.6822 C   0  0  0  0  0  0  0  0  0  0  0  0
   17.6751   -5.9187  -17.0895 O   0  0  0  0  0  0  0  0  0  0  0  0
   18.3715   -8.0149  -14.1075 C   0  0  0  0  0  0  0  0  0  0  0  0
   18.5971   -7.3782  -13.0496 O   0  0  0  0  0  0  0  0  0  0  0  0
   17.5987   -8.1636  -17.3830 O   0  0  0  0  0  0  0  0  0  0  0  0
   23.9112  -10.7421  -14.7174 C   0  0  0  0  0  0  0  0  0  0  0  0
   23.0998   -9.5415  -14.3267 C   0  0  0  0  0  0  0  0  0  0  0  0
   21.6589   -9.6167  -14.7652 C   0  0  2  0  0  0  0  0  0  0  0  0
   21.5417   -9.8930  -16.2335 C   0  0  0  0  0  0  0  0  0  0  0  0
   20.8375   -8.4328  -14.3124 C   0  0  2  0  0  0  0  0  0  0  0  0
   19.4735   -8.5298  -14.8153 N   0  0  0  0  0  0  0  0  0  0  0  0
   21.4383   -7.2235  -14.9178 C   0  0  0  0  0  0  0  0  0  0  0  0
   20.8290   -6.5907  -16.0033 O   0  0  0  0  0  0  0  0  0  0  0  0
   22.4954   -6.7277  -14.4908 O   0  0  0  0  0  0  0  0  0  0  0  0
  2  1  1  0
  3  2  1  0
  3  4  1  1
  5  3  1  0
  6  5  2  0
  7  5  1  0
  8 12  1  0
  8  7  1  0
  8  9  1  1
 10 14  1  0
 10  9  1  0
 11 10  2  0
 12 20  1  0
 13 12  2  0
 16 15  1  0
 17 16  1  0
 17 18  1  6
 19 21  1  0
 19 17  1  0
 19 20  1  6
 21 22  1  0
 23 21  2  0
M  END
$$$$
