SDI.pdb
     RDKit          3D

 23 22  0  0  1  0  0  0  0  0999 V2000
   25.6377  -19.7842  -10.1854 O   0  0  0  0  0  0  0  0  0  0  0  0
   25.3088  -21.1317  -10.1894 C   0  0  0  0  0  0  0  0  0  0  0  0
   25.6579  -21.8400  -11.4736 C   0  0  2  0  0  0  0  0  0  0  0  0
   27.1119  -21.8721  -11.6168 N   0  0  0  0  0  0  0  0  0  0  0  0
   25.0448  -21.2306  -12.6771 C   0  0  0  0  0  0  0  0  0  0  0  0
   25.8208  -20.7744  -13.5755 O   0  0  0  0  0  0  0  0  0  0  0  0
   23.6449  -21.1298  -12.8806 N   0  0  0  0  0  0  0  0  0  0  0  0
   23.0187  -20.5993  -14.0695 C   0  0  1  0  0  0  0  0  0  0  0  0
   21.5569  -20.8518  -14.0616 C   0  0  0  0  0  0  0  0  0  0  0  0
   20.8787  -20.3548  -15.2683 C   0  0  0  0  0  0  0  0  0  0  0  0
   21.3379  -20.6109  -16.3953 O   0  0  0  0  0  0  0  0  0  0  0  0
   23.3909  -19.1840  -14.2724 C   0  0  0  0  0  0  0  0  0  0  0  0
   23.2157  -18.3953  -13.3119 O   0  0  0  0  0  0  0  0  0  0  0  0
   19.7341  -19.6053  -15.1510 O   0  0  0  0  0  0  0  0  0  0  0  0
   28.1005  -17.6739  -15.3567 C   0  0  0  0  0  0  0  0  0  0  0  0
   26.6661  -17.6186  -14.9186 C   0  0  0  0  0  0  0  0  0  0  0  0
   25.7292  -17.0996  -15.9803 C   0  0  2  0  0  0  0  0  0  0  0  0
   26.0892  -15.7073  -16.4024 C   0  0  0  0  0  0  0  0  0  0  0  0
   24.2721  -17.2552  -15.6145 C   0  0  2  0  0  0  0  0  0  0  0  0
   23.9262  -18.6626  -15.4650 N   0  0  0  0  0  0  0  0  0  0  0  0
   23.4761  -16.7306  -16.7463 C   0  0  0  0  0  0  0  0  0  0  0  0
   23.2415  -17.5143  -17.8780 O   0  0  0  0  0  0  0  0  0  0  0  0
   22.9899  -15.5864  -16.7364 O   0  0  0  0  0  0  0  0  0  0  0  0
  2  1  1  0
  3  2  1  0
  3  4  1  6
  5  3  1  0
  6  5  2  0
  7  5  1  0
  8 12  1  0
  8  7  1  0
  8  9  1  1
 10 14  1  0
 10  9  1  0
 11 10  2  0
 12 20  1  0
 13 12  2  0
 16 15  1  0
 17 16  1  0
 17 18  1  1
 19 21  1  0
 19 17  1  0
 19 20  1  6
 21 22  1  0
 23 21  2  0
M  END
$$$$
