APA.pdb
     RDKit          3D

 18 18  0  0  1  0  0  0  0  0999 V2000
   17.2675   -8.3610  -16.2025 C   0  0  0  0  0  0  0  0  0  0  0  0
   18.0183   -9.5141  -15.5546 C   0  0  2  0  0  0  0  0  0  0  0  0
   17.5736  -10.7896  -16.0598 N   0  0  0  0  0  0  0  0  0  0  0  0
   17.9166   -9.3895  -14.0868 C   0  0  0  0  0  0  0  0  0  0  0  0
   16.9588  -10.0206  -13.5508 O   0  0  0  0  0  0  0  0  0  0  0  0
   18.7965   -8.6312  -13.2707 N   0  0  0  0  0  0  0  0  0  0  0  0
   19.9625   -7.9297  -13.8359 C   0  0  0  0  0  0  0  0  0  0  0  0
   20.9854   -8.0355  -12.7172 C   0  0  0  0  0  0  0  0  0  0  0  0
   20.1114   -7.7725  -11.5237 C   0  0  0  0  0  0  0  0  0  0  0  0
   18.7893   -8.3785  -11.8730 C   0  0  1  0  0  0  0  0  0  0  0  0
   17.6605   -7.4597  -11.4756 C   0  0  0  0  0  0  0  0  0  0  0  0
   17.3743   -6.4401  -12.1328 O   0  0  0  0  0  0  0  0  0  0  0  0
   15.0252   -7.9566   -8.8987 C   0  0  0  0  0  0  0  0  0  0  0  0
   15.7953   -7.0488   -9.8353 C   0  0  2  0  0  0  0  0  0  0  0  0
   16.9370   -7.8133  -10.3127 N   0  0  0  0  0  0  0  0  0  0  0  0
   16.3449   -5.9174   -9.0240 C   0  0  0  0  0  0  0  0  0  0  0  0
   15.5999   -4.7858   -8.7218 O   0  0  0  0  0  0  0  0  0  0  0  0
   17.5338   -5.9485   -8.5729 O   0  0  0  0  0  0  0  0  0  0  0  0
  2  1  1  6
  3  2  1  0
  4  2  1  0
  5  4  2  0
  6  4  1  0
  6  7  1  0
  7  8  1  0
  9  8  1  0
 10 11  1  6
 10  9  1  0
 10  6  1  0
 11 12  2  0
 14 13  1  1
 14 16  1  0
 15 14  1  0
 15 11  1  0
 16 18  2  0
 16 17  1  0
M  END
$$$$
