APA.pdb
     RDKit          3D

 18 18  0  0  1  0  0  0  0  0999 V2000
   14.8448  -10.1122  -15.1581 C   0  0  0  0  0  0  0  0  0  0  0  0
   15.9190  -10.9580  -14.4917 C   0  0  2  0  0  0  0  0  0  0  0  0
   15.5662  -12.3564  -14.4832 N   0  0  0  0  0  0  0  0  0  0  0  0
   16.1995  -10.4090  -13.1501 C   0  0  0  0  0  0  0  0  0  0  0  0
   15.5426  -10.9276  -12.2000 O   0  0  0  0  0  0  0  0  0  0  0  0
   17.1277   -9.3715  -12.8722 N   0  0  0  0  0  0  0  0  0  0  0  0
   17.9649   -8.7799  -13.9307 C   0  0  0  0  0  0  0  0  0  0  0  0
   19.2541   -8.4610  -13.1922 C   0  0  0  0  0  0  0  0  0  0  0  0
   18.7025   -7.9233  -11.9021 C   0  0  0  0  0  0  0  0  0  0  0  0
   17.4552   -8.7117  -11.6577 C   0  0  1  0  0  0  0  0  0  0  0  0
   16.3386   -7.8109  -11.1907 C   0  0  0  0  0  0  0  0  0  0  0  0
   15.5915   -7.2139  -11.9901 O   0  0  0  0  0  0  0  0  0  0  0  0
   15.0877   -7.2382   -7.7198 C   0  0  0  0  0  0  0  0  0  0  0  0
   15.1024   -6.8992   -9.1960 C   0  0  2  0  0  0  0  0  0  0  0  0
   16.1787   -7.6752   -9.7918 N   0  0  0  0  0  0  0  0  0  0  0  0
   15.4867   -5.4588   -9.3292 C   0  0  0  0  0  0  0  0  0  0  0  0
   14.5778   -4.4249   -9.1500 O   0  0  0  0  0  0  0  0  0  0  0  0
   16.6788   -5.1200   -9.6160 O   0  0  0  0  0  0  0  0  0  0  0  0
  2  1  1  1
  3  2  1  0
  4  2  1  0
  5  4  2  0
  6  4  1  0
  6  7  1  0
  7  8  1  0
  9  8  1  0
 10 11  1  6
 10  9  1  0
 10  6  1  0
 11 12  2  0
 14 13  1  1
 14 16  1  0
 15 14  1  0
 15 11  1  0
 16 18  2  0
 16 17  1  0
M  END
$$$$
