APA.pdb
     RDKit          3D

 18 18  0  0  1  0  0  0  0  0999 V2000
   20.3773  -10.0953  -19.0108 C   0  0  0  0  0  0  0  0  0  0  0  0
   20.2015  -10.8995  -17.7319 C   0  0  2  0  0  0  0  0  0  0  0  0
   18.9657  -11.6428  -17.7362 N   0  0  0  0  0  0  0  0  0  0  0  0
   20.3465   -9.9965  -16.5727 C   0  0  0  0  0  0  0  0  0  0  0  0
   19.3075   -9.3468  -16.2539 O   0  0  0  0  0  0  0  0  0  0  0  0
   21.5382   -9.8195  -15.8219 N   0  0  0  0  0  0  0  0  0  0  0  0
   22.7648  -10.5758  -16.1299 C   0  0  0  0  0  0  0  0  0  0  0  0
   23.3831  -10.7753  -14.7562 C   0  0  0  0  0  0  0  0  0  0  0  0
   23.1390   -9.4227  -14.1491 C   0  0  0  0  0  0  0  0  0  0  0  0
   21.8295   -8.9758  -14.7170 C   0  0  1  0  0  0  0  0  0  0  0  0
   21.8923   -7.5238  -15.1221 C   0  0  0  0  0  0  0  0  0  0  0  0
   22.4427   -7.1543  -16.1775 O   0  0  0  0  0  0  0  0  0  0  0  0
   19.8594   -4.7030  -14.0331 C   0  0  0  0  0  0  0  0  0  0  0  0
   21.2091   -5.1728  -14.5350 C   0  0  2  0  0  0  0  0  0  0  0  0
   21.2922   -6.5948  -14.2402 N   0  0  0  0  0  0  0  0  0  0  0  0
   22.2616   -4.5009  -13.7099 C   0  0  0  0  0  0  0  0  0  0  0  0
   22.8209   -5.0951  -12.5869 O   0  0  0  0  0  0  0  0  0  0  0  0
   22.6915   -3.3417  -14.0093 O   0  0  0  0  0  0  0  0  0  0  0  0
  2  1  1  6
  3  2  1  0
  4  2  1  0
  5  4  2  0
  6  4  1  0
  6  7  1  0
  7  8  1  0
  9  8  1  0
 10 11  1  6
 10  9  1  0
 10  6  1  0
 11 12  2  0
 14 13  1  1
 14 16  1  0
 15 14  1  0
 15 11  1  0
 16 18  2  0
 16 17  1  0
M  END
$$$$
