APA.pdb
     RDKit          3D

 18 18  0  0  1  0  0  0  0  0999 V2000
   21.9629  -11.0605  -19.8504 C   0  0  0  0  0  0  0  0  0  0  0  0
   21.5000  -11.7936  -18.6009 C   0  0  2  0  0  0  0  0  0  0  0  0
   20.2826  -12.5301  -18.8361 N   0  0  0  0  0  0  0  0  0  0  0  0
   21.4042  -10.8302  -17.4861 C   0  0  0  0  0  0  0  0  0  0  0  0
   20.3172  -10.1850  -17.4144 O   0  0  0  0  0  0  0  0  0  0  0  0
   22.4218  -10.5925  -16.5251 N   0  0  0  0  0  0  0  0  0  0  0  0
   23.7115  -11.3035  -16.5737 C   0  0  0  0  0  0  0  0  0  0  0  0
   24.0604  -11.4548  -15.1024 C   0  0  0  0  0  0  0  0  0  0  0  0
   23.6547  -10.1033  -14.5863 C   0  0  0  0  0  0  0  0  0  0  0  0
   22.4636   -9.7193  -15.4056 C   0  0  1  0  0  0  0  0  0  0  0  0
   22.5502   -8.2729  -15.8261 C   0  0  0  0  0  0  0  0  0  0  0  0
   23.2519   -7.9041  -16.7878 O   0  0  0  0  0  0  0  0  0  0  0  0
   20.2336   -5.5719  -15.3750 C   0  0  0  0  0  0  0  0  0  0  0  0
   21.7028   -5.9380  -15.4156 C   0  0  2  0  0  0  0  0  0  0  0  0
   21.7912   -7.3485  -15.0710 N   0  0  0  0  0  0  0  0  0  0  0  0
   22.3909   -5.1845  -14.3207 C   0  0  0  0  0  0  0  0  0  0  0  0
   22.9471   -3.9276  -14.5159 O   0  0  0  0  0  0  0  0  0  0  0  0
   22.4948   -5.6730  -13.1508 O   0  0  0  0  0  0  0  0  0  0  0  0
  2  1  1  6
  3  2  1  0
  4  2  1  0
  5  4  2  0
  6  4  1  0
  6  7  1  0
  7  8  1  0
  9  8  1  0
 10 11  1  6
 10  9  1  0
 10  6  1  0
 11 12  2  0
 14 13  1  1
 14 16  1  0
 15 14  1  0
 15 11  1  0
 16 18  2  0
 16 17  1  0
M  END
$$$$
