APA.pdb
     RDKit          3D

 18 18  0  0  1  0  0  0  0  0999 V2000
   18.6396   -6.1223  -15.2907 C   0  0  0  0  0  0  0  0  0  0  0  0
   18.9690   -7.3636  -14.4759 C   0  0  2  0  0  0  0  0  0  0  0  0
   18.2785   -8.5270  -14.9757 N   0  0  0  0  0  0  0  0  0  0  0  0
   18.7072   -7.0858  -13.0496 C   0  0  0  0  0  0  0  0  0  0  0  0
   17.5182   -7.2872  -12.6638 O   0  0  0  0  0  0  0  0  0  0  0  0
   19.6740   -6.6226  -12.1191 N   0  0  0  0  0  0  0  0  0  0  0  0
   21.0757   -6.3931  -12.5112 C   0  0  0  0  0  0  0  0  0  0  0  0
   21.8369   -6.7714  -11.2516 C   0  0  0  0  0  0  0  0  0  0  0  0
   20.9524   -6.1561  -10.2043 C   0  0  0  0  0  0  0  0  0  0  0  0
   19.5634   -6.2984  -10.7406 C   0  0  1  0  0  0  0  0  0  0  0  0
   18.7766   -5.0292  -10.5250 C   0  0  0  0  0  0  0  0  0  0  0  0
   18.8486   -4.0642  -11.3105 O   0  0  0  0  0  0  0  0  0  0  0  0
   16.0864   -4.3684   -8.0269 C   0  0  0  0  0  0  0  0  0  0  0  0
   17.0192   -3.8960   -9.1228 C   0  0  2  0  0  0  0  0  0  0  0  0
   17.9470   -4.9864   -9.3800 N   0  0  0  0  0  0  0  0  0  0  0  0
   17.8293   -2.7630   -8.5750 C   0  0  0  0  0  0  0  0  0  0  0  0
   17.3649   -1.4549   -8.5563 O   0  0  0  0  0  0  0  0  0  0  0  0
   18.9925   -2.9566   -8.0978 O   0  0  0  0  0  0  0  0  0  0  0  0
  2  1  1  6
  3  2  1  0
  4  2  1  0
  5  4  2  0
  6  4  1  0
  6  7  1  0
  7  8  1  0
  9  8  1  0
 10 11  1  6
 10  9  1  0
 10  6  1  0
 11 12  2  0
 14 13  1  1
 14 16  1  0
 15 14  1  0
 15 11  1  0
 16 18  2  0
 16 17  1  0
M  END
$$$$
