APA.pdb
     RDKit          3D

 18 18  0  0  1  0  0  0  0  0999 V2000
   22.4250  -22.4648  -14.2145 C   0  0  0  0  0  0  0  0  0  0  0  0
   22.5372  -21.3116  -13.2293 C   0  0  2  0  0  0  0  0  0  0  0  0
   21.2941  -20.5902  -13.1104 N   0  0  0  0  0  0  0  0  0  0  0  0
   23.6819  -20.4614  -13.6129 C   0  0  0  0  0  0  0  0  0  0  0  0
   23.3878  -19.3983  -14.2345 O   0  0  0  0  0  0  0  0  0  0  0  0
   25.0431  -20.7547  -13.3366 N   0  0  0  0  0  0  0  0  0  0  0  0
   25.4322  -21.9140  -12.5146 C   0  0  0  0  0  0  0  0  0  0  0  0
   26.6678  -21.4056  -11.7908 C   0  0  0  0  0  0  0  0  0  0  0  0
   27.3507  -20.6653  -12.9058 C   0  0  0  0  0  0  0  0  0  0  0  0
   26.2387  -20.0951  -13.7278 C   0  0  1  0  0  0  0  0  0  0  0  0
   26.5199  -20.2713  -15.1997 C   0  0  0  0  0  0  0  0  0  0  0  0
   26.3341  -21.3565  -15.7838 O   0  0  0  0  0  0  0  0  0  0  0  0
   27.2437  -17.6439  -17.7311 C   0  0  0  0  0  0  0  0  0  0  0  0
   27.1598  -19.1039  -17.3365 C   0  0  2  0  0  0  0  0  0  0  0  0
   27.0082  -19.1375  -15.8903 N   0  0  0  0  0  0  0  0  0  0  0  0
   28.4811  -19.7361  -17.6446 C   0  0  0  0  0  0  0  0  0  0  0  0
   28.8895  -20.0158  -18.9416 O   0  0  0  0  0  0  0  0  0  0  0  0
   29.2939  -20.0466  -16.7167 O   0  0  0  0  0  0  0  0  0  0  0  0
  2  1  1  6
  3  2  1  0
  4  2  1  0
  5  4  2  0
  6  4  1  0
  6  7  1  0
  7  8  1  0
  9  8  1  0
 10 11  1  6
 10  9  1  0
 10  6  1  0
 11 12  2  0
 14 13  1  1
 14 16  1  0
 15 14  1  0
 15 11  1  0
 16 18  2  0
 16 17  1  0
M  END
$$$$
