APA.pdb
     RDKit          3D

 18 18  0  0  1  0  0  0  0  0999 V2000
   21.0086  -10.8360  -19.5543 C   0  0  0  0  0  0  0  0  0  0  0  0
   20.9061  -11.6839  -18.2958 C   0  0  2  0  0  0  0  0  0  0  0  0
   19.7691  -12.5698  -18.3420 N   0  0  0  0  0  0  0  0  0  0  0  0
   20.9188  -10.7962  -17.1159 C   0  0  0  0  0  0  0  0  0  0  0  0
   19.8054  -10.2747  -16.8136 O   0  0  0  0  0  0  0  0  0  0  0  0
   22.0636  -10.5029  -16.3294 N   0  0  0  0  0  0  0  0  0  0  0  0
   23.3562  -11.1688  -16.5682 C   0  0  0  0  0  0  0  0  0  0  0  0
   23.9352  -11.2774  -15.1675 C   0  0  0  0  0  0  0  0  0  0  0  0
   23.5635   -9.9306  -14.6145 C   0  0  0  0  0  0  0  0  0  0  0  0
   22.2458   -9.6060  -15.2433 C   0  0  1  0  0  0  0  0  0  0  0  0
   22.2107   -8.1664  -15.6935 C   0  0  0  0  0  0  0  0  0  0  0  0
   22.7148   -7.7978  -16.7721 O   0  0  0  0  0  0  0  0  0  0  0  0
   19.9693   -5.4872  -14.8021 C   0  0  0  0  0  0  0  0  0  0  0  0
   21.3965   -5.8440  -15.1627 C   0  0  2  0  0  0  0  0  0  0  0  0
   21.5735   -7.2481  -14.8266 N   0  0  0  0  0  0  0  0  0  0  0  0
   22.3027   -5.0684  -14.2585 C   0  0  0  0  0  0  0  0  0  0  0  0
   22.7344   -3.7837  -14.5588 O   0  0  0  0  0  0  0  0  0  0  0  0
   22.7192   -5.5630  -13.1631 O   0  0  0  0  0  0  0  0  0  0  0  0
  2  1  1  6
  3  2  1  0
  4  2  1  0
  5  4  2  0
  6  4  1  0
  6  7  1  0
  7  8  1  0
  9  8  1  0
 10 11  1  6
 10  9  1  0
 10  6  1  0
 11 12  2  0
 14 13  1  1
 14 16  1  0
 15 14  1  0
 15 11  1  0
 16 18  2  0
 16 17  1  0
M  END
$$$$
