APA.pdb
     RDKit          3D

 18 18  0  0  1  0  0  0  0  0999 V2000
   17.0767   -9.9100  -17.0039 C   0  0  0  0  0  0  0  0  0  0  0  0
   17.9692  -10.9264  -16.3085 C   0  0  2  0  0  0  0  0  0  0  0  0
   17.2098  -11.8040  -15.4523 N   0  0  0  0  0  0  0  0  0  0  0  0
   19.0574  -10.2128  -15.6109 C   0  0  0  0  0  0  0  0  0  0  0  0
   18.8550   -9.9748  -14.3840 O   0  0  0  0  0  0  0  0  0  0  0  0
   20.2727   -9.7925  -16.2124 N   0  0  0  0  0  0  0  0  0  0  0  0
   20.5962  -10.1212  -17.6119 C   0  0  0  0  0  0  0  0  0  0  0  0
   22.1047  -10.2987  -17.5689 C   0  0  0  0  0  0  0  0  0  0  0  0
   22.4874   -9.1570  -16.6701 C   0  0  0  0  0  0  0  0  0  0  0  0
   21.3603   -9.0404  -15.6938 C   0  0  1  0  0  0  0  0  0  0  0  0
   20.9892   -7.5938  -15.4789 C   0  0  0  0  0  0  0  0  0  0  0  0
   20.1577   -7.0096  -16.2004 O   0  0  0  0  0  0  0  0  0  0  0  0
   21.9369   -5.3366  -12.6640 C   0  0  0  0  0  0  0  0  0  0  0  0
   21.3048   -5.5654  -14.0214 C   0  0  2  0  0  0  0  0  0  0  0  0
   21.6350   -6.9273  -14.4114 N   0  0  0  0  0  0  0  0  0  0  0  0
   21.9865   -4.6612  -15.0000 C   0  0  0  0  0  0  0  0  0  0  0  0
   21.6059   -3.3389  -15.1838 O   0  0  0  0  0  0  0  0  0  0  0  0
   22.9557   -5.0745  -15.7126 O   0  0  0  0  0  0  0  0  0  0  0  0
  2  1  1  1
  3  2  1  0
  4  2  1  0
  5  4  2  0
  6  4  1  0
  6  7  1  0
  7  8  1  0
  9  8  1  0
 10 11  1  6
 10  9  1  0
 10  6  1  0
 11 12  2  0
 14 13  1  1
 14 16  1  0
 15 14  1  0
 15 11  1  0
 16 18  2  0
 16 17  1  0
M  END
$$$$
