APA.pdb
     RDKit          3D

 18 18  0  0  1  0  0  0  0  0999 V2000
   21.8236  -31.1164  -10.1704 C   0  0  0  0  0  0  0  0  0  0  0  0
   22.5231  -32.2826  -10.8515 C   0  0  2  0  0  0  0  0  0  0  0  0
   21.7404  -32.8090  -11.9425 N   0  0  0  0  0  0  0  0  0  0  0  0
   22.8761  -33.2922   -9.8336 C   0  0  0  0  0  0  0  0  0  0  0  0
   22.0007  -34.1819   -9.6211 O   0  0  0  0  0  0  0  0  0  0  0  0
   24.0941  -33.3232   -9.1051 N   0  0  0  0  0  0  0  0  0  0  0  0
   25.1328  -32.2949   -9.2925 C   0  0  0  0  0  0  0  0  0  0  0  0
   26.4168  -33.0829   -9.0944 C   0  0  0  0  0  0  0  0  0  0  0  0
   26.0289  -33.9461   -7.9274 C   0  0  0  0  0  0  0  0  0  0  0  0
   24.5750  -34.2349   -8.1279 C   0  0  1  0  0  0  0  0  0  0  0  0
   23.8226  -34.1093   -6.8262 C   0  0  0  0  0  0  0  0  0  0  0  0
   23.4004  -33.0135   -6.4087 O   0  0  0  0  0  0  0  0  0  0  0  0
   22.5566  -36.8049   -4.5815 C   0  0  0  0  0  0  0  0  0  0  0  0
   22.8576  -35.3462   -4.8571 C   0  0  2  0  0  0  0  0  0  0  0  0
   23.6175  -35.3037   -6.0966 N   0  0  0  0  0  0  0  0  0  0  0  0
   23.7706  -34.8571   -3.7766 C   0  0  0  0  0  0  0  0  0  0  0  0
   23.3130  -34.5173   -2.5108 O   0  0  0  0  0  0  0  0  0  0  0  0
   25.0203  -34.7316   -3.9784 O   0  0  0  0  0  0  0  0  0  0  0  0
  2  1  1  1
  3  2  1  0
  4  2  1  0
  5  4  2  0
  6  4  1  0
  6  7  1  0
  7  8  1  0
  9  8  1  0
 10 11  1  1
 10  9  1  0
 10  6  1  0
 11 12  2  0
 14 13  1  1
 14 16  1  0
 15 14  1  0
 15 11  1  0
 16 18  2  0
 16 17  1  0
M  END
$$$$
