APA.pdb
     RDKit          3D

 18 18  0  0  1  0  0  0  0  0999 V2000
   19.5847  -19.2526  -12.3027 C   0  0  0  0  0  0  0  0  0  0  0  0
   20.7313  -20.2413  -12.4470 C   0  0  2  0  0  0  0  0  0  0  0  0
   20.8089  -20.7749  -13.7846 N   0  0  0  0  0  0  0  0  0  0  0  0
   20.6075  -21.2768  -11.4017 C   0  0  0  0  0  0  0  0  0  0  0  0
   19.9380  -22.3015  -11.7254 O   0  0  0  0  0  0  0  0  0  0  0  0
   21.1735  -21.1944  -10.1024 N   0  0  0  0  0  0  0  0  0  0  0  0
   21.9138  -20.0010   -9.6565 C   0  0  0  0  0  0  0  0  0  0  0  0
   22.9793  -20.5935   -8.7494 C   0  0  0  0  0  0  0  0  0  0  0  0
   22.1706  -21.6289   -8.0203 C   0  0  0  0  0  0  0  0  0  0  0  0
   21.1770  -22.1198   -9.0248 C   0  0  1  0  0  0  0  0  0  0  0  0
   19.8108  -22.2569   -8.3996 C   0  0  0  0  0  0  0  0  0  0  0  0
   19.0376  -21.2868   -8.2792 O   0  0  0  0  0  0  0  0  0  0  0  0
   17.7148  -25.1785   -8.0956 C   0  0  0  0  0  0  0  0  0  0  0  0
   18.1144  -23.8627   -7.4604 C   0  0  2  0  0  0  0  0  0  0  0  0
   19.4465  -23.5488   -7.9532 N   0  0  0  0  0  0  0  0  0  0  0  0
   18.2440  -24.0889   -5.9865 C   0  0  0  0  0  0  0  0  0  0  0  0
   17.1492  -24.0887   -5.1330 O   0  0  0  0  0  0  0  0  0  0  0  0
   19.3790  -24.2931   -5.4498 O   0  0  0  0  0  0  0  0  0  0  0  0
  2  1  1  6
  3  2  1  0
  4  2  1  0
  5  4  2  0
  6  4  1  0
  6  7  1  0
  7  8  1  0
  9  8  1  0
 10 11  1  1
 10  9  1  0
 10  6  1  0
 11 12  2  0
 14 13  1  6
 14 16  1  0
 15 14  1  0
 15 11  1  0
 16 18  2  0
 16 17  1  0
M  END
$$$$
