APA.pdb
     RDKit          3D

 18 18  0  0  1  0  0  0  0  0999 V2000
   22.3591  -10.6616  -19.3041 C   0  0  0  0  0  0  0  0  0  0  0  0
   21.6703  -11.4721  -18.2170 C   0  0  2  0  0  0  0  0  0  0  0  0
   20.5016  -12.1516  -18.7195 N   0  0  0  0  0  0  0  0  0  0  0  0
   21.3947  -10.5927  -17.0634 C   0  0  0  0  0  0  0  0  0  0  0  0
   20.3066   -9.9475  -17.1168 O   0  0  0  0  0  0  0  0  0  0  0  0
   22.2467  -10.4328  -15.9392 N   0  0  0  0  0  0  0  0  0  0  0  0
   23.5400  -11.1325  -15.8442 C   0  0  0  0  0  0  0  0  0  0  0  0
   23.6588  -11.4056  -14.3541 C   0  0  0  0  0  0  0  0  0  0  0  0
   23.1554  -10.1037  -13.7981 C   0  0  0  0  0  0  0  0  0  0  0  0
   22.0997   -9.6566  -14.7588 C   0  0  1  0  0  0  0  0  0  0  0  0
   22.2264   -8.1797  -15.0400 C   0  0  0  0  0  0  0  0  0  0  0  0
   23.0605   -7.7291  -15.8491 O   0  0  0  0  0  0  0  0  0  0  0  0
   19.8458   -5.4752  -14.2781 C   0  0  0  0  0  0  0  0  0  0  0  0
   21.2661   -5.8952  -14.5954 C   0  0  2  0  0  0  0  0  0  0  0  0
   21.3466   -7.3243  -14.3363 N   0  0  0  0  0  0  0  0  0  0  0  0
   22.1705   -5.2279  -13.6069 C   0  0  0  0  0  0  0  0  0  0  0  0
   22.7236   -5.9036  -12.5277 O   0  0  0  0  0  0  0  0  0  0  0  0
   22.4724   -3.9972  -13.7181 O   0  0  0  0  0  0  0  0  0  0  0  0
  2  1  1  6
  3  2  1  0
  4  2  1  0
  5  4  2  0
  6  4  1  0
  6  7  1  0
  7  8  1  0
  9  8  1  0
 10 11  1  6
 10  9  1  0
 10  6  1  0
 11 12  2  0
 14 13  1  1
 14 16  1  0
 15 14  1  0
 15 11  1  0
 16 18  2  0
 16 17  1  0
M  END
$$$$
