APA.pdb
     RDKit          3D

 18 18  0  0  1  0  0  0  0  0999 V2000
   25.8772  -17.5872  -14.8327 C   0  0  0  0  0  0  0  0  0  0  0  0
   26.8999  -18.5299  -15.4479 C   0  0  2  0  0  0  0  0  0  0  0  0
   26.7770  -18.5849  -16.8838 N   0  0  0  0  0  0  0  0  0  0  0  0
   26.7931  -19.8488  -14.7926 C   0  0  0  0  0  0  0  0  0  0  0  0
   25.9491  -20.6439  -15.3011 O   0  0  0  0  0  0  0  0  0  0  0  0
   27.5525  -20.2630  -13.6670 N   0  0  0  0  0  0  0  0  0  0  0  0
   28.4518  -19.3356  -12.9581 C   0  0  0  0  0  0  0  0  0  0  0  0
   29.5859  -20.2467  -12.5191 C   0  0  0  0  0  0  0  0  0  0  0  0
   28.8092  -21.4559  -12.0808 C   0  0  0  0  0  0  0  0  0  0  0  0
   27.6375  -21.5186  -13.0084 C   0  0  1  0  0  0  0  0  0  0  0  0
   26.3738  -21.8398  -12.2494 C   0  0  0  0  0  0  0  0  0  0  0  0
   26.1119  -22.9939  -11.8582 O   0  0  0  0  0  0  0  0  0  0  0  0
   24.3014  -19.7992  -10.1765 C   0  0  0  0  0  0  0  0  0  0  0  0
   24.2791  -20.9031  -11.2135 C   0  0  2  0  0  0  0  0  0  0  0  0
   25.4937  -20.7607  -12.0011 N   0  0  0  0  0  0  0  0  0  0  0  0
   23.1334  -20.6360  -12.1389 C   0  0  0  0  0  0  0  0  0  0  0  0
   21.8174  -20.9145  -11.7960 O   0  0  0  0  0  0  0  0  0  0  0  0
   23.3230  -20.1361  -13.2931 O   0  0  0  0  0  0  0  0  0  0  0  0
  2  1  1  1
  3  2  1  0
  4  2  1  0
  5  4  2  0
  6  4  1  0
  6  7  1  0
  7  8  1  0
  9  8  1  0
 10 11  1  1
 10  9  1  0
 10  6  1  0
 11 12  2  0
 14 13  1  1
 14 16  1  0
 15 14  1  0
 15 11  1  0
 16 18  2  0
 16 17  1  0
M  END
$$$$
