APA.pdb
     RDKit          3D

 18 18  0  0  1  0  0  0  0  0999 V2000
   27.7095  -18.8693  -15.0518 C   0  0  0  0  0  0  0  0  0  0  0  0
   27.8251  -20.3525  -14.7357 C   0  0  2  0  0  0  0  0  0  0  0  0
   28.4189  -21.0847  -15.8271 N   0  0  0  0  0  0  0  0  0  0  0  0
   26.4998  -20.8624  -14.3310 C   0  0  0  0  0  0  0  0  0  0  0  0
   25.7978  -21.3564  -15.2617 O   0  0  0  0  0  0  0  0  0  0  0  0
   25.9844  -20.8322  -13.0086 N   0  0  0  0  0  0  0  0  0  0  0  0
   26.7143  -20.1756  -11.9098 C   0  0  0  0  0  0  0  0  0  0  0  0
   26.3665  -21.0479  -10.7151 C   0  0  0  0  0  0  0  0  0  0  0  0
   24.9065  -21.2923  -10.9728 C   0  0  0  0  0  0  0  0  0  0  0  0
   24.7835  -21.3581  -12.4620 C   0  0  1  0  0  0  0  0  0  0  0  0
   23.5716  -20.5914  -12.9308 C   0  0  0  0  0  0  0  0  0  0  0  0
   23.5529  -19.3459  -12.9755 O   0  0  0  0  0  0  0  0  0  0  0  0
   20.6818  -21.8075  -14.8530 C   0  0  0  0  0  0  0  0  0  0  0  0
   21.2618  -20.7677  -13.9166 C   0  0  2  0  0  0  0  0  0  0  0  0
   22.4492  -21.3592  -13.3200 N   0  0  0  0  0  0  0  0  0  0  0  0
   20.2817  -20.5580  -12.8050 C   0  0  0  0  0  0  0  0  0  0  0  0
   19.2044  -19.6893  -12.9147 O   0  0  0  0  0  0  0  0  0  0  0  0
   20.3986  -21.1766  -11.6997 O   0  0  0  0  0  0  0  0  0  0  0  0
  2  1  1  6
  3  2  1  0
  4  2  1  0
  5  4  2  0
  6  4  1  0
  6  7  1  0
  7  8  1  0
  9  8  1  0
 10 11  1  6
 10  9  1  0
 10  6  1  0
 11 12  2  0
 14 13  1  6
 14 16  1  0
 15 14  1  0
 15 11  1  0
 16 18  2  0
 16 17  1  0
M  END
$$$$
