APA.pdb
     RDKit          3D

 18 18  0  0  1  0  0  0  0  0999 V2000
   14.5960  -23.7683   -5.7182 C   0  0  0  0  0  0  0  0  0  0  0  0
   14.9877  -25.2047   -6.0290 C   0  0  2  0  0  0  0  0  0  0  0  0
   14.1167  -25.7921   -7.0170 N   0  0  0  0  0  0  0  0  0  0  0  0
   15.0535  -25.9687   -4.7671 C   0  0  0  0  0  0  0  0  0  0  0  0
   13.9675  -26.5033   -4.3958 O   0  0  0  0  0  0  0  0  0  0  0  0
   16.2193  -26.1329   -3.9740 N   0  0  0  0  0  0  0  0  0  0  0  0
   17.4922  -25.4800   -4.3273 C   0  0  0  0  0  0  0  0  0  0  0  0
   18.5234  -26.4978   -3.8691 C   0  0  0  0  0  0  0  0  0  0  0  0
   17.9203  -26.9260   -2.5612 C   0  0  0  0  0  0  0  0  0  0  0  0
   16.4420  -26.8738   -2.7829 C   0  0  1  0  0  0  0  0  0  0  0  0
   15.7472  -26.2507   -1.5974 C   0  0  0  0  0  0  0  0  0  0  0  0
   15.6668  -25.0155   -1.4514 O   0  0  0  0  0  0  0  0  0  0  0  0
   13.5889  -27.8497    0.9660 C   0  0  0  0  0  0  0  0  0  0  0  0
   14.4475  -26.6864    0.5143 C   0  0  2  0  0  0  0  0  0  0  0  0
   15.1872  -27.1419   -0.6524 N   0  0  0  0  0  0  0  0  0  0  0  0
   15.4574  -26.4218    1.5868 C   0  0  0  0  0  0  0  0  0  0  0  0
   15.1238  -25.8223    2.7936 O   0  0  0  0  0  0  0  0  0  0  0  0
   16.6792  -26.7403    1.4327 O   0  0  0  0  0  0  0  0  0  0  0  0
  2  1  1  1
  3  2  1  0
  4  2  1  0
  5  4  2  0
  6  4  1  0
  6  7  1  0
  7  8  1  0
  9  8  1  0
 10 11  1  1
 10  9  1  0
 10  6  1  0
 11 12  2  0
 14 13  1  1
 14 16  1  0
 15 14  1  0
 15 11  1  0
 16 18  2  0
 16 17  1  0
M  END
$$$$
