APA.pdb
     RDKit          3D

 18 18  0  0  1  0  0  0  0  0999 V2000
   14.1047  -21.5633    2.5104 C   0  0  0  0  0  0  0  0  0  0  0  0
   15.5685  -21.9497    2.3655 C   0  0  2  0  0  0  0  0  0  0  0  0
   15.7540  -23.3769    2.4577 N   0  0  0  0  0  0  0  0  0  0  0  0
   16.3669  -21.1836    3.3431 C   0  0  0  0  0  0  0  0  0  0  0  0
   16.6642  -21.8007    4.4080 O   0  0  0  0  0  0  0  0  0  0  0  0
   16.8046  -19.8447    3.1669 N   0  0  0  0  0  0  0  0  0  0  0  0
   16.5414  -19.1036    1.9208 C   0  0  0  0  0  0  0  0  0  0  0  0
   17.7786  -18.2314    1.7880 C   0  0  0  0  0  0  0  0  0  0  0  0
   17.9627  -17.8015    3.2159 C   0  0  0  0  0  0  0  0  0  0  0  0
   17.5201  -18.9744    4.0318 C   0  0  1  0  0  0  0  0  0  0  0  0
   16.6749  -18.5238    5.1976 C   0  0  0  0  0  0  0  0  0  0  0  0
   15.4489  -18.3273    5.0894 O   0  0  0  0  0  0  0  0  0  0  0  0
   17.5676  -18.3089    8.8001 C   0  0  0  0  0  0  0  0  0  0  0  0
   16.6535  -17.9465    7.6480 C   0  0  2  0  0  0  0  0  0  0  0  0
   17.3454  -18.3335    6.4284 N   0  0  0  0  0  0  0  0  0  0  0  0
   16.5293  -16.4552    7.6164 C   0  0  0  0  0  0  0  0  0  0  0  0
   15.6999  -15.7576    8.4839 O   0  0  0  0  0  0  0  0  0  0  0  0
   17.1883  -15.7579    6.7813 O   0  0  0  0  0  0  0  0  0  0  0  0
  2  1  1  1
  3  2  1  0
  4  2  1  0
  5  4  2  0
  6  4  1  0
  6  7  1  0
  7  8  1  0
  9  8  1  0
 10 11  1  1
 10  9  1  0
 10  6  1  0
 11 12  2  0
 14 13  1  1
 14 16  1  0
 15 14  1  0
 15 11  1  0
 16 18  2  0
 16 17  1  0
M  END
$$$$
