KYV.pdb
     RDKit          3D

 29 29  0  0  1  0  0  0  0  0999 V2000
   27.6946  -22.4091  -18.7554 N   0  0  0  0  0  0  0  0  0  0  0  0
   26.7982  -21.3756  -18.3372 C   0  0  1  0  0  0  0  0  0  0  0  0
   25.7207  -21.1990  -19.3781 C   0  0  0  0  0  0  0  0  0  0  0  0
   25.9259  -19.9071  -20.1308 C   0  0  0  0  0  0  0  0  0  0  0  0
   27.3600  -19.6195  -20.4399 C   0  0  0  0  0  0  0  0  0  0  0  0
   27.5280  -18.2816  -21.1400 C   0  0  0  0  0  0  0  0  0  0  0  0
   28.9045  -17.9132  -21.3138 N   0  0  0  0  0  0  0  0  0  0  0  0
   26.2341  -21.7069  -17.0065 C   0  0  0  0  0  0  0  0  0  0  0  0
   25.5973  -22.7699  -16.8589 O   0  0  0  0  0  0  0  0  0  0  0  0
   24.3215  -21.0129   -8.3761 O   0  0  0  0  0  0  0  0  0  0  0  0
   24.8890  -20.8719   -9.6316 C   0  0  0  0  0  0  0  0  0  0  0  0
   24.6559  -19.7474  -10.3928 C   0  0  0  0  0  0  0  0  0  0  0  0
   25.2310  -19.6261  -11.6417 C   0  0  0  0  0  0  0  0  0  0  0  0
   26.0463  -20.5906  -12.1851 C   0  0  0  0  0  0  0  0  0  0  0  0
   26.6488  -20.4307  -13.5291 C   0  0  0  0  0  0  0  0  0  0  0  0
   25.7870  -21.0861  -14.5992 C   0  0  2  0  0  0  0  0  0  0  0  0
   26.3904  -20.8520  -15.8756 N   0  0  0  0  0  0  0  0  0  0  0  0
   24.3874  -20.5781  -14.5324 C   0  0  0  0  0  0  0  0  0  0  0  0
   24.0975  -19.3864  -14.8518 O   0  0  0  0  0  0  0  0  0  0  0  0
   26.2776  -21.7270  -11.4078 C   0  0  0  0  0  0  0  0  0  0  0  0
   25.7116  -21.8661  -10.1573 C   0  0  0  0  0  0  0  0  0  0  0  0
   19.6008  -20.9871  -14.8659 C   0  0  0  0  0  0  0  0  0  0  0  0
   21.0559  -21.4017  -15.0955 C   0  0  2  0  0  0  0  0  0  0  0  0
   21.0671  -22.9130  -15.0800 C   0  0  0  0  0  0  0  0  0  0  0  0
   21.9478  -20.9103  -13.9981 C   0  0  2  0  0  0  0  0  0  0  0  0
   23.3022  -21.3935  -14.1098 N   0  0  0  0  0  0  0  0  0  0  0  0
   21.3701  -21.3439  -12.7046 C   0  0  0  0  0  0  0  0  0  0  0  0
   21.7164  -22.4564  -12.2380 O   0  0  0  0  0  0  0  0  0  0  0  0
   20.4671  -20.5852  -11.9822 O   0  0  0  0  0  0  0  0  0  0  0  0
  2  1  1  6
  3  2  1  0
  4  3  1  0
  5  4  1  0
  6  5  1  0
  7  6  1  0
  8  9  2  0
  8  2  1  0
 10 11  1  0
 11 12  2  0
 12 13  1  0
 14 13  2  0
 14 15  1  0
 16 15  1  1
 16 17  1  0
 17  8  1  0
 18 26  1  0
 18 16  1  0
 19 18  2  0
 20 14  1  0
 21 11  1  0
 21 20  2  0
 23 22  1  1
 23 25  1  0
 23 24  1  0
 25 27  1  0
 25 26  1  6
 27 29  1  0
 28 27  2  0
M  END
$$$$
