KYV.pdb
     RDKit          3D

 29 29  0  0  1  0  0  0  0  0999 V2000
   27.8901  -23.4638  -16.4149 N   0  0  0  0  0  0  0  0  0  0  0  0
   28.0254  -22.1924  -15.7732 C   0  0  1  0  0  0  0  0  0  0  0  0
   27.4939  -21.1147  -16.6852 C   0  0  0  0  0  0  0  0  0  0  0  0
   27.7789  -21.4604  -18.1265 C   0  0  0  0  0  0  0  0  0  0  0  0
   29.1981  -21.2162  -18.5277 C   0  0  0  0  0  0  0  0  0  0  0  0
   29.4057  -21.4240  -20.0184 C   0  0  0  0  0  0  0  0  0  0  0  0
   29.0130  -20.2852  -20.7992 N   0  0  0  0  0  0  0  0  0  0  0  0
   27.3218  -22.2103  -14.4680 C   0  0  0  0  0  0  0  0  0  0  0  0
   26.1818  -22.7124  -14.3938 O   0  0  0  0  0  0  0  0  0  0  0  0
   25.5229  -19.8882   -6.1002 O   0  0  0  0  0  0  0  0  0  0  0  0
   26.1740  -20.1739   -7.2888 C   0  0  0  0  0  0  0  0  0  0  0  0
   25.5194  -20.8111   -8.3203 C   0  0  0  0  0  0  0  0  0  0  0  0
   26.1861  -21.0869   -9.4969 C   0  0  0  0  0  0  0  0  0  0  0  0
   27.5035  -20.7526   -9.7045 C   0  0  0  0  0  0  0  0  0  0  0  0
   28.1914  -21.0625  -10.9797 C   0  0  0  0  0  0  0  0  0  0  0  0
   27.2010  -21.5214  -12.0408 C   0  0  2  0  0  0  0  0  0  0  0  0
   27.8998  -21.6716  -13.2806 N   0  0  0  0  0  0  0  0  0  0  0  0
   26.0609  -20.5671  -12.1451 C   0  0  0  0  0  0  0  0  0  0  0  0
   26.2466  -19.3306  -12.3519 O   0  0  0  0  0  0  0  0  0  0  0  0
   28.1599  -20.1073   -8.6548 C   0  0  0  0  0  0  0  0  0  0  0  0
   27.5101  -19.8233   -7.4713 C   0  0  0  0  0  0  0  0  0  0  0  0
   22.0297  -19.3769  -14.1889 C   0  0  0  0  0  0  0  0  0  0  0  0
   23.2115  -20.2815  -13.8328 C   0  0  2  0  0  0  0  0  0  0  0  0
   22.7432  -21.6972  -14.0800 C   0  0  0  0  0  0  0  0  0  0  0  0
   23.5878  -20.1526  -12.3895 C   0  0  2  0  0  0  0  0  0  0  0  0
   24.7073  -20.9835  -12.0196 N   0  0  0  0  0  0  0  0  0  0  0  0
   22.4076  -20.5148  -11.5704 C   0  0  0  0  0  0  0  0  0  0  0  0
   22.4215  -21.6067  -10.9518 O   0  0  0  0  0  0  0  0  0  0  0  0
   21.2886  -19.7107  -11.4513 O   0  0  0  0  0  0  0  0  0  0  0  0
  2  1  1  6
  3  2  1  0
  4  3  1  0
  5  4  1  0
  6  5  1  0
  7  6  1  0
  8  9  2  0
  8  2  1  0
 10 11  1  0
 11 12  2  0
 12 13  1  0
 14 13  2  0
 14 15  1  0
 16 15  1  1
 16 17  1  0
 17  8  1  0
 18 26  1  0
 18 16  1  0
 19 18  2  0
 20 14  1  0
 21 11  1  0
 21 20  2  0
 23 22  1  1
 23 25  1  0
 23 24  1  0
 25 27  1  0
 25 26  1  1
 27 29  1  0
 28 27  2  0
M  END
$$$$
