KYV.pdb
     RDKit          3D

 29 29  0  0  1  0  0  0  0  0999 V2000
   26.7537  -20.9094  -15.6007 N   0  0  0  0  0  0  0  0  0  0  0  0
   25.9514  -22.0874  -15.7245 C   0  0  1  0  0  0  0  0  0  0  0  0
   26.8420  -23.3041  -15.6782 C   0  0  0  0  0  0  0  0  0  0  0  0
   27.7627  -23.3252  -16.8739 C   0  0  0  0  0  0  0  0  0  0  0  0
   29.1302  -23.8432  -16.5633 C   0  0  0  0  0  0  0  0  0  0  0  0
   30.0005  -23.9170  -17.8064 C   0  0  0  0  0  0  0  0  0  0  0  0
   31.3113  -24.4372  -17.5382 N   0  0  0  0  0  0  0  0  0  0  0  0
   24.9246  -22.1115  -14.6549 C   0  0  0  0  0  0  0  0  0  0  0  0
   24.5371  -23.2082  -14.2028 O   0  0  0  0  0  0  0  0  0  0  0  0
   27.6680  -21.3923   -8.3811 O   0  0  0  0  0  0  0  0  0  0  0  0
   26.7020  -20.9969   -9.2915 C   0  0  0  0  0  0  0  0  0  0  0  0
   25.3675  -21.2546   -9.0659 C   0  0  0  0  0  0  0  0  0  0  0  0
   24.4202  -20.8523   -9.9856 C   0  0  0  0  0  0  0  0  0  0  0  0
   24.7413  -20.1902  -11.1471 C   0  0  0  0  0  0  0  0  0  0  0  0
   23.7006  -19.7712  -12.1149 C   0  0  0  0  0  0  0  0  0  0  0  0
   23.3646  -20.8975  -13.0823 C   0  0  2  0  0  0  0  0  0  0  0  0
   24.3549  -20.9205  -14.1152 N   0  0  0  0  0  0  0  0  0  0  0  0
   21.9855  -20.7333  -13.6233 C   0  0  0  0  0  0  0  0  0  0  0  0
   21.6235  -19.6681  -14.2069 O   0  0  0  0  0  0  0  0  0  0  0  0
   26.0955  -19.9328  -11.3685 C   0  0  0  0  0  0  0  0  0  0  0  0
   27.0567  -20.3272  -10.4608 C   0  0  0  0  0  0  0  0  0  0  0  0
   19.5111  -24.1064  -14.2958 C   0  0  0  0  0  0  0  0  0  0  0  0
   19.2772  -22.7448  -14.9541 C   0  0  2  0  0  0  0  0  0  0  0  0
   20.1749  -22.7089  -16.1695 C   0  0  0  0  0  0  0  0  0  0  0  0
   19.6654  -21.6203  -14.0453 C   0  0  2  0  0  0  0  0  0  0  0  0
   21.0012  -21.7537  -13.5178 N   0  0  0  0  0  0  0  0  0  0  0  0
   18.6925  -21.5716  -12.9292 C   0  0  0  0  0  0  0  0  0  0  0  0
   19.0817  -21.8994  -11.7819 O   0  0  0  0  0  0  0  0  0  0  0  0
   17.3744  -21.1828  -13.0854 O   0  0  0  0  0  0  0  0  0  0  0  0
  2  1  1  1
  3  2  1  0
  4  3  1  0
  5  4  1  0
  6  5  1  0
  7  6  1  0
  8  9  2  0
  8  2  1  0
 10 11  1  0
 11 12  2  0
 12 13  1  0
 14 13  2  0
 14 15  1  0
 16 15  1  1
 16 17  1  0
 17  8  1  0
 18 26  1  0
 18 16  1  0
 19 18  2  0
 20 14  1  0
 21 11  1  0
 21 20  2  0
 23 22  1  1
 23 25  1  0
 23 24  1  0
 25 27  1  0
 25 26  1  1
 27 29  1  0
 28 27  2  0
M  END
$$$$
