KYV.pdb
     RDKit          3D

 29 29  0  0  1  0  0  0  0  0999 V2000
   20.9920  -11.1757  -19.8796 N   0  0  0  0  0  0  0  0  0  0  0  0
   21.0536  -11.9089  -18.6526 C   0  0  1  0  0  0  0  0  0  0  0  0
   21.8750  -13.1573  -18.8588 C   0  0  0  0  0  0  0  0  0  0  0  0
   21.2436  -14.0316  -19.9146 C   0  0  0  0  0  0  0  0  0  0  0  0
   19.9757  -14.6847  -19.4667 C   0  0  0  0  0  0  0  0  0  0  0  0
   19.4441  -15.6557  -20.5072 C   0  0  0  0  0  0  0  0  0  0  0  0
   19.9167  -16.9968  -20.3100 N   0  0  0  0  0  0  0  0  0  0  0  0
   21.6111  -11.0496  -17.5805 C   0  0  0  0  0  0  0  0  0  0  0  0
   21.8082  -11.5346  -16.4476 O   0  0  0  0  0  0  0  0  0  0  0  0
   28.1752  -10.2135  -18.9039 O   0  0  0  0  0  0  0  0  0  0  0  0
   26.9864   -9.6143  -18.5219 C   0  0  0  0  0  0  0  0  0  0  0  0
   26.0518   -9.2323  -19.4594 C   0  0  0  0  0  0  0  0  0  0  0  0
   24.8731   -8.6366  -19.0582 C   0  0  0  0  0  0  0  0  0  0  0  0
   24.5697   -8.3958  -17.7390 C   0  0  0  0  0  0  0  0  0  0  0  0
   23.2952   -7.7542  -17.3402 C   0  0  0  0  0  0  0  0  0  0  0  0
   22.3271   -8.7726  -16.7544 C   0  0  2  0  0  0  0  0  0  0  0  0
   21.9353   -9.6769  -17.7920 N   0  0  0  0  0  0  0  0  0  0  0  0
   21.1600   -8.0897  -16.1274 C   0  0  0  0  0  0  0  0  0  0  0  0
   20.4987   -7.2028  -16.7456 O   0  0  0  0  0  0  0  0  0  0  0  0
   25.5216   -8.7857  -16.7951 C   0  0  0  0  0  0  0  0  0  0  0  0
   26.7055   -9.3825  -17.1770 C   0  0  0  0  0  0  0  0  0  0  0  0
   17.1980   -8.1535  -13.4049 C   0  0  0  0  0  0  0  0  0  0  0  0
   18.3948   -8.7699  -14.1326 C   0  0  2  0  0  0  0  0  0  0  0  0
   18.8245   -9.9558  -13.2998 C   0  0  0  0  0  0  0  0  0  0  0  0
   19.5410   -7.8106  -14.2172 C   0  0  2  0  0  0  0  0  0  0  0  0
   20.7221   -8.3901  -14.8086 N   0  0  0  0  0  0  0  0  0  0  0  0
   19.8508   -7.3392  -12.8473 C   0  0  0  0  0  0  0  0  0  0  0  0
   20.9257   -7.7101  -12.3162 O   0  0  0  0  0  0  0  0  0  0  0  0
   19.0156   -6.5097  -12.1212 O   0  0  0  0  0  0  0  0  0  0  0  0
  2  1  1  6
  3  2  1  0
  4  3  1  0
  5  4  1  0
  6  5  1  0
  7  6  1  0
  8  9  2  0
  8  2  1  0
 10 11  1  0
 11 12  2  0
 12 13  1  0
 14 13  2  0
 14 15  1  0
 16 15  1  6
 16 17  1  0
 17  8  1  0
 18 26  1  0
 18 16  1  0
 19 18  2  0
 20 14  1  0
 21 11  1  0
 21 20  2  0
 23 22  1  1
 23 25  1  0
 23 24  1  0
 25 27  1  0
 25 26  1  1
 27 29  1  0
 28 27  2  0
M  END
$$$$
