KYV.pdb
     RDKit          3D

 29 29  0  0  1  0  0  0  0  0999 V2000
   28.2551  -21.7357  -16.3072 N   0  0  0  0  0  0  0  0  0  0  0  0
   27.1302  -20.8558  -16.2229 C   0  0  1  0  0  0  0  0  0  0  0  0
   26.3546  -20.9132  -17.5156 C   0  0  0  0  0  0  0  0  0  0  0  0
   26.6872  -19.7212  -18.3796 C   0  0  0  0  0  0  0  0  0  0  0  0
   28.0503  -19.7898  -18.9896 C   0  0  0  0  0  0  0  0  0  0  0  0
   28.3288  -18.5923  -19.8821 C   0  0  0  0  0  0  0  0  0  0  0  0
   29.6603  -18.5958  -20.4188 N   0  0  0  0  0  0  0  0  0  0  0  0
   26.2910  -21.2223  -15.0567 C   0  0  0  0  0  0  0  0  0  0  0  0
   26.1921  -22.4217  -14.7264 O   0  0  0  0  0  0  0  0  0  0  0  0
   30.5817  -21.5965  -10.5478 O   0  0  0  0  0  0  0  0  0  0  0  0
   29.3171  -21.1472  -10.8901 C   0  0  0  0  0  0  0  0  0  0  0  0
   28.1954  -21.6376  -10.2581 C   0  0  0  0  0  0  0  0  0  0  0  0
   26.9439  -21.1769  -10.6139 C   0  0  0  0  0  0  0  0  0  0  0  0
   26.7470  -20.2295  -11.5907 C   0  0  0  0  0  0  0  0  0  0  0  0
   25.3901  -19.7552  -11.9499 C   0  0  0  0  0  0  0  0  0  0  0  0
   24.8204  -20.5513  -13.1157 C   0  0  2  0  0  0  0  0  0  0  0  0
   25.5842  -20.2508  -14.2880 N   0  0  0  0  0  0  0  0  0  0  0  0
   23.3699  -20.2589  -13.2942 C   0  0  0  0  0  0  0  0  0  0  0  0
   22.9519  -19.0836  -13.5184 O   0  0  0  0  0  0  0  0  0  0  0  0
   27.8884  -19.7375  -12.2265 C   0  0  0  0  0  0  0  0  0  0  0  0
   29.1476  -20.1860  -11.8844 C   0  0  0  0  0  0  0  0  0  0  0  0
   20.5562  -23.3248  -14.2498 C   0  0  0  0  0  0  0  0  0  0  0  0
   20.3391  -21.8266  -14.4742 C   0  0  2  0  0  0  0  0  0  0  0  0
   21.0272  -21.4957  -15.7786 C   0  0  0  0  0  0  0  0  0  0  0  0
   20.9670  -21.0108  -13.3873 C   0  0  2  0  0  0  0  0  0  0  0  0
   22.3759  -21.2731  -13.2243 N   0  0  0  0  0  0  0  0  0  0  0  0
   20.2567  -21.3041  -12.1207 C   0  0  0  0  0  0  0  0  0  0  0  0
   20.8280  -22.0265  -11.2682 O   0  0  0  0  0  0  0  0  0  0  0  0
   18.9938  -20.8222  -11.8276 O   0  0  0  0  0  0  0  0  0  0  0  0
  2  1  1  6
  3  2  1  0
  4  3  1  0
  5  4  1  0
  6  5  1  0
  7  6  1  0
  8  9  2  0
  8  2  1  0
 10 11  1  0
 11 12  2  0
 12 13  1  0
 14 13  2  0
 14 15  1  0
 16 15  1  1
 16 17  1  0
 17  8  1  0
 18 26  1  0
 18 16  1  0
 19 18  2  0
 20 14  1  0
 21 11  1  0
 21 20  2  0
 23 22  1  1
 23 25  1  0
 23 24  1  0
 25 27  1  0
 25 26  1  1
 27 29  1  0
 28 27  2  0
M  END
$$$$
