KYV.pdb
     RDKit          3D

 29 29  0  0  1  0  0  0  0  0999 V2000
   28.1645  -20.7585  -14.5103 N   0  0  0  0  0  0  0  0  0  0  0  0
   26.8789  -20.2012  -14.7989 C   0  0  1  0  0  0  0  0  0  0  0  0
   26.6015  -20.3269  -16.2764 C   0  0  0  0  0  0  0  0  0  0  0  0
   26.8763  -19.0173  -16.9744 C   0  0  0  0  0  0  0  0  0  0  0  0
   27.4533  -17.9725  -16.0742 C   0  0  0  0  0  0  0  0  0  0  0  0
   27.6745  -16.6590  -16.8050 C   0  0  0  0  0  0  0  0  0  0  0  0
   28.7149  -16.7388  -17.7909 N   0  0  0  0  0  0  0  0  0  0  0  0
   25.8426  -20.8768  -13.9813 C   0  0  0  0  0  0  0  0  0  0  0  0
   25.7350  -22.1190  -14.0337 O   0  0  0  0  0  0  0  0  0  0  0  0
   28.2180  -21.4003   -7.6483 O   0  0  0  0  0  0  0  0  0  0  0  0
   27.1509  -21.0714   -8.4677 C   0  0  0  0  0  0  0  0  0  0  0  0
   26.3502  -19.9858   -8.1873 C   0  0  0  0  0  0  0  0  0  0  0  0
   25.2914  -19.6747   -9.0164 C   0  0  0  0  0  0  0  0  0  0  0  0
   24.9814  -20.4070  -10.1380 C   0  0  0  0  0  0  0  0  0  0  0  0
   23.8377  -20.0471  -11.0084 C   0  0  0  0  0  0  0  0  0  0  0  0
   23.9191  -20.7659  -12.3479 C   0  0  2  0  0  0  0  0  0  0  0  0
   24.9538  -20.1585  -13.1279 N   0  0  0  0  0  0  0  0  0  0  0  0
   22.5993  -20.7410  -13.0400 C   0  0  0  0  0  0  0  0  0  0  0  0
   22.1736  -19.6983  -13.6211 O   0  0  0  0  0  0  0  0  0  0  0  0
   25.7973  -21.5054  -10.4154 C   0  0  0  0  0  0  0  0  0  0  0  0
   26.8600  -21.8319   -9.5983 C   0  0  0  0  0  0  0  0  0  0  0  0
   20.2080  -24.3499  -13.4730 C   0  0  0  0  0  0  0  0  0  0  0  0
   20.1668  -23.1718  -14.4489 C   0  0  2  0  0  0  0  0  0  0  0  0
   21.2509  -23.4359  -15.4685 C   0  0  0  0  0  0  0  0  0  0  0  0
   20.4691  -21.8768  -13.7612 C   0  0  2  0  0  0  0  0  0  0  0  0
   21.7455  -21.8768  -13.0893 N   0  0  0  0  0  0  0  0  0  0  0  0
   19.3908  -21.6122  -12.7803 C   0  0  0  0  0  0  0  0  0  0  0  0
   19.6534  -21.7244  -11.5582 O   0  0  0  0  0  0  0  0  0  0  0  0
   18.1067  -21.2469  -13.1417 O   0  0  0  0  0  0  0  0  0  0  0  0
  2  1  1  6
  3  2  1  0
  4  3  1  0
  5  4  1  0
  6  5  1  0
  7  6  1  0
  8  9  2  0
  8  2  1  0
 10 11  1  0
 11 12  2  0
 12 13  1  0
 14 13  2  0
 14 15  1  0
 16 15  1  1
 16 17  1  0
 17  8  1  0
 18 26  1  0
 18 16  1  0
 19 18  2  0
 20 14  1  0
 21 11  1  0
 21 20  2  0
 23 22  1  1
 23 25  1  0
 23 24  1  0
 25 27  1  0
 25 26  1  1
 27 29  1  0
 28 27  2  0
M  END
$$$$
