KYV.pdb
     RDKit          3D

 29 29  0  0  1  0  0  0  0  0999 V2000
   19.8149  -23.6293  -15.4953 N   0  0  0  0  0  0  0  0  0  0  0  0
   19.7664  -22.2364  -15.8182 C   0  0  1  0  0  0  0  0  0  0  0  0
   18.4077  -21.6885  -15.4585 C   0  0  0  0  0  0  0  0  0  0  0  0
   17.3759  -22.1467  -16.4601 C   0  0  0  0  0  0  0  0  0  0  0  0
   17.8732  -23.2140  -17.3812 C   0  0  0  0  0  0  0  0  0  0  0  0
   16.7311  -24.0089  -17.9910 C   0  0  0  0  0  0  0  0  0  0  0  0
   16.2303  -23.4240  -19.2026 N   0  0  0  0  0  0  0  0  0  0  0  0
   20.8571  -21.5187  -15.1153 C   0  0  0  0  0  0  0  0  0  0  0  0
   20.7525  -20.2915  -14.9146 O   0  0  0  0  0  0  0  0  0  0  0  0
   27.8146  -19.9155   -9.9653 O   0  0  0  0  0  0  0  0  0  0  0  0
   26.8108  -20.5342  -10.6918 C   0  0  0  0  0  0  0  0  0  0  0  0
   27.1067  -21.3100  -11.7913 C   0  0  0  0  0  0  0  0  0  0  0  0
   26.0918  -21.9182  -12.5021 C   0  0  0  0  0  0  0  0  0  0  0  0
   24.7647  -21.7904  -12.1662 C   0  0  0  0  0  0  0  0  0  0  0  0
   23.6980  -22.4562  -12.9497 C   0  0  0  0  0  0  0  0  0  0  0  0
   23.1260  -21.5203  -14.0054 C   0  0  2  0  0  0  0  0  0  0  0  0
   22.0337  -22.1795  -14.6538 N   0  0  0  0  0  0  0  0  0  0  0  0
   24.1852  -21.1003  -14.9662 C   0  0  0  0  0  0  0  0  0  0  0  0
   24.7011  -21.9182  -15.7854 O   0  0  0  0  0  0  0  0  0  0  0  0
   24.4729  -21.0027  -11.0510 C   0  0  0  0  0  0  0  0  0  0  0  0
   25.4739  -20.3870  -10.3281 C   0  0  0  0  0  0  0  0  0  0  0  0
   25.7999  -17.0208  -15.0067 C   0  0  0  0  0  0  0  0  0  0  0  0
   25.6218  -17.8753  -16.2637 C   0  0  2  0  0  0  0  0  0  0  0  0
   24.2380  -17.5653  -16.7868 C   0  0  0  0  0  0  0  0  0  0  0  0
   25.6927  -19.3374  -15.9498 C   0  0  2  0  0  0  0  0  0  0  0  0
   24.6763  -19.7672  -15.0209 N   0  0  0  0  0  0  0  0  0  0  0  0
   27.0332  -19.6246  -15.3882 C   0  0  0  0  0  0  0  0  0  0  0  0
   27.1759  -19.6051  -14.1414 O   0  0  0  0  0  0  0  0  0  0  0  0
   28.1385  -19.9139  -16.1677 O   0  0  0  0  0  0  0  0  0  0  0  0
  2  1  1  1
  3  2  1  0
  4  3  1  0
  5  4  1  0
  6  5  1  0
  7  6  1  0
  8  9  2  0
  8  2  1  0
 10 11  1  0
 11 12  2  0
 12 13  1  0
 14 13  2  0
 14 15  1  0
 16 15  1  1
 16 17  1  0
 17  8  1  0
 18 26  1  0
 18 16  1  0
 19 18  2  0
 20 14  1  0
 21 11  1  0
 21 20  2  0
 23 22  1  1
 23 25  1  0
 23 24  1  0
 25 27  1  0
 25 26  1  1
 27 29  1  0
 28 27  2  0
M  END
$$$$
