KYV.pdb
     RDKit          3D

 29 29  0  0  1  0  0  0  0  0999 V2000
   24.3077  -21.0446  -17.1056 N   0  0  0  0  0  0  0  0  0  0  0  0
   23.9304  -20.4465  -15.8620 C   0  0  1  0  0  0  0  0  0  0  0  0
   22.5260  -20.8708  -15.5107 C   0  0  0  0  0  0  0  0  0  0  0  0
   21.5264  -19.8868  -16.0678 C   0  0  0  0  0  0  0  0  0  0  0  0
   21.4296  -19.9165  -17.5593 C   0  0  0  0  0  0  0  0  0  0  0  0
   20.3226  -19.0098  -18.0701 C   0  0  0  0  0  0  0  0  0  0  0  0
   20.7671  -17.6645  -18.3012 N   0  0  0  0  0  0  0  0  0  0  0  0
   24.9028  -20.8221  -14.8075 C   0  0  0  0  0  0  0  0  0  0  0  0
   24.9599  -22.0075  -14.4216 O   0  0  0  0  0  0  0  0  0  0  0  0
   30.3507  -22.5922  -17.8237 O   0  0  0  0  0  0  0  0  0  0  0  0
   29.7963  -21.8732  -16.7778 C   0  0  0  0  0  0  0  0  0  0  0  0
   29.2028  -20.6489  -16.9952 C   0  0  0  0  0  0  0  0  0  0  0  0
   28.6560  -19.9481  -15.9393 C   0  0  0  0  0  0  0  0  0  0  0  0
   28.6700  -20.4150  -14.6462 C   0  0  0  0  0  0  0  0  0  0  0  0
   28.0742  -19.6385  -13.5340 C   0  0  0  0  0  0  0  0  0  0  0  0
   26.7038  -20.1832  -13.1558 C   0  0  2  0  0  0  0  0  0  0  0  0
   25.7854  -19.8750  -14.2091 N   0  0  0  0  0  0  0  0  0  0  0  0
   26.2635  -19.6350  -11.8416 C   0  0  0  0  0  0  0  0  0  0  0  0
   25.8730  -18.4355  -11.7196 O   0  0  0  0  0  0  0  0  0  0  0  0
   29.2730  -21.6562  -14.4340 C   0  0  0  0  0  0  0  0  0  0  0  0
   29.8249  -22.3713  -15.4768 C   0  0  0  0  0  0  0  0  0  0  0  0
   25.2388  -22.1778   -8.5339 C   0  0  0  0  0  0  0  0  0  0  0  0
   24.7976  -20.7226   -8.7060 C   0  0  2  0  0  0  0  0  0  0  0  0
   23.5860  -20.7575   -9.6089 C   0  0  0  0  0  0  0  0  0  0  0  0
   25.8587  -19.9007   -9.3691 C   0  0  2  0  0  0  0  0  0  0  0  0
   26.2552  -20.4188  -10.6555 N   0  0  0  0  0  0  0  0  0  0  0  0
   27.0343  -19.8511   -8.4690 C   0  0  0  0  0  0  0  0  0  0  0  0
   28.0344  -20.5545   -8.7523 O   0  0  0  0  0  0  0  0  0  0  0  0
   27.0879  -19.0683   -7.3300 O   0  0  0  0  0  0  0  0  0  0  0  0
  2  1  1  6
  3  2  1  0
  4  3  1  0
  5  4  1  0
  6  5  1  0
  7  6  1  0
  8  9  2  0
  8  2  1  0
 10 11  1  0
 11 12  2  0
 12 13  1  0
 14 13  2  0
 14 15  1  0
 16 15  1  6
 16 17  1  0
 17  8  1  0
 18 26  1  0
 18 16  1  0
 19 18  2  0
 20 14  1  0
 21 11  1  0
 21 20  2  0
 23 22  1  6
 23 25  1  0
 23 24  1  0
 25 27  1  0
 25 26  1  6
 27 29  1  0
 28 27  2  0
M  END
$$$$
