KYV.pdb
     RDKit          3D

 29 29  0  0  1  0  0  0  0  0999 V2000
   21.5944  -12.8814  -20.3638 N   0  0  0  0  0  0  0  0  0  0  0  0
   20.4437  -12.0808  -20.6496 C   0  0  1  0  0  0  0  0  0  0  0  0
   19.3766  -12.9464  -21.2724 C   0  0  0  0  0  0  0  0  0  0  0  0
   19.9663  -13.7956  -22.3719 C   0  0  0  0  0  0  0  0  0  0  0  0
   19.3390  -13.5593  -23.7081 C   0  0  0  0  0  0  0  0  0  0  0  0
   19.8504  -14.5382  -24.7514 C   0  0  0  0  0  0  0  0  0  0  0  0
   19.1246  -14.4637  -25.9878 N   0  0  0  0  0  0  0  0  0  0  0  0
   19.9685  -11.4220  -19.4091 C   0  0  0  0  0  0  0  0  0  0  0  0
   18.9448  -10.7093  -19.4480 O   0  0  0  0  0  0  0  0  0  0  0  0
   16.5703  -16.3109  -16.7399 O   0  0  0  0  0  0  0  0  0  0  0  0
   17.4741  -15.2843  -16.5223 C   0  0  0  0  0  0  0  0  0  0  0  0
   18.8071  -15.4347  -16.8368 C   0  0  0  0  0  0  0  0  0  0  0  0
   19.6919  -14.3994  -16.6122 C   0  0  0  0  0  0  0  0  0  0  0  0
   19.3083  -13.1923  -16.0772 C   0  0  0  0  0  0  0  0  0  0  0  0
   20.2826  -12.1000  -15.8482 C   0  0  0  0  0  0  0  0  0  0  0  0
   20.1681  -11.0273  -16.9222 C   0  0  2  0  0  0  0  0  0  0  0  0
   20.6397  -11.5702  -18.1595 N   0  0  0  0  0  0  0  0  0  0  0  0
   20.9125   -9.7996  -16.5220 C   0  0  0  0  0  0  0  0  0  0  0  0
   22.1774   -9.7428  -16.5755 O   0  0  0  0  0  0  0  0  0  0  0  0
   17.9561  -13.0476  -15.7612 C   0  0  0  0  0  0  0  0  0  0  0  0
   17.0569  -14.0712  -15.9786 C   0  0  0  0  0  0  0  0  0  0  0  0
   19.0746   -5.9990  -16.5189 C   0  0  0  0  0  0  0  0  0  0  0  0
   20.5856   -6.2412  -16.5193 C   0  0  2  0  0  0  0  0  0  0  0  0
   20.9609   -6.5367  -17.9533 C   0  0  0  0  0  0  0  0  0  0  0  0
   20.9533   -7.4253  -15.6802 C   0  0  2  0  0  0  0  0  0  0  0  0
   20.2532   -8.6279  -16.0597 N   0  0  0  0  0  0  0  0  0  0  0  0
   20.6531   -7.1002  -14.2663 C   0  0  0  0  0  0  0  0  0  0  0  0
   21.3303   -6.2073  -13.7012 O   0  0  0  0  0  0  0  0  0  0  0  0
   19.6632   -7.7306  -13.5345 O   0  0  0  0  0  0  0  0  0  0  0  0
  2  1  1  1
  3  2  1  0
  4  3  1  0
  5  4  1  0
  6  5  1  0
  7  6  1  0
  8  9  2  0
  8  2  1  0
 10 11  1  0
 11 12  2  0
 12 13  1  0
 14 13  2  0
 14 15  1  0
 16 15  1  1
 16 17  1  0
 17  8  1  0
 18 26  1  0
 18 16  1  0
 19 18  2  0
 20 14  1  0
 21 11  1  0
 21 20  2  0
 23 22  1  6
 23 25  1  0
 23 24  1  0
 25 27  1  0
 25 26  1  6
 27 29  1  0
 28 27  2  0
M  END
$$$$
