KYV.pdb
     RDKit          3D

 29 29  0  0  1  0  0  0  0  0999 V2000
   28.5287  -22.5698  -16.3885 N   0  0  0  0  0  0  0  0  0  0  0  0
   27.4094  -21.6868  -16.5073 C   0  0  1  0  0  0  0  0  0  0  0  0
   26.6811  -21.9760  -17.7964 C   0  0  0  0  0  0  0  0  0  0  0  0
   27.6676  -22.2346  -18.9089 C   0  0  0  0  0  0  0  0  0  0  0  0
   27.5915  -21.2336  -20.0167 C   0  0  0  0  0  0  0  0  0  0  0  0
   27.6956  -21.8941  -21.3809 C   0  0  0  0  0  0  0  0  0  0  0  0
   27.5173  -20.9678  -22.4630 N   0  0  0  0  0  0  0  0  0  0  0  0
   26.5249  -21.8339  -15.3263 C   0  0  0  0  0  0  0  0  0  0  0  0
   26.4534  -22.9378  -14.7486 O   0  0  0  0  0  0  0  0  0  0  0  0
   30.1385  -21.6463  -10.0954 O   0  0  0  0  0  0  0  0  0  0  0  0
   28.9798  -21.2063  -10.7136 C   0  0  0  0  0  0  0  0  0  0  0  0
   27.7396  -21.5391  -10.2142 C   0  0  0  0  0  0  0  0  0  0  0  0
   26.5968  -21.0905  -10.8449 C   0  0  0  0  0  0  0  0  0  0  0  0
   26.6260  -20.3083  -11.9753 C   0  0  0  0  0  0  0  0  0  0  0  0
   25.3810  -19.8424  -12.6294 C   0  0  0  0  0  0  0  0  0  0  0  0
   24.8969  -20.8456  -13.6671 C   0  0  2  0  0  0  0  0  0  0  0  0
   25.7437  -20.7547  -14.8171 N   0  0  0  0  0  0  0  0  0  0  0  0
   23.4632  -20.6096  -13.9991 C   0  0  0  0  0  0  0  0  0  0  0  0
   23.0752  -19.5300  -14.5378 O   0  0  0  0  0  0  0  0  0  0  0  0
   27.8863  -19.9753  -12.4752 C   0  0  0  0  0  0  0  0  0  0  0  0
   29.0398  -20.4143  -11.8584 C   0  0  0  0  0  0  0  0  0  0  0  0
   20.6291  -23.8577  -13.9688 C   0  0  0  0  0  0  0  0  0  0  0  0
   20.5015  -22.5908  -14.8177 C   0  0  2  0  0  0  0  0  0  0  0  0
   21.3114  -22.8429  -16.0687 C   0  0  0  0  0  0  0  0  0  0  0  0
   21.0732  -21.3984  -14.1159 C   0  0  2  0  0  0  0  0  0  0  0  0
   22.4529  -21.5739  -13.7333 N   0  0  0  0  0  0  0  0  0  0  0  0
   20.2527  -21.1344  -12.9109 C   0  0  0  0  0  0  0  0  0  0  0  0
   20.7181  -21.4517  -11.7894 O   0  0  0  0  0  0  0  0  0  0  0  0
   18.9977  -20.5550  -12.9572 O   0  0  0  0  0  0  0  0  0  0  0  0
  2  1  1  1
  3  2  1  0
  4  3  1  0
  5  4  1  0
  6  5  1  0
  7  6  1  0
  8  9  2  0
  8  2  1  0
 10 11  1  0
 11 12  2  0
 12 13  1  0
 14 13  2  0
 14 15  1  0
 16 15  1  1
 16 17  1  0
 17  8  1  0
 18 26  1  0
 18 16  1  0
 19 18  2  0
 20 14  1  0
 21 11  1  0
 21 20  2  0
 23 22  1  1
 23 25  1  0
 23 24  1  0
 25 27  1  0
 25 26  1  1
 27 29  1  0
 28 27  2  0
M  END
$$$$
