KYV.pdb
     RDKit          3D

 29 29  0  0  1  0  0  0  0  0999 V2000
   30.7623  -27.2569  -22.0900 N   0  0  0  0  0  0  0  0  0  0  0  0
   30.8532  -28.0971  -20.9357 C   0  0  1  0  0  0  0  0  0  0  0  0
   31.2926  -27.2717  -19.7519 C   0  0  0  0  0  0  0  0  0  0  0  0
   32.7870  -27.0624  -19.7848 C   0  0  0  0  0  0  0  0  0  0  0  0
   33.5163  -27.8089  -18.7145 C   0  0  0  0  0  0  0  0  0  0  0  0
   34.9856  -27.4257  -18.6617 C   0  0  0  0  0  0  0  0  0  0  0  0
   35.7092  -28.1334  -17.6437 N   0  0  0  0  0  0  0  0  0  0  0  0
   29.5505  -28.7627  -20.6940 C   0  0  0  0  0  0  0  0  0  0  0  0
   28.5205  -28.3056  -21.2303 O   0  0  0  0  0  0  0  0  0  0  0  0
   25.9596  -36.5410  -20.7598 O   0  0  0  0  0  0  0  0  0  0  0  0
   26.3930  -35.2274  -20.8294 C   0  0  0  0  0  0  0  0  0  0  0  0
   27.6044  -34.9101  -21.4041 C   0  0  0  0  0  0  0  0  0  0  0  0
   28.0183  -33.5947  -21.4636 C   0  0  0  0  0  0  0  0  0  0  0  0
   27.2698  -32.5533  -20.9681 C   0  0  0  0  0  0  0  0  0  0  0  0
   27.7421  -31.1513  -21.0472 C   0  0  0  0  0  0  0  0  0  0  0  0
   28.2085  -30.6510  -19.6872 C   0  0  2  0  0  0  0  0  0  0  0  0
   29.4237  -29.9164  -19.8651 N   0  0  0  0  0  0  0  0  0  0  0  0
   28.3670  -31.7862  -18.7344 C   0  0  0  0  0  0  0  0  0  0  0  0
   29.4036  -32.5155  -18.7368 O   0  0  0  0  0  0  0  0  0  0  0  0
   26.0437  -32.8829  -20.3873 C   0  0  0  0  0  0  0  0  0  0  0  0
   25.6131  -34.1919  -20.3187 C   0  0  0  0  0  0  0  0  0  0  0  0
   28.7763  -31.2696  -15.2950 C   0  0  0  0  0  0  0  0  0  0  0  0
   27.6536  -32.3084  -15.3441 C   0  0  2  0  0  0  0  0  0  0  0  0
   27.9784  -33.3253  -14.2741 C   0  0  0  0  0  0  0  0  0  0  0  0
   27.6101  -33.0096  -16.6661 C   0  0  2  0  0  0  0  0  0  0  0  0
   27.3727  -32.1163  -17.7734 N   0  0  0  0  0  0  0  0  0  0  0  0
   26.5382  -34.0308  -16.6121 C   0  0  0  0  0  0  0  0  0  0  0  0
   25.3606  -33.6753  -16.8616 O   0  0  0  0  0  0  0  0  0  0  0  0
   26.7675  -35.3587  -16.3006 O   0  0  0  0  0  0  0  0  0  0  0  0
  2  1  1  6
  3  2  1  0
  4  3  1  0
  5  4  1  0
  6  5  1  0
  7  6  1  0
  8  9  2  0
  8  2  1  0
 10 11  1  0
 11 12  2  0
 12 13  1  0
 14 13  2  0
 14 15  1  0
 16 15  1  6
 16 17  1  0
 17  8  1  0
 18 26  1  0
 18 16  1  0
 19 18  2  0
 20 14  1  0
 21 11  1  0
 21 20  2  0
 23 22  1  6
 23 25  1  0
 23 24  1  0
 25 27  1  0
 25 26  1  6
 27 29  1  0
 28 27  2  0
M  END
$$$$
