KYV.pdb
     RDKit          3D

 29 29  0  0  1  0  0  0  0  0999 V2000
   21.2306  -21.1860  -12.3374 N   0  0  0  0  0  0  0  0  0  0  0  0
   21.8142  -20.9277  -13.6178 C   0  0  1  0  0  0  0  0  0  0  0  0
   20.7581  -20.3803  -14.5455 C   0  0  0  0  0  0  0  0  0  0  0  0
   20.4009  -21.4042  -15.5952 C   0  0  0  0  0  0  0  0  0  0  0  0
   19.9803  -22.7203  -15.0243 C   0  0  0  0  0  0  0  0  0  0  0  0
   18.8507  -23.3462  -15.8245 C   0  0  0  0  0  0  0  0  0  0  0  0
   17.7169  -22.4763  -15.9614 N   0  0  0  0  0  0  0  0  0  0  0  0
   22.9588  -19.9966  -13.4705 C   0  0  0  0  0  0  0  0  0  0  0  0
   22.7988  -18.9221  -12.8564 O   0  0  0  0  0  0  0  0  0  0  0  0
   25.2547  -21.1150   -7.6065 O   0  0  0  0  0  0  0  0  0  0  0  0
   25.5510  -20.9216   -8.9455 C   0  0  0  0  0  0  0  0  0  0  0  0
   25.4482  -21.9552   -9.8508 C   0  0  0  0  0  0  0  0  0  0  0  0
   25.7481  -21.7419  -11.1811 C   0  0  0  0  0  0  0  0  0  0  0  0
   26.1551  -20.5224  -11.6684 C   0  0  0  0  0  0  0  0  0  0  0  0
   26.4697  -20.3254  -13.1027 C   0  0  0  0  0  0  0  0  0  0  0  0
   25.4096  -19.4727  -13.7858 C   0  0  2  0  0  0  0  0  0  0  0  0
   24.2493  -20.2807  -14.0071 N   0  0  0  0  0  0  0  0  0  0  0  0
   25.9398  -18.8847  -15.0485 C   0  0  0  0  0  0  0  0  0  0  0  0
   25.8422  -19.4924  -16.1564 O   0  0  0  0  0  0  0  0  0  0  0  0
   26.2568  -19.4802  -10.7451 C   0  0  0  0  0  0  0  0  0  0  0  0
   25.9613  -19.6743   -9.4114 C   0  0  0  0  0  0  0  0  0  0  0  0
   26.5648  -14.6576  -15.3429 C   0  0  0  0  0  0  0  0  0  0  0  0
   27.5245  -15.5868  -16.0896 C   0  0  2  0  0  0  0  0  0  0  0  0
   27.7662  -14.9433  -17.4357 C   0  0  0  0  0  0  0  0  0  0  0  0
   26.9200  -16.9381  -16.3126 C   0  0  2  0  0  0  0  0  0  0  0  0
   26.5819  -17.6168  -15.0855 N   0  0  0  0  0  0  0  0  0  0  0  0
   27.8867  -17.7550  -17.0827 C   0  0  0  0  0  0  0  0  0  0  0  0
   27.7717  -17.7980  -18.3317 O   0  0  0  0  0  0  0  0  0  0  0  0
   28.9119  -18.4745  -16.4960 O   0  0  0  0  0  0  0  0  0  0  0  0
  2  1  1  1
  3  2  1  0
  4  3  1  0
  5  4  1  0
  6  5  1  0
  7  6  1  0
  8  9  2  0
  8  2  1  0
 10 11  1  0
 11 12  2  0
 12 13  1  0
 14 13  2  0
 14 15  1  0
 16 15  1  6
 16 17  1  0
 17  8  1  0
 18 26  1  0
 18 16  1  0
 19 18  2  0
 20 14  1  0
 21 11  1  0
 21 20  2  0
 23 22  1  1
 23 25  1  0
 23 24  1  0
 25 27  1  0
 25 26  1  1
 27 29  1  0
 28 27  2  0
M  END
$$$$
