KYV.pdb
     RDKit          3D

 29 29  0  0  1  0  0  0  0  0999 V2000
   20.2205  -13.7992  -21.2907 N   0  0  0  0  0  0  0  0  0  0  0  0
   19.4999  -13.3769  -20.1292 C   0  0  1  0  0  0  0  0  0  0  0  0
   19.5931  -14.4459  -19.0689 C   0  0  0  0  0  0  0  0  0  0  0  0
   19.8029  -15.7983  -19.7052 C   0  0  0  0  0  0  0  0  0  0  0  0
   18.7325  -16.7865  -19.3700 C   0  0  0  0  0  0  0  0  0  0  0  0
   19.0624  -18.1738  -19.8944 C   0  0  0  0  0  0  0  0  0  0  0  0
   18.1052  -19.1641  -19.4896 N   0  0  0  0  0  0  0  0  0  0  0  0
   20.0305  -12.0766  -19.6531 C   0  0  0  0  0  0  0  0  0  0  0  0
   21.2649  -11.9102  -19.5767 O   0  0  0  0  0  0  0  0  0  0  0  0
   20.0304   -3.6971  -16.7192 O   0  0  0  0  0  0  0  0  0  0  0  0
   19.6919   -4.9079  -17.3003 C   0  0  0  0  0  0  0  0  0  0  0  0
   18.6204   -5.6407  -16.8387 C   0  0  0  0  0  0  0  0  0  0  0  0
   18.2994   -6.8453  -17.4314 C   0  0  0  0  0  0  0  0  0  0  0  0
   19.0080   -7.3705  -18.4861 C   0  0  0  0  0  0  0  0  0  0  0  0
   18.6382   -8.6667  -19.1010 C   0  0  0  0  0  0  0  0  0  0  0  0
   19.6459   -9.7510  -18.7456 C   0  0  2  0  0  0  0  0  0  0  0  0
   19.1798  -10.9963  -19.2747 N   0  0  0  0  0  0  0  0  0  0  0  0
   19.8618   -9.8068  -17.2719 C   0  0  0  0  0  0  0  0  0  0  0  0
   19.0365  -10.3822  -16.5012 O   0  0  0  0  0  0  0  0  0  0  0  0
   20.0923   -6.6222  -18.9481 C   0  0  0  0  0  0  0  0  0  0  0  0
   20.4283   -5.4161  -18.3683 C   0  0  0  0  0  0  0  0  0  0  0  0
   22.8663  -11.2178  -15.4180 C   0  0  0  0  0  0  0  0  0  0  0  0
   22.6355   -9.7920  -14.9124 C   0  0  2  0  0  0  0  0  0  0  0  0
   22.7861   -9.8522  -13.4097 C   0  0  0  0  0  0  0  0  0  0  0  0
   21.2536   -9.3122  -15.2308 C   0  0  2  0  0  0  0  0  0  0  0  0
   20.9976   -9.2225  -16.6475 N   0  0  0  0  0  0  0  0  0  0  0  0
   21.0719   -7.9806  -14.6074 C   0  0  0  0  0  0  0  0  0  0  0  0
   21.1933   -6.9609  -15.3290 O   0  0  0  0  0  0  0  0  0  0  0  0
   20.7748   -7.8017  -13.2685 O   0  0  0  0  0  0  0  0  0  0  0  0
  2  1  1  6
  3  2  1  0
  4  3  1  0
  5  4  1  0
  6  5  1  0
  7  6  1  0
  8  9  2  0
  8  2  1  0
 10 11  1  0
 11 12  2  0
 12 13  1  0
 14 13  2  0
 14 15  1  0
 16 15  1  1
 16 17  1  0
 17  8  1  0
 18 26  1  0
 18 16  1  0
 19 18  2  0
 20 14  1  0
 21 11  1  0
 21 20  2  0
 23 22  1  6
 23 25  1  0
 23 24  1  0
 25 27  1  0
 25 26  1  6
 27 29  1  0
 28 27  2  0
M  END
$$$$
