NFS.pdb
     RDKit          3D

 26 26  0  0  1  0  0  0  0  0999 V2000
   19.0407  -22.1149  -13.3178 N   0  0  0  0  0  0  0  0  0  0  0  0
   20.0220  -22.1385  -14.3255 C   0  0  0  0  0  0  0  0  0  0  0  0
   19.7878  -22.8486  -15.3410 O   0  0  0  0  0  0  0  0  0  0  0  0
   21.2820  -21.3606  -14.2008 C   0  0  0  0  0  0  0  0  0  0  0  0
   21.3677  -20.7526  -12.8245 C   0  0  2  0  0  0  0  0  0  0  0  0
   20.5470  -19.5627  -12.7821 N   0  0  0  0  0  0  0  0  0  0  0  0
   22.7408  -20.4269  -12.4215 C   0  0  0  0  0  0  0  0  0  0  0  0
   23.3465  -19.4343  -12.9533 O   0  0  0  0  0  0  0  0  0  0  0  0
   23.4935  -21.1273  -11.4661 N   0  0  0  0  0  0  0  0  0  0  0  0
   24.8803  -20.8790  -11.1419 C   0  0  1  0  0  0  0  0  0  0  0  0
   25.3189  -21.4507   -9.8445 C   0  0  0  0  0  0  0  0  0  0  0  0
   26.5447  -20.8991   -9.2795 C   0  0  0  0  0  0  0  0  0  0  0  0
   26.6494  -19.8791   -8.3753 C   0  0  0  0  0  0  0  0  0  0  0  0
   27.8606  -19.4373   -7.9089 C   0  0  0  0  0  0  0  0  0  0  0  0
   29.0608  -20.0018   -8.3287 C   0  0  0  0  0  0  0  0  0  0  0  0
   28.9572  -21.0307   -9.2406 C   0  0  0  0  0  0  0  0  0  0  0  0
   27.7457  -21.4811   -9.7146 C   0  0  0  0  0  0  0  0  0  0  0  0
   25.7685  -21.1506  -12.2904 C   0  0  0  0  0  0  0  0  0  0  0  0
   25.8335  -22.3043  -12.7797 O   0  0  0  0  0  0  0  0  0  0  0  0
   28.0610  -18.1722  -14.0344 O   0  0  0  0  0  0  0  0  0  0  0  0
   27.4586  -19.0874  -14.9058 C   0  0  0  0  0  0  0  0  0  0  0  0
   27.2720  -20.3916  -14.1346 C   0  0  2  0  0  0  0  0  0  0  0  0
   26.5720  -20.1449  -12.8861 N   0  0  0  0  0  0  0  0  0  0  0  0
   28.5554  -21.0402  -13.8535 C   0  0  0  0  0  0  0  0  0  0  0  0
   29.3387  -21.5100  -14.8819 O   0  0  0  0  0  0  0  0  0  0  0  0
   28.9526  -21.1745  -12.6752 O   0  0  0  0  0  0  0  0  0  0  0  0
  1  2  1  0
  2  3  2  0
  4  2  1  0
  4  5  1  0
  5  6  1  6
  7  5  1  0
  7  8  2  0
  9  7  1  0
 10  9  1  0
 10 11  1  1
 12 17  2  0
 12 11  1  0
 13 12  1  0
 14 15  1  0
 14 13  2  0
 15 16  2  0
 16 17  1  0
 18 10  1  0
 19 18  2  0
 21 20  1  0
 22 21  1  1
 22 23  1  0
 23 18  1  0
 24 25  1  0
 24 22  1  0
 26 24  2  0
M  END
$$$$
