NFS.pdb
     RDKit          3D

 26 26  0  0  1  0  0  0  0  0999 V2000
   20.5834  -23.0145   -6.1142 N   0  0  0  0  0  0  0  0  0  0  0  0
   20.6810  -23.2011   -7.5051 C   0  0  0  0  0  0  0  0  0  0  0  0
   19.9315  -24.0730   -8.0232 O   0  0  0  0  0  0  0  0  0  0  0  0
   21.6265  -22.4058   -8.3309 C   0  0  0  0  0  0  0  0  0  0  0  0
   22.4413  -21.5036   -7.4403 C   0  0  2  0  0  0  0  0  0  0  0  0
   21.5929  -20.4466   -6.9361 N   0  0  0  0  0  0  0  0  0  0  0  0
   23.6095  -20.9268   -8.1162 C   0  0  0  0  0  0  0  0  0  0  0  0
   23.4628  -19.9495   -8.9275 O   0  0  0  0  0  0  0  0  0  0  0  0
   24.9351  -21.3591   -7.9554 N   0  0  0  0  0  0  0  0  0  0  0  0
   26.0720  -20.8831   -8.7109 C   0  0  1  0  0  0  0  0  0  0  0  0
   27.3803  -21.0763   -8.0377 C   0  0  0  0  0  0  0  0  0  0  0  0
   27.5408  -20.4242   -6.7435 C   0  0  0  0  0  0  0  0  0  0  0  0
   27.7057  -21.0310   -5.5296 C   0  0  0  0  0  0  0  0  0  0  0  0
   27.8473  -20.3161   -4.3683 C   0  0  0  0  0  0  0  0  0  0  0  0
   27.8319  -18.9251   -4.3543 C   0  0  0  0  0  0  0  0  0  0  0  0
   27.6658  -18.3113   -5.5778 C   0  0  0  0  0  0  0  0  0  0  0  0
   27.5228  -19.0207   -6.7489 C   0  0  0  0  0  0  0  0  0  0  0  0
   26.0116  -21.3152  -10.1221 C   0  0  0  0  0  0  0  0  0  0  0  0
   25.9193  -22.5341  -10.4061 O   0  0  0  0  0  0  0  0  0  0  0  0
   25.3858  -18.6868  -13.3104 O   0  0  0  0  0  0  0  0  0  0  0  0
   24.9326  -20.0109  -13.3427 C   0  0  0  0  0  0  0  0  0  0  0  0
   25.9470  -20.8557  -12.5761 C   0  0  2  0  0  0  0  0  0  0  0  0
   26.0517  -20.3966  -11.2021 N   0  0  0  0  0  0  0  0  0  0  0  0
   27.2693  -20.8138  -13.2057 C   0  0  0  0  0  0  0  0  0  0  0  0
   27.4520  -21.3077  -14.4764 O   0  0  0  0  0  0  0  0  0  0  0  0
   28.2468  -20.3288  -12.5946 O   0  0  0  0  0  0  0  0  0  0  0  0
  1  2  1  0
  2  3  2  0
  4  2  1  0
  4  5  1  0
  5  6  1  6
  7  5  1  0
  7  8  2  0
  9  7  1  0
 10  9  1  0
 10 11  1  1
 12 17  2  0
 12 11  1  0
 13 12  1  0
 14 15  1  0
 14 13  2  0
 15 16  2  0
 16 17  1  0
 18 10  1  0
 19 18  2  0
 21 20  1  0
 22 21  1  6
 22 23  1  0
 23 18  1  0
 24 25  1  0
 24 22  1  0
 26 24  2  0
M  END
$$$$
