NFS.pdb
     RDKit          3D

 26 26  0  0  1  0  0  0  0  0999 V2000
   22.6481   -9.7890  -22.6559 N   0  0  0  0  0  0  0  0  0  0  0  0
   22.1261  -10.5431  -21.5891 C   0  0  0  0  0  0  0  0  0  0  0  0
   21.9413  -11.7742  -21.7904 O   0  0  0  0  0  0  0  0  0  0  0  0
   21.8056   -9.9178  -20.2798 C   0  0  0  0  0  0  0  0  0  0  0  0
   22.9353  -10.1606  -19.3124 C   0  0  2  0  0  0  0  0  0  0  0  0
   22.9382  -11.5553  -18.9303 N   0  0  0  0  0  0  0  0  0  0  0  0
   22.8623   -9.3149  -18.1151 C   0  0  0  0  0  0  0  0  0  0  0  0
   22.1573   -9.6816  -17.1135 O   0  0  0  0  0  0  0  0  0  0  0  0
   23.5186   -8.0854  -17.9492 N   0  0  0  0  0  0  0  0  0  0  0  0
   23.5823   -7.3256  -16.7208 C   0  0  1  0  0  0  0  0  0  0  0  0
   24.9477   -7.1848  -16.1568 C   0  0  0  0  0  0  0  0  0  0  0  0
   25.6864   -8.4235  -15.9423 C   0  0  0  0  0  0  0  0  0  0  0  0
   25.4985   -9.3319  -14.9380 C   0  0  0  0  0  0  0  0  0  0  0  0
   26.2557  -10.4698  -14.8307 C   0  0  0  0  0  0  0  0  0  0  0  0
   27.2647  -10.7705  -15.7400 C   0  0  0  0  0  0  0  0  0  0  0  0
   27.4557   -9.8554  -16.7535 C   0  0  0  0  0  0  0  0  0  0  0  0
   26.7005   -8.7102  -16.8695 C   0  0  0  0  0  0  0  0  0  0  0  0
   22.7969   -6.0777  -16.8074 C   0  0  0  0  0  0  0  0  0  0  0  0
   23.1522   -5.1604  -17.5867 O   0  0  0  0  0  0  0  0  0  0  0  0
   19.0963   -5.6808  -14.9662 O   0  0  0  0  0  0  0  0  0  0  0  0
   19.3261   -5.0462  -16.1927 C   0  0  0  0  0  0  0  0  0  0  0  0
   20.8069   -4.6785  -16.2420 C   0  0  2  0  0  0  0  0  0  0  0  0
   21.6279   -5.8585  -16.0346 N   0  0  0  0  0  0  0  0  0  0  0  0
   21.1451   -3.6670  -15.2374 C   0  0  0  0  0  0  0  0  0  0  0  0
   22.0793   -3.9364  -14.2644 O   0  0  0  0  0  0  0  0  0  0  0  0
   20.5877   -2.5476  -15.2531 O   0  0  0  0  0  0  0  0  0  0  0  0
  1  2  1  0
  2  3  2  0
  4  2  1  0
  4  5  1  0
  5  6  1  1
  7  5  1  0
  7  8  2  0
  9  7  1  0
 10  9  1  0
 10 11  1  6
 12 17  2  0
 12 11  1  0
 13 12  1  0
 14 15  1  0
 14 13  2  0
 15 16  2  0
 16 17  1  0
 18 10  1  0
 19 18  2  0
 21 20  1  0
 22 21  1  1
 22 23  1  0
 23 18  1  0
 24 25  1  0
 24 22  1  0
 26 24  2  0
M  END
$$$$
