NFS.pdb
     RDKit          3D

 26 26  0  0  1  0  0  0  0  0999 V2000
   16.9729  -10.8222  -17.7295 N   0  0  0  0  0  0  0  0  0  0  0  0
   17.5093  -11.1072  -16.4605 C   0  0  0  0  0  0  0  0  0  0  0  0
   17.2584  -12.2418  -15.9708 O   0  0  0  0  0  0  0  0  0  0  0  0
   18.3368  -10.1148  -15.7266 C   0  0  0  0  0  0  0  0  0  0  0  0
   18.5070   -8.8761  -16.5679 C   0  0  2  0  0  0  0  0  0  0  0  0
   19.4751   -9.1417  -17.6088 N   0  0  0  0  0  0  0  0  0  0  0  0
   18.9195   -7.7018  -15.7901 C   0  0  0  0  0  0  0  0  0  0  0  0
   18.2020   -7.2964  -14.8124 O   0  0  0  0  0  0  0  0  0  0  0  0
   20.0766   -6.9417  -16.0207 N   0  0  0  0  0  0  0  0  0  0  0  0
   20.5690   -5.8813  -15.1703 C   0  0  1  0  0  0  0  0  0  0  0  0
   21.9299   -6.1134  -14.6260 C   0  0  0  0  0  0  0  0  0  0  0  0
   22.1324   -7.3688  -13.9126 C   0  0  0  0  0  0  0  0  0  0  0  0
   22.8386   -8.4572  -14.3437 C   0  0  0  0  0  0  0  0  0  0  0  0
   22.9645   -9.5934  -13.5868 C   0  0  0  0  0  0  0  0  0  0  0  0
   22.3795   -9.7085  -12.3298 C   0  0  0  0  0  0  0  0  0  0  0  0
   21.6668   -8.6117  -11.8934 C   0  0  0  0  0  0  0  0  0  0  0  0
   21.5349   -7.4668  -12.6462 C   0  0  0  0  0  0  0  0  0  0  0  0
   20.3402   -4.5497  -15.7673 C   0  0  0  0  0  0  0  0  0  0  0  0
   20.9918   -4.1899  -16.7776 O   0  0  0  0  0  0  0  0  0  0  0  0
   17.2207   -2.1550  -14.5313 O   0  0  0  0  0  0  0  0  0  0  0  0
   17.6129   -2.0783  -15.8730 C   0  0  0  0  0  0  0  0  0  0  0  0
   19.1078   -2.3833  -15.9261 C   0  0  2  0  0  0  0  0  0  0  0  0
   19.3934   -3.6328  -15.2430 N   0  0  0  0  0  0  0  0  0  0  0  0
   19.8993   -1.3071  -15.3243 C   0  0  0  0  0  0  0  0  0  0  0  0
   19.8222   -0.0256  -15.8180 O   0  0  0  0  0  0  0  0  0  0  0  0
   20.6544   -1.5420  -14.3554 O   0  0  0  0  0  0  0  0  0  0  0  0
  1  2  1  0
  2  3  2  0
  4  2  1  0
  4  5  1  0
  5  6  1  6
  7  5  1  0
  7  8  2  0
  9  7  1  0
 10  9  1  0
 10 11  1  6
 12 17  2  0
 12 11  1  0
 13 12  1  0
 14 15  1  0
 14 13  2  0
 15 16  2  0
 16 17  1  0
 18 10  1  0
 19 18  2  0
 21 20  1  0
 22 21  1  1
 22 23  1  0
 23 18  1  0
 24 25  1  0
 24 22  1  0
 26 24  2  0
M  END
$$$$
