NFS.pdb
     RDKit          3D

 26 26  0  0  1  0  0  0  0  0999 V2000
   28.3606  -22.0421  -17.3596 N   0  0  0  0  0  0  0  0  0  0  0  0
   28.1295  -23.2314  -16.6446 C   0  0  0  0  0  0  0  0  0  0  0  0
   28.8873  -24.2086  -16.8921 O   0  0  0  0  0  0  0  0  0  0  0  0
   27.0394  -23.3341  -15.6400 C   0  0  0  0  0  0  0  0  0  0  0  0
   26.1998  -22.0831  -15.6740 C   0  0  2  0  0  0  0  0  0  0  0  0
   27.0288  -20.9487  -15.3317 N   0  0  0  0  0  0  0  0  0  0  0  0
   25.0391  -22.1420  -14.7776 C   0  0  0  0  0  0  0  0  0  0  0  0
   24.7612  -23.2261  -14.1594 O   0  0  0  0  0  0  0  0  0  0  0  0
   24.1607  -21.0788  -14.5171 N   0  0  0  0  0  0  0  0  0  0  0  0
   23.0563  -21.1102  -13.5846 C   0  0  1  0  0  0  0  0  0  0  0  0
   23.1174  -20.0715  -12.5264 C   0  0  0  0  0  0  0  0  0  0  0  0
   23.9328  -20.3883  -11.3598 C   0  0  0  0  0  0  0  0  0  0  0  0
   23.4927  -20.6375  -10.0897 C   0  0  0  0  0  0  0  0  0  0  0  0
   24.3527  -20.9261   -9.0616 C   0  0  0  0  0  0  0  0  0  0  0  0
   25.7301  -20.9831   -9.2488 C   0  0  0  0  0  0  0  0  0  0  0  0
   26.1758  -20.7320  -10.5292 C   0  0  0  0  0  0  0  0  0  0  0  0
   25.3200  -20.4415  -11.5677 C   0  0  0  0  0  0  0  0  0  0  0  0
   21.7581  -21.2383  -14.2772 C   0  0  0  0  0  0  0  0  0  0  0  0
   21.4376  -20.4220  -15.1749 O   0  0  0  0  0  0  0  0  0  0  0  0
   17.6166  -23.6341  -14.9946 O   0  0  0  0  0  0  0  0  0  0  0  0
   18.7889  -23.5893  -14.2307 C   0  0  0  0  0  0  0  0  0  0  0  0
   19.5221  -22.3027  -14.6014 C   0  0  2  0  0  0  0  0  0  0  0  0
   20.8306  -22.2673  -13.9721 N   0  0  0  0  0  0  0  0  0  0  0  0
   18.7598  -21.1150  -14.2075 C   0  0  0  0  0  0  0  0  0  0  0  0
   18.7948  -20.6637  -12.9086 O   0  0  0  0  0  0  0  0  0  0  0  0
   18.0684  -20.4986  -15.0478 O   0  0  0  0  0  0  0  0  0  0  0  0
  1  2  1  0
  2  3  2  0
  4  2  1  0
  4  5  1  0
  5  6  1  1
  7  5  1  0
  7  8  2  0
  9  7  1  0
 10  9  1  0
 10 11  1  6
 12 17  2  0
 12 11  1  0
 13 12  1  0
 14 15  1  0
 14 13  2  0
 15 16  2  0
 16 17  1  0
 18 10  1  0
 19 18  2  0
 21 20  1  0
 22 21  1  1
 22 23  1  0
 23 18  1  0
 24 25  1  0
 24 22  1  0
 26 24  2  0
M  END
$$$$
