NFS.pdb
     RDKit          3D

 26 26  0  0  1  0  0  0  0  0999 V2000
   24.8907  -16.3315  -19.5368 N   0  0  0  0  0  0  0  0  0  0  0  0
   23.6638  -17.0153  -19.4587 C   0  0  0  0  0  0  0  0  0  0  0  0
   22.6807  -16.5049  -20.0614 O   0  0  0  0  0  0  0  0  0  0  0  0
   23.5296  -18.2852  -18.6988 C   0  0  0  0  0  0  0  0  0  0  0  0
   24.8581  -18.6544  -18.0907 C   0  0  2  0  0  0  0  0  0  0  0  0
   25.6500  -19.3557  -19.0767 N   0  0  0  0  0  0  0  0  0  0  0  0
   24.7312  -19.4722  -16.8785 C   0  0  0  0  0  0  0  0  0  0  0  0
   24.2905  -20.6699  -16.9567 O   0  0  0  0  0  0  0  0  0  0  0  0
   25.0599  -19.0538  -15.5798 N   0  0  0  0  0  0  0  0  0  0  0  0
   24.8229  -19.8071  -14.3688 C   0  0  1  0  0  0  0  0  0  0  0  0
   25.7630  -19.5011  -13.2621 C   0  0  0  0  0  0  0  0  0  0  0  0
   25.5587  -20.2392  -12.0213 C   0  0  0  0  0  0  0  0  0  0  0  0
   26.0400  -21.4809  -11.7121 C   0  0  0  0  0  0  0  0  0  0  0  0
   25.7843  -22.0850  -10.5082 C   0  0  0  0  0  0  0  0  0  0  0  0
   25.0170  -21.4693   -9.5245 C   0  0  0  0  0  0  0  0  0  0  0  0
   24.5308  -20.2168   -9.8346 C   0  0  0  0  0  0  0  0  0  0  0  0
   24.7822  -19.6024  -11.0406 C   0  0  0  0  0  0  0  0  0  0  0  0
   23.3918  -19.8208  -14.0035 C   0  0  0  0  0  0  0  0  0  0  0  0
   22.7900  -18.7454  -13.7664 O   0  0  0  0  0  0  0  0  0  0  0  0
   20.4334  -20.8742  -15.5426 O   0  0  0  0  0  0  0  0  0  0  0  0
   20.3440  -20.2717  -14.2821 C   0  0  0  0  0  0  0  0  0  0  0  0
   21.2988  -21.0188  -13.3544 C   0  0  2  0  0  0  0  0  0  0  0  0
   22.6421  -21.0210  -13.9066 N   0  0  0  0  0  0  0  0  0  0  0  0
   20.8623  -22.3994  -13.1297 C   0  0  0  0  0  0  0  0  0  0  0  0
   21.6669  -23.4530  -13.4964 O   0  0  0  0  0  0  0  0  0  0  0  0
   19.7530  -22.6350  -12.6025 O   0  0  0  0  0  0  0  0  0  0  0  0
  1  2  1  0
  2  3  2  0
  4  2  1  0
  4  5  1  0
  5  6  1  6
  7  5  1  0
  7  8  2  0
  9  7  1  0
 10  9  1  0
 10 11  1  1
 12 17  2  0
 12 11  1  0
 13 12  1  0
 14 15  1  0
 14 13  2  0
 15 16  2  0
 16 17  1  0
 18 10  1  0
 19 18  2  0
 21 20  1  0
 22 21  1  6
 22 23  1  0
 23 18  1  0
 24 25  1  0
 24 22  1  0
 26 24  2  0
M  END
$$$$
