NFS.pdb
     RDKit          3D

 26 26  0  0  1  0  0  0  0  0999 V2000
   19.5175  -26.8019  -15.7566 N   0  0  0  0  0  0  0  0  0  0  0  0
   19.7912  -27.7364  -14.7414 C   0  0  0  0  0  0  0  0  0  0  0  0
   19.7960  -28.9549  -15.0663 O   0  0  0  0  0  0  0  0  0  0  0  0
   20.0636  -27.3082  -13.3447 C   0  0  0  0  0  0  0  0  0  0  0  0
   20.0714  -25.8031  -13.2688 C   0  0  2  0  0  0  0  0  0  0  0  0
   21.3381  -25.3120  -13.7640 N   0  0  0  0  0  0  0  0  0  0  0  0
   19.8328  -25.2920  -11.9138 C   0  0  0  0  0  0  0  0  0  0  0  0
   20.5745  -25.6739  -10.9449 O   0  0  0  0  0  0  0  0  0  0  0  0
   18.8251  -24.3831  -11.5555 N   0  0  0  0  0  0  0  0  0  0  0  0
   18.6817  -23.7541  -10.2617 C   0  0  1  0  0  0  0  0  0  0  0  0
   18.3368  -22.3118  -10.3157 C   0  0  0  0  0  0  0  0  0  0  0  0
   19.4429  -21.3942  -10.5621 C   0  0  0  0  0  0  0  0  0  0  0  0
   20.3793  -20.9711   -9.6604 C   0  0  0  0  0  0  0  0  0  0  0  0
   21.3820  -20.1007  -10.0019 C   0  0  0  0  0  0  0  0  0  0  0  0
   21.5081  -19.5932  -11.2910 C   0  0  0  0  0  0  0  0  0  0  0  0
   20.5645  -20.0188  -12.2019 C   0  0  0  0  0  0  0  0  0  0  0  0
   19.5542  -20.8925  -11.8683 C   0  0  0  0  0  0  0  0  0  0  0  0
   17.8626  -24.5711   -9.3433 C   0  0  0  0  0  0  0  0  0  0  0  0
   16.7724  -25.0565   -9.7314 O   0  0  0  0  0  0  0  0  0  0  0  0
   18.7575  -24.7786   -5.3636 O   0  0  0  0  0  0  0  0  0  0  0  0
   18.1326  -25.9426   -5.8268 C   0  0  0  0  0  0  0  0  0  0  0  0
   17.3864  -25.5770   -7.1075 C   0  0  2  0  0  0  0  0  0  0  0  0
   18.2581  -24.8439   -8.0087 N   0  0  0  0  0  0  0  0  0  0  0  0
   16.1923  -24.7761   -6.8259 C   0  0  0  0  0  0  0  0  0  0  0  0
   15.1738  -25.2901   -6.0574 O   0  0  0  0  0  0  0  0  0  0  0  0
   16.0854  -23.6164   -7.2818 O   0  0  0  0  0  0  0  0  0  0  0  0
  1  2  1  0
  2  3  2  0
  4  2  1  0
  4  5  1  0
  5  6  1  1
  7  5  1  0
  7  8  2  0
  9  7  1  0
 10  9  1  0
 10 11  1  6
 12 17  2  0
 12 11  1  0
 13 12  1  0
 14 15  1  0
 14 13  2  0
 15 16  2  0
 16 17  1  0
 18 10  1  0
 19 18  2  0
 21 20  1  0
 22 21  1  1
 22 23  1  0
 23 18  1  0
 24 25  1  0
 24 22  1  0
 26 24  2  0
M  END
$$$$
