NFS.pdb
     RDKit          3D

 26 26  0  0  1  0  0  0  0  0999 V2000
   27.3619  -24.4477  -17.5541 N   0  0  0  0  0  0  0  0  0  0  0  0
   27.2154  -25.1211  -16.3276 C   0  0  0  0  0  0  0  0  0  0  0  0
   28.0033  -26.0788  -16.0988 O   0  0  0  0  0  0  0  0  0  0  0  0
   26.1770  -24.7225  -15.3421 C   0  0  0  0  0  0  0  0  0  0  0  0
   25.2957  -23.6555  -15.9386 C   0  0  2  0  0  0  0  0  0  0  0  0
   26.1159  -22.5316  -16.3328 N   0  0  0  0  0  0  0  0  0  0  0  0
   24.2364  -23.2056  -15.0278 C   0  0  0  0  0  0  0  0  0  0  0  0
   23.5243  -24.0623  -14.4002 O   0  0  0  0  0  0  0  0  0  0  0  0
   23.9094  -21.8668  -14.7623 N   0  0  0  0  0  0  0  0  0  0  0  0
   22.8704  -21.4178  -13.8629 C   0  0  1  0  0  0  0  0  0  0  0  0
   23.1923  -20.1692  -13.1283 C   0  0  0  0  0  0  0  0  0  0  0  0
   22.1711  -19.6819  -12.2087 C   0  0  0  0  0  0  0  0  0  0  0  0
   21.1279  -18.8483  -12.5020 C   0  0  0  0  0  0  0  0  0  0  0  0
   20.2212  -18.4506  -11.5536 C   0  0  0  0  0  0  0  0  0  0  0  0
   20.3076  -18.8723  -10.2307 C   0  0  0  0  0  0  0  0  0  0  0  0
   21.3591  -19.7131   -9.9330 C   0  0  0  0  0  0  0  0  0  0  0  0
   22.2744  -20.1178  -10.8784 C   0  0  0  0  0  0  0  0  0  0  0  0
   21.5390  -21.4559  -14.5016 C   0  0  0  0  0  0  0  0  0  0  0  0
   21.3839  -21.0136  -15.6657 O   0  0  0  0  0  0  0  0  0  0  0  0
   19.2628  -24.2898  -14.8259 O   0  0  0  0  0  0  0  0  0  0  0  0
   18.3970  -23.3106  -14.3244 C   0  0  0  0  0  0  0  0  0  0  0  0
   19.0935  -21.9623  -14.4905 C   0  0  2  0  0  0  0  0  0  0  0  0
   20.3960  -21.9837  -13.8483 N   0  0  0  0  0  0  0  0  0  0  0  0
   18.2930  -20.8695  -13.9321 C   0  0  0  0  0  0  0  0  0  0  0  0
   17.2032  -20.3838  -14.6166 O   0  0  0  0  0  0  0  0  0  0  0  0
   18.5920  -20.3658  -12.8271 O   0  0  0  0  0  0  0  0  0  0  0  0
  1  2  1  0
  2  3  2  0
  4  2  1  0
  4  5  1  0
  5  6  1  1
  7  5  1  0
  7  8  2  0
  9  7  1  0
 10  9  1  0
 10 11  1  6
 12 17  2  0
 12 11  1  0
 13 12  1  0
 14 15  1  0
 14 13  2  0
 15 16  2  0
 16 17  1  0
 18 10  1  0
 19 18  2  0
 21 20  1  0
 22 21  1  1
 22 23  1  0
 23 18  1  0
 24 25  1  0
 24 22  1  0
 26 24  2  0
M  END
$$$$
