NFS.pdb
     RDKit          3D

 26 26  0  0  1  0  0  0  0  0999 V2000
   19.7255  -12.3000  -22.9124 N   0  0  0  0  0  0  0  0  0  0  0  0
   20.5544  -11.6247  -21.9981 C   0  0  0  0  0  0  0  0  0  0  0  0
   21.8002  -11.7420  -22.1548 O   0  0  0  0  0  0  0  0  0  0  0  0
   19.9883  -10.8071  -20.8939 C   0  0  0  0  0  0  0  0  0  0  0  0
   20.4241  -11.3755  -19.5680 C   0  0  2  0  0  0  0  0  0  0  0  0
   19.6532  -12.5666  -19.2886 N   0  0  0  0  0  0  0  0  0  0  0  0
   20.2909  -10.4229  -18.4595 C   0  0  0  0  0  0  0  0  0  0  0  0
   19.1417  -10.1886  -17.9504 O   0  0  0  0  0  0  0  0  0  0  0  0
   21.3469   -9.7084  -17.8726 N   0  0  0  0  0  0  0  0  0  0  0  0
   21.2160   -8.7357  -16.8111 C   0  0  1  0  0  0  0  0  0  0  0  0
   22.3546   -8.7091  -15.8597 C   0  0  0  0  0  0  0  0  0  0  0  0
   22.2920   -7.7000  -14.8090 C   0  0  0  0  0  0  0  0  0  0  0  0
   22.6684   -6.3890  -14.9018 C   0  0  0  0  0  0  0  0  0  0  0  0
   22.5666   -5.5227  -13.8440 C   0  0  0  0  0  0  0  0  0  0  0  0
   22.0725   -5.9262  -12.6077 C   0  0  0  0  0  0  0  0  0  0  0  0
   21.6922   -7.2481  -12.5123 C   0  0  0  0  0  0  0  0  0  0  0  0
   21.7907   -8.1253  -13.5687 C   0  0  0  0  0  0  0  0  0  0  0  0
   20.7836   -7.4198  -17.3242 C   0  0  0  0  0  0  0  0  0  0  0  0
   21.3094   -6.9411  -18.3582 O   0  0  0  0  0  0  0  0  0  0  0  0
   17.7947   -4.2341  -18.5649 O   0  0  0  0  0  0  0  0  0  0  0  0
   18.1609   -5.5160  -18.1378 C   0  0  0  0  0  0  0  0  0  0  0  0
   19.3750   -5.3599  -17.2257 C   0  0  2  0  0  0  0  0  0  0  0  0
   19.7748   -6.6497  -16.6909 N   0  0  0  0  0  0  0  0  0  0  0  0
   19.1039   -4.4372  -16.1203 C   0  0  0  0  0  0  0  0  0  0  0  0
   18.7281   -4.9178  -14.8875 O   0  0  0  0  0  0  0  0  0  0  0  0
   19.2107   -3.2020  -16.2856 O   0  0  0  0  0  0  0  0  0  0  0  0
  1  2  1  0
  2  3  2  0
  4  2  1  0
  4  5  1  0
  5  6  1  1
  7  5  1  0
  7  8  2  0
  9  7  1  0
 10  9  1  0
 10 11  1  6
 12 17  2  0
 12 11  1  0
 13 12  1  0
 14 15  1  0
 14 13  2  0
 15 16  2  0
 16 17  1  0
 18 10  1  0
 19 18  2  0
 21 20  1  0
 22 21  1  1
 22 23  1  0
 23 18  1  0
 24 25  1  0
 24 22  1  0
 26 24  2  0
M  END
$$$$
