NFS.pdb
     RDKit          3D

 26 26  0  0  1  0  0  0  0  0999 V2000
   20.5436  -13.3014  -20.6734 N   0  0  0  0  0  0  0  0  0  0  0  0
   20.8682  -13.7354  -19.3753 C   0  0  0  0  0  0  0  0  0  0  0  0
   20.7119  -14.9608  -19.1218 O   0  0  0  0  0  0  0  0  0  0  0  0
   21.3740  -12.7918  -18.3447 C   0  0  0  0  0  0  0  0  0  0  0  0
   21.4081  -11.3952  -18.9100 C   0  0  2  0  0  0  0  0  0  0  0  0
   22.6945  -11.1682  -19.5304 N   0  0  0  0  0  0  0  0  0  0  0  0
   21.1489  -10.3585  -17.9039 C   0  0  0  0  0  0  0  0  0  0  0  0
   19.9833  -10.2393  -17.3921 O   0  0  0  0  0  0  0  0  0  0  0  0
   22.0952   -9.4403  -17.4229 N   0  0  0  0  0  0  0  0  0  0  0  0
   21.8304   -8.3759  -16.4811 C   0  0  1  0  0  0  0  0  0  0  0  0
   23.0311   -7.8768  -15.7660 C   0  0  0  0  0  0  0  0  0  0  0  0
   22.9047   -6.5713  -15.1290 C   0  0  0  0  0  0  0  0  0  0  0  0
   23.2322   -5.3572  -15.6656 C   0  0  0  0  0  0  0  0  0  0  0  0
   23.0720   -4.1849  -14.9731 C   0  0  0  0  0  0  0  0  0  0  0  0
   22.5647   -4.1590  -13.6780 C   0  0  0  0  0  0  0  0  0  0  0  0
   22.2337   -5.3825  -13.1352 C   0  0  0  0  0  0  0  0  0  0  0  0
   22.3911   -6.5648  -13.8228 C   0  0  0  0  0  0  0  0  0  0  0  0
   20.9564   -7.3361  -17.0612 C   0  0  0  0  0  0  0  0  0  0  0  0
   21.1844   -6.8886  -18.2113 O   0  0  0  0  0  0  0  0  0  0  0  0
   17.1152   -6.8675  -16.2863 O   0  0  0  0  0  0  0  0  0  0  0  0
   17.6943   -6.2013  -17.3729 C   0  0  0  0  0  0  0  0  0  0  0  0
   19.0672   -5.7084  -16.9226 C   0  0  2  0  0  0  0  0  0  0  0  0
   19.8402   -6.8047  -16.3657 N   0  0  0  0  0  0  0  0  0  0  0  0
   18.9564   -4.6368  -15.9296 C   0  0  0  0  0  0  0  0  0  0  0  0
   18.4603   -3.4045  -16.2866 O   0  0  0  0  0  0  0  0  0  0  0  0
   19.3122   -4.8304  -14.7463 O   0  0  0  0  0  0  0  0  0  0  0  0
  1  2  1  0
  2  3  2  0
  4  2  1  0
  4  5  1  0
  5  6  1  1
  7  5  1  0
  7  8  2  0
  9  7  1  0
 10  9  1  0
 10 11  1  6
 12 17  2  0
 12 11  1  0
 13 12  1  0
 14 15  1  0
 14 13  2  0
 15 16  2  0
 16 17  1  0
 18 10  1  0
 19 18  2  0
 21 20  1  0
 22 21  1  1
 22 23  1  0
 23 18  1  0
 24 25  1  0
 24 22  1  0
 26 24  2  0
M  END
$$$$
