NFS.pdb
     RDKit          3D

 26 26  0  0  1  0  0  0  0  0999 V2000
   38.0618  -39.3408   -7.0640 N   0  0  0  0  0  0  0  0  0  0  0  0
   36.7657  -38.7940   -7.0818 C   0  0  0  0  0  0  0  0  0  0  0  0
   35.9495  -39.2742   -7.9145 O   0  0  0  0  0  0  0  0  0  0  0  0
   36.3729  -37.6972   -6.1593 C   0  0  0  0  0  0  0  0  0  0  0  0
   35.3806  -38.2150   -5.1503 C   0  0  2  0  0  0  0  0  0  0  0  0
   34.1424  -38.5332   -5.8262 N   0  0  0  0  0  0  0  0  0  0  0  0
   35.1240  -37.2714   -4.0558 C   0  0  0  0  0  0  0  0  0  0  0  0
   36.0846  -36.8809   -3.3079 O   0  0  0  0  0  0  0  0  0  0  0  0
   33.8716  -36.7277   -3.7304 N   0  0  0  0  0  0  0  0  0  0  0  0
   33.6114  -35.8046   -2.6487 C   0  0  1  0  0  0  0  0  0  0  0  0
   33.3671  -34.4061   -3.0809 C   0  0  0  0  0  0  0  0  0  0  0  0
   32.1161  -34.1603   -3.7884 C   0  0  0  0  0  0  0  0  0  0  0  0
   30.9039  -33.8522   -3.2364 C   0  0  0  0  0  0  0  0  0  0  0  0
   29.7853  -33.6407   -4.0006 C   0  0  0  0  0  0  0  0  0  0  0  0
   29.8158  -33.7270   -5.3887 C   0  0  0  0  0  0  0  0  0  0  0  0
   31.0375  -34.0377   -5.9472 C   0  0  0  0  0  0  0  0  0  0  0  0
   32.1659  -34.2517   -5.1882 C   0  0  0  0  0  0  0  0  0  0  0  0
   32.6367  -36.3526   -1.6836 C   0  0  0  0  0  0  0  0  0  0  0  0
   31.9233  -37.3366   -1.9960 O   0  0  0  0  0  0  0  0  0  0  0  0
   30.6959  -36.4208    2.7412 O   0  0  0  0  0  0  0  0  0  0  0  0
   31.7004  -35.8673    1.9384 C   0  0  0  0  0  0  0  0  0  0  0  0
   31.4324  -36.3159    0.5041 C   0  0  2  0  0  0  0  0  0  0  0  0
   32.4630  -35.8090   -0.3850 N   0  0  0  0  0  0  0  0  0  0  0  0
   30.1195  -35.8658    0.0346 C   0  0  0  0  0  0  0  0  0  0  0  0
   29.0127  -36.6684    0.1856 O   0  0  0  0  0  0  0  0  0  0  0  0
   29.9907  -34.7469   -0.5091 O   0  0  0  0  0  0  0  0  0  0  0  0
  1  2  1  0
  2  3  2  0
  4  2  1  0
  4  5  1  0
  5  6  1  6
  7  5  1  0
  7  8  2  0
  9  7  1  0
 10  9  1  0
 10 11  1  6
 12 17  2  0
 12 11  1  0
 13 12  1  0
 14 15  1  0
 14 13  2  0
 15 16  2  0
 16 17  1  0
 18 10  1  0
 19 18  2  0
 21 20  1  0
 22 21  1  1
 22 23  1  0
 23 18  1  0
 24 25  1  0
 24 22  1  0
 26 24  2  0
M  END
$$$$
