DNC.pdb
     RDKit          3D

 23 22  0  0  1  0  0  0  0  0999 V2000
   19.4816  -12.0326  -15.7073 N   0  0  0  0  0  0  0  0  0  0  0  0
   19.3039  -10.8628  -16.5935 C   0  0  1  0  0  0  0  0  0  0  0  0
   17.9449  -10.9658  -17.2121 C   0  0  0  0  0  0  0  0  0  0  0  0
   17.8120  -12.0555  -18.1774 C   0  0  0  0  0  0  0  0  0  0  0  0
   18.7246  -12.5081  -18.8745 O   0  0  0  0  0  0  0  0  0  0  0  0
   19.4822   -9.6311  -15.7827 C   0  0  0  0  0  0  0  0  0  0  0  0
   18.7943   -9.4239  -14.7716 O   0  0  0  0  0  0  0  0  0  0  0  0
   16.5528  -12.6564  -18.3458 O   0  0  0  0  0  0  0  0  0  0  0  0
   23.0913   -5.1165  -14.2784 N   0  0  0  0  0  0  0  0  0  0  0  0
   22.2516   -6.2043  -13.8725 C   0  0  0  0  0  0  0  0  0  0  0  0
   21.7280   -6.1448  -12.7323 O   0  0  0  0  0  0  0  0  0  0  0  0
   22.0055   -7.3554  -14.7546 C   0  0  0  0  0  0  0  0  0  0  0  0
   20.6085   -7.4507  -15.2835 C   0  0  2  0  0  0  0  0  0  0  0  0
   20.4498   -8.6374  -16.1337 N   0  0  0  0  0  0  0  0  0  0  0  0
   20.1592   -6.2382  -16.0037 C   0  0  0  0  0  0  0  0  0  0  0  0
   20.6262   -5.9079  -17.1064 O   0  0  0  0  0  0  0  0  0  0  0  0
   19.1379   -5.3943  -15.4165 N   0  0  0  0  0  0  0  0  0  0  0  0
   18.6002   -4.2291  -16.0249 C   0  0  1  0  0  0  0  0  0  0  0  0
   17.1348   -4.0051  -15.7326 C   0  0  0  0  0  0  0  0  0  0  0  0
   16.1995   -5.3794  -16.4954 S   0  0  0  0  0  0  0  0  0  0  0  0
   19.3185   -3.0368  -15.5161 C   0  0  0  0  0  0  0  0  0  0  0  0
   18.9809   -1.7926  -16.0170 O   0  0  0  0  0  0  0  0  0  0  0  0
   20.2205   -3.1058  -14.6501 O   0  0  0  0  0  0  0  0  0  0  0  0
  2  1  1  1
  3  2  1  0
  3  4  1  0
  4  5  2  0
  6  7  2  0
  6  2  1  0
  8  4  1  0
  9 10  1  0
 10 11  2  0
 10 12  1  0
 13 12  1  6
 13 15  1  0
 13 14  1  0
 14  6  1  0
 15 17  1  0
 16 15  2  0
 17 18  1  0
 18 21  1  0
 19 20  1  0
 18 19  1  1
 21 23  2  0
 21 22  1  0
M  END
$$$$
