DNC.pdb
     RDKit          3D

 23 22  0  0  1  0  0  0  0  0999 V2000
   17.9061  -11.3558  -15.3021 N   0  0  0  0  0  0  0  0  0  0  0  0
   17.7747   -9.9046  -15.5513 C   0  0  1  0  0  0  0  0  0  0  0  0
   16.3253   -9.6152  -15.7875 C   0  0  0  0  0  0  0  0  0  0  0  0
   15.8002  -10.1825  -17.0281 C   0  0  0  0  0  0  0  0  0  0  0  0
   16.3954  -10.2112  -18.1091 O   0  0  0  0  0  0  0  0  0  0  0  0
   18.3300   -9.1774  -14.3812 C   0  0  0  0  0  0  0  0  0  0  0  0
   18.0690   -9.5338  -13.2221 O   0  0  0  0  0  0  0  0  0  0  0  0
   14.5143  -10.7494  -17.0183 O   0  0  0  0  0  0  0  0  0  0  0  0
   21.0572   -6.0824  -11.1925 N   0  0  0  0  0  0  0  0  0  0  0  0
   21.6422   -6.0263  -12.4993 C   0  0  0  0  0  0  0  0  0  0  0  0
   22.7145   -5.3858  -12.6329 O   0  0  0  0  0  0  0  0  0  0  0  0
   21.0154   -6.6933  -13.6508 C   0  0  0  0  0  0  0  0  0  0  0  0
   19.7057   -7.3543  -13.3540 C   0  0  2  0  0  0  0  0  0  0  0  0
   19.1841   -8.0410  -14.5425 N   0  0  0  0  0  0  0  0  0  0  0  0
   18.6853   -6.4353  -12.8017 C   0  0  0  0  0  0  0  0  0  0  0  0
   18.2312   -5.4781  -13.4502 O   0  0  0  0  0  0  0  0  0  0  0  0
   18.1859   -6.6450  -11.4576 N   0  0  0  0  0  0  0  0  0  0  0  0
   17.2467   -5.8060  -10.8012 C   0  0  1  0  0  0  0  0  0  0  0  0
   15.8461   -6.3712  -10.7556 C   0  0  0  0  0  0  0  0  0  0  0  0
   15.3029   -6.6499  -12.4798 S   0  0  0  0  0  0  0  0  0  0  0  0
   17.6677   -5.6090   -9.3940 C   0  0  0  0  0  0  0  0  0  0  0  0
   16.9502   -4.7316   -8.6015 O   0  0  0  0  0  0  0  0  0  0  0  0
   18.6474   -6.2035   -8.8888 O   0  0  0  0  0  0  0  0  0  0  0  0
  2  1  1  1
  3  2  1  0
  3  4  1  0
  4  5  2  0
  6  7  2  0
  6  2  1  0
  8  4  1  0
  9 10  1  0
 10 11  2  0
 10 12  1  0
 13 12  1  6
 13 15  1  0
 13 14  1  0
 14  6  1  0
 15 17  1  0
 16 15  2  0
 17 18  1  0
 18 21  1  0
 19 20  1  0
 18 19  1  1
 21 23  2  0
 21 22  1  0
M  END
$$$$
