DNC.pdb
     RDKit          3D

 23 22  0  0  1  0  0  0  0  0999 V2000
   27.9560  -38.5137   -9.8181 N   0  0  0  0  0  0  0  0  0  0  0  0
   26.7638  -38.3775   -8.9548 C   0  0  1  0  0  0  0  0  0  0  0  0
   26.7696  -39.5225   -7.9909 C   0  0  0  0  0  0  0  0  0  0  0  0
   26.2552  -40.7719   -8.5486 C   0  0  0  0  0  0  0  0  0  0  0  0
   25.2393  -40.8806   -9.2414 O   0  0  0  0  0  0  0  0  0  0  0  0
   26.8208  -37.0528   -8.2851 C   0  0  0  0  0  0  0  0  0  0  0  0
   27.8969  -36.5816   -7.8869 O   0  0  0  0  0  0  0  0  0  0  0  0
   26.9551  -41.9630   -8.2915 O   0  0  0  0  0  0  0  0  0  0  0  0
   25.4148  -31.4802   -8.3471 N   0  0  0  0  0  0  0  0  0  0  0  0
   24.9961  -32.5864   -7.5383 C   0  0  0  0  0  0  0  0  0  0  0  0
   24.7179  -32.3585   -6.3348 O   0  0  0  0  0  0  0  0  0  0  0  0
   24.8926  -33.9459   -8.0904 C   0  0  0  0  0  0  0  0  0  0  0  0
   25.7512  -34.9649   -7.4087 C   0  0  2  0  0  0  0  0  0  0  0  0
   25.6422  -36.2703   -8.0721 N   0  0  0  0  0  0  0  0  0  0  0  0
   25.4805  -35.1001   -5.9599 C   0  0  0  0  0  0  0  0  0  0  0  0
   24.5774  -35.8289   -5.5169 O   0  0  0  0  0  0  0  0  0  0  0  0
   26.2887  -34.3632   -5.0090 N   0  0  0  0  0  0  0  0  0  0  0  0
   26.1760  -34.4665   -3.5971 C   0  0  1  0  0  0  0  0  0  0  0  0
   27.3549  -33.8951   -2.8442 C   0  0  0  0  0  0  0  0  0  0  0  0
   27.4398  -32.1069   -3.2191 S   0  0  0  0  0  0  0  0  0  0  0  0
   24.9824  -33.7128   -3.1461 C   0  0  0  0  0  0  0  0  0  0  0  0
   24.6839  -33.6851   -1.7959 O   0  0  0  0  0  0  0  0  0  0  0  0
   24.2293  -33.0979   -3.9355 O   0  0  0  0  0  0  0  0  0  0  0  0
  2  1  1  6
  3  2  1  0
  3  4  1  0
  4  5  2  0
  6  7  2  0
  6  2  1  0
  8  4  1  0
  9 10  1  0
 10 11  2  0
 10 12  1  0
 13 12  1  6
 13 15  1  0
 13 14  1  0
 14  6  1  0
 15 17  1  0
 16 15  2  0
 17 18  1  0
 18 21  1  0
 19 20  1  0
 18 19  1  1
 21 23  2  0
 21 22  1  0
M  END
$$$$
