DNC.pdb
     RDKit          3D

 23 22  0  0  1  0  0  0  0  0999 V2000
   16.7464  -13.2140  -15.0011 N   0  0  0  0  0  0  0  0  0  0  0  0
   15.7581  -12.4715  -14.1905 C   0  0  1  0  0  0  0  0  0  0  0  0
   15.0501  -13.4623  -13.3204 C   0  0  0  0  0  0  0  0  0  0  0  0
   14.1903  -14.3898  -14.0533 C   0  0  0  0  0  0  0  0  0  0  0  0
   13.7184  -14.1912  -15.1766 O   0  0  0  0  0  0  0  0  0  0  0  0
   16.4781  -11.4277  -13.4168 C   0  0  0  0  0  0  0  0  0  0  0  0
   17.5269  -11.6898  -12.8085 O   0  0  0  0  0  0  0  0  0  0  0  0
   13.8577  -15.6167  -13.4541 O   0  0  0  0  0  0  0  0  0  0  0  0
   18.4575   -5.9162  -13.1958 N   0  0  0  0  0  0  0  0  0  0  0  0
   18.4353   -7.2679  -12.7207 C   0  0  0  0  0  0  0  0  0  0  0  0
   19.0880   -7.5329  -11.6807 O   0  0  0  0  0  0  0  0  0  0  0  0
   17.6765   -8.3157  -13.4206 C   0  0  0  0  0  0  0  0  0  0  0  0
   16.7346   -9.0910  -12.5534 C   0  0  2  0  0  0  0  0  0  0  0  0
   15.9933  -10.0838  -13.3414 N   0  0  0  0  0  0  0  0  0  0  0  0
   15.7980   -8.2428  -11.7827 C   0  0  0  0  0  0  0  0  0  0  0  0
   14.8784   -7.6061  -12.3231 O   0  0  0  0  0  0  0  0  0  0  0  0
   15.9437   -8.1398  -10.3445 N   0  0  0  0  0  0  0  0  0  0  0  0
   15.2220   -7.2375   -9.5187 C   0  0  1  0  0  0  0  0  0  0  0  0
   14.7711   -7.8344   -8.2058 C   0  0  0  0  0  0  0  0  0  0  0  0
   13.5000   -6.7255   -7.4987 S   0  0  0  0  0  0  0  0  0  0  0  0
   16.0892   -6.0840   -9.1815 C   0  0  0  0  0  0  0  0  0  0  0  0
   15.5182   -4.9743   -8.5853 O   0  0  0  0  0  0  0  0  0  0  0  0
   17.3198   -6.0690   -9.4132 O   0  0  0  0  0  0  0  0  0  0  0  0
  2  1  1  1
  3  2  1  0
  3  4  1  0
  4  5  2  0
  6  7  2  0
  6  2  1  0
  8  4  1  0
  9 10  1  0
 10 11  2  0
 10 12  1  0
 13 12  1  6
 13 15  1  0
 13 14  1  0
 14  6  1  0
 15 17  1  0
 16 15  2  0
 17 18  1  0
 18 21  1  0
 19 20  1  0
 18 19  1  1
 21 23  2  0
 21 22  1  0
M  END
$$$$
