DNC.pdb
     RDKit          3D

 23 22  0  0  1  0  0  0  0  0999 V2000
   18.7120  -12.9297  -16.0306 N   0  0  0  0  0  0  0  0  0  0  0  0
   18.1826  -11.5495  -16.0267 C   0  0  1  0  0  0  0  0  0  0  0  0
   16.9695  -11.5323  -15.1501 C   0  0  0  0  0  0  0  0  0  0  0  0
   15.7707  -12.0790  -15.7830 C   0  0  0  0  0  0  0  0  0  0  0  0
   14.6133  -11.7145  -15.5563 O   0  0  0  0  0  0  0  0  0  0  0  0
   19.2559  -10.6387  -15.5527 C   0  0  0  0  0  0  0  0  0  0  0  0
   19.9902  -10.9526  -14.6035 O   0  0  0  0  0  0  0  0  0  0  0  0
   15.9182  -13.1046  -16.7324 O   0  0  0  0  0  0  0  0  0  0  0  0
   23.8034   -7.3175  -16.5494 N   0  0  0  0  0  0  0  0  0  0  0  0
   22.4182   -6.9948  -16.3754 C   0  0  0  0  0  0  0  0  0  0  0  0
   22.1369   -5.8862  -15.8563 O   0  0  0  0  0  0  0  0  0  0  0  0
   21.3553   -7.9242  -16.7880 C   0  0  0  0  0  0  0  0  0  0  0  0
   20.5573   -8.5019  -15.6612 C   0  0  2  0  0  0  0  0  0  0  0  0
   19.4852   -9.3677  -16.1682 N   0  0  0  0  0  0  0  0  0  0  0  0
   20.0043   -7.4848  -14.7390 C   0  0  0  0  0  0  0  0  0  0  0  0
   18.9429   -6.8827  -14.9716 O   0  0  0  0  0  0  0  0  0  0  0  0
   20.7129   -7.1674  -13.5154 N   0  0  0  0  0  0  0  0  0  0  0  0
   20.2864   -6.2112  -12.5559 C   0  0  1  0  0  0  0  0  0  0  0  0
   20.2144   -6.7479  -11.1452 C   0  0  0  0  0  0  0  0  0  0  0  0
   19.7854   -5.3540  -10.0414 S   0  0  0  0  0  0  0  0  0  0  0  0
   21.2479   -5.0838  -12.5292 C   0  0  0  0  0  0  0  0  0  0  0  0
   20.8613   -3.8934  -11.9406 O   0  0  0  0  0  0  0  0  0  0  0  0
   22.3985   -5.1609  -13.0176 O   0  0  0  0  0  0  0  0  0  0  0  0
  2  1  1  1
  3  2  1  0
  3  4  1  0
  4  5  2  0
  6  7  2  0
  6  2  1  0
  8  4  1  0
  9 10  1  0
 10 11  2  0
 10 12  1  0
 13 12  1  6
 13 15  1  0
 13 14  1  0
 14  6  1  0
 15 17  1  0
 16 15  2  0
 17 18  1  0
 18 21  1  0
 19 20  1  0
 18 19  1  1
 21 23  2  0
 21 22  1  0
M  END
$$$$
