DNC.pdb
     RDKit          3D

 23 22  0  0  1  0  0  0  0  0999 V2000
   13.9323   -9.2742  -13.1122 N   0  0  0  0  0  0  0  0  0  0  0  0
   15.3708   -9.5946  -12.9978 C   0  0  1  0  0  0  0  0  0  0  0  0
   15.8011  -10.2131  -14.2911 C   0  0  0  0  0  0  0  0  0  0  0  0
   15.2562  -11.5498  -14.5213 C   0  0  0  0  0  0  0  0  0  0  0  0
   15.1371  -12.4304  -13.6645 O   0  0  0  0  0  0  0  0  0  0  0  0
   16.1044   -8.3430  -12.6790 C   0  0  0  0  0  0  0  0  0  0  0  0
   15.9461   -7.3166  -13.3573 O   0  0  0  0  0  0  0  0  0  0  0  0
   14.8238  -11.8874  -15.8152 O   0  0  0  0  0  0  0  0  0  0  0  0
   19.3332   -5.3834   -8.4504 N   0  0  0  0  0  0  0  0  0  0  0  0
   18.4113   -5.4069   -9.5470 C   0  0  0  0  0  0  0  0  0  0  0  0
   18.2596   -4.3485  -10.2062 O   0  0  0  0  0  0  0  0  0  0  0  0
   17.6638   -6.6247   -9.8962 C   0  0  0  0  0  0  0  0  0  0  0  0
   17.7560   -7.0242  -11.3358 C   0  0  2  0  0  0  0  0  0  0  0  0
   17.0199   -8.2706  -11.5820 N   0  0  0  0  0  0  0  0  0  0  0  0
   19.1446   -7.1396  -11.8350 C   0  0  0  0  0  0  0  0  0  0  0  0
   19.9332   -8.0024  -11.4147 O   0  0  0  0  0  0  0  0  0  0  0  0
   19.6183   -6.2217  -12.8514 N   0  0  0  0  0  0  0  0  0  0  0  0
   20.9342   -6.2118  -13.3856 C   0  0  1  0  0  0  0  0  0  0  0  0
   20.9982   -6.5162  -14.8643 C   0  0  0  0  0  0  0  0  0  0  0  0
   20.2792   -8.1783  -15.1211 S   0  0  0  0  0  0  0  0  0  0  0  0
   21.5236   -4.8639  -13.2069 C   0  0  0  0  0  0  0  0  0  0  0  0
   22.8870   -4.7060  -13.3774 O   0  0  0  0  0  0  0  0  0  0  0  0
   20.8401   -3.8582  -12.9072 O   0  0  0  0  0  0  0  0  0  0  0  0
  2  1  1  6
  3  2  1  0
  3  4  1  0
  4  5  2  0
  6  7  2  0
  6  2  1  0
  8  4  1  0
  9 10  1  0
 10 11  2  0
 10 12  1  0
 13 12  1  1
 13 15  1  0
 13 14  1  0
 14  6  1  0
 15 17  1  0
 16 15  2  0
 17 18  1  0
 18 21  1  0
 19 20  1  0
 18 19  1  6
 21 23  2  0
 21 22  1  0
M  END
$$$$
