DNC.pdb
     RDKit          3D

 23 22  0  0  1  0  0  0  0  0999 V2000
   20.1513  -12.8733  -16.4166 N   0  0  0  0  0  0  0  0  0  0  0  0
   19.9241  -11.5127  -16.9479 C   0  0  1  0  0  0  0  0  0  0  0  0
   18.5025  -11.1449  -16.6582 C   0  0  0  0  0  0  0  0  0  0  0  0
   17.5201  -11.9976  -17.3249 C   0  0  0  0  0  0  0  0  0  0  0  0
   16.5341  -12.5084  -16.7857 O   0  0  0  0  0  0  0  0  0  0  0  0
   20.9037  -10.5937  -16.3135 C   0  0  0  0  0  0  0  0  0  0  0  0
   21.0255  -10.5388  -15.0803 O   0  0  0  0  0  0  0  0  0  0  0  0
   17.6865  -12.2749  -18.6925 O   0  0  0  0  0  0  0  0  0  0  0  0
   24.3435  -11.0685  -15.8127 N   0  0  0  0  0  0  0  0  0  0  0  0
   24.8393  -10.0659  -16.7082 C   0  0  0  0  0  0  0  0  0  0  0  0
   25.9923  -10.2230  -17.1814 O   0  0  0  0  0  0  0  0  0  0  0  0
   24.0324   -8.8895  -17.0669 C   0  0  0  0  0  0  0  0  0  0  0  0
   22.6836   -8.8353  -16.4203 C   0  0  2  0  0  0  0  0  0  0  0  0
   21.7422   -9.7378  -17.0952 N   0  0  0  0  0  0  0  0  0  0  0  0
   22.1169   -7.4706  -16.3357 C   0  0  0  0  0  0  0  0  0  0  0  0
   21.5917   -6.9067  -17.3100 O   0  0  0  0  0  0  0  0  0  0  0  0
   22.1672   -6.7514  -15.0786 N   0  0  0  0  0  0  0  0  0  0  0  0
   21.6374   -5.4510  -14.8664 C   0  0  1  0  0  0  0  0  0  0  0  0
   21.0941   -5.2297  -13.4739 C   0  0  0  0  0  0  0  0  0  0  0  0
   20.6228   -3.4679  -13.3347 S   0  0  0  0  0  0  0  0  0  0  0  0
   22.7106   -4.4482  -15.0644 C   0  0  0  0  0  0  0  0  0  0  0  0
   22.3598   -3.1627  -15.4347 O   0  0  0  0  0  0  0  0  0  0  0  0
   23.9248   -4.7138  -14.9110 O   0  0  0  0  0  0  0  0  0  0  0  0
  2  1  1  1
  3  2  1  0
  3  4  1  0
  4  5  2  0
  6  7  2  0
  6  2  1  0
  8  4  1  0
  9 10  1  0
 10 11  2  0
 10 12  1  0
 13 12  1  6
 13 15  1  0
 13 14  1  0
 14  6  1  0
 15 17  1  0
 16 15  2  0
 17 18  1  0
 18 21  1  0
 19 20  1  0
 18 19  1  1
 21 23  2  0
 21 22  1  0
M  END
$$$$
