DNC.pdb
     RDKit          3D

 23 22  0  0  1  0  0  0  0  0999 V2000
   16.6280  -11.6171  -10.5678 N   0  0  0  0  0  0  0  0  0  0  0  0
   15.6208  -10.5444  -10.7095 C   0  0  1  0  0  0  0  0  0  0  0  0
   14.3614  -11.0162  -10.0526 C   0  0  0  0  0  0  0  0  0  0  0  0
   13.7394  -12.1622  -10.7132 C   0  0  0  0  0  0  0  0  0  0  0  0
   14.1730  -12.7283  -11.7208 O   0  0  0  0  0  0  0  0  0  0  0  0
   16.1676   -9.3062  -10.0976 C   0  0  0  0  0  0  0  0  0  0  0  0
   16.8887   -9.3538   -9.0895 O   0  0  0  0  0  0  0  0  0  0  0  0
   12.5490  -12.6837  -10.1784 O   0  0  0  0  0  0  0  0  0  0  0  0
   17.9813   -4.5609   -9.1393 N   0  0  0  0  0  0  0  0  0  0  0  0
   18.3381   -5.1498  -10.3959 C   0  0  0  0  0  0  0  0  0  0  0  0
   19.2745   -4.6207  -11.0447 O   0  0  0  0  0  0  0  0  0  0  0  0
   17.6371   -6.3339  -10.9159 C   0  0  0  0  0  0  0  0  0  0  0  0
   16.5175   -6.8269  -10.0536 C   0  0  2  0  0  0  0  0  0  0  0  0
   15.8856   -8.0141  -10.6431 N   0  0  0  0  0  0  0  0  0  0  0  0
   15.4978   -5.7971   -9.7533 C   0  0  0  0  0  0  0  0  0  0  0  0
   14.8396   -5.2330  -10.6431 O   0  0  0  0  0  0  0  0  0  0  0  0
   15.2442   -5.4210   -8.3769 N   0  0  0  0  0  0  0  0  0  0  0  0
   14.2680   -4.4772   -7.9607 C   0  0  1  0  0  0  0  0  0  0  0  0
   13.7122   -4.7379   -6.5800 C   0  0  0  0  0  0  0  0  0  0  0  0
   12.5114   -6.1110   -6.7144 S   0  0  0  0  0  0  0  0  0  0  0  0
   14.8792   -3.1277   -7.9211 C   0  0  0  0  0  0  0  0  0  0  0  0
   14.0785   -2.0434   -7.6110 O   0  0  0  0  0  0  0  0  0  0  0  0
   16.0923   -2.9245   -8.1568 O   0  0  0  0  0  0  0  0  0  0  0  0
  2  1  1  1
  3  2  1  0
  3  4  1  0
  4  5  2  0
  6  7  2  0
  6  2  1  0
  8  4  1  0
  9 10  1  0
 10 11  2  0
 10 12  1  0
 13 12  1  6
 13 15  1  0
 13 14  1  0
 14  6  1  0
 15 17  1  0
 16 15  2  0
 17 18  1  0
 18 21  1  0
 19 20  1  0
 18 19  1  1
 21 23  2  0
 21 22  1  0
M  END
$$$$
