DNC.pdb
     RDKit          3D

 23 22  0  0  1  0  0  0  0  0999 V2000
   14.1436  -13.0408  -11.1825 N   0  0  0  0  0  0  0  0  0  0  0  0
   13.7984  -11.6478  -11.5367 C   0  0  1  0  0  0  0  0  0  0  0  0
   13.0016  -11.0771  -10.4055 C   0  0  0  0  0  0  0  0  0  0  0  0
   11.6633  -11.6498  -10.2726 C   0  0  0  0  0  0  0  0  0  0  0  0
   11.2077  -12.5689  -10.9592 O   0  0  0  0  0  0  0  0  0  0  0  0
   15.0589  -10.9049  -11.7934 C   0  0  0  0  0  0  0  0  0  0  0  0
   15.9983  -10.9373  -10.9840 O   0  0  0  0  0  0  0  0  0  0  0  0
   10.8031  -11.1309   -9.2898 O   0  0  0  0  0  0  0  0  0  0  0  0
   16.2213  -11.1325  -15.4475 N   0  0  0  0  0  0  0  0  0  0  0  0
   17.4273  -11.2023  -14.6769 C   0  0  0  0  0  0  0  0  0  0  0  0
   18.3235  -11.9929  -15.0639 O   0  0  0  0  0  0  0  0  0  0  0  0
   17.6181  -10.3796  -13.4725 C   0  0  0  0  0  0  0  0  0  0  0  0
   16.5081   -9.4158  -13.1911 C   0  0  2  0  0  0  0  0  0  0  0  0
   15.2398  -10.1246  -12.9788 N   0  0  0  0  0  0  0  0  0  0  0  0
   16.3468   -8.3723  -14.2283 C   0  0  0  0  0  0  0  0  0  0  0  0
   15.7003   -8.5652  -15.2713 O   0  0  0  0  0  0  0  0  0  0  0  0
   16.9579   -7.0723  -14.0368 N   0  0  0  0  0  0  0  0  0  0  0  0
   16.8955   -6.0017  -14.9678 C   0  0  1  0  0  0  0  0  0  0  0  0
   16.4042   -4.7014  -14.3753 C   0  0  0  0  0  0  0  0  0  0  0  0
   16.6001   -3.4019  -15.6475 S   0  0  0  0  0  0  0  0  0  0  0  0
   18.2536   -5.7364  -15.4985 C   0  0  0  0  0  0  0  0  0  0  0  0
   18.3959   -4.8463  -16.5475 O   0  0  0  0  0  0  0  0  0  0  0  0
   19.2815   -6.2842  -15.0383 O   0  0  0  0  0  0  0  0  0  0  0  0
  2  1  1  1
  3  2  1  0
  3  4  1  0
  4  5  2  0
  6  7  2  0
  6  2  1  0
  8  4  1  0
  9 10  1  0
 10 11  2  0
 10 12  1  0
 13 12  1  6
 13 15  1  0
 13 14  1  0
 14  6  1  0
 15 17  1  0
 16 15  2  0
 17 18  1  0
 18 21  1  0
 19 20  1  0
 18 19  1  1
 21 23  2  0
 21 22  1  0
M  END
$$$$
