DNC.pdb
     RDKit          3D

 23 22  0  0  1  0  0  0  0  0999 V2000
   15.5301  -10.2773  -13.6799 N   0  0  0  0  0  0  0  0  0  0  0  0
   16.5926  -10.6274  -14.6462 C   0  0  1  0  0  0  0  0  0  0  0  0
   15.9560  -11.3997  -15.7591 C   0  0  0  0  0  0  0  0  0  0  0  0
   15.4160  -12.6952  -15.3509 C   0  0  0  0  0  0  0  0  0  0  0  0
   15.7805  -13.3432  -14.3655 O   0  0  0  0  0  0  0  0  0  0  0  0
   17.2392   -9.3714  -15.1051 C   0  0  0  0  0  0  0  0  0  0  0  0
   18.0192   -9.3672  -16.0696 O   0  0  0  0  0  0  0  0  0  0  0  0
   14.3963  -13.2743  -16.1255 O   0  0  0  0  0  0  0  0  0  0  0  0
   15.9979   -5.1360  -17.3017 N   0  0  0  0  0  0  0  0  0  0  0  0
   15.7748   -5.7939  -16.0485 C   0  0  0  0  0  0  0  0  0  0  0  0
   14.6963   -6.4207  -15.9011 O   0  0  0  0  0  0  0  0  0  0  0  0
   16.7695   -5.7426  -14.9661 C   0  0  0  0  0  0  0  0  0  0  0  0
   17.6963   -6.9168  -14.9121 C   0  0  2  0  0  0  0  0  0  0  0  0
   16.9906   -8.1209  -14.4560 N   0  0  0  0  0  0  0  0  0  0  0  0
   18.9044   -6.6858  -14.0888 C   0  0  0  0  0  0  0  0  0  0  0  0
   18.8479   -6.4995  -12.8619 O   0  0  0  0  0  0  0  0  0  0  0  0
   20.2089   -6.6736  -14.7198 N   0  0  0  0  0  0  0  0  0  0  0  0
   21.4416   -6.5207  -14.0313 C   0  0  1  0  0  0  0  0  0  0  0  0
   22.6373   -7.0484  -14.7895 C   0  0  0  0  0  0  0  0  0  0  0  0
   22.3881   -8.8428  -15.0413 S   0  0  0  0  0  0  0  0  0  0  0  0
   21.6941   -5.0794  -13.7964 C   0  0  0  0  0  0  0  0  0  0  0  0
   20.8891   -4.1508  -14.4310 O   0  0  0  0  0  0  0  0  0  0  0  0
   22.6068   -4.6633  -13.0466 O   0  0  0  0  0  0  0  0  0  0  0  0
  2  1  1  1
  3  2  1  0
  3  4  1  0
  4  5  2  0
  6  7  2  0
  6  2  1  0
  8  4  1  0
  9 10  1  0
 10 11  2  0
 10 12  1  0
 13 12  1  1
 13 15  1  0
 13 14  1  0
 14  6  1  0
 15 17  1  0
 16 15  2  0
 17 18  1  0
 18 21  1  0
 19 20  1  0
 18 19  1  6
 21 23  2  0
 21 22  1  0
M  END
$$$$
