DNC.pdb
     RDKit          3D

 23 22  0  0  1  0  0  0  0  0999 V2000
   17.4397  -12.6078  -15.5783 N   0  0  0  0  0  0  0  0  0  0  0  0
   16.8490  -11.2536  -15.5291 C   0  0  1  0  0  0  0  0  0  0  0  0
   15.4697  -11.3815  -14.9623 C   0  0  0  0  0  0  0  0  0  0  0  0
   14.5188  -12.0414  -15.8550 C   0  0  0  0  0  0  0  0  0  0  0  0
   14.0688  -11.5625  -16.8999 O   0  0  0  0  0  0  0  0  0  0  0  0
   17.7359  -10.3864  -14.7118 C   0  0  0  0  0  0  0  0  0  0  0  0
   18.0739  -10.7153  -13.5646 O   0  0  0  0  0  0  0  0  0  0  0  0
   14.0627  -13.3280  -15.5211 O   0  0  0  0  0  0  0  0  0  0  0  0
   20.8388   -6.6619  -12.8423 N   0  0  0  0  0  0  0  0  0  0  0  0
   20.9621   -6.7052  -14.2692 C   0  0  0  0  0  0  0  0  0  0  0  0
   21.8618   -6.0076  -14.7998 O   0  0  0  0  0  0  0  0  0  0  0  0
   20.0697   -7.5357  -15.0925 C   0  0  0  0  0  0  0  0  0  0  0  0
   19.0115   -8.2662  -14.3263 C   0  0  2  0  0  0  0  0  0  0  0  0
   18.2334   -9.1417  -15.2118 N   0  0  0  0  0  0  0  0  0  0  0  0
   18.1097   -7.3777  -13.5595 C   0  0  0  0  0  0  0  0  0  0  0  0
   17.1321   -6.8136  -14.0784 O   0  0  0  0  0  0  0  0  0  0  0  0
   18.3606   -7.1464  -12.1511 N   0  0  0  0  0  0  0  0  0  0  0  0
   17.5369   -6.3647  -11.2982 C   0  0  1  0  0  0  0  0  0  0  0  0
   17.7298   -6.6518   -9.8273 C   0  0  0  0  0  0  0  0  0  0  0  0
   16.5721   -5.5849   -8.8962 S   0  0  0  0  0  0  0  0  0  0  0  0
   17.8547   -4.9303  -11.4928 C   0  0  0  0  0  0  0  0  0  0  0  0
   16.8134   -4.0251  -11.5877 O   0  0  0  0  0  0  0  0  0  0  0  0
   19.0278   -4.4999  -11.5756 O   0  0  0  0  0  0  0  0  0  0  0  0
  2  1  1  1
  3  2  1  0
  3  4  1  0
  4  5  2  0
  6  7  2  0
  6  2  1  0
  8  4  1  0
  9 10  1  0
 10 11  2  0
 10 12  1  0
 13 12  1  6
 13 15  1  0
 13 14  1  0
 14  6  1  0
 15 17  1  0
 16 15  2  0
 17 18  1  0
 18 21  1  0
 19 20  1  0
 18 19  1  1
 21 23  2  0
 21 22  1  0
M  END
$$$$
