DNC.pdb
     RDKit          3D

 23 22  0  0  1  0  0  0  0  0999 V2000
   17.9107  -10.8861  -13.5622 N   0  0  0  0  0  0  0  0  0  0  0  0
   17.5356   -9.8594  -14.5573 C   0  0  1  0  0  0  0  0  0  0  0  0
   16.0683   -9.9966  -14.8185 C   0  0  0  0  0  0  0  0  0  0  0  0
   15.6821  -11.2916  -15.3757 C   0  0  0  0  0  0  0  0  0  0  0  0
   16.3679  -11.9725  -16.1437 O   0  0  0  0  0  0  0  0  0  0  0  0
   17.9083   -8.5268  -14.0170 C   0  0  0  0  0  0  0  0  0  0  0  0
   17.6241   -7.4852  -14.6277 O   0  0  0  0  0  0  0  0  0  0  0  0
   14.4325  -11.8304  -15.0247 O   0  0  0  0  0  0  0  0  0  0  0  0
   16.4009   -6.4475  -11.1962 N   0  0  0  0  0  0  0  0  0  0  0  0
   17.4941   -6.6814  -10.2999 C   0  0  0  0  0  0  0  0  0  0  0  0
   17.2616   -6.6249   -9.0668 O   0  0  0  0  0  0  0  0  0  0  0  0
   18.8459   -6.9785  -10.7981 C   0  0  0  0  0  0  0  0  0  0  0  0
   18.9611   -7.0518  -12.2887 C   0  0  2  0  0  0  0  0  0  0  0  0
   18.6076   -8.3910  -12.7764 N   0  0  0  0  0  0  0  0  0  0  0  0
   20.2889   -6.6503  -12.8049 C   0  0  0  0  0  0  0  0  0  0  0  0
   21.3458   -7.1448  -12.3788 O   0  0  0  0  0  0  0  0  0  0  0  0
   20.3783   -5.6458  -13.8456 N   0  0  0  0  0  0  0  0  0  0  0  0
   21.5852   -5.2238  -14.4639 C   0  0  1  0  0  0  0  0  0  0  0  0
   21.6393   -5.4918  -15.9500 C   0  0  0  0  0  0  0  0  0  0  0  0
   23.2607   -4.9066  -16.5616 S   0  0  0  0  0  0  0  0  0  0  0  0
   21.7346   -3.7592  -14.2941 C   0  0  0  0  0  0  0  0  0  0  0  0
   22.9890   -3.2458  -14.0191 O   0  0  0  0  0  0  0  0  0  0  0  0
   20.7725   -2.9630  -14.3887 O   0  0  0  0  0  0  0  0  0  0  0  0
  2  1  1  1
  3  2  1  0
  3  4  1  0
  4  5  2  0
  6  7  2  0
  6  2  1  0
  8  4  1  0
  9 10  1  0
 10 11  2  0
 10 12  1  0
 13 12  1  1
 13 15  1  0
 13 14  1  0
 14  6  1  0
 15 17  1  0
 16 15  2  0
 17 18  1  0
 18 21  1  0
 19 20  1  0
 18 19  1  6
 21 23  2  0
 21 22  1  0
M  END
$$$$
