DNC.pdb
     RDKit          3D

 23 22  0  0  1  0  0  0  0  0999 V2000
   14.3666  -12.4396  -13.5425 N   0  0  0  0  0  0  0  0  0  0  0  0
   15.6324  -11.9882  -12.9269 C   0  0  1  0  0  0  0  0  0  0  0  0
   16.6796  -11.9836  -13.9962 C   0  0  0  0  0  0  0  0  0  0  0  0
   17.0347  -13.3142  -14.4864 C   0  0  0  0  0  0  0  0  0  0  0  0
   17.2323  -13.6114  -15.6681 O   0  0  0  0  0  0  0  0  0  0  0  0
   15.4081  -10.6481  -12.3265 C   0  0  0  0  0  0  0  0  0  0  0  0
   14.8284   -9.7516  -12.9580 O   0  0  0  0  0  0  0  0  0  0  0  0
   17.1697  -14.3604  -13.5578 O   0  0  0  0  0  0  0  0  0  0  0  0
   14.9977   -6.5631   -9.0961 N   0  0  0  0  0  0  0  0  0  0  0  0
   14.2584   -7.7441   -8.7616 C   0  0  0  0  0  0  0  0  0  0  0  0
   13.3199   -7.6316   -7.9343 O   0  0  0  0  0  0  0  0  0  0  0  0
   14.5804   -9.0478   -9.3620 C   0  0  0  0  0  0  0  0  0  0  0  0
   15.6043   -8.9984  -10.4527 C   0  0  2  0  0  0  0  0  0  0  0  0
   15.8501  -10.3379  -11.0017 N   0  0  0  0  0  0  0  0  0  0  0  0
   16.8797   -8.3674  -10.0455 C   0  0  0  0  0  0  0  0  0  0  0  0
   17.5831   -8.8207   -9.1274 O   0  0  0  0  0  0  0  0  0  0  0  0
   17.3404   -7.1772  -10.7320 N   0  0  0  0  0  0  0  0  0  0  0  0
   18.5204   -6.4578  -10.4049 C   0  0  1  0  0  0  0  0  0  0  0  0
   19.4891   -6.3125  -11.5554 C   0  0  0  0  0  0  0  0  0  0  0  0
   20.0429   -7.9897  -12.0308 S   0  0  0  0  0  0  0  0  0  0  0  0
   18.1545   -5.0841   -9.9860 C   0  0  0  0  0  0  0  0  0  0  0  0
   19.1069   -4.3052   -9.3542 O   0  0  0  0  0  0  0  0  0  0  0  0
   17.0177   -4.5954  -10.1792 O   0  0  0  0  0  0  0  0  0  0  0  0
  2  1  1  6
  3  2  1  0
  3  4  1  0
  4  5  2  0
  6  7  2  0
  6  2  1  0
  8  4  1  0
  9 10  1  0
 10 11  2  0
 10 12  1  0
 13 12  1  1
 13 15  1  0
 13 14  1  0
 14  6  1  0
 15 17  1  0
 16 15  2  0
 17 18  1  0
 18 21  1  0
 19 20  1  0
 18 19  1  6
 21 23  2  0
 21 22  1  0
M  END
$$$$
