DNC.pdb
     RDKit          3D

 23 22  0  0  1  0  0  0  0  0999 V2000
   14.7737  -10.9696  -14.4249 N   0  0  0  0  0  0  0  0  0  0  0  0
   15.9656  -10.9683  -13.5505 C   0  0  1  0  0  0  0  0  0  0  0  0
   17.1333  -11.4099  -14.3762 C   0  0  0  0  0  0  0  0  0  0  0  0
   17.1307  -12.8365  -14.6947 C   0  0  0  0  0  0  0  0  0  0  0  0
   16.7224  -13.7340  -13.9520 O   0  0  0  0  0  0  0  0  0  0  0  0
   16.1325   -9.6028  -12.9902 C   0  0  0  0  0  0  0  0  0  0  0  0
   15.9561   -8.5957  -13.6925 O   0  0  0  0  0  0  0  0  0  0  0  0
   17.6278  -13.2491  -15.9428 O   0  0  0  0  0  0  0  0  0  0  0  0
   15.6044   -6.3658   -7.7810 N   0  0  0  0  0  0  0  0  0  0  0  0
   16.1294   -6.6154   -9.0906 C   0  0  0  0  0  0  0  0  0  0  0  0
   16.6547   -5.6528   -9.7032 O   0  0  0  0  0  0  0  0  0  0  0  0
   16.0602   -7.9504   -9.7044 C   0  0  0  0  0  0  0  0  0  0  0  0
   16.5942   -8.0255  -11.1007 C   0  0  2  0  0  0  0  0  0  0  0  0
   16.5025   -9.3943  -11.6240 N   0  0  0  0  0  0  0  0  0  0  0  0
   17.9759   -7.5133  -11.2393 C   0  0  0  0  0  0  0  0  0  0  0  0
   18.9481   -8.0670  -10.6995 O   0  0  0  0  0  0  0  0  0  0  0  0
   18.2224   -6.3242  -12.0301 N   0  0  0  0  0  0  0  0  0  0  0  0
   19.5074   -5.7868  -12.3078 C   0  0  1  0  0  0  0  0  0  0  0  0
   20.4355   -6.7490  -13.0119 C   0  0  0  0  0  0  0  0  0  0  0  0
   22.0075   -5.8707  -13.3328 S   0  0  0  0  0  0  0  0  0  0  0  0
   19.3630   -4.6119  -13.1994 C   0  0  0  0  0  0  0  0  0  0  0  0
   20.1379   -3.4925  -12.9557 O   0  0  0  0  0  0  0  0  0  0  0  0
   18.5679   -4.5871  -14.1667 O   0  0  0  0  0  0  0  0  0  0  0  0
  2  1  1  6
  3  2  1  0
  3  4  1  0
  4  5  2  0
  6  7  2  0
  6  2  1  0
  8  4  1  0
  9 10  1  0
 10 11  2  0
 10 12  1  0
 13 12  1  1
 13 15  1  0
 13 14  1  0
 14  6  1  0
 15 17  1  0
 16 15  2  0
 17 18  1  0
 18 21  1  0
 19 20  1  0
 18 19  1  6
 21 23  2  0
 21 22  1  0
M  END
$$$$
