PGC.pdb
     RDKit          3D

 18 18  0  0  1  0  0  0  0  0999 V2000
    9.0295  -17.0514   19.3928 N   0  0  0  0  0  0  0  0  0  0  0  0
   10.4069  -17.2842   19.0964 C   0  0  0  0  0  0  0  0  0  0  0  0
   11.0828  -17.6960   20.3846 C   0  0  0  0  0  0  0  0  0  0  0  0
    9.9470  -18.0957   21.2726 C   0  0  0  0  0  0  0  0  0  0  0  0
    8.6706  -17.7975   20.5582 C   0  0  1  0  0  0  0  0  0  0  0  0
    7.8490  -16.9124   21.4569 C   0  0  0  0  0  0  0  0  0  0  0  0
    7.3002  -17.3455   22.4997 O   0  0  0  0  0  0  0  0  0  0  0  0
    7.6694  -15.5249   21.1377 N   0  0  0  0  0  0  0  0  0  0  0  0
    6.8036  -14.7495   21.9708 C   0  0  0  0  0  0  0  0  0  0  0  0
    7.3734  -14.2564   23.2174 C   0  0  0  0  0  0  0  0  0  0  0  0
    8.6039  -14.5189   23.4097 O   0  0  0  0  0  0  0  0  0  0  0  0
    6.7134  -13.5228   24.2305 N   0  0  0  0  0  0  0  0  0  0  0  0
    7.3660  -13.0944   25.4579 C   0  0  1  0  0  0  0  0  0  0  0  0
    6.4938  -12.1112   26.1641 C   0  0  0  0  0  0  0  0  0  0  0  0
    7.3793  -11.3894   27.5936 S   0  0  0  0  0  0  0  0  0  0  0  0
    7.6354  -14.2812   26.3064 C   0  0  0  0  0  0  0  0  0  0  0  0
    8.7951  -14.3398   27.0916 O   0  0  0  0  0  0  0  0  0  0  0  0
    6.8297  -15.2301   26.3228 O   0  0  0  0  0  0  0  0  0  0  0  0
  1  5  1  0
  1  2  1  0
  2  3  1  0
  4  3  1  0
  5  4  1  0
  6  8  1  0
  5  6  1  1
  7  6  2  0
  9  8  1  0
 10  9  1  0
 11 10  2  0
 12 10  1  0
 13 16  1  0
 13 12  1  0
 13 14  1  1
 15 14  1  0
 16 17  1  0
 18 16  2  0
M  END
$$$$
