PGC.pdb
     RDKit          3D

 18 18  0  0  1  0  0  0  0  0999 V2000
    7.2384  -14.6601   19.6025 N   0  0  0  0  0  0  0  0  0  0  0  0
    6.9159  -13.4129   18.9861 C   0  0  0  0  0  0  0  0  0  0  0  0
    7.8937  -12.3848   19.5082 C   0  0  0  0  0  0  0  0  0  0  0  0
    9.0069  -13.2065   20.0774 C   0  0  0  0  0  0  0  0  0  0  0  0
    8.6123  -14.6440   19.9968 C   0  0  1  0  0  0  0  0  0  0  0  0
    8.7169  -15.2171   21.3849 C   0  0  0  0  0  0  0  0  0  0  0  0
    9.8212  -15.3701   21.9622 O   0  0  0  0  0  0  0  0  0  0  0  0
    7.5342  -15.6101   22.0961 N   0  0  0  0  0  0  0  0  0  0  0  0
    7.6754  -16.0319   23.4551 C   0  0  0  0  0  0  0  0  0  0  0  0
    8.1918  -15.0424   24.3912 C   0  0  0  0  0  0  0  0  0  0  0  0
    9.4523  -15.0474   24.5678 O   0  0  0  0  0  0  0  0  0  0  0  0
    7.4509  -14.0835   25.1202 N   0  0  0  0  0  0  0  0  0  0  0  0
    8.0423  -13.2182   26.1290 C   0  0  1  0  0  0  0  0  0  0  0  0
    7.0484  -12.1825   26.5358 C   0  0  0  0  0  0  0  0  0  0  0  0
    5.4638  -12.9712   27.0002 S   0  0  0  0  0  0  0  0  0  0  0  0
    8.4669  -14.0409   27.2883 C   0  0  0  0  0  0  0  0  0  0  0  0
    9.2815  -13.4883   28.2863 O   0  0  0  0  0  0  0  0  0  0  0  0
    8.0996  -15.2271   27.3773 O   0  0  0  0  0  0  0  0  0  0  0  0
  1  5  1  0
  1  2  1  0
  2  3  1  0
  4  3  1  0
  5  4  1  0
  6  8  1  0
  5  6  1  1
  7  6  2  0
  9  8  1  0
 10  9  1  0
 11 10  2  0
 12 10  1  0
 13 16  1  0
 13 12  1  0
 13 14  1  1
 15 14  1  0
 16 17  1  0
 18 16  2  0
M  END
$$$$
