PGC.pdb
     RDKit          3D

 18 18  0  0  1  0  0  0  0  0999 V2000
    8.9986  -14.9592   19.4461 N   0  0  0  0  0  0  0  0  0  0  0  0
    8.6415  -14.9127   18.0642 C   0  0  0  0  0  0  0  0  0  0  0  0
    7.5351  -13.8928   17.9176 C   0  0  0  0  0  0  0  0  0  0  0  0
    7.6177  -13.0917   19.1785 C   0  0  0  0  0  0  0  0  0  0  0  0
    8.6463  -13.7177   20.0609 C   0  0  1  0  0  0  0  0  0  0  0  0
    7.9869  -14.0099   21.3822 C   0  0  0  0  0  0  0  0  0  0  0  0
    7.4852  -13.1044   22.0925 O   0  0  0  0  0  0  0  0  0  0  0  0
    7.9139  -15.3568   21.8719 N   0  0  0  0  0  0  0  0  0  0  0  0
    7.3005  -15.5776   23.1446 C   0  0  0  0  0  0  0  0  0  0  0  0
    7.8692  -14.8534   24.2733 C   0  0  0  0  0  0  0  0  0  0  0  0
    9.0639  -15.1604   24.5872 O   0  0  0  0  0  0  0  0  0  0  0  0
    7.2434  -13.8533   25.0532 N   0  0  0  0  0  0  0  0  0  0  0  0
    7.9094  -13.1620   26.1462 C   0  0  1  0  0  0  0  0  0  0  0  0
    6.9957  -12.1222   26.7028 C   0  0  0  0  0  0  0  0  0  0  0  0
    5.4969  -12.9038   27.4037 S   0  0  0  0  0  0  0  0  0  0  0  0
    8.2960  -14.1495   27.1837 C   0  0  0  0  0  0  0  0  0  0  0  0
    9.2083  -13.7983   28.1883 O   0  0  0  0  0  0  0  0  0  0  0  0
    7.8095  -15.2953   27.1641 O   0  0  0  0  0  0  0  0  0  0  0  0
  1  5  1  0
  1  2  1  0
  2  3  1  0
  4  3  1  0
  5  4  1  0
  6  8  1  0
  5  6  1  1
  7  6  2  0
  9  8  1  0
 10  9  1  0
 11 10  2  0
 12 10  1  0
 13 16  1  0
 13 12  1  0
 13 14  1  1
 15 14  1  0
 16 17  1  0
 18 16  2  0
M  END
$$$$
