PGC.pdb
     RDKit          3D

 18 18  0  0  1  0  0  0  0  0999 V2000
    7.3403  -14.8245   19.1311 N   0  0  0  0  0  0  0  0  0  0  0  0
    7.2003  -13.6757   18.2943 C   0  0  0  0  0  0  0  0  0  0  0  0
    8.1980  -12.6450   18.7717 C   0  0  0  0  0  0  0  0  0  0  0  0
    9.1629  -13.4364   19.5968 C   0  0  0  0  0  0  0  0  0  0  0  0
    8.6563  -14.8376   19.6890 C   0  0  1  0  0  0  0  0  0  0  0  0
    8.5513  -15.1821   21.1506 C   0  0  0  0  0  0  0  0  0  0  0  0
    9.5654  -15.3659   21.8675 O   0  0  0  0  0  0  0  0  0  0  0  0
    7.2645  -15.3114   21.7726 N   0  0  0  0  0  0  0  0  0  0  0  0
    7.2199  -15.6162   23.1690 C   0  0  0  0  0  0  0  0  0  0  0  0
    7.7769  -14.6159   24.0695 C   0  0  0  0  0  0  0  0  0  0  0  0
    8.7103  -13.8945   23.5917 O   0  0  0  0  0  0  0  0  0  0  0  0
    7.3965  -14.3603   25.4074 N   0  0  0  0  0  0  0  0  0  0  0  0
    8.0504  -13.3678   26.2461 C   0  0  1  0  0  0  0  0  0  0  0  0
    7.0524  -12.3416   26.6668 C   0  0  0  0  0  0  0  0  0  0  0  0
    5.4616  -13.1402   27.0915 S   0  0  0  0  0  0  0  0  0  0  0  0
    8.6545  -14.0438   27.4204 C   0  0  0  0  0  0  0  0  0  0  0  0
    8.4989  -15.4255   27.5976 O   0  0  0  0  0  0  0  0  0  0  0  0
    9.3027  -13.3834   28.2532 O   0  0  0  0  0  0  0  0  0  0  0  0
  1  5  1  0
  1  2  1  0
  2  3  1  0
  4  3  1  0
  5  4  1  0
  6  8  1  0
  5  6  1  1
  7  6  2  0
  9  8  1  0
 10  9  1  0
 11 10  2  0
 12 10  1  0
 13 16  1  0
 13 12  1  0
 13 14  1  1
 15 14  1  0
 16 17  1  0
 18 16  2  0
M  END
$$$$
