PGC.pdb
     RDKit          3D

 18 18  0  0  1  0  0  0  0  0999 V2000
    7.2838  -14.7669   19.8216 N   0  0  0  0  0  0  0  0  0  0  0  0
    6.9362  -13.5554   19.1501 C   0  0  0  0  0  0  0  0  0  0  0  0
    7.9618  -12.5143   19.5370 C   0  0  0  0  0  0  0  0  0  0  0  0
    9.1007  -13.3185   20.0800 C   0  0  0  0  0  0  0  0  0  0  0  0
    8.6819  -14.7508   20.1189 C   0  0  1  0  0  0  0  0  0  0  0  0
    8.8750  -15.2372   21.5304 C   0  0  0  0  0  0  0  0  0  0  0  0
   10.0138  -15.3562   22.0453 O   0  0  0  0  0  0  0  0  0  0  0  0
    7.7403  -15.5834   22.3377 N   0  0  0  0  0  0  0  0  0  0  0  0
    7.9796  -16.0737   23.6594 C   0  0  0  0  0  0  0  0  0  0  0  0
    8.3587  -15.0848   24.6595 C   0  0  0  0  0  0  0  0  0  0  0  0
    9.5832  -14.7377   24.6634 O   0  0  0  0  0  0  0  0  0  0  0  0
    7.5207  -14.4723   25.6201 N   0  0  0  0  0  0  0  0  0  0  0  0
    8.0179  -13.5916   26.6656 C   0  0  1  0  0  0  0  0  0  0  0  0
    6.8729  -12.8584   27.2799 C   0  0  0  0  0  0  0  0  0  0  0  0
    5.6116  -12.4737   26.0112 S   0  0  0  0  0  0  0  0  0  0  0  0
    8.7452  -14.3976   27.6767 C   0  0  0  0  0  0  0  0  0  0  0  0
    9.4671  -13.7652   28.6983 O   0  0  0  0  0  0  0  0  0  0  0  0
    8.7156  -15.6409   27.6197 O   0  0  0  0  0  0  0  0  0  0  0  0
  1  5  1  0
  1  2  1  0
  2  3  1  0
  4  3  1  0
  5  4  1  0
  6  8  1  0
  5  6  1  1
  7  6  2  0
  9  8  1  0
 10  9  1  0
 11 10  2  0
 12 10  1  0
 13 16  1  0
 13 12  1  0
 13 14  1  1
 15 14  1  0
 16 17  1  0
 18 16  2  0
M  END
$$$$
