PGC.pdb
     RDKit          3D

 18 18  0  0  1  0  0  0  0  0999 V2000
    8.3038  -15.2373   19.5666 N   0  0  0  0  0  0  0  0  0  0  0  0
    7.6032  -14.8783   18.3751 C   0  0  0  0  0  0  0  0  0  0  0  0
    6.9537  -13.5353   18.6203 C   0  0  0  0  0  0  0  0  0  0  0  0
    7.6853  -12.9957   19.8086 C   0  0  0  0  0  0  0  0  0  0  0  0
    8.6235  -14.0499   20.2955 C   0  0  1  0  0  0  0  0  0  0  0  0
    8.3175  -14.2863   21.7503 C   0  0  0  0  0  0  0  0  0  0  0  0
    8.3157  -13.3547   22.5919 O   0  0  0  0  0  0  0  0  0  0  0  0
    8.0145  -15.6079   22.2202 N   0  0  0  0  0  0  0  0  0  0  0  0
    7.5560  -15.7546   23.5667 C   0  0  0  0  0  0  0  0  0  0  0  0
    8.4159  -15.2085   24.6079 C   0  0  0  0  0  0  0  0  0  0  0  0
    9.6685  -15.3131   24.4075 O   0  0  0  0  0  0  0  0  0  0  0  0
    8.0141  -14.5792   25.8090 N   0  0  0  0  0  0  0  0  0  0  0  0
    8.9501  -13.9724   26.7426 C   0  0  1  0  0  0  0  0  0  0  0  0
    8.2340  -12.9605   27.5728 C   0  0  0  0  0  0  0  0  0  0  0  0
    6.9561  -12.1112   26.5757 S   0  0  0  0  0  0  0  0  0  0  0  0
    9.5520  -15.0328   27.5877 C   0  0  0  0  0  0  0  0  0  0  0  0
    9.1340  -16.3642   27.4549 O   0  0  0  0  0  0  0  0  0  0  0  0
   10.4319  -14.7416   28.4187 O   0  0  0  0  0  0  0  0  0  0  0  0
  1  5  1  0
  1  2  1  0
  2  3  1  0
  4  3  1  0
  5  4  1  0
  6  8  1  0
  5  6  1  1
  7  6  2  0
  9  8  1  0
 10  9  1  0
 11 10  2  0
 12 10  1  0
 13 16  1  0
 13 12  1  0
 13 14  1  1
 15 14  1  0
 16 17  1  0
 18 16  2  0
M  END
$$$$
