PGC.pdb
     RDKit          3D

 18 18  0  0  1  0  0  0  0  0999 V2000
    8.4665  -15.2854   19.4697 N   0  0  0  0  0  0  0  0  0  0  0  0
    8.0608  -14.9422   18.1442 C   0  0  0  0  0  0  0  0  0  0  0  0
    7.4635  -13.5544   18.1998 C   0  0  0  0  0  0  0  0  0  0  0  0
    7.9591  -13.0034   19.4995 C   0  0  0  0  0  0  0  0  0  0  0  0
    8.7009  -14.0859   20.2111 C   0  0  1  0  0  0  0  0  0  0  0  0
    8.0774  -14.2374   21.5729 C   0  0  0  0  0  0  0  0  0  0  0  0
    7.9507  -13.2681   22.3605 O   0  0  0  0  0  0  0  0  0  0  0  0
    7.6032  -15.5184   22.0128 N   0  0  0  0  0  0  0  0  0  0  0  0
    7.0319  -15.6115   23.3203 C   0  0  0  0  0  0  0  0  0  0  0  0
    7.7170  -14.8851   24.3810 C   0  0  0  0  0  0  0  0  0  0  0  0
    8.9869  -14.8513   24.3024 O   0  0  0  0  0  0  0  0  0  0  0  0
    7.1295  -14.2180   25.4809 N   0  0  0  0  0  0  0  0  0  0  0  0
    7.9007  -13.4847   26.4726 C   0  0  1  0  0  0  0  0  0  0  0  0
    6.9788  -12.6504   27.2973 C   0  0  0  0  0  0  0  0  0  0  0  0
    5.5717  -12.0675   26.2829 S   0  0  0  0  0  0  0  0  0  0  0  0
    8.6529  -14.4473   27.3142 C   0  0  0  0  0  0  0  0  0  0  0  0
    9.5923  -13.9866   28.2470 O   0  0  0  0  0  0  0  0  0  0  0  0
    8.4508  -15.6698   27.1933 O   0  0  0  0  0  0  0  0  0  0  0  0
  1  5  1  0
  1  2  1  0
  2  3  1  0
  4  3  1  0
  5  4  1  0
  6  8  1  0
  5  6  1  1
  7  6  2  0
  9  8  1  0
 10  9  1  0
 11 10  2  0
 12 10  1  0
 13 16  1  0
 13 12  1  0
 13 14  1  1
 15 14  1  0
 16 17  1  0
 18 16  2  0
M  END
$$$$
