PGC.pdb
     RDKit          3D

 18 18  0  0  1  0  0  0  0  0999 V2000
    7.7753  -15.3311   19.0181 N   0  0  0  0  0  0  0  0  0  0  0  0
    7.3310  -15.0269   17.6954 C   0  0  0  0  0  0  0  0  0  0  0  0
    7.4472  -13.5306   17.5129 C   0  0  0  0  0  0  0  0  0  0  0  0
    8.3692  -13.1066   18.6122 C   0  0  0  0  0  0  0  0  0  0  0  0
    8.6591  -14.2991   19.4622 C   0  0  1  0  0  0  0  0  0  0  0  0
    8.2986  -13.9393   20.8788 C   0  0  0  0  0  0  0  0  0  0  0  0
    8.9548  -13.0989   21.5416 O   0  0  0  0  0  0  0  0  0  0  0  0
    7.1742  -14.5600   21.5189 N   0  0  0  0  0  0  0  0  0  0  0  0
    6.7989  -14.0956   22.8181 C   0  0  0  0  0  0  0  0  0  0  0  0
    7.4989  -14.6922   23.9477 C   0  0  0  0  0  0  0  0  0  0  0  0
    6.7993  -15.4379   24.7057 O   0  0  0  0  0  0  0  0  0  0  0  0
    8.8616  -14.5347   24.2918 N   0  0  0  0  0  0  0  0  0  0  0  0
    9.3270  -14.4039   25.6638 C   0  0  1  0  0  0  0  0  0  0  0  0
    8.2947  -13.6891   26.4697 C   0  0  0  0  0  0  0  0  0  0  0  0
    8.8714  -13.4746   28.1931 S   0  0  0  0  0  0  0  0  0  0  0  0
    9.6013  -15.7532   26.2160 C   0  0  0  0  0  0  0  0  0  0  0  0
   10.6624  -15.9481   27.1110 O   0  0  0  0  0  0  0  0  0  0  0  0
    8.8876  -16.7179   25.8847 O   0  0  0  0  0  0  0  0  0  0  0  0
  1  5  1  0
  1  2  1  0
  2  3  1  0
  4  3  1  0
  5  4  1  0
  6  8  1  0
  5  6  1  1
  7  6  2  0
  9  8  1  0
 10  9  1  0
 11 10  2  0
 12 10  1  0
 13 16  1  0
 13 12  1  0
 13 14  1  1
 15 14  1  0
 16 17  1  0
 18 16  2  0
M  END
$$$$
