PGC.pdb
     RDKit          3D

 18 18  0  0  1  0  0  0  0  0999 V2000
    7.7812  -14.4608   19.5012 N   0  0  0  0  0  0  0  0  0  0  0  0
    6.9582  -13.3985   19.0180 C   0  0  0  0  0  0  0  0  0  0  0  0
    7.0300  -12.2761   20.0284 C   0  0  0  0  0  0  0  0  0  0  0  0
    8.2481  -12.5984   20.8351 C   0  0  0  0  0  0  0  0  0  0  0  0
    8.7699  -13.9215   20.3815 C   0  0  1  0  0  0  0  0  0  0  0  0
    8.8627  -14.8077   21.5949 C   0  0  0  0  0  0  0  0  0  0  0  0
    7.9107  -15.5395   21.9612 O   0  0  0  0  0  0  0  0  0  0  0  0
   10.0649  -14.8384   22.3779 N   0  0  0  0  0  0  0  0  0  0  0  0
   10.1755  -15.8301   23.4021 C   0  0  0  0  0  0  0  0  0  0  0  0
    9.6560  -15.4685   24.7140 C   0  0  0  0  0  0  0  0  0  0  0  0
   10.3796  -15.7951   25.7089 O   0  0  0  0  0  0  0  0  0  0  0  0
    8.4439  -14.7989   25.0013 N   0  0  0  0  0  0  0  0  0  0  0  0
    7.9360  -14.6147   26.3520 C   0  0  1  0  0  0  0  0  0  0  0  0
    6.7252  -13.7439   26.3100 C   0  0  0  0  0  0  0  0  0  0  0  0
    7.1464  -12.1044   25.6150 S   0  0  0  0  0  0  0  0  0  0  0  0
    7.6249  -15.9405   26.9406 C   0  0  0  0  0  0  0  0  0  0  0  0
    7.2964  -16.0511   28.2988 O   0  0  0  0  0  0  0  0  0  0  0  0
    7.6553  -16.9604   26.2274 O   0  0  0  0  0  0  0  0  0  0  0  0
  1  5  1  0
  1  2  1  0
  2  3  1  0
  4  3  1  0
  5  4  1  0
  6  8  1  0
  5  6  1  1
  7  6  2  0
  9  8  1  0
 10  9  1  0
 11 10  2  0
 12 10  1  0
 13 16  1  0
 13 12  1  0
 13 14  1  6
 15 14  1  0
 16 17  1  0
 18 16  2  0
M  END
$$$$
