PGC.pdb
     RDKit          3D

 18 18  0  0  1  0  0  0  0  0999 V2000
    8.0802  -14.7308   19.3436 N   0  0  0  0  0  0  0  0  0  0  0  0
    7.4670  -14.0309   18.2603 C   0  0  0  0  0  0  0  0  0  0  0  0
    6.8611  -12.7662   18.8250 C   0  0  0  0  0  0  0  0  0  0  0  0
    7.5431  -12.6017   20.1464 C   0  0  0  0  0  0  0  0  0  0  0  0
    8.4058  -13.7981   20.3768 C   0  0  1  0  0  0  0  0  0  0  0  0
    8.0049  -14.3930   21.7002 C   0  0  0  0  0  0  0  0  0  0  0  0
    8.1650  -13.7794   22.7837 O   0  0  0  0  0  0  0  0  0  0  0  0
    7.4184  -15.7014   21.7570 N   0  0  0  0  0  0  0  0  0  0  0  0
    6.9535  -16.1759   23.0232 C   0  0  0  0  0  0  0  0  0  0  0  0
    7.9507  -16.7822   23.8949 C   0  0  0  0  0  0  0  0  0  0  0  0
    7.6100  -17.8718   24.4576 O   0  0  0  0  0  0  0  0  0  0  0  0
    9.2472  -16.2959   24.1823 N   0  0  0  0  0  0  0  0  0  0  0  0
   10.2369  -17.0578   24.9280 C   0  0  1  0  0  0  0  0  0  0  0  0
   11.5338  -16.3202   24.9241 C   0  0  0  0  0  0  0  0  0  0  0  0
   12.7841  -17.2296   25.9031 S   0  0  0  0  0  0  0  0  0  0  0  0
    9.7450  -17.2736   26.3109 C   0  0  0  0  0  0  0  0  0  0  0  0
   10.0150  -18.4770   26.9771 O   0  0  0  0  0  0  0  0  0  0  0  0
    9.0896  -16.3839   26.8840 O   0  0  0  0  0  0  0  0  0  0  0  0
  1  5  1  0
  1  2  1  0
  2  3  1  0
  4  3  1  0
  5  4  1  0
  6  8  1  0
  5  6  1  1
  7  6  2  0
  9  8  1  0
 10  9  1  0
 11 10  2  0
 12 10  1  0
 13 16  1  0
 13 12  1  0
 13 14  1  1
 15 14  1  0
 16 17  1  0
 18 16  2  0
M  END
$$$$
