PGC.pdb
     RDKit          3D

 18 18  0  0  1  0  0  0  0  0999 V2000
    7.3324  -14.8587   19.8058 N   0  0  0  0  0  0  0  0  0  0  0  0
    6.8558  -13.6819   19.1520 C   0  0  0  0  0  0  0  0  0  0  0  0
    7.7134  -12.5274   19.6181 C   0  0  0  0  0  0  0  0  0  0  0  0
    8.9242  -13.1911   20.1942 C   0  0  0  0  0  0  0  0  0  0  0  0
    8.7007  -14.6669   20.1724 C   0  0  1  0  0  0  0  0  0  0  0  0
    8.8932  -15.1713   21.5776 C   0  0  0  0  0  0  0  0  0  0  0  0
   10.0096  -15.1394   22.1510 O   0  0  0  0  0  0  0  0  0  0  0  0
    7.7841  -15.7115   22.3105 N   0  0  0  0  0  0  0  0  0  0  0  0
    8.0330  -16.2379   23.6165 C   0  0  0  0  0  0  0  0  0  0  0  0
    8.4184  -15.2766   24.6408 C   0  0  0  0  0  0  0  0  0  0  0  0
    9.6683  -15.0766   24.7749 O   0  0  0  0  0  0  0  0  0  0  0  0
    7.5617  -14.5462   25.4967 N   0  0  0  0  0  0  0  0  0  0  0  0
    8.0463  -13.6961   26.5731 C   0  0  1  0  0  0  0  0  0  0  0  0
    6.8837  -13.1341   27.3204 C   0  0  0  0  0  0  0  0  0  0  0  0
    6.4909  -11.4534   26.7125 S   0  0  0  0  0  0  0  0  0  0  0  0
    8.9250  -14.4922   27.4647 C   0  0  0  0  0  0  0  0  0  0  0  0
    8.5929  -15.8156   27.7861 O   0  0  0  0  0  0  0  0  0  0  0  0
    9.9621  -13.9851   27.9308 O   0  0  0  0  0  0  0  0  0  0  0  0
  1  5  1  0
  1  2  1  0
  2  3  1  0
  4  3  1  0
  5  4  1  0
  6  8  1  0
  5  6  1  1
  7  6  2  0
  9  8  1  0
 10  9  1  0
 11 10  2  0
 12 10  1  0
 13 16  1  0
 13 12  1  0
 13 14  1  1
 15 14  1  0
 16 17  1  0
 18 16  2  0
M  END
$$$$
