PGC.pdb
     RDKit          3D

 18 18  0  0  1  0  0  0  0  0999 V2000
    8.0691  -15.2934   18.9131 N   0  0  0  0  0  0  0  0  0  0  0  0
    7.4880  -14.8623   17.6818 C   0  0  0  0  0  0  0  0  0  0  0  0
    7.1826  -13.3880   17.8183 C   0  0  0  0  0  0  0  0  0  0  0  0
    8.0124  -12.9573   18.9864 C   0  0  0  0  0  0  0  0  0  0  0  0
    8.6613  -14.1694   19.5682 C   0  0  1  0  0  0  0  0  0  0  0  0
    8.2935  -14.2193   21.0271 C   0  0  0  0  0  0  0  0  0  0  0  0
    8.5352  -13.2675   21.8092 O   0  0  0  0  0  0  0  0  0  0  0  0
    7.6452  -15.3785   21.5702 N   0  0  0  0  0  0  0  0  0  0  0  0
    7.1184  -15.2950   22.8970 C   0  0  0  0  0  0  0  0  0  0  0  0
    8.0606  -14.9338   23.9476 C   0  0  0  0  0  0  0  0  0  0  0  0
    9.2905  -14.9425   23.6198 O   0  0  0  0  0  0  0  0  0  0  0  0
    7.7604  -14.5771   25.2827 N   0  0  0  0  0  0  0  0  0  0  0  0
    8.7715  -14.1656   26.2442 C   0  0  1  0  0  0  0  0  0  0  0  0
    8.1724  -13.1956   27.2066 C   0  0  0  0  0  0  0  0  0  0  0  0
    7.2926  -11.8683   26.3050 S   0  0  0  0  0  0  0  0  0  0  0  0
    9.2949  -15.3643   26.9442 C   0  0  0  0  0  0  0  0  0  0  0  0
   10.3821  -15.2517   27.8217 O   0  0  0  0  0  0  0  0  0  0  0  0
    8.7679  -16.4759   26.7531 O   0  0  0  0  0  0  0  0  0  0  0  0
  1  5  1  0
  1  2  1  0
  2  3  1  0
  4  3  1  0
  5  4  1  0
  6  8  1  0
  5  6  1  1
  7  6  2  0
  9  8  1  0
 10  9  1  0
 11 10  2  0
 12 10  1  0
 13 16  1  0
 13 12  1  0
 13 14  1  1
 15 14  1  0
 16 17  1  0
 18 16  2  0
M  END
$$$$
