PGC.pdb
     RDKit          3D

 18 18  0  0  1  0  0  0  0  0999 V2000
    6.5316  -17.6474   21.3421 N   0  0  0  0  0  0  0  0  0  0  0  0
    6.0527  -18.3500   20.1948 C   0  0  0  0  0  0  0  0  0  0  0  0
    7.0951  -18.2060   19.1093 C   0  0  0  0  0  0  0  0  0  0  0  0
    8.3250  -17.7823   19.8483 C   0  0  0  0  0  0  0  0  0  0  0  0
    7.9576  -17.5689   21.2794 C   0  0  1  0  0  0  0  0  0  0  0  0
    8.3749  -16.1699   21.6465 C   0  0  0  0  0  0  0  0  0  0  0  0
    9.5813  -15.8403   21.7558 O   0  0  0  0  0  0  0  0  0  0  0  0
    7.3848  -15.1590   21.8853 N   0  0  0  0  0  0  0  0  0  0  0  0
    7.8340  -13.8375   22.1963 C   0  0  0  0  0  0  0  0  0  0  0  0
    7.9813  -13.5182   23.6099 C   0  0  0  0  0  0  0  0  0  0  0  0
    8.5577  -12.4147   23.8745 O   0  0  0  0  0  0  0  0  0  0  0  0
    7.5567  -14.2949   24.7129 N   0  0  0  0  0  0  0  0  0  0  0  0
    7.8630  -13.9530   26.0933 C   0  0  1  0  0  0  0  0  0  0  0  0
    6.5942  -13.6704   26.8255 C   0  0  0  0  0  0  0  0  0  0  0  0
    5.7391  -12.2334   26.0822 S   0  0  0  0  0  0  0  0  0  0  0  0
    8.6072  -15.0734   26.7192 C   0  0  0  0  0  0  0  0  0  0  0  0
    9.0257  -14.9853   28.0540 O   0  0  0  0  0  0  0  0  0  0  0  0
    8.8621  -16.0971   26.0582 O   0  0  0  0  0  0  0  0  0  0  0  0
  1  5  1  0
  1  2  1  0
  2  3  1  0
  4  3  1  0
  5  4  1  0
  6  8  1  0
  5  6  1  6
  7  6  2  0
  9  8  1  0
 10  9  1  0
 11 10  2  0
 12 10  1  0
 13 16  1  0
 13 12  1  0
 13 14  1  1
 15 14  1  0
 16 17  1  0
 18 16  2  0
M  END
$$$$
