SMD.pdb
     RDKit          3D

 23 22  0  0  1  0  0  0  0  0999 V2000
   20.0384  -11.4673  -22.2355 O   0  0  0  0  0  0  0  0  0  0  0  0
   19.8583  -10.8119  -21.0193 C   0  0  0  0  0  0  0  0  0  0  0  0
   20.6413  -11.4834  -19.9093 C   0  0  2  0  0  0  0  0  0  0  0  0
   20.1203  -12.8274  -19.7704 N   0  0  0  0  0  0  0  0  0  0  0  0
   20.4914  -10.7153  -18.6453 C   0  0  0  0  0  0  0  0  0  0  0  0
   19.3729  -10.5851  -18.0551 O   0  0  0  0  0  0  0  0  0  0  0  0
   21.7153   -9.1042  -12.0454 C   0  0  0  0  0  0  0  0  0  0  0  0
   21.7814   -9.8790  -13.6840 S   0  0  0  0  0  0  0  0  0  0  0  0
   22.7947   -8.8089  -14.7682 C   0  0  0  0  0  0  0  0  0  0  0  0
   22.8944   -9.4661  -16.1453 C   0  0  0  0  0  0  0  0  0  0  0  0
   21.5304   -9.3599  -16.8035 C   0  0  2  0  0  0  0  0  0  0  0  0
   21.6102  -10.0937  -18.0493 N   0  0  0  0  0  0  0  0  0  0  0  0
   21.1079   -7.9687  -16.9911 C   0  0  0  0  0  0  0  0  0  0  0  0
   21.7210   -7.2556  -17.8202 O   0  0  0  0  0  0  0  0  0  0  0  0
   20.0283   -7.4363  -16.2520 N   0  0  0  0  0  0  0  0  0  0  0  0
   19.6456   -6.0556  -16.4390 C   0  0  1  0  0  0  0  0  0  0  0  0
   18.1470   -5.9569  -16.6008 C   0  0  0  0  0  0  0  0  0  0  0  0
   17.7384   -4.5601  -16.7170 C   0  0  0  0  0  0  0  0  0  0  0  0
   18.3683   -3.7644  -17.4612 O   0  0  0  0  0  0  0  0  0  0  0  0
   20.1349   -5.2889  -15.2678 C   0  0  0  0  0  0  0  0  0  0  0  0
   20.8487   -5.8593  -14.2104 O   0  0  0  0  0  0  0  0  0  0  0  0
   16.6322   -4.0520  -16.0065 O   0  0  0  0  0  0  0  0  0  0  0  0
   19.9147   -4.0375  -15.1773 O   0  0  0  0  0  0  0  0  0  0  0  0
  2  1  1  0
  3  2  1  0
  3  4  1  1
  5  6  2  0
  5  3  1  0
  7  8  1  0
  9  8  1  0
  9 10  1  0
 11 10  1  6
 11 13  1  0
 11 12  1  0
 12  5  1  0
 13 15  1  0
 14 13  2  0
 15 16  1  0
 16 20  1  0
 16 17  1  1
 18 17  1  0
 18 19  2  0
 20 23  2  0
 20 21  1  0
 22 18  1  0
M  END
$$$$
