SMD.pdb
     RDKit          3D

 23 22  0  0  1  0  0  0  0  0999 V2000
   16.5429   -9.8522  -16.2864 O   0  0  0  0  0  0  0  0  0  0  0  0
   17.7703   -9.2966  -15.9315 C   0  0  0  0  0  0  0  0  0  0  0  0
   18.2623   -9.8454  -14.6075 C   0  0  2  0  0  0  0  0  0  0  0  0
   17.3137   -9.4327  -13.5940 N   0  0  0  0  0  0  0  0  0  0  0  0
   19.6230   -9.3229  -14.3152 C   0  0  0  0  0  0  0  0  0  0  0  0
   19.8343   -8.4196  -13.4460 O   0  0  0  0  0  0  0  0  0  0  0  0
   27.3038  -10.6852  -15.1057 C   0  0  0  0  0  0  0  0  0  0  0  0
   25.6336  -11.2031  -15.5873 S   0  0  0  0  0  0  0  0  0  0  0  0
   24.4638   -9.9148  -15.0222 C   0  0  0  0  0  0  0  0  0  0  0  0
   23.0387  -10.3979  -15.2946 C   0  0  0  0  0  0  0  0  0  0  0  0
   22.0880   -9.3237  -14.7977 C   0  0  2  0  0  0  0  0  0  0  0  0
   20.7458   -9.8246  -15.0086 N   0  0  0  0  0  0  0  0  0  0  0  0
   22.3189   -8.0299  -15.4471 C   0  0  0  0  0  0  0  0  0  0  0  0
   23.3494   -7.3793  -15.1529 O   0  0  0  0  0  0  0  0  0  0  0  0
   21.3980   -7.5208  -16.3896 N   0  0  0  0  0  0  0  0  0  0  0  0
   21.6753   -6.2692  -17.0561 C   0  0  1  0  0  0  0  0  0  0  0  0
   22.2067   -6.5352  -18.4448 C   0  0  0  0  0  0  0  0  0  0  0  0
   22.5127   -5.2786  -19.1222 C   0  0  0  0  0  0  0  0  0  0  0  0
   22.4265   -4.1808  -18.5130 O   0  0  0  0  0  0  0  0  0  0  0  0
   20.4193   -5.4813  -17.0777 C   0  0  0  0  0  0  0  0  0  0  0  0
   20.3432   -4.1325  -16.7198 O   0  0  0  0  0  0  0  0  0  0  0  0
   22.9131   -5.2456  -20.4732 O   0  0  0  0  0  0  0  0  0  0  0  0
   19.3231   -6.0231  -17.4349 O   0  0  0  0  0  0  0  0  0  0  0  0
  2  1  1  0
  3  2  1  0
  3  4  1  1
  5  6  2  0
  5  3  1  0
  7  8  1  0
  9  8  1  0
  9 10  1  0
 11 10  1  6
 11 13  1  0
 11 12  1  0
 12  5  1  0
 13 15  1  0
 14 13  2  0
 15 16  1  0
 16 20  1  0
 16 17  1  6
 18 17  1  0
 18 19  2  0
 20 23  2  0
 20 21  1  0
 22 18  1  0
M  END
$$$$
