SMD.pdb
     RDKit          3D

 23 22  0  0  1  0  0  0  0  0999 V2000
   25.1080  -19.0920  -19.5429 O   0  0  0  0  0  0  0  0  0  0  0  0
   24.1610  -19.0835  -18.5211 C   0  0  0  0  0  0  0  0  0  0  0  0
   24.7949  -18.7579  -17.1838 C   0  0  2  0  0  0  0  0  0  0  0  0
   25.7956  -19.7725  -16.9262 N   0  0  0  0  0  0  0  0  0  0  0  0
   23.7569  -18.7438  -16.1196 C   0  0  0  0  0  0  0  0  0  0  0  0
   23.8713  -19.4159  -15.0466 O   0  0  0  0  0  0  0  0  0  0  0  0
   18.1292  -14.3668  -12.9560 C   0  0  0  0  0  0  0  0  0  0  0  0
   19.2840  -14.5783  -14.3385 S   0  0  0  0  0  0  0  0  0  0  0  0
   20.0567  -16.2286  -14.1743 C   0  0  0  0  0  0  0  0  0  0  0  0
   21.0400  -16.4228  -15.3292 C   0  0  0  0  0  0  0  0  0  0  0  0
   21.5923  -17.8334  -15.2283 C   0  0  2  0  0  0  0  0  0  0  0  0
   22.5878  -17.9671  -16.2714 N   0  0  0  0  0  0  0  0  0  0  0  0
   20.5413  -18.8518  -15.3138 C   0  0  0  0  0  0  0  0  0  0  0  0
   20.1358  -19.2109  -16.4445 O   0  0  0  0  0  0  0  0  0  0  0  0
   19.9916  -19.4218  -14.1441 N   0  0  0  0  0  0  0  0  0  0  0  0
   18.9363  -20.4025  -14.2543 C   0  0  1  0  0  0  0  0  0  0  0  0
   19.0493  -21.4051  -13.1301 C   0  0  0  0  0  0  0  0  0  0  0  0
   18.1710  -22.5453  -13.3748 C   0  0  0  0  0  0  0  0  0  0  0  0
   17.4218  -22.5762  -14.3854 O   0  0  0  0  0  0  0  0  0  0  0  0
   17.6427  -19.6780  -14.2318 C   0  0  0  0  0  0  0  0  0  0  0  0
   16.5478  -20.0201  -15.0300 O   0  0  0  0  0  0  0  0  0  0  0  0
   18.1278  -23.6469  -12.4965 O   0  0  0  0  0  0  0  0  0  0  0  0
   17.4745  -18.6806  -13.4574 O   0  0  0  0  0  0  0  0  0  0  0  0
  2  1  1  0
  3  2  1  0
  3  4  1  1
  5  6  2  0
  5  3  1  0
  7  8  1  0
  9  8  1  0
  9 10  1  0
 11 10  1  6
 11 13  1  0
 11 12  1  0
 12  5  1  0
 13 15  1  0
 14 13  2  0
 15 16  1  0
 16 20  1  0
 16 17  1  1
 18 17  1  0
 18 19  2  0
 20 23  2  0
 20 21  1  0
 22 18  1  0
M  END
$$$$
