SMD.pdb
     RDKit          3D

 23 22  0  0  1  0  0  0  0  0999 V2000
   26.5888   -6.2806  -20.9681 O   0  0  0  0  0  0  0  0  0  0  0  0
   25.3609   -6.2799  -20.3098 C   0  0  0  0  0  0  0  0  0  0  0  0
   24.4904   -7.4339  -20.7644 C   0  0  2  0  0  0  0  0  0  0  0  0
   23.6951   -6.9578  -21.8771 N   0  0  0  0  0  0  0  0  0  0  0  0
   23.6275   -7.8915  -19.6436 C   0  0  0  0  0  0  0  0  0  0  0  0
   22.4836   -7.3866  -19.4137 O   0  0  0  0  0  0  0  0  0  0  0  0
   22.4834  -13.6097  -14.3944 C   0  0  0  0  0  0  0  0  0  0  0  0
   23.5430  -12.9712  -15.7209 S   0  0  0  0  0  0  0  0  0  0  0  0
   23.0105  -11.2596  -16.0872 C   0  0  0  0  0  0  0  0  0  0  0  0
   23.8732  -10.7145  -17.2261 C   0  0  0  0  0  0  0  0  0  0  0  0
   23.2807   -9.3836  -17.6531 C   0  0  2  0  0  0  0  0  0  0  0  0
   24.0613   -8.9226  -18.7822 N   0  0  0  0  0  0  0  0  0  0  0  0
   23.2421   -8.4120  -16.5560 C   0  0  0  0  0  0  0  0  0  0  0  0
   24.2705   -7.7404  -16.3048 O   0  0  0  0  0  0  0  0  0  0  0  0
   22.0677   -8.2321  -15.7919 N   0  0  0  0  0  0  0  0  0  0  0  0
   22.0449   -7.2447  -14.7374 C   0  0  1  0  0  0  0  0  0  0  0  0
   22.1264   -5.8584  -15.3320 C   0  0  0  0  0  0  0  0  0  0  0  0
   22.0317   -4.8481  -14.2824 C   0  0  0  0  0  0  0  0  0  0  0  0
   20.9635   -4.2089  -14.0979 O   0  0  0  0  0  0  0  0  0  0  0  0
   20.8012   -7.4475  -13.9558 C   0  0  0  0  0  0  0  0  0  0  0  0
   19.8099   -8.3702  -14.3008 O   0  0  0  0  0  0  0  0  0  0  0  0
   23.1234   -4.5512  -13.4416 O   0  0  0  0  0  0  0  0  0  0  0  0
   20.5808   -6.7638  -12.9039 O   0  0  0  0  0  0  0  0  0  0  0  0
  2  1  1  0
  3  2  1  0
  3  4  1  6
  5  6  2  0
  5  3  1  0
  7  8  1  0
  9  8  1  0
  9 10  1  0
 11 10  1  1
 11 13  1  0
 11 12  1  0
 12  5  1  0
 13 15  1  0
 14 13  2  0
 15 16  1  0
 16 20  1  0
 16 17  1  6
 18 17  1  0
 18 19  2  0
 20 23  2  0
 20 21  1  0
 22 18  1  0
M  END
$$$$
