SMD.pdb
     RDKit          3D

 23 22  0  0  1  0  0  0  0  0999 V2000
   28.3657  -18.8923  -16.0851 O   0  0  0  0  0  0  0  0  0  0  0  0
   27.5912  -19.3381  -15.0162 C   0  0  0  0  0  0  0  0  0  0  0  0
   28.0760  -20.6798  -14.5053 C   0  0  2  0  0  0  0  0  0  0  0  0
   28.1303  -21.5763  -15.6414 N   0  0  0  0  0  0  0  0  0  0  0  0
   27.1495  -21.1907  -13.4610 C   0  0  0  0  0  0  0  0  0  0  0  0
   26.1917  -21.9830  -13.7276 O   0  0  0  0  0  0  0  0  0  0  0  0
   28.1345  -20.0021   -7.2040 C   0  0  0  0  0  0  0  0  0  0  0  0
   26.3325  -19.7962   -7.1987 S   0  0  0  0  0  0  0  0  0  0  0  0
   25.6907  -20.4447   -8.7846 C   0  0  0  0  0  0  0  0  0  0  0  0
   26.7777  -20.2908   -9.8491 C   0  0  0  0  0  0  0  0  0  0  0  0
   26.2291  -20.8524  -11.1485 C   0  0  2  0  0  0  0  0  0  0  0  0
   27.3084  -20.8032  -12.1127 N   0  0  0  0  0  0  0  0  0  0  0  0
   25.0306  -20.1407  -11.6024 C   0  0  0  0  0  0  0  0  0  0  0  0
   25.1670  -19.0833  -12.2621 O   0  0  0  0  0  0  0  0  0  0  0  0
   23.7413  -20.6344  -11.3037 N   0  0  0  0  0  0  0  0  0  0  0  0
   22.6185  -20.2455  -12.1257 C   0  0  1  0  0  0  0  0  0  0  0  0
   22.7847  -20.8063  -13.5184 C   0  0  0  0  0  0  0  0  0  0  0  0
   21.5912  -20.5457  -14.3179 C   0  0  0  0  0  0  0  0  0  0  0  0
   21.3707  -19.4009  -14.7918 O   0  0  0  0  0  0  0  0  0  0  0  0
   21.3846  -20.7375  -11.4665 C   0  0  0  0  0  0  0  0  0  0  0  0
   20.1029  -20.2730  -11.7737 O   0  0  0  0  0  0  0  0  0  0  0  0
   20.6472  -21.5569  -14.5881 O   0  0  0  0  0  0  0  0  0  0  0  0
   21.4483  -21.6330  -10.5628 O   0  0  0  0  0  0  0  0  0  0  0  0
  2  1  1  0
  3  2  1  0
  3  4  1  6
  5  6  2  0
  5  3  1  0
  7  8  1  0
  9  8  1  0
  9 10  1  0
 11 10  1  1
 11 13  1  0
 11 12  1  0
 12  5  1  0
 13 15  1  0
 14 13  2  0
 15 16  1  0
 16 20  1  0
 16 17  1  6
 18 17  1  0
 18 19  2  0
 20 23  2  0
 20 21  1  0
 22 18  1  0
M  END
$$$$
