SMD.pdb
     RDKit          3D

 23 22  0  0  1  0  0  0  0  0999 V2000
   26.6035  -18.9994  -16.0886 O   0  0  0  0  0  0  0  0  0  0  0  0
   27.8148  -19.1645  -15.4202 C   0  0  0  0  0  0  0  0  0  0  0  0
   28.0527  -20.6170  -15.0598 C   0  0  2  0  0  0  0  0  0  0  0  0
   28.0825  -21.3661  -16.2989 N   0  0  0  0  0  0  0  0  0  0  0  0
   26.9699  -21.1020  -14.1640 C   0  0  0  0  0  0  0  0  0  0  0  0
   26.0971  -21.9448  -14.5437 O   0  0  0  0  0  0  0  0  0  0  0  0
   27.0972  -20.3735   -7.6668 C   0  0  0  0  0  0  0  0  0  0  0  0
   25.3328  -20.1099   -7.9941 S   0  0  0  0  0  0  0  0  0  0  0  0
   24.9652  -20.7838   -9.6549 C   0  0  0  0  0  0  0  0  0  0  0  0
   26.0674  -20.3377  -10.6164 C   0  0  0  0  0  0  0  0  0  0  0  0
   25.7327  -20.8960  -11.9879 C   0  0  2  0  0  0  0  0  0  0  0  0
   26.8760  -20.6315  -12.8362 N   0  0  0  0  0  0  0  0  0  0  0  0
   24.4867  -20.3429  -12.5269 C   0  0  0  0  0  0  0  0  0  0  0  0
   24.5336  -19.2854  -13.1987 O   0  0  0  0  0  0  0  0  0  0  0  0
   23.2512  -20.9875  -12.2957 N   0  0  0  0  0  0  0  0  0  0  0  0
   22.1378  -20.7385  -13.1821 C   0  0  1  0  0  0  0  0  0  0  0  0
   22.4657  -21.2385  -14.5693 C   0  0  0  0  0  0  0  0  0  0  0  0
   21.3217  -21.0596  -15.4586 C   0  0  0  0  0  0  0  0  0  0  0  0
   20.7152  -19.9583  -15.5144 O   0  0  0  0  0  0  0  0  0  0  0  0
   20.9463  -21.4114  -12.6105 C   0  0  0  0  0  0  0  0  0  0  0  0
   19.6383  -20.9500  -12.7811 O   0  0  0  0  0  0  0  0  0  0  0  0
   20.8555  -22.1038  -16.2825 O   0  0  0  0  0  0  0  0  0  0  0  0
   21.0744  -22.4723  -11.9172 O   0  0  0  0  0  0  0  0  0  0  0  0
  2  1  1  0
  3  2  1  0
  3  4  1  6
  5  6  2  0
  5  3  1  0
  7  8  1  0
  9  8  1  0
  9 10  1  0
 11 10  1  1
 11 13  1  0
 11 12  1  0
 12  5  1  0
 13 15  1  0
 14 13  2  0
 15 16  1  0
 16 20  1  0
 16 17  1  6
 18 17  1  0
 18 19  2  0
 20 23  2  0
 20 21  1  0
 22 18  1  0
M  END
$$$$
