SMD.pdb
     RDKit          3D

 23 22  0  0  1  0  0  0  0  0999 V2000
   20.4933  -11.2323  -21.6839 O   0  0  0  0  0  0  0  0  0  0  0  0
   20.6341  -10.8103  -20.3636 C   0  0  0  0  0  0  0  0  0  0  0  0
   21.5054  -11.7626  -19.5698 C   0  0  2  0  0  0  0  0  0  0  0  0
   20.7169  -12.9496  -19.3113 N   0  0  0  0  0  0  0  0  0  0  0  0
   21.9385  -11.1181  -18.3022 C   0  0  0  0  0  0  0  0  0  0  0  0
   21.2343  -11.1527  -17.2443 O   0  0  0  0  0  0  0  0  0  0  0  0
   27.2529  -11.9752  -15.1882 C   0  0  0  0  0  0  0  0  0  0  0  0
   27.3362  -10.1659  -15.2857 S   0  0  0  0  0  0  0  0  0  0  0  0
   25.6446   -9.5443  -15.6010 C   0  0  0  0  0  0  0  0  0  0  0  0
   25.1112  -10.2071  -16.8716 C   0  0  0  0  0  0  0  0  0  0  0  0
   23.6546   -9.8058  -17.0208 C   0  0  2  0  0  0  0  0  0  0  0  0
   23.1713  -10.4334  -18.2330 N   0  0  0  0  0  0  0  0  0  0  0  0
   23.4739   -8.3511  -17.0247 C   0  0  0  0  0  0  0  0  0  0  0  0
   23.7191   -7.7126  -18.0754 O   0  0  0  0  0  0  0  0  0  0  0  0
   23.0310   -7.6756  -15.8658 N   0  0  0  0  0  0  0  0  0  0  0  0
   22.7541   -6.2588  -15.9258 C   0  0  1  0  0  0  0  0  0  0  0  0
   21.6598   -5.9930  -16.9326 C   0  0  0  0  0  0  0  0  0  0  0  0
   21.3053   -4.5767  -16.9372 C   0  0  0  0  0  0  0  0  0  0  0  0
   22.1972   -3.6896  -16.9729 O   0  0  0  0  0  0  0  0  0  0  0  0
   22.3812   -5.8135  -14.5614 C   0  0  0  0  0  0  0  0  0  0  0  0
   22.1859   -4.4756  -14.2082 O   0  0  0  0  0  0  0  0  0  0  0  0
   19.9622   -4.1508  -16.9021 O   0  0  0  0  0  0  0  0  0  0  0  0
   22.2200   -6.6634  -13.6262 O   0  0  0  0  0  0  0  0  0  0  0  0
  2  1  1  0
  3  2  1  0
  3  4  1  1
  5  6  2  0
  5  3  1  0
  7  8  1  0
  9  8  1  0
  9 10  1  0
 11 10  1  6
 11 13  1  0
 11 12  1  0
 12  5  1  0
 13 15  1  0
 14 13  2  0
 15 16  1  0
 16 20  1  0
 16 17  1  6
 18 17  1  0
 18 19  2  0
 20 23  2  0
 20 21  1  0
 22 18  1  0
M  END
$$$$
