SMD.pdb
     RDKit          3D

 23 22  0  0  1  0  0  0  0  0999 V2000
   16.5220  -11.1011  -16.4524 O   0  0  0  0  0  0  0  0  0  0  0  0
   17.5594  -10.2870  -16.0025 C   0  0  0  0  0  0  0  0  0  0  0  0
   18.8530  -11.0647  -15.8693 C   0  0  2  0  0  0  0  0  0  0  0  0
   18.6741  -12.0111  -14.7878 N   0  0  0  0  0  0  0  0  0  0  0  0
   19.9784  -10.1346  -15.5893 C   0  0  0  0  0  0  0  0  0  0  0  0
   20.1106   -9.5407  -14.4730 O   0  0  0  0  0  0  0  0  0  0  0  0
   25.8657  -11.2684  -14.6988 C   0  0  0  0  0  0  0  0  0  0  0  0
   24.8425   -9.9037  -15.3154 S   0  0  0  0  0  0  0  0  0  0  0  0
   23.9320  -10.5063  -16.7835 C   0  0  0  0  0  0  0  0  0  0  0  0
   23.1340   -9.3427  -17.3730 C   0  0  0  0  0  0  0  0  0  0  0  0
   22.0616   -8.9662  -16.3665 C   0  0  2  0  0  0  0  0  0  0  0  0
   20.9554   -9.8769  -16.5754 N   0  0  0  0  0  0  0  0  0  0  0  0
   21.6653   -7.5589  -16.4732 C   0  0  0  0  0  0  0  0  0  0  0  0
   21.0260   -7.1842  -17.4845 O   0  0  0  0  0  0  0  0  0  0  0  0
   21.9960   -6.6366  -15.4556 N   0  0  0  0  0  0  0  0  0  0  0  0
   21.5504   -5.2662  -15.5602 C   0  0  1  0  0  0  0  0  0  0  0  0
   20.0407   -5.2158  -15.5428 C   0  0  0  0  0  0  0  0  0  0  0  0
   19.5771   -3.8321  -15.5879 C   0  0  0  0  0  0  0  0  0  0  0  0
   20.1425   -2.9871  -16.3295 O   0  0  0  0  0  0  0  0  0  0  0  0
   22.1498   -4.5095  -14.4345 C   0  0  0  0  0  0  0  0  0  0  0  0
   22.0242   -3.1268  -14.2751 O   0  0  0  0  0  0  0  0  0  0  0  0
   18.4875   -3.3920  -14.8095 O   0  0  0  0  0  0  0  0  0  0  0  0
   22.8265   -5.1119  -13.5391 O   0  0  0  0  0  0  0  0  0  0  0  0
  2  1  1  0
  3  2  1  0
  3  4  1  1
  5  6  2  0
  5  3  1  0
  7  8  1  0
  9  8  1  0
  9 10  1  0
 11 10  1  6
 11 13  1  0
 11 12  1  0
 12  5  1  0
 13 15  1  0
 14 13  2  0
 15 16  1  0
 16 20  1  0
 16 17  1  1
 18 17  1  0
 18 19  2  0
 20 23  2  0
 20 21  1  0
 22 18  1  0
M  END
$$$$
