SMD.pdb
     RDKit          3D

 23 22  0  0  1  0  0  0  0  0999 V2000
   28.3879  -17.8416  -15.2214 O   0  0  0  0  0  0  0  0  0  0  0  0
   27.4016  -18.7180  -14.7737 C   0  0  0  0  0  0  0  0  0  0  0  0
   28.0069  -19.9267  -14.0891 C   0  0  2  0  0  0  0  0  0  0  0  0
   28.6286  -20.7346  -15.1177 N   0  0  0  0  0  0  0  0  0  0  0  0
   26.9493  -20.6878  -13.3735 C   0  0  0  0  0  0  0  0  0  0  0  0
   26.3487  -21.6781  -13.8977 O   0  0  0  0  0  0  0  0  0  0  0  0
   27.5108  -19.3870   -7.3772 C   0  0  0  0  0  0  0  0  0  0  0  0
   26.3209  -20.7525   -7.4717 S   0  0  0  0  0  0  0  0  0  0  0  0
   26.2408  -21.3051   -9.2141 C   0  0  0  0  0  0  0  0  0  0  0  0
   25.3814  -20.3141  -10.0001 C   0  0  0  0  0  0  0  0  0  0  0  0
   25.3448  -20.7837  -11.4433 C   0  0  2  0  0  0  0  0  0  0  0  0
   26.5716  -20.3264  -12.0620 N   0  0  0  0  0  0  0  0  0  0  0  0
   24.1467  -20.3216  -12.1505 C   0  0  0  0  0  0  0  0  0  0  0  0
   24.2134  -19.2733  -12.8348 O   0  0  0  0  0  0  0  0  0  0  0  0
   22.9350  -21.0426  -12.0651 N   0  0  0  0  0  0  0  0  0  0  0  0
   21.8401  -20.7078  -12.9464 C   0  0  1  0  0  0  0  0  0  0  0  0
   21.9943  -21.4431  -14.2569 C   0  0  0  0  0  0  0  0  0  0  0  0
   20.8443  -21.1911  -15.1203 C   0  0  0  0  0  0  0  0  0  0  0  0
   20.0161  -22.1043  -15.3730 O   0  0  0  0  0  0  0  0  0  0  0  0
   20.5779  -21.0586  -12.2516 C   0  0  0  0  0  0  0  0  0  0  0  0
   19.4119  -20.2918  -12.3268 O   0  0  0  0  0  0  0  0  0  0  0  0
   20.6182  -19.9263  -15.6998 O   0  0  0  0  0  0  0  0  0  0  0  0
   20.5060  -22.1086  -11.5339 O   0  0  0  0  0  0  0  0  0  0  0  0
  2  1  1  0
  3  2  1  0
  3  4  1  6
  5  6  2  0
  5  3  1  0
  7  8  1  0
  9  8  1  0
  9 10  1  0
 11 10  1  1
 11 13  1  0
 11 12  1  0
 12  5  1  0
 13 15  1  0
 14 13  2  0
 15 16  1  0
 16 20  1  0
 16 17  1  6
 18 17  1  0
 18 19  2  0
 20 23  2  0
 20 21  1  0
 22 18  1  0
M  END
$$$$
