SMD.pdb
     RDKit          3D

 23 22  0  0  1  0  0  0  0  0999 V2000
   26.7861  -18.6942  -16.3753 O   0  0  0  0  0  0  0  0  0  0  0  0
   27.9013  -18.8079  -15.5480 C   0  0  0  0  0  0  0  0  0  0  0  0
   28.2199  -20.2585  -15.2473 C   0  0  2  0  0  0  0  0  0  0  0  0
   28.3672  -20.9368  -16.5184 N   0  0  0  0  0  0  0  0  0  0  0  0
   27.1273  -20.8616  -14.4394 C   0  0  0  0  0  0  0  0  0  0  0  0
   26.3815  -21.7893  -14.8858 O   0  0  0  0  0  0  0  0  0  0  0  0
   26.8566  -20.5180   -7.8204 C   0  0  0  0  0  0  0  0  0  0  0  0
   25.1275  -20.3002   -8.3226 S   0  0  0  0  0  0  0  0  0  0  0  0
   24.9415  -20.9968  -10.0042 C   0  0  0  0  0  0  0  0  0  0  0  0
   26.0220  -20.3945  -10.9030 C   0  0  0  0  0  0  0  0  0  0  0  0
   25.8048  -20.9342  -12.3053 C   0  0  2  0  0  0  0  0  0  0  0  0
   26.8796  -20.4130  -13.1239 N   0  0  0  0  0  0  0  0  0  0  0  0
   24.4781  -20.6011  -12.8323 C   0  0  0  0  0  0  0  0  0  0  0  0
   24.2512  -19.4255  -13.2043 O   0  0  0  0  0  0  0  0  0  0  0  0
   23.4688  -21.5854  -12.9214 N   0  0  0  0  0  0  0  0  0  0  0  0
   22.2065  -21.2608  -13.5450 C   0  0  1  0  0  0  0  0  0  0  0  0
   21.6147  -22.4982  -14.1778 C   0  0  0  0  0  0  0  0  0  0  0  0
   20.2956  -22.2058  -14.7310 C   0  0  0  0  0  0  0  0  0  0  0  0
   19.7821  -21.0640  -14.6033 O   0  0  0  0  0  0  0  0  0  0  0  0
   21.3223  -20.6866  -12.5022 C   0  0  0  0  0  0  0  0  0  0  0  0
   21.3561  -21.0705  -11.1589 O   0  0  0  0  0  0  0  0  0  0  0  0
   19.5517  -23.1821  -15.4239 O   0  0  0  0  0  0  0  0  0  0  0  0
   20.4675  -19.7908  -12.8018 O   0  0  0  0  0  0  0  0  0  0  0  0
  2  1  1  0
  3  2  1  0
  3  4  1  6
  5  6  2  0
  5  3  1  0
  7  8  1  0
  9  8  1  0
  9 10  1  0
 11 10  1  1
 11 13  1  0
 11 12  1  0
 12  5  1  0
 13 15  1  0
 14 13  2  0
 15 16  1  0
 16 20  1  0
 16 17  1  1
 18 17  1  0
 18 19  2  0
 20 23  2  0
 20 21  1  0
 22 18  1  0
M  END
$$$$
