SMD.pdb
     RDKit          3D

 23 22  0  0  1  0  0  0  0  0999 V2000
   22.7138   -6.7246  -18.9832 O   0  0  0  0  0  0  0  0  0  0  0  0
   23.6301   -7.5303  -18.3105 C   0  0  0  0  0  0  0  0  0  0  0  0
   22.9425   -8.6923  -17.6228 C   0  0  2  0  0  0  0  0  0  0  0  0
   22.2348   -9.4362  -18.6441 N   0  0  0  0  0  0  0  0  0  0  0  0
   22.0093   -8.1865  -16.5819 C   0  0  0  0  0  0  0  0  0  0  0  0
   20.7556   -8.0996  -16.7742 O   0  0  0  0  0  0  0  0  0  0  0  0
   22.0123  -12.0019  -11.7564 C   0  0  0  0  0  0  0  0  0  0  0  0
   22.2268  -10.2146  -11.5343 S   0  0  0  0  0  0  0  0  0  0  0  0
   21.7492   -9.3952  -13.0988 C   0  0  0  0  0  0  0  0  0  0  0  0
   22.0656   -7.9035  -12.9835 C   0  0  0  0  0  0  0  0  0  0  0  0
   21.6414   -7.2435  -14.2832 C   0  0  2  0  0  0  0  0  0  0  0  0
   22.4972   -7.7786  -15.3215 N   0  0  0  0  0  0  0  0  0  0  0  0
   21.6887   -5.7803  -14.2076 C   0  0  0  0  0  0  0  0  0  0  0  0
   22.7301   -5.2288  -13.7794 O   0  0  0  0  0  0  0  0  0  0  0  0
   20.5816   -5.0004  -14.6096 N   0  0  0  0  0  0  0  0  0  0  0  0
   20.6774   -3.5589  -14.5895 C   0  0  1  0  0  0  0  0  0  0  0  0
   21.2041   -3.0621  -15.9152 C   0  0  0  0  0  0  0  0  0  0  0  0
   21.2865   -1.6045  -15.9163 C   0  0  0  0  0  0  0  0  0  0  0  0
   20.6107   -0.9216  -16.7291 O   0  0  0  0  0  0  0  0  0  0  0  0
   19.3295   -3.0212  -14.2845 C   0  0  0  0  0  0  0  0  0  0  0  0
   18.1725   -3.8040  -14.2452 O   0  0  0  0  0  0  0  0  0  0  0  0
   22.1189   -0.9106  -15.0149 O   0  0  0  0  0  0  0  0  0  0  0  0
   19.1691   -1.7815  -14.0391 O   0  0  0  0  0  0  0  0  0  0  0  0
  2  1  1  0
  3  2  1  0
  3  4  1  6
  5  6  2  0
  5  3  1  0
  7  8  1  0
  9  8  1  0
  9 10  1  0
 11 10  1  1
 11 13  1  0
 11 12  1  0
 12  5  1  0
 13 15  1  0
 14 13  2  0
 15 16  1  0
 16 20  1  0
 16 17  1  6
 18 17  1  0
 18 19  2  0
 20 23  2  0
 20 21  1  0
 22 18  1  0
M  END
$$$$
