SMD.pdb
     RDKit          3D

 23 22  0  0  1  0  0  0  0  0999 V2000
   21.0810  -12.0075  -20.9924 O   0  0  0  0  0  0  0  0  0  0  0  0
   21.3570  -11.2479  -19.8575 C   0  0  0  0  0  0  0  0  0  0  0  0
   22.3866  -11.9260  -18.9765 C   0  0  2  0  0  0  0  0  0  0  0  0
   21.8454  -13.2155  -18.6002 N   0  0  0  0  0  0  0  0  0  0  0  0
   22.6619  -11.0883  -17.7796 C   0  0  0  0  0  0  0  0  0  0  0  0
   21.8693  -11.0359  -16.7871 O   0  0  0  0  0  0  0  0  0  0  0  0
   27.9743  -13.0460  -14.9653 C   0  0  0  0  0  0  0  0  0  0  0  0
   27.7227  -11.3886  -15.6578 S   0  0  0  0  0  0  0  0  0  0  0  0
   25.9212  -11.1256  -15.8389 C   0  0  0  0  0  0  0  0  0  0  0  0
   25.6849   -9.6989  -16.3358 C   0  0  0  0  0  0  0  0  0  0  0  0
   24.1905   -9.5268  -16.5410 C   0  0  2  0  0  0  0  0  0  0  0  0
   23.8369  -10.3089  -17.7073 N   0  0  0  0  0  0  0  0  0  0  0  0
   23.8024   -8.1186  -16.6638 C   0  0  0  0  0  0  0  0  0  0  0  0
   23.8128   -7.5836  -17.7976 O   0  0  0  0  0  0  0  0  0  0  0  0
   23.4222   -7.3727  -15.5260 N   0  0  0  0  0  0  0  0  0  0  0  0
   22.7996   -6.0797  -15.6939 C   0  0  1  0  0  0  0  0  0  0  0  0
   21.5401   -6.2206  -16.5159 C   0  0  0  0  0  0  0  0  0  0  0  0
   20.8307   -4.9463  -16.5826 C   0  0  0  0  0  0  0  0  0  0  0  0
   21.4609   -3.8571  -16.5778 O   0  0  0  0  0  0  0  0  0  0  0  0
   22.5294   -5.5301  -14.3434 C   0  0  0  0  0  0  0  0  0  0  0  0
   22.2087   -4.1918  -14.1004 O   0  0  0  0  0  0  0  0  0  0  0  0
   19.4243   -4.8863  -16.6545 O   0  0  0  0  0  0  0  0  0  0  0  0
   22.5820   -6.2831  -13.3173 O   0  0  0  0  0  0  0  0  0  0  0  0
  2  1  1  0
  3  2  1  0
  3  4  1  1
  5  6  2  0
  5  3  1  0
  7  8  1  0
  9  8  1  0
  9 10  1  0
 11 10  1  6
 11 13  1  0
 11 12  1  0
 12  5  1  0
 13 15  1  0
 14 13  2  0
 15 16  1  0
 16 20  1  0
 16 17  1  6
 18 17  1  0
 18 19  2  0
 20 23  2  0
 20 21  1  0
 22 18  1  0
M  END
$$$$
