TLV.pdb
     RDKit          3D

 23 22  0  0  1  0  0  0  0  0999 V2000
   18.0105   -7.2283  -18.8129 C   0  0  0  0  0  0  0  0  0  0  0  0
   16.8393   -8.0693  -18.4180 C   0  0  1  0  0  0  0  0  0  0  0  0
   15.9369   -8.2433  -19.4581 O   0  0  0  0  0  0  0  0  0  0  0  0
   17.3508   -9.3889  -17.8800 C   0  0  2  0  0  0  0  0  0  0  0  0
   16.2926  -10.2995  -17.5588 N   0  0  0  0  0  0  0  0  0  0  0  0
   18.2194   -9.1943  -16.6988 C   0  0  0  0  0  0  0  0  0  0  0  0
   17.7170   -8.8562  -15.6019 O   0  0  0  0  0  0  0  0  0  0  0  0
   21.9542   -9.9465  -13.2014 C   0  0  0  0  0  0  0  0  0  0  0  0
   22.6045   -9.7884  -14.5721 C   0  0  1  0  0  0  0  0  0  0  0  0
   23.8186  -10.6797  -14.5873 C   0  0  0  0  0  0  0  0  0  0  0  0
   21.5821  -10.1687  -15.5967 C   0  0  0  0  0  0  0  0  0  0  0  0
   20.4947   -9.1326  -15.7108 C   0  0  2  0  0  0  0  0  0  0  0  0
   19.6066   -9.3906  -16.8149 N   0  0  0  0  0  0  0  0  0  0  0  0
   21.0028   -7.7634  -15.8125 C   0  0  0  0  0  0  0  0  0  0  0  0
   21.7081   -7.4606  -16.8073 O   0  0  0  0  0  0  0  0  0  0  0  0
   19.5743   -4.6803  -16.7237 C   0  0  0  0  0  0  0  0  0  0  0  0
   20.2045   -4.4285  -15.3907 C   0  0  1  0  0  0  0  0  0  0  0  0
   19.1457   -4.2617  -14.3482 C   0  0  0  0  0  0  0  0  0  0  0  0
   21.2481   -5.4541  -15.0316 C   0  0  2  0  0  0  0  0  0  0  0  0
   20.7218   -6.7583  -14.8149 N   0  0  0  0  0  0  0  0  0  0  0  0
   21.9922   -5.0145  -13.8213 C   0  0  0  0  0  0  0  0  0  0  0  0
   21.8300   -5.6899  -12.6272 O   0  0  0  0  0  0  0  0  0  0  0  0
   22.7531   -4.0310  -13.9265 O   0  0  0  0  0  0  0  0  0  0  0  0
  2  1  1  6
  2  3  1  0
  4  6  1  0
  4  2  1  0
  4  5  1  1
  6  7  2  0
  9  8  1  1
  9 10  1  0
 11  9  1  0
 12 11  1  6
 13 12  1  0
 13  6  1  0
 14 20  1  0
 14 12  1  0
 15 14  2  0
 17 16  1  6
 18 17  1  0
 19 17  1  0
 19 20  1  1
 21 19  1  0
 21 22  1  0
 23 21  2  0
M  END
$$$$
