TLV.pdb
     RDKit          3D

 23 22  0  0  1  0  0  0  0  0999 V2000
   21.8928   -8.4932  -20.6333 C   0  0  0  0  0  0  0  0  0  0  0  0
   21.1353   -9.7473  -20.3361 C   0  0  1  0  0  0  0  0  0  0  0  0
   20.6834  -10.3788  -21.4866 O   0  0  0  0  0  0  0  0  0  0  0  0
   22.0097  -10.6527  -19.4946 C   0  0  2  0  0  0  0  0  0  0  0  0
   21.4252  -11.9439  -19.2864 N   0  0  0  0  0  0  0  0  0  0  0  0
   22.3358  -10.0350  -18.1910 C   0  0  0  0  0  0  0  0  0  0  0  0
   21.4664   -9.9785  -17.2905 O   0  0  0  0  0  0  0  0  0  0  0  0
   27.4468  -10.2692  -16.1964 C   0  0  0  0  0  0  0  0  0  0  0  0
   25.9255  -10.3206  -16.2955 C   0  0  1  0  0  0  0  0  0  0  0  0
   25.4263  -10.9883  -15.0411 C   0  0  0  0  0  0  0  0  0  0  0  0
   25.4412   -8.9126  -16.4457 C   0  0  0  0  0  0  0  0  0  0  0  0
   23.9636   -8.8587  -16.7336 C   0  0  2  0  0  0  0  0  0  0  0  0
   23.6227   -9.5138  -17.9701 N   0  0  0  0  0  0  0  0  0  0  0  0
   23.4213   -7.4989  -16.7447 C   0  0  0  0  0  0  0  0  0  0  0  0
   23.6801   -6.7610  -17.7281 O   0  0  0  0  0  0  0  0  0  0  0  0
   20.0999   -4.1758  -15.9621 C   0  0  0  0  0  0  0  0  0  0  0  0
   20.6226   -5.5764  -16.0118 C   0  0  1  0  0  0  0  0  0  0  0  0
   20.1580   -6.2511  -17.2625 C   0  0  0  0  0  0  0  0  0  0  0  0
   22.1125   -5.6547  -15.8020 C   0  0  2  0  0  0  0  0  0  0  0  0
   22.6055   -6.9831  -15.6710 N   0  0  0  0  0  0  0  0  0  0  0  0
   22.4952   -4.8653  -14.6012 C   0  0  0  0  0  0  0  0  0  0  0  0
   22.7020   -3.5034  -14.7066 O   0  0  0  0  0  0  0  0  0  0  0  0
   22.6192   -5.4708  -13.5171 O   0  0  0  0  0  0  0  0  0  0  0  0
  2  1  1  6
  2  3  1  0
  4  6  1  0
  4  2  1  0
  4  5  1  1
  6  7  2  0
  9  8  1  1
  9 10  1  0
 11  9  1  0
 12 11  1  6
 13 12  1  0
 13  6  1  0
 14 20  1  0
 14 12  1  0
 15 14  2  0
 17 16  1  6
 18 17  1  0
 19 17  1  0
 19 20  1  1
 21 19  1  0
 21 22  1  0
 23 21  2  0
M  END
$$$$
