TLV.pdb
     RDKit          3D

 23 22  0  0  1  0  0  0  0  0999 V2000
   16.3071  -10.9245  -18.4112 C   0  0  0  0  0  0  0  0  0  0  0  0
   17.2998  -10.7132  -17.3136 C   0  0  1  0  0  0  0  0  0  0  0  0
   17.9890  -11.8741  -16.9914 O   0  0  0  0  0  0  0  0  0  0  0  0
   18.2318   -9.5892  -17.7140 C   0  0  2  0  0  0  0  0  0  0  0  0
   19.0345   -9.9195  -18.8536 N   0  0  0  0  0  0  0  0  0  0  0  0
   19.1022   -9.1786  -16.5910 C   0  0  0  0  0  0  0  0  0  0  0  0
   18.5978   -8.8985  -15.4787 O   0  0  0  0  0  0  0  0  0  0  0  0
   23.8848  -11.5282  -15.5254 C   0  0  0  0  0  0  0  0  0  0  0  0
   22.5404  -10.8425  -15.3038 C   0  0  1  0  0  0  0  0  0  0  0  0
   22.2134  -10.9802  -13.8401 C   0  0  0  0  0  0  0  0  0  0  0  0
   22.6886   -9.4194  -15.7427 C   0  0  0  0  0  0  0  0  0  0  0  0
   21.3722   -8.6878  -15.7170 C   0  0  2  0  0  0  0  0  0  0  0  0
   20.4934   -9.1050  -16.7792 N   0  0  0  0  0  0  0  0  0  0  0  0
   21.5140   -7.2313  -15.7548 C   0  0  0  0  0  0  0  0  0  0  0  0
   21.8212   -6.6894  -16.8461 O   0  0  0  0  0  0  0  0  0  0  0  0
   19.3287   -4.6811  -16.0608 C   0  0  0  0  0  0  0  0  0  0  0  0
   20.1200   -4.2764  -14.8578 C   0  0  1  0  0  0  0  0  0  0  0  0
   19.2762   -4.3914  -13.6288 C   0  0  0  0  0  0  0  0  0  0  0  0
   21.4392   -4.9965  -14.7532 C   0  0  2  0  0  0  0  0  0  0  0  0
   21.3141   -6.4044  -14.5883 N   0  0  0  0  0  0  0  0  0  0  0  0
   22.2322   -4.4360  -13.6269 C   0  0  0  0  0  0  0  0  0  0  0  0
   22.7929   -3.1780  -13.7353 O   0  0  0  0  0  0  0  0  0  0  0  0
   22.3676   -5.1339  -12.6013 O   0  0  0  0  0  0  0  0  0  0  0  0
  2  1  1  6
  2  3  1  0
  4  6  1  0
  4  2  1  0
  4  5  1  6
  6  7  2  0
  9  8  1  1
  9 10  1  0
 11  9  1  0
 12 11  1  6
 13 12  1  0
 13  6  1  0
 14 20  1  0
 14 12  1  0
 15 14  2  0
 17 16  1  6
 18 17  1  0
 19 17  1  0
 19 20  1  1
 21 19  1  0
 21 22  1  0
 23 21  2  0
M  END
$$$$
