TLV.pdb
     RDKit          3D

 23 22  0  0  1  0  0  0  0  0999 V2000
   19.6249   -9.2011  -20.0372 C   0  0  0  0  0  0  0  0  0  0  0  0
   19.2017  -10.6032  -19.7377 C   0  0  1  0  0  0  0  0  0  0  0  0
   19.2237  -11.4154  -20.8631 O   0  0  0  0  0  0  0  0  0  0  0  0
   20.0751  -11.1452  -18.6261 C   0  0  2  0  0  0  0  0  0  0  0  0
   19.8597  -12.5412  -18.3880 N   0  0  0  0  0  0  0  0  0  0  0  0
   19.8875  -10.3884  -17.3694 C   0  0  0  0  0  0  0  0  0  0  0  0
   18.7912  -10.4413  -16.7650 O   0  0  0  0  0  0  0  0  0  0  0  0
   23.4820   -9.8003  -13.3682 C   0  0  0  0  0  0  0  0  0  0  0  0
   22.0898   -9.8394  -13.9903 C   0  0  1  0  0  0  0  0  0  0  0  0
   21.1018   -9.8640  -12.8538 C   0  0  0  0  0  0  0  0  0  0  0  0
   21.9565   -8.6289  -14.8602 C   0  0  0  0  0  0  0  0  0  0  0  0
   20.7455   -8.7135  -15.7519 C   0  0  2  0  0  0  0  0  0  0  0  0
   20.9432   -9.6124  -16.8597 N   0  0  0  0  0  0  0  0  0  0  0  0
   20.3044   -7.4136  -16.2606 C   0  0  0  0  0  0  0  0  0  0  0  0
   21.0170   -6.8354  -17.1190 O   0  0  0  0  0  0  0  0  0  0  0  0
   17.0323   -4.2570  -17.7268 C   0  0  0  0  0  0  0  0  0  0  0  0
   17.4632   -5.5977  -17.2227 C   0  0  1  0  0  0  0  0  0  0  0  0
   17.5173   -6.5753  -18.3527 C   0  0  0  0  0  0  0  0  0  0  0  0
   18.7327   -5.5403  -16.4135 C   0  0  2  0  0  0  0  0  0  0  0  0
   19.0874   -6.7800  -15.8116 N   0  0  0  0  0  0  0  0  0  0  0  0
   18.6134   -4.4965  -15.3608 C   0  0  0  0  0  0  0  0  0  0  0  0
   19.0483   -3.2094  -15.6115 O   0  0  0  0  0  0  0  0  0  0  0  0
   18.1149   -4.8242  -14.2647 O   0  0  0  0  0  0  0  0  0  0  0  0
  2  1  1  6
  2  3  1  0
  4  6  1  0
  4  2  1  0
  4  5  1  1
  6  7  2  0
  9  8  1  1
  9 10  1  0
 11  9  1  0
 12 11  1  6
 13 12  1  0
 13  6  1  0
 14 20  1  0
 14 12  1  0
 15 14  2  0
 17 16  1  6
 18 17  1  0
 19 17  1  0
 19 20  1  1
 21 19  1  0
 21 22  1  0
 23 21  2  0
M  END
$$$$
