TLV.pdb
     RDKit          3D

 23 22  0  0  1  0  0  0  0  0999 V2000
   29.0463  -19.5253  -17.3173 C   0  0  0  0  0  0  0  0  0  0  0  0
   27.8407  -19.8693  -16.5031 C   0  0  1  0  0  0  0  0  0  0  0  0
   26.6925  -19.9769  -17.2756 O   0  0  0  0  0  0  0  0  0  0  0  0
   28.1268  -21.1374  -15.7270 C   0  0  2  0  0  0  0  0  0  0  0  0
   28.2527  -22.2850  -16.5751 N   0  0  0  0  0  0  0  0  0  0  0  0
   27.0967  -21.3878  -14.6958 C   0  0  0  0  0  0  0  0  0  0  0  0
   26.2075  -22.2476  -14.8957 O   0  0  0  0  0  0  0  0  0  0  0  0
   25.3713  -21.9222   -9.7212 C   0  0  0  0  0  0  0  0  0  0  0  0
   25.4952  -20.4505  -10.1029 C   0  0  1  0  0  0  0  0  0  0  0  0
   25.8005  -19.6931   -8.8374 C   0  0  0  0  0  0  0  0  0  0  0  0
   26.5806  -20.3462  -11.1279 C   0  0  0  0  0  0  0  0  0  0  0  0
   26.1344  -20.8697  -12.4680 C   0  0  2  0  0  0  0  0  0  0  0  0
   27.1218  -20.6574  -13.4948 N   0  0  0  0  0  0  0  0  0  0  0  0
   24.8532  -20.3180  -12.9120 C   0  0  0  0  0  0  0  0  0  0  0  0
   24.8201  -19.1238  -13.3013 O   0  0  0  0  0  0  0  0  0  0  0  0
   22.0454  -22.5493  -14.8980 C   0  0  0  0  0  0  0  0  0  0  0  0
   22.1661  -21.0586  -14.8823 C   0  0  1  0  0  0  0  0  0  0  0  0
   20.9557  -20.4413  -15.5064 C   0  0  0  0  0  0  0  0  0  0  0  0
   22.4865  -20.5099  -13.5162 C   0  0  2  0  0  0  0  0  0  0  0  0
   23.6366  -21.0954  -12.9168 N   0  0  0  0  0  0  0  0  0  0  0  0
   21.3167  -20.6850  -12.6149 C   0  0  0  0  0  0  0  0  0  0  0  0
   20.2901  -19.7606  -12.6277 O   0  0  0  0  0  0  0  0  0  0  0  0
   21.3007  -21.6803  -11.8624 O   0  0  0  0  0  0  0  0  0  0  0  0
  2  1  1  6
  2  3  1  0
  4  6  1  0
  4  2  1  0
  4  5  1  6
  6  7  2  0
  9  8  1  1
  9 10  1  0
 11  9  1  0
 12 11  1  1
 13 12  1  0
 13  6  1  0
 14 20  1  0
 14 12  1  0
 15 14  2  0
 17 16  1  1
 18 17  1  0
 19 17  1  0
 19 20  1  1
 21 19  1  0
 21 22  1  0
 23 21  2  0
M  END
$$$$
