TLV.pdb
     RDKit          3D

 23 22  0  0  1  0  0  0  0  0999 V2000
   19.7493  -12.9443  -20.3638 C   0  0  0  0  0  0  0  0  0  0  0  0
   19.8202  -11.9060  -19.2906 C   0  0  1  0  0  0  0  0  0  0  0  0
   18.5645  -11.5198  -18.8429 O   0  0  0  0  0  0  0  0  0  0  0  0
   20.6899  -12.4299  -18.1674 C   0  0  2  0  0  0  0  0  0  0  0  0
   20.1797  -13.6399  -17.5950 N   0  0  0  0  0  0  0  0  0  0  0  0
   20.8785  -11.4157  -17.1076 C   0  0  0  0  0  0  0  0  0  0  0  0
   20.0368  -11.3107  -16.1854 O   0  0  0  0  0  0  0  0  0  0  0  0
   25.7778  -10.1001  -15.0450 C   0  0  0  0  0  0  0  0  0  0  0  0
   24.2752  -10.3608  -15.0781 C   0  0  1  0  0  0  0  0  0  0  0  0
   23.8021  -10.3828  -13.6483 C   0  0  0  0  0  0  0  0  0  0  0  0
   23.6513   -9.2679  -15.8880 C   0  0  0  0  0  0  0  0  0  0  0  0
   22.1946   -9.5375  -16.1601 C   0  0  2  0  0  0  0  0  0  0  0  0
   22.0038  -10.5737  -17.1420 N   0  0  0  0  0  0  0  0  0  0  0  0
   21.4477   -8.3461  -16.5675 C   0  0  0  0  0  0  0  0  0  0  0  0
   21.5372   -7.9645  -17.7613 O   0  0  0  0  0  0  0  0  0  0  0  0
   17.7210   -5.2712  -16.2944 C   0  0  0  0  0  0  0  0  0  0  0  0
   18.4229   -6.5346  -15.9092 C   0  0  1  0  0  0  0  0  0  0  0  0
   17.7453   -7.7085  -16.5403 C   0  0  0  0  0  0  0  0  0  0  0  0
   19.9064   -6.4840  -16.1673 C   0  0  2  0  0  0  0  0  0  0  0  0
   20.6185   -7.6019  -15.6493 N   0  0  0  0  0  0  0  0  0  0  0  0
   20.4746   -5.2315  -15.6018 C   0  0  0  0  0  0  0  0  0  0  0  0
   20.3488   -4.0419  -16.2930 O   0  0  0  0  0  0  0  0  0  0  0  0
   21.0575   -5.2976  -14.5003 O   0  0  0  0  0  0  0  0  0  0  0  0
  2  1  1  6
  2  3  1  0
  4  6  1  0
  4  2  1  0
  4  5  1  1
  6  7  2  0
  9  8  1  1
  9 10  1  0
 11  9  1  0
 12 11  1  6
 13 12  1  0
 13  6  1  0
 14 20  1  0
 14 12  1  0
 15 14  2  0
 17 16  1  6
 18 17  1  0
 19 17  1  0
 19 20  1  1
 21 19  1  0
 21 22  1  0
 23 21  2  0
M  END
$$$$
