TLV.pdb
     RDKit          3D

 23 22  0  0  1  0  0  0  0  0999 V2000
   26.8733  -15.0342  -19.0677 C   0  0  0  0  0  0  0  0  0  0  0  0
   28.0012  -14.9643  -20.0464 C   0  0  1  0  0  0  0  0  0  0  0  0
   28.4213  -13.6620  -20.2789 O   0  0  0  0  0  0  0  0  0  0  0  0
   29.1271  -15.8469  -19.5508 C   0  0  2  0  0  0  0  0  0  0  0  0
   30.3061  -15.7397  -20.3573 N   0  0  0  0  0  0  0  0  0  0  0  0
   28.7089  -17.2627  -19.4613 C   0  0  0  0  0  0  0  0  0  0  0  0
   28.7907  -18.0039  -20.4682 O   0  0  0  0  0  0  0  0  0  0  0  0
   28.7009  -21.9171  -17.5144 C   0  0  0  0  0  0  0  0  0  0  0  0
   27.7891  -21.1252  -16.5825 C   0  0  1  0  0  0  0  0  0  0  0  0
   28.0057  -21.6652  -15.1933 C   0  0  0  0  0  0  0  0  0  0  0  0
   28.1598  -19.6816  -16.7175 C   0  0  0  0  0  0  0  0  0  0  0  0
   27.8654  -19.1570  -18.0985 C   0  0  2  0  0  0  0  0  0  0  0  0
   28.2210  -17.7689  -18.2439 N   0  0  0  0  0  0  0  0  0  0  0  0
   26.4718  -19.3415  -18.5071 C   0  0  0  0  0  0  0  0  0  0  0  0
   25.5804  -18.7012  -17.8953 O   0  0  0  0  0  0  0  0  0  0  0  0
   24.8304  -18.8352  -22.0028 C   0  0  0  0  0  0  0  0  0  0  0  0
   24.4829  -20.1746  -21.4350 C   0  0  1  0  0  0  0  0  0  0  0  0
   25.1671  -21.2526  -22.2130 C   0  0  0  0  0  0  0  0  0  0  0  0
   24.7176  -20.2613  -19.9493 C   0  0  2  0  0  0  0  0  0  0  0  0
   26.0919  -20.2279  -19.5815 N   0  0  0  0  0  0  0  0  0  0  0  0
   24.0924  -21.4986  -19.4110 C   0  0  0  0  0  0  0  0  0  0  0  0
   22.7451  -21.5154  -19.1055 O   0  0  0  0  0  0  0  0  0  0  0  0
   24.8193  -22.5000  -19.2498 O   0  0  0  0  0  0  0  0  0  0  0  0
  2  1  1  1
  2  3  1  0
  4  6  1  0
  4  2  1  0
  4  5  1  6
  6  7  2  0
  9  8  1  6
  9 10  1  0
 11  9  1  0
 12 11  1  1
 13 12  1  0
 13  6  1  0
 14 20  1  0
 14 12  1  0
 15 14  2  0
 17 16  1  6
 18 17  1  0
 19 17  1  0
 19 20  1  6
 21 19  1  0
 21 22  1  0
 23 21  2  0
M  END
$$$$
