TLV.pdb
     RDKit          3D

 23 22  0  0  1  0  0  0  0  0999 V2000
   27.3952  -18.8258  -14.1339 C   0  0  0  0  0  0  0  0  0  0  0  0
   28.2276  -20.0418  -14.3853 C   0  0  1  0  0  0  0  0  0  0  0  0
   29.2973  -19.7863  -15.2320 O   0  0  0  0  0  0  0  0  0  0  0  0
   28.6765  -20.6045  -13.0533 C   0  0  2  0  0  0  0  0  0  0  0  0
   29.6034  -21.6872  -13.1975 N   0  0  0  0  0  0  0  0  0  0  0  0
   27.5261  -21.0369  -12.2304 C   0  0  0  0  0  0  0  0  0  0  0  0
   27.0067  -22.1607  -12.4228 O   0  0  0  0  0  0  0  0  0  0  0  0
   26.8647  -19.0265   -7.1826 C   0  0  0  0  0  0  0  0  0  0  0  0
   26.8950  -20.0458   -8.3171 C   0  0  1  0  0  0  0  0  0  0  0  0
   26.8400  -21.4106   -7.6823 C   0  0  0  0  0  0  0  0  0  0  0  0
   25.7231  -19.7609   -9.2031 C   0  0  0  0  0  0  0  0  0  0  0  0
   25.8190  -20.5029  -10.5105 C   0  0  2  0  0  0  0  0  0  0  0  0
   27.0216  -20.1817  -11.2351 N   0  0  0  0  0  0  0  0  0  0  0  0
   24.6622  -20.2967  -11.3838 C   0  0  0  0  0  0  0  0  0  0  0  0
   24.6071  -19.2406  -12.0623 O   0  0  0  0  0  0  0  0  0  0  0  0
   21.4291  -21.9306  -14.5140 C   0  0  0  0  0  0  0  0  0  0  0  0
   22.4943  -22.1647  -13.4905 C   0  0  1  0  0  0  0  0  0  0  0  0
   23.7858  -22.5009  -14.1646 C   0  0  0  0  0  0  0  0  0  0  0  0
   22.6088  -21.0400  -12.4945 C   0  0  2  0  0  0  0  0  0  0  0  0
   23.5919  -21.2598  -11.4895 N   0  0  0  0  0  0  0  0  0  0  0  0
   21.2898  -20.7997  -11.8509 C   0  0  0  0  0  0  0  0  0  0  0  0
   20.3994  -19.9052  -12.4128 O   0  0  0  0  0  0  0  0  0  0  0  0
   21.0258  -21.4261  -10.8044 O   0  0  0  0  0  0  0  0  0  0  0  0
  2  1  1  1
  2  3  1  0
  4  6  1  0
  4  2  1  0
  4  5  1  6
  6  7  2  0
  9  8  1  1
  9 10  1  0
 11  9  1  0
 12 11  1  1
 13 12  1  0
 13  6  1  0
 14 20  1  0
 14 12  1  0
 15 14  2  0
 17 16  1  6
 18 17  1  0
 19 17  1  0
 19 20  1  1
 21 19  1  0
 21 22  1  0
 23 21  2  0
M  END
$$$$
