TLV.pdb
     RDKit          3D

 23 22  0  0  1  0  0  0  0  0999 V2000
   21.8507  -23.3538  -14.3880 C   0  0  0  0  0  0  0  0  0  0  0  0
   20.7369  -22.4379  -13.9936 C   0  0  1  0  0  0  0  0  0  0  0  0
   19.5499  -23.1176  -13.7580 O   0  0  0  0  0  0  0  0  0  0  0  0
   21.1786  -21.6285  -12.7927 C   0  0  2  0  0  0  0  0  0  0  0  0
   20.1518  -20.7535  -12.3111 N   0  0  0  0  0  0  0  0  0  0  0  0
   22.4034  -20.8515  -13.0815 C   0  0  0  0  0  0  0  0  0  0  0  0
   22.3151  -19.7147  -13.6010 O   0  0  0  0  0  0  0  0  0  0  0  0
   27.2974  -19.1259  -12.8729 C   0  0  0  0  0  0  0  0  0  0  0  0
   27.3480  -20.6504  -12.8771 C   0  0  1  0  0  0  0  0  0  0  0  0
   28.5446  -21.0521  -12.0554 C   0  0  0  0  0  0  0  0  0  0  0  0
   26.0528  -21.1406  -12.3099 C   0  0  0  0  0  0  0  0  0  0  0  0
   24.8808  -20.7366  -13.1655 C   0  0  2  0  0  0  0  0  0  0  0  0
   23.6622  -21.3950  -12.7706 N   0  0  0  0  0  0  0  0  0  0  0  0
   25.1019  -20.9529  -14.5964 C   0  0  0  0  0  0  0  0  0  0  0  0
   25.1946  -22.1342  -15.0143 O   0  0  0  0  0  0  0  0  0  0  0  0
   23.9301  -18.2461  -17.6378 C   0  0  0  0  0  0  0  0  0  0  0  0
   24.1664  -19.7188  -17.7497 C   0  0  1  0  0  0  0  0  0  0  0  0
   24.2644  -20.1128  -19.1887 C   0  0  0  0  0  0  0  0  0  0  0  0
   25.3276  -20.1921  -16.9144 C   0  0  2  0  0  0  0  0  0  0  0  0
   25.2158  -19.8617  -15.5348 N   0  0  0  0  0  0  0  0  0  0  0  0
   26.5970  -19.6363  -17.4540 C   0  0  0  0  0  0  0  0  0  0  0  0
   27.3199  -20.3486  -18.3914 O   0  0  0  0  0  0  0  0  0  0  0  0
   26.9746  -18.5235  -17.0341 O   0  0  0  0  0  0  0  0  0  0  0  0
  2  1  1  1
  2  3  1  0
  4  6  1  0
  4  2  1  0
  4  5  1  6
  6  7  2  0
  9  8  1  1
  9 10  1  0
 11  9  1  0
 12 11  1  1
 13 12  1  0
 13  6  1  0
 14 20  1  0
 14 12  1  0
 15 14  2  0
 17 16  1  6
 18 17  1  0
 19 17  1  0
 19 20  1  1
 21 19  1  0
 21 22  1  0
 23 21  2  0
M  END
$$$$
