TLV.pdb
     RDKit          3D

 23 22  0  0  1  0  0  0  0  0999 V2000
   16.6691  -10.7391  -18.6152 C   0  0  0  0  0  0  0  0  0  0  0  0
   17.9784  -11.1507  -19.2077 C   0  0  1  0  0  0  0  0  0  0  0  0
   18.6037  -10.1127  -19.8845 O   0  0  0  0  0  0  0  0  0  0  0  0
   18.8491  -11.7207  -18.1079 C   0  0  2  0  0  0  0  0  0  0  0  0
   18.2675  -12.8733  -17.4873 N   0  0  0  0  0  0  0  0  0  0  0  0
   19.1626  -10.7039  -17.0808 C   0  0  0  0  0  0  0  0  0  0  0  0
   18.3212  -10.4310  -16.1934 O   0  0  0  0  0  0  0  0  0  0  0  0
   23.7862  -10.3053  -14.2965 C   0  0  0  0  0  0  0  0  0  0  0  0
   22.2967  -10.1630  -14.5933 C   0  0  1  0  0  0  0  0  0  0  0  0
   21.6262   -9.7795  -13.3002 C   0  0  0  0  0  0  0  0  0  0  0  0
   22.1527   -9.1250  -15.6616 C   0  0  0  0  0  0  0  0  0  0  0  0
   20.7318   -9.0215  -16.1508 C   0  0  2  0  0  0  0  0  0  0  0  0
   20.4060  -10.0482  -17.1069 N   0  0  0  0  0  0  0  0  0  0  0  0
   20.4055   -7.7131  -16.7208 C   0  0  0  0  0  0  0  0  0  0  0  0
   20.8682   -7.4227  -17.8523 O   0  0  0  0  0  0  0  0  0  0  0  0
   17.5198   -6.4163  -18.2605 C   0  0  0  0  0  0  0  0  0  0  0  0
   17.8467   -5.4405  -17.1751 C   0  0  1  0  0  0  0  0  0  0  0  0
   16.8463   -5.5517  -16.0694 C   0  0  0  0  0  0  0  0  0  0  0  0
   19.2756   -5.5392  -16.7077 C   0  0  2  0  0  0  0  0  0  0  0  0
   19.5763   -6.7540  -16.0303 N   0  0  0  0  0  0  0  0  0  0  0  0
   19.5980   -4.3879  -15.8233 C   0  0  0  0  0  0  0  0  0  0  0  0
   19.7792   -3.1300  -16.3651 O   0  0  0  0  0  0  0  0  0  0  0  0
   19.6961   -4.6002  -14.5976 O   0  0  0  0  0  0  0  0  0  0  0  0
  2  1  1  1
  2  3  1  0
  4  6  1  0
  4  2  1  0
  4  5  1  1
  6  7  2  0
  9  8  1  1
  9 10  1  0
 11  9  1  0
 12 11  1  6
 13 12  1  0
 13  6  1  0
 14 20  1  0
 14 12  1  0
 15 14  2  0
 17 16  1  6
 18 17  1  0
 19 17  1  0
 19 20  1  1
 21 19  1  0
 21 22  1  0
 23 21  2  0
M  END
$$$$
