TLV.pdb
     RDKit          3D

 23 22  0  0  1  0  0  0  0  0999 V2000
   19.8260  -33.5490   -8.0398 C   0  0  0  0  0  0  0  0  0  0  0  0
   19.9182  -34.4320   -9.2425 C   0  0  1  0  0  0  0  0  0  0  0  0
   18.8513  -34.2556  -10.1127 O   0  0  0  0  0  0  0  0  0  0  0  0
   21.2514  -34.1909   -9.9185 C   0  0  2  0  0  0  0  0  0  0  0  0
   21.3869  -34.9204  -11.1438 N   0  0  0  0  0  0  0  0  0  0  0  0
   22.3819  -34.5081   -9.0194 C   0  0  0  0  0  0  0  0  0  0  0  0
   22.7534  -35.6963   -8.8768 O   0  0  0  0  0  0  0  0  0  0  0  0
   27.1628  -32.1737   -9.2357 C   0  0  0  0  0  0  0  0  0  0  0  0
   26.1579  -33.2759   -8.9160 C   0  0  1  0  0  0  0  0  0  0  0  0
   26.9525  -34.5135   -8.5913 C   0  0  0  0  0  0  0  0  0  0  0  0
   25.3204  -32.7969   -7.7720 C   0  0  0  0  0  0  0  0  0  0  0  0
   24.1749  -33.7331   -7.4890 C   0  0  2  0  0  0  0  0  0  0  0  0
   23.0343  -33.4718   -8.3288 N   0  0  0  0  0  0  0  0  0  0  0  0
   23.7510  -33.7285   -6.0878 C   0  0  0  0  0  0  0  0  0  0  0  0
   23.1341  -32.7236   -5.6539 O   0  0  0  0  0  0  0  0  0  0  0  0
   22.1289  -35.7232   -2.0485 C   0  0  0  0  0  0  0  0  0  0  0  0
   22.5326  -35.7837   -3.4875 C   0  0  1  0  0  0  0  0  0  0  0  0
   21.3178  -35.7879   -4.3592 C   0  0  0  0  0  0  0  0  0  0  0  0
   23.5385  -34.7258   -3.8600 C   0  0  2  0  0  0  0  0  0  0  0  0
   24.0168  -34.8323   -5.1960 N   0  0  0  0  0  0  0  0  0  0  0  0
   24.6891  -34.7698   -2.9187 C   0  0  0  0  0  0  0  0  0  0  0  0
   24.6124  -34.1183   -1.7029 O   0  0  0  0  0  0  0  0  0  0  0  0
   25.7052  -35.4060   -3.2649 O   0  0  0  0  0  0  0  0  0  0  0  0
  2  1  1  1
  2  3  1  0
  4  6  1  0
  4  2  1  0
  4  5  1  6
  6  7  2  0
  9  8  1  1
  9 10  1  0
 11  9  1  0
 12 11  1  1
 13 12  1  0
 13  6  1  0
 14 20  1  0
 14 12  1  0
 15 14  2  0
 17 16  1  1
 18 17  1  0
 19 17  1  0
 19 20  1  6
 21 19  1  0
 21 22  1  0
 23 21  2  0
M  END
$$$$
