TLV.pdb
     RDKit          3D

 23 22  0  0  1  0  0  0  0  0999 V2000
   26.1515  -17.0502  -16.4204 C   0  0  0  0  0  0  0  0  0  0  0  0
   26.8681  -17.9570  -17.3685 C   0  0  1  0  0  0  0  0  0  0  0  0
   27.6179  -17.2591  -18.3052 O   0  0  0  0  0  0  0  0  0  0  0  0
   27.7137  -18.9241  -16.5672 C   0  0  2  0  0  0  0  0  0  0  0  0
   28.5168  -19.7713  -17.3974 N   0  0  0  0  0  0  0  0  0  0  0  0
   26.8851  -19.7499  -15.6624 C   0  0  0  0  0  0  0  0  0  0  0  0
   26.3365  -20.7910  -16.0926 O   0  0  0  0  0  0  0  0  0  0  0  0
   25.6746  -22.1406  -11.1626 C   0  0  0  0  0  0  0  0  0  0  0  0
   25.3638  -20.6514  -11.0503 C   0  0  1  0  0  0  0  0  0  0  0  0
   25.5602  -20.2697   -9.6066 C   0  0  0  0  0  0  0  0  0  0  0  0
   26.2892  -19.9319  -11.9807 C   0  0  0  0  0  0  0  0  0  0  0  0
   25.8864  -20.1156  -13.4204 C   0  0  2  0  0  0  0  0  0  0  0  0
   26.7179  -19.3604  -14.3219 N   0  0  0  0  0  0  0  0  0  0  0  0
   24.4818  -19.7934  -13.6783 C   0  0  0  0  0  0  0  0  0  0  0  0
   24.1031  -18.6057  -13.5210 O   0  0  0  0  0  0  0  0  0  0  0  0
   21.9923  -21.9597  -16.3306 C   0  0  0  0  0  0  0  0  0  0  0  0
   21.8549  -20.5384  -15.8852 C   0  0  1  0  0  0  0  0  0  0  0  0
   20.4977  -20.0207  -16.2395 C   0  0  0  0  0  0  0  0  0  0  0  0
   22.2169  -20.3397  -14.4363 C   0  0  2  0  0  0  0  0  0  0  0  0
   23.5259  -20.7881  -14.1040 N   0  0  0  0  0  0  0  0  0  0  0  0
   21.2241  -21.0284  -13.5692 C   0  0  0  0  0  0  0  0  0  0  0  0
   21.5890  -22.1592  -12.8644 O   0  0  0  0  0  0  0  0  0  0  0  0
   20.0721  -20.5529  -13.5057 O   0  0  0  0  0  0  0  0  0  0  0  0
  2  1  1  1
  2  3  1  0
  4  6  1  0
  4  2  1  0
  4  5  1  6
  6  7  2  0
  9  8  1  1
  9 10  1  0
 11  9  1  0
 12 11  1  1
 13 12  1  0
 13  6  1  0
 14 20  1  0
 14 12  1  0
 15 14  2  0
 17 16  1  1
 18 17  1  0
 19 17  1  0
 19 20  1  6
 21 19  1  0
 21 22  1  0
 23 21  2  0
M  END
$$$$
