TLV.pdb
     RDKit          3D

 23 22  0  0  1  0  0  0  0  0999 V2000
   18.7306  -17.1428  -67.3746 C   0  0  0  0  0  0  0  0  0  0  0  0
   18.3595  -15.7132  -67.6057 C   0  0  1  0  0  0  0  0  0  0  0  0
   18.9378  -15.1947  -68.7561 O   0  0  0  0  0  0  0  0  0  0  0  0
   16.8496  -15.6028  -67.6269 C   0  0  2  0  0  0  0  0  0  0  0  0
   16.3986  -14.2995  -68.0143 N   0  0  0  0  0  0  0  0  0  0  0  0
   16.2595  -15.9689  -66.3211 C   0  0  0  0  0  0  0  0  0  0  0  0
   15.2189  -15.3961  -65.9222 O   0  0  0  0  0  0  0  0  0  0  0  0
   14.2830  -17.3174  -62.7232 C   0  0  0  0  0  0  0  0  0  0  0  0
   15.6489  -16.8425  -62.2377 C   0  0  1  0  0  0  0  0  0  0  0  0
   15.7850  -17.2885  -60.8055 C   0  0  0  0  0  0  0  0  0  0  0  0
   16.6774  -17.4452  -63.1424 C   0  0  0  0  0  0  0  0  0  0  0  0
   16.1336  -17.6790  -64.5275 C   0  0  2  0  0  0  0  0  0  0  0  0
   16.8715  -16.9599  -65.5338 N   0  0  0  0  0  0  0  0  0  0  0  0
   14.7104  -17.3611  -64.6561 C   0  0  0  0  0  0  0  0  0  0  0  0
   14.3531  -16.5839  -65.5764 O   0  0  0  0  0  0  0  0  0  0  0  0
   11.8287  -18.6518  -61.9974 C   0  0  0  0  0  0  0  0  0  0  0  0
   11.5379  -18.9937  -63.4242 C   0  0  1  0  0  0  0  0  0  0  0  0
   10.2737  -18.3262  -63.8623 C   0  0  0  0  0  0  0  0  0  0  0  0
   12.7058  -18.7339  -64.3398 C   0  0  2  0  0  0  0  0  0  0  0  0
   13.7127  -17.9075  -63.7670 N   0  0  0  0  0  0  0  0  0  0  0  0
   12.2266  -18.1215  -65.6076 C   0  0  0  0  0  0  0  0  0  0  0  0
   12.9110  -17.0578  -66.1631 O   0  0  0  0  0  0  0  0  0  0  0  0
   11.2023  -18.5979  -66.1378 O   0  0  0  0  0  0  0  0  0  0  0  0
  2  1  1  6
  2  3  1  0
  4  6  1  0
  4  2  1  0
  4  5  1  1
  6  7  2  0
  9  8  1  6
  9 10  1  0
 11  9  1  0
 12 11  1  1
 13 12  1  0
 13  6  1  0
 14 20  1  0
 14 12  1  0
 15 14  2  0
 17 16  1  1
 18 17  1  0
 19 17  1  0
 19 20  1  1
 21 19  1  0
 21 22  1  0
 23 21  2  0
M  END
$$$$
