TLV.pdb
     RDKit          3D

 23 22  0  0  1  0  0  0  0  0999 V2000
   21.7134  -19.6375  -15.4022 C   0  0  0  0  0  0  0  0  0  0  0  0
   22.0964  -20.7558  -16.3174 C   0  0  1  0  0  0  0  0  0  0  0  0
   21.0618  -21.1243  -17.1661 O   0  0  0  0  0  0  0  0  0  0  0  0
   23.3421  -20.3532  -17.0781 C   0  0  2  0  0  0  0  0  0  0  0  0
   23.7049  -21.3065  -18.0839 N   0  0  0  0  0  0  0  0  0  0  0  0
   24.4854  -20.1264  -16.1678 C   0  0  0  0  0  0  0  0  0  0  0  0
   25.1025  -21.1033  -15.6832 O   0  0  0  0  0  0  0  0  0  0  0  0
   27.4955  -15.4467  -16.4581 C   0  0  0  0  0  0  0  0  0  0  0  0
   27.0700  -16.9105  -16.4023 C   0  0  1  0  0  0  0  0  0  0  0  0
   28.3011  -17.7359  -16.6699 C   0  0  0  0  0  0  0  0  0  0  0  0
   26.4822  -17.1520  -15.0475 C   0  0  0  0  0  0  0  0  0  0  0  0
   25.9377  -18.5504  -14.9170 C   0  0  2  0  0  0  0  0  0  0  0  0
   24.8734  -18.8127  -15.8512 N   0  0  0  0  0  0  0  0  0  0  0  0
   25.4804  -18.8739  -13.5644 C   0  0  0  0  0  0  0  0  0  0  0  0
   24.3938  -18.3831  -13.1682 O   0  0  0  0  0  0  0  0  0  0  0  0
   25.0696  -22.3603  -11.8632 C   0  0  0  0  0  0  0  0  0  0  0  0
   24.5993  -21.0254  -11.3794 C   0  0  1  0  0  0  0  0  0  0  0  0
   23.9212  -21.1719  -10.0549 C   0  0  0  0  0  0  0  0  0  0  0  0
   25.6856  -19.9816  -11.3887 C   0  0  2  0  0  0  0  0  0  0  0  0
   26.2317  -19.7316  -12.6787 N   0  0  0  0  0  0  0  0  0  0  0  0
   26.7763  -20.3800  -10.4595 C   0  0  0  0  0  0  0  0  0  0  0  0
   28.0238  -20.7037  -10.9569 O   0  0  0  0  0  0  0  0  0  0  0  0
   26.5236  -20.4094   -9.2378 O   0  0  0  0  0  0  0  0  0  0  0  0
  2  1  1  6
  2  3  1  0
  4  6  1  0
  4  2  1  0
  4  5  1  6
  6  7  2  0
  9  8  1  1
  9 10  1  0
 11  9  1  0
 12 11  1  1
 13 12  1  0
 13  6  1  0
 14 20  1  0
 14 12  1  0
 15 14  2  0
 17 16  1  1
 18 17  1  0
 19 17  1  0
 19 20  1  6
 21 19  1  0
 21 22  1  0
 23 21  2  0
M  END
$$$$
