TLV.pdb
     RDKit          3D

 23 22  0  0  1  0  0  0  0  0999 V2000
   15.9271  -11.5819  -16.7459 C   0  0  0  0  0  0  0  0  0  0  0  0
   16.9875  -11.9057  -17.7486 C   0  0  1  0  0  0  0  0  0  0  0  0
   17.3144  -10.8168  -18.5450 O   0  0  0  0  0  0  0  0  0  0  0  0
   18.1921  -12.4593  -17.0172 C   0  0  2  0  0  0  0  0  0  0  0  0
   17.8635  -13.5758  -16.1821 N   0  0  0  0  0  0  0  0  0  0  0  0
   18.8678  -11.4163  -16.2154 C   0  0  0  0  0  0  0  0  0  0  0  0
   18.4175  -11.1037  -15.0887 O   0  0  0  0  0  0  0  0  0  0  0  0
   21.9829  -11.5135  -14.1665 C   0  0  0  0  0  0  0  0  0  0  0  0
   22.6603  -10.2160  -14.5960 C   0  0  1  0  0  0  0  0  0  0  0  0
   24.1459  -10.4584  -14.5438 C   0  0  0  0  0  0  0  0  0  0  0  0
   22.1651   -9.8886  -15.9697 C   0  0  0  0  0  0  0  0  0  0  0  0
   20.6683   -9.7226  -15.9981 C   0  0  2  0  0  0  0  0  0  0  0  0
   20.0140  -10.7806  -16.7240 N   0  0  0  0  0  0  0  0  0  0  0  0
   20.2351   -8.4317  -16.5359 C   0  0  0  0  0  0  0  0  0  0  0  0
   19.6838   -8.4098  -17.6647 O   0  0  0  0  0  0  0  0  0  0  0  0
   17.9485   -7.0614  -17.5347 C   0  0  0  0  0  0  0  0  0  0  0  0
   18.4296   -5.9919  -16.6064 C   0  0  1  0  0  0  0  0  0  0  0  0
   17.6671   -6.0494  -15.3215 C   0  0  0  0  0  0  0  0  0  0  0  0
   19.9248   -6.0040  -16.4214 C   0  0  2  0  0  0  0  0  0  0  0  0
   20.4196   -7.1934  -15.8169 N   0  0  0  0  0  0  0  0  0  0  0  0
   20.3428   -4.8282  -15.6125 C   0  0  0  0  0  0  0  0  0  0  0  0
   20.8360   -5.0087  -14.3347 O   0  0  0  0  0  0  0  0  0  0  0  0
   20.2320   -3.6956  -16.1245 O   0  0  0  0  0  0  0  0  0  0  0  0
  2  1  1  1
  2  3  1  0
  4  6  1  0
  4  2  1  0
  4  5  1  1
  6  7  2  0
  9  8  1  6
  9 10  1  0
 11  9  1  0
 12 11  1  6
 13 12  1  0
 13  6  1  0
 14 20  1  0
 14 12  1  0
 15 14  2  0
 17 16  1  6
 18 17  1  0
 19 17  1  0
 19 20  1  1
 21 19  1  0
 21 22  1  0
 23 21  2  0
M  END
$$$$
