EFT.pdb
     RDKit          3D

 28 28  0  0  1  0  0  0  0  0999 V2000
   27.3231  -22.1967  -16.4024 N   0  0  0  0  0  0  0  0  0  0  0  0
   26.5812  -21.1105  -15.8543 C   0  0  1  0  0  0  0  0  0  0  0  0
   25.3262  -20.8844  -16.6538 C   0  0  0  0  0  0  0  0  0  0  0  0
   25.7769  -20.2253  -17.9668 C   0  0  0  0  0  0  0  0  0  0  0  0
   26.3694  -18.9114  -17.7309 C   0  0  0  0  0  0  0  0  0  0  0  0
   27.6275  -18.7899  -17.9047 O   0  0  0  0  0  0  0  0  0  0  0  0
   26.2794  -21.4182  -14.4244 C   0  0  0  0  0  0  0  0  0  0  0  0
   25.6484  -22.4710  -14.1205 O   0  0  0  0  0  0  0  0  0  0  0  0
   25.5637  -17.8522  -17.3304 O   0  0  0  0  0  0  0  0  0  0  0  0
   26.6635  -20.5865  -13.3566 N   0  0  0  0  0  0  0  0  0  0  0  0
   26.3433  -20.8850  -11.9373 C   0  0  1  0  0  0  0  0  0  0  0  0
   27.3049  -20.1057  -11.1203 C   0  0  0  0  0  0  0  0  0  0  0  0
   27.2284  -20.1772   -9.6779 C   0  0  0  0  0  0  0  0  0  0  0  0
   26.7406  -19.0466   -9.0041 C   0  0  0  0  0  0  0  0  0  0  0  0
   26.5881  -18.9861   -7.6538 C   0  0  0  0  0  0  0  0  0  0  0  0
   26.9221  -20.0755   -6.8893 C   0  0  0  0  0  0  0  0  0  0  0  0
   27.4003  -21.1943   -7.5073 C   0  0  0  0  0  0  0  0  0  0  0  0
   27.5493  -21.2391   -8.8864 C   0  0  0  0  0  0  0  0  0  0  0  0
   24.9497  -20.4515  -11.7427 C   0  0  0  0  0  0  0  0  0  0  0  0
   24.6175  -19.2777  -12.1427 O   0  0  0  0  0  0  0  0  0  0  0  0
   22.3136  -20.5630  -13.4922 C   0  0  0  0  0  0  0  0  0  0  0  0
   21.7025  -20.9908  -12.1873 C   0  0  1  0  0  0  0  0  0  0  0  0
   21.5857  -22.3820  -12.1918 O   0  0  0  0  0  0  0  0  0  0  0  0
   22.6012  -20.6351  -11.0034 C   0  0  2  0  0  0  0  0  0  0  0  0
   23.9064  -21.2131  -11.1526 N   0  0  0  0  0  0  0  0  0  0  0  0
   21.9656  -20.9520   -9.7319 C   0  0  0  0  0  0  0  0  0  0  0  0
   20.8182  -20.4748   -9.4334 O   0  0  0  0  0  0  0  0  0  0  0  0
   22.5853  -21.7756   -8.8146 O   0  0  0  0  0  0  0  0  0  0  0  0
  2  1  1  6
  2  3  1  0
  2  7  1  0
  4  5  1  0
  4  3  1  0
  5  6  2  0
  7  8  2  0
  9  5  1  0
 10  7  1  0
 10 11  1  0
 11 12  1  1
 12 13  1  0
 13 14  2  0
 14 15  1  0
 16 15  2  0
 17 16  1  0
 18 13  1  0
 18 17  2  0
 19 11  1  0
 19 20  2  0
 22 21  1  6
 22 24  1  0
 23 22  1  0
 24 25  1  6
 24 26  1  0
 25 19  1  0
 26 28  1  0
 27 26  2  0
M  END
$$$$
