EFT.pdb
     RDKit          3D

 28 28  0  0  1  0  0  0  0  0999 V2000
   28.9771  -21.1292  -14.4847 N   0  0  0  0  0  0  0  0  0  0  0  0
   28.0315  -20.1598  -14.0409 C   0  0  1  0  0  0  0  0  0  0  0  0
   27.3442  -19.5279  -15.2214 C   0  0  0  0  0  0  0  0  0  0  0  0
   28.0374  -18.1734  -15.4362 C   0  0  0  0  0  0  0  0  0  0  0  0
   28.2617  -17.9052  -16.8542 C   0  0  0  0  0  0  0  0  0  0  0  0
   27.2901  -17.4231  -17.5261 O   0  0  0  0  0  0  0  0  0  0  0  0
   27.0592  -20.8316  -13.1278 C   0  0  0  0  0  0  0  0  0  0  0  0
   26.7246  -22.0342  -13.3298 O   0  0  0  0  0  0  0  0  0  0  0  0
   29.5008  -18.1782  -17.4213 O   0  0  0  0  0  0  0  0  0  0  0  0
   26.4708  -20.1941  -12.0203 N   0  0  0  0  0  0  0  0  0  0  0  0
   25.4579  -20.8450  -11.1505 C   0  0  1  0  0  0  0  0  0  0  0  0
   25.5210  -20.1474   -9.8433 C   0  0  0  0  0  0  0  0  0  0  0  0
   26.6545  -20.3744   -8.9744 C   0  0  0  0  0  0  0  0  0  0  0  0
   26.7018  -19.6439   -7.7768 C   0  0  0  0  0  0  0  0  0  0  0  0
   27.6927  -19.7786   -6.8547 C   0  0  0  0  0  0  0  0  0  0  0  0
   28.7102  -20.6698   -7.0856 C   0  0  0  0  0  0  0  0  0  0  0  0
   28.7002  -21.3991   -8.2390 C   0  0  0  0  0  0  0  0  0  0  0  0
   27.6811  -21.2492   -9.1691 C   0  0  0  0  0  0  0  0  0  0  0  0
   24.1666  -20.6583  -11.8329 C   0  0  0  0  0  0  0  0  0  0  0  0
   23.7374  -19.4604  -12.0031 O   0  0  0  0  0  0  0  0  0  0  0  0
   23.1555  -22.1127  -15.2401 C   0  0  0  0  0  0  0  0  0  0  0  0
   21.9823  -22.2327  -14.3082 C   0  0  1  0  0  0  0  0  0  0  0  0
   21.9276  -23.5457  -13.8370 O   0  0  0  0  0  0  0  0  0  0  0  0
   22.1472  -21.3379  -13.0802 C   0  0  2  0  0  0  0  0  0  0  0  0
   23.3279  -21.6852  -12.3419 N   0  0  0  0  0  0  0  0  0  0  0  0
   20.9386  -21.3120  -12.2679 C   0  0  0  0  0  0  0  0  0  0  0  0
   19.8333  -20.8853  -12.7470 O   0  0  0  0  0  0  0  0  0  0  0  0
   20.9543  -21.7471  -10.9586 O   0  0  0  0  0  0  0  0  0  0  0  0
  2  1  1  6
  2  3  1  0
  2  7  1  0
  4  5  1  0
  4  3  1  0
  5  6  2  0
  7  8  2  0
  9  5  1  0
 10  7  1  0
 10 11  1  0
 11 12  1  1
 12 13  1  0
 13 14  2  0
 14 15  1  0
 16 15  2  0
 17 16  1  0
 18 13  1  0
 18 17  2  0
 19 11  1  0
 19 20  2  0
 22 21  1  6
 22 24  1  0
 23 22  1  0
 24 25  1  1
 24 26  1  0
 25 19  1  0
 26 28  1  0
 27 26  2  0
M  END
$$$$
