EFT.pdb
     RDKit          3D

 28 28  0  0  1  0  0  0  0  0999 V2000
   39.0956   -5.6734   -8.7230 N   0  0  0  0  0  0  0  0  0  0  0  0
   39.7131   -5.3616   -7.4770 C   0  0  1  0  0  0  0  0  0  0  0  0
   41.0978   -4.8182   -7.7065 C   0  0  0  0  0  0  0  0  0  0  0  0
   41.9324   -5.9995   -8.2257 C   0  0  0  0  0  0  0  0  0  0  0  0
   43.3276   -5.6200   -8.4321 C   0  0  0  0  0  0  0  0  0  0  0  0
   43.6559   -4.4131   -8.1806 O   0  0  0  0  0  0  0  0  0  0  0  0
   38.8473   -4.3842   -6.7521 C   0  0  0  0  0  0  0  0  0  0  0  0
   38.0808   -3.6133   -7.3981 O   0  0  0  0  0  0  0  0  0  0  0  0
   44.2398   -6.5638   -8.8887 O   0  0  0  0  0  0  0  0  0  0  0  0
   38.8271   -4.2596   -5.3509 N   0  0  0  0  0  0  0  0  0  0  0  0
   37.9855   -3.2671   -4.6347 C   0  0  1  0  0  0  0  0  0  0  0  0
   37.2481   -4.0211   -3.5921 C   0  0  0  0  0  0  0  0  0  0  0  0
   36.4676   -3.2964   -2.6138 C   0  0  0  0  0  0  0  0  0  0  0  0
   35.7452   -4.0548   -1.6794 C   0  0  0  0  0  0  0  0  0  0  0  0
   34.9938   -3.5051   -0.6876 C   0  0  0  0  0  0  0  0  0  0  0  0
   34.9235   -2.1394   -0.5748 C   0  0  0  0  0  0  0  0  0  0  0  0
   35.6118   -1.3670   -1.4647 C   0  0  0  0  0  0  0  0  0  0  0  0
   36.3739   -1.9445   -2.4706 C   0  0  0  0  0  0  0  0  0  0  0  0
   38.9231   -2.2831   -4.0687 C   0  0  0  0  0  0  0  0  0  0  0  0
   39.8850   -2.7131   -3.3351 O   0  0  0  0  0  0  0  0  0  0  0  0
   41.6756   -0.3304   -5.1839 C   0  0  0  0  0  0  0  0  0  0  0  0
   40.7693    0.6575   -4.5042 C   0  0  1  0  0  0  0  0  0  0  0  0
   39.9851    1.2773   -5.4787 O   0  0  0  0  0  0  0  0  0  0  0  0
   39.8019   -0.0359   -3.5456 C   0  0  2  0  0  0  0  0  0  0  0  0
   38.8815   -0.8762   -4.2574 N   0  0  0  0  0  0  0  0  0  0  0  0
   39.1525    0.9165   -2.6553 C   0  0  0  0  0  0  0  0  0  0  0  0
   37.8826    1.0605   -2.6601 O   0  0  0  0  0  0  0  0  0  0  0  0
   39.8909    1.6895   -1.7830 O   0  0  0  0  0  0  0  0  0  0  0  0
  2  1  1  6
  2  3  1  0
  2  7  1  0
  4  5  1  0
  4  3  1  0
  5  6  2  0
  7  8  2  0
  9  5  1  0
 10  7  1  0
 10 11  1  0
 11 12  1  1
 12 13  1  0
 13 14  2  0
 14 15  1  0
 16 15  2  0
 17 16  1  0
 18 13  1  0
 18 17  2  0
 19 11  1  0
 19 20  2  0
 22 21  1  6
 22 24  1  0
 23 22  1  0
 24 25  1  6
 24 26  1  0
 25 19  1  0
 26 28  1  0
 27 26  2  0
M  END
$$$$
