EFT.pdb
     RDKit          3D

 28 28  0  0  1  0  0  0  0  0999 V2000
   16.7356  -23.6238   -8.5185 N   0  0  0  0  0  0  0  0  0  0  0  0
   17.6417  -23.9500   -9.5689 C   0  0  1  0  0  0  0  0  0  0  0  0
   16.8825  -24.2558  -10.8319 C   0  0  0  0  0  0  0  0  0  0  0  0
   16.3019  -25.6659  -10.6427 C   0  0  0  0  0  0  0  0  0  0  0  0
   15.5267  -26.0869  -11.8067 C   0  0  0  0  0  0  0  0  0  0  0  0
   14.3309  -25.6540  -11.9092 O   0  0  0  0  0  0  0  0  0  0  0  0
   18.5843  -22.8061   -9.7521 C   0  0  0  0  0  0  0  0  0  0  0  0
   18.1666  -21.6167   -9.6536 O   0  0  0  0  0  0  0  0  0  0  0  0
   16.1002  -26.9309  -12.7502 O   0  0  0  0  0  0  0  0  0  0  0  0
   19.9524  -22.9693  -10.0366 N   0  0  0  0  0  0  0  0  0  0  0  0
   20.9000  -21.8316  -10.1543 C   0  0  1  0  0  0  0  0  0  0  0  0
   22.1981  -22.3138   -9.6236 C   0  0  0  0  0  0  0  0  0  0  0  0
   23.3754  -21.4878   -9.7759 C   0  0  0  0  0  0  0  0  0  0  0  0
   24.3998  -21.9762  -10.6019 C   0  0  0  0  0  0  0  0  0  0  0  0
   25.5476  -21.2924  -10.8573 C   0  0  0  0  0  0  0  0  0  0  0  0
   25.7362  -20.0580  -10.2886 C   0  0  0  0  0  0  0  0  0  0  0  0
   24.7631  -19.5483   -9.4789 C   0  0  0  0  0  0  0  0  0  0  0  0
   23.5978  -20.2595   -9.2292 C   0  0  0  0  0  0  0  0  0  0  0  0
   20.9577  -21.5069  -11.5893 C   0  0  0  0  0  0  0  0  0  0  0  0
   20.9302  -22.4747  -12.4324 O   0  0  0  0  0  0  0  0  0  0  0  0
   20.4231  -17.6347  -13.5085 C   0  0  0  0  0  0  0  0  0  0  0  0
   20.0796  -18.9938  -14.0507 C   0  0  1  0  0  0  0  0  0  0  0  0
   20.1756  -18.9488  -15.4428 O   0  0  0  0  0  0  0  0  0  0  0  0
   21.0760  -20.0534  -13.5815 C   0  0  2  0  0  0  0  0  0  0  0  0
   21.0349  -20.2066  -12.1551 N   0  0  0  0  0  0  0  0  0  0  0  0
   22.4128  -19.8021  -14.1022 C   0  0  0  0  0  0  0  0  0  0  0  0
   22.6783  -19.9705  -15.3409 O   0  0  0  0  0  0  0  0  0  0  0  0
   23.4290  -19.3759  -13.2719 O   0  0  0  0  0  0  0  0  0  0  0  0
  2  1  1  1
  2  3  1  0
  2  7  1  0
  4  5  1  0
  4  3  1  0
  5  6  2  0
  7  8  2  0
  9  5  1  0
 10  7  1  0
 10 11  1  0
 11 12  1  6
 12 13  1  0
 13 14  2  0
 14 15  1  0
 16 15  2  0
 17 16  1  0
 18 13  1  0
 18 17  2  0
 19 11  1  0
 19 20  2  0
 22 21  1  1
 22 24  1  0
 23 22  1  0
 24 25  1  1
 24 26  1  0
 25 19  1  0
 26 28  1  0
 27 26  2  0
M  END
$$$$
