EFT.pdb
     RDKit          3D

 28 28  0  0  1  0  0  0  0  0999 V2000
   20.0562   -9.7466  -18.3208 N   0  0  0  0  0  0  0  0  0  0  0  0
   20.7928   -8.5350  -18.4629 C   0  0  1  0  0  0  0  0  0  0  0  0
   20.3712   -7.8161  -19.7162 C   0  0  0  0  0  0  0  0  0  0  0  0
   19.2680   -8.6807  -20.3461 C   0  0  0  0  0  0  0  0  0  0  0  0
   18.6046   -7.9853  -21.4459 C   0  0  0  0  0  0  0  0  0  0  0  0
   19.1111   -8.1022  -22.6110 O   0  0  0  0  0  0  0  0  0  0  0  0
   20.5703   -7.7009  -17.2442 C   0  0  0  0  0  0  0  0  0  0  0  0
   19.7041   -8.0438  -16.3892 O   0  0  0  0  0  0  0  0  0  0  0  0
   17.4647   -7.2299  -21.1979 O   0  0  0  0  0  0  0  0  0  0  0  0
   21.2845   -6.5192  -16.9748 N   0  0  0  0  0  0  0  0  0  0  0  0
   21.2128   -5.8039  -15.6750 C   0  0  1  0  0  0  0  0  0  0  0  0
   22.5471   -5.9503  -15.0446 C   0  0  0  0  0  0  0  0  0  0  0  0
   22.9747   -7.2543  -14.5883 C   0  0  0  0  0  0  0  0  0  0  0  0
   22.4084   -7.7352  -13.3974 C   0  0  0  0  0  0  0  0  0  0  0  0
   22.6968   -8.9549  -12.8688 C   0  0  0  0  0  0  0  0  0  0  0  0
   23.5851   -9.7760  -13.5165 C   0  0  0  0  0  0  0  0  0  0  0  0
   24.1575   -9.3444  -14.6777 C   0  0  0  0  0  0  0  0  0  0  0  0
   23.8516   -8.0969  -15.2032 C   0  0  0  0  0  0  0  0  0  0  0  0
   20.8906   -4.4058  -16.0060 C   0  0  0  0  0  0  0  0  0  0  0  0
   21.7736   -3.7095  -16.6255 O   0  0  0  0  0  0  0  0  0  0  0  0
   18.1046   -2.9644  -18.1962 C   0  0  0  0  0  0  0  0  0  0  0  0
   18.1270   -2.2410  -16.8788 C   0  0  1  0  0  0  0  0  0  0  0  0
   17.1810   -2.8300  -16.0378 O   0  0  0  0  0  0  0  0  0  0  0  0
   19.4787   -2.3880  -16.1809 C   0  0  2  0  0  0  0  0  0  0  0  0
   19.6762   -3.7304  -15.7131 N   0  0  0  0  0  0  0  0  0  0  0  0
   19.6627   -1.3780  -15.1478 C   0  0  0  0  0  0  0  0  0  0  0  0
   19.6694   -0.1336  -15.4386 O   0  0  0  0  0  0  0  0  0  0  0  0
   19.8355   -1.7376  -13.8269 O   0  0  0  0  0  0  0  0  0  0  0  0
  2  1  1  1
  2  3  1  0
  2  7  1  0
  4  5  1  0
  4  3  1  0
  5  6  2  0
  7  8  2  0
  9  5  1  0
 10  7  1  0
 10 11  1  0
 11 12  1  6
 12 13  1  0
 13 14  2  0
 14 15  1  0
 16 15  2  0
 17 16  1  0
 18 13  1  0
 18 17  2  0
 19 11  1  0
 19 20  2  0
 22 21  1  6
 22 24  1  0
 23 22  1  0
 24 25  1  1
 24 26  1  0
 25 19  1  0
 26 28  1  0
 27 26  2  0
M  END
$$$$
