EFT.pdb
     RDKit          3D

 28 28  0  0  1  0  0  0  0  0999 V2000
   19.8854  -15.4086  -18.3389 N   0  0  0  0  0  0  0  0  0  0  0  0
   20.0402  -14.0417  -18.7110 C   0  0  1  0  0  0  0  0  0  0  0  0
   18.7030  -13.3510  -18.7149 C   0  0  0  0  0  0  0  0  0  0  0  0
   18.1789  -13.4573  -20.1556 C   0  0  0  0  0  0  0  0  0  0  0  0
   17.3112  -12.3325  -20.4945 C   0  0  0  0  0  0  0  0  0  0  0  0
   17.8002  -11.4068  -21.2237 O   0  0  0  0  0  0  0  0  0  0  0  0
   20.9937  -13.3979  -17.7587 C   0  0  0  0  0  0  0  0  0  0  0  0
   21.0497  -13.7854  -16.5564 O   0  0  0  0  0  0  0  0  0  0  0  0
   16.0046  -12.3011  -20.0219 O   0  0  0  0  0  0  0  0  0  0  0  0
   21.8632  -12.3535  -18.1226 N   0  0  0  0  0  0  0  0  0  0  0  0
   22.7637  -11.6715  -17.1580 C   0  0  1  0  0  0  0  0  0  0  0  0
   24.1482  -11.9713  -17.5970 C   0  0  0  0  0  0  0  0  0  0  0  0
   25.2593  -11.3713  -16.8920 C   0  0  0  0  0  0  0  0  0  0  0  0
   25.8748  -10.2608  -17.4903 C   0  0  0  0  0  0  0  0  0  0  0  0
   26.9095   -9.5821  -16.9255 C   0  0  0  0  0  0  0  0  0  0  0  0
   27.3939   -9.9859  -15.7069 C   0  0  0  0  0  0  0  0  0  0  0  0
   26.8220  -11.0620  -15.0927 C   0  0  0  0  0  0  0  0  0  0  0  0
   25.7667  -11.7430  -15.6831 C   0  0  0  0  0  0  0  0  0  0  0  0
   22.4357  -10.2391  -17.2498 C   0  0  0  0  0  0  0  0  0  0  0  0
   22.4462   -9.6868  -18.4087 O   0  0  0  0  0  0  0  0  0  0  0  0
   19.3856   -8.2799  -16.7747 C   0  0  0  0  0  0  0  0  0  0  0  0
   20.4455   -7.5895  -15.9628 C   0  0  1  0  0  0  0  0  0  0  0  0
   20.3230   -8.0051  -14.6357 O   0  0  0  0  0  0  0  0  0  0  0  0
   21.8491   -7.9908  -16.4149 C   0  0  2  0  0  0  0  0  0  0  0  0
   22.0934   -9.3836  -16.1692 N   0  0  0  0  0  0  0  0  0  0  0  0
   22.8663   -7.1129  -15.8531 C   0  0  0  0  0  0  0  0  0  0  0  0
   23.7837   -7.5726  -15.0913 O   0  0  0  0  0  0  0  0  0  0  0  0
   22.8666   -5.7606  -16.1275 O   0  0  0  0  0  0  0  0  0  0  0  0
  2  1  1  1
  2  3  1  0
  2  7  1  0
  4  5  1  0
  4  3  1  0
  5  6  2  0
  7  8  2  0
  9  5  1  0
 10  7  1  0
 10 11  1  0
 11 12  1  6
 12 13  1  0
 13 14  2  0
 14 15  1  0
 16 15  2  0
 17 16  1  0
 18 13  1  0
 18 17  2  0
 19 11  1  0
 19 20  2  0
 22 21  1  6
 22 24  1  0
 23 22  1  0
 24 25  1  1
 24 26  1  0
 25 19  1  0
 26 28  1  0
 27 26  2  0
M  END
$$$$
