EFT.pdb
     RDKit          3D

 28 28  0  0  1  0  0  0  0  0999 V2000
   27.9313  -22.2236  -13.7495 N   0  0  0  0  0  0  0  0  0  0  0  0
   27.5740  -20.9353  -13.2563 C   0  0  1  0  0  0  0  0  0  0  0  0
   26.5720  -20.2885  -14.1745 C   0  0  0  0  0  0  0  0  0  0  0  0
   27.3869  -19.4001  -15.1274 C   0  0  0  0  0  0  0  0  0  0  0  0
   26.5319  -18.7517  -16.1182 C   0  0  0  0  0  0  0  0  0  0  0  0
   25.5880  -18.0083  -15.6892 O   0  0  0  0  0  0  0  0  0  0  0  0
   27.0367  -21.0916  -11.8717 C   0  0  0  0  0  0  0  0  0  0  0  0
   26.3463  -22.1069  -11.5690 O   0  0  0  0  0  0  0  0  0  0  0  0
   26.7641  -18.9593  -17.4726 O   0  0  0  0  0  0  0  0  0  0  0  0
   27.2547  -20.1528  -10.8469 N   0  0  0  0  0  0  0  0  0  0  0  0
   26.6711  -20.2827   -9.4872 C   0  0  1  0  0  0  0  0  0  0  0  0
   27.4322  -19.3541   -8.6166 C   0  0  0  0  0  0  0  0  0  0  0  0
   27.3970  -19.5398   -7.1828 C   0  0  0  0  0  0  0  0  0  0  0  0
   26.7084  -20.6625   -6.6976 C   0  0  0  0  0  0  0  0  0  0  0  0
   26.6201  -20.9752   -5.3767 C   0  0  0  0  0  0  0  0  0  0  0  0
   27.2285  -20.1651   -4.4512 C   0  0  0  0  0  0  0  0  0  0  0  0
   27.9079  -19.0632   -4.8833 C   0  0  0  0  0  0  0  0  0  0  0  0
   27.9882  -18.7592   -6.2351 C   0  0  0  0  0  0  0  0  0  0  0  0
   25.2550  -19.9030   -9.6226 C   0  0  0  0  0  0  0  0  0  0  0  0
   24.9754  -18.8094  -10.2341 O   0  0  0  0  0  0  0  0  0  0  0  0
   23.0398  -22.0056  -11.5344 C   0  0  0  0  0  0  0  0  0  0  0  0
   22.7726  -20.5716  -11.1717 C   0  0  1  0  0  0  0  0  0  0  0  0
   21.4732  -20.2523  -11.5699 O   0  0  0  0  0  0  0  0  0  0  0  0
   22.8281  -20.3555   -9.6598 C   0  0  2  0  0  0  0  0  0  0  0  0
   24.1377  -20.6378   -9.1446 N   0  0  0  0  0  0  0  0  0  0  0  0
   21.7645  -21.0767   -8.9744 C   0  0  0  0  0  0  0  0  0  0  0  0
   22.0299  -21.9115   -8.0438 O   0  0  0  0  0  0  0  0  0  0  0  0
   20.4413  -20.8786   -9.3117 O   0  0  0  0  0  0  0  0  0  0  0  0
  2  1  1  6
  2  3  1  0
  2  7  1  0
  4  5  1  0
  4  3  1  0
  5  6  2  0
  7  8  2  0
  9  5  1  0
 10  7  1  0
 10 11  1  0
 11 12  1  1
 12 13  1  0
 13 14  2  0
 14 15  1  0
 16 15  2  0
 17 16  1  0
 18 13  1  0
 18 17  2  0
 19 11  1  0
 19 20  2  0
 22 21  1  1
 22 24  1  0
 23 22  1  0
 24 25  1  1
 24 26  1  0
 25 19  1  0
 26 28  1  0
 27 26  2  0
M  END
$$$$
