EFT.pdb
     RDKit          3D

 28 28  0  0  1  0  0  0  0  0999 V2000
   20.9719  -20.3137  -11.5030 N   0  0  0  0  0  0  0  0  0  0  0  0
   21.7760  -21.1127  -12.3667 C   0  0  1  0  0  0  0  0  0  0  0  0
   21.1579  -21.1775  -13.7374 C   0  0  0  0  0  0  0  0  0  0  0  0
   20.3973  -22.5117  -13.7930 C   0  0  0  0  0  0  0  0  0  0  0  0
   19.2045  -22.4840  -12.9506 C   0  0  0  0  0  0  0  0  0  0  0  0
   18.2495  -21.7147  -13.3024 O   0  0  0  0  0  0  0  0  0  0  0  0
   23.1506  -20.5298  -12.4057 C   0  0  0  0  0  0  0  0  0  0  0  0
   23.3092  -19.2878  -12.5824 O   0  0  0  0  0  0  0  0  0  0  0  0
   19.1446  -23.2784  -11.8118 O   0  0  0  0  0  0  0  0  0  0  0  0
   24.3203  -21.2966  -12.2537 N   0  0  0  0  0  0  0  0  0  0  0  0
   25.6815  -20.7036  -12.2097 C   0  0  1  0  0  0  0  0  0  0  0  0
   26.3995  -21.3899  -11.1084 C   0  0  0  0  0  0  0  0  0  0  0  0
   26.1367  -20.9991   -9.7410 C   0  0  0  0  0  0  0  0  0  0  0  0
   26.9123  -19.9562   -9.2110 C   0  0  0  0  0  0  0  0  0  0  0  0
   26.7529  -19.4684   -7.9513 C   0  0  0  0  0  0  0  0  0  0  0  0
   25.7893  -20.0086   -7.1374 C   0  0  0  0  0  0  0  0  0  0  0  0
   25.0143  -21.0248   -7.6161 C   0  0  0  0  0  0  0  0  0  0  0  0
   25.1903  -21.5103   -8.9043 C   0  0  0  0  0  0  0  0  0  0  0  0
   26.2763  -20.9710  -13.5298 C   0  0  0  0  0  0  0  0  0  0  0  0
   26.7443  -22.1444  -13.7585 O   0  0  0  0  0  0  0  0  0  0  0  0
   25.1957  -21.9405  -16.6583 C   0  0  0  0  0  0  0  0  0  0  0  0
   26.0102  -20.7070  -16.9311 C   0  0  1  0  0  0  0  0  0  0  0  0
   25.1515  -19.6063  -16.9396 O   0  0  0  0  0  0  0  0  0  0  0  0
   27.0309  -20.4520  -15.8226 C   0  0  2  0  0  0  0  0  0  0  0  0
   26.3839  -20.0506  -14.6059 N   0  0  0  0  0  0  0  0  0  0  0  0
   28.0771  -19.5361  -16.2557 C   0  0  0  0  0  0  0  0  0  0  0  0
   28.2166  -18.3903  -15.7070 O   0  0  0  0  0  0  0  0  0  0  0  0
   28.9459  -19.8804  -17.2709 O   0  0  0  0  0  0  0  0  0  0  0  0
  2  1  1  1
  2  3  1  0
  2  7  1  0
  4  5  1  0
  4  3  1  0
  5  6  2  0
  7  8  2  0
  9  5  1  0
 10  7  1  0
 10 11  1  0
 11 12  1  1
 12 13  1  0
 13 14  2  0
 14 15  1  0
 16 15  2  0
 17 16  1  0
 18 13  1  0
 18 17  2  0
 19 11  1  0
 19 20  2  0
 22 21  1  1
 22 24  1  0
 23 22  1  0
 24 25  1  1
 24 26  1  0
 25 19  1  0
 26 28  1  0
 27 26  2  0
M  END
$$$$
