EFT.pdb
     RDKit          3D

 28 28  0  0  1  0  0  0  0  0999 V2000
   16.6134  -12.5867  -16.0520 N   0  0  0  0  0  0  0  0  0  0  0  0
   16.1600  -11.2461  -15.8845 C   0  0  1  0  0  0  0  0  0  0  0  0
   14.6817  -11.2304  -15.6024 C   0  0  0  0  0  0  0  0  0  0  0  0
   13.9914  -11.2428  -16.9753 C   0  0  0  0  0  0  0  0  0  0  0  0
   13.9457   -9.9070  -17.5641 C   0  0  0  0  0  0  0  0  0  0  0  0
   12.9333   -9.1776  -17.2983 O   0  0  0  0  0  0  0  0  0  0  0  0
   16.9420  -10.6175  -14.7782 C   0  0  0  0  0  0  0  0  0  0  0  0
   17.1860  -11.2695  -13.7226 O   0  0  0  0  0  0  0  0  0  0  0  0
   14.9837   -9.4768  -18.3820 O   0  0  0  0  0  0  0  0  0  0  0  0
   17.4423   -9.3038  -14.8342 N   0  0  0  0  0  0  0  0  0  0  0  0
   18.3417   -8.7313  -13.8001 C   0  0  1  0  0  0  0  0  0  0  0  0
   19.5824   -8.3266  -14.5046 C   0  0  0  0  0  0  0  0  0  0  0  0
   20.5860   -7.5685  -13.7909 C   0  0  0  0  0  0  0  0  0  0  0  0
   20.7292   -6.2140  -14.1301 C   0  0  0  0  0  0  0  0  0  0  0  0
   21.6118   -5.3774  -13.5206 C   0  0  0  0  0  0  0  0  0  0  0  0
   22.4147   -5.8605  -12.5183 C   0  0  0  0  0  0  0  0  0  0  0  0
   22.3056   -7.1726  -12.1594 C   0  0  0  0  0  0  0  0  0  0  0  0
   21.3995   -8.0123  -12.7917 C   0  0  0  0  0  0  0  0  0  0  0  0
   17.6139   -7.5866  -13.2274 C   0  0  0  0  0  0  0  0  0  0  0  0
   16.7927   -6.9504  -13.9817 O   0  0  0  0  0  0  0  0  0  0  0  0
   15.4769   -7.1521   -9.9969 C   0  0  0  0  0  0  0  0  0  0  0  0
   16.4575   -6.0181  -10.1056 C   0  0  1  0  0  0  0  0  0  0  0  0
   17.5371   -6.2883   -9.2627 O   0  0  0  0  0  0  0  0  0  0  0  0
   17.0286   -5.9035  -11.5185 C   0  0  2  0  0  0  0  0  0  0  0  0
   17.7195   -7.1035  -11.8961 N   0  0  0  0  0  0  0  0  0  0  0  0
   17.8272   -4.6963  -11.6791 C   0  0  0  0  0  0  0  0  0  0  0  0
   19.0716   -4.7639  -11.9622 O   0  0  0  0  0  0  0  0  0  0  0  0
   17.2619   -3.4465  -11.5293 O   0  0  0  0  0  0  0  0  0  0  0  0
  2  1  1  1
  2  3  1  0
  2  7  1  0
  4  5  1  0
  4  3  1  0
  5  6  2  0
  7  8  2  0
  9  5  1  0
 10  7  1  0
 10 11  1  0
 11 12  1  6
 12 13  1  0
 13 14  2  0
 14 15  1  0
 16 15  2  0
 17 16  1  0
 18 13  1  0
 18 17  2  0
 19 11  1  0
 19 20  2  0
 22 21  1  6
 22 24  1  0
 23 22  1  0
 24 25  1  1
 24 26  1  0
 25 19  1  0
 26 28  1  0
 27 26  2  0
M  END
$$$$
