EFT.pdb
     RDKit          3D

 28 28  0  0  1  0  0  0  0  0999 V2000
   23.7856  -12.6596  -18.2904 N   0  0  0  0  0  0  0  0  0  0  0  0
   23.1291  -11.4696  -18.7191 C   0  0  1  0  0  0  0  0  0  0  0  0
   21.7161  -11.7784  -19.1354 C   0  0  0  0  0  0  0  0  0  0  0  0
   21.8214  -12.4541  -20.5116 C   0  0  0  0  0  0  0  0  0  0  0  0
   20.5026  -12.7304  -21.0751 C   0  0  0  0  0  0  0  0  0  0  0  0
   20.1966  -12.1576  -22.1732 O   0  0  0  0  0  0  0  0  0  0  0  0
   23.1738  -10.4773  -17.6037 C   0  0  0  0  0  0  0  0  0  0  0  0
   22.9607  -10.8488  -16.4140 O   0  0  0  0  0  0  0  0  0  0  0  0
   19.6347  -13.5904  -20.4127 O   0  0  0  0  0  0  0  0  0  0  0  0
   23.4466   -9.1105  -17.7950 N   0  0  0  0  0  0  0  0  0  0  0  0
   23.5126   -8.1306  -16.6808 C   0  0  1  0  0  0  0  0  0  0  0  0
   24.9166   -7.6561  -16.6258 C   0  0  0  0  0  0  0  0  0  0  0  0
   25.9714   -8.6004  -16.3305 C   0  0  0  0  0  0  0  0  0  0  0  0
   25.8269   -9.3835  -15.1747 C   0  0  0  0  0  0  0  0  0  0  0  0
   26.7263  -10.3298  -14.7926 C   0  0  0  0  0  0  0  0  0  0  0  0
   27.8412  -10.5481  -15.5620 C   0  0  0  0  0  0  0  0  0  0  0  0
   28.0180   -9.8065  -16.6939 C   0  0  0  0  0  0  0  0  0  0  0  0
   27.0901   -8.8452  -17.0692 C   0  0  0  0  0  0  0  0  0  0  0  0
   22.5643   -7.0608  -17.0332 C   0  0  0  0  0  0  0  0  0  0  0  0
   22.8822   -6.2555  -17.9811 O   0  0  0  0  0  0  0  0  0  0  0  0
   19.2364   -7.2031  -18.5618 C   0  0  0  0  0  0  0  0  0  0  0  0
   19.1069   -6.2990  -17.3681 C   0  0  1  0  0  0  0  0  0  0  0  0
   18.6039   -7.0474  -16.3023 O   0  0  0  0  0  0  0  0  0  0  0  0
   20.4663   -5.7642  -16.9190 C   0  0  2  0  0  0  0  0  0  0  0  0
   21.3020   -6.8227  -16.4277 N   0  0  0  0  0  0  0  0  0  0  0  0
   20.3258   -4.6530  -15.9881 C   0  0  0  0  0  0  0  0  0  0  0  0
   20.8378   -4.7064  -14.8183 O   0  0  0  0  0  0  0  0  0  0  0  0
   19.6355   -3.5124  -16.3437 O   0  0  0  0  0  0  0  0  0  0  0  0
  2  1  1  1
  2  3  1  0
  2  7  1  0
  4  5  1  0
  4  3  1  0
  5  6  2  0
  7  8  2  0
  9  5  1  0
 10  7  1  0
 10 11  1  0
 11 12  1  6
 12 13  1  0
 13 14  2  0
 14 15  1  0
 16 15  2  0
 17 16  1  0
 18 13  1  0
 18 17  2  0
 19 11  1  0
 19 20  2  0
 22 21  1  6
 22 24  1  0
 23 22  1  0
 24 25  1  1
 24 26  1  0
 25 19  1  0
 26 28  1  0
 27 26  2  0
M  END
$$$$
