CYS.pdb
     RDKit          3D

 25 25  0  0  1  0  0  0  0  0999 V2000
   29.4986  -23.2570  -17.6063 N   0  0  0  0  0  0  0  0  0  0  0  0
   28.9126  -22.0326  -17.1564 C   0  0  1  0  0  0  0  0  0  0  0  0
   28.3251  -21.2487  -18.3211 C   0  0  0  0  0  0  0  0  0  0  0  0
   26.9632  -22.1706  -19.0697 S   0  0  0  0  0  0  0  0  0  0  0  0
   27.8851  -22.2958  -16.1263 C   0  0  0  0  0  0  0  0  0  0  0  0
   27.4727  -23.4838  -16.0044 O   0  0  0  0  0  0  0  0  0  0  0  0
   22.6693  -20.8830   -9.0396 O   0  0  0  0  0  0  0  0  0  0  0  0
   23.6222  -20.7779  -10.0559 C   0  0  0  0  0  0  0  0  0  0  0  0
   23.3303  -20.1475  -11.2502 C   0  0  0  0  0  0  0  0  0  0  0  0
   24.2697  -20.0429  -12.2541 C   0  0  0  0  0  0  0  0  0  0  0  0
   25.5502  -20.5670  -12.1077 C   0  0  0  0  0  0  0  0  0  0  0  0
   26.5467  -20.4617  -13.1894 C   0  0  0  0  0  0  0  0  0  0  0  0
   26.4163  -21.4954  -14.2664 C   0  0  2  0  0  0  0  0  0  0  0  0
   27.4002  -21.2413  -15.3227 N   0  0  0  0  0  0  0  0  0  0  0  0
   25.0808  -21.4323  -14.8779 C   0  0  0  0  0  0  0  0  0  0  0  0
   24.7633  -20.5287  -15.7178 O   0  0  0  0  0  0  0  0  0  0  0  0
   25.8259  -21.1933  -10.9101 C   0  0  0  0  0  0  0  0  0  0  0  0
   24.8876  -21.3016   -9.8985 C   0  0  0  0  0  0  0  0  0  0  0  0
   22.8977  -24.6287  -15.3497 O   0  0  0  0  0  0  0  0  0  0  0  0
   22.4717  -23.5012  -16.0679 C   0  0  0  0  0  0  0  0  0  0  0  0
   22.7724  -22.2832  -15.1953 C   0  0  2  0  0  0  0  0  0  0  0  0
   24.0554  -22.3801  -14.5687 N   0  0  0  0  0  0  0  0  0  0  0  0
   21.6915  -22.0773  -14.1951 C   0  0  0  0  0  0  0  0  0  0  0  0
   20.3813  -21.9224  -14.5863 O   0  0  0  0  0  0  0  0  0  0  0  0
   21.9742  -22.0441  -12.9799 O   0  0  0  0  0  0  0  0  0  0  0  0
  2  3  1  0
  2  1  1  6
  3  4  1  0
  5  2  1  0
  6  5  2  0
  7  8  1  0
  8  9  2  0
  8 18  1  0
  9 10  1  0
 10 11  2  0
 11 12  1  0
 13 12  1  1
 13 14  1  0
 14  5  1  0
 15 13  1  0
 15 22  1  0
 16 15  2  0
 17 11  1  0
 18 17  2  0
 19 20  1  0
 21 20  1  1
 21 22  1  0
 21 23  1  0
 23 24  1  0
 25 23  2  0
M  END
$$$$
