CYS.pdb
     RDKit          3D

 25 25  0  0  1  0  0  0  0  0999 V2000
   27.4833  -19.9039   -9.7270 N   0  0  0  0  0  0  0  0  0  0  0  0
   26.3918  -20.8091   -9.9117 C   0  0  1  0  0  0  0  0  0  0  0  0
   25.4493  -20.7781   -8.7172 C   0  0  0  0  0  0  0  0  0  0  0  0
   26.3717  -21.0511   -7.1876 S   0  0  0  0  0  0  0  0  0  0  0  0
   25.6671  -20.5010  -11.1632 C   0  0  0  0  0  0  0  0  0  0  0  0
   25.2301  -19.3246  -11.3093 O   0  0  0  0  0  0  0  0  0  0  0  0
   28.3879  -17.3967  -17.1326 O   0  0  0  0  0  0  0  0  0  0  0  0
   27.6950  -18.4322  -16.5003 C   0  0  0  0  0  0  0  0  0  0  0  0
   28.3649  -19.4726  -15.8856 C   0  0  0  0  0  0  0  0  0  0  0  0
   27.6824  -20.4951  -15.2611 C   0  0  0  0  0  0  0  0  0  0  0  0
   26.2919  -20.5231  -15.2231 C   0  0  0  0  0  0  0  0  0  0  0  0
   25.5680  -21.6252  -14.5634 C   0  0  0  0  0  0  0  0  0  0  0  0
   24.7487  -21.2173  -13.3769 C   0  0  2  0  0  0  0  0  0  0  0  0
   25.4843  -21.5021  -12.1416 N   0  0  0  0  0  0  0  0  0  0  0  0
   23.4938  -21.9820  -13.3336 C   0  0  0  0  0  0  0  0  0  0  0  0
   23.3037  -22.9235  -12.4968 O   0  0  0  0  0  0  0  0  0  0  0  0
   25.6380  -19.4777  -15.8413 C   0  0  0  0  0  0  0  0  0  0  0  0
   26.3170  -18.4483  -16.4698 C   0  0  0  0  0  0  0  0  0  0  0  0
   19.6077  -20.6241  -12.1861 O   0  0  0  0  0  0  0  0  0  0  0  0
   20.9246  -20.5488  -12.6641 C   0  0  0  0  0  0  0  0  0  0  0  0
   21.0697  -21.6348  -13.7294 C   0  0  2  0  0  0  0  0  0  0  0  0
   22.4089  -21.7176  -14.2272 N   0  0  0  0  0  0  0  0  0  0  0  0
   20.0917  -21.4219  -14.8292 C   0  0  0  0  0  0  0  0  0  0  0  0
   18.8927  -22.0968  -14.8545 O   0  0  0  0  0  0  0  0  0  0  0  0
   20.3599  -20.6184  -15.7458 O   0  0  0  0  0  0  0  0  0  0  0  0
  2  3  1  0
  2  1  1  1
  3  4  1  0
  5  2  1  0
  6  5  2  0
  7  8  1  0
  8  9  2  0
  8 18  1  0
  9 10  1  0
 10 11  2  0
 11 12  1  0
 13 12  1  6
 13 14  1  0
 14  5  1  0
 15 13  1  0
 15 22  1  0
 16 15  2  0
 17 11  1  0
 18 17  2  0
 19 20  1  0
 21 20  1  1
 21 22  1  0
 21 23  1  0
 23 24  1  0
 25 23  2  0
M  END
$$$$
