CYS.pdb
     RDKit          3D

 25 25  0  0  1  0  0  0  0  0999 V2000
   33.7185  -36.2753   -5.6723 N   0  0  0  0  0  0  0  0  0  0  0  0
   33.3522  -36.4178   -4.2972 C   0  0  1  0  0  0  0  0  0  0  0  0
   34.5479  -36.1780   -3.3867 C   0  0  0  0  0  0  0  0  0  0  0  0
   35.8482  -37.3836   -3.7341 S   0  0  0  0  0  0  0  0  0  0  0  0
   32.2399  -35.5045   -3.9583 C   0  0  0  0  0  0  0  0  0  0  0  0
   32.2719  -34.3401   -4.4476 O   0  0  0  0  0  0  0  0  0  0  0  0
   24.1704  -32.3835   -3.0895 O   0  0  0  0  0  0  0  0  0  0  0  0
   25.3558  -33.0934   -3.2969 C   0  0  0  0  0  0  0  0  0  0  0  0
   25.4996  -34.3940   -2.8531 C   0  0  0  0  0  0  0  0  0  0  0  0
   26.6688  -35.0959   -3.0572 C   0  0  0  0  0  0  0  0  0  0  0  0
   27.7523  -34.5256   -3.7178 C   0  0  0  0  0  0  0  0  0  0  0  0
   29.0038  -35.2778   -3.9229 C   0  0  0  0  0  0  0  0  0  0  0  0
   30.0354  -35.0844   -2.8534 C   0  0  2  0  0  0  0  0  0  0  0  0
   31.1940  -35.9425   -3.1174 N   0  0  0  0  0  0  0  0  0  0  0  0
   29.4906  -35.4639   -1.5416 C   0  0  0  0  0  0  0  0  0  0  0  0
   29.3127  -36.6807   -1.2092 O   0  0  0  0  0  0  0  0  0  0  0  0
   27.5931  -33.2269   -4.1543 C   0  0  0  0  0  0  0  0  0  0  0  0
   26.4223  -32.5169   -3.9528 C   0  0  0  0  0  0  0  0  0  0  0  0
   28.2874  -34.3415    2.9753 O   0  0  0  0  0  0  0  0  0  0  0  0
   28.7036  -33.7909    1.7538 C   0  0  0  0  0  0  0  0  0  0  0  0
   28.6251  -34.9100    0.7161 C   0  0  2  0  0  0  0  0  0  0  0  0
   29.1265  -34.4922   -0.5575 N   0  0  0  0  0  0  0  0  0  0  0  0
   27.2354  -35.4288    0.6113 C   0  0  0  0  0  0  0  0  0  0  0  0
   26.8689  -36.6071    1.2202 O   0  0  0  0  0  0  0  0  0  0  0  0
   26.3853  -34.7870   -0.0391 O   0  0  0  0  0  0  0  0  0  0  0  0
  2  3  1  0
  2  1  1  6
  3  4  1  0
  5  2  1  0
  6  5  2  0
  7  8  1  0
  8  9  2  0
  8 18  1  0
  9 10  1  0
 10 11  2  0
 11 12  1  0
 13 12  1  6
 13 14  1  0
 14  5  1  0
 15 13  1  0
 15 22  1  0
 16 15  2  0
 17 11  1  0
 18 17  2  0
 19 20  1  0
 21 20  1  1
 21 22  1  0
 21 23  1  0
 23 24  1  0
 25 23  2  0
M  END
$$$$
