CYS.pdb
     RDKit          3D

 25 25  0  0  1  0  0  0  0  0999 V2000
   28.9612  -22.6239  -17.5509 N   0  0  0  0  0  0  0  0  0  0  0  0
   28.4026  -21.4143  -17.0313 C   0  0  1  0  0  0  0  0  0  0  0  0
   27.8031  -20.5679  -18.1449 C   0  0  0  0  0  0  0  0  0  0  0  0
   29.1059  -19.9725  -19.2463 S   0  0  0  0  0  0  0  0  0  0  0  0
   27.3925  -21.7122  -15.9934 C   0  0  0  0  0  0  0  0  0  0  0  0
   26.6954  -22.7555  -16.1407 O   0  0  0  0  0  0  0  0  0  0  0  0
   22.8816  -21.0264   -8.3159 O   0  0  0  0  0  0  0  0  0  0  0  0
   23.8033  -20.9022   -9.3585 C   0  0  0  0  0  0  0  0  0  0  0  0
   25.1533  -21.1095   -9.1505 C   0  0  0  0  0  0  0  0  0  0  0  0
   26.0642  -20.9874  -10.1785 C   0  0  0  0  0  0  0  0  0  0  0  0
   25.6634  -20.6506  -11.4676 C   0  0  0  0  0  0  0  0  0  0  0  0
   26.6437  -20.5106  -12.5600 C   0  0  0  0  0  0  0  0  0  0  0  0
   26.2229  -21.1186  -13.8634 C   0  0  2  0  0  0  0  0  0  0  0  0
   27.2336  -20.8467  -14.8895 N   0  0  0  0  0  0  0  0  0  0  0  0
   24.9563  -20.5274  -14.3191 C   0  0  0  0  0  0  0  0  0  0  0  0
   24.8740  -19.3147  -14.7002 O   0  0  0  0  0  0  0  0  0  0  0  0
   24.3126  -20.4467  -11.6588 C   0  0  0  0  0  0  0  0  0  0  0  0
   23.3933  -20.5678  -10.6313 C   0  0  0  0  0  0  0  0  0  0  0  0
   22.0745  -22.3302  -16.3019 O   0  0  0  0  0  0  0  0  0  0  0  0
   22.1233  -20.9337  -16.1763 C   0  0  0  0  0  0  0  0  0  0  0  0
   22.5121  -20.6346  -14.7289 C   0  0  2  0  0  0  0  0  0  0  0  0
   23.7382  -21.2756  -14.3630 N   0  0  0  0  0  0  0  0  0  0  0  0
   21.4073  -21.0032  -13.8044 C   0  0  0  0  0  0  0  0  0  0  0  0
   20.1720  -20.4042  -13.8986 O   0  0  0  0  0  0  0  0  0  0  0  0
   21.6006  -21.8699  -12.9273 O   0  0  0  0  0  0  0  0  0  0  0  0
  2  3  1  0
  2  1  1  6
  3  4  1  0
  5  2  1  0
  6  5  2  0
  7  8  1  0
  8  9  2  0
  8 18  1  0
  9 10  1  0
 10 11  2  0
 11 12  1  0
 13 12  1  1
 13 14  1  0
 14  5  1  0
 15 13  1  0
 15 22  1  0
 16 15  2  0
 17 11  1  0
 18 17  2  0
 19 20  1  0
 21 20  1  6
 21 22  1  0
 21 23  1  0
 23 24  1  0
 25 23  2  0
M  END
$$$$
