CYS.pdb
     RDKit          3D

 25 25  0  0  1  0  0  0  0  0999 V2000
   27.6126  -17.6454  -19.2131 N   0  0  0  0  0  0  0  0  0  0  0  0
   26.6495  -18.6828  -19.0096 C   0  0  1  0  0  0  0  0  0  0  0  0
   27.3272  -19.9849  -18.6076 C   0  0  0  0  0  0  0  0  0  0  0  0
   27.7426  -19.9550  -16.8493 S   0  0  0  0  0  0  0  0  0  0  0  0
   25.6511  -18.2740  -17.9985 C   0  0  0  0  0  0  0  0  0  0  0  0
   25.9659  -17.3341  -17.2150 O   0  0  0  0  0  0  0  0  0  0  0  0
   23.1810  -12.5065  -19.5582 O   0  0  0  0  0  0  0  0  0  0  0  0
   22.9511  -13.8139  -19.1223 C   0  0  0  0  0  0  0  0  0  0  0  0
   23.3790  -14.9012  -19.8596 C   0  0  0  0  0  0  0  0  0  0  0  0
   23.1530  -16.1921  -19.4307 C   0  0  0  0  0  0  0  0  0  0  0  0
   22.4853  -16.4547  -18.2386 C   0  0  0  0  0  0  0  0  0  0  0  0
   22.2369  -17.8375  -17.7911 C   0  0  0  0  0  0  0  0  0  0  0  0
   23.3586  -18.4575  -17.0147 C   0  0  2  0  0  0  0  0  0  0  0  0
   24.4008  -18.9261  -17.9326 N   0  0  0  0  0  0  0  0  0  0  0  0
   22.8756  -19.6221  -16.2584 C   0  0  0  0  0  0  0  0  0  0  0  0
   22.8269  -20.7879  -16.7694 O   0  0  0  0  0  0  0  0  0  0  0  0
   22.0643  -15.3588  -17.5144 C   0  0  0  0  0  0  0  0  0  0  0  0
   22.2881  -14.0608  -17.9393 C   0  0  0  0  0  0  0  0  0  0  0  0
   21.0972  -19.4068  -12.4291 O   0  0  0  0  0  0  0  0  0  0  0  0
   21.9655  -20.4765  -12.6939 C   0  0  0  0  0  0  0  0  0  0  0  0
   21.9644  -20.6807  -14.2084 C   0  0  2  0  0  0  0  0  0  0  0  0
   22.4305  -19.5196  -14.9032 N   0  0  0  0  0  0  0  0  0  0  0  0
   20.6153  -21.0925  -14.6791 C   0  0  0  0  0  0  0  0  0  0  0  0
   20.1268  -22.3530  -14.4214 O   0  0  0  0  0  0  0  0  0  0  0  0
   19.9120  -20.2838  -15.3187 O   0  0  0  0  0  0  0  0  0  0  0  0
  2  3  1  0
  2  1  1  1
  3  4  1  0
  5  2  1  0
  6  5  2  0
  7  8  1  0
  8  9  2  0
  8 18  1  0
  9 10  1  0
 10 11  2  0
 11 12  1  0
 13 12  1  6
 13 14  1  0
 14  5  1  0
 15 13  1  0
 15 22  1  0
 16 15  2  0
 17 11  1  0
 18 17  2  0
 19 20  1  0
 21 20  1  1
 21 22  1  0
 21 23  1  0
 23 24  1  0
 25 23  2  0
M  END
$$$$
