CYS.pdb
     RDKit          3D

 25 25  0  0  1  0  0  0  0  0999 V2000
   27.8705  -21.2662  -16.6900 N   0  0  0  0  0  0  0  0  0  0  0  0
   26.8438  -20.3581  -16.2822 C   0  0  1  0  0  0  0  0  0  0  0  0
   25.8919  -20.0593  -17.4314 C   0  0  0  0  0  0  0  0  0  0  0  0
   26.7139  -19.0341  -18.6718 S   0  0  0  0  0  0  0  0  0  0  0  0
   26.1100  -20.8931  -15.1153 C   0  0  0  0  0  0  0  0  0  0  0  0
   26.0299  -22.1489  -15.0027 O   0  0  0  0  0  0  0  0  0  0  0  0
   30.8500  -21.6550  -10.8583 O   0  0  0  0  0  0  0  0  0  0  0  0
   29.5324  -21.2459  -11.0785 C   0  0  0  0  0  0  0  0  0  0  0  0
   29.2341  -20.2451  -11.9832 C   0  0  0  0  0  0  0  0  0  0  0  0
   27.9341  -19.8404  -12.2018 C   0  0  0  0  0  0  0  0  0  0  0  0
   26.8686  -20.4216  -11.5216 C   0  0  0  0  0  0  0  0  0  0  0  0
   25.4819  -19.9765  -11.7517 C   0  0  0  0  0  0  0  0  0  0  0  0
   24.8426  -20.5272  -12.9900 C   0  0  2  0  0  0  0  0  0  0  0  0
   25.5303  -20.0117  -14.1773 N   0  0  0  0  0  0  0  0  0  0  0  0
   23.4368  -20.1049  -13.0719 C   0  0  0  0  0  0  0  0  0  0  0  0
   23.0995  -18.9570  -13.5090 O   0  0  0  0  0  0  0  0  0  0  0  0
   27.1829  -21.4187  -10.6219 C   0  0  0  0  0  0  0  0  0  0  0  0
   28.4854  -21.8297  -10.3980 C   0  0  0  0  0  0  0  0  0  0  0  0
   19.8873  -20.7971  -15.3259 O   0  0  0  0  0  0  0  0  0  0  0  0
   21.1850  -20.9606  -14.8181 C   0  0  0  0  0  0  0  0  0  0  0  0
   21.0809  -20.8480  -13.2976 C   0  0  2  0  0  0  0  0  0  0  0  0
   22.3607  -20.9553  -12.6663 N   0  0  0  0  0  0  0  0  0  0  0  0
   20.1238  -21.8531  -12.7636 C   0  0  0  0  0  0  0  0  0  0  0  0
   18.7958  -21.5425  -12.5799 O   0  0  0  0  0  0  0  0  0  0  0  0
   20.5288  -22.9982  -12.4763 O   0  0  0  0  0  0  0  0  0  0  0  0
  2  3  1  0
  2  1  1  6
  3  4  1  0
  5  2  1  0
  6  5  2  0
  7  8  1  0
  8  9  2  0
  8 18  1  0
  9 10  1  0
 10 11  2  0
 11 12  1  0
 13 12  1  1
 13 14  1  0
 14  5  1  0
 15 13  1  0
 15 22  1  0
 16 15  2  0
 17 11  1  0
 18 17  2  0
 19 20  1  0
 21 20  1  6
 21 22  1  0
 21 23  1  0
 23 24  1  0
 25 23  2  0
M  END
$$$$
