CYS.pdb
     RDKit          3D

 25 25  0  0  1  0  0  0  0  0999 V2000
   25.1693  -14.9379  -18.2458 N   0  0  0  0  0  0  0  0  0  0  0  0
   24.1141  -13.9857  -18.4034 C   0  0  1  0  0  0  0  0  0  0  0  0
   22.7610  -14.6175  -18.1097 C   0  0  0  0  0  0  0  0  0  0  0  0
   22.2991  -15.7495  -19.4403 S   0  0  0  0  0  0  0  0  0  0  0  0
   24.3441  -12.8073  -17.5404 C   0  0  0  0  0  0  0  0  0  0  0  0
   24.9570  -12.9930  -16.4513 O   0  0  0  0  0  0  0  0  0  0  0  0
   30.4152  -11.6622  -18.1803 O   0  0  0  0  0  0  0  0  0  0  0  0
   29.1283  -11.1240  -18.1020 C   0  0  0  0  0  0  0  0  0  0  0  0
   28.7255  -10.3853  -17.0061 C   0  0  0  0  0  0  0  0  0  0  0  0
   27.4557   -9.8534  -16.9274 C   0  0  0  0  0  0  0  0  0  0  0  0
   26.5269  -10.0374  -17.9468 C   0  0  0  0  0  0  0  0  0  0  0  0
   25.1671   -9.4755  -17.8516 C   0  0  0  0  0  0  0  0  0  0  0  0
   24.1771  -10.3443  -17.1370 C   0  0  2  0  0  0  0  0  0  0  0  0
   23.8857  -11.5340  -17.9421 N   0  0  0  0  0  0  0  0  0  0  0  0
   22.9123   -9.6219  -16.9371 C   0  0  0  0  0  0  0  0  0  0  0  0
   22.0993   -9.4036  -17.8932 O   0  0  0  0  0  0  0  0  0  0  0  0
   26.9442  -10.7772  -19.0337 C   0  0  0  0  0  0  0  0  0  0  0  0
   28.2172  -11.3137  -19.1188 C   0  0  0  0  0  0  0  0  0  0  0  0
   21.5444   -8.2979  -13.1653 O   0  0  0  0  0  0  0  0  0  0  0  0
   20.6430   -8.8242  -14.1029 C   0  0  0  0  0  0  0  0  0  0  0  0
   21.2230   -8.5296  -15.4857 C   0  0  2  0  0  0  0  0  0  0  0  0
   22.5155   -9.1194  -15.6583 N   0  0  0  0  0  0  0  0  0  0  0  0
   21.2545   -7.0644  -15.7377 C   0  0  0  0  0  0  0  0  0  0  0  0
   20.0939   -6.3266  -15.7867 O   0  0  0  0  0  0  0  0  0  0  0  0
   22.3502   -6.4915  -15.9079 O   0  0  0  0  0  0  0  0  0  0  0  0
  2  3  1  0
  2  1  1  1
  3  4  1  0
  5  2  1  0
  6  5  2  0
  7  8  1  0
  8  9  2  0
  8 18  1  0
  9 10  1  0
 10 11  2  0
 11 12  1  0
 13 12  1  6
 13 14  1  0
 14  5  1  0
 15 13  1  0
 15 22  1  0
 16 15  2  0
 17 11  1  0
 18 17  2  0
 19 20  1  0
 21 20  1  1
 21 22  1  0
 21 23  1  0
 23 24  1  0
 25 23  2  0
M  END
$$$$
