CYS.pdb
     RDKit          3D

 25 25  0  0  1  0  0  0  0  0999 V2000
   25.5778  -14.3692  -20.8123 N   0  0  0  0  0  0  0  0  0  0  0  0
   25.8014  -13.2996  -19.8898 C   0  0  1  0  0  0  0  0  0  0  0  0
   26.8682  -12.3461  -20.4083 C   0  0  0  0  0  0  0  0  0  0  0  0
   28.4670  -13.1841  -20.4911 S   0  0  0  0  0  0  0  0  0  0  0  0
   24.5400  -12.5795  -19.6133 C   0  0  0  0  0  0  0  0  0  0  0  0
   23.8159  -12.2712  -20.6017 O   0  0  0  0  0  0  0  0  0  0  0  0
   19.3535  -16.6573  -19.6081 O   0  0  0  0  0  0  0  0  0  0  0  0
   20.0211  -15.5999  -18.9850 C   0  0  0  0  0  0  0  0  0  0  0  0
   19.6152  -14.2913  -19.1631 C   0  0  0  0  0  0  0  0  0  0  0  0
   20.2730  -13.2466  -18.5487 C   0  0  0  0  0  0  0  0  0  0  0  0
   21.3722  -13.4652  -17.7243 C   0  0  0  0  0  0  0  0  0  0  0  0
   22.0782  -12.3429  -17.0792 C   0  0  0  0  0  0  0  0  0  0  0  0
   22.9424  -11.5334  -17.9976 C   0  0  2  0  0  0  0  0  0  0  0  0
   24.1819  -12.2607  -18.2855 N   0  0  0  0  0  0  0  0  0  0  0  0
   23.3113  -10.2595  -17.3632 C   0  0  0  0  0  0  0  0  0  0  0  0
   24.3441  -10.1446  -16.6264 O   0  0  0  0  0  0  0  0  0  0  0  0
   21.7651  -14.7768  -17.5570 C   0  0  0  0  0  0  0  0  0  0  0  0
   21.1092  -15.8298  -18.1706 C   0  0  0  0  0  0  0  0  0  0  0  0
   24.1723   -5.8320  -17.3123 O   0  0  0  0  0  0  0  0  0  0  0  0
   23.7851   -7.0075  -17.9730 C   0  0  0  0  0  0  0  0  0  0  0  0
   22.9806   -7.8327  -16.9695 C   0  0  2  0  0  0  0  0  0  0  0  0
   22.5349   -9.0705  -17.5330 N   0  0  0  0  0  0  0  0  0  0  0  0
   21.8444   -7.0384  -16.4315 C   0  0  0  0  0  0  0  0  0  0  0  0
   22.0208   -6.1674  -15.3807 O   0  0  0  0  0  0  0  0  0  0  0  0
   20.7110   -7.1615  -16.9393 O   0  0  0  0  0  0  0  0  0  0  0  0
  2  3  1  0
  2  1  1  6
  3  4  1  0
  5  2  1  0
  6  5  2  0
  7  8  1  0
  8  9  2  0
  8 18  1  0
  9 10  1  0
 10 11  2  0
 11 12  1  0
 13 12  1  1
 13 14  1  0
 14  5  1  0
 15 13  1  0
 15 22  1  0
 16 15  2  0
 17 11  1  0
 18 17  2  0
 19 20  1  0
 21 20  1  6
 21 22  1  0
 21 23  1  0
 23 24  1  0
 25 23  2  0
M  END
$$$$
