CYS.pdb
     RDKit          3D

 25 25  0  0  1  0  0  0  0  0999 V2000
   28.1056  -18.5535  -19.5196 N   0  0  0  0  0  0  0  0  0  0  0  0
   27.4771  -18.0363  -18.3438 C   0  0  1  0  0  0  0  0  0  0  0  0
   26.7719  -16.7198  -18.6366 C   0  0  0  0  0  0  0  0  0  0  0  0
   27.9624  -15.4893  -19.2141 S   0  0  0  0  0  0  0  0  0  0  0  0
   26.5338  -19.0259  -17.7806 C   0  0  0  0  0  0  0  0  0  0  0  0
   25.9886  -19.8344  -18.5838 O   0  0  0  0  0  0  0  0  0  0  0  0
   30.0151  -24.3512  -17.3013 O   0  0  0  0  0  0  0  0  0  0  0  0
   29.0717  -23.5105  -16.7052 C   0  0  0  0  0  0  0  0  0  0  0  0
   29.3824  -22.2060  -16.3726 C   0  0  0  0  0  0  0  0  0  0  0  0
   28.4523  -21.3751  -15.7845 C   0  0  0  0  0  0  0  0  0  0  0  0
   27.1628  -21.8140  -15.5011 C   0  0  0  0  0  0  0  0  0  0  0  0
   26.1764  -20.9239  -14.8618 C   0  0  0  0  0  0  0  0  0  0  0  0
   25.3958  -20.0666  -15.8111 C   0  0  2  0  0  0  0  0  0  0  0  0
   26.2702  -19.0448  -16.3939 N   0  0  0  0  0  0  0  0  0  0  0  0
   24.3119  -19.3721  -15.1010 C   0  0  0  0  0  0  0  0  0  0  0  0
   24.4120  -18.1553  -14.7375 O   0  0  0  0  0  0  0  0  0  0  0  0
   26.8684  -23.1186  -15.8389 C   0  0  0  0  0  0  0  0  0  0  0  0
   27.7973  -23.9576  -16.4295 C   0  0  0  0  0  0  0  0  0  0  0  0
   21.6305  -17.3755  -16.2438 O   0  0  0  0  0  0  0  0  0  0  0  0
   21.6831  -18.7727  -16.3598 C   0  0  0  0  0  0  0  0  0  0  0  0
   21.8367  -19.3272  -14.9441 C   0  0  2  0  0  0  0  0  0  0  0  0
   23.0785  -20.0179  -14.7740 N   0  0  0  0  0  0  0  0  0  0  0  0
   20.6793  -20.1926  -14.5935 C   0  0  0  0  0  0  0  0  0  0  0  0
   20.6198  -21.5029  -15.0097 O   0  0  0  0  0  0  0  0  0  0  0  0
   19.7449  -19.7256  -13.9106 O   0  0  0  0  0  0  0  0  0  0  0  0
  2  3  1  0
  2  1  1  6
  3  4  1  0
  5  2  1  0
  6  5  2  0
  7  8  1  0
  8  9  2  0
  8 18  1  0
  9 10  1  0
 10 11  2  0
 11 12  1  0
 13 12  1  1
 13 14  1  0
 14  5  1  0
 15 13  1  0
 15 22  1  0
 16 15  2  0
 17 11  1  0
 18 17  2  0
 19 20  1  0
 21 20  1  6
 21 22  1  0
 21 23  1  0
 23 24  1  0
 25 23  2  0
M  END
$$$$
