CYS.pdb
     RDKit          3D

 25 25  0  0  1  0  0  0  0  0999 V2000
   29.8786  -21.2061  -18.6615 N   0  0  0  0  0  0  0  0  0  0  0  0
   28.9862  -20.2446  -18.0920 C   0  0  1  0  0  0  0  0  0  0  0  0
   28.0023  -19.7301  -19.1329 C   0  0  0  0  0  0  0  0  0  0  0  0
   28.8610  -18.7108  -20.3530 S   0  0  0  0  0  0  0  0  0  0  0  0
   28.2732  -20.8204  -16.9317 C   0  0  0  0  0  0  0  0  0  0  0  0
   28.0104  -22.0558  -16.9634 O   0  0  0  0  0  0  0  0  0  0  0  0
   24.4646  -21.1396   -8.8467 O   0  0  0  0  0  0  0  0  0  0  0  0
   25.1749  -20.7703   -9.9918 C   0  0  0  0  0  0  0  0  0  0  0  0
   26.5066  -21.1040  -10.1481 C   0  0  0  0  0  0  0  0  0  0  0  0
   27.2089  -20.7404  -11.2776 C   0  0  0  0  0  0  0  0  0  0  0  0
   26.6077  -20.0230  -12.3070 C   0  0  0  0  0  0  0  0  0  0  0  0
   27.3673  -19.6275  -13.5073 C   0  0  0  0  0  0  0  0  0  0  0  0
   27.2337  -20.5616  -14.6713 C   0  0  2  0  0  0  0  0  0  0  0  0
   27.9114  -19.9984  -15.8426 N   0  0  0  0  0  0  0  0  0  0  0  0
   25.8176  -20.7439  -15.0218 C   0  0  0  0  0  0  0  0  0  0  0  0
   25.1422  -19.8344  -15.6043 O   0  0  0  0  0  0  0  0  0  0  0  0
   25.2783  -19.6974  -12.1357 C   0  0  0  0  0  0  0  0  0  0  0  0
   24.5677  -20.0594  -11.0046 C   0  0  0  0  0  0  0  0  0  0  0  0
   23.8770  -24.3932  -14.6245 O   0  0  0  0  0  0  0  0  0  0  0  0
   23.4358  -23.5080  -15.6196 C   0  0  0  0  0  0  0  0  0  0  0  0
   23.7403  -22.0962  -15.1203 C   0  0  2  0  0  0  0  0  0  0  0  0
   25.1100  -21.9522  -14.7310 N   0  0  0  0  0  0  0  0  0  0  0  0
   22.8176  -21.7223  -14.0156 C   0  0  0  0  0  0  0  0  0  0  0  0
   23.2965  -21.4182  -12.7619 O   0  0  0  0  0  0  0  0  0  0  0  0
   21.5880  -21.6829  -14.2260 O   0  0  0  0  0  0  0  0  0  0  0  0
  2  3  1  0
  2  1  1  6
  3  4  1  0
  5  2  1  0
  6  5  2  0
  7  8  1  0
  8  9  2  0
  8 18  1  0
  9 10  1  0
 10 11  2  0
 11 12  1  0
 13 12  1  1
 13 14  1  0
 14  5  1  0
 15 13  1  0
 15 22  1  0
 16 15  2  0
 17 11  1  0
 18 17  2  0
 19 20  1  0
 21 20  1  1
 21 22  1  0
 21 23  1  0
 23 24  1  0
 25 23  2  0
M  END
$$$$
