CYS.pdb
     RDKit          3D

 25 25  0  0  1  0  0  0  0  0999 V2000
   19.0227   -9.6046  -13.7704 N   0  0  0  0  0  0  0  0  0  0  0  0
   19.1658   -8.6874  -12.6826 C   0  0  1  0  0  0  0  0  0  0  0  0
   20.0654   -7.5216  -13.0668 C   0  0  0  0  0  0  0  0  0  0  0  0
   21.7564   -8.1001  -13.3336 S   0  0  0  0  0  0  0  0  0  0  0  0
   17.8426   -8.2058  -12.2313 C   0  0  0  0  0  0  0  0  0  0  0  0
   16.9667   -7.9929  -13.1166 O   0  0  0  0  0  0  0  0  0  0  0  0
   11.0184   -6.3648   -6.8408 O   0  0  0  0  0  0  0  0  0  0  0  0
   12.2372   -6.7854   -7.3790 C   0  0  0  0  0  0  0  0  0  0  0  0
   13.4302   -6.2058   -6.9919 C   0  0  0  0  0  0  0  0  0  0  0  0
   14.6338   -6.6200   -7.5220 C   0  0  0  0  0  0  0  0  0  0  0  0
   14.6986   -7.6379   -8.4682 C   0  0  0  0  0  0  0  0  0  0  0  0
   15.9879   -8.0685   -9.0395 C   0  0  0  0  0  0  0  0  0  0  0  0
   16.2916   -7.5099  -10.3964 C   0  0  2  0  0  0  0  0  0  0  0  0
   17.5938   -8.0000  -10.8571 N   0  0  0  0  0  0  0  0  0  0  0  0
   16.3626   -6.0424  -10.3419 C   0  0  0  0  0  0  0  0  0  0  0  0
   17.3462   -5.4318   -9.8107 O   0  0  0  0  0  0  0  0  0  0  0  0
   13.4993   -8.2061   -8.8444 C   0  0  0  0  0  0  0  0  0  0  0  0
   12.2879   -7.7951   -8.3160 C   0  0  0  0  0  0  0  0  0  0  0  0
   15.0786   -1.7301  -11.9059 O   0  0  0  0  0  0  0  0  0  0  0  0
   14.8924   -3.1108  -12.0712 C   0  0  0  0  0  0  0  0  0  0  0  0
   15.4535   -3.7843  -10.8194 C   0  0  2  0  0  0  0  0  0  0  0  0
   15.3330   -5.2090  -10.8812 N   0  0  0  0  0  0  0  0  0  0  0  0
   14.8085   -3.2354   -9.5971 C   0  0  0  0  0  0  0  0  0  0  0  0
   15.3828   -2.2012   -8.8939 O   0  0  0  0  0  0  0  0  0  0  0  0
   13.7285   -3.7186   -9.1999 O   0  0  0  0  0  0  0  0  0  0  0  0
  2  3  1  0
  2  1  1  6
  3  4  1  0
  5  2  1  0
  6  5  2  0
  7  8  1  0
  8  9  2  0
  8 18  1  0
  9 10  1  0
 10 11  2  0
 11 12  1  0
 13 12  1  1
 13 14  1  0
 14  5  1  0
 15 13  1  0
 15 22  1  0
 16 15  2  0
 17 11  1  0
 18 17  2  0
 19 20  1  0
 21 20  1  6
 21 22  1  0
 21 23  1  0
 23 24  1  0
 25 23  2  0
M  END
$$$$
