CYS.pdb
     RDKit          3D

 25 25  0  0  1  0  0  0  0  0999 V2000
   21.4755   -9.5916  -15.2366 N   0  0  0  0  0  0  0  0  0  0  0  0
   20.4568   -8.7029  -15.7031 C   0  0  1  0  0  0  0  0  0  0  0  0
   19.1032   -9.0651  -15.1094 C   0  0  0  0  0  0  0  0  0  0  0  0
   18.5114  -10.6223  -15.8095 S   0  0  0  0  0  0  0  0  0  0  0  0
   20.8095   -7.3005  -15.3948 C   0  0  0  0  0  0  0  0  0  0  0  0
   21.4112   -7.0763  -14.3067 O   0  0  0  0  0  0  0  0  0  0  0  0
   26.8733   -6.3842  -17.5523 O   0  0  0  0  0  0  0  0  0  0  0  0
   25.5811   -5.8663  -17.4335 C   0  0  0  0  0  0  0  0  0  0  0  0
   24.5203   -6.4207  -18.1237 C   0  0  0  0  0  0  0  0  0  0  0  0
   23.2444   -5.9108  -18.0073 C   0  0  0  0  0  0  0  0  0  0  0  0
   22.9709   -4.8177  -17.1911 C   0  0  0  0  0  0  0  0  0  0  0  0
   21.6064   -4.2702  -17.0798 C   0  0  0  0  0  0  0  0  0  0  0  0
   20.7761   -4.8701  -15.9861 C   0  0  2  0  0  0  0  0  0  0  0  0
   20.4749   -6.2699  -16.2997 N   0  0  0  0  0  0  0  0  0  0  0  0
   19.4966   -4.1564  -15.8641 C   0  0  0  0  0  0  0  0  0  0  0  0
   18.4519   -4.5284  -16.4908 O   0  0  0  0  0  0  0  0  0  0  0  0
   24.0404   -4.2757  -16.5092 C   0  0  0  0  0  0  0  0  0  0  0  0
   25.3233   -4.7827  -16.6215 C   0  0  0  0  0  0  0  0  0  0  0  0
   15.8756   -2.7926  -13.9711 O   0  0  0  0  0  0  0  0  0  0  0  0
   17.0748   -3.4712  -14.2354 C   0  0  0  0  0  0  0  0  0  0  0  0
   18.0465   -2.4415  -14.8106 C   0  0  2  0  0  0  0  0  0  0  0  0
   19.3445   -3.0008  -15.0353 N   0  0  0  0  0  0  0  0  0  0  0  0
   18.1143   -1.2411  -13.9355 C   0  0  0  0  0  0  0  0  0  0  0  0
   19.2982   -0.8542  -13.3503 O   0  0  0  0  0  0  0  0  0  0  0  0
   17.0821   -0.5715  -13.7264 O   0  0  0  0  0  0  0  0  0  0  0  0
  2  3  1  0
  2  1  1  1
  3  4  1  0
  5  2  1  0
  6  5  2  0
  7  8  1  0
  8  9  2  0
  8 18  1  0
  9 10  1  0
 10 11  2  0
 11 12  1  0
 13 12  1  6
 13 14  1  0
 14  5  1  0
 15 13  1  0
 15 22  1  0
 16 15  2  0
 17 11  1  0
 18 17  2  0
 19 20  1  0
 21 20  1  1
 21 22  1  0
 21 23  1  0
 23 24  1  0
 25 23  2  0
M  END
$$$$
