WDI.pdb
     RDKit          3D

 31 32  0  0  1  0  0  0  0  0999 V2000
    6.7963  -16.9045   23.0393 N   0  0  0  0  0  0  0  0  0  0  0  0
    8.1554  -16.5199   23.3945 C   0  0  1  0  0  0  0  0  0  0  0  0
    8.1706  -16.0697   24.8441 C   0  0  0  0  0  0  0  0  0  0  0  0
    7.1436  -15.0760   25.1408 C   0  0  0  0  0  0  0  0  0  0  0  0
    6.0074  -15.3001   25.8893 C   0  0  0  0  0  0  0  0  0  0  0  0
    5.3107  -14.1593   25.9419 N   0  0  0  0  0  0  0  0  0  0  0  0
    5.9389  -13.1670   25.2524 C   0  0  0  0  0  0  0  0  0  0  0  0
    5.6256  -11.8467   25.0182 C   0  0  0  0  0  0  0  0  0  0  0  0
    6.4880  -11.0760   24.2580 C   0  0  0  0  0  0  0  0  0  0  0  0
    7.6460  -11.6621   23.7552 C   0  0  0  0  0  0  0  0  0  0  0  0
    7.9496  -12.9786   23.9937 C   0  0  0  0  0  0  0  0  0  0  0  0
    7.0952  -13.7651   24.7530 C   0  0  0  0  0  0  0  0  0  0  0  0
    8.9616  -17.7968   23.3552 C   0  0  0  0  0  0  0  0  0  0  0  0
    8.7290  -18.6169   22.4122 O   0  0  0  0  0  0  0  0  0  0  0  0
    9.9543  -18.0824   24.3362 N   0  0  0  0  0  0  0  0  0  0  0  0
   11.3319  -17.7846   24.0291 C   0  0  1  0  0  0  0  0  0  0  0  0
   11.3324  -16.9891   22.7069 C   0  0  0  0  0  0  0  0  0  0  0  0
   12.7544  -16.8240   22.3187 C   0  0  0  0  0  0  0  0  0  0  0  0
   13.4501  -17.8164   21.9453 O   0  0  0  0  0  0  0  0  0  0  0  0
   11.9833  -16.9839   25.0886 C   0  0  0  0  0  0  0  0  0  0  0  0
   13.2355  -16.9960   25.1591 O   0  0  0  0  0  0  0  0  0  0  0  0
   13.3220  -15.5562   22.3722 O   0  0  0  0  0  0  0  0  0  0  0  0
    9.5042  -12.9945   27.9748 C   0  0  0  0  0  0  0  0  0  0  0  0
   10.4762  -13.9883   27.4324 C   0  0  0  0  0  0  0  0  0  0  0  0
   10.4699  -15.3132   28.1588 C   0  0  2  0  0  0  0  0  0  0  0  0
   10.9147  -15.0435   29.5769 C   0  0  0  0  0  0  0  0  0  0  0  0
   11.4808  -16.2270   27.4594 C   0  0  2  0  0  0  0  0  0  0  0  0
   11.2663  -16.2058   26.0241 N   0  0  0  0  0  0  0  0  0  0  0  0
   11.2125  -17.6137   27.9129 C   0  0  0  0  0  0  0  0  0  0  0  0
   12.0729  -18.3073   28.7437 O   0  0  0  0  0  0  0  0  0  0  0  0
   10.1654  -18.1765   27.5264 O   0  0  0  0  0  0  0  0  0  0  0  0
  2  1  1  1
  2  3  1  0
  2 13  1  0
  3  4  1  0
  4  5  2  0
  5  6  1  0
  7  6  1  0
  8  7  2  0
  9  8  1  0
 10 11  1  0
 10  9  2  0
 11 12  2  0
 12  4  1  0
 12  7  1  0
 13 15  1  0
 13 14  2  0
 15 16  1  0
 16 17  1  6
 17 18  1  0
 18 19  2  0
 18 22  1  0
 20 21  2  0
 20 16  1  0
 23 24  1  0
 24 25  1  0
 25 27  1  0
 25 26  1  1
 27 28  1  6
 28 20  1  0
 29 30  1  0
 29 27  1  0
 31 29  2  0
M  END
$$$$
