WDI.pdb
     RDKit          3D

 31 32  0  0  1  0  0  0  0  0999 V2000
    7.2192  -17.0504   23.4625 N   0  0  0  0  0  0  0  0  0  0  0  0
    8.3068  -16.1090   23.6910 C   0  0  1  0  0  0  0  0  0  0  0  0
    8.2458  -15.6354   25.1319 C   0  0  0  0  0  0  0  0  0  0  0  0
    7.0618  -14.8304   25.4153 C   0  0  0  0  0  0  0  0  0  0  0  0
    5.8724  -15.3094   25.9224 C   0  0  0  0  0  0  0  0  0  0  0  0
    5.0268  -14.2802   26.0460 N   0  0  0  0  0  0  0  0  0  0  0  0
    5.6054  -13.1166   25.6386 C   0  0  0  0  0  0  0  0  0  0  0  0
    5.1519  -11.8180   25.5747 C   0  0  0  0  0  0  0  0  0  0  0  0
    6.0002  -10.8324   25.1006 C   0  0  0  0  0  0  0  0  0  0  0  0
    7.2863  -11.1874   24.7043 C   0  0  0  0  0  0  0  0  0  0  0  0
    7.7293  -12.4841   24.7714 C   0  0  0  0  0  0  0  0  0  0  0  0
    6.8910  -13.4841   25.2433 C   0  0  0  0  0  0  0  0  0  0  0  0
    9.5758  -16.9211   23.5817 C   0  0  0  0  0  0  0  0  0  0  0  0
    9.5533  -18.1180   24.0094 O   0  0  0  0  0  0  0  0  0  0  0  0
   10.7644  -16.3748   23.0176 N   0  0  0  0  0  0  0  0  0  0  0  0
   12.0357  -16.9128   23.4359 C   0  0  1  0  0  0  0  0  0  0  0  0
   13.1133  -16.2496   22.5528 C   0  0  0  0  0  0  0  0  0  0  0  0
   12.7872  -16.6122   21.1520 C   0  0  0  0  0  0  0  0  0  0  0  0
   12.9689  -15.7897   20.2040 O   0  0  0  0  0  0  0  0  0  0  0  0
   12.3226  -16.6341   24.8600 C   0  0  0  0  0  0  0  0  0  0  0  0
   13.3784  -16.0203   25.1456 O   0  0  0  0  0  0  0  0  0  0  0  0
   12.2722  -17.8762   20.8883 O   0  0  0  0  0  0  0  0  0  0  0  0
    9.9612  -13.4884   27.9261 C   0  0  0  0  0  0  0  0  0  0  0  0
   10.9329  -14.5042   27.4255 C   0  0  0  0  0  0  0  0  0  0  0  0
   10.6814  -15.9017   27.9421 C   0  0  2  0  0  0  0  0  0  0  0  0
   10.8502  -15.8570   29.4424 C   0  0  0  0  0  0  0  0  0  0  0  0
   11.7412  -16.8190   27.3245 C   0  0  2  0  0  0  0  0  0  0  0  0
   11.4669  -17.0233   25.9140 N   0  0  0  0  0  0  0  0  0  0  0  0
   11.6185  -18.1433   27.9817 C   0  0  0  0  0  0  0  0  0  0  0  0
   12.2350  -18.4408   29.1830 O   0  0  0  0  0  0  0  0  0  0  0  0
   10.9295  -19.0250   27.4246 O   0  0  0  0  0  0  0  0  0  0  0  0
  2  1  1  1
  2  3  1  0
  2 13  1  0
  3  4  1  0
  4  5  2  0
  5  6  1  0
  7  6  1  0
  8  7  2  0
  9  8  1  0
 10 11  1  0
 10  9  2  0
 11 12  2  0
 12  4  1  0
 12  7  1  0
 13 15  1  0
 13 14  2  0
 15 16  1  0
 16 17  1  6
 17 18  1  0
 18 19  2  0
 18 22  1  0
 20 21  2  0
 20 16  1  0
 23 24  1  0
 24 25  1  0
 25 27  1  0
 25 26  1  1
 27 28  1  6
 28 20  1  0
 29 30  1  0
 29 27  1  0
 31 29  2  0
M  END
$$$$
