WDI.pdb
     RDKit          3D

 31 32  0  0  1  0  0  0  0  0999 V2000
    8.3621  -17.7259   21.3030 N   0  0  0  0  0  0  0  0  0  0  0  0
    9.2364  -16.6707   21.7961 C   0  0  1  0  0  0  0  0  0  0  0  0
    8.3828  -15.5917   22.4376 C   0  0  0  0  0  0  0  0  0  0  0  0
    7.7062  -14.7463   21.4590 C   0  0  0  0  0  0  0  0  0  0  0  0
    6.3450  -14.7073   21.2421 C   0  0  0  0  0  0  0  0  0  0  0  0
    6.1024  -13.8180   20.2727 N   0  0  0  0  0  0  0  0  0  0  0  0
    7.2569  -13.2514   19.8245 C   0  0  0  0  0  0  0  0  0  0  0  0
    7.5224  -12.3056   18.8597 C   0  0  0  0  0  0  0  0  0  0  0  0
    8.8345  -11.9291   18.6306 C   0  0  0  0  0  0  0  0  0  0  0  0
    9.8438  -12.5197   19.3854 C   0  0  0  0  0  0  0  0  0  0  0  0
    9.5696  -13.4615   20.3445 C   0  0  0  0  0  0  0  0  0  0  0  0
    8.2597  -13.8507   20.5857 C   0  0  0  0  0  0  0  0  0  0  0  0
   10.0252  -17.2919   22.9247 C   0  0  0  0  0  0  0  0  0  0  0  0
    9.4502  -18.1759   23.6346 O   0  0  0  0  0  0  0  0  0  0  0  0
   11.3709  -16.9090   23.1929 N   0  0  0  0  0  0  0  0  0  0  0  0
   12.0298  -17.4706   24.3467 C   0  0  1  0  0  0  0  0  0  0  0  0
   13.5264  -17.5918   23.9908 C   0  0  0  0  0  0  0  0  0  0  0  0
   13.6561  -18.7950   23.1332 C   0  0  0  0  0  0  0  0  0  0  0  0
   12.8537  -19.7702   23.2484 O   0  0  0  0  0  0  0  0  0  0  0  0
   11.8742  -16.6243   25.5499 C   0  0  0  0  0  0  0  0  0  0  0  0
   12.2220  -15.4213   25.4807 O   0  0  0  0  0  0  0  0  0  0  0  0
   14.6798  -18.8426   22.1938 O   0  0  0  0  0  0  0  0  0  0  0  0
    8.8897  -13.5703   26.6199 C   0  0  0  0  0  0  0  0  0  0  0  0
   10.0494  -14.4967   26.7727 C   0  0  0  0  0  0  0  0  0  0  0  0
    9.8966  -15.4915   27.8998 C   0  0  2  0  0  0  0  0  0  0  0  0
    9.7141  -14.6965   29.1711 C   0  0  0  0  0  0  0  0  0  0  0  0
   11.1918  -16.3057   27.9745 C   0  0  2  0  0  0  0  0  0  0  0  0
   11.3530  -17.1026   26.7722 N   0  0  0  0  0  0  0  0  0  0  0  0
   11.0526  -17.2570   29.1042 C   0  0  0  0  0  0  0  0  0  0  0  0
   11.5924  -17.0161   30.3541 O   0  0  0  0  0  0  0  0  0  0  0  0
   10.4216  -18.3195   28.9162 O   0  0  0  0  0  0  0  0  0  0  0  0
  2  1  1  1
  2  3  1  0
  2 13  1  0
  3  4  1  0
  4  5  2  0
  5  6  1  0
  7  6  1  0
  8  7  2  0
  9  8  1  0
 10 11  1  0
 10  9  2  0
 11 12  2  0
 12  4  1  0
 12  7  1  0
 13 15  1  0
 13 14  2  0
 15 16  1  0
 16 17  1  6
 17 18  1  0
 18 19  2  0
 18 22  1  0
 20 21  2  0
 20 16  1  0
 23 24  1  0
 24 25  1  0
 25 27  1  0
 25 26  1  1
 27 28  1  6
 28 20  1  0
 29 30  1  0
 29 27  1  0
 31 29  2  0
M  END
$$$$
