WDI.pdb
     RDKit          3D

 31 32  0  0  1  0  0  0  0  0999 V2000
    7.9826  -17.8296   21.6878 N   0  0  0  0  0  0  0  0  0  0  0  0
    8.9172  -16.7556   21.9946 C   0  0  1  0  0  0  0  0  0  0  0  0
    8.1452  -15.5962   22.5978 C   0  0  0  0  0  0  0  0  0  0  0  0
    7.3772  -14.8487   21.6070 C   0  0  0  0  0  0  0  0  0  0  0  0
    6.0167  -14.9510   21.4072 C   0  0  0  0  0  0  0  0  0  0  0  0
    5.6762  -14.1166   20.4187 N   0  0  0  0  0  0  0  0  0  0  0  0
    6.7636  -13.4502   19.9409 C   0  0  0  0  0  0  0  0  0  0  0  0
    6.9231  -12.5088   18.9488 C   0  0  0  0  0  0  0  0  0  0  0  0
    8.1886  -12.0100   18.6928 C   0  0  0  0  0  0  0  0  0  0  0  0
    9.2598  -12.4769   19.4489 C   0  0  0  0  0  0  0  0  0  0  0  0
    9.0911  -13.4153   20.4354 C   0  0  0  0  0  0  0  0  0  0  0  0
    7.8293  -13.9261   20.7038 C   0  0  0  0  0  0  0  0  0  0  0  0
    9.7929  -17.2850   23.1059 C   0  0  0  0  0  0  0  0  0  0  0  0
    9.2318  -17.9259   24.0495 O   0  0  0  0  0  0  0  0  0  0  0  0
   11.2027  -17.0806   23.1060 N   0  0  0  0  0  0  0  0  0  0  0  0
   11.9558  -17.4756   24.2711 C   0  0  1  0  0  0  0  0  0  0  0  0
   13.4367  -17.5447   23.8429 C   0  0  0  0  0  0  0  0  0  0  0  0
   13.5110  -18.5507   22.7554 C   0  0  0  0  0  0  0  0  0  0  0  0
   14.0847  -18.2849   21.6562 O   0  0  0  0  0  0  0  0  0  0  0  0
   11.8077  -16.5165   25.3875 C   0  0  0  0  0  0  0  0  0  0  0  0
   12.3377  -15.3854   25.2749 O   0  0  0  0  0  0  0  0  0  0  0  0
   12.9361  -19.8003   22.9566 O   0  0  0  0  0  0  0  0  0  0  0  0
    8.0573  -13.9151   26.6072 C   0  0  0  0  0  0  0  0  0  0  0  0
    9.4429  -14.4616   26.6960 C   0  0  0  0  0  0  0  0  0  0  0  0
    9.6854  -15.3268   27.9109 C   0  0  2  0  0  0  0  0  0  0  0  0
    9.6739  -14.4143   29.1145 C   0  0  0  0  0  0  0  0  0  0  0  0
   11.0685  -15.9656   27.7531 C   0  0  2  0  0  0  0  0  0  0  0  0
   11.0989  -16.8103   26.5732 N   0  0  0  0  0  0  0  0  0  0  0  0
   11.2825  -16.8535   28.9220 C   0  0  0  0  0  0  0  0  0  0  0  0
   11.1452  -18.2275   28.8511 O   0  0  0  0  0  0  0  0  0  0  0  0
   11.5993  -16.3362   30.0150 O   0  0  0  0  0  0  0  0  0  0  0  0
  2  1  1  1
  2  3  1  0
  2 13  1  0
  3  4  1  0
  4  5  2  0
  5  6  1  0
  7  6  1  0
  8  7  2  0
  9  8  1  0
 10 11  1  0
 10  9  2  0
 11 12  2  0
 12  4  1  0
 12  7  1  0
 13 15  1  0
 13 14  2  0
 15 16  1  0
 16 17  1  6
 17 18  1  0
 18 19  2  0
 18 22  1  0
 20 21  2  0
 20 16  1  0
 23 24  1  0
 24 25  1  0
 25 27  1  0
 25 26  1  1
 27 28  1  6
 28 20  1  0
 29 30  1  0
 29 27  1  0
 31 29  2  0
M  END
$$$$
