WDI.pdb
     RDKit          3D

 31 32  0  0  1  0  0  0  0  0999 V2000
    6.6675  -17.4686   24.5837 N   0  0  0  0  0  0  0  0  0  0  0  0
    7.6222  -16.4632   24.1376 C   0  0  1  0  0  0  0  0  0  0  0  0
    7.9716  -15.5685   25.3130 C   0  0  0  0  0  0  0  0  0  0  0  0
    6.8825  -14.6721   25.6876 C   0  0  0  0  0  0  0  0  0  0  0  0
    5.6787  -15.0625   26.2352 C   0  0  0  0  0  0  0  0  0  0  0  0
    4.9395  -13.9669   26.4420 N   0  0  0  0  0  0  0  0  0  0  0  0
    5.6043  -12.8441   26.0520 C   0  0  0  0  0  0  0  0  0  0  0  0
    5.2714  -11.5080   26.0624 C   0  0  0  0  0  0  0  0  0  0  0  0
    6.1848  -10.5840   25.5851 C   0  0  0  0  0  0  0  0  0  0  0  0
    7.4122  -11.0371   25.1104 C   0  0  0  0  0  0  0  0  0  0  0  0
    7.7349  -12.3705   25.1038 C   0  0  0  0  0  0  0  0  0  0  0  0
    6.8302  -13.3096   25.5778 C   0  0  0  0  0  0  0  0  0  0  0  0
    8.8873  -17.2217   23.8117 C   0  0  0  0  0  0  0  0  0  0  0  0
    9.0174  -18.3924   24.2898 O   0  0  0  0  0  0  0  0  0  0  0  0
    9.9073  -16.6546   22.9947 N   0  0  0  0  0  0  0  0  0  0  0  0
   11.2733  -17.0609   23.2170 C   0  0  1  0  0  0  0  0  0  0  0  0
   12.1237  -16.3862   22.1203 C   0  0  0  0  0  0  0  0  0  0  0  0
   13.4392  -17.0713   22.1305 C   0  0  0  0  0  0  0  0  0  0  0  0
   13.6716  -18.0296   22.9279 O   0  0  0  0  0  0  0  0  0  0  0  0
   11.7708  -16.6541   24.5494 C   0  0  0  0  0  0  0  0  0  0  0  0
   12.7566  -15.8808   24.6062 O   0  0  0  0  0  0  0  0  0  0  0  0
   14.4252  -16.6444   21.2484 O   0  0  0  0  0  0  0  0  0  0  0  0
   10.1827  -13.2446   27.5792 C   0  0  0  0  0  0  0  0  0  0  0  0
   10.9966  -14.3738   27.0417 C   0  0  0  0  0  0  0  0  0  0  0  0
   10.7323  -15.6984   27.7190 C   0  0  2  0  0  0  0  0  0  0  0  0
   11.0730  -15.5250   29.1803 C   0  0  0  0  0  0  0  0  0  0  0  0
   11.6652  -16.7346   27.0848 C   0  0  2  0  0  0  0  0  0  0  0  0
   11.1909  -17.0919   25.7604 N   0  0  0  0  0  0  0  0  0  0  0  0
   11.5913  -17.9631   27.9129 C   0  0  0  0  0  0  0  0  0  0  0  0
   12.3093  -18.1184   29.0842 O   0  0  0  0  0  0  0  0  0  0  0  0
   10.8493  -18.8951   27.5341 O   0  0  0  0  0  0  0  0  0  0  0  0
  2  1  1  1
  2  3  1  0
  2 13  1  0
  3  4  1  0
  4  5  2  0
  5  6  1  0
  7  6  1  0
  8  7  2  0
  9  8  1  0
 10 11  1  0
 10  9  2  0
 11 12  2  0
 12  4  1  0
 12  7  1  0
 13 15  1  0
 13 14  2  0
 15 16  1  0
 16 17  1  6
 17 18  1  0
 18 19  2  0
 18 22  1  0
 20 21  2  0
 20 16  1  0
 23 24  1  0
 24 25  1  0
 25 27  1  0
 25 26  1  1
 27 28  1  6
 28 20  1  0
 29 30  1  0
 29 27  1  0
 31 29  2  0
M  END
$$$$
