WDI.pdb
     RDKit          3D

 31 32  0  0  1  0  0  0  0  0999 V2000
   10.2715  -16.1609   20.8994 N   0  0  0  0  0  0  0  0  0  0  0  0
    9.2337  -15.6992   21.8111 C   0  0  1  0  0  0  0  0  0  0  0  0
    7.8839  -16.1419   21.2761 C   0  0  0  0  0  0  0  0  0  0  0  0
    7.3646  -15.2542   20.2407 C   0  0  0  0  0  0  0  0  0  0  0  0
    6.1736  -15.4234   19.5665 C   0  0  0  0  0  0  0  0  0  0  0  0
    6.0391  -14.4153   18.6976 N   0  0  0  0  0  0  0  0  0  0  0  0
    7.1019  -13.5661   18.7609 C   0  0  0  0  0  0  0  0  0  0  0  0
    7.4187  -12.4108   18.0820 C   0  0  0  0  0  0  0  0  0  0  0  0
    8.6036  -11.7601   18.3791 C   0  0  0  0  0  0  0  0  0  0  0  0
    9.4368  -12.2958   19.3568 C   0  0  0  0  0  0  0  0  0  0  0  0
    9.1128  -13.4477   20.0280 C   0  0  0  0  0  0  0  0  0  0  0  0
    7.9292  -14.1127   19.7413 C   0  0  0  0  0  0  0  0  0  0  0  0
    9.4413  -16.4770   23.0893 C   0  0  0  0  0  0  0  0  0  0  0  0
    8.4865  -16.5063   23.9281 O   0  0  0  0  0  0  0  0  0  0  0  0
   10.6621  -17.1611   23.3560 N   0  0  0  0  0  0  0  0  0  0  0  0
   10.8042  -17.8510   24.6147 C   0  0  1  0  0  0  0  0  0  0  0  0
   11.9410  -18.8788   24.4344 C   0  0  0  0  0  0  0  0  0  0  0  0
   12.8295  -18.3383   23.3768 C   0  0  0  0  0  0  0  0  0  0  0  0
   12.3768  -18.0438   22.2294 O   0  0  0  0  0  0  0  0  0  0  0  0
   11.1392  -16.9321   25.7244 C   0  0  0  0  0  0  0  0  0  0  0  0
   12.2137  -16.2884   25.6606 O   0  0  0  0  0  0  0  0  0  0  0  0
   14.1785  -18.1590   23.6604 O   0  0  0  0  0  0  0  0  0  0  0  0
    8.5329  -12.9444   26.8270 C   0  0  0  0  0  0  0  0  0  0  0  0
    9.5980  -13.9880   26.8814 C   0  0  0  0  0  0  0  0  0  0  0  0
    9.5993  -14.7984   28.1567 C   0  0  2  0  0  0  0  0  0  0  0  0
   10.0108  -13.8677   29.2730 C   0  0  0  0  0  0  0  0  0  0  0  0
   10.6393  -15.9111   27.9946 C   0  0  2  0  0  0  0  0  0  0  0  0
   10.3097  -16.7426   26.8516 N   0  0  0  0  0  0  0  0  0  0  0  0
   10.5517  -16.7779   29.1952 C   0  0  0  0  0  0  0  0  0  0  0  0
   11.2623  -16.5232   30.3536 O   0  0  0  0  0  0  0  0  0  0  0  0
    9.8048  -17.7795   29.1557 O   0  0  0  0  0  0  0  0  0  0  0  0
  2  1  1  6
  2  3  1  0
  2 13  1  0
  3  4  1  0
  4  5  2  0
  5  6  1  0
  7  6  1  0
  8  7  2  0
  9  8  1  0
 10 11  1  0
 10  9  2  0
 11 12  2  0
 12  4  1  0
 12  7  1  0
 13 15  1  0
 13 14  2  0
 15 16  1  0
 16 17  1  6
 17 18  1  0
 18 19  2  0
 18 22  1  0
 20 21  2  0
 20 16  1  0
 23 24  1  0
 24 25  1  0
 25 27  1  0
 25 26  1  1
 27 28  1  6
 28 20  1  0
 29 30  1  0
 29 27  1  0
 31 29  2  0
M  END
$$$$
