WDI.pdb
     RDKit          3D

 31 32  0  0  1  0  0  0  0  0999 V2000
    6.8400  -17.7010   23.6123 N   0  0  0  0  0  0  0  0  0  0  0  0
    7.7406  -16.5650   23.7525 C   0  0  1  0  0  0  0  0  0  0  0  0
    7.7418  -16.1213   25.2042 C   0  0  0  0  0  0  0  0  0  0  0  0
    6.7861  -15.0511   25.4716 C   0  0  0  0  0  0  0  0  0  0  0  0
    5.5495  -15.2126   26.0600 C   0  0  0  0  0  0  0  0  0  0  0  0
    4.9645  -14.0122   26.1378 N   0  0  0  0  0  0  0  0  0  0  0  0
    5.7657  -13.0399   25.6206 C   0  0  0  0  0  0  0  0  0  0  0  0
    5.6122  -11.6793   25.4757 C   0  0  0  0  0  0  0  0  0  0  0  0
    6.6324  -10.9458   24.8949 C   0  0  0  0  0  0  0  0  0  0  0  0
    7.7821  -11.6094   24.4768 C   0  0  0  0  0  0  0  0  0  0  0  0
    7.9260  -12.9657   24.6252 C   0  0  0  0  0  0  0  0  0  0  0  0
    6.9123  -13.7155   25.2044 C   0  0  0  0  0  0  0  0  0  0  0  0
    9.1249  -17.1102   23.4912 C   0  0  0  0  0  0  0  0  0  0  0  0
    9.3338  -18.3406   23.7333 O   0  0  0  0  0  0  0  0  0  0  0  0
   10.1695  -16.2826   22.9879 N   0  0  0  0  0  0  0  0  0  0  0  0
   11.5319  -16.7389   23.1159 C   0  0  1  0  0  0  0  0  0  0  0  0
   12.4090  -15.7558   22.3126 C   0  0  0  0  0  0  0  0  0  0  0  0
   13.7645  -16.3555   22.2555 C   0  0  0  0  0  0  0  0  0  0  0  0
   14.7826  -15.7101   22.6491 O   0  0  0  0  0  0  0  0  0  0  0  0
   11.9844  -16.7690   24.5239 C   0  0  0  0  0  0  0  0  0  0  0  0
   13.1428  -17.1831   24.7682 O   0  0  0  0  0  0  0  0  0  0  0  0
   13.9072  -17.6457   21.7578 O   0  0  0  0  0  0  0  0  0  0  0  0
    9.7593  -13.2350   28.1432 C   0  0  0  0  0  0  0  0  0  0  0  0
   10.7095  -14.1468   27.4416 C   0  0  0  0  0  0  0  0  0  0  0  0
   10.5922  -15.5946   27.8578 C   0  0  2  0  0  0  0  0  0  0  0  0
   10.9929  -15.6717   29.3121 C   0  0  0  0  0  0  0  0  0  0  0  0
   11.5738  -16.4010   27.0022 C   0  0  2  0  0  0  0  0  0  0  0  0
   11.1781  -16.3541   25.6066 N   0  0  0  0  0  0  0  0  0  0  0  0
   11.4732  -17.8181   27.4292 C   0  0  0  0  0  0  0  0  0  0  0  0
   12.3280  -18.3803   28.3592 O   0  0  0  0  0  0  0  0  0  0  0  0
   10.5786  -18.5316   26.9259 O   0  0  0  0  0  0  0  0  0  0  0  0
  2  1  1  1
  2  3  1  0
  2 13  1  0
  3  4  1  0
  4  5  2  0
  5  6  1  0
  7  6  1  0
  8  7  2  0
  9  8  1  0
 10 11  1  0
 10  9  2  0
 11 12  2  0
 12  4  1  0
 12  7  1  0
 13 15  1  0
 13 14  2  0
 15 16  1  0
 16 17  1  6
 17 18  1  0
 18 19  2  0
 18 22  1  0
 20 21  2  0
 20 16  1  0
 23 24  1  0
 24 25  1  0
 25 27  1  0
 25 26  1  1
 27 28  1  6
 28 20  1  0
 29 30  1  0
 29 27  1  0
 31 29  2  0
M  END
$$$$
