WDI.pdb
     RDKit          3D

 31 32  0  0  1  0  0  0  0  0999 V2000
    6.7514  -17.4996   23.8820 N   0  0  0  0  0  0  0  0  0  0  0  0
    7.8173  -16.5087   23.9374 C   0  0  1  0  0  0  0  0  0  0  0  0
    7.9314  -15.9959   25.3615 C   0  0  0  0  0  0  0  0  0  0  0  0
    6.9438  -14.9683   25.6759 C   0  0  0  0  0  0  0  0  0  0  0  0
    5.7766  -15.1710   26.3816 C   0  0  0  0  0  0  0  0  0  0  0  0
    5.1329  -14.0016   26.4681 N   0  0  0  0  0  0  0  0  0  0  0  0
    5.8270  -13.0105   25.8431 C   0  0  0  0  0  0  0  0  0  0  0  0
    5.5830  -11.6675   25.6622 C   0  0  0  0  0  0  0  0  0  0  0  0
    6.5028  -10.9055   24.9627 C   0  0  0  0  0  0  0  0  0  0  0  0
    7.6464  -11.5234   24.4652 C   0  0  0  0  0  0  0  0  0  0  0  0
    7.8809  -12.8624   24.6503 C   0  0  0  0  0  0  0  0  0  0  0  0
    6.9684  -13.6404   25.3483 C   0  0  0  0  0  0  0  0  0  0  0  0
    9.0943  -17.2716   23.6747 C   0  0  0  0  0  0  0  0  0  0  0  0
    9.1589  -18.4766   24.0747 O   0  0  0  0  0  0  0  0  0  0  0  0
   10.1962  -16.6715   23.0000 N   0  0  0  0  0  0  0  0  0  0  0  0
   11.5319  -17.0594   23.3820 C   0  0  1  0  0  0  0  0  0  0  0  0
   12.4923  -16.4223   22.3559 C   0  0  0  0  0  0  0  0  0  0  0  0
   12.1936  -17.0611   21.0510 C   0  0  0  0  0  0  0  0  0  0  0  0
   12.1688  -18.3232   20.9308 O   0  0  0  0  0  0  0  0  0  0  0  0
   11.8838  -16.5974   24.7425 C   0  0  0  0  0  0  0  0  0  0  0  0
   12.8192  -15.7713   24.8673 O   0  0  0  0  0  0  0  0  0  0  0  0
   11.9412  -16.2515   19.9495 O   0  0  0  0  0  0  0  0  0  0  0  0
    9.9359  -13.2203   27.4327 C   0  0  0  0  0  0  0  0  0  0  0  0
   10.8574  -14.3317   27.0558 C   0  0  0  0  0  0  0  0  0  0  0  0
   10.6046  -15.6198   27.8040 C   0  0  2  0  0  0  0  0  0  0  0  0
   10.8942  -15.3500   29.2617 C   0  0  0  0  0  0  0  0  0  0  0  0
   11.5825  -16.6669   27.2624 C   0  0  2  0  0  0  0  0  0  0  0  0
   11.2188  -17.0390   25.9075 N   0  0  0  0  0  0  0  0  0  0  0  0
   11.4343  -17.8848   28.0963 C   0  0  0  0  0  0  0  0  0  0  0  0
   10.7464  -19.0047   27.6668 O   0  0  0  0  0  0  0  0  0  0  0  0
   11.9528  -17.8968   29.2337 O   0  0  0  0  0  0  0  0  0  0  0  0
  2  1  1  1
  2  3  1  0
  2 13  1  0
  3  4  1  0
  4  5  2  0
  5  6  1  0
  7  6  1  0
  8  7  2  0
  9  8  1  0
 10 11  1  0
 10  9  2  0
 11 12  2  0
 12  4  1  0
 12  7  1  0
 13 15  1  0
 13 14  2  0
 15 16  1  0
 16 17  1  6
 17 18  1  0
 18 19  2  0
 18 22  1  0
 20 21  2  0
 20 16  1  0
 23 24  1  0
 24 25  1  0
 25 27  1  0
 25 26  1  1
 27 28  1  6
 28 20  1  0
 29 30  1  0
 29 27  1  0
 31 29  2  0
M  END
$$$$
