WDI.pdb
     RDKit          3D

 31 32  0  0  1  0  0  0  0  0999 V2000
    8.2305  -17.7622   21.4738 N   0  0  0  0  0  0  0  0  0  0  0  0
    9.1109  -16.7354   22.0139 C   0  0  1  0  0  0  0  0  0  0  0  0
    8.2596  -15.6293   22.6107 C   0  0  0  0  0  0  0  0  0  0  0  0
    7.5707  -14.8344   21.5990 C   0  0  0  0  0  0  0  0  0  0  0  0
    6.2228  -14.8968   21.3151 C   0  0  0  0  0  0  0  0  0  0  0  0
    5.9622  -14.0257   20.3339 N   0  0  0  0  0  0  0  0  0  0  0  0
    7.0918  -13.3731   19.9426 C   0  0  0  0  0  0  0  0  0  0  0  0
    7.3330  -12.4076   18.9910 C   0  0  0  0  0  0  0  0  0  0  0  0
    8.6229  -11.9333   18.8266 C   0  0  0  0  0  0  0  0  0  0  0  0
    9.6351  -12.4487   19.6309 C   0  0  0  0  0  0  0  0  0  0  0  0
    9.3853  -13.4108   20.5764 C   0  0  0  0  0  0  0  0  0  0  0  0
    8.0979  -13.8976   20.7531 C   0  0  0  0  0  0  0  0  0  0  0  0
    9.8185  -17.3812   23.1819 C   0  0  0  0  0  0  0  0  0  0  0  0
    9.1034  -17.8801   24.1071 O   0  0  0  0  0  0  0  0  0  0  0  0
   11.2401  -17.4371   23.2542 N   0  0  0  0  0  0  0  0  0  0  0  0
   11.8504  -17.8775   24.4847 C   0  0  1  0  0  0  0  0  0  0  0  0
   13.2881  -18.3174   24.1373 C   0  0  0  0  0  0  0  0  0  0  0  0
   13.8106  -19.0214   25.3337 C   0  0  0  0  0  0  0  0  0  0  0  0
   15.0538  -19.0562   25.5814 O   0  0  0  0  0  0  0  0  0  0  0  0
   11.8932  -16.8075   25.5052 C   0  0  0  0  0  0  0  0  0  0  0  0
   12.7767  -15.9232   25.4039 O   0  0  0  0  0  0  0  0  0  0  0  0
   12.9124  -19.6513   26.1874 O   0  0  0  0  0  0  0  0  0  0  0  0
    7.8698  -13.9603   26.9351 C   0  0  0  0  0  0  0  0  0  0  0  0
    8.8613  -15.0603   27.1181 C   0  0  0  0  0  0  0  0  0  0  0  0
   10.2449  -14.5838   27.4946 C   0  0  2  0  0  0  0  0  0  0  0  0
   10.7717  -13.7842   26.3264 C   0  0  0  0  0  0  0  0  0  0  0  0
   11.1159  -15.8246   27.7133 C   0  0  2  0  0  0  0  0  0  0  0  0
   10.9886  -16.7312   26.5870 N   0  0  0  0  0  0  0  0  0  0  0  0
   10.5824  -16.5370   28.9000 C   0  0  0  0  0  0  0  0  0  0  0  0
   10.6587  -16.0181   30.1793 O   0  0  0  0  0  0  0  0  0  0  0  0
   10.0428  -17.6524   28.7345 O   0  0  0  0  0  0  0  0  0  0  0  0
  2  1  1  1
  2  3  1  0
  2 13  1  0
  3  4  1  0
  4  5  2  0
  5  6  1  0
  7  6  1  0
  8  7  2  0
  9  8  1  0
 10 11  1  0
 10  9  2  0
 11 12  2  0
 12  4  1  0
 12  7  1  0
 13 15  1  0
 13 14  2  0
 15 16  1  0
 16 17  1  6
 17 18  1  0
 18 19  2  0
 18 22  1  0
 20 21  2  0
 20 16  1  0
 23 24  1  0
 24 25  1  0
 25 27  1  0
 25 26  1  6
 27 28  1  6
 28 20  1  0
 29 30  1  0
 29 27  1  0
 31 29  2  0
M  END
$$$$
