WDI.pdb
     RDKit          3D

 31 32  0  0  1  0  0  0  0  0999 V2000
    9.7319  -15.7115   21.2499 N   0  0  0  0  0  0  0  0  0  0  0  0
    8.7206  -15.5008   22.2765 C   0  0  1  0  0  0  0  0  0  0  0  0
    7.3640  -15.8746   21.7071 C   0  0  0  0  0  0  0  0  0  0  0  0
    7.0620  -15.1820   20.4584 C   0  0  0  0  0  0  0  0  0  0  0  0
    6.2057  -15.6381   19.4786 C   0  0  0  0  0  0  0  0  0  0  0  0
    6.1853  -14.7374   18.4898 N   0  0  0  0  0  0  0  0  0  0  0  0
    7.0014  -13.6831   18.7679 C   0  0  0  0  0  0  0  0  0  0  0  0
    7.3122  -12.5326   18.0782 C   0  0  0  0  0  0  0  0  0  0  0  0
    8.2005  -11.6316   18.6395 C   0  0  0  0  0  0  0  0  0  0  0  0
    8.7504  -11.9189   19.8855 C   0  0  0  0  0  0  0  0  0  0  0  0
    8.4348  -13.0680   20.5651 C   0  0  0  0  0  0  0  0  0  0  0  0
    7.5469  -13.9819   20.0159 C   0  0  0  0  0  0  0  0  0  0  0  0
    9.0101  -16.5258   23.3477 C   0  0  0  0  0  0  0  0  0  0  0  0
    8.1190  -16.7291   24.2312 O   0  0  0  0  0  0  0  0  0  0  0  0
   10.2374  -17.2487   23.3758 N   0  0  0  0  0  0  0  0  0  0  0  0
   10.6064  -17.9322   24.5912 C   0  0  1  0  0  0  0  0  0  0  0  0
   11.8080  -18.8371   24.2470 C   0  0  0  0  0  0  0  0  0  0  0  0
   12.1180  -19.6063   25.4768 C   0  0  0  0  0  0  0  0  0  0  0  0
   11.1955  -19.9960   26.2547 O   0  0  0  0  0  0  0  0  0  0  0  0
   10.9863  -16.9943   25.6701 C   0  0  0  0  0  0  0  0  0  0  0  0
   12.0297  -16.3133   25.5270 O   0  0  0  0  0  0  0  0  0  0  0  0
   13.4455  -19.8954   25.7709 O   0  0  0  0  0  0  0  0  0  0  0  0
    8.1617  -13.1806   26.9082 C   0  0  0  0  0  0  0  0  0  0  0  0
    9.3234  -14.1171   26.9014 C   0  0  0  0  0  0  0  0  0  0  0  0
    9.4793  -14.9118   28.1771 C   0  0  2  0  0  0  0  0  0  0  0  0
    9.8943  -13.9403   29.2567 C   0  0  0  0  0  0  0  0  0  0  0  0
   10.5896  -15.9412   27.9460 C   0  0  2  0  0  0  0  0  0  0  0  0
   10.2327  -16.8266   26.8527 N   0  0  0  0  0  0  0  0  0  0  0  0
   10.6772  -16.7800   29.1663 C   0  0  0  0  0  0  0  0  0  0  0  0
   11.4392  -16.4243   30.2639 O   0  0  0  0  0  0  0  0  0  0  0  0
   10.0355  -17.8522   29.2015 O   0  0  0  0  0  0  0  0  0  0  0  0
  2  1  1  6
  2  3  1  0
  2 13  1  0
  3  4  1  0
  4  5  2  0
  5  6  1  0
  7  6  1  0
  8  7  2  0
  9  8  1  0
 10 11  1  0
 10  9  2  0
 11 12  2  0
 12  4  1  0
 12  7  1  0
 13 15  1  0
 13 14  2  0
 15 16  1  0
 16 17  1  6
 17 18  1  0
 18 19  2  0
 18 22  1  0
 20 21  2  0
 20 16  1  0
 23 24  1  0
 24 25  1  0
 25 27  1  0
 25 26  1  1
 27 28  1  6
 28 20  1  0
 29 30  1  0
 29 27  1  0
 31 29  2  0
M  END
$$$$
