WDI.pdb
     RDKit          3D

 31 32  0  0  1  0  0  0  0  0999 V2000
    9.9378  -15.3318   23.0686 N   0  0  0  0  0  0  0  0  0  0  0  0
    9.1271  -16.5405   23.1233 C   0  0  1  0  0  0  0  0  0  0  0  0
    8.1671  -16.5362   21.9475 C   0  0  0  0  0  0  0  0  0  0  0  0
    7.6949  -15.1983   21.6049 C   0  0  0  0  0  0  0  0  0  0  0  0
    6.6398  -14.5450   22.2061 C   0  0  0  0  0  0  0  0  0  0  0  0
    6.5072  -13.3462   21.6276 N   0  0  0  0  0  0  0  0  0  0  0  0
    7.4401  -13.1647   20.6521 C   0  0  0  0  0  0  0  0  0  0  0  0
    7.7054  -12.1220   19.7929 C   0  0  0  0  0  0  0  0  0  0  0  0
    8.7479  -12.2432   18.8905 C   0  0  0  0  0  0  0  0  0  0  0  0
    9.4955  -13.4172   18.8824 C   0  0  0  0  0  0  0  0  0  0  0  0
    9.2236  -14.4509   19.7423 C   0  0  0  0  0  0  0  0  0  0  0  0
    8.1814  -14.3457   20.6522 C   0  0  0  0  0  0  0  0  0  0  0  0
   10.0827  -17.6818   22.8658 C   0  0  0  0  0  0  0  0  0  0  0  0
    9.5918  -18.8451   22.7176 O   0  0  0  0  0  0  0  0  0  0  0  0
   11.4897  -17.4730   22.7874 N   0  0  0  0  0  0  0  0  0  0  0  0
   12.2941  -17.7580   23.9503 C   0  0  1  0  0  0  0  0  0  0  0  0
   13.7677  -17.7178   23.4942 C   0  0  0  0  0  0  0  0  0  0  0  0
   13.7736  -18.1100   22.0638 C   0  0  0  0  0  0  0  0  0  0  0  0
   12.7911  -18.7257   21.5502 O   0  0  0  0  0  0  0  0  0  0  0  0
   12.0843  -16.7730   25.0337 C   0  0  0  0  0  0  0  0  0  0  0  0
   12.2973  -15.5619   24.7868 O   0  0  0  0  0  0  0  0  0  0  0  0
   14.8812  -17.7937   21.2856 O   0  0  0  0  0  0  0  0  0  0  0  0
    8.8500  -13.4896   28.1950 C   0  0  0  0  0  0  0  0  0  0  0  0
   10.0418  -14.3807   28.3051 C   0  0  0  0  0  0  0  0  0  0  0  0
   10.2351  -15.2973   27.1195 C   0  0  2  0  0  0  0  0  0  0  0  0
    8.9867  -16.1395   27.0020 C   0  0  0  0  0  0  0  0  0  0  0  0
   11.4418  -16.1915   27.4201 C   0  0  2  0  0  0  0  0  0  0  0  0
   11.6555  -17.1276   26.3318 N   0  0  0  0  0  0  0  0  0  0  0  0
   11.1080  -16.9975   28.6199 C   0  0  0  0  0  0  0  0  0  0  0  0
   11.4233  -16.5917   29.9035 O   0  0  0  0  0  0  0  0  0  0  0  0
   10.5181  -18.0882   28.4617 O   0  0  0  0  0  0  0  0  0  0  0  0
  2  1  1  6
  2  3  1  0
  2 13  1  0
  3  4  1  0
  4  5  2  0
  5  6  1  0
  7  6  1  0
  8  7  2  0
  9  8  1  0
 10 11  1  0
 10  9  2  0
 11 12  2  0
 12  4  1  0
 12  7  1  0
 13 15  1  0
 13 14  2  0
 15 16  1  0
 16 17  1  6
 17 18  1  0
 18 19  2  0
 18 22  1  0
 20 21  2  0
 20 16  1  0
 23 24  1  0
 24 25  1  0
 25 27  1  0
 25 26  1  1
 27 28  1  6
 28 20  1  0
 29 30  1  0
 29 27  1  0
 31 29  2  0
M  END
$$$$
