WDI.pdb
     RDKit          3D

 31 32  0  0  1  0  0  0  0  0999 V2000
    7.3784  -17.8925   20.6078 N   0  0  0  0  0  0  0  0  0  0  0  0
    7.9197  -16.8248   21.4375 C   0  0  1  0  0  0  0  0  0  0  0  0
    6.7771  -15.9345   21.8912 C   0  0  0  0  0  0  0  0  0  0  0  0
    7.2267  -14.6256   22.3546 C   0  0  0  0  0  0  0  0  0  0  0  0
    7.8894  -13.6906   21.5877 C   0  0  0  0  0  0  0  0  0  0  0  0
    8.1364  -12.6221   22.3536 N   0  0  0  0  0  0  0  0  0  0  0  0
    7.6616  -12.8022   23.6173 C   0  0  0  0  0  0  0  0  0  0  0  0
    7.6725  -12.0096   24.7432 C   0  0  0  0  0  0  0  0  0  0  0  0
    7.0952  -12.4872   25.9070 C   0  0  0  0  0  0  0  0  0  0  0  0
    6.5208  -13.7549   25.9001 C   0  0  0  0  0  0  0  0  0  0  0  0
    6.5149  -14.5376   24.7734 C   0  0  0  0  0  0  0  0  0  0  0  0
    7.0903  -14.0740   23.5990 C   0  0  0  0  0  0  0  0  0  0  0  0
    8.4307  -17.5019   22.6874 C   0  0  0  0  0  0  0  0  0  0  0  0
    7.6608  -18.3270   23.2726 O   0  0  0  0  0  0  0  0  0  0  0  0
    9.7319  -17.2340   23.2017 N   0  0  0  0  0  0  0  0  0  0  0  0
   10.1524  -17.9163   24.4010 C   0  0  1  0  0  0  0  0  0  0  0  0
   11.2340  -18.9332   23.9799 C   0  0  0  0  0  0  0  0  0  0  0  0
   12.1904  -18.1943   23.1200 C   0  0  0  0  0  0  0  0  0  0  0  0
   11.7897  -17.5282   22.1181 O   0  0  0  0  0  0  0  0  0  0  0  0
   10.7108  -16.9886   25.4087 C   0  0  0  0  0  0  0  0  0  0  0  0
   11.5117  -16.1035   25.0240 O   0  0  0  0  0  0  0  0  0  0  0  0
   13.5453  -18.2434   23.4269 O   0  0  0  0  0  0  0  0  0  0  0  0
    8.5467  -13.3319   27.8352 C   0  0  0  0  0  0  0  0  0  0  0  0
    9.5925  -14.2988   27.3904 C   0  0  0  0  0  0  0  0  0  0  0  0
    9.9925  -15.3008   28.4483 C   0  0  2  0  0  0  0  0  0  0  0  0
   10.6350  -14.5248   29.5737 C   0  0  0  0  0  0  0  0  0  0  0  0
   11.0153  -16.2517   27.8192 C   0  0  2  0  0  0  0  0  0  0  0  0
   10.3867  -17.0490   26.7820 N   0  0  0  0  0  0  0  0  0  0  0  0
   11.4543  -17.1937   28.8777 C   0  0  0  0  0  0  0  0  0  0  0  0
   12.5080  -16.9207   29.7302 O   0  0  0  0  0  0  0  0  0  0  0  0
   10.8455  -18.2784   29.0019 O   0  0  0  0  0  0  0  0  0  0  0  0
  2  1  1  6
  2  3  1  0
  2 13  1  0
  3  4  1  0
  4  5  2  0
  5  6  1  0
  7  6  1  0
  8  7  2  0
  9  8  1  0
 10 11  1  0
 10  9  2  0
 11 12  2  0
 12  4  1  0
 12  7  1  0
 13 15  1  0
 13 14  2  0
 15 16  1  0
 16 17  1  6
 17 18  1  0
 18 19  2  0
 18 22  1  0
 20 21  2  0
 20 16  1  0
 23 24  1  0
 24 25  1  0
 25 27  1  0
 25 26  1  1
 27 28  1  6
 28 20  1  0
 29 30  1  0
 29 27  1  0
 31 29  2  0
M  END
$$$$
