WDI.pdb
     RDKit          3D

 31 32  0  0  1  0  0  0  0  0999 V2000
    7.4812  -18.0110   20.6246 N   0  0  0  0  0  0  0  0  0  0  0  0
    7.9698  -16.8523   21.3593 C   0  0  1  0  0  0  0  0  0  0  0  0
    6.7785  -16.0593   21.8655 C   0  0  0  0  0  0  0  0  0  0  0  0
    7.1568  -14.7753   22.4471 C   0  0  0  0  0  0  0  0  0  0  0  0
    7.7266  -13.7239   21.7607 C   0  0  0  0  0  0  0  0  0  0  0  0
    7.9302  -12.7230   22.6245 N   0  0  0  0  0  0  0  0  0  0  0  0
    7.5160  -13.0620   23.8768 C   0  0  0  0  0  0  0  0  0  0  0  0
    7.5160  -12.3877   25.0773 C   0  0  0  0  0  0  0  0  0  0  0  0
    7.0157  -13.0191   26.2029 C   0  0  0  0  0  0  0  0  0  0  0  0
    6.5272  -14.3169   26.0831 C   0  0  0  0  0  0  0  0  0  0  0  0
    6.5315  -14.9809   24.8826 C   0  0  0  0  0  0  0  0  0  0  0  0
    7.0305  -14.3625   23.7452 C   0  0  0  0  0  0  0  0  0  0  0  0
    8.6436  -17.4081   22.5918 C   0  0  0  0  0  0  0  0  0  0  0  0
    7.9991  -18.2513   23.2915 O   0  0  0  0  0  0  0  0  0  0  0  0
    9.9589  -17.0093   22.9664 N   0  0  0  0  0  0  0  0  0  0  0  0
   10.5750  -17.6489   24.1030 C   0  0  1  0  0  0  0  0  0  0  0  0
   11.7361  -18.5065   23.5574 C   0  0  0  0  0  0  0  0  0  0  0  0
   12.6279  -17.5806   22.8175 C   0  0  0  0  0  0  0  0  0  0  0  0
   12.1618  -16.7615   21.9690 O   0  0  0  0  0  0  0  0  0  0  0  0
   11.0992  -16.6716   25.0819 C   0  0  0  0  0  0  0  0  0  0  0  0
   12.0069  -15.8884   24.7136 O   0  0  0  0  0  0  0  0  0  0  0  0
   13.9950  -17.6238   23.0657 O   0  0  0  0  0  0  0  0  0  0  0  0
    8.4509  -13.5262   28.4698 C   0  0  0  0  0  0  0  0  0  0  0  0
    9.1942  -14.7513   28.0538 C   0  0  0  0  0  0  0  0  0  0  0  0
   10.6447  -14.5030   27.7108 C   0  0  2  0  0  0  0  0  0  0  0  0
   10.6666  -13.6985   26.4325 C   0  0  0  0  0  0  0  0  0  0  0  0
   11.3038  -15.8664   27.4810 C   0  0  2  0  0  0  0  0  0  0  0  0
   10.6283  -16.5756   26.4099 N   0  0  0  0  0  0  0  0  0  0  0  0
   11.1090  -16.6664   28.7150 C   0  0  0  0  0  0  0  0  0  0  0  0
   10.2956  -17.7835   28.7600 O   0  0  0  0  0  0  0  0  0  0  0  0
   11.7050  -16.3139   29.7557 O   0  0  0  0  0  0  0  0  0  0  0  0
  2  1  1  6
  2  3  1  0
  2 13  1  0
  3  4  1  0
  4  5  2  0
  5  6  1  0
  7  6  1  0
  8  7  2  0
  9  8  1  0
 10 11  1  0
 10  9  2  0
 11 12  2  0
 12  4  1  0
 12  7  1  0
 13 15  1  0
 13 14  2  0
 15 16  1  0
 16 17  1  6
 17 18  1  0
 18 19  2  0
 18 22  1  0
 20 21  2  0
 20 16  1  0
 23 24  1  0
 24 25  1  0
 25 27  1  0
 25 26  1  6
 27 28  1  6
 28 20  1  0
 29 30  1  0
 29 27  1  0
 31 29  2  0
M  END
$$$$
