SHY.pdb
     RDKit          3D

 29 30  0  0  1  0  0  0  0  0999 V2000
   25.4017  -17.3280    9.5160 O   0  0  0  0  0  0  0  0  0  0  0  0
   24.1153  -17.8427    9.5020 C   0  0  0  0  0  0  0  0  0  0  0  0
   23.0757  -16.7949    9.8330 C   0  0  2  0  0  0  0  0  0  0  0  0
   23.1645  -16.5199   11.2496 N   0  0  0  0  0  0  0  0  0  0  0  0
   21.7351  -17.3956    9.5480 C   0  0  0  0  0  0  0  0  0  0  0  0
   21.1119  -18.0662   10.4110 O   0  0  0  0  0  0  0  0  0  0  0  0
   21.1198  -17.2195    8.2680 N   0  0  0  0  0  0  0  0  0  0  0  0
   19.8042  -17.7630    7.9949 C   0  0  1  0  0  0  0  0  0  0  0  0
   18.8434  -16.6976    7.5108 C   0  0  0  0  0  0  0  0  0  0  0  0
   18.2112  -15.9487    8.6021 C   0  0  0  0  0  0  0  0  0  0  0  0
   18.4309  -16.2007    9.9535 C   0  0  0  0  0  0  0  0  0  0  0  0
   17.6912  -15.3272   10.6343 N   0  0  0  0  0  0  0  0  0  0  0  0
   17.0327  -14.5568    9.7519 C   0  0  0  0  0  0  0  0  0  0  0  0
   17.3471  -14.9327    8.4871 N   0  0  0  0  0  0  0  0  0  0  0  0
   19.9128  -18.8465    6.9668 C   0  0  0  0  0  0  0  0  0  0  0  0
   20.9872  -18.9837    6.3273 O   0  0  0  0  0  0  0  0  0  0  0  0
   20.4843  -26.4379    3.1346 O   0  0  0  0  0  0  0  0  0  0  0  0
   20.3806  -25.2964    3.9312 C   0  0  0  0  0  0  0  0  0  0  0  0
   20.2228  -25.3630    5.2956 C   0  0  0  0  0  0  0  0  0  0  0  0
   20.1226  -24.2250    6.0643 C   0  0  0  0  0  0  0  0  0  0  0  0
   20.1775  -22.9517    5.4867 C   0  0  0  0  0  0  0  0  0  0  0  0
   20.0444  -21.7552    6.3374 C   0  0  0  0  0  0  0  0  0  0  0  0
   18.9743  -20.8486    5.7805 C   0  0  2  0  0  0  0  0  0  0  0  0
   18.8446  -19.7255    6.6882 N   0  0  0  0  0  0  0  0  0  0  0  0
   17.6855  -21.5677    5.7368 C   0  0  0  0  0  0  0  0  0  0  0  0
   17.1179  -22.1169    4.5980 O   0  0  0  0  0  0  0  0  0  0  0  0
   20.3346  -22.8765    4.1240 C   0  0  0  0  0  0  0  0  0  0  0  0
   20.4347  -24.0441    3.3601 C   0  0  0  0  0  0  0  0  0  0  0  0
   17.0072  -21.7176    6.8006 O   0  0  0  0  0  0  0  0  0  0  0  0
  2  1  1  0
  3  2  1  0
  3  4  1  1
  5  3  1  0
  5  7  1  0
  6  5  2  0
  8  7  1  0
  8  9  1  6
 10  9  1  0
 11 10  2  0
 12 13  1  0
 12 11  1  0
 13 14  2  0
 14 10  1  0
 15  8  1  0
 16 15  2  0
 17 18  1  0
 18 19  2  0
 18 28  1  0
 19 20  1  0
 20 21  2  0
 21 22  1  0
 23 22  1  1
 23 24  1  0
 23 25  1  0
 24 15  1  0
 25 26  1  0
 27 21  1  0
 28 27  2  0
 29 25  2  0
M  END
$$$$
