SHY.pdb
     RDKit          3D

 29 30  0  0  1  0  0  0  0  0999 V2000
   25.2940   -9.7404  -23.1895 O   0  0  0  0  0  0  0  0  0  0  0  0
   24.4474   -9.7066  -22.0931 C   0  0  0  0  0  0  0  0  0  0  0  0
   25.1382   -9.1856  -20.8522 C   0  0  2  0  0  0  0  0  0  0  0  0
   26.3085  -10.0035  -20.6246 N   0  0  0  0  0  0  0  0  0  0  0  0
   24.1944   -9.3764  -19.7068 C   0  0  0  0  0  0  0  0  0  0  0  0
   24.1273  -10.4632  -19.0767 O   0  0  0  0  0  0  0  0  0  0  0  0
   23.3320   -8.3115  -19.2939 N   0  0  0  0  0  0  0  0  0  0  0  0
   22.4533   -8.4674  -18.1517 C   0  0  1  0  0  0  0  0  0  0  0  0
   23.2281   -8.7009  -16.8720 C   0  0  0  0  0  0  0  0  0  0  0  0
   22.3688   -8.8380  -15.6914 C   0  0  0  0  0  0  0  0  0  0  0  0
   21.5842   -9.9558  -15.4206 C   0  0  0  0  0  0  0  0  0  0  0  0
   20.9516   -9.7148  -14.2737 N   0  0  0  0  0  0  0  0  0  0  0  0
   21.3202   -8.4980  -13.8385 C   0  0  0  0  0  0  0  0  0  0  0  0
   22.1995   -7.9436  -14.7098 N   0  0  0  0  0  0  0  0  0  0  0  0
   21.5988   -7.2462  -18.0062 C   0  0  0  0  0  0  0  0  0  0  0  0
   22.1462   -6.1162  -17.9318 O   0  0  0  0  0  0  0  0  0  0  0  0
   14.4949   -2.0419  -17.6517 O   0  0  0  0  0  0  0  0  0  0  0  0
   15.3459   -3.1446  -17.7431 C   0  0  0  0  0  0  0  0  0  0  0  0
   16.2243   -3.3116  -18.7877 C   0  0  0  0  0  0  0  0  0  0  0  0
   17.0561   -4.4066  -18.8598 C   0  0  0  0  0  0  0  0  0  0  0  0
   17.0409   -5.3960  -17.8704 C   0  0  0  0  0  0  0  0  0  0  0  0
   17.9292   -6.5662  -17.9911 C   0  0  0  0  0  0  0  0  0  0  0  0
   19.3570   -6.1530  -17.7306 C   0  0  2  0  0  0  0  0  0  0  0  0
   20.1906   -7.3189  -17.9493 N   0  0  0  0  0  0  0  0  0  0  0  0
   19.5040   -5.7284  -16.3241 C   0  0  0  0  0  0  0  0  0  0  0  0
   19.0837   -4.5114  -15.8113 O   0  0  0  0  0  0  0  0  0  0  0  0
   16.1657   -5.2367  -16.8235 C   0  0  0  0  0  0  0  0  0  0  0  0
   15.3289   -4.1173  -16.7679 C   0  0  0  0  0  0  0  0  0  0  0  0
   20.0543   -6.5046  -15.4821 O   0  0  0  0  0  0  0  0  0  0  0  0
  2  1  1  0
  3  2  1  0
  3  4  1  1
  5  3  1  0
  5  7  1  0
  6  5  2  0
  8  7  1  0
  8  9  1  1
 10  9  1  0
 11 10  2  0
 12 13  1  0
 12 11  1  0
 13 14  2  0
 14 10  1  0
 15  8  1  0
 16 15  2  0
 17 18  1  0
 18 19  2  0
 18 28  1  0
 19 20  1  0
 20 21  2  0
 21 22  1  0
 23 22  1  1
 23 24  1  0
 23 25  1  0
 24 15  1  0
 25 26  1  0
 27 21  1  0
 28 27  2  0
 29 25  2  0
M  END
$$$$
