SHY.pdb
     RDKit          3D

 29 30  0  0  1  0  0  0  0  0999 V2000
   25.6365  -12.4822  -15.4927 O   0  0  0  0  0  0  0  0  0  0  0  0
   24.8976  -11.3437  -15.7724 C   0  0  0  0  0  0  0  0  0  0  0  0
   23.6407  -11.6547  -16.5545 C   0  0  2  0  0  0  0  0  0  0  0  0
   24.0369  -12.0171  -17.8970 N   0  0  0  0  0  0  0  0  0  0  0  0
   22.8365  -10.3945  -16.6196 C   0  0  0  0  0  0  0  0  0  0  0  0
   23.0509   -9.5153  -17.4936 O   0  0  0  0  0  0  0  0  0  0  0  0
   21.7881  -10.1548  -15.6754 N   0  0  0  0  0  0  0  0  0  0  0  0
   21.0403   -8.9133  -15.6947 C   0  0  1  0  0  0  0  0  0  0  0  0
   19.6191   -9.1035  -15.2084 C   0  0  0  0  0  0  0  0  0  0  0  0
   18.7462   -9.7353  -16.2034 C   0  0  0  0  0  0  0  0  0  0  0  0
   19.0422   -9.8221  -17.5610 C   0  0  0  0  0  0  0  0  0  0  0  0
   18.0232  -10.4559  -18.1387 N   0  0  0  0  0  0  0  0  0  0  0  0
   17.1225  -10.7567  -17.1878 C   0  0  0  0  0  0  0  0  0  0  0  0
   17.5597  -10.3147  -15.9823 N   0  0  0  0  0  0  0  0  0  0  0  0
   21.7326   -7.8976  -14.8391 C   0  0  0  0  0  0  0  0  0  0  0  0
   22.0362   -8.1935  -13.6549 O   0  0  0  0  0  0  0  0  0  0  0  0
   22.9167   -3.1751  -20.4020 O   0  0  0  0  0  0  0  0  0  0  0  0
   23.1963   -3.6978  -19.1383 C   0  0  0  0  0  0  0  0  0  0  0  0
   23.2657   -2.9086  -18.0143 C   0  0  0  0  0  0  0  0  0  0  0  0
   23.5427   -3.4434  -16.7761 C   0  0  0  0  0  0  0  0  0  0  0  0
   23.7653   -4.8150  -16.6111 C   0  0  0  0  0  0  0  0  0  0  0  0
   24.0814   -5.3501  -15.2745 C   0  0  0  0  0  0  0  0  0  0  0  0
   22.8042   -5.6500  -14.5288 C   0  0  2  0  0  0  0  0  0  0  0  0
   22.0589   -6.6110  -15.3182 N   0  0  0  0  0  0  0  0  0  0  0  0
   21.9986   -4.4187  -14.4057 C   0  0  0  0  0  0  0  0  0  0  0  0
   20.7564   -4.2182  -14.9868 O   0  0  0  0  0  0  0  0  0  0  0  0
   23.6981   -5.6104  -17.7292 C   0  0  0  0  0  0  0  0  0  0  0  0
   23.4152   -5.0483  -18.9786 C   0  0  0  0  0  0  0  0  0  0  0  0
   22.4380   -3.4393  -13.7262 O   0  0  0  0  0  0  0  0  0  0  0  0
  2  1  1  0
  3  2  1  0
  3  4  1  6
  5  3  1  0
  5  7  1  0
  6  5  2  0
  8  7  1  0
  8  9  1  1
 10  9  1  0
 11 10  2  0
 12 13  1  0
 12 11  1  0
 13 14  2  0
 14 10  1  0
 15  8  1  0
 16 15  2  0
 17 18  1  0
 18 19  2  0
 18 28  1  0
 19 20  1  0
 20 21  2  0
 21 22  1  0
 23 22  1  6
 23 24  1  0
 23 25  1  0
 24 15  1  0
 25 26  1  0
 27 21  1  0
 28 27  2  0
 29 25  2  0
M  END
$$$$
