SHY.pdb
     RDKit          3D

 29 30  0  0  1  0  0  0  0  0999 V2000
   42.0851  -11.1158   -8.5710 O   0  0  0  0  0  0  0  0  0  0  0  0
   42.9735  -10.1734   -9.0637 C   0  0  0  0  0  0  0  0  0  0  0  0
   43.6866   -9.4260   -7.9586 C   0  0  2  0  0  0  0  0  0  0  0  0
   44.2921  -10.4061   -7.0850 N   0  0  0  0  0  0  0  0  0  0  0  0
   42.6455   -8.6788   -7.1859 C   0  0  0  0  0  0  0  0  0  0  0  0
   42.0934   -9.1718   -6.1686 O   0  0  0  0  0  0  0  0  0  0  0  0
   42.2462   -7.3656   -7.5912 N   0  0  0  0  0  0  0  0  0  0  0  0
   41.3258   -6.5872   -6.7863 C   0  0  1  0  0  0  0  0  0  0  0  0
   41.9588   -5.3059   -6.2862 C   0  0  0  0  0  0  0  0  0  0  0  0
   42.9875   -5.5282   -5.2647 C   0  0  0  0  0  0  0  0  0  0  0  0
   44.3543   -5.3856   -5.4872 C   0  0  0  0  0  0  0  0  0  0  0  0
   44.9642   -5.6684   -4.3375 N   0  0  0  0  0  0  0  0  0  0  0  0
   44.0240   -5.9762   -3.4281 C   0  0  0  0  0  0  0  0  0  0  0  0
   42.7929   -5.8929   -3.9914 N   0  0  0  0  0  0  0  0  0  0  0  0
   40.1053   -6.2641   -7.5917 C   0  0  0  0  0  0  0  0  0  0  0  0
   40.1948   -6.1919   -8.8442 O   0  0  0  0  0  0  0  0  0  0  0  0
   37.0216   -2.5233   -2.3108 O   0  0  0  0  0  0  0  0  0  0  0  0
   36.8874   -3.3476   -3.4292 C   0  0  0  0  0  0  0  0  0  0  0  0
   36.4017   -2.8857   -4.6299 C   0  0  0  0  0  0  0  0  0  0  0  0
   36.2771   -3.7150   -5.7220 C   0  0  0  0  0  0  0  0  0  0  0  0
   36.6405   -5.0645   -5.6540 C   0  0  0  0  0  0  0  0  0  0  0  0
   36.4728   -5.9287   -6.8363 C   0  0  0  0  0  0  0  0  0  0  0  0
   37.6526   -5.7626   -7.7624 C   0  0  2  0  0  0  0  0  0  0  0  0
   38.8491   -6.0360   -6.9906 N   0  0  0  0  0  0  0  0  0  0  0  0
   37.7143   -4.3686   -8.2452 C   0  0  0  0  0  0  0  0  0  0  0  0
   38.6816   -3.4433   -7.8860 O   0  0  0  0  0  0  0  0  0  0  0  0
   37.1264   -5.5339   -4.4578 C   0  0  0  0  0  0  0  0  0  0  0  0
   37.2457   -4.6758   -3.3596 C   0  0  0  0  0  0  0  0  0  0  0  0
   36.8326   -3.9378   -9.0521 O   0  0  0  0  0  0  0  0  0  0  0  0
  2  1  1  0
  3  2  1  0
  3  4  1  1
  5  3  1  0
  5  7  1  0
  6  5  2  0
  8  7  1  0
  8  9  1  6
 10  9  1  0
 11 10  2  0
 12 13  1  0
 12 11  1  0
 13 14  2  0
 14 10  1  0
 15  8  1  0
 16 15  2  0
 17 18  1  0
 18 19  2  0
 18 28  1  0
 19 20  1  0
 20 21  2  0
 21 22  1  0
 23 22  1  1
 23 24  1  0
 23 25  1  0
 24 15  1  0
 25 26  1  0
 27 21  1  0
 28 27  2  0
 29 25  2  0
M  END
$$$$
