SHY.pdb
     RDKit          3D

 29 30  0  0  1  0  0  0  0  0999 V2000
   32.6838  -34.3881  -17.7466 O   0  0  0  0  0  0  0  0  0  0  0  0
   33.1316  -33.1498  -18.1779 C   0  0  0  0  0  0  0  0  0  0  0  0
   33.0077  -32.0907  -17.1049 C   0  0  2  0  0  0  0  0  0  0  0  0
   33.2058  -32.7355  -15.8261 N   0  0  0  0  0  0  0  0  0  0  0  0
   31.6078  -31.5651  -17.1610 C   0  0  0  0  0  0  0  0  0  0  0  0
   30.8444  -31.6036  -16.1617 O   0  0  0  0  0  0  0  0  0  0  0  0
   31.0953  -30.9972  -18.3705 N   0  0  0  0  0  0  0  0  0  0  0  0
   29.7877  -30.3726  -18.4024 C   0  0  1  0  0  0  0  0  0  0  0  0
   29.4706  -29.7975  -19.7667 C   0  0  0  0  0  0  0  0  0  0  0  0
   28.2314  -29.0134  -19.7910 C   0  0  0  0  0  0  0  0  0  0  0  0
   27.3742  -28.8714  -18.7032 C   0  0  0  0  0  0  0  0  0  0  0  0
   26.3676  -28.0967  -19.1034 N   0  0  0  0  0  0  0  0  0  0  0  0
   26.5792  -27.7635  -20.3880 C   0  0  0  0  0  0  0  0  0  0  0  0
   27.7328  -28.3264  -20.8261 N   0  0  0  0  0  0  0  0  0  0  0  0
   28.7429  -31.3769  -18.0249 C   0  0  0  0  0  0  0  0  0  0  0  0
   28.8978  -32.5808  -18.3546 O   0  0  0  0  0  0  0  0  0  0  0  0
   23.7242  -36.7844  -13.8029 O   0  0  0  0  0  0  0  0  0  0  0  0
   24.5916  -35.8034  -14.2865 C   0  0  0  0  0  0  0  0  0  0  0  0
   25.1677  -35.8801  -15.5328 C   0  0  0  0  0  0  0  0  0  0  0  0
   26.0209  -34.9018  -15.9920 C   0  0  0  0  0  0  0  0  0  0  0  0
   26.3371  -33.7874  -15.2070 C   0  0  0  0  0  0  0  0  0  0  0  0
   27.2718  -32.7704  -15.7216 C   0  0  0  0  0  0  0  0  0  0  0  0
   26.6193  -31.9958  -16.8403 C   0  0  2  0  0  0  0  0  0  0  0  0
   27.5823  -31.0177  -17.3072 N   0  0  0  0  0  0  0  0  0  0  0  0
   25.4352  -31.2795  -16.3254 C   0  0  0  0  0  0  0  0  0  0  0  0
   24.1442  -31.7833  -16.3090 O   0  0  0  0  0  0  0  0  0  0  0  0
   25.7659  -33.7035  -13.9603 C   0  0  0  0  0  0  0  0  0  0  0  0
   24.9014  -34.7075  -13.5117 C   0  0  0  0  0  0  0  0  0  0  0  0
   25.5600  -30.1067  -15.8530 O   0  0  0  0  0  0  0  0  0  0  0  0
  2  1  1  0
  3  2  1  0
  3  4  1  1
  5  3  1  0
  5  7  1  0
  6  5  2  0
  8  7  1  0
  8  9  1  6
 10  9  1  0
 11 10  2  0
 12 13  1  0
 12 11  1  0
 13 14  2  0
 14 10  1  0
 15  8  1  0
 16 15  2  0
 17 18  1  0
 18 19  2  0
 18 28  1  0
 19 20  1  0
 20 21  2  0
 21 22  1  0
 23 22  1  1
 23 24  1  0
 23 25  1  0
 24 15  1  0
 25 26  1  0
 27 21  1  0
 28 27  2  0
 29 25  2  0
M  END
$$$$
