SHY.pdb
     RDKit          3D

 29 30  0  0  1  0  0  0  0  0999 V2000
   30.3096  -32.2972  -16.7205 O   0  0  0  0  0  0  0  0  0  0  0  0
   29.0969  -31.7308  -16.3619 C   0  0  0  0  0  0  0  0  0  0  0  0
   28.1938  -31.5085  -17.5550 C   0  0  2  0  0  0  0  0  0  0  0  0
   28.6422  -30.3102  -18.2283 N   0  0  0  0  0  0  0  0  0  0  0  0
   26.8140  -31.2699  -17.0275 C   0  0  0  0  0  0  0  0  0  0  0  0
   26.4137  -30.1191  -16.7137 O   0  0  0  0  0  0  0  0  0  0  0  0
   25.9021  -32.3608  -16.8645 N   0  0  0  0  0  0  0  0  0  0  0  0
   24.5864  -32.1506  -16.2939 C   0  0  1  0  0  0  0  0  0  0  0  0
   23.4880  -32.6394  -17.2143 C   0  0  0  0  0  0  0  0  0  0  0  0
   23.1752  -31.6974  -18.2941 C   0  0  0  0  0  0  0  0  0  0  0  0
   23.7323  -31.7554  -19.5686 C   0  0  0  0  0  0  0  0  0  0  0  0
   23.2118  -30.7458  -20.2639 N   0  0  0  0  0  0  0  0  0  0  0  0
   22.3627  -30.0787  -19.4639 C   0  0  0  0  0  0  0  0  0  0  0  0
   22.3312  -30.6596  -18.2386 N   0  0  0  0  0  0  0  0  0  0  0  0
   24.4917  -32.8588  -14.9778 C   0  0  0  0  0  0  0  0  0  0  0  0
   24.8007  -34.0761  -14.9094 O   0  0  0  0  0  0  0  0  0  0  0  0
   24.5398  -34.1012   -6.2718 O   0  0  0  0  0  0  0  0  0  0  0  0
   24.6133  -33.5723   -7.5615 C   0  0  0  0  0  0  0  0  0  0  0  0
   24.9617  -32.2639   -7.8016 C   0  0  0  0  0  0  0  0  0  0  0  0
   25.0288  -31.7609   -9.0816 C   0  0  0  0  0  0  0  0  0  0  0  0
   24.7444  -32.5629  -10.1925 C   0  0  0  0  0  0  0  0  0  0  0  0
   24.8044  -31.9853  -11.5474 C   0  0  0  0  0  0  0  0  0  0  0  0
   24.0380  -32.8591  -12.5099 C   0  0  2  0  0  0  0  0  0  0  0  0
   24.0648  -32.2038  -13.8030 N   0  0  0  0  0  0  0  0  0  0  0  0
   22.6329  -32.9713  -12.0700 C   0  0  0  0  0  0  0  0  0  0  0  0
   22.0503  -34.1158  -11.5492 O   0  0  0  0  0  0  0  0  0  0  0  0
   24.3951  -33.8712   -9.9611 C   0  0  0  0  0  0  0  0  0  0  0  0
   24.3326  -34.3638   -8.6534 C   0  0  0  0  0  0  0  0  0  0  0  0
   21.8591  -31.9675  -12.1589 O   0  0  0  0  0  0  0  0  0  0  0  0
  2  1  1  0
  3  2  1  0
  3  4  1  1
  5  3  1  0
  5  7  1  0
  6  5  2  0
  8  7  1  0
  8  9  1  6
 10  9  1  0
 11 10  2  0
 12 13  1  0
 12 11  1  0
 13 14  2  0
 14 10  1  0
 15  8  1  0
 16 15  2  0
 17 18  1  0
 18 19  2  0
 18 28  1  0
 19 20  1  0
 20 21  2  0
 21 22  1  0
 23 22  1  1
 23 24  1  0
 23 25  1  0
 24 15  1  0
 25 26  1  0
 27 21  1  0
 28 27  2  0
 29 25  2  0
M  END
$$$$
