QHS.pdb
     RDKit          3D

 26 26  0  0  1  0  0  0  0  0999 V2000
   16.7168  -11.0789  -14.7816 N   0  0  0  0  0  0  0  0  0  0  0  0
   16.9789  -11.8753  -15.9421 C   0  0  0  0  0  0  0  0  0  0  0  0
   16.0512  -12.5589  -16.4246 O   0  0  0  0  0  0  0  0  0  0  0  0
   18.3138  -11.8537  -16.5168 C   0  0  0  0  0  0  0  0  0  0  0  0
   19.3440  -11.0544  -15.7920 C   0  0  0  0  0  0  0  0  0  0  0  0
   20.7140  -11.0934  -16.3736 C   0  0  2  0  0  0  0  0  0  0  0  0
   21.2446  -12.4172  -16.4312 N   0  0  0  0  0  0  0  0  0  0  0  0
   21.6235  -10.0944  -15.7452 C   0  0  0  0  0  0  0  0  0  0  0  0
   21.9581  -10.2798  -14.5318 O   0  0  0  0  0  0  0  0  0  0  0  0
   22.1177   -8.9782  -16.4157 N   0  0  0  0  0  0  0  0  0  0  0  0
   23.0407   -8.0150  -15.8006 C   0  0  1  0  0  0  0  0  0  0  0  0
   24.3506   -8.0177  -16.4939 C   0  0  0  0  0  0  0  0  0  0  0  0
   25.2187   -9.1621  -16.2448 C   0  0  0  0  0  0  0  0  0  0  0  0
   24.9822  -10.2093  -15.3876 C   0  0  0  0  0  0  0  0  0  0  0  0
   26.0180  -11.0683  -15.4292 N   0  0  0  0  0  0  0  0  0  0  0  0
   26.8918  -10.5485  -16.3129 C   0  0  0  0  0  0  0  0  0  0  0  0
   26.4105   -9.3924  -16.8098 N   0  0  0  0  0  0  0  0  0  0  0  0
   22.4123   -6.6538  -15.9983 C   0  0  0  0  0  0  0  0  0  0  0  0
   21.7051   -6.4490  -17.0240 O   0  0  0  0  0  0  0  0  0  0  0  0
   20.9012   -4.5480  -13.0742 O   0  0  0  0  0  0  0  0  0  0  0  0
   21.6214   -3.6914  -13.8824 C   0  0  0  0  0  0  0  0  0  0  0  0
   21.9508   -4.3017  -15.2246 C   0  0  2  0  0  0  0  0  0  0  0  0
   22.5807   -5.5998  -15.0866 N   0  0  0  0  0  0  0  0  0  0  0  0
   22.7766   -3.4114  -16.0704 C   0  0  0  0  0  0  0  0  0  0  0  0
   22.1966   -2.3473  -16.7623 O   0  0  0  0  0  0  0  0  0  0  0  0
   24.0010   -3.5756  -16.1948 O   0  0  0  0  0  0  0  0  0  0  0  0
  2  3  2  0
  2  1  1  0
  4  2  1  0
  5  6  1  0
  5  4  1  0
  6  7  1  1
  8  6  1  0
  8  9  2  0
 10  8  1  0
 11 10  1  0
 12 13  1  0
 11 12  1  6
 13 14  2  0
 14 15  1  0
 16 15  1  0
 17 13  1  0
 17 16  2  0
 18 11  1  0
 19 18  2  0
 21 20  1  0
 22 23  1  0
 22 21  1  1
 23 18  1  0
 24 22  1  0
 25 24  1  0
 26 24  2  0
M  END
$$$$
