QHS.pdb
     RDKit          3D

 26 26  0  0  1  0  0  0  0  0999 V2000
   28.7059  -10.9705  -17.2502 N   0  0  0  0  0  0  0  0  0  0  0  0
   28.1446  -11.7230  -16.1693 C   0  0  0  0  0  0  0  0  0  0  0  0
   28.9034  -12.4230  -15.4659 O   0  0  0  0  0  0  0  0  0  0  0  0
   26.7134  -11.6393  -15.9296 C   0  0  0  0  0  0  0  0  0  0  0  0
   25.9332  -10.7414  -16.8299 C   0  0  0  0  0  0  0  0  0  0  0  0
   25.3491   -9.5337  -16.1840 C   0  0  2  0  0  0  0  0  0  0  0  0
   25.2859   -9.6518  -14.7629 N   0  0  0  0  0  0  0  0  0  0  0  0
   24.0699   -9.1139  -16.8225 C   0  0  0  0  0  0  0  0  0  0  0  0
   24.0230   -9.0903  -18.0937 O   0  0  0  0  0  0  0  0  0  0  0  0
   22.9362   -8.7480  -16.1010 N   0  0  0  0  0  0  0  0  0  0  0  0
   21.6665   -8.3714  -16.7367 C   0  0  1  0  0  0  0  0  0  0  0  0
   20.5523   -9.2103  -16.2352 C   0  0  0  0  0  0  0  0  0  0  0  0
   20.4277  -10.5432  -16.8125 C   0  0  0  0  0  0  0  0  0  0  0  0
   21.1558  -11.0657  -17.8538 C   0  0  0  0  0  0  0  0  0  0  0  0
   20.7482  -12.3246  -18.1015 N   0  0  0  0  0  0  0  0  0  0  0  0
   19.7688  -12.5761  -17.2115 C   0  0  0  0  0  0  0  0  0  0  0  0
   19.5715  -11.4981  -16.4278 N   0  0  0  0  0  0  0  0  0  0  0  0
   21.3996   -6.9435  -16.3163 C   0  0  0  0  0  0  0  0  0  0  0  0
   21.7230   -6.5773  -15.1521 O   0  0  0  0  0  0  0  0  0  0  0  0
   21.4731   -3.8550  -18.9248 O   0  0  0  0  0  0  0  0  0  0  0  0
   20.4208   -3.7398  -18.0386 C   0  0  0  0  0  0  0  0  0  0  0  0
   20.5962   -4.6092  -16.8157 C   0  0  2  0  0  0  0  0  0  0  0  0
   20.8044   -5.9997  -17.1680 N   0  0  0  0  0  0  0  0  0  0  0  0
   19.4771   -4.4788  -15.8562 C   0  0  0  0  0  0  0  0  0  0  0  0
   19.5891   -3.6486  -14.7402 O   0  0  0  0  0  0  0  0  0  0  0  0
   18.4099   -5.0954  -16.0061 O   0  0  0  0  0  0  0  0  0  0  0  0
  2  3  2  0
  2  1  1  0
  4  2  1  0
  5  6  1  0
  5  4  1  0
  6  7  1  1
  8  6  1  0
  8  9  2  0
 10  8  1  0
 11 10  1  0
 12 13  1  0
 11 12  1  1
 13 14  2  0
 14 15  1  0
 16 15  1  0
 17 13  1  0
 17 16  2  0
 18 11  1  0
 19 18  2  0
 21 20  1  0
 22 23  1  0
 22 21  1  6
 23 18  1  0
 24 22  1  0
 25 24  1  0
 26 24  2  0
M  END
$$$$
