QHS.pdb
     RDKit          3D

 26 26  0  0  1  0  0  0  0  0999 V2000
   16.9630  -18.5671    3.5782 N   0  0  0  0  0  0  0  0  0  0  0  0
   15.6298  -18.2081    3.1996 C   0  0  0  0  0  0  0  0  0  0  0  0
   15.0451  -17.3074    3.8380 O   0  0  0  0  0  0  0  0  0  0  0  0
   15.0099  -18.9029    2.0834 C   0  0  0  0  0  0  0  0  0  0  0  0
   15.7937  -20.0104    1.4632 C   0  0  0  0  0  0  0  0  0  0  0  0
   15.2914  -21.3849    1.7371 C   0  0  2  0  0  0  0  0  0  0  0  0
   13.8930  -21.5154    1.4826 N   0  0  0  0  0  0  0  0  0  0  0  0
   15.7219  -21.8886    3.0717 C   0  0  0  0  0  0  0  0  0  0  0  0
   14.8575  -22.4936    3.7827 O   0  0  0  0  0  0  0  0  0  0  0  0
   17.0114  -21.7282    3.5729 N   0  0  0  0  0  0  0  0  0  0  0  0
   17.4596  -22.3190    4.8410 C   0  0  1  0  0  0  0  0  0  0  0  0
   18.8846  -22.7195    4.7659 C   0  0  0  0  0  0  0  0  0  0  0  0
   19.1744  -23.9763    4.0864 C   0  0  0  0  0  0  0  0  0  0  0  0
   18.2663  -24.8511    3.5410 C   0  0  0  0  0  0  0  0  0  0  0  0
   18.9174  -25.9006    3.0053 N   0  0  0  0  0  0  0  0  0  0  0  0
   20.2270  -25.6705    3.2215 C   0  0  0  0  0  0  0  0  0  0  0  0
   20.3869  -24.5043    3.8769 N   0  0  0  0  0  0  0  0  0  0  0  0
   17.3383  -21.2224    5.8753 C   0  0  0  0  0  0  0  0  0  0  0  0
   17.6940  -20.0502    5.5695 O   0  0  0  0  0  0  0  0  0  0  0  0
   15.1225  -19.3375    9.6360 O   0  0  0  0  0  0  0  0  0  0  0  0
   15.2951  -20.3634    8.7285 C   0  0  0  0  0  0  0  0  0  0  0  0
   16.6995  -20.4158    8.1743 C   0  0  2  0  0  0  0  0  0  0  0  0
   16.8445  -21.4503    7.1694 N   0  0  0  0  0  0  0  0  0  0  0  0
   17.7253  -20.5702    9.2298 C   0  0  0  0  0  0  0  0  0  0  0  0
   18.5091  -21.7228    9.2976 O   0  0  0  0  0  0  0  0  0  0  0  0
   17.9247  -19.6913   10.0838 O   0  0  0  0  0  0  0  0  0  0  0  0
  2  3  2  0
  2  1  1  0
  4  2  1  0
  5  6  1  0
  5  4  1  0
  6  7  1  1
  8  6  1  0
  8  9  2  0
 10  8  1  0
 11 10  1  0
 12 13  1  0
 11 12  1  6
 13 14  2  0
 14 15  1  0
 16 15  1  0
 17 13  1  0
 17 16  2  0
 18 11  1  0
 19 18  2  0
 21 20  1  0
 22 23  1  0
 22 21  1  1
 23 18  1  0
 24 22  1  0
 25 24  1  0
 26 24  2  0
M  END
$$$$
