QHS.pdb
     RDKit          3D

 26 26  0  0  1  0  0  0  0  0999 V2000
   17.7614  -15.2241  -15.2590 N   0  0  0  0  0  0  0  0  0  0  0  0
   18.2876  -15.4151  -16.5767 C   0  0  0  0  0  0  0  0  0  0  0  0
   18.2056  -16.5470  -17.0989 O   0  0  0  0  0  0  0  0  0  0  0  0
   18.8929  -14.2826  -17.2577 C   0  0  0  0  0  0  0  0  0  0  0  0
   18.8898  -12.9809  -16.5289 C   0  0  0  0  0  0  0  0  0  0  0  0
   19.4721  -11.8282  -17.2698 C   0  0  2  0  0  0  0  0  0  0  0  0
   20.7040  -12.1581  -17.9109 N   0  0  0  0  0  0  0  0  0  0  0  0
   19.5238  -10.5912  -16.4407 C   0  0  0  0  0  0  0  0  0  0  0  0
   18.7367  -10.5137  -15.4441 O   0  0  0  0  0  0  0  0  0  0  0  0
   20.3822   -9.5265  -16.7037 N   0  0  0  0  0  0  0  0  0  0  0  0
   20.4443   -8.3195  -15.8686 C   0  0  1  0  0  0  0  0  0  0  0  0
   21.8459   -7.8766  -15.6792 C   0  0  0  0  0  0  0  0  0  0  0  0
   22.0406   -6.5873  -15.0270 C   0  0  0  0  0  0  0  0  0  0  0  0
   21.7654   -6.2716  -13.7186 C   0  0  0  0  0  0  0  0  0  0  0  0
   22.0752   -4.9813  -13.4918 N   0  0  0  0  0  0  0  0  0  0  0  0
   22.5413   -4.5036  -14.6619 C   0  0  0  0  0  0  0  0  0  0  0  0
   22.5220   -5.4747  -15.5955 N   0  0  0  0  0  0  0  0  0  0  0  0
   19.7163   -7.2426  -16.6414 C   0  0  0  0  0  0  0  0  0  0  0  0
   19.9925   -7.0715  -17.8614 O   0  0  0  0  0  0  0  0  0  0  0  0
   16.3566   -3.6758  -16.6149 O   0  0  0  0  0  0  0  0  0  0  0  0
   16.9622   -4.7327  -15.9651 C   0  0  0  0  0  0  0  0  0  0  0  0
   18.1628   -5.2614  -16.7143 C   0  0  2  0  0  0  0  0  0  0  0  0
   18.7402   -6.4185  -16.0596 N   0  0  0  0  0  0  0  0  0  0  0  0
   19.1950   -4.2260  -16.9437 C   0  0  0  0  0  0  0  0  0  0  0  0
   19.4743   -3.7727  -18.2336 O   0  0  0  0  0  0  0  0  0  0  0  0
   19.8431   -3.7280  -16.0091 O   0  0  0  0  0  0  0  0  0  0  0  0
  2  3  2  0
  2  1  1  0
  4  2  1  0
  5  6  1  0
  5  4  1  0
  6  7  1  1
  8  6  1  0
  8  9  2  0
 10  8  1  0
 11 10  1  0
 12 13  1  0
 11 12  1  6
 13 14  2  0
 14 15  1  0
 16 15  1  0
 17 13  1  0
 17 16  2  0
 18 11  1  0
 19 18  2  0
 21 20  1  0
 22 23  1  0
 22 21  1  1
 23 18  1  0
 24 22  1  0
 25 24  1  0
 26 24  2  0
M  END
$$$$
