QHS.pdb
     RDKit          3D

 26 26  0  0  1  0  0  0  0  0999 V2000
   34.4624  -31.8647  -20.5102 N   0  0  0  0  0  0  0  0  0  0  0  0
   34.5624  -30.5462  -21.0589 C   0  0  0  0  0  0  0  0  0  0  0  0
   35.2566  -30.3718  -22.0828 O   0  0  0  0  0  0  0  0  0  0  0  0
   33.8481  -29.4620  -20.4055 C   0  0  0  0  0  0  0  0  0  0  0  0
   33.0335  -29.8202  -19.2081 C   0  0  0  0  0  0  0  0  0  0  0  0
   31.6782  -30.3665  -19.4930 C   0  0  2  0  0  0  0  0  0  0  0  0
   30.8036  -29.3894  -20.0566 N   0  0  0  0  0  0  0  0  0  0  0  0
   31.1085  -31.1013  -18.3286 C   0  0  0  0  0  0  0  0  0  0  0  0
   31.9081  -31.7808  -17.6092 O   0  0  0  0  0  0  0  0  0  0  0  0
   29.7564  -31.0811  -17.9955 N   0  0  0  0  0  0  0  0  0  0  0  0
   29.2023  -31.8029  -16.8422 C   0  0  1  0  0  0  0  0  0  0  0  0
   27.8883  -31.2430  -16.4468 C   0  0  0  0  0  0  0  0  0  0  0  0
   27.2135  -31.8891  -15.3276 C   0  0  0  0  0  0  0  0  0  0  0  0
   27.6190  -31.9067  -14.0151 C   0  0  0  0  0  0  0  0  0  0  0  0
   26.7359  -32.6082  -13.2801 N   0  0  0  0  0  0  0  0  0  0  0  0
   25.7866  -33.0221  -14.1417 C   0  0  0  0  0  0  0  0  0  0  0  0
   26.0728  -32.5877  -15.3846 N   0  0  0  0  0  0  0  0  0  0  0  0
   28.9811  -33.2240  -17.3094 C   0  0  0  0  0  0  0  0  0  0  0  0
   28.4735  -33.4221  -18.4484 O   0  0  0  0  0  0  0  0  0  0  0  0
   29.7951  -36.6074  -14.8250 O   0  0  0  0  0  0  0  0  0  0  0  0
   30.0162  -36.6663  -16.1864 C   0  0  0  0  0  0  0  0  0  0  0  0
   29.1336  -35.7134  -16.9580 C   0  0  2  0  0  0  0  0  0  0  0  0
   29.3170  -34.3412  -16.5287 N   0  0  0  0  0  0  0  0  0  0  0  0
   27.7029  -36.0876  -16.9029 C   0  0  0  0  0  0  0  0  0  0  0  0
   27.2753  -37.3354  -17.3585 O   0  0  0  0  0  0  0  0  0  0  0  0
   26.8400  -35.3153  -16.4551 O   0  0  0  0  0  0  0  0  0  0  0  0
  2  3  2  0
  2  1  1  0
  4  2  1  0
  5  6  1  0
  5  4  1  0
  6  7  1  1
  8  6  1  0
  8  9  2  0
 10  8  1  0
 11 10  1  0
 12 13  1  0
 11 12  1  6
 13 14  2  0
 14 15  1  0
 16 15  1  0
 17 13  1  0
 17 16  2  0
 18 11  1  0
 19 18  2  0
 21 20  1  0
 22 23  1  0
 22 21  1  1
 23 18  1  0
 24 22  1  0
 25 24  1  0
 26 24  2  0
M  END
$$$$
