QHS.pdb
     RDKit          3D

 26 26  0  0  1  0  0  0  0  0999 V2000
   26.7652  -21.9837  -15.9124 N   0  0  0  0  0  0  0  0  0  0  0  0
   27.1122  -20.6942  -15.3964 C   0  0  0  0  0  0  0  0  0  0  0  0
   28.1899  -20.1733  -15.7541 O   0  0  0  0  0  0  0  0  0  0  0  0
   26.1942  -20.0389  -14.4796 C   0  0  0  0  0  0  0  0  0  0  0  0
   24.9254  -20.7599  -14.1703 C   0  0  0  0  0  0  0  0  0  0  0  0
   24.5355  -20.7872  -12.7336 C   0  0  2  0  0  0  0  0  0  0  0  0
   25.3830  -21.6309  -11.9544 N   0  0  0  0  0  0  0  0  0  0  0  0
   23.0790  -21.0403  -12.5478 C   0  0  0  0  0  0  0  0  0  0  0  0
   22.6896  -22.2508  -12.5047 O   0  0  0  0  0  0  0  0  0  0  0  0
   22.1337  -20.0252  -12.4226 N   0  0  0  0  0  0  0  0  0  0  0  0
   20.7144  -20.2795  -12.1412 C   0  0  1  0  0  0  0  0  0  0  0  0
   20.3296  -19.7347  -10.8177 C   0  0  0  0  0  0  0  0  0  0  0  0
   20.4719  -20.6309   -9.6765 C   0  0  0  0  0  0  0  0  0  0  0  0
   20.9084  -21.9333   -9.6963 C   0  0  0  0  0  0  0  0  0  0  0  0
   20.8983  -22.4308   -8.4453 N   0  0  0  0  0  0  0  0  0  0  0  0
   20.4552  -21.4331   -7.6561 C   0  0  0  0  0  0  0  0  0  0  0  0
   20.1956  -20.3397   -8.3992 N   0  0  0  0  0  0  0  0  0  0  0  0
   19.9402  -19.5243  -13.1982 C   0  0  0  0  0  0  0  0  0  0  0  0
   20.3141  -18.3613  -13.5172 O   0  0  0  0  0  0  0  0  0  0  0  0
   18.6206  -21.0928  -16.5059 O   0  0  0  0  0  0  0  0  0  0  0  0
   17.5979  -20.3475  -15.9541 C   0  0  0  0  0  0  0  0  0  0  0  0
   18.0883  -19.3834  -14.8995 C   0  0  2  0  0  0  0  0  0  0  0  0
   18.8166  -20.0616  -13.8457 N   0  0  0  0  0  0  0  0  0  0  0  0
   17.0004  -18.5574  -14.3298 C   0  0  0  0  0  0  0  0  0  0  0  0
   16.7854  -18.5156  -12.9516 O   0  0  0  0  0  0  0  0  0  0  0  0
   16.2477  -17.8793  -15.0474 O   0  0  0  0  0  0  0  0  0  0  0  0
  2  3  2  0
  2  1  1  0
  4  2  1  0
  5  6  1  0
  5  4  1  0
  6  7  1  1
  8  6  1  0
  8  9  2  0
 10  8  1  0
 11 10  1  0
 12 13  1  0
 11 12  1  1
 13 14  2  0
 14 15  1  0
 16 15  1  0
 17 13  1  0
 17 16  2  0
 18 11  1  0
 19 18  2  0
 21 20  1  0
 22 23  1  0
 22 21  1  6
 23 18  1  0
 24 22  1  0
 25 24  1  0
 26 24  2  0
M  END
$$$$
