QHS.pdb
     RDKit          3D

 26 26  0  0  1  0  0  0  0  0999 V2000
   18.1327  -10.5056  -18.2474 N   0  0  0  0  0  0  0  0  0  0  0  0
   18.4251  -11.6810  -19.0106 C   0  0  0  0  0  0  0  0  0  0  0  0
   17.7634  -11.9059  -20.0462 O   0  0  0  0  0  0  0  0  0  0  0  0
   19.4843  -12.5650  -18.5531 C   0  0  0  0  0  0  0  0  0  0  0  0
   20.2445  -12.1326  -17.3445 C   0  0  0  0  0  0  0  0  0  0  0  0
   21.7247  -12.0867  -17.4987 C   0  0  2  0  0  0  0  0  0  0  0  0
   22.2811  -13.3651  -17.8043 N   0  0  0  0  0  0  0  0  0  0  0  0
   22.3895  -11.3829  -16.3661 C   0  0  0  0  0  0  0  0  0  0  0  0
   22.2069  -11.8436  -15.1942 O   0  0  0  0  0  0  0  0  0  0  0  0
   23.1909  -10.2554  -16.5277 N   0  0  0  0  0  0  0  0  0  0  0  0
   23.7397   -9.4914  -15.3993 C   0  0  1  0  0  0  0  0  0  0  0  0
   25.1582   -9.1352  -15.6392 C   0  0  0  0  0  0  0  0  0  0  0  0
   26.1139  -10.2360  -15.6555 C   0  0  0  0  0  0  0  0  0  0  0  0
   25.8520  -11.5631  -15.4159 C   0  0  0  0  0  0  0  0  0  0  0  0
   26.9916  -12.2727  -15.5179 N   0  0  0  0  0  0  0  0  0  0  0  0
   27.9546  -11.3808  -15.8206 C   0  0  0  0  0  0  0  0  0  0  0  0
   27.4262  -10.1443  -15.9049 N   0  0  0  0  0  0  0  0  0  0  0  0
   22.9413   -8.2085  -15.3397 C   0  0  0  0  0  0  0  0  0  0  0  0
   23.2218   -7.3533  -14.4542 O   0  0  0  0  0  0  0  0  0  0  0  0
   20.0711   -4.9340  -17.3518 O   0  0  0  0  0  0  0  0  0  0  0  0
   20.8808   -6.0483  -17.4430 C   0  0  0  0  0  0  0  0  0  0  0  0
   21.0318   -6.7638  -16.1210 C   0  0  2  0  0  0  0  0  0  0  0  0
   21.8949   -7.9230  -16.2308 N   0  0  0  0  0  0  0  0  0  0  0  0
   19.7316   -7.1396  -15.5225 C   0  0  0  0  0  0  0  0  0  0  0  0
   19.1120   -6.3100  -14.5870 O   0  0  0  0  0  0  0  0  0  0  0  0
   19.1504   -8.1939  -15.8263 O   0  0  0  0  0  0  0  0  0  0  0  0
  2  3  2  0
  2  1  1  0
  4  2  1  0
  5  6  1  0
  5  4  1  0
  6  7  1  1
  8  6  1  0
  8  9  2  0
 10  8  1  0
 11 10  1  0
 12 13  1  0
 11 12  1  6
 13 14  2  0
 14 15  1  0
 16 15  1  0
 17 13  1  0
 17 16  2  0
 18 11  1  0
 19 18  2  0
 21 20  1  0
 22 23  1  0
 22 21  1  6
 23 18  1  0
 24 22  1  0
 25 24  1  0
 26 24  2  0
M  END
$$$$
