QHS.pdb
     RDKit          3D

 26 26  0  0  1  0  0  0  0  0999 V2000
   15.6698  -14.5732  -14.9566 N   0  0  0  0  0  0  0  0  0  0  0  0
   16.3793  -13.3772  -15.2969 C   0  0  0  0  0  0  0  0  0  0  0  0
   17.4980  -13.4764  -15.8442 O   0  0  0  0  0  0  0  0  0  0  0  0
   15.7679  -12.0932  -14.9964 C   0  0  0  0  0  0  0  0  0  0  0  0
   16.5668  -11.1476  -14.1637 C   0  0  0  0  0  0  0  0  0  0  0  0
   15.8067  -10.4182  -13.1116 C   0  0  2  0  0  0  0  0  0  0  0  0
   14.3941  -10.5300  -13.2827 N   0  0  0  0  0  0  0  0  0  0  0  0
   16.2940   -9.0222  -12.9274 C   0  0  0  0  0  0  0  0  0  0  0  0
   15.6953   -8.0977  -13.5642 O   0  0  0  0  0  0  0  0  0  0  0  0
   17.3638   -8.6857  -12.1016 N   0  0  0  0  0  0  0  0  0  0  0  0
   17.7356   -7.2981  -11.7940 C   0  0  1  0  0  0  0  0  0  0  0  0
   17.7399   -7.0615  -10.3309 C   0  0  0  0  0  0  0  0  0  0  0  0
   16.4392   -7.0076   -9.6746 C   0  0  0  0  0  0  0  0  0  0  0  0
   15.2058   -7.0932  -10.2734 C   0  0  0  0  0  0  0  0  0  0  0  0
   14.2430   -6.9985   -9.3372 N   0  0  0  0  0  0  0  0  0  0  0  0
   14.8854   -6.8547   -8.1619 C   0  0  0  0  0  0  0  0  0  0  0  0
   16.2176   -6.8598   -8.3624 N   0  0  0  0  0  0  0  0  0  0  0  0
   19.1514   -7.1268  -12.2973 C   0  0  0  0  0  0  0  0  0  0  0  0
   19.9947   -8.0400  -12.0759 O   0  0  0  0  0  0  0  0  0  0  0  0
   19.8943   -6.1810  -15.8406 O   0  0  0  0  0  0  0  0  0  0  0  0
   20.7278   -5.3843  -15.0814 C   0  0  0  0  0  0  0  0  0  0  0  0
   20.8617   -5.8765  -13.6594 C   0  0  2  0  0  0  0  0  0  0  0  0
   19.5736   -5.9902  -13.0046 N   0  0  0  0  0  0  0  0  0  0  0  0
   21.7832   -5.0467  -12.8516 C   0  0  0  0  0  0  0  0  0  0  0  0
   23.1616   -5.1037  -13.0612 O   0  0  0  0  0  0  0  0  0  0  0  0
   21.3697   -4.2785  -11.9681 O   0  0  0  0  0  0  0  0  0  0  0  0
  2  3  2  0
  2  1  1  0
  4  2  1  0
  5  6  1  0
  5  4  1  0
  6  7  1  6
  8  6  1  0
  8  9  2  0
 10  8  1  0
 11 10  1  0
 12 13  1  0
 11 12  1  1
 13 14  2  0
 14 15  1  0
 16 15  1  0
 17 13  1  0
 17 16  2  0
 18 11  1  0
 19 18  2  0
 21 20  1  0
 22 23  1  0
 22 21  1  6
 23 18  1  0
 24 22  1  0
 25 24  1  0
 26 24  2  0
M  END
$$$$
