QHS.pdb
     RDKit          3D

 26 26  0  0  1  0  0  0  0  0999 V2000
   26.8976  -19.2436  -18.4672 N   0  0  0  0  0  0  0  0  0  0  0  0
   28.0180  -20.1056  -18.6933 C   0  0  0  0  0  0  0  0  0  0  0  0
   28.6155  -20.0407  -19.7886 O   0  0  0  0  0  0  0  0  0  0  0  0
   28.4199  -21.0200  -17.6373 C   0  0  0  0  0  0  0  0  0  0  0  0
   27.7104  -20.8909  -16.3314 C   0  0  0  0  0  0  0  0  0  0  0  0
   27.3575  -22.1732  -15.6623 C   0  0  2  0  0  0  0  0  0  0  0  0
   27.6703  -23.3114  -16.4649 N   0  0  0  0  0  0  0  0  0  0  0  0
   25.9686  -22.1659  -15.1226 C   0  0  0  0  0  0  0  0  0  0  0  0
   25.1671  -23.0615  -15.5397 O   0  0  0  0  0  0  0  0  0  0  0  0
   25.5110  -21.2335  -14.1948 N   0  0  0  0  0  0  0  0  0  0  0  0
   24.1787  -21.3000  -13.5794 C   0  0  1  0  0  0  0  0  0  0  0  0
   24.1189  -20.4714  -12.3519 C   0  0  0  0  0  0  0  0  0  0  0  0
   22.8387  -20.4276  -11.6558 C   0  0  0  0  0  0  0  0  0  0  0  0
   21.6780  -21.0679  -12.0163 C   0  0  0  0  0  0  0  0  0  0  0  0
   20.7097  -20.7802  -11.1265 N   0  0  0  0  0  0  0  0  0  0  0  0
   21.2758  -19.9623  -10.2181 C   0  0  0  0  0  0  0  0  0  0  0  0
   22.5672  -19.7461  -10.5356 N   0  0  0  0  0  0  0  0  0  0  0  0
   23.2247  -20.7039  -14.5901 C   0  0  0  0  0  0  0  0  0  0  0  0
   23.5656  -19.6595  -15.2122 O   0  0  0  0  0  0  0  0  0  0  0  0
   19.6393  -21.3214  -17.7147 O   0  0  0  0  0  0  0  0  0  0  0  0
   20.5057  -21.8144  -16.7597 C   0  0  0  0  0  0  0  0  0  0  0  0
   21.0470  -20.7321  -15.8553 C   0  0  2  0  0  0  0  0  0  0  0  0
   21.9681  -21.2633  -14.8702 N   0  0  0  0  0  0  0  0  0  0  0  0
   19.9775  -19.9494  -15.1968 C   0  0  0  0  0  0  0  0  0  0  0  0
   19.5324  -18.7474  -15.7486 O   0  0  0  0  0  0  0  0  0  0  0  0
   19.4428  -20.3278  -14.1421 O   0  0  0  0  0  0  0  0  0  0  0  0
  2  3  2  0
  2  1  1  0
  4  2  1  0
  5  6  1  0
  5  4  1  0
  6  7  1  6
  8  6  1  0
  8  9  2  0
 10  8  1  0
 11 10  1  0
 12 13  1  0
 11 12  1  1
 13 14  2  0
 14 15  1  0
 16 15  1  0
 17 13  1  0
 17 16  2  0
 18 11  1  0
 19 18  2  0
 21 20  1  0
 22 23  1  0
 22 21  1  1
 23 18  1  0
 24 22  1  0
 25 24  1  0
 26 24  2  0
M  END
$$$$
