QHS.pdb
     RDKit          3D

 26 26  0  0  1  0  0  0  0  0999 V2000
   24.5725  -20.7369   -9.5180 N   0  0  0  0  0  0  0  0  0  0  0  0
   25.9736  -20.9883   -9.6712 C   0  0  0  0  0  0  0  0  0  0  0  0
   26.5971  -21.5151   -8.7255 O   0  0  0  0  0  0  0  0  0  0  0  0
   26.6153  -20.6248  -10.9237 C   0  0  0  0  0  0  0  0  0  0  0  0
   25.7632  -19.9448  -11.9421 C   0  0  0  0  0  0  0  0  0  0  0  0
   24.8954  -20.8405  -12.7553 C   0  0  2  0  0  0  0  0  0  0  0  0
   25.6368  -21.8662  -13.4154 N   0  0  0  0  0  0  0  0  0  0  0  0
   23.9741  -20.0795  -13.6454 C   0  0  0  0  0  0  0  0  0  0  0  0
   23.3040  -19.1290  -13.1295 O   0  0  0  0  0  0  0  0  0  0  0  0
   23.8121  -20.3582  -15.0003 N   0  0  0  0  0  0  0  0  0  0  0  0
   22.8820  -19.6212  -15.8663 C   0  0  1  0  0  0  0  0  0  0  0  0
   23.4097  -19.5202  -17.2477 C   0  0  0  0  0  0  0  0  0  0  0  0
   24.5114  -18.5891  -17.4591 C   0  0  0  0  0  0  0  0  0  0  0  0
   24.9931  -17.6607  -16.5684 C   0  0  0  0  0  0  0  0  0  0  0  0
   26.0137  -16.9854  -17.1295 N   0  0  0  0  0  0  0  0  0  0  0  0
   26.1594  -17.4994  -18.3661 C   0  0  0  0  0  0  0  0  0  0  0  0
   25.2501  -18.4724  -18.5697 N   0  0  0  0  0  0  0  0  0  0  0  0
   21.6152  -20.4458  -15.9112 C   0  0  0  0  0  0  0  0  0  0  0  0
   21.7032  -21.7051  -15.8889 O   0  0  0  0  0  0  0  0  0  0  0  0
   17.8698  -21.5642  -13.8407 O   0  0  0  0  0  0  0  0  0  0  0  0
   19.0089  -20.8551  -14.1657 C   0  0  0  0  0  0  0  0  0  0  0  0
   19.1138  -20.5754  -15.6466 C   0  0  2  0  0  0  0  0  0  0  0  0
   20.3365  -19.8705  -15.9769 N   0  0  0  0  0  0  0  0  0  0  0  0
   17.9374  -19.8503  -16.1762 C   0  0  0  0  0  0  0  0  0  0  0  0
   16.7403  -20.5223  -16.4266 O   0  0  0  0  0  0  0  0  0  0  0  0
   17.9708  -18.6323  -16.4146 O   0  0  0  0  0  0  0  0  0  0  0  0
  2  3  2  0
  2  1  1  0
  4  2  1  0
  5  6  1  0
  5  4  1  0
  6  7  1  6
  8  6  1  0
  8  9  2  0
 10  8  1  0
 11 10  1  0
 12 13  1  0
 11 12  1  6
 13 14  2  0
 14 15  1  0
 16 15  1  0
 17 13  1  0
 17 16  2  0
 18 11  1  0
 19 18  2  0
 21 20  1  0
 22 23  1  0
 22 21  1  1
 23 18  1  0
 24 22  1  0
 25 24  1  0
 26 24  2  0
M  END
$$$$
