QHS.pdb
     RDKit          3D

 26 26  0  0  1  0  0  0  0  0999 V2000
   20.8073  -22.1881  -13.6993 N   0  0  0  0  0  0  0  0  0  0  0  0
   20.3875  -22.1929  -15.0680 C   0  0  0  0  0  0  0  0  0  0  0  0
   19.6491  -23.1182  -15.4674 O   0  0  0  0  0  0  0  0  0  0  0  0
   20.8332  -21.1179  -15.9389 C   0  0  0  0  0  0  0  0  0  0  0  0
   21.6562  -20.0433  -15.3117 C   0  0  0  0  0  0  0  0  0  0  0  0
   23.1305  -20.2387  -15.3831 C   0  0  2  0  0  0  0  0  0  0  0  0
   23.5523  -21.4447  -14.7468 N   0  0  0  0  0  0  0  0  0  0  0  0
   23.8828  -19.0249  -14.9580 C   0  0  0  0  0  0  0  0  0  0  0  0
   24.0400  -18.8331  -13.7101 O   0  0  0  0  0  0  0  0  0  0  0  0
   24.4145  -18.0992  -15.8526 N   0  0  0  0  0  0  0  0  0  0  0  0
   25.1502  -16.9012  -15.4263 C   0  0  1  0  0  0  0  0  0  0  0  0
   26.6119  -17.0942  -15.5774 C   0  0  0  0  0  0  0  0  0  0  0  0
   27.2076  -18.1885  -14.8204 C   0  0  0  0  0  0  0  0  0  0  0  0
   27.7460  -19.3472  -15.3250 C   0  0  0  0  0  0  0  0  0  0  0  0
   28.1928  -20.1144  -14.3130 N   0  0  0  0  0  0  0  0  0  0  0  0
   27.9288  -19.4264  -13.1853 C   0  0  0  0  0  0  0  0  0  0  0  0
   27.3313  -18.2577  -13.4890 N   0  0  0  0  0  0  0  0  0  0  0  0
   24.7267  -15.7971  -16.3689 C   0  0  0  0  0  0  0  0  0  0  0  0
   24.6945  -16.0298  -17.6094 O   0  0  0  0  0  0  0  0  0  0  0  0
   24.0431  -11.8063  -15.0379 O   0  0  0  0  0  0  0  0  0  0  0  0
   23.2650  -12.3281  -16.0518 C   0  0  0  0  0  0  0  0  0  0  0  0
   23.9624  -13.4370  -16.8043 C   0  0  2  0  0  0  0  0  0  0  0  0
   24.3649  -14.5159  -15.9240 N   0  0  0  0  0  0  0  0  0  0  0  0
   25.1167  -12.9538  -17.5944 C   0  0  0  0  0  0  0  0  0  0  0  0
   24.9209  -12.2286  -18.7705 O   0  0  0  0  0  0  0  0  0  0  0  0
   26.2879  -13.1727  -17.2451 O   0  0  0  0  0  0  0  0  0  0  0  0
  2  3  2  0
  2  1  1  0
  4  2  1  0
  5  6  1  0
  5  4  1  0
  6  7  1  1
  8  6  1  0
  8  9  2  0
 10  8  1  0
 11 10  1  0
 12 13  1  0
 11 12  1  6
 13 14  2  0
 14 15  1  0
 16 15  1  0
 17 13  1  0
 17 16  2  0
 18 11  1  0
 19 18  2  0
 21 20  1  0
 22 23  1  0
 22 21  1  1
 23 18  1  0
 24 22  1  0
 25 24  1  0
 26 24  2  0
M  END
$$$$
