QHS.pdb
     RDKit          3D

 26 26  0  0  1  0  0  0  0  0999 V2000
   19.1274  -14.7712  -16.0272 N   0  0  0  0  0  0  0  0  0  0  0  0
   20.4739  -15.0895  -15.6592 C   0  0  0  0  0  0  0  0  0  0  0  0
   21.3007  -14.1605  -15.5408 O   0  0  0  0  0  0  0  0  0  0  0  0
   20.8254  -16.4816  -15.4330 C   0  0  0  0  0  0  0  0  0  0  0  0
   19.7723  -17.4964  -15.7278 C   0  0  0  0  0  0  0  0  0  0  0  0
   19.2562  -18.2475  -14.5504 C   0  0  2  0  0  0  0  0  0  0  0  0
   19.8117  -17.7826  -13.3206 N   0  0  0  0  0  0  0  0  0  0  0  0
   19.3371  -19.7230  -14.7414 C   0  0  0  0  0  0  0  0  0  0  0  0
   18.8709  -20.2061  -15.8222 O   0  0  0  0  0  0  0  0  0  0  0  0
   19.8909  -20.5891  -13.8018 N   0  0  0  0  0  0  0  0  0  0  0  0
   19.9655  -22.0434  -13.9956 C   0  0  1  0  0  0  0  0  0  0  0  0
   21.3493  -22.5353  -13.7961 C   0  0  0  0  0  0  0  0  0  0  0  0
   22.3505  -22.0719  -14.7490 C   0  0  0  0  0  0  0  0  0  0  0  0
   22.1417  -21.2702  -15.8449 C   0  0  0  0  0  0  0  0  0  0  0  0
   23.3099  -21.0645  -16.4817 N   0  0  0  0  0  0  0  0  0  0  0  0
   24.2375  -21.7403  -15.7763 C   0  0  0  0  0  0  0  0  0  0  0  0
   23.6595  -22.3526  -14.7246 N   0  0  0  0  0  0  0  0  0  0  0  0
   19.0957  -22.6506  -12.9178 C   0  0  0  0  0  0  0  0  0  0  0  0
   18.7608  -21.9406  -11.9290 O   0  0  0  0  0  0  0  0  0  0  0  0
   17.7682  -25.2906   -9.6456 O   0  0  0  0  0  0  0  0  0  0  0  0
   18.5485  -24.7236  -10.6332 C   0  0  0  0  0  0  0  0  0  0  0  0
   17.8128  -24.5879  -11.9456 C   0  0  2  0  0  0  0  0  0  0  0  0
   18.6405  -23.9776  -12.9671 N   0  0  0  0  0  0  0  0  0  0  0  0
   16.5325  -23.8581  -11.8106 C   0  0  0  0  0  0  0  0  0  0  0  0
   16.5179  -22.4780  -11.6045 O   0  0  0  0  0  0  0  0  0  0  0  0
   15.4370  -24.4389  -11.8748 O   0  0  0  0  0  0  0  0  0  0  0  0
  2  3  2  0
  2  1  1  0
  4  2  1  0
  5  6  1  0
  5  4  1  0
  6  7  1  1
  8  6  1  0
  8  9  2  0
 10  8  1  0
 11 10  1  0
 12 13  1  0
 11 12  1  1
 13 14  2  0
 14 15  1  0
 16 15  1  0
 17 13  1  0
 17 16  2  0
 18 11  1  0
 19 18  2  0
 21 20  1  0
 22 23  1  0
 22 21  1  1
 23 18  1  0
 24 22  1  0
 25 24  1  0
 26 24  2  0
M  END
$$$$
