QHS.pdb
     RDKit          3D

 26 26  0  0  1  0  0  0  0  0999 V2000
   25.9926  -16.9269  -18.5008 N   0  0  0  0  0  0  0  0  0  0  0  0
   27.4001  -16.8640  -18.7551 C   0  0  0  0  0  0  0  0  0  0  0  0
   27.8457  -15.9201  -19.4416 O   0  0  0  0  0  0  0  0  0  0  0  0
   28.2568  -17.8988  -18.2004 C   0  0  0  0  0  0  0  0  0  0  0  0
   27.5911  -18.9559  -17.3849 C   0  0  0  0  0  0  0  0  0  0  0  0
   27.3228  -18.5982  -15.9648 C   0  0  2  0  0  0  0  0  0  0  0  0
   28.4846  -18.1060  -15.2975 N   0  0  0  0  0  0  0  0  0  0  0  0
   26.6085  -19.6825  -15.2339 C   0  0  0  0  0  0  0  0  0  0  0  0
   26.4950  -20.8103  -15.8118 O   0  0  0  0  0  0  0  0  0  0  0  0
   26.0630  -19.5207  -13.9627 N   0  0  0  0  0  0  0  0  0  0  0  0
   25.4255  -20.6141  -13.2170 C   0  0  1  0  0  0  0  0  0  0  0  0
   25.8504  -20.6068  -11.7971 C   0  0  0  0  0  0  0  0  0  0  0  0
   27.2671  -20.8340  -11.5385 C   0  0  0  0  0  0  0  0  0  0  0  0
   28.1904  -21.3714  -12.4022 C   0  0  0  0  0  0  0  0  0  0  0  0
   29.3932  -21.4246  -11.7998 N   0  0  0  0  0  0  0  0  0  0  0  0
   29.2088  -20.9193  -10.5647 C   0  0  0  0  0  0  0  0  0  0  0  0
   27.9206  -20.5598  -10.4025 N   0  0  0  0  0  0  0  0  0  0  0  0
   23.9400  -20.3344  -13.2597 C   0  0  0  0  0  0  0  0  0  0  0  0
   23.5333  -19.1547  -13.0678 O   0  0  0  0  0  0  0  0  0  0  0  0
   21.1870  -23.3708  -14.3155 O   0  0  0  0  0  0  0  0  0  0  0  0
   20.9638  -22.0601  -14.6871 C   0  0  0  0  0  0  0  0  0  0  0  0
   21.5766  -21.0725  -13.7220 C   0  0  2  0  0  0  0  0  0  0  0  0
   22.9857  -21.3342  -13.5049 N   0  0  0  0  0  0  0  0  0  0  0  0
   20.8552  -21.0115  -12.4313 C   0  0  0  0  0  0  0  0  0  0  0  0
   19.5566  -20.5049  -12.3648 O   0  0  0  0  0  0  0  0  0  0  0  0
   21.3716  -21.4036  -11.3725 O   0  0  0  0  0  0  0  0  0  0  0  0
  2  3  2  0
  2  1  1  0
  4  2  1  0
  5  6  1  0
  5  4  1  0
  6  7  1  1
  8  6  1  0
  8  9  2  0
 10  8  1  0
 11 10  1  0
 12 13  1  0
 11 12  1  1
 13 14  2  0
 14 15  1  0
 16 15  1  0
 17 13  1  0
 17 16  2  0
 18 11  1  0
 19 18  2  0
 21 20  1  0
 22 23  1  0
 22 21  1  6
 23 18  1  0
 24 22  1  0
 25 24  1  0
 26 24  2  0
M  END
$$$$
