YPG.pdb
     RDKit          3D

 24 25  0  0  1  0  0  0  0  0999 V2000
   24.0644  -20.8115   -8.1460 O   0  0  0  0  0  0  0  0  0  0  0  0
   24.5060  -20.6838   -9.4435 C   0  0  0  0  0  0  0  0  0  0  0  0
   25.7636  -21.1170   -9.7948 C   0  0  0  0  0  0  0  0  0  0  0  0
   26.2218  -20.9919  -11.1104 C   0  0  0  0  0  0  0  0  0  0  0  0
   25.4099  -20.4338  -12.0525 C   0  0  0  0  0  0  0  0  0  0  0  0
   25.8937  -20.3006  -13.4460 C   0  0  0  0  0  0  0  0  0  0  0  0
   25.0102  -21.1571  -14.3716 C   0  0  2  0  0  0  0  0  0  0  0  0
   25.3479  -22.5527  -14.0907 N   0  0  0  0  0  0  0  0  0  0  0  0
   25.3029  -20.8575  -15.7771 C   0  0  0  0  0  0  0  0  0  0  0  0
   26.1943  -21.5700  -16.3628 O   0  0  0  0  0  0  0  0  0  0  0  0
   24.1410  -19.9966  -11.6988 C   0  0  0  0  0  0  0  0  0  0  0  0
   23.6951  -20.1237  -10.3960 C   0  0  0  0  0  0  0  0  0  0  0  0
   24.6924  -19.8522  -16.5554 N   0  0  0  0  0  0  0  0  0  0  0  0
   23.8182  -18.7909  -16.1008 C   0  0  0  0  0  0  0  0  0  0  0  0
   22.8563  -18.6186  -17.2524 C   0  0  0  0  0  0  0  0  0  0  0  0
   23.3569  -19.5005  -18.3752 C   0  0  0  0  0  0  0  0  0  0  0  0
   24.8123  -19.6871  -17.9834 C   0  0  1  0  0  0  0  0  0  0  0  0
   25.5478  -18.4295  -18.3409 C   0  0  0  0  0  0  0  0  0  0  0  0
   25.8517  -17.5372  -17.5194 O   0  0  0  0  0  0  0  0  0  0  0  0
   25.9081  -18.2748  -19.7148 N   0  0  0  0  0  0  0  0  0  0  0  0
   26.8690  -19.1855  -20.2986 C   0  0  0  0  0  0  0  0  0  0  0  0
   28.2524  -18.7303  -20.0391 C   0  0  0  0  0  0  0  0  0  0  0  0
   29.0971  -19.5430  -19.3081 O   0  0  0  0  0  0  0  0  0  0  0  0
   28.6549  -17.6284  -20.4723 O   0  0  0  0  0  0  0  0  0  0  0  0
  2  1  1  0
  3  2  2  0
  4  3  1  0
  5 11  1  0
  5  4  2  0
  6  5  1  0
  7  6  1  0
  7  9  1  0
  7  8  1  6
  9 13  1  0
 10  9  2  0
 11 12  2  0
 12  2  1  0
 13 17  1  0
 13 14  1  0
 14 15  1  0
 16 15  1  0
 17 16  1  0
 18 19  2  0
 17 18  1  1
 20 18  1  0
 21 20  1  0
 22 21  1  0
 22 23  1  0
 24 22  2  0
M  END
$$$$
