YPG.pdb
     RDKit          3D

 24 25  0  0  1  0  0  0  0  0999 V2000
   20.3366  -15.4778  -18.1043 O   0  0  0  0  0  0  0  0  0  0  0  0
   20.9488  -16.3580  -17.2410 C   0  0  0  0  0  0  0  0  0  0  0  0
   22.2058  -16.0890  -16.7510 C   0  0  0  0  0  0  0  0  0  0  0  0
   22.8366  -16.9767  -15.8732 C   0  0  0  0  0  0  0  0  0  0  0  0
   22.1952  -18.1205  -15.5013 C   0  0  0  0  0  0  0  0  0  0  0  0
   22.8619  -19.0616  -14.5720 C   0  0  0  0  0  0  0  0  0  0  0  0
   23.8335  -19.9533  -15.3667 C   0  0  2  0  0  0  0  0  0  0  0  0
   23.0140  -20.9632  -16.0370 N   0  0  0  0  0  0  0  0  0  0  0  0
   24.7775  -20.6142  -14.4596 C   0  0  0  0  0  0  0  0  0  0  0  0
   24.4717  -21.7853  -14.0349 O   0  0  0  0  0  0  0  0  0  0  0  0
   20.9270  -18.3926  -15.9953 C   0  0  0  0  0  0  0  0  0  0  0  0
   20.3098  -17.5100  -16.8628 C   0  0  0  0  0  0  0  0  0  0  0  0
   26.0019  -20.0821  -14.0051 N   0  0  0  0  0  0  0  0  0  0  0  0
   26.6144  -18.8253  -14.3832 C   0  0  0  0  0  0  0  0  0  0  0  0
   28.0917  -19.1378  -14.3521 C   0  0  0  0  0  0  0  0  0  0  0  0
   28.2307  -20.5356  -13.7901 C   0  0  0  0  0  0  0  0  0  0  0  0
   26.9058  -20.7005  -13.0663 C   0  0  1  0  0  0  0  0  0  0  0  0
   26.9877  -19.9325  -11.7803 C   0  0  0  0  0  0  0  0  0  0  0  0
   26.9464  -18.6850  -11.7048 O   0  0  0  0  0  0  0  0  0  0  0  0
   27.1206  -20.7068  -10.5870 N   0  0  0  0  0  0  0  0  0  0  0  0
   26.1012  -21.6805  -10.2611 C   0  0  0  0  0  0  0  0  0  0  0  0
   24.9446  -21.0335   -9.6038 C   0  0  0  0  0  0  0  0  0  0  0  0
   24.5131  -19.8060  -10.0677 O   0  0  0  0  0  0  0  0  0  0  0  0
   24.3639  -21.5853   -8.6434 O   0  0  0  0  0  0  0  0  0  0  0  0
  2  1  1  0
  3  2  2  0
  4  3  1  0
  5 11  1  0
  5  4  2  0
  6  5  1  0
  7  6  1  0
  7  9  1  0
  7  8  1  1
  9 13  1  0
 10  9  2  0
 11 12  2  0
 12  2  1  0
 13 17  1  0
 13 14  1  0
 14 15  1  0
 16 15  1  0
 17 16  1  0
 18 19  2  0
 17 18  1  1
 20 18  1  0
 21 20  1  0
 22 21  1  0
 22 23  1  0
 24 22  2  0
M  END
$$$$
