YPG.pdb
     RDKit          3D

 24 25  0  0  1  0  0  0  0  0999 V2000
   28.8681  -18.8787   -5.3641 O   0  0  0  0  0  0  0  0  0  0  0  0
   28.3671  -19.4705   -6.5014 C   0  0  0  0  0  0  0  0  0  0  0  0
   27.0364  -19.3384   -6.8243 C   0  0  0  0  0  0  0  0  0  0  0  0
   26.5173  -19.9358   -7.9777 C   0  0  0  0  0  0  0  0  0  0  0  0
   27.3427  -20.6564   -8.7885 C   0  0  0  0  0  0  0  0  0  0  0  0
   26.7945  -21.2896  -10.0101 C   0  0  0  0  0  0  0  0  0  0  0  0
   25.9032  -20.2744  -10.7489 C   0  0  2  0  0  0  0  0  0  0  0  0
   24.5780  -20.3639  -10.1352 N   0  0  0  0  0  0  0  0  0  0  0  0
   25.8069  -20.6199  -12.1709 C   0  0  0  0  0  0  0  0  0  0  0  0
   24.7206  -21.1683  -12.5763 O   0  0  0  0  0  0  0  0  0  0  0  0
   28.6854  -20.7902   -8.4633 C   0  0  0  0  0  0  0  0  0  0  0  0
   29.1911  -20.1966   -7.3213 C   0  0  0  0  0  0  0  0  0  0  0  0
   26.8028  -20.4047  -13.1460 N   0  0  0  0  0  0  0  0  0  0  0  0
   28.2025  -20.1033  -12.9286 C   0  0  0  0  0  0  0  0  0  0  0  0
   28.5410  -19.1853  -14.0792 C   0  0  0  0  0  0  0  0  0  0  0  0
   27.3288  -19.1538  -14.9839 C   0  0  0  0  0  0  0  0  0  0  0  0
   26.6176  -20.4323  -14.5763 C   0  0  1  0  0  0  0  0  0  0  0  0
   27.3419  -21.5820  -15.2117 C   0  0  0  0  0  0  0  0  0  0  0  0
   28.5374  -21.8694  -14.9843 O   0  0  0  0  0  0  0  0  0  0  0  0
   26.5881  -22.3771  -16.1287 N   0  0  0  0  0  0  0  0  0  0  0  0
   25.6246  -21.7323  -16.9944 C   0  0  0  0  0  0  0  0  0  0  0  0
   26.2250  -21.4165  -18.3090 C   0  0  0  0  0  0  0  0  0  0  0  0
   25.8764  -22.1829  -19.4041 O   0  0  0  0  0  0  0  0  0  0  0  0
   27.0353  -20.4719  -18.4316 O   0  0  0  0  0  0  0  0  0  0  0  0
  2  1  1  0
  3  2  2  0
  4  3  1  0
  5 11  1  0
  5  4  2  0
  6  5  1  0
  7  6  1  0
  7  9  1  0
  7  8  1  1
  9 13  1  0
 10  9  2  0
 11 12  2  0
 12  2  1  0
 13 17  1  0
 13 14  1  0
 14 15  1  0
 16 15  1  0
 17 16  1  0
 18 19  2  0
 17 18  1  6
 20 18  1  0
 21 20  1  0
 22 21  1  0
 22 23  1  0
 24 22  2  0
M  END
$$$$
