YPG.pdb
     RDKit          3D

 24 25  0  0  1  0  0  0  0  0999 V2000
   25.5646  -12.5367  -17.9019 O   0  0  0  0  0  0  0  0  0  0  0  0
   25.3039  -13.7038  -17.2201 C   0  0  0  0  0  0  0  0  0  0  0  0
   25.7507  -13.8686  -15.9295 C   0  0  0  0  0  0  0  0  0  0  0  0
   25.4910  -15.0506  -15.2280 C   0  0  0  0  0  0  0  0  0  0  0  0
   24.7869  -16.0483  -15.8336 C   0  0  0  0  0  0  0  0  0  0  0  0
   24.5112  -17.3004  -15.0921 C   0  0  0  0  0  0  0  0  0  0  0  0
   25.2931  -18.4560  -15.7436 C   0  0  2  0  0  0  0  0  0  0  0  0
   24.6125  -18.7575  -17.0032 N   0  0  0  0  0  0  0  0  0  0  0  0
   25.2675  -19.6405  -14.8793 C   0  0  0  0  0  0  0  0  0  0  0  0
   24.3962  -20.5455  -15.1383 O   0  0  0  0  0  0  0  0  0  0  0  0
   24.3358  -15.8826  -17.1357 C   0  0  0  0  0  0  0  0  0  0  0  0
   24.5965  -14.7111  -17.8227 C   0  0  0  0  0  0  0  0  0  0  0  0
   26.1172  -19.8839  -13.7804 N   0  0  0  0  0  0  0  0  0  0  0  0
   27.1926  -19.0460  -13.2917 C   0  0  0  0  0  0  0  0  0  0  0  0
   28.2088  -20.0449  -12.7912 C   0  0  0  0  0  0  0  0  0  0  0  0
   27.5615  -21.4094  -12.8826 C   0  0  0  0  0  0  0  0  0  0  0  0
   26.0888  -21.0404  -12.9187 C   0  0  1  0  0  0  0  0  0  0  0  0
   25.6707  -20.6868  -11.5221 C   0  0  0  0  0  0  0  0  0  0  0  0
   26.0196  -19.6430  -10.9288 O   0  0  0  0  0  0  0  0  0  0  0  0
   24.8207  -21.6240  -10.8585 N   0  0  0  0  0  0  0  0  0  0  0  0
   23.7465  -21.1329  -10.0227 C   0  0  0  0  0  0  0  0  0  0  0  0
   22.4292  -21.4986  -10.5877 C   0  0  0  0  0  0  0  0  0  0  0  0
   22.1380  -21.1408  -11.8898 O   0  0  0  0  0  0  0  0  0  0  0  0
   21.5897  -22.1215   -9.9013 O   0  0  0  0  0  0  0  0  0  0  0  0
  2  1  1  0
  3  2  2  0
  4  3  1  0
  5 11  1  0
  5  4  2  0
  6  5  1  0
  7  6  1  0
  7  9  1  0
  7  8  1  6
  9 13  1  0
 10  9  2  0
 11 12  2  0
 12  2  1  0
 13 17  1  0
 13 14  1  0
 14 15  1  0
 16 15  1  0
 17 16  1  0
 18 19  2  0
 17 18  1  1
 20 18  1  0
 21 20  1  0
 22 21  1  0
 22 23  1  0
 24 22  2  0
M  END
$$$$
