YPG.pdb
     RDKit          3D

 24 25  0  0  1  0  0  0  0  0999 V2000
   29.8367  -19.3781   -3.6586 O   0  0  0  0  0  0  0  0  0  0  0  0
   28.9905  -19.6396   -4.7125 C   0  0  0  0  0  0  0  0  0  0  0  0
   28.7271  -20.9371   -5.0860 C   0  0  0  0  0  0  0  0  0  0  0  0
   27.8689  -21.2136   -6.1553 C   0  0  0  0  0  0  0  0  0  0  0  0
   27.2887  -20.1827   -6.8327 C   0  0  0  0  0  0  0  0  0  0  0  0
   26.3798  -20.4739   -7.9652 C   0  0  0  0  0  0  0  0  0  0  0  0
   26.6520  -19.4717   -9.1021 C   0  0  2  0  0  0  0  0  0  0  0  0
   26.1302  -18.1817   -8.6501 N   0  0  0  0  0  0  0  0  0  0  0  0
   25.9498  -19.8817  -10.3227 C   0  0  0  0  0  0  0  0  0  0  0  0
   24.7238  -19.5267  -10.4498 O   0  0  0  0  0  0  0  0  0  0  0  0
   27.5541  -18.8734   -6.4564 C   0  0  0  0  0  0  0  0  0  0  0  0
   28.4037  -18.6081   -5.3981 C   0  0  0  0  0  0  0  0  0  0  0  0
   26.4978  -20.6351  -11.3814 N   0  0  0  0  0  0  0  0  0  0  0  0
   27.6680  -21.4876  -11.3467 C   0  0  0  0  0  0  0  0  0  0  0  0
   28.2601  -21.3180  -12.7257 C   0  0  0  0  0  0  0  0  0  0  0  0
   27.2779  -20.4887  -13.5236 C   0  0  0  0  0  0  0  0  0  0  0  0
   25.9981  -20.6975  -12.7331 C   0  0  1  0  0  0  0  0  0  0  0  0
   25.4681  -22.0596  -13.0709 C   0  0  0  0  0  0  0  0  0  0  0  0
   25.8863  -23.1213  -12.5598 O   0  0  0  0  0  0  0  0  0  0  0  0
   24.4203  -22.1093  -14.0409 N   0  0  0  0  0  0  0  0  0  0  0  0
   23.4056  -21.0778  -14.0364 C   0  0  0  0  0  0  0  0  0  0  0  0
   22.1812  -21.5453  -13.3503 C   0  0  0  0  0  0  0  0  0  0  0  0
   22.0648  -21.3542  -11.9872 O   0  0  0  0  0  0  0  0  0  0  0  0
   21.2639  -22.1049  -13.9901 O   0  0  0  0  0  0  0  0  0  0  0  0
  2  1  1  0
  3  2  2  0
  4  3  1  0
  5 11  1  0
  5  4  2  0
  6  5  1  0
  7  6  1  0
  7  9  1  0
  7  8  1  1
  9 13  1  0
 10  9  2  0
 11 12  2  0
 12  2  1  0
 13 17  1  0
 13 14  1  0
 14 15  1  0
 16 15  1  0
 17 16  1  0
 18 19  2  0
 17 18  1  6
 20 18  1  0
 21 20  1  0
 22 21  1  0
 22 23  1  0
 24 22  2  0
M  END
$$$$
