YPG.pdb
     RDKit          3D

 24 25  0  0  1  0  0  0  0  0999 V2000
   18.5024  -17.0159    2.2368 O   0  0  0  0  0  0  0  0  0  0  0  0
   18.0908  -16.0462    3.1229 C   0  0  0  0  0  0  0  0  0  0  0  0
   17.4273  -16.3960    4.2761 C   0  0  0  0  0  0  0  0  0  0  0  0
   17.0048  -15.4185    5.1831 C   0  0  0  0  0  0  0  0  0  0  0  0
   17.2553  -14.1051    4.9175 C   0  0  0  0  0  0  0  0  0  0  0  0
   16.8086  -13.0689    5.8769 C   0  0  0  0  0  0  0  0  0  0  0  0
   18.0306  -12.5284    6.6422 C   0  0  2  0  0  0  0  0  0  0  0  0
   18.8048  -11.7412    5.6822 N   0  0  0  0  0  0  0  0  0  0  0  0
   18.8520  -13.6368    7.1398 C   0  0  0  0  0  0  0  0  0  0  0  0
   20.0180  -13.7883    6.6270 O   0  0  0  0  0  0  0  0  0  0  0  0
   17.9247  -13.7515    3.7542 C   0  0  0  0  0  0  0  0  0  0  0  0
   18.3392  -14.7237    2.8625 C   0  0  0  0  0  0  0  0  0  0  0  0
   18.4809  -14.5610    8.1383 N   0  0  0  0  0  0  0  0  0  0  0  0
   17.1876  -14.7039    8.7740 C   0  0  0  0  0  0  0  0  0  0  0  0
   17.5393  -15.1138   10.1845 C   0  0  0  0  0  0  0  0  0  0  0  0
   19.0352  -15.3384   10.2138 C   0  0  0  0  0  0  0  0  0  0  0  0
   19.3343  -15.5557    8.7408 C   0  0  1  0  0  0  0  0  0  0  0  0
   18.9052  -16.9489    8.3869 C   0  0  0  0  0  0  0  0  0  0  0  0
   17.8099  -17.2310    7.8537 O   0  0  0  0  0  0  0  0  0  0  0  0
   19.8304  -17.9939    8.6920 N   0  0  0  0  0  0  0  0  0  0  0  0
   20.1735  -18.9540    7.6653 C   0  0  0  0  0  0  0  0  0  0  0  0
   19.1411  -20.0085    7.5630 C   0  0  0  0  0  0  0  0  0  0  0  0
   19.2296  -21.1124    8.3887 O   0  0  0  0  0  0  0  0  0  0  0  0
   18.2018  -19.9064    6.7438 O   0  0  0  0  0  0  0  0  0  0  0  0
  2  1  1  0
  3  2  2  0
  4  3  1  0
  5 11  1  0
  5  4  2  0
  6  5  1  0
  7  6  1  0
  7  9  1  0
  7  8  1  6
  9 13  1  0
 10  9  2  0
 11 12  2  0
 12  2  1  0
 13 17  1  0
 13 14  1  0
 14 15  1  0
 16 15  1  0
 17 16  1  0
 18 19  2  0
 17 18  1  6
 20 18  1  0
 21 20  1  0
 22 21  1  0
 22 23  1  0
 24 22  2  0
M  END
$$$$
