YPG.pdb
     RDKit          3D

 24 25  0  0  1  0  0  0  0  0999 V2000
   18.1409  -19.7501    2.5442 O   0  0  0  0  0  0  0  0  0  0  0  0
   17.9598  -18.3979    2.7277 C   0  0  0  0  0  0  0  0  0  0  0  0
   16.7907  -17.7934    2.3275 C   0  0  0  0  0  0  0  0  0  0  0  0
   16.5967  -16.4201    2.5094 C   0  0  0  0  0  0  0  0  0  0  0  0
   17.5798  -15.6757    3.0902 C   0  0  0  0  0  0  0  0  0  0  0  0
   17.3759  -14.2215    3.2835 C   0  0  0  0  0  0  0  0  0  0  0  0
   16.3817  -13.9997    4.4383 C   0  0  2  0  0  0  0  0  0  0  0  0
   15.7653  -12.6929    4.2082 N   0  0  0  0  0  0  0  0  0  0  0  0
   17.0875  -13.9871    5.7238 C   0  0  0  0  0  0  0  0  0  0  0  0
   17.4267  -12.8469    6.2035 O   0  0  0  0  0  0  0  0  0  0  0  0
   18.7596  -16.2850    3.4942 C   0  0  0  0  0  0  0  0  0  0  0  0
   18.9440  -17.6432    3.3110 C   0  0  0  0  0  0  0  0  0  0  0  0
   17.4321  -15.1185    6.4920 N   0  0  0  0  0  0  0  0  0  0  0  0
   17.1922  -16.5105    6.1725 C   0  0  0  0  0  0  0  0  0  0  0  0
   16.9358  -17.1358    7.5231 C   0  0  0  0  0  0  0  0  0  0  0  0
   17.2118  -16.0675    8.5584 C   0  0  0  0  0  0  0  0  0  0  0  0
   18.0930  -15.1110    7.7741 C   0  0  1  0  0  0  0  0  0  0  0  0
   19.4661  -15.7105    7.6987 C   0  0  0  0  0  0  0  0  0  0  0  0
   19.8137  -16.5625    6.8522 O   0  0  0  0  0  0  0  0  0  0  0  0
   20.4101  -15.2564    8.6703 N   0  0  0  0  0  0  0  0  0  0  0  0
   21.8097  -15.5806    8.4987 C   0  0  0  0  0  0  0  0  0  0  0  0
   22.1253  -16.8931    9.1036 C   0  0  0  0  0  0  0  0  0  0  0  0
   23.4293  -17.3477    9.0709 O   0  0  0  0  0  0  0  0  0  0  0  0
   21.2292  -17.5834    9.6369 O   0  0  0  0  0  0  0  0  0  0  0  0
  2  1  1  0
  3  2  2  0
  4  3  1  0
  5 11  1  0
  5  4  2  0
  6  5  1  0
  7  6  1  0
  7  9  1  0
  7  8  1  6
  9 13  1  0
 10  9  2  0
 11 12  2  0
 12  2  1  0
 13 17  1  0
 13 14  1  0
 14 15  1  0
 16 15  1  0
 17 16  1  0
 18 19  2  0
 17 18  1  6
 20 18  1  0
 21 20  1  0
 22 21  1  0
 22 23  1  0
 24 22  2  0
M  END
$$$$
