YPG.pdb
     RDKit          3D

 24 25  0  0  1  0  0  0  0  0999 V2000
   20.7153  -20.0311  -15.6833 O   0  0  0  0  0  0  0  0  0  0  0  0
   22.0799  -19.9962  -15.8605 C   0  0  0  0  0  0  0  0  0  0  0  0
   22.8979  -19.5211  -14.8617 C   0  0  0  0  0  0  0  0  0  0  0  0
   24.2857  -19.4814  -15.0317 C   0  0  0  0  0  0  0  0  0  0  0  0
   24.8301  -19.9194  -16.2022 C   0  0  0  0  0  0  0  0  0  0  0  0
   26.2995  -19.8780  -16.3837 C   0  0  0  0  0  0  0  0  0  0  0  0
   26.8880  -21.2632  -16.0583 C   0  0  2  0  0  0  0  0  0  0  0  0
   26.1655  -22.2255  -16.8907 N   0  0  0  0  0  0  0  0  0  0  0  0
   26.6781  -21.5873  -14.6435 C   0  0  0  0  0  0  0  0  0  0  0  0
   25.8871  -22.5588  -14.3681 O   0  0  0  0  0  0  0  0  0  0  0  0
   24.0055  -20.3989  -17.2103 C   0  0  0  0  0  0  0  0  0  0  0  0
   22.6342  -20.4350  -17.0347 C   0  0  0  0  0  0  0  0  0  0  0  0
   27.2683  -20.9282  -13.5452 N   0  0  0  0  0  0  0  0  0  0  0  0
   28.1941  -19.8149  -13.5756 C   0  0  0  0  0  0  0  0  0  0  0  0
   29.0923  -20.0802  -12.3907 C   0  0  0  0  0  0  0  0  0  0  0  0
   28.5056  -21.2645  -11.6544 C   0  0  0  0  0  0  0  0  0  0  0  0
   27.0708  -21.2457  -12.1521 C   0  0  1  0  0  0  0  0  0  0  0  0
   26.3484  -20.1498  -11.4258 C   0  0  0  0  0  0  0  0  0  0  0  0
   26.2313  -18.9818  -11.8566 O   0  0  0  0  0  0  0  0  0  0  0  0
   25.7702  -20.4978  -10.1666 N   0  0  0  0  0  0  0  0  0  0  0  0
   24.6917  -21.4617  -10.1282 C   0  0  0  0  0  0  0  0  0  0  0  0
   23.4617  -20.9012  -10.7293 C   0  0  0  0  0  0  0  0  0  0  0  0
   23.5569  -19.7645  -11.5084 O   0  0  0  0  0  0  0  0  0  0  0  0
   22.3517  -21.4444  -10.5379 O   0  0  0  0  0  0  0  0  0  0  0  0
  2  1  1  0
  3  2  2  0
  4  3  1  0
  5 11  1  0
  5  4  2  0
  6  5  1  0
  7  6  1  0
  7  9  1  0
  7  8  1  6
  9 13  1  0
 10  9  2  0
 11 12  2  0
 12  2  1  0
 13 17  1  0
 13 14  1  0
 14 15  1  0
 16 15  1  0
 17 16  1  0
 18 19  2  0
 17 18  1  1
 20 18  1  0
 21 20  1  0
 22 21  1  0
 22 23  1  0
 24 22  2  0
M  END
$$$$
