YPG.pdb
     RDKit          3D

 24 25  0  0  1  0  0  0  0  0999 V2000
   26.1838  -20.5867   -8.4896 O   0  0  0  0  0  0  0  0  0  0  0  0
   25.5099  -20.7841   -9.6735 C   0  0  0  0  0  0  0  0  0  0  0  0
   24.1805  -20.4469   -9.7803 C   0  0  0  0  0  0  0  0  0  0  0  0
   23.4865  -20.6434  -10.9788 C   0  0  0  0  0  0  0  0  0  0  0  0
   24.1387  -21.1754  -12.0511 C   0  0  0  0  0  0  0  0  0  0  0  0
   23.4052  -21.3842  -13.3209 C   0  0  0  0  0  0  0  0  0  0  0  0
   23.5471  -20.1271  -14.1988 C   0  0  2  0  0  0  0  0  0  0  0  0
   22.2579  -19.9401  -14.8648 N   0  0  0  0  0  0  0  0  0  0  0  0
   24.5935  -20.3245  -15.2073 C   0  0  0  0  0  0  0  0  0  0  0  0
   24.2285  -20.7191  -16.3719 O   0  0  0  0  0  0  0  0  0  0  0  0
   25.4799  -21.5159  -11.9441 C   0  0  0  0  0  0  0  0  0  0  0  0
   26.1591  -21.3186  -10.7558 C   0  0  0  0  0  0  0  0  0  0  0  0
   25.9760  -20.1196  -15.0191 N   0  0  0  0  0  0  0  0  0  0  0  0
   26.6637  -19.8106  -13.7826 C   0  0  0  0  0  0  0  0  0  0  0  0
   27.7889  -18.9077  -14.2295 C   0  0  0  0  0  0  0  0  0  0  0  0
   27.7625  -18.8928  -15.7421 C   0  0  0  0  0  0  0  0  0  0  0  0
   26.9932  -20.1678  -16.0407 C   0  0  1  0  0  0  0  0  0  0  0  0
   27.9287  -21.3239  -15.8440 C   0  0  0  0  0  0  0  0  0  0  0  0
   28.1375  -21.8774  -14.7424 O   0  0  0  0  0  0  0  0  0  0  0  0
   28.6064  -21.7962  -17.0098 N   0  0  0  0  0  0  0  0  0  0  0  0
   27.9153  -22.6904  -17.9134 C   0  0  0  0  0  0  0  0  0  0  0  0
   27.7370  -24.0251  -17.3010 C   0  0  0  0  0  0  0  0  0  0  0  0
   28.8054  -24.6087  -16.6480 O   0  0  0  0  0  0  0  0  0  0  0  0
   26.6388  -24.6191  -17.3709 O   0  0  0  0  0  0  0  0  0  0  0  0
  2  1  1  0
  3  2  2  0
  4  3  1  0
  5 11  1  0
  5  4  2  0
  6  5  1  0
  7  6  1  0
  7  9  1  0
  7  8  1  6
  9 13  1  0
 10  9  2  0
 11 12  2  0
 12  2  1  0
 13 17  1  0
 13 14  1  0
 14 15  1  0
 16 15  1  0
 17 16  1  0
 18 19  2  0
 17 18  1  1
 20 18  1  0
 21 20  1  0
 22 21  1  0
 22 23  1  0
 24 22  2  0
M  END
$$$$
