YPG.pdb
     RDKit          3D

 24 25  0  0  1  0  0  0  0  0999 V2000
   28.2085  -19.0936   -6.3665 O   0  0  0  0  0  0  0  0  0  0  0  0
   27.6281  -19.7035   -7.4555 C   0  0  0  0  0  0  0  0  0  0  0  0
   28.4073  -20.3532   -8.3846 C   0  0  0  0  0  0  0  0  0  0  0  0
   27.8275  -20.9762   -9.4946 C   0  0  0  0  0  0  0  0  0  0  0  0
   26.4743  -20.9369   -9.6541 C   0  0  0  0  0  0  0  0  0  0  0  0
   25.8588  -21.5960  -10.8290 C   0  0  0  0  0  0  0  0  0  0  0  0
   25.1602  -20.5328  -11.6965 C   0  0  2  0  0  0  0  0  0  0  0  0
   23.7229  -20.7051  -11.4843 N   0  0  0  0  0  0  0  0  0  0  0  0
   25.4733  -20.7443  -13.1136 C   0  0  0  0  0  0  0  0  0  0  0  0
   24.5491  -21.2283  -13.8598 O   0  0  0  0  0  0  0  0  0  0  0  0
   25.6875  -20.2816   -8.7171 C   0  0  0  0  0  0  0  0  0  0  0  0
   26.2682  -19.6680   -7.6223 C   0  0  0  0  0  0  0  0  0  0  0  0
   26.7042  -20.4633  -13.7419 N   0  0  0  0  0  0  0  0  0  0  0  0
   27.9494  -20.0744  -13.1131 C   0  0  0  0  0  0  0  0  0  0  0  0
   28.5661  -19.1333  -14.1205 C   0  0  0  0  0  0  0  0  0  0  0  0
   27.6885  -19.1759  -15.3522 C   0  0  0  0  0  0  0  0  0  0  0  0
   26.9666  -20.4982  -15.1599 C   0  0  1  0  0  0  0  0  0  0  0  0
   27.9194  -21.5977  -15.5253 C   0  0  0  0  0  0  0  0  0  0  0  0
   28.6824  -22.1633  -14.7120 O   0  0  0  0  0  0  0  0  0  0  0  0
   27.9290  -21.9984  -16.8966 N   0  0  0  0  0  0  0  0  0  0  0  0
   26.7340  -22.5787  -17.4701 C   0  0  0  0  0  0  0  0  0  0  0  0
   26.6436  -24.0209  -17.1534 C   0  0  0  0  0  0  0  0  0  0  0  0
   26.0970  -24.4065  -15.9449 O   0  0  0  0  0  0  0  0  0  0  0  0
   27.0542  -24.8804  -17.9637 O   0  0  0  0  0  0  0  0  0  0  0  0
  2  1  1  0
  3  2  2  0
  4  3  1  0
  5 11  1  0
  5  4  2  0
  6  5  1  0
  7  6  1  0
  7  9  1  0
  7  8  1  6
  9 13  1  0
 10  9  2  0
 11 12  2  0
 12  2  1  0
 13 17  1  0
 13 14  1  0
 14 15  1  0
 16 15  1  0
 17 16  1  0
 18 19  2  0
 17 18  1  1
 20 18  1  0
 21 20  1  0
 22 21  1  0
 22 23  1  0
 24 22  2  0
M  END
$$$$
