YPG.pdb
     RDKit          3D

 24 25  0  0  1  0  0  0  0  0999 V2000
   18.9070  -13.6926    3.9201 O   0  0  0  0  0  0  0  0  0  0  0  0
   18.3138  -14.8726    3.5322 C   0  0  0  0  0  0  0  0  0  0  0  0
   18.8188  -15.5875    2.4708 C   0  0  0  0  0  0  0  0  0  0  0  0
   18.2234  -16.7877    2.0686 C   0  0  0  0  0  0  0  0  0  0  0  0
   17.1305  -17.2510    2.7386 C   0  0  0  0  0  0  0  0  0  0  0  0
   16.4991  -18.5216    2.3139 C   0  0  0  0  0  0  0  0  0  0  0  0
   17.4522  -19.6894    2.6284 C   0  0  2  0  0  0  0  0  0  0  0  0
   16.8235  -20.8940    2.0861 N   0  0  0  0  0  0  0  0  0  0  0  0
   17.6185  -19.8360    4.0782 C   0  0  0  0  0  0  0  0  0  0  0  0
   16.7239  -20.4997    4.7141 O   0  0  0  0  0  0  0  0  0  0  0  0
   16.6206  -16.5303    3.8096 C   0  0  0  0  0  0  0  0  0  0  0  0
   17.2147  -15.3446    4.2012 C   0  0  0  0  0  0  0  0  0  0  0  0
   18.6779  -19.3134    4.8486 N   0  0  0  0  0  0  0  0  0  0  0  0
   19.8192  -18.5536    4.3822 C   0  0  0  0  0  0  0  0  0  0  0  0
   20.9293  -18.9957    5.3058 C   0  0  0  0  0  0  0  0  0  0  0  0
   20.2952  -19.8750    6.3612 C   0  0  0  0  0  0  0  0  0  0  0  0
   18.8413  -19.4444    6.2758 C   0  0  1  0  0  0  0  0  0  0  0  0
   18.7127  -18.1243    6.9767 C   0  0  0  0  0  0  0  0  0  0  0  0
   18.7897  -17.0157    6.4036 O   0  0  0  0  0  0  0  0  0  0  0  0
   18.4884  -18.1746    8.3868 N   0  0  0  0  0  0  0  0  0  0  0  0
   17.1583  -18.4602    8.8795 C   0  0  0  0  0  0  0  0  0  0  0  0
   16.3907  -17.2116    9.0801 C   0  0  0  0  0  0  0  0  0  0  0  0
   17.0758  -16.0409    9.3415 O   0  0  0  0  0  0  0  0  0  0  0  0
   15.1419  -17.2113    9.0150 O   0  0  0  0  0  0  0  0  0  0  0  0
  2  1  1  0
  3  2  2  0
  4  3  1  0
  5 11  1  0
  5  4  2  0
  6  5  1  0
  7  6  1  0
  7  9  1  0
  7  8  1  1
  9 13  1  0
 10  9  2  0
 11 12  2  0
 12  2  1  0
 13 17  1  0
 13 14  1  0
 14 15  1  0
 16 15  1  0
 17 16  1  0
 18 19  2  0
 17 18  1  1
 20 18  1  0
 21 20  1  0
 22 21  1  0
 22 23  1  0
 24 22  2  0
M  END
$$$$
