YPG.pdb
     RDKit          3D

 24 25  0  0  1  0  0  0  0  0999 V2000
   18.7839  -23.7178  -11.3373 O   0  0  0  0  0  0  0  0  0  0  0  0
   19.8417  -22.9257  -11.7227 C   0  0  0  0  0  0  0  0  0  0  0  0
   20.1437  -21.7813  -11.0216 C   0  0  0  0  0  0  0  0  0  0  0  0
   21.2165  -20.9696  -11.4049 C   0  0  0  0  0  0  0  0  0  0  0  0
   21.9689  -21.3200  -12.4861 C   0  0  0  0  0  0  0  0  0  0  0  0
   23.1051  -20.4615  -12.8932 C   0  0  0  0  0  0  0  0  0  0  0  0
   24.4181  -21.0885  -12.3891 C   0  0  2  0  0  0  0  0  0  0  0  0
   24.4506  -20.8730  -10.9423 N   0  0  0  0  0  0  0  0  0  0  0  0
   25.5707  -20.4251  -13.0075 C   0  0  0  0  0  0  0  0  0  0  0  0
   26.0295  -19.3743  -12.4326 O   0  0  0  0  0  0  0  0  0  0  0  0
   21.6648  -22.4745  -13.1939 C   0  0  0  0  0  0  0  0  0  0  0  0
   20.6026  -23.2719  -12.8088 C   0  0  0  0  0  0  0  0  0  0  0  0
   26.2307  -20.8353  -14.1844 N   0  0  0  0  0  0  0  0  0  0  0  0
   25.9032  -21.9603  -15.0354 C   0  0  0  0  0  0  0  0  0  0  0  0
   27.2536  -22.4301  -15.5220 C   0  0  0  0  0  0  0  0  0  0  0  0
   28.2691  -21.4204  -15.0339 C   0  0  0  0  0  0  0  0  0  0  0  0
   27.3883  -20.2104  -14.7761 C   0  0  1  0  0  0  0  0  0  0  0  0
   27.0696  -19.5850  -16.1019 C   0  0  0  0  0  0  0  0  0  0  0  0
   26.1053  -19.9227  -16.8227 O   0  0  0  0  0  0  0  0  0  0  0  0
   27.9432  -18.5416  -16.5370 N   0  0  0  0  0  0  0  0  0  0  0  0
   27.6016  -17.1670  -16.2417 C   0  0  0  0  0  0  0  0  0  0  0  0
   26.7038  -16.6122  -17.2783 C   0  0  0  0  0  0  0  0  0  0  0  0
   25.3478  -16.8606  -17.1902 O   0  0  0  0  0  0  0  0  0  0  0  0
   27.1606  -15.9290  -18.2209 O   0  0  0  0  0  0  0  0  0  0  0  0
  2  1  1  0
  3  2  2  0
  4  3  1  0
  5 11  1  0
  5  4  2  0
  6  5  1  0
  7  6  1  0
  7  9  1  0
  7  8  1  1
  9 13  1  0
 10  9  2  0
 11 12  2  0
 12  2  1  0
 13 17  1  0
 13 14  1  0
 14 15  1  0
 16 15  1  0
 17 16  1  0
 18 19  2  0
 17 18  1  6
 20 18  1  0
 21 20  1  0
 22 21  1  0
 22 23  1  0
 24 22  2  0
M  END
$$$$
