YPG.pdb
     RDKit          3D

 24 25  0  0  1  0  0  0  0  0999 V2000
   25.8901  -19.9957   -6.9639 O   0  0  0  0  0  0  0  0  0  0  0  0
   26.0501  -20.1975   -8.3162 C   0  0  0  0  0  0  0  0  0  0  0  0
   26.7409  -19.2834   -9.0776 C   0  0  0  0  0  0  0  0  0  0  0  0
   26.9092  -19.4791  -10.4524 C   0  0  0  0  0  0  0  0  0  0  0  0
   26.3810  -20.5895  -11.0407 C   0  0  0  0  0  0  0  0  0  0  0  0
   26.5582  -20.7980  -12.4963 C   0  0  0  0  0  0  0  0  0  0  0  0
   25.4103  -20.1013  -13.2500 C   0  0  2  0  0  0  0  0  0  0  0  0
   24.2192  -20.9252  -13.0426 N   0  0  0  0  0  0  0  0  0  0  0  0
   25.7107  -20.0297  -14.6837 C   0  0  0  0  0  0  0  0  0  0  0  0
   25.0782  -20.8281  -15.4633 O   0  0  0  0  0  0  0  0  0  0  0  0
   25.6838  -21.5120  -10.2731 C   0  0  0  0  0  0  0  0  0  0  0  0
   25.5217  -21.3116   -8.9145 C   0  0  0  0  0  0  0  0  0  0  0  0
   26.6364  -19.1586  -15.2947 N   0  0  0  0  0  0  0  0  0  0  0  0
   27.7197  -18.4349  -14.6623 C   0  0  0  0  0  0  0  0  0  0  0  0
   27.7783  -17.1457  -15.4469 C   0  0  0  0  0  0  0  0  0  0  0  0
   26.8108  -17.2923  -16.6008 C   0  0  0  0  0  0  0  0  0  0  0  0
   26.6801  -18.8027  -16.6919 C   0  0  1  0  0  0  0  0  0  0  0  0
   27.9131  -19.3294  -17.3646 C   0  0  0  0  0  0  0  0  0  0  0  0
   29.0197  -19.4605  -16.7973 O   0  0  0  0  0  0  0  0  0  0  0  0
   27.7783  -19.6944  -18.7393 N   0  0  0  0  0  0  0  0  0  0  0  0
   28.1557  -21.0279  -19.1551 C   0  0  0  0  0  0  0  0  0  0  0  0
   27.9256  -21.2135  -20.6045 C   0  0  0  0  0  0  0  0  0  0  0  0
   28.7120  -20.5158  -21.5006 O   0  0  0  0  0  0  0  0  0  0  0  0
   27.0347  -21.9884  -21.0164 O   0  0  0  0  0  0  0  0  0  0  0  0
  2  1  1  0
  3  2  2  0
  4  3  1  0
  5 11  1  0
  5  4  2  0
  6  5  1  0
  7  6  1  0
  7  9  1  0
  7  8  1  6
  9 13  1  0
 10  9  2  0
 11 12  2  0
 12  2  1  0
 13 17  1  0
 13 14  1  0
 14 15  1  0
 16 15  1  0
 17 16  1  0
 18 19  2  0
 17 18  1  1
 20 18  1  0
 21 20  1  0
 22 21  1  0
 22 23  1  0
 24 22  2  0
M  END
$$$$
