YPG.pdb
     RDKit          3D

 24 25  0  0  1  0  0  0  0  0999 V2000
   28.6913  -19.0167   -4.7032 O   0  0  0  0  0  0  0  0  0  0  0  0
   28.1346  -19.5308   -5.8523 C   0  0  0  0  0  0  0  0  0  0  0  0
   26.8100  -19.9017   -5.8763 C   0  0  0  0  0  0  0  0  0  0  0  0
   26.2346  -20.4251   -7.0389 C   0  0  0  0  0  0  0  0  0  0  0  0
   26.9984  -20.5680   -8.1588 C   0  0  0  0  0  0  0  0  0  0  0  0
   26.3906  -21.1222   -9.3905 C   0  0  0  0  0  0  0  0  0  0  0  0
   25.5716  -20.0212  -10.0892 C   0  0  2  0  0  0  0  0  0  0  0  0
   24.2593  -20.0083   -9.4422 N   0  0  0  0  0  0  0  0  0  0  0  0
   25.4105  -20.3314  -11.5135 C   0  0  0  0  0  0  0  0  0  0  0  0
   24.2707  -20.7757  -11.8991 O   0  0  0  0  0  0  0  0  0  0  0  0
   28.3349  -20.1941   -8.1352 C   0  0  0  0  0  0  0  0  0  0  0  0
   28.8965  -19.6773   -6.9820 C   0  0  0  0  0  0  0  0  0  0  0  0
   26.3971  -20.1861  -12.5107 N   0  0  0  0  0  0  0  0  0  0  0  0
   27.8108  -19.9321  -12.3254 C   0  0  0  0  0  0  0  0  0  0  0  0
   28.1644  -19.0652  -13.5105 C   0  0  0  0  0  0  0  0  0  0  0  0
   26.9390  -19.0160  -14.3966 C   0  0  0  0  0  0  0  0  0  0  0  0
   26.1867  -20.2523  -13.9362 C   0  0  1  0  0  0  0  0  0  0  0  0
   26.8558  -21.4489  -14.5451 C   0  0  0  0  0  0  0  0  0  0  0  0
   27.9211  -21.9479  -14.1212 O   0  0  0  0  0  0  0  0  0  0  0  0
   26.2077  -22.0291  -15.6785 N   0  0  0  0  0  0  0  0  0  0  0  0
   25.7557  -23.4017  -15.6062 C   0  0  0  0  0  0  0  0  0  0  0  0
   24.2868  -23.4655  -15.4436 C   0  0  0  0  0  0  0  0  0  0  0  0
   23.4849  -23.3456  -16.5620 O   0  0  0  0  0  0  0  0  0  0  0  0
   23.7749  -23.6252  -14.3139 O   0  0  0  0  0  0  0  0  0  0  0  0
  2  1  1  0
  3  2  2  0
  4  3  1  0
  5 11  1  0
  5  4  2  0
  6  5  1  0
  7  6  1  0
  7  9  1  0
  7  8  1  1
  9 13  1  0
 10  9  2  0
 11 12  2  0
 12  2  1  0
 13 17  1  0
 13 14  1  0
 14 15  1  0
 16 15  1  0
 17 16  1  0
 18 19  2  0
 17 18  1  6
 20 18  1  0
 21 20  1  0
 22 21  1  0
 22 23  1  0
 24 22  2  0
M  END
$$$$
