YPG.pdb
     RDKit          3D

 24 25  0  0  1  0  0  0  0  0999 V2000
   20.1303  -16.1235  -18.3807 O   0  0  0  0  0  0  0  0  0  0  0  0
   20.7885  -16.9270  -17.4775 C   0  0  0  0  0  0  0  0  0  0  0  0
   20.2032  -18.0866  -17.0243 C   0  0  0  0  0  0  0  0  0  0  0  0
   20.8635  -18.9101  -16.1065 C   0  0  0  0  0  0  0  0  0  0  0  0
   22.1013  -18.5561  -15.6583 C   0  0  0  0  0  0  0  0  0  0  0  0
   22.8017  -19.4271  -14.6865 C   0  0  0  0  0  0  0  0  0  0  0  0
   23.8807  -20.2414  -15.4239 C   0  0  2  0  0  0  0  0  0  0  0  0
   23.1726  -21.2641  -16.1943 N   0  0  0  0  0  0  0  0  0  0  0  0
   24.7778  -20.8891  -14.4614 C   0  0  0  0  0  0  0  0  0  0  0  0
   24.4994  -22.0895  -14.1053 O   0  0  0  0  0  0  0  0  0  0  0  0
   22.6925  -17.3864  -16.1151 C   0  0  0  0  0  0  0  0  0  0  0  0
   22.0332  -16.5775  -17.0226 C   0  0  0  0  0  0  0  0  0  0  0  0
   25.9293  -20.3147  -13.8843 N   0  0  0  0  0  0  0  0  0  0  0  0
   26.5065  -19.0169  -14.1672 C   0  0  0  0  0  0  0  0  0  0  0  0
   27.9897  -19.2582  -14.0159 C   0  0  0  0  0  0  0  0  0  0  0  0
   28.1515  -20.6667  -13.4880 C   0  0  0  0  0  0  0  0  0  0  0  0
   26.7792  -20.9216  -12.8893 C   0  0  1  0  0  0  0  0  0  0  0  0
   26.7099  -20.1970  -11.5776 C   0  0  0  0  0  0  0  0  0  0  0  0
   26.6222  -18.9547  -11.4666 O   0  0  0  0  0  0  0  0  0  0  0  0
   26.7489  -21.0086  -10.4024 N   0  0  0  0  0  0  0  0  0  0  0  0
   26.0796  -20.5481   -9.2050 C   0  0  0  0  0  0  0  0  0  0  0  0
   24.6361  -20.8683   -9.2512 C   0  0  0  0  0  0  0  0  0  0  0  0
   24.1098  -21.7196   -8.2992 O   0  0  0  0  0  0  0  0  0  0  0  0
   23.9006  -20.3785  -10.1360 O   0  0  0  0  0  0  0  0  0  0  0  0
  2  1  1  0
  3  2  2  0
  4  3  1  0
  5 11  1  0
  5  4  2  0
  6  5  1  0
  7  6  1  0
  7  9  1  0
  7  8  1  1
  9 13  1  0
 10  9  2  0
 11 12  2  0
 12  2  1  0
 13 17  1  0
 13 14  1  0
 14 15  1  0
 16 15  1  0
 17 16  1  0
 18 19  2  0
 17 18  1  1
 20 18  1  0
 21 20  1  0
 22 21  1  0
 22 23  1  0
 24 22  2  0
M  END
$$$$
