YYR.pdb
     RDKit          3D

 36 37  0  0  1  0  0  0  0  0999 V2000
    6.1043  -16.2534   13.7440 O   0  0  0  0  0  0  0  0  0  0  0  0
    6.6513  -15.9705   14.9915 C   0  0  0  0  0  0  0  0  0  0  0  0
    6.4626  -14.7394   15.6014 C   0  0  0  0  0  0  0  0  0  0  0  0
    7.0028  -14.4762   16.8216 C   0  0  0  0  0  0  0  0  0  0  0  0
    7.7526  -15.4640   17.4566 C   0  0  0  0  0  0  0  0  0  0  0  0
    8.3662  -15.2355   18.7628 C   0  0  0  0  0  0  0  0  0  0  0  0
    7.9418  -13.9748   19.4638 C   0  0  2  0  0  0  0  0  0  0  0  0
    8.3962  -12.8384   18.6728 N   0  0  0  0  0  0  0  0  0  0  0  0
    8.5255  -13.9344   20.8072 C   0  0  0  0  0  0  0  0  0  0  0  0
    9.7268  -13.5943   20.9509 O   0  0  0  0  0  0  0  0  0  0  0  0
    7.9409  -16.6997   16.8423 C   0  0  0  0  0  0  0  0  0  0  0  0
    7.3914  -16.9556   15.6100 C   0  0  0  0  0  0  0  0  0  0  0  0
    8.9327  -14.3935   29.6481 O   0  0  0  0  0  0  0  0  0  0  0  0
    8.5330  -14.2789   28.3082 C   0  0  0  0  0  0  0  0  0  0  0  0
    8.0555  -15.4158   27.6812 C   0  0  0  0  0  0  0  0  0  0  0  0
    7.6762  -15.2470   26.3650 C   0  0  0  0  0  0  0  0  0  0  0  0
    7.7507  -14.0548   25.6889 C   0  0  0  0  0  0  0  0  0  0  0  0
    7.3170  -14.0049   24.2934 C   0  0  0  0  0  0  0  0  0  0  0  0
    8.4204  -14.2470   23.3014 C   0  0  2  0  0  0  0  0  0  0  0  0
    7.7997  -14.2617   21.9752 N   0  0  0  0  0  0  0  0  0  0  0  0
    9.1417  -15.5139   23.4819 C   0  0  0  0  0  0  0  0  0  0  0  0
    8.4999  -16.5704   23.7438 O   0  0  0  0  0  0  0  0  0  0  0  0
    8.2305  -12.9496   26.3465 C   0  0  0  0  0  0  0  0  0  0  0  0
    8.6200  -13.0715   27.6600 C   0  0  0  0  0  0  0  0  0  0  0  0
   15.1508  -13.8187   19.4308 N   0  0  0  0  0  0  0  0  0  0  0  0
   15.6836  -15.0261   20.0241 C   0  0  0  0  0  0  0  0  0  0  0  0
   16.9208  -15.2739   19.8621 N   0  0  0  0  0  0  0  0  0  0  0  0
   14.8488  -15.8886   20.7533 N   0  0  0  0  0  0  0  0  0  0  0  0
   13.4837  -15.5807   21.1317 C   0  0  0  0  0  0  0  0  0  0  0  0
   12.8807  -16.7297   21.8510 C   0  0  0  0  0  0  0  0  0  0  0  0
   12.7043  -16.6528   23.3085 C   0  0  0  0  0  0  0  0  0  0  0  0
   11.3503  -16.7444   23.8509 C   0  0  2  0  0  0  0  0  0  0  0  0
   10.5354  -15.6008   23.3734 N   0  0  0  0  0  0  0  0  0  0  0  0
   11.0610  -16.9750   25.2229 C   0  0  0  0  0  0  0  0  0  0  0  0
   11.4676  -16.2532   26.1705 O   0  0  0  0  0  0  0  0  0  0  0  0
   10.2745  -18.0645   25.6239 O   0  0  0  0  0  0  0  0  0  0  0  0
  2  1  1  0
  2  3  2  0
  4  3  1  0
  5  4  2  0
  6  5  1  0
  7  6  1  0
  7  8  1  6
  9 20  1  0
  9  7  1  0
 10  9  2  0
 11 12  2  0
 11  5  1  0
 12  2  1  0
 13 14  1  0
 14 15  2  0
 15 16  1  0
 17 16  2  0
 17 18  1  0
 19 18  1  1
 19 20  1  0
 21 19  1  0
 21 33  1  0
 22 21  2  0
 23 17  1  0
 24 14  1  0
 24 23  2  0
 26 27  2  0
 26 25  1  0
 28 26  1  0
 29 28  1  0
 30 29  1  0
 31 30  1  0
 32 33  1  0
 32 31  1  1
 34 32  1  0
 35 34  2  0
 36 34  1  0
M  END
$$$$
