YYR.pdb
     RDKit          3D

 36 37  0  0  1  0  0  0  0  0999 V2000
    7.6708  -13.6158   16.5381 O   0  0  0  0  0  0  0  0  0  0  0  0
    7.8722  -13.6815   17.9130 C   0  0  0  0  0  0  0  0  0  0  0  0
    7.1309  -12.9045   18.7904 C   0  0  0  0  0  0  0  0  0  0  0  0
    7.3380  -12.9790   20.1327 C   0  0  0  0  0  0  0  0  0  0  0  0
    8.3095  -13.8507   20.6198 C   0  0  0  0  0  0  0  0  0  0  0  0
    8.5840  -13.9657   22.0503 C   0  0  0  0  0  0  0  0  0  0  0  0
    9.3652  -15.1826   22.4620 C   0  0  2  0  0  0  0  0  0  0  0  0
    8.5609  -16.3616   22.1677 N   0  0  0  0  0  0  0  0  0  0  0  0
    9.6737  -15.1127   23.8927 C   0  0  0  0  0  0  0  0  0  0  0  0
    9.8862  -13.9951   24.4268 O   0  0  0  0  0  0  0  0  0  0  0  0
    9.0530  -14.6301   19.7370 C   0  0  0  0  0  0  0  0  0  0  0  0
    8.8364  -14.5476   18.3833 C   0  0  0  0  0  0  0  0  0  0  0  0
    6.0137  -10.6982   26.4144 O   0  0  0  0  0  0  0  0  0  0  0  0
    6.4400  -12.0287   26.2863 C   0  0  0  0  0  0  0  0  0  0  0  0
    5.7028  -12.8627   25.4648 C   0  0  0  0  0  0  0  0  0  0  0  0
    6.1660  -14.1597   25.3744 C   0  0  0  0  0  0  0  0  0  0  0  0
    7.2737  -14.6297   26.0348 C   0  0  0  0  0  0  0  0  0  0  0  0
    7.6632  -16.0277   25.8565 C   0  0  0  0  0  0  0  0  0  0  0  0
    9.1316  -16.2829   26.0529 C   0  0  2  0  0  0  0  0  0  0  0  0
    9.7464  -16.2535   24.7242 N   0  0  0  0  0  0  0  0  0  0  0  0
    9.4528  -17.5739   26.6760 C   0  0  0  0  0  0  0  0  0  0  0  0
    9.0222  -17.8367   27.8346 O   0  0  0  0  0  0  0  0  0  0  0  0
    7.9780  -13.7705   26.8408 C   0  0  0  0  0  0  0  0  0  0  0  0
    7.5527  -12.4679   26.9604 C   0  0  0  0  0  0  0  0  0  0  0  0
   13.9246  -20.1051   22.2239 N   0  0  0  0  0  0  0  0  0  0  0  0
   12.6695  -19.9091   21.5309 C   0  0  0  0  0  0  0  0  0  0  0  0
   12.6774  -19.2050   20.4715 N   0  0  0  0  0  0  0  0  0  0  0  0
   11.4871  -20.4843   22.0246 N   0  0  0  0  0  0  0  0  0  0  0  0
   11.3403  -21.0392   23.3557 C   0  0  0  0  0  0  0  0  0  0  0  0
   11.7540  -20.0427   24.3739 C   0  0  0  0  0  0  0  0  0  0  0  0
   11.7304  -20.4156   25.7958 C   0  0  0  0  0  0  0  0  0  0  0  0
   10.7428  -19.7793   26.6652 C   0  0  2  0  0  0  0  0  0  0  0  0
   10.2296  -18.5423   26.0278 N   0  0  0  0  0  0  0  0  0  0  0  0
   10.9487  -19.5327   28.0494 C   0  0  0  0  0  0  0  0  0  0  0  0
   10.4868  -20.2446   28.9790 O   0  0  0  0  0  0  0  0  0  0  0  0
   11.7083  -18.4373   28.4845 O   0  0  0  0  0  0  0  0  0  0  0  0
  2  1  1  0
  2  3  2  0
  4  3  1  0
  5  4  2  0
  6  5  1  0
  7  6  1  0
  7  8  1  1
  9 20  1  0
  9  7  1  0
 10  9  2  0
 11 12  2  0
 11  5  1  0
 12  2  1  0
 13 14  1  0
 14 15  2  0
 15 16  1  0
 17 16  2  0
 17 18  1  0
 19 18  1  6
 19 20  1  0
 21 19  1  0
 21 33  1  0
 22 21  2  0
 23 17  1  0
 24 14  1  0
 24 23  2  0
 26 27  2  0
 26 25  1  0
 28 26  1  0
 29 28  1  0
 30 29  1  0
 31 30  1  0
 32 33  1  0
 32 31  1  6
 34 32  1  0
 35 34  2  0
 36 34  1  0
M  END
$$$$
