YYR.pdb
     RDKit          3D

 36 37  0  0  1  0  0  0  0  0999 V2000
    4.9641  -13.8333   15.1177 O   0  0  0  0  0  0  0  0  0  0  0  0
    5.6556  -14.0317   16.3084 C   0  0  0  0  0  0  0  0  0  0  0  0
    6.2713  -12.9804   16.9708 C   0  0  0  0  0  0  0  0  0  0  0  0
    6.9439  -13.1885   18.1346 C   0  0  0  0  0  0  0  0  0  0  0  0
    7.0077  -14.4783   18.6576 C   0  0  0  0  0  0  0  0  0  0  0  0
    7.7248  -14.7646   19.8980 C   0  0  0  0  0  0  0  0  0  0  0  0
    8.1744  -13.5595   20.6768 C   0  0  2  0  0  0  0  0  0  0  0  0
    9.0686  -12.7785   19.8318 N   0  0  0  0  0  0  0  0  0  0  0  0
    8.8614  -13.9870   21.8983 C   0  0  0  0  0  0  0  0  0  0  0  0
   10.0790  -14.2948   21.8490 O   0  0  0  0  0  0  0  0  0  0  0  0
    6.3886  -15.5327   17.9908 C   0  0  0  0  0  0  0  0  0  0  0  0
    5.7119  -15.3123   16.8162 C   0  0  0  0  0  0  0  0  0  0  0  0
   10.3646  -15.2001   30.5306 O   0  0  0  0  0  0  0  0  0  0  0  0
    9.7858  -14.9374   29.2799 C   0  0  0  0  0  0  0  0  0  0  0  0
   10.0020  -13.6902   28.7217 C   0  0  0  0  0  0  0  0  0  0  0  0
    9.4107  -13.4853   27.4915 C   0  0  0  0  0  0  0  0  0  0  0  0
    8.6551  -14.4240   26.8343 C   0  0  0  0  0  0  0  0  0  0  0  0
    8.0811  -14.0849   25.5329 C   0  0  0  0  0  0  0  0  0  0  0  0
    8.9405  -14.4796   24.3643 C   0  0  2  0  0  0  0  0  0  0  0  0
    8.2207  -14.0739   23.1552 N   0  0  0  0  0  0  0  0  0  0  0  0
    9.2221  -15.9181   24.2669 C   0  0  0  0  0  0  0  0  0  0  0  0
    8.3253  -16.7555   24.5688 O   0  0  0  0  0  0  0  0  0  0  0  0
    8.4639  -15.6496   27.4219 C   0  0  0  0  0  0  0  0  0  0  0  0
    9.0352  -15.8981   28.6483 C   0  0  0  0  0  0  0  0  0  0  0  0
   15.8050  -18.8135   21.8467 N   0  0  0  0  0  0  0  0  0  0  0  0
   15.7187  -20.2052   22.2332 C   0  0  0  0  0  0  0  0  0  0  0  0
   16.8012  -20.8675   22.3213 N   0  0  0  0  0  0  0  0  0  0  0  0
   14.4713  -20.7935   22.4994 N   0  0  0  0  0  0  0  0  0  0  0  0
   13.1962  -20.1314   22.3071 C   0  0  0  0  0  0  0  0  0  0  0  0
   12.8515  -19.3272   23.5051 C   0  0  0  0  0  0  0  0  0  0  0  0
   12.1663  -18.0379   23.3326 C   0  0  0  0  0  0  0  0  0  0  0  0
   10.9850  -17.7637   24.1482 C   0  0  2  0  0  0  0  0  0  0  0  0
   10.4646  -16.4081   23.8455 N   0  0  0  0  0  0  0  0  0  0  0  0
   10.9250  -17.9772   25.5518 C   0  0  0  0  0  0  0  0  0  0  0  0
   10.3307  -18.9394   26.1039 O   0  0  0  0  0  0  0  0  0  0  0  0
   11.5477  -17.0941   26.4457 O   0  0  0  0  0  0  0  0  0  0  0  0
  2  1  1  0
  2  3  2  0
  4  3  1  0
  5  4  2  0
  6  5  1  0
  7  6  1  0
  7  8  1  6
  9 20  1  0
  9  7  1  0
 10  9  2  0
 11 12  2  0
 11  5  1  0
 12  2  1  0
 13 14  1  0
 14 15  2  0
 15 16  1  0
 17 16  2  0
 17 18  1  0
 19 18  1  1
 19 20  1  0
 21 19  1  0
 21 33  1  0
 22 21  2  0
 23 17  1  0
 24 14  1  0
 24 23  2  0
 26 27  2  0
 26 25  1  0
 28 26  1  0
 29 28  1  0
 30 29  1  0
 31 30  1  0
 32 33  1  0
 32 31  1  1
 34 32  1  0
 35 34  2  0
 36 34  1  0
M  END
$$$$
