YYR.pdb
     RDKit          3D

 36 37  0  0  1  0  0  0  0  0999 V2000
    7.6074  -13.5858   15.5168 O   0  0  0  0  0  0  0  0  0  0  0  0
    7.9043  -13.6659   16.8735 C   0  0  0  0  0  0  0  0  0  0  0  0
    7.5926  -12.6326   17.7442 C   0  0  0  0  0  0  0  0  0  0  0  0
    7.8883  -12.7243   19.0687 C   0  0  0  0  0  0  0  0  0  0  0  0
    8.5117  -13.8758   19.5444 C   0  0  0  0  0  0  0  0  0  0  0  0
    8.8634  -14.0267   20.9545 C   0  0  0  0  0  0  0  0  0  0  0  0
    8.2302  -15.1961   21.6562 C   0  0  2  0  0  0  0  0  0  0  0  0
    6.7829  -15.0569   21.5587 N   0  0  0  0  0  0  0  0  0  0  0  0
    8.6526  -15.2200   23.0591 C   0  0  0  0  0  0  0  0  0  0  0  0
    9.4335  -14.3327   23.4862 O   0  0  0  0  0  0  0  0  0  0  0  0
    8.8240  -14.9125   18.6683 C   0  0  0  0  0  0  0  0  0  0  0  0
    8.5214  -14.8102   17.3325 C   0  0  0  0  0  0  0  0  0  0  0  0
    6.7417  -10.3637   26.8527 O   0  0  0  0  0  0  0  0  0  0  0  0
    6.9269  -11.7442   26.6846 C   0  0  0  0  0  0  0  0  0  0  0  0
    7.8420  -12.3742   27.5088 C   0  0  0  0  0  0  0  0  0  0  0  0
    7.9846  -13.7313   27.3013 C   0  0  0  0  0  0  0  0  0  0  0  0
    7.2884  -14.4432   26.3566 C   0  0  0  0  0  0  0  0  0  0  0  0
    7.5293  -15.8803   26.2345 C   0  0  0  0  0  0  0  0  0  0  0  0
    8.7023  -16.2314   25.3622 C   0  0  2  0  0  0  0  0  0  0  0  0
    8.2226  -16.2034   23.9789 N   0  0  0  0  0  0  0  0  0  0  0  0
    9.2828  -17.5565   25.6174 C   0  0  0  0  0  0  0  0  0  0  0  0
    8.5257  -18.5350   25.8745 O   0  0  0  0  0  0  0  0  0  0  0  0
    6.3894  -13.7811   25.5582 C   0  0  0  0  0  0  0  0  0  0  0  0
    6.2146  -12.4277   25.7302 C   0  0  0  0  0  0  0  0  0  0  0  0
   11.7638  -17.9565   20.2517 N   0  0  0  0  0  0  0  0  0  0  0  0
   12.9159  -18.8298   20.3117 C   0  0  0  0  0  0  0  0  0  0  0  0
   13.2568  -19.4406   19.2492 N   0  0  0  0  0  0  0  0  0  0  0  0
   13.6261  -18.9888   21.5130 N   0  0  0  0  0  0  0  0  0  0  0  0
   13.3173  -18.2907   22.7453 C   0  0  0  0  0  0  0  0  0  0  0  0
   12.2756  -19.0268   23.5030 C   0  0  0  0  0  0  0  0  0  0  0  0
   12.4620  -19.2571   24.9430 C   0  0  0  0  0  0  0  0  0  0  0  0
   11.3097  -19.0977   25.8277 C   0  0  2  0  0  0  0  0  0  0  0  0
   10.6643  -17.7843   25.5864 N   0  0  0  0  0  0  0  0  0  0  0  0
   11.3460  -19.3429   27.2269 C   0  0  0  0  0  0  0  0  0  0  0  0
   11.0555  -18.4938   28.1093 O   0  0  0  0  0  0  0  0  0  0  0  0
   11.7236  -20.5950   27.7329 O   0  0  0  0  0  0  0  0  0  0  0  0
  2  1  1  0
  2  3  2  0
  4  3  1  0
  5  4  2  0
  6  5  1  0
  7  6  1  0
  7  8  1  1
  9 20  1  0
  9  7  1  0
 10  9  2  0
 11 12  2  0
 11  5  1  0
 12  2  1  0
 13 14  1  0
 14 15  2  0
 15 16  1  0
 17 16  2  0
 17 18  1  0
 19 18  1  1
 19 20  1  0
 21 19  1  0
 21 33  1  0
 22 21  2  0
 23 17  1  0
 24 14  1  0
 24 23  2  0
 26 27  2  0
 26 25  1  0
 28 26  1  0
 29 28  1  0
 30 29  1  0
 31 30  1  0
 32 33  1  0
 32 31  1  1
 34 32  1  0
 35 34  2  0
 36 34  1  0
M  END
$$$$
