YYR.pdb
     RDKit          3D

 36 37  0  0  1  0  0  0  0  0999 V2000
    7.8201  -14.0738   13.8737 O   0  0  0  0  0  0  0  0  0  0  0  0
    7.8670  -14.3551   15.2353 C   0  0  0  0  0  0  0  0  0  0  0  0
    7.7984  -15.6571   15.7075 C   0  0  0  0  0  0  0  0  0  0  0  0
    7.8458  -15.9179   17.0416 C   0  0  0  0  0  0  0  0  0  0  0  0
    7.9651  -14.8553   17.9347 C   0  0  0  0  0  0  0  0  0  0  0  0
    8.0100  -15.0729   19.3788 C   0  0  0  0  0  0  0  0  0  0  0  0
    9.2610  -14.5984   20.0647 C   0  0  2  0  0  0  0  0  0  0  0  0
   10.3931  -15.3200   19.4979 N   0  0  0  0  0  0  0  0  0  0  0  0
    9.1605  -14.8460   21.5053 C   0  0  0  0  0  0  0  0  0  0  0  0
    9.7746  -15.8189   22.0111 O   0  0  0  0  0  0  0  0  0  0  0  0
    8.0338  -13.5483   17.4584 C   0  0  0  0  0  0  0  0  0  0  0  0
    7.9850  -13.2954   16.1094 C   0  0  0  0  0  0  0  0  0  0  0  0
    7.3944  -13.0183   30.0248 O   0  0  0  0  0  0  0  0  0  0  0  0
    7.4647  -13.0411   28.6238 C   0  0  0  0  0  0  0  0  0  0  0  0
    6.2734  -13.0789   27.9217 C   0  0  0  0  0  0  0  0  0  0  0  0
    6.4002  -13.0996   26.5475 C   0  0  0  0  0  0  0  0  0  0  0  0
    7.6021  -13.0846   25.8847 C   0  0  0  0  0  0  0  0  0  0  0  0
    7.6038  -13.1094   24.4227 C   0  0  0  0  0  0  0  0  0  0  0  0
    8.4465  -14.2048   23.8311 C   0  0  2  0  0  0  0  0  0  0  0  0
    8.3978  -14.0360   22.3773 N   0  0  0  0  0  0  0  0  0  0  0  0
    7.9951  -15.5664   24.1479 C   0  0  0  0  0  0  0  0  0  0  0  0
    6.9076  -15.9952   23.6680 O   0  0  0  0  0  0  0  0  0  0  0  0
    8.7619  -13.0472   26.6178 C   0  0  0  0  0  0  0  0  0  0  0  0
    8.6831  -13.0251   27.9908 C   0  0  0  0  0  0  0  0  0  0  0  0
    8.5728  -20.9122   19.5224 N   0  0  0  0  0  0  0  0  0  0  0  0
    9.1710  -19.6042   19.6802 C   0  0  0  0  0  0  0  0  0  0  0  0
    9.3880  -18.9177   18.6314 N   0  0  0  0  0  0  0  0  0  0  0  0
    9.4971  -19.1206   20.9579 N   0  0  0  0  0  0  0  0  0  0  0  0
    9.1060  -19.7588   22.1993 C   0  0  0  0  0  0  0  0  0  0  0  0
    8.4948  -18.7646   23.1153 C   0  0  0  0  0  0  0  0  0  0  0  0
    8.8426  -18.7940   24.5434 C   0  0  0  0  0  0  0  0  0  0  0  0
    8.2819  -17.7653   25.4170 C   0  0  2  0  0  0  0  0  0  0  0  0
    8.7331  -16.4237   24.9736 N   0  0  0  0  0  0  0  0  0  0  0  0
    8.3277  -17.8208   26.8362 C   0  0  0  0  0  0  0  0  0  0  0  0
    9.0981  -17.1315   27.5541 O   0  0  0  0  0  0  0  0  0  0  0  0
    7.4854  -18.6814   27.5546 O   0  0  0  0  0  0  0  0  0  0  0  0
  2  1  1  0
  2  3  2  0
  4  3  1  0
  5  4  2  0
  6  5  1  0
  7  6  1  0
  7  8  1  6
  9 20  1  0
  9  7  1  0
 10  9  2  0
 11 12  2  0
 11  5  1  0
 12  2  1  0
 13 14  1  0
 14 15  2  0
 15 16  1  0
 17 16  2  0
 17 18  1  0
 19 18  1  1
 19 20  1  0
 21 19  1  0
 21 33  1  0
 22 21  2  0
 23 17  1  0
 24 14  1  0
 24 23  2  0
 26 27  2  0
 26 25  1  0
 28 26  1  0
 29 28  1  0
 30 29  1  0
 31 30  1  0
 32 33  1  0
 32 31  1  6
 34 32  1  0
 35 34  2  0
 36 34  1  0
M  END
$$$$
