YYR.pdb
     RDKit          3D

 36 37  0  0  1  0  0  0  0  0999 V2000
    6.6342  -14.8140   15.6168 O   0  0  0  0  0  0  0  0  0  0  0  0
    7.5746  -14.8723   16.6403 C   0  0  0  0  0  0  0  0  0  0  0  0
    8.5417  -15.8653   16.6780 C   0  0  0  0  0  0  0  0  0  0  0  0
    9.4555  -15.9103   17.6845 C   0  0  0  0  0  0  0  0  0  0  0  0
    9.4091  -14.9407   18.6840 C   0  0  0  0  0  0  0  0  0  0  0  0
   10.3571  -14.9441   19.7957 C   0  0  0  0  0  0  0  0  0  0  0  0
   10.1637  -16.0410   20.8058 C   0  0  2  0  0  0  0  0  0  0  0  0
    8.9454  -16.7644   20.4653 N   0  0  0  0  0  0  0  0  0  0  0  0
   10.0633  -15.4652   22.1494 C   0  0  0  0  0  0  0  0  0  0  0  0
   11.0711  -14.9215   22.6674 O   0  0  0  0  0  0  0  0  0  0  0  0
    8.4369  -13.9442   18.6443 C   0  0  0  0  0  0  0  0  0  0  0  0
    7.5186  -13.9076   17.6238 C   0  0  0  0  0  0  0  0  0  0  0  0
    6.6606  -10.6866   28.5797 O   0  0  0  0  0  0  0  0  0  0  0  0
    6.8509  -11.5204   27.4675 C   0  0  0  0  0  0  0  0  0  0  0  0
    7.8549  -11.1840   26.5773 C   0  0  0  0  0  0  0  0  0  0  0  0
    7.9990  -12.0375   25.5023 C   0  0  0  0  0  0  0  0  0  0  0  0
    7.2237  -13.1508   25.2936 C   0  0  0  0  0  0  0  0  0  0  0  0
    7.4757  -13.9770   24.1138 C   0  0  0  0  0  0  0  0  0  0  0  0
    8.7548  -14.7640   24.1807 C   0  0  2  0  0  0  0  0  0  0  0  0
    8.8731  -15.4853   22.9117 N   0  0  0  0  0  0  0  0  0  0  0  0
    8.8155  -15.7462   25.2714 C   0  0  0  0  0  0  0  0  0  0  0  0
    8.4250  -15.4241   26.4292 O   0  0  0  0  0  0  0  0  0  0  0  0
    6.2375  -13.4502   26.2001 C   0  0  0  0  0  0  0  0  0  0  0  0
    6.0583  -12.6270   27.2874 C   0  0  0  0  0  0  0  0  0  0  0  0
    5.8895  -23.2277   23.1243 N   0  0  0  0  0  0  0  0  0  0  0  0
    5.1328  -22.1100   23.6456 C   0  0  0  0  0  0  0  0  0  0  0  0
    3.8778  -22.0915   23.4381 N   0  0  0  0  0  0  0  0  0  0  0  0
    5.7773  -21.0842   24.3563 N   0  0  0  0  0  0  0  0  0  0  0  0
    7.2126  -20.9890   24.5353 C   0  0  0  0  0  0  0  0  0  0  0  0
    7.5531  -19.7617   25.2960 C   0  0  0  0  0  0  0  0  0  0  0  0
    8.9659  -19.4012   25.4840 C   0  0  0  0  0  0  0  0  0  0  0  0
    9.2789  -18.1162   26.1058 C   0  0  2  0  0  0  0  0  0  0  0  0
    9.2962  -17.0473   25.0777 N   0  0  0  0  0  0  0  0  0  0  0  0
   10.3646  -17.9129   26.9998 C   0  0  0  0  0  0  0  0  0  0  0  0
   10.3345  -18.1707   28.2314 O   0  0  0  0  0  0  0  0  0  0  0  0
   11.5855  -17.3908   26.5492 O   0  0  0  0  0  0  0  0  0  0  0  0
  2  1  1  0
  2  3  2  0
  4  3  1  0
  5  4  2  0
  6  5  1  0
  7  6  1  0
  7  8  1  6
  9 20  1  0
  9  7  1  0
 10  9  2  0
 11 12  2  0
 11  5  1  0
 12  2  1  0
 13 14  1  0
 14 15  2  0
 15 16  1  0
 17 16  2  0
 17 18  1  0
 19 18  1  6
 19 20  1  0
 21 19  1  0
 21 33  1  0
 22 21  2  0
 23 17  1  0
 24 14  1  0
 24 23  2  0
 26 27  2  0
 26 25  1  0
 28 26  1  0
 29 28  1  0
 30 29  1  0
 31 30  1  0
 32 33  1  0
 32 31  1  6
 34 32  1  0
 35 34  2  0
 36 34  1  0
M  END
$$$$
