YYR.pdb
     RDKit          3D

 36 37  0  0  1  0  0  0  0  0999 V2000
    7.9657  -11.4913   16.9578 O   0  0  0  0  0  0  0  0  0  0  0  0
    7.8126  -12.7293   17.5738 C   0  0  0  0  0  0  0  0  0  0  0  0
    7.2132  -12.8484   18.8186 C   0  0  0  0  0  0  0  0  0  0  0  0
    7.0696  -14.0651   19.4093 C   0  0  0  0  0  0  0  0  0  0  0  0
    7.5341  -15.1984   18.7452 C   0  0  0  0  0  0  0  0  0  0  0  0
    7.4173  -16.5303   19.3346 C   0  0  0  0  0  0  0  0  0  0  0  0
    8.5787  -16.9638   20.1855 C   0  0  2  0  0  0  0  0  0  0  0  0
    8.3113  -18.3125   20.6685 N   0  0  0  0  0  0  0  0  0  0  0  0
    8.7434  -16.0370   21.3084 C   0  0  0  0  0  0  0  0  0  0  0  0
    9.6788  -15.1980   21.2871 O   0  0  0  0  0  0  0  0  0  0  0  0
    8.1358  -15.0766   17.4951 C   0  0  0  0  0  0  0  0  0  0  0  0
    8.2762  -13.8435   16.9071 C   0  0  0  0  0  0  0  0  0  0  0  0
    7.0162  -11.7089   28.8065 O   0  0  0  0  0  0  0  0  0  0  0  0
    6.9501  -12.4722   27.6312 C   0  0  0  0  0  0  0  0  0  0  0  0
    7.3891  -11.8843   26.4584 C   0  0  0  0  0  0  0  0  0  0  0  0
    7.3023  -12.6789   25.3332 C   0  0  0  0  0  0  0  0  0  0  0  0
    6.8218  -13.9647   25.3336 C   0  0  0  0  0  0  0  0  0  0  0  0
    6.7809  -14.7046   24.0731 C   0  0  0  0  0  0  0  0  0  0  0  0
    8.1301  -15.1488   23.5810 C   0  0  2  0  0  0  0  0  0  0  0  0
    7.8924  -16.0315   22.4370 N   0  0  0  0  0  0  0  0  0  0  0  0
    8.9317  -15.8857   24.5672 C   0  0  0  0  0  0  0  0  0  0  0  0
    9.3138  -15.3079   25.6240 O   0  0  0  0  0  0  0  0  0  0  0  0
    6.3956  -14.5118   26.5180 C   0  0  0  0  0  0  0  0  0  0  0  0
    6.4642  -13.7560   27.6652 C   0  0  0  0  0  0  0  0  0  0  0  0
   11.7055  -23.8784   22.7736 N   0  0  0  0  0  0  0  0  0  0  0  0
   12.5092  -22.6760   22.8222 C   0  0  0  0  0  0  0  0  0  0  0  0
   13.6201  -22.6763   22.2025 N   0  0  0  0  0  0  0  0  0  0  0  0
   12.0638  -21.5513   23.5358 N   0  0  0  0  0  0  0  0  0  0  0  0
   11.5952  -21.5845   24.9072 C   0  0  0  0  0  0  0  0  0  0  0  0
   11.3928  -20.2043   25.4123 C   0  0  0  0  0  0  0  0  0  0  0  0
   10.4716  -19.3063   24.7006 C   0  0  0  0  0  0  0  0  0  0  0  0
   10.2321  -17.9750   25.2540 C   0  0  2  0  0  0  0  0  0  0  0  0
    9.2958  -17.2252   24.3816 N   0  0  0  0  0  0  0  0  0  0  0  0
   11.2651  -17.0981   25.6820 C   0  0  0  0  0  0  0  0  0  0  0  0
   11.4533  -16.7435   26.8749 O   0  0  0  0  0  0  0  0  0  0  0  0
   12.1750  -16.5499   24.7666 O   0  0  0  0  0  0  0  0  0  0  0  0
  2  1  1  0
  2  3  2  0
  4  3  1  0
  5  4  2  0
  6  5  1  0
  7  6  1  0
  7  8  1  1
  9 20  1  0
  9  7  1  0
 10  9  2  0
 11 12  2  0
 11  5  1  0
 12  2  1  0
 13 14  1  0
 14 15  2  0
 15 16  1  0
 17 16  2  0
 17 18  1  0
 19 18  1  1
 19 20  1  0
 21 19  1  0
 21 33  1  0
 22 21  2  0
 23 17  1  0
 24 14  1  0
 24 23  2  0
 26 27  2  0
 26 25  1  0
 28 26  1  0
 29 28  1  0
 30 29  1  0
 31 30  1  0
 32 33  1  0
 32 31  1  6
 34 32  1  0
 35 34  2  0
 36 34  1  0
M  END
$$$$
