YYR.pdb
     RDKit          3D

 36 37  0  0  1  0  0  0  0  0999 V2000
    4.6656  -26.6278   25.5926 O   0  0  0  0  0  0  0  0  0  0  0  0
    5.1968  -25.3762   25.2982 C   0  0  0  0  0  0  0  0  0  0  0  0
    5.1274  -24.3297   26.2054 C   0  0  0  0  0  0  0  0  0  0  0  0
    5.6513  -23.1110   25.9047 C   0  0  0  0  0  0  0  0  0  0  0  0
    6.2629  -22.9244   24.6669 C   0  0  0  0  0  0  0  0  0  0  0  0
    6.8337  -21.6351   24.2839 C   0  0  0  0  0  0  0  0  0  0  0  0
    5.8387  -20.5841   23.8762 C   0  0  2  0  0  0  0  0  0  0  0  0
    5.3072  -20.9430   22.5676 N   0  0  0  0  0  0  0  0  0  0  0  0
    6.4941  -19.2746   23.8252 C   0  0  0  0  0  0  0  0  0  0  0  0
    7.1235  -18.9366   22.7912 O   0  0  0  0  0  0  0  0  0  0  0  0
    6.3316  -23.9768   23.7572 C   0  0  0  0  0  0  0  0  0  0  0  0
    5.7995  -25.2036   24.0703 C   0  0  0  0  0  0  0  0  0  0  0  0
    8.5628  -10.9866   26.1427 O   0  0  0  0  0  0  0  0  0  0  0  0
    8.0489  -12.2909   26.0875 C   0  0  0  0  0  0  0  0  0  0  0  0
    7.0086  -12.5343   25.2087 C   0  0  0  0  0  0  0  0  0  0  0  0
    6.5416  -13.8331   25.1945 C   0  0  0  0  0  0  0  0  0  0  0  0
    7.0446  -14.8409   25.9789 C   0  0  0  0  0  0  0  0  0  0  0  0
    6.4628  -16.1781   25.8713 C   0  0  0  0  0  0  0  0  0  0  0  0
    7.0781  -17.0275   24.7943 C   0  0  2  0  0  0  0  0  0  0  0  0
    6.4574  -18.3500   24.8938 N   0  0  0  0  0  0  0  0  0  0  0  0
    8.5334  -17.1969   24.9018 C   0  0  0  0  0  0  0  0  0  0  0  0
    9.0144  -17.9377   25.8055 O   0  0  0  0  0  0  0  0  0  0  0  0
    8.0769  -14.5586   26.8383 C   0  0  0  0  0  0  0  0  0  0  0  0
    8.5743  -13.2770   26.8855 C   0  0  0  0  0  0  0  0  0  0  0  0
   13.8268  -15.8898   18.1677 N   0  0  0  0  0  0  0  0  0  0  0  0
   13.5541  -14.9464   19.2303 C   0  0  0  0  0  0  0  0  0  0  0  0
   13.7253  -13.7095   18.9876 N   0  0  0  0  0  0  0  0  0  0  0  0
   13.1147  -15.3969   20.4860 N   0  0  0  0  0  0  0  0  0  0  0  0
   13.3373  -16.7339   21.0000 C   0  0  0  0  0  0  0  0  0  0  0  0
   12.8236  -16.8405   22.3878 C   0  0  0  0  0  0  0  0  0  0  0  0
   11.4053  -16.5583   22.6529 C   0  0  0  0  0  0  0  0  0  0  0  0
   10.8896  -16.7932   24.0001 C   0  0  2  0  0  0  0  0  0  0  0  0
    9.4250  -16.5609   24.0290 N   0  0  0  0  0  0  0  0  0  0  0  0
   11.4666  -16.2422   25.1759 C   0  0  0  0  0  0  0  0  0  0  0  0
   11.2450  -15.0795   25.6038 O   0  0  0  0  0  0  0  0  0  0  0  0
   12.3551  -16.9875   25.9642 O   0  0  0  0  0  0  0  0  0  0  0  0
  2  1  1  0
  2  3  2  0
  4  3  1  0
  5  4  2  0
  6  5  1  0
  7  6  1  0
  7  8  1  6
  9 20  1  0
  9  7  1  0
 10  9  2  0
 11 12  2  0
 11  5  1  0
 12  2  1  0
 13 14  1  0
 14 15  2  0
 15 16  1  0
 17 16  2  0
 17 18  1  0
 19 18  1  1
 19 20  1  0
 21 19  1  0
 21 33  1  0
 22 21  2  0
 23 17  1  0
 24 14  1  0
 24 23  2  0
 26 27  2  0
 26 25  1  0
 28 26  1  0
 29 28  1  0
 30 29  1  0
 31 30  1  0
 32 33  1  0
 32 31  1  6
 34 32  1  0
 35 34  2  0
 36 34  1  0
M  END
$$$$
