YYR.pdb
     RDKit          3D

 36 37  0  0  1  0  0  0  0  0999 V2000
    6.5273  -14.6543   13.9779 O   0  0  0  0  0  0  0  0  0  0  0  0
    6.9538  -14.7012   15.3012 C   0  0  0  0  0  0  0  0  0  0  0  0
    6.0621  -14.5600   16.3538 C   0  0  0  0  0  0  0  0  0  0  0  0
    6.4928  -14.6082   17.6431 C   0  0  0  0  0  0  0  0  0  0  0  0
    7.8489  -14.8027   17.8964 C   0  0  0  0  0  0  0  0  0  0  0  0
    8.3715  -14.8524   19.2599 C   0  0  0  0  0  0  0  0  0  0  0  0
    8.3765  -13.5422   19.9976 C   0  0  2  0  0  0  0  0  0  0  0  0
    9.2546  -12.6221   19.2863 N   0  0  0  0  0  0  0  0  0  0  0  0
    8.8477  -13.7480   21.3697 C   0  0  0  0  0  0  0  0  0  0  0  0
   10.0787  -13.8736   21.5898 O   0  0  0  0  0  0  0  0  0  0  0  0
    8.7428  -14.9443   16.8378 C   0  0  0  0  0  0  0  0  0  0  0  0
    8.2981  -14.8940   15.5394 C   0  0  0  0  0  0  0  0  0  0  0  0
    8.4660  -14.8609   30.1559 O   0  0  0  0  0  0  0  0  0  0  0  0
    8.1865  -14.5808   28.8099 C   0  0  0  0  0  0  0  0  0  0  0  0
    8.5673  -13.3449   28.3189 C   0  0  0  0  0  0  0  0  0  0  0  0
    8.2689  -13.1220   26.9899 C   0  0  0  0  0  0  0  0  0  0  0  0
    7.6409  -14.0335   26.1782 C   0  0  0  0  0  0  0  0  0  0  0  0
    7.3800  -13.6773   24.7843 C   0  0  0  0  0  0  0  0  0  0  0  0
    8.4743  -14.0802   23.8355 C   0  0  2  0  0  0  0  0  0  0  0  0
    7.9795  -13.8137   22.4832 N   0  0  0  0  0  0  0  0  0  0  0  0
    8.8612  -15.4954   23.9092 C   0  0  0  0  0  0  0  0  0  0  0  0
    8.0824  -16.3838   23.4610 O   0  0  0  0  0  0  0  0  0  0  0  0
    7.2787  -15.2487   26.7036 C   0  0  0  0  0  0  0  0  0  0  0  0
    7.5568  -15.5144   28.0242 C   0  0  0  0  0  0  0  0  0  0  0  0
   13.3160  -22.1429   23.8411 N   0  0  0  0  0  0  0  0  0  0  0  0
   13.0762  -21.6962   22.4858 C   0  0  0  0  0  0  0  0  0  0  0  0
   12.8324  -22.5781   21.6020 N   0  0  0  0  0  0  0  0  0  0  0  0
   13.1148  -20.3280   22.1705 N   0  0  0  0  0  0  0  0  0  0  0  0
   13.4402  -19.2787   23.1163 C   0  0  0  0  0  0  0  0  0  0  0  0
   12.2560  -18.9557   23.9495 C   0  0  0  0  0  0  0  0  0  0  0  0
   11.5854  -17.6593   23.7736 C   0  0  0  0  0  0  0  0  0  0  0  0
   10.4795  -17.3215   24.6674 C   0  0  2  0  0  0  0  0  0  0  0  0
   10.0788  -15.9079   24.4650 N   0  0  0  0  0  0  0  0  0  0  0  0
   10.4706  -17.6080   26.0592 C   0  0  0  0  0  0  0  0  0  0  0  0
   10.4881  -16.7378   26.9683 O   0  0  0  0  0  0  0  0  0  0  0  0
   10.4418  -18.9299   26.5261 O   0  0  0  0  0  0  0  0  0  0  0  0
  2  1  1  0
  2  3  2  0
  4  3  1  0
  5  4  2  0
  6  5  1  0
  7  6  1  0
  7  8  1  6
  9 20  1  0
  9  7  1  0
 10  9  2  0
 11 12  2  0
 11  5  1  0
 12  2  1  0
 13 14  1  0
 14 15  2  0
 15 16  1  0
 17 16  2  0
 17 18  1  0
 19 18  1  1
 19 20  1  0
 21 19  1  0
 21 33  1  0
 22 21  2  0
 23 17  1  0
 24 14  1  0
 24 23  2  0
 26 27  2  0
 26 25  1  0
 28 26  1  0
 29 28  1  0
 30 29  1  0
 31 30  1  0
 32 33  1  0
 32 31  1  1
 34 32  1  0
 35 34  2  0
 36 34  1  0
M  END
$$$$
