YYR.pdb
     RDKit          3D

 36 37  0  0  1  0  0  0  0  0999 V2000
    6.6724  -12.8819   16.0198 O   0  0  0  0  0  0  0  0  0  0  0  0
    7.0278  -13.4281   17.2489 C   0  0  0  0  0  0  0  0  0  0  0  0
    7.5009  -12.6346   18.2831 C   0  0  0  0  0  0  0  0  0  0  0  0
    7.8445  -13.1817   19.4801 C   0  0  0  0  0  0  0  0  0  0  0  0
    7.7147  -14.5576   19.6570 C   0  0  0  0  0  0  0  0  0  0  0  0
    8.0782  -15.2031   20.9163 C   0  0  0  0  0  0  0  0  0  0  0  0
    9.5444  -15.1892   21.2493 C   0  0  2  0  0  0  0  0  0  0  0  0
   10.2443  -15.9973   20.2590 N   0  0  0  0  0  0  0  0  0  0  0  0
    9.7519  -15.7293   22.5955 C   0  0  0  0  0  0  0  0  0  0  0  0
    9.9590  -16.9599   22.7443 O   0  0  0  0  0  0  0  0  0  0  0  0
    7.2395  -15.3527   18.6170 C   0  0  0  0  0  0  0  0  0  0  0  0
    6.8952  -14.7907   17.4121 C   0  0  0  0  0  0  0  0  0  0  0  0
   10.4149  -15.6583   31.4824 O   0  0  0  0  0  0  0  0  0  0  0  0
   10.3199  -15.3438   30.1185 C   0  0  0  0  0  0  0  0  0  0  0  0
    9.9885  -14.0438   29.7810 C   0  0  0  0  0  0  0  0  0  0  0  0
    9.9091  -13.7891   28.4268 C   0  0  0  0  0  0  0  0  0  0  0  0
   10.1350  -14.7286   27.4519 C   0  0  0  0  0  0  0  0  0  0  0  0
   10.0197  -14.3336   26.0488 C   0  0  0  0  0  0  0  0  0  0  0  0
    9.9889  -15.4900   25.0888 C   0  0  2  0  0  0  0  0  0  0  0  0
    9.7332  -14.9290   23.7605 N   0  0  0  0  0  0  0  0  0  0  0  0
    8.9523  -16.4928   25.3680 C   0  0  0  0  0  0  0  0  0  0  0  0
    7.7447  -16.2409   25.0944 O   0  0  0  0  0  0  0  0  0  0  0  0
   10.4613  -16.0077   27.8280 C   0  0  0  0  0  0  0  0  0  0  0  0
   10.5521  -16.3067   29.1676 C   0  0  0  0  0  0  0  0  0  0  0  0
    7.1589  -20.9897   20.7275 N   0  0  0  0  0  0  0  0  0  0  0  0
    7.9246  -21.8340   21.6189 C   0  0  0  0  0  0  0  0  0  0  0  0
    8.8828  -22.5087   21.1241 N   0  0  0  0  0  0  0  0  0  0  0  0
    7.6081  -21.8968   22.9859 N   0  0  0  0  0  0  0  0  0  0  0  0
    6.5302  -21.1566   23.6116 C   0  0  0  0  0  0  0  0  0  0  0  0
    6.9864  -20.5795   24.8999 C   0  0  0  0  0  0  0  0  0  0  0  0
    7.7959  -19.3523   24.8913 C   0  0  0  0  0  0  0  0  0  0  0  0
    8.2649  -18.8197   26.1689 C   0  0  2  0  0  0  0  0  0  0  0  0
    9.2524  -17.7381   25.9344 N   0  0  0  0  0  0  0  0  0  0  0  0
    8.7155  -19.6290   27.2465 C   0  0  0  0  0  0  0  0  0  0  0  0
    9.9122  -19.7106   27.6276 O   0  0  0  0  0  0  0  0  0  0  0  0
    7.8206  -20.4196   27.9816 O   0  0  0  0  0  0  0  0  0  0  0  0
  2  1  1  0
  2  3  2  0
  4  3  1  0
  5  4  2  0
  6  5  1  0
  7  6  1  0
  7  8  1  6
  9 20  1  0
  9  7  1  0
 10  9  2  0
 11 12  2  0
 11  5  1  0
 12  2  1  0
 13 14  1  0
 14 15  2  0
 15 16  1  0
 17 16  2  0
 17 18  1  0
 19 18  1  1
 19 20  1  0
 21 19  1  0
 21 33  1  0
 22 21  2  0
 23 17  1  0
 24 14  1  0
 24 23  2  0
 26 27  2  0
 26 25  1  0
 28 26  1  0
 29 28  1  0
 30 29  1  0
 31 30  1  0
 32 33  1  0
 32 31  1  6
 34 32  1  0
 35 34  2  0
 36 34  1  0
M  END
$$$$
