YYR.pdb
     RDKit          3D

 36 37  0  0  1  0  0  0  0  0999 V2000
   13.9858  -21.5776   18.6162 O   0  0  0  0  0  0  0  0  0  0  0  0
   12.9539  -20.7542   19.0548 C   0  0  0  0  0  0  0  0  0  0  0  0
   13.0281  -19.3748   18.9334 C   0  0  0  0  0  0  0  0  0  0  0  0
   12.0116  -18.5814   19.3662 C   0  0  0  0  0  0  0  0  0  0  0  0
   10.8869  -19.1740   19.9364 C   0  0  0  0  0  0  0  0  0  0  0  0
    9.7688  -18.3728   20.4290 C   0  0  0  0  0  0  0  0  0  0  0  0
    9.7829  -16.9254   20.0221 C   0  0  2  0  0  0  0  0  0  0  0  0
   10.9898  -16.6831   19.2421 N   0  0  0  0  0  0  0  0  0  0  0  0
    9.7604  -16.0751   21.2151 C   0  0  0  0  0  0  0  0  0  0  0  0
   10.8305  -15.5655   21.6331 O   0  0  0  0  0  0  0  0  0  0  0  0
   10.8143  -20.5595   20.0575 C   0  0  0  0  0  0  0  0  0  0  0  0
   11.8462  -21.3519   19.6175 C   0  0  0  0  0  0  0  0  0  0  0  0
    6.4181  -11.4199   27.9607 O   0  0  0  0  0  0  0  0  0  0  0  0
    6.5964  -12.1876   26.8000 C   0  0  0  0  0  0  0  0  0  0  0  0
    7.2451  -11.5948   25.7317 C   0  0  0  0  0  0  0  0  0  0  0  0
    7.3939  -12.3940   24.6163 C   0  0  0  0  0  0  0  0  0  0  0  0
    6.9458  -13.6886   24.5311 C   0  0  0  0  0  0  0  0  0  0  0  0
    7.1649  -14.4326   23.2916 C   0  0  0  0  0  0  0  0  0  0  0  0
    8.5813  -14.8991   23.1011 C   0  0  2  0  0  0  0  0  0  0  0  0
    8.5797  -15.7881   21.9374 N   0  0  0  0  0  0  0  0  0  0  0  0
    9.1430  -15.6384   24.2395 C   0  0  0  0  0  0  0  0  0  0  0  0
    9.2756  -15.0644   25.3574 O   0  0  0  0  0  0  0  0  0  0  0  0
    6.3066  -14.2404   25.6132 C   0  0  0  0  0  0  0  0  0  0  0  0
    6.1364  -13.4802   26.7468 C   0  0  0  0  0  0  0  0  0  0  0  0
   12.6950  -24.2941   27.4649 N   0  0  0  0  0  0  0  0  0  0  0  0
   12.0052  -23.6437   26.3717 C   0  0  0  0  0  0  0  0  0  0  0  0
   11.6404  -24.3609   25.3864 N   0  0  0  0  0  0  0  0  0  0  0  0
   11.7535  -22.2625   26.4108 N   0  0  0  0  0  0  0  0  0  0  0  0
   11.0308  -21.5327   25.3879 C   0  0  0  0  0  0  0  0  0  0  0  0
   10.8808  -20.1107   25.7834 C   0  0  0  0  0  0  0  0  0  0  0  0
   10.2259  -19.1729   24.8597 C   0  0  0  0  0  0  0  0  0  0  0  0
   10.1601  -17.7614   25.2327 C   0  0  2  0  0  0  0  0  0  0  0  0
    9.5443  -16.9761   24.1354 N   0  0  0  0  0  0  0  0  0  0  0  0
   11.2576  -17.0305   25.7623 C   0  0  0  0  0  0  0  0  0  0  0  0
   11.4329  -16.7897   26.9851 O   0  0  0  0  0  0  0  0  0  0  0  0
   12.2532  -16.5099   24.9231 O   0  0  0  0  0  0  0  0  0  0  0  0
  2  1  1  0
  2  3  2  0
  4  3  1  0
  5  4  2  0
  6  5  1  0
  7  6  1  0
  7  8  1  1
  9 20  1  0
  9  7  1  0
 10  9  2  0
 11 12  2  0
 11  5  1  0
 12  2  1  0
 13 14  1  0
 14 15  2  0
 15 16  1  0
 17 16  2  0
 17 18  1  0
 19 18  1  1
 19 20  1  0
 21 19  1  0
 21 33  1  0
 22 21  2  0
 23 17  1  0
 24 14  1  0
 24 23  2  0
 26 27  2  0
 26 25  1  0
 28 26  1  0
 29 28  1  0
 30 29  1  0
 31 30  1  0
 32 33  1  0
 32 31  1  6
 34 32  1  0
 35 34  2  0
 36 34  1  0
M  END
$$$$
