YYR.pdb
     RDKit          3D

 36 37  0  0  1  0  0  0  0  0999 V2000
    7.6988  -14.3603   14.6690 O   0  0  0  0  0  0  0  0  0  0  0  0
    7.9859  -14.2771   16.0276 C   0  0  0  0  0  0  0  0  0  0  0  0
    7.7837  -13.1039   16.7389 C   0  0  0  0  0  0  0  0  0  0  0  0
    8.0683  -13.0365   18.0672 C   0  0  0  0  0  0  0  0  0  0  0  0
    8.5685  -14.1669   18.7100 C   0  0  0  0  0  0  0  0  0  0  0  0
    8.9026  -14.1514   20.1322 C   0  0  0  0  0  0  0  0  0  0  0  0
    9.2301  -15.4902   20.7332 C   0  0  2  0  0  0  0  0  0  0  0  0
    8.1252  -16.3981   20.4527 N   0  0  0  0  0  0  0  0  0  0  0  0
    9.4280  -15.3496   22.1782 C   0  0  0  0  0  0  0  0  0  0  0  0
   10.4182  -14.7062   22.6082 O   0  0  0  0  0  0  0  0  0  0  0  0
    8.7709  -15.3441   17.9938 C   0  0  0  0  0  0  0  0  0  0  0  0
    8.4804  -15.4021   16.6527 C   0  0  0  0  0  0  0  0  0  0  0  0
    5.9426  -11.8021   29.1408 O   0  0  0  0  0  0  0  0  0  0  0  0
    6.4192  -12.3356   27.9340 C   0  0  0  0  0  0  0  0  0  0  0  0
    5.7471  -13.4216   27.4023 C   0  0  0  0  0  0  0  0  0  0  0  0
    6.2573  -13.9060   26.2149 C   0  0  0  0  0  0  0  0  0  0  0  0
    7.3504  -13.3781   25.5741 C   0  0  0  0  0  0  0  0  0  0  0  0
    7.7942  -13.9824   24.3187 C   0  0  0  0  0  0  0  0  0  0  0  0
    8.4138  -15.3425   24.4806 C   0  0  2  0  0  0  0  0  0  0  0  0
    8.5505  -15.9066   23.1362 N   0  0  0  0  0  0  0  0  0  0  0  0
    7.6291  -16.2824   25.2924 C   0  0  0  0  0  0  0  0  0  0  0  0
    6.4508  -16.5796   24.9459 O   0  0  0  0  0  0  0  0  0  0  0  0
    7.9898  -12.3006   26.1343 C   0  0  0  0  0  0  0  0  0  0  0  0
    7.5154  -11.7843   27.3177 C   0  0  0  0  0  0  0  0  0  0  0  0
   13.8102  -20.7115   23.0092 N   0  0  0  0  0  0  0  0  0  0  0  0
   12.9602  -19.5934   22.6613 C   0  0  0  0  0  0  0  0  0  0  0  0
   12.6469  -19.4411   21.4378 N   0  0  0  0  0  0  0  0  0  0  0  0
   12.5030  -18.7115   23.6543 N   0  0  0  0  0  0  0  0  0  0  0  0
   12.0755  -19.1195   24.9779 C   0  0  0  0  0  0  0  0  0  0  0  0
   10.6094  -19.3461   24.9949 C   0  0  0  0  0  0  0  0  0  0  0  0
    9.7074  -18.2015   25.1893 C   0  0  0  0  0  0  0  0  0  0  0  0
    9.0302  -18.0607   26.4767 C   0  0  2  0  0  0  0  0  0  0  0  0
    8.1419  -16.8731   26.4541 N   0  0  0  0  0  0  0  0  0  0  0  0
    9.6955  -18.1142   27.7312 C   0  0  0  0  0  0  0  0  0  0  0  0
   10.0123  -17.1069   28.4161 O   0  0  0  0  0  0  0  0  0  0  0  0
   10.0564  -19.3406   28.3076 O   0  0  0  0  0  0  0  0  0  0  0  0
  2  1  1  0
  2  3  2  0
  4  3  1  0
  5  4  2  0
  6  5  1  0
  7  6  1  0
  7  8  1  1
  9 20  1  0
  9  7  1  0
 10  9  2  0
 11 12  2  0
 11  5  1  0
 12  2  1  0
 13 14  1  0
 14 15  2  0
 15 16  1  0
 17 16  2  0
 17 18  1  0
 19 18  1  6
 19 20  1  0
 21 19  1  0
 21 33  1  0
 22 21  2  0
 23 17  1  0
 24 14  1  0
 24 23  2  0
 26 27  2  0
 26 25  1  0
 28 26  1  0
 29 28  1  0
 30 29  1  0
 31 30  1  0
 32 33  1  0
 32 31  1  6
 34 32  1  0
 35 34  2  0
 36 34  1  0
M  END
$$$$
