YYR.pdb
     RDKit          3D

 36 37  0  0  1  0  0  0  0  0999 V2000
    8.0312  -22.3017   15.4831 O   0  0  0  0  0  0  0  0  0  0  0  0
    8.2968  -21.4002   16.5088 C   0  0  0  0  0  0  0  0  0  0  0  0
    7.3406  -21.0893   17.4639 C   0  0  0  0  0  0  0  0  0  0  0  0
    7.6139  -20.2063   18.4617 C   0  0  0  0  0  0  0  0  0  0  0  0
    8.8737  -19.6137   18.5143 C   0  0  0  0  0  0  0  0  0  0  0  0
    9.2213  -18.6500   19.5561 C   0  0  0  0  0  0  0  0  0  0  0  0
    8.9610  -17.2089   19.2152 C   0  0  2  0  0  0  0  0  0  0  0  0
    9.8654  -16.8245   18.1391 N   0  0  0  0  0  0  0  0  0  0  0  0
    9.1815  -16.3724   20.3978 C   0  0  0  0  0  0  0  0  0  0  0  0
   10.3553  -16.0876   20.7451 O   0  0  0  0  0  0  0  0  0  0  0  0
    9.8326  -19.9274   17.5542 C   0  0  0  0  0  0  0  0  0  0  0  0
    9.5469  -20.8202   16.5505 C   0  0  0  0  0  0  0  0  0  0  0  0
    7.0333  -11.9389   27.7856 O   0  0  0  0  0  0  0  0  0  0  0  0
    7.0537  -12.5401   26.5182 C   0  0  0  0  0  0  0  0  0  0  0  0
    6.4086  -13.7552   26.3735 C   0  0  0  0  0  0  0  0  0  0  0  0
    6.4592  -14.3016   25.1071 C   0  0  0  0  0  0  0  0  0  0  0  0
    7.0929  -13.7150   24.0401 C   0  0  0  0  0  0  0  0  0  0  0  0
    7.0756  -14.3955   22.7460 C   0  0  0  0  0  0  0  0  0  0  0  0
    8.3806  -15.0459   22.3799 C   0  0  2  0  0  0  0  0  0  0  0  0
    8.1282  -15.8557   21.1862 N   0  0  0  0  0  0  0  0  0  0  0  0
    8.9419  -15.9230   23.4162 C   0  0  0  0  0  0  0  0  0  0  0  0
    8.3677  -17.0137   23.6945 O   0  0  0  0  0  0  0  0  0  0  0  0
    7.7218  -12.5091   24.2248 C   0  0  0  0  0  0  0  0  0  0  0  0
    7.6965  -11.9273   25.4709 C   0  0  0  0  0  0  0  0  0  0  0  0
   15.8491  -17.5109   24.5099 N   0  0  0  0  0  0  0  0  0  0  0  0
   15.6515  -18.3489   23.3470 C   0  0  0  0  0  0  0  0  0  0  0  0
   16.5038  -19.2661   23.1217 N   0  0  0  0  0  0  0  0  0  0  0  0
   14.5487  -18.1441   22.5018 N   0  0  0  0  0  0  0  0  0  0  0  0
   13.5315  -17.1332   22.7134 C   0  0  0  0  0  0  0  0  0  0  0  0
   12.5962  -17.5643   23.7813 C   0  0  0  0  0  0  0  0  0  0  0  0
   12.1879  -16.5987   24.8120 C   0  0  0  0  0  0  0  0  0  0  0  0
   10.7651  -16.4707   25.1203 C   0  0  2  0  0  0  0  0  0  0  0  0
   10.1073  -15.5949   24.1202 N   0  0  0  0  0  0  0  0  0  0  0  0
   10.2598  -16.1564   26.4107 C   0  0  0  0  0  0  0  0  0  0  0  0
    9.4597  -16.8785   27.0606 O   0  0  0  0  0  0  0  0  0  0  0  0
   10.6344  -14.9751   27.0669 O   0  0  0  0  0  0  0  0  0  0  0  0
  2  1  1  0
  2  3  2  0
  4  3  1  0
  5  4  2  0
  6  5  1  0
  7  6  1  0
  7  8  1  6
  9 20  1  0
  9  7  1  0
 10  9  2  0
 11 12  2  0
 11  5  1  0
 12  2  1  0
 13 14  1  0
 14 15  2  0
 15 16  1  0
 17 16  2  0
 17 18  1  0
 19 18  1  1
 19 20  1  0
 21 19  1  0
 21 33  1  0
 22 21  2  0
 23 17  1  0
 24 14  1  0
 24 23  2  0
 26 27  2  0
 26 25  1  0
 28 26  1  0
 29 28  1  0
 30 29  1  0
 31 30  1  0
 32 33  1  0
 32 31  1  1
 34 32  1  0
 35 34  2  0
 36 34  1  0
M  END
$$$$
