YYR.pdb
     RDKit          3D

 36 37  0  0  1  0  0  0  0  0999 V2000
    6.2361  -12.6501   15.8274 O   0  0  0  0  0  0  0  0  0  0  0  0
    7.0291  -12.9578   16.9282 C   0  0  0  0  0  0  0  0  0  0  0  0
    6.8968  -12.2753   18.1281 C   0  0  0  0  0  0  0  0  0  0  0  0
    7.6785  -12.5868   19.1968 C   0  0  0  0  0  0  0  0  0  0  0  0
    8.6198  -13.6064   19.0719 C   0  0  0  0  0  0  0  0  0  0  0  0
    9.4946  -13.9780   20.1816 C   0  0  0  0  0  0  0  0  0  0  0  0
    9.1497  -15.2687   20.8714 C   0  0  2  0  0  0  0  0  0  0  0  0
    7.6982  -15.3673   20.9545 N   0  0  0  0  0  0  0  0  0  0  0  0
    9.7456  -15.2898   22.2098 C   0  0  0  0  0  0  0  0  0  0  0  0
   10.9957  -15.2473   22.3322 O   0  0  0  0  0  0  0  0  0  0  0  0
    8.7510  -14.2906   17.8659 C   0  0  0  0  0  0  0  0  0  0  0  0
    7.9570  -13.9685   16.7926 C   0  0  0  0  0  0  0  0  0  0  0  0
   10.3601  -15.0552   31.0138 O   0  0  0  0  0  0  0  0  0  0  0  0
    9.9364  -14.9649   29.6794 C   0  0  0  0  0  0  0  0  0  0  0  0
    9.5673  -16.1361   29.0424 C   0  0  0  0  0  0  0  0  0  0  0  0
    9.1586  -15.9901   27.7322 C   0  0  0  0  0  0  0  0  0  0  0  0
    9.1070  -14.7883   27.0709 C   0  0  0  0  0  0  0  0  0  0  0  0
    8.6553  -14.7651   25.6805 C   0  0  0  0  0  0  0  0  0  0  0  0
    9.6048  -15.4229   24.7183 C   0  0  2  0  0  0  0  0  0  0  0  0
    8.9794  -15.3554   23.3959 N   0  0  0  0  0  0  0  0  0  0  0  0
    9.8996  -16.8317   25.0124 C   0  0  0  0  0  0  0  0  0  0  0  0
    8.9756  -17.6917   24.9566 O   0  0  0  0  0  0  0  0  0  0  0  0
    9.4819  -13.6489   27.7381 C   0  0  0  0  0  0  0  0  0  0  0  0
    9.8960  -13.7472   29.0461 C   0  0  0  0  0  0  0  0  0  0  0  0
   15.2157  -22.0829   20.7181 N   0  0  0  0  0  0  0  0  0  0  0  0
   14.7563  -22.8084   21.8827 C   0  0  0  0  0  0  0  0  0  0  0  0
   15.0330  -24.0477   21.9602 N   0  0  0  0  0  0  0  0  0  0  0  0
   14.0281  -22.1518   22.8883 N   0  0  0  0  0  0  0  0  0  0  0  0
   13.5664  -20.7804   22.8020 C   0  0  0  0  0  0  0  0  0  0  0  0
   12.8681  -20.3960   24.0533 C   0  0  0  0  0  0  0  0  0  0  0  0
   12.2582  -19.0622   24.1554 C   0  0  0  0  0  0  0  0  0  0  0  0
   11.6086  -18.6889   25.4102 C   0  0  2  0  0  0  0  0  0  0  0  0
   11.1847  -17.2685   25.3577 N   0  0  0  0  0  0  0  0  0  0  0  0
   12.1528  -18.9598   26.6946 C   0  0  0  0  0  0  0  0  0  0  0  0
   12.5157  -20.0976   27.0919 O   0  0  0  0  0  0  0  0  0  0  0  0
   12.3256  -17.9370   27.6382 O   0  0  0  0  0  0  0  0  0  0  0  0
  2  1  1  0
  2  3  2  0
  4  3  1  0
  5  4  2  0
  6  5  1  0
  7  6  1  0
  7  8  1  1
  9 20  1  0
  9  7  1  0
 10  9  2  0
 11 12  2  0
 11  5  1  0
 12  2  1  0
 13 14  1  0
 14 15  2  0
 15 16  1  0
 17 16  2  0
 17 18  1  0
 19 18  1  1
 19 20  1  0
 21 19  1  0
 21 33  1  0
 22 21  2  0
 23 17  1  0
 24 14  1  0
 24 23  2  0
 26 27  2  0
 26 25  1  0
 28 26  1  0
 29 28  1  0
 30 29  1  0
 31 30  1  0
 32 33  1  0
 32 31  1  6
 34 32  1  0
 35 34  2  0
 36 34  1  0
M  END
$$$$
