HFR.pdb
     RDKit          3D

 33 34  0  0  1  0  0  0  0  0999 V2000
   28.3736  -20.3027  -16.2560 N   0  0  0  0  0  0  0  0  0  0  0  0
   27.9691  -19.6449  -15.0411 C   0  0  1  0  0  0  0  0  0  0  0  0
   27.2304  -18.3695  -15.3659 C   0  0  0  0  0  0  0  0  0  0  0  0
   28.1448  -17.4898  -16.1323 C   0  0  0  0  0  0  0  0  0  0  0  0
   27.8989  -16.8388  -17.3202 C   0  0  0  0  0  0  0  0  0  0  0  0
   29.0053  -16.1485  -17.6543 N   0  0  0  0  0  0  0  0  0  0  0  0
   29.9414  -16.3463  -16.7107 C   0  0  0  0  0  0  0  0  0  0  0  0
   29.4021  -17.1684  -15.7855 N   0  0  0  0  0  0  0  0  0  0  0  0
   27.1727  -20.5558  -14.1819 C   0  0  0  0  0  0  0  0  0  0  0  0
   26.2632  -21.2992  -14.6622 O   0  0  0  0  0  0  0  0  0  0  0  0
   27.3400  -20.6822  -12.7899 N   0  0  0  0  0  0  0  0  0  0  0  0
   26.5878  -21.5183  -11.9249 C   0  0  1  0  0  0  0  0  0  0  0  0
   27.2024  -21.9625  -10.6627 C   0  0  0  0  0  0  0  0  0  0  0  0
   26.9489  -21.0105   -9.5577 C   0  0  0  0  0  0  0  0  0  0  0  0
   25.6856  -20.7964   -9.0458 C   0  0  0  0  0  0  0  0  0  0  0  0
   25.4228  -19.9223   -8.0340 C   0  0  0  0  0  0  0  0  0  0  0  0
   26.4536  -19.1974   -7.4713 C   0  0  0  0  0  0  0  0  0  0  0  0
   27.7316  -19.3807   -7.9528 C   0  0  0  0  0  0  0  0  0  0  0  0
   27.9738  -20.2855   -8.9927 C   0  0  0  0  0  0  0  0  0  0  0  0
   25.2209  -20.9523  -11.7989 C   0  0  0  0  0  0  0  0  0  0  0  0
   25.0397  -19.7231  -11.5991 O   0  0  0  0  0  0  0  0  0  0  0  0
   19.6600  -24.4276  -17.1155 N   0  0  0  0  0  0  0  0  0  0  0  0
   20.7077  -23.5319  -16.7856 C   0  0  0  0  0  0  0  0  0  0  0  0
   21.2995  -22.7578  -17.5992 N   0  0  0  0  0  0  0  0  0  0  0  0
   21.1694  -23.4740  -15.4151 N   0  0  0  0  0  0  0  0  0  0  0  0
   20.1771  -23.0428  -14.4008 C   0  0  0  0  0  0  0  0  0  0  0  0
   20.7181  -21.8840  -13.6282 C   0  0  0  0  0  0  0  0  0  0  0  0
   21.9357  -22.1188  -12.8743 C   0  0  0  0  0  0  0  0  0  0  0  0
   22.6899  -21.1521  -12.0731 C   0  0  2  0  0  0  0  0  0  0  0  0
   24.0710  -21.7642  -11.8982 N   0  0  0  0  0  0  0  0  0  0  0  0
   22.2726  -20.7741  -10.7362 C   0  0  0  0  0  0  0  0  0  0  0  0
   21.4291  -19.6605  -10.5499 O   0  0  0  0  0  0  0  0  0  0  0  0
   22.6034  -21.3642   -9.7025 O   0  0  0  0  0  0  0  0  0  0  0  0
  2  1  1  6
  2  3  1  0
  4  3  1  0
  5  4  2  0
  6  5  1  0
  7  6  1  0
  7  8  2  0
  8  4  1  0
  9  2  1  0
 10  9  2  0
 11  9  1  0
 12 13  1  1
 12 11  1  0
 13 14  1  0
 14 15  2  0
 15 16  1  0
 17 16  2  0
 18 17  1  0
 19 18  2  0
 19 14  1  0
 20 12  1  0
 21 20  2  0
 23 24  2  0
 23 22  1  0
 25 23  1  0
 26 25  1  0
 27 26  1  0
 28 27  1  0
 29 28  1  1
 29 30  1  0
 30 20  1  0
 31 29  1  0
 31 32  1  0
 33 31  2  0
M  END
$$$$
