HFR.pdb
     RDKit          3D

 33 34  0  0  1  0  0  0  0  0999 V2000
   25.7008  -21.7034  -13.0174 N   0  0  0  0  0  0  0  0  0  0  0  0
   25.1449  -20.7104  -12.1359 C   0  0  1  0  0  0  0  0  0  0  0  0
   23.6490  -20.6344  -12.3218 C   0  0  0  0  0  0  0  0  0  0  0  0
   23.3796  -20.1595  -13.6999 C   0  0  0  0  0  0  0  0  0  0  0  0
   22.9921  -20.9016  -14.7929 C   0  0  0  0  0  0  0  0  0  0  0  0
   22.8585  -20.0649  -15.8390 N   0  0  0  0  0  0  0  0  0  0  0  0
   23.1510  -18.8166  -15.4361 C   0  0  0  0  0  0  0  0  0  0  0  0
   23.4679  -18.8886  -14.1257 N   0  0  0  0  0  0  0  0  0  0  0  0
   25.5261  -20.9759  -10.7265 C   0  0  0  0  0  0  0  0  0  0  0  0
   25.1291  -22.0134  -10.1130 O   0  0  0  0  0  0  0  0  0  0  0  0
   26.3408  -20.1289   -9.9515 N   0  0  0  0  0  0  0  0  0  0  0  0
   26.7273  -20.3373   -8.6024 C   0  0  1  0  0  0  0  0  0  0  0  0
   27.9202  -19.6393   -8.0945 C   0  0  0  0  0  0  0  0  0  0  0  0
   28.1508  -19.9099   -6.6574 C   0  0  0  0  0  0  0  0  0  0  0  0
   28.7837  -21.0538   -6.2161 C   0  0  0  0  0  0  0  0  0  0  0  0
   29.0033  -21.3311   -4.9001 C   0  0  0  0  0  0  0  0  0  0  0  0
   28.5814  -20.4407   -3.9337 C   0  0  0  0  0  0  0  0  0  0  0  0
   27.9447  -19.2852   -4.3310 C   0  0  0  0  0  0  0  0  0  0  0  0
   27.7323  -19.0247   -5.6896 C   0  0  0  0  0  0  0  0  0  0  0  0
   25.5183  -20.2293   -7.7472 C   0  0  0  0  0  0  0  0  0  0  0  0
   24.9227  -19.1313   -7.5953 O   0  0  0  0  0  0  0  0  0  0  0  0
   18.1915  -24.6015   -6.5280 N   0  0  0  0  0  0  0  0  0  0  0  0
   19.0739  -24.5836   -7.6370 C   0  0  0  0  0  0  0  0  0  0  0  0
   18.8141  -25.0382   -8.7934 N   0  0  0  0  0  0  0  0  0  0  0  0
   20.3924  -24.0105   -7.4693 N   0  0  0  0  0  0  0  0  0  0  0  0
   20.6992  -23.4365   -6.1368 C   0  0  0  0  0  0  0  0  0  0  0  0
   21.4037  -22.1293   -6.3019 C   0  0  0  0  0  0  0  0  0  0  0  0
   22.8404  -22.1872   -6.4989 C   0  0  0  0  0  0  0  0  0  0  0  0
   23.8386  -21.1983   -6.0856 C   0  0  2  0  0  0  0  0  0  0  0  0
   24.9866  -21.3484   -7.0716 N   0  0  0  0  0  0  0  0  0  0  0  0
   24.4591  -21.2380   -4.7750 C   0  0  0  0  0  0  0  0  0  0  0  0
   23.8675  -20.5537   -3.6943 O   0  0  0  0  0  0  0  0  0  0  0  0
   25.5032  -21.8424   -4.5087 O   0  0  0  0  0  0  0  0  0  0  0  0
  2  1  1  6
  2  3  1  0
  4  3  1  0
  5  4  2  0
  6  5  1  0
  7  6  1  0
  7  8  2  0
  8  4  1  0
  9  2  1  0
 10  9  2  0
 11  9  1  0
 12 13  1  1
 12 11  1  0
 13 14  1  0
 14 15  2  0
 15 16  1  0
 17 16  2  0
 18 17  1  0
 19 18  2  0
 19 14  1  0
 20 12  1  0
 21 20  2  0
 23 24  2  0
 23 22  1  0
 25 23  1  0
 26 25  1  0
 27 26  1  0
 28 27  1  0
 29 28  1  1
 29 30  1  0
 30 20  1  0
 31 29  1  0
 31 32  1  0
 33 31  2  0
M  END
$$$$
