HFR.pdb
     RDKit          3D

 33 34  0  0  1  0  0  0  0  0999 V2000
   31.1971   -9.3069  -23.0715 N   0  0  0  0  0  0  0  0  0  0  0  0
   29.9028   -8.9256  -22.5698 C   0  0  1  0  0  0  0  0  0  0  0  0
   28.9029   -8.8839  -23.6996 C   0  0  0  0  0  0  0  0  0  0  0  0
   29.2110   -7.7053  -24.5443 C   0  0  0  0  0  0  0  0  0  0  0  0
   29.6202   -7.6867  -25.8587 C   0  0  0  0  0  0  0  0  0  0  0  0
   29.7813   -6.4020  -26.2272 N   0  0  0  0  0  0  0  0  0  0  0  0
   29.4854   -5.6106  -25.1821 C   0  0  0  0  0  0  0  0  0  0  0  0
   29.1379   -6.4205  -24.1593 N   0  0  0  0  0  0  0  0  0  0  0  0
   29.4731   -9.8221  -21.4681 C   0  0  0  0  0  0  0  0  0  0  0  0
   29.5490  -11.0848  -21.5686 O   0  0  0  0  0  0  0  0  0  0  0  0
   28.9529   -9.3757  -20.2385 N   0  0  0  0  0  0  0  0  0  0  0  0
   28.5599  -10.1910  -19.1459 C   0  0  1  0  0  0  0  0  0  0  0  0
   28.9667   -9.7943  -17.7875 C   0  0  0  0  0  0  0  0  0  0  0  0
   28.4098  -10.6983  -16.7559 C   0  0  0  0  0  0  0  0  0  0  0  0
   27.2674  -10.3900  -16.0462 C   0  0  0  0  0  0  0  0  0  0  0  0
   26.7366  -11.2001  -15.0875 C   0  0  0  0  0  0  0  0  0  0  0  0
   27.3517  -12.3984  -14.7872 C   0  0  0  0  0  0  0  0  0  0  0  0
   28.4956  -12.7454  -15.4726 C   0  0  0  0  0  0  0  0  0  0  0  0
   29.0194  -11.8950  -16.4530 C   0  0  0  0  0  0  0  0  0  0  0  0
   27.1217  -10.5244  -19.3042 C   0  0  0  0  0  0  0  0  0  0  0  0
   26.2718   -9.6358  -19.5720 O   0  0  0  0  0  0  0  0  0  0  0  0
   24.3972  -18.4336  -21.5086 N   0  0  0  0  0  0  0  0  0  0  0  0
   23.2445  -17.6947  -21.8748 C   0  0  0  0  0  0  0  0  0  0  0  0
   22.2458  -18.1533  -22.5101 N   0  0  0  0  0  0  0  0  0  0  0  0
   23.1701  -16.2951  -21.5137 N   0  0  0  0  0  0  0  0  0  0  0  0
   24.3433  -15.7326  -20.8020 C   0  0  0  0  0  0  0  0  0  0  0  0
   24.0838  -14.3025  -20.4556 C   0  0  0  0  0  0  0  0  0  0  0  0
   25.1654  -13.5863  -19.8049 C   0  0  0  0  0  0  0  0  0  0  0  0
   25.1816  -12.1830  -19.3858 C   0  0  2  0  0  0  0  0  0  0  0  0
   26.6478  -11.8461  -19.1631 N   0  0  0  0  0  0  0  0  0  0  0  0
   24.5046  -11.7346  -18.1839 C   0  0  0  0  0  0  0  0  0  0  0  0
   23.4607  -10.7919  -18.2733 O   0  0  0  0  0  0  0  0  0  0  0  0
   24.7710  -12.1198  -17.0407 O   0  0  0  0  0  0  0  0  0  0  0  0
  2  1  1  6
  2  3  1  0
  4  3  1  0
  5  4  2  0
  6  5  1  0
  7  6  1  0
  7  8  2  0
  8  4  1  0
  9  2  1  0
 10  9  2  0
 11  9  1  0
 12 13  1  1
 12 11  1  0
 13 14  1  0
 14 15  2  0
 15 16  1  0
 17 16  2  0
 18 17  1  0
 19 18  2  0
 19 14  1  0
 20 12  1  0
 21 20  2  0
 23 24  2  0
 23 22  1  0
 25 23  1  0
 26 25  1  0
 27 26  1  0
 28 27  1  0
 29 28  1  1
 29 30  1  0
 30 20  1  0
 31 29  1  0
 31 32  1  0
 33 31  2  0
M  END
$$$$
