HFR.pdb
     RDKit          3D

 33 34  0  0  1  0  0  0  0  0999 V2000
   28.5451  -20.9165  -15.3637 N   0  0  0  0  0  0  0  0  0  0  0  0
   27.9203  -20.1337  -14.3298 C   0  0  1  0  0  0  0  0  0  0  0  0
   27.1519  -18.9882  -14.9425 C   0  0  0  0  0  0  0  0  0  0  0  0
   28.1069  -18.1471  -15.7027 C   0  0  0  0  0  0  0  0  0  0  0  0
   28.6006  -18.3577  -16.9705 C   0  0  0  0  0  0  0  0  0  0  0  0
   29.4358  -17.3443  -17.2665 N   0  0  0  0  0  0  0  0  0  0  0  0
   29.4824  -16.5012  -16.2209 C   0  0  0  0  0  0  0  0  0  0  0  0
   28.6649  -17.0040  -15.2714 N   0  0  0  0  0  0  0  0  0  0  0  0
   27.0698  -20.9827  -13.4591 C   0  0  0  0  0  0  0  0  0  0  0  0
   26.4627  -22.0017  -13.9102 O   0  0  0  0  0  0  0  0  0  0  0  0
   26.8566  -20.7498  -12.0873 N   0  0  0  0  0  0  0  0  0  0  0  0
   25.8770  -21.3717  -11.2709 C   0  0  1  0  0  0  0  0  0  0  0  0
   26.2873  -21.9120   -9.9641 C   0  0  0  0  0  0  0  0  0  0  0  0
   27.0441  -20.9202   -9.1671 C   0  0  0  0  0  0  0  0  0  0  0  0
   28.4217  -20.9348   -9.0898 C   0  0  0  0  0  0  0  0  0  0  0  0
   29.1430  -20.0386   -8.3594 C   0  0  0  0  0  0  0  0  0  0  0  0
   28.4899  -19.0528   -7.6478 C   0  0  0  0  0  0  0  0  0  0  0  0
   27.1138  -19.0019   -7.6974 C   0  0  0  0  0  0  0  0  0  0  0  0
   26.3974  -19.9346   -8.4560 C   0  0  0  0  0  0  0  0  0  0  0  0
   24.6697  -20.5076  -11.2481 C   0  0  0  0  0  0  0  0  0  0  0  0
   24.7648  -19.2531  -11.2714 O   0  0  0  0  0  0  0  0  0  0  0  0
   22.7722  -22.4850  -17.0220 N   0  0  0  0  0  0  0  0  0  0  0  0
   21.8901  -21.4049  -17.2756 C   0  0  0  0  0  0  0  0  0  0  0  0
   20.8997  -21.4326  -18.0692 N   0  0  0  0  0  0  0  0  0  0  0  0
   22.1123  -20.1485  -16.5924 N   0  0  0  0  0  0  0  0  0  0  0  0
   23.2040  -20.1256  -15.5890 C   0  0  0  0  0  0  0  0  0  0  0  0
   22.7439  -20.7843  -14.3293 C   0  0  0  0  0  0  0  0  0  0  0  0
   22.6262  -19.9346  -13.1587 C   0  0  0  0  0  0  0  0  0  0  0  0
   22.1869  -20.3209  -11.8159 C   0  0  2  0  0  0  0  0  0  0  0  0
   23.3691  -21.0533  -11.2005 N   0  0  0  0  0  0  0  0  0  0  0  0
   21.0493  -21.1957  -11.6042 C   0  0  0  0  0  0  0  0  0  0  0  0
   19.7548  -20.6514  -11.4838 O   0  0  0  0  0  0  0  0  0  0  0  0
   21.1146  -22.4262  -11.5158 O   0  0  0  0  0  0  0  0  0  0  0  0
  2  1  1  6
  2  3  1  0
  4  3  1  0
  5  4  2  0
  6  5  1  0
  7  6  1  0
  7  8  2  0
  8  4  1  0
  9  2  1  0
 10  9  2  0
 11  9  1  0
 12 13  1  1
 12 11  1  0
 13 14  1  0
 14 15  2  0
 15 16  1  0
 17 16  2  0
 18 17  1  0
 19 18  2  0
 19 14  1  0
 20 12  1  0
 21 20  2  0
 23 24  2  0
 23 22  1  0
 25 23  1  0
 26 25  1  0
 27 26  1  0
 28 27  1  0
 29 28  1  6
 29 30  1  0
 30 20  1  0
 31 29  1  0
 31 32  1  0
 33 31  2  0
M  END
$$$$
