HFR.pdb
     RDKit          3D

 33 34  0  0  1  0  0  0  0  0999 V2000
   21.1855  -34.1059  -14.1205 N   0  0  0  0  0  0  0  0  0  0  0  0
   20.7981  -33.4799  -12.8834 C   0  0  1  0  0  0  0  0  0  0  0  0
   19.4285  -33.9597  -12.4687 C   0  0  0  0  0  0  0  0  0  0  0  0
   18.4273  -33.3127  -13.3498 C   0  0  0  0  0  0  0  0  0  0  0  0
   17.7980  -33.8440  -14.4530 C   0  0  0  0  0  0  0  0  0  0  0  0
   16.9653  -32.9095  -14.9486 N   0  0  0  0  0  0  0  0  0  0  0  0
   17.0524  -31.8043  -14.1890 C   0  0  0  0  0  0  0  0  0  0  0  0
   17.9499  -32.0644  -13.2146 N   0  0  0  0  0  0  0  0  0  0  0  0
   21.8185  -33.7055  -11.8298 C   0  0  0  0  0  0  0  0  0  0  0  0
   22.3582  -34.8409  -11.6570 O   0  0  0  0  0  0  0  0  0  0  0  0
   22.2758  -32.7131  -10.9422 N   0  0  0  0  0  0  0  0  0  0  0  0
   23.3004  -32.8600   -9.9719 C   0  0  1  0  0  0  0  0  0  0  0  0
   24.1520  -31.6989   -9.6638 C   0  0  0  0  0  0  0  0  0  0  0  0
   25.1781  -32.0188   -8.6457 C   0  0  0  0  0  0  0  0  0  0  0  0
   26.4287  -32.4930   -8.9849 C   0  0  0  0  0  0  0  0  0  0  0  0
   27.3894  -32.8013   -8.0689 C   0  0  0  0  0  0  0  0  0  0  0  0
   27.1277  -32.6421   -6.7232 C   0  0  0  0  0  0  0  0  0  0  0  0
   25.8907  -32.1708   -6.3406 C   0  0  0  0  0  0  0  0  0  0  0  0
   24.9221  -31.8614   -7.3022 C   0  0  0  0  0  0  0  0  0  0  0  0
   22.7308  -33.5585   -8.7919 C   0  0  0  0  0  0  0  0  0  0  0  0
   21.7192  -33.1091   -8.1934 O   0  0  0  0  0  0  0  0  0  0  0  0
   17.7041  -38.9997   -7.4018 N   0  0  0  0  0  0  0  0  0  0  0  0
   18.1527  -37.6980   -7.7386 C   0  0  0  0  0  0  0  0  0  0  0  0
   17.4631  -36.8098   -8.3276 N   0  0  0  0  0  0  0  0  0  0  0  0
   19.5082  -37.3191   -7.4012 N   0  0  0  0  0  0  0  0  0  0  0  0
   20.4364  -38.4226   -7.0546 C   0  0  0  0  0  0  0  0  0  0  0  0
   21.7891  -37.8658   -6.7504 C   0  0  0  0  0  0  0  0  0  0  0  0
   22.2176  -36.7312   -7.5473 C   0  0  0  0  0  0  0  0  0  0  0  0
   22.7190  -35.4416   -7.0670 C   0  0  2  0  0  0  0  0  0  0  0  0
   23.2959  -34.7516   -8.2933 N   0  0  0  0  0  0  0  0  0  0  0  0
   23.7584  -35.3511   -6.0592 C   0  0  0  0  0  0  0  0  0  0  0  0
   24.7995  -34.4120   -6.2032 O   0  0  0  0  0  0  0  0  0  0  0  0
   23.8167  -36.0518   -5.0435 O   0  0  0  0  0  0  0  0  0  0  0  0
  2  1  1  6
  2  3  1  0
  4  3  1  0
  5  4  2  0
  6  5  1  0
  7  6  1  0
  7  8  2  0
  8  4  1  0
  9  2  1  0
 10  9  2  0
 11  9  1  0
 12 13  1  1
 12 11  1  0
 13 14  1  0
 14 15  2  0
 15 16  1  0
 17 16  2  0
 18 17  1  0
 19 18  2  0
 19 14  1  0
 20 12  1  0
 21 20  2  0
 23 24  2  0
 23 22  1  0
 25 23  1  0
 26 25  1  0
 27 26  1  0
 28 27  1  0
 29 28  1  6
 29 30  1  0
 30 20  1  0
 31 29  1  0
 31 32  1  0
 33 31  2  0
M  END
$$$$
