HFR.pdb
     RDKit          3D

 33 34  0  0  1  0  0  0  0  0999 V2000
   28.1505  -21.3172  -15.4857 N   0  0  0  0  0  0  0  0  0  0  0  0
   27.4313  -20.2851  -14.7858 C   0  0  1  0  0  0  0  0  0  0  0  0
   26.7454  -19.3731  -15.7735 C   0  0  0  0  0  0  0  0  0  0  0  0
   27.7905  -18.6308  -16.5179 C   0  0  0  0  0  0  0  0  0  0  0  0
   28.4092  -18.9872  -17.6950 C   0  0  0  0  0  0  0  0  0  0  0  0
   29.2903  -18.0202  -18.0125 N   0  0  0  0  0  0  0  0  0  0  0  0
   29.2443  -17.0647  -17.0687 C   0  0  0  0  0  0  0  0  0  0  0  0
   28.3229  -17.4504  -16.1605 N   0  0  0  0  0  0  0  0  0  0  0  0
   26.4841  -20.8683  -13.8035 C   0  0  0  0  0  0  0  0  0  0  0  0
   25.8698  -21.9546  -14.0341 O   0  0  0  0  0  0  0  0  0  0  0  0
   26.1801  -20.2923  -12.5555 N   0  0  0  0  0  0  0  0  0  0  0  0
   25.2544  -20.7903  -11.6025 C   0  0  1  0  0  0  0  0  0  0  0  0
   25.6280  -20.7692  -10.1784 C   0  0  0  0  0  0  0  0  0  0  0  0
   27.0662  -21.0577   -9.9783 C   0  0  0  0  0  0  0  0  0  0  0  0
   27.6911  -22.1333  -10.5752 C   0  0  0  0  0  0  0  0  0  0  0  0
   29.0110  -22.4257  -10.4036 C   0  0  0  0  0  0  0  0  0  0  0  0
   29.7900  -21.6229   -9.5954 C   0  0  0  0  0  0  0  0  0  0  0  0
   29.2055  -20.5376   -8.9797 C   0  0  0  0  0  0  0  0  0  0  0  0
   27.8476  -20.2597   -9.1734 C   0  0  0  0  0  0  0  0  0  0  0  0
   23.9150  -20.2302  -11.9142 C   0  0  0  0  0  0  0  0  0  0  0  0
   23.7345  -18.9890  -12.0160 O   0  0  0  0  0  0  0  0  0  0  0  0
   21.7864  -19.3164  -18.6677 N   0  0  0  0  0  0  0  0  0  0  0  0
   20.6952  -18.5828  -18.1385 C   0  0  0  0  0  0  0  0  0  0  0  0
   19.7087  -18.1442  -18.8061 N   0  0  0  0  0  0  0  0  0  0  0  0
   20.6759  -18.2870  -16.7219 N   0  0  0  0  0  0  0  0  0  0  0  0
   21.8946  -18.6430  -15.9554 C   0  0  0  0  0  0  0  0  0  0  0  0
   21.9031  -20.1108  -15.6766 C   0  0  0  0  0  0  0  0  0  0  0  0
   22.4489  -20.5248  -14.3972 C   0  0  0  0  0  0  0  0  0  0  0  0
   21.7261  -20.7137  -13.1374 C   0  0  2  0  0  0  0  0  0  0  0  0
   22.7917  -21.0618  -12.1099 N   0  0  0  0  0  0  0  0  0  0  0  0
   20.7069  -21.7345  -12.9847 C   0  0  0  0  0  0  0  0  0  0  0  0
   21.0647  -23.0974  -13.0145 O   0  0  0  0  0  0  0  0  0  0  0  0
   19.5030  -21.5085  -12.8244 O   0  0  0  0  0  0  0  0  0  0  0  0
  2  1  1  6
  2  3  1  0
  4  3  1  0
  5  4  2  0
  6  5  1  0
  7  6  1  0
  7  8  2  0
  8  4  1  0
  9  2  1  0
 10  9  2  0
 11  9  1  0
 12 13  1  1
 12 11  1  0
 13 14  1  0
 14 15  2  0
 15 16  1  0
 17 16  2  0
 18 17  1  0
 19 18  2  0
 19 14  1  0
 20 12  1  0
 21 20  2  0
 23 24  2  0
 23 22  1  0
 25 23  1  0
 26 25  1  0
 27 26  1  0
 28 27  1  0
 29 28  1  6
 29 30  1  0
 30 20  1  0
 31 29  1  0
 31 32  1  0
 33 31  2  0
M  END
$$$$
