HFR.pdb
     RDKit          3D

 33 34  0  0  1  0  0  0  0  0999 V2000
   28.2886  -20.8408  -16.0248 N   0  0  0  0  0  0  0  0  0  0  0  0
   27.7748  -20.1030  -14.9006 C   0  0  1  0  0  0  0  0  0  0  0  0
   27.2573  -18.7607  -15.3568 C   0  0  0  0  0  0  0  0  0  0  0  0
   28.3557  -18.0591  -16.0628 C   0  0  0  0  0  0  0  0  0  0  0  0
   28.3804  -17.6158  -17.3660 C   0  0  0  0  0  0  0  0  0  0  0  0
   29.5735  -17.0322  -17.5855 N   0  0  0  0  0  0  0  0  0  0  0  0
   30.3013  -17.0954  -16.4576 C   0  0  0  0  0  0  0  0  0  0  0  0
   29.5447  -17.7257  -15.5341 N   0  0  0  0  0  0  0  0  0  0  0  0
   26.7461  -20.8877  -14.1737 C   0  0  0  0  0  0  0  0  0  0  0  0
   25.8145  -21.4937  -14.7861 O   0  0  0  0  0  0  0  0  0  0  0  0
   26.7010  -21.0333  -12.7742 N   0  0  0  0  0  0  0  0  0  0  0  0
   25.7148  -21.7341  -12.0330 C   0  0  1  0  0  0  0  0  0  0  0  0
   26.0669  -22.2455  -10.6978 C   0  0  0  0  0  0  0  0  0  0  0  0
   26.5289  -21.1668   -9.7952 C   0  0  0  0  0  0  0  0  0  0  0  0
   27.8674  -20.9023   -9.5892 C   0  0  0  0  0  0  0  0  0  0  0  0
   28.3205  -19.9205   -8.7599 C   0  0  0  0  0  0  0  0  0  0  0  0
   27.4176  -19.1328   -8.0752 C   0  0  0  0  0  0  0  0  0  0  0  0
   26.0707  -19.3632   -8.2520 C   0  0  0  0  0  0  0  0  0  0  0  0
   25.6323  -20.3780   -9.1103 C   0  0  0  0  0  0  0  0  0  0  0  0
   24.4447  -20.9683  -12.1031 C   0  0  0  0  0  0  0  0  0  0  0  0
   24.4349  -19.7124  -12.0248 O   0  0  0  0  0  0  0  0  0  0  0  0
   19.0810  -21.0190  -17.2367 N   0  0  0  0  0  0  0  0  0  0  0  0
   17.9645  -21.1538  -16.3739 C   0  0  0  0  0  0  0  0  0  0  0  0
   16.8813  -21.7517  -16.6577 N   0  0  0  0  0  0  0  0  0  0  0  0
   18.0303  -20.5671  -15.0524 N   0  0  0  0  0  0  0  0  0  0  0  0
   19.3767  -20.1773  -14.5682 C   0  0  0  0  0  0  0  0  0  0  0  0
   20.2545  -21.3843  -14.4958 C   0  0  0  0  0  0  0  0  0  0  0  0
   21.5842  -21.1873  -13.9489 C   0  0  0  0  0  0  0  0  0  0  0  0
   21.9395  -20.8209  -12.5761 C   0  0  2  0  0  0  0  0  0  0  0  0
   23.1991  -21.6126  -12.2610 N   0  0  0  0  0  0  0  0  0  0  0  0
   21.0468  -21.0724  -11.4607 C   0  0  0  0  0  0  0  0  0  0  0  0
   20.0534  -20.1300  -11.1269 O   0  0  0  0  0  0  0  0  0  0  0  0
   21.0795  -22.0799  -10.7464 O   0  0  0  0  0  0  0  0  0  0  0  0
  2  1  1  6
  2  3  1  0
  4  3  1  0
  5  4  2  0
  6  5  1  0
  7  6  1  0
  7  8  2  0
  8  4  1  0
  9  2  1  0
 10  9  2  0
 11  9  1  0
 12 13  1  1
 12 11  1  0
 13 14  1  0
 14 15  2  0
 15 16  1  0
 17 16  2  0
 18 17  1  0
 19 18  2  0
 19 14  1  0
 20 12  1  0
 21 20  2  0
 23 24  2  0
 23 22  1  0
 25 23  1  0
 26 25  1  0
 27 26  1  0
 28 27  1  0
 29 28  1  6
 29 30  1  0
 30 20  1  0
 31 29  1  0
 31 32  1  0
 33 31  2  0
M  END
$$$$
