HFR.pdb
     RDKit          3D

 33 34  0  0  1  0  0  0  0  0999 V2000
   25.6643  -21.6968  -13.4392 N   0  0  0  0  0  0  0  0  0  0  0  0
   25.0567  -20.7508  -12.5402 C   0  0  1  0  0  0  0  0  0  0  0  0
   23.5554  -20.7856  -12.6915 C   0  0  0  0  0  0  0  0  0  0  0  0
   23.2184  -20.3087  -14.0540 C   0  0  0  0  0  0  0  0  0  0  0  0
   22.9411  -21.0620  -15.1725 C   0  0  0  0  0  0  0  0  0  0  0  0
   22.6866  -20.2188  -16.1906 N   0  0  0  0  0  0  0  0  0  0  0  0
   22.7959  -18.9556  -15.7452 C   0  0  0  0  0  0  0  0  0  0  0  0
   23.1214  -19.0248  -14.4369 N   0  0  0  0  0  0  0  0  0  0  0  0
   25.4891  -20.9918  -11.1413 C   0  0  0  0  0  0  0  0  0  0  0  0
   25.6805  -22.1644  -10.6956 O   0  0  0  0  0  0  0  0  0  0  0  0
   25.7225  -19.9748  -10.1962 N   0  0  0  0  0  0  0  0  0  0  0  0
   26.2384  -20.1468   -8.8858 C   0  0  1  0  0  0  0  0  0  0  0  0
   27.4224  -19.3679   -8.4860 C   0  0  0  0  0  0  0  0  0  0  0  0
   27.7919  -19.6074   -7.0725 C   0  0  0  0  0  0  0  0  0  0  0  0
   27.3351  -18.8059   -6.0464 C   0  0  0  0  0  0  0  0  0  0  0  0
   27.6641  -18.9994   -4.7383 C   0  0  0  0  0  0  0  0  0  0  0  0
   28.4968  -20.0431   -4.3895 C   0  0  0  0  0  0  0  0  0  0  0  0
   28.9759  -20.8683   -5.3836 C   0  0  0  0  0  0  0  0  0  0  0  0
   28.6219  -20.6474   -6.7194 C   0  0  0  0  0  0  0  0  0  0  0  0
   25.1044  -20.1118   -7.9280 C   0  0  0  0  0  0  0  0  0  0  0  0
   24.1108  -19.3640   -8.1205 O   0  0  0  0  0  0  0  0  0  0  0  0
   19.7844  -21.9911  -10.1276 N   0  0  0  0  0  0  0  0  0  0  0  0
   18.9472  -22.3530   -9.0427 C   0  0  0  0  0  0  0  0  0  0  0  0
   17.6971  -22.1430   -8.9741 N   0  0  0  0  0  0  0  0  0  0  0  0
   19.5364  -23.0147   -7.8982 N   0  0  0  0  0  0  0  0  0  0  0  0
   21.0164  -23.1062   -7.8770 C   0  0  0  0  0  0  0  0  0  0  0  0
   21.5701  -22.0888   -6.9332 C   0  0  0  0  0  0  0  0  0  0  0  0
   23.0133  -22.0617   -6.7823 C   0  0  0  0  0  0  0  0  0  0  0  0
   23.8093  -21.1320   -5.9778 C   0  0  2  0  0  0  0  0  0  0  0  0
   25.0911  -20.9127   -6.7662 N   0  0  0  0  0  0  0  0  0  0  0  0
   24.2446  -21.4611   -4.6338 C   0  0  0  0  0  0  0  0  0  0  0  0
   23.6359  -20.8406   -3.5243 O   0  0  0  0  0  0  0  0  0  0  0  0
   25.1381  -22.2696   -4.3615 O   0  0  0  0  0  0  0  0  0  0  0  0
  2  1  1  6
  2  3  1  0
  4  3  1  0
  5  4  2  0
  6  5  1  0
  7  6  1  0
  7  8  2  0
  8  4  1  0
  9  2  1  0
 10  9  2  0
 11  9  1  0
 12 13  1  1
 12 11  1  0
 13 14  1  0
 14 15  2  0
 15 16  1  0
 17 16  2  0
 18 17  1  0
 19 18  2  0
 19 14  1  0
 20 12  1  0
 21 20  2  0
 23 24  2  0
 23 22  1  0
 25 23  1  0
 26 25  1  0
 27 26  1  0
 28 27  1  0
 29 28  1  6
 29 30  1  0
 30 20  1  0
 31 29  1  0
 31 32  1  0
 33 31  2  0
M  END
$$$$
