HFR.pdb
     RDKit          3D

 33 34  0  0  1  0  0  0  0  0999 V2000
   28.4019  -22.6190  -17.7646 N   0  0  0  0  0  0  0  0  0  0  0  0
   27.7727  -21.4028  -17.3204 C   0  0  1  0  0  0  0  0  0  0  0  0
   26.8837  -20.8538  -18.4095 C   0  0  0  0  0  0  0  0  0  0  0  0
   27.7502  -20.2693  -19.4606 C   0  0  0  0  0  0  0  0  0  0  0  0
   28.2700  -18.9959  -19.5210 C   0  0  0  0  0  0  0  0  0  0  0  0
   29.0017  -18.8970  -20.6467 N   0  0  0  0  0  0  0  0  0  0  0  0
   28.9574  -20.0720  -21.2974 C   0  0  0  0  0  0  0  0  0  0  0  0
   28.1888  -20.9025  -20.5611 N   0  0  0  0  0  0  0  0  0  0  0  0
   27.0405  -21.6161  -16.0474 C   0  0  0  0  0  0  0  0  0  0  0  0
   26.1309  -22.4945  -15.9411 O   0  0  0  0  0  0  0  0  0  0  0  0
   27.2734  -20.8869  -14.8660 N   0  0  0  0  0  0  0  0  0  0  0  0
   26.5769  -21.0300  -13.6382 C   0  0  1  0  0  0  0  0  0  0  0  0
   27.1771  -20.4675  -12.4170 C   0  0  0  0  0  0  0  0  0  0  0  0
   26.2830  -20.6066  -11.2452 C   0  0  0  0  0  0  0  0  0  0  0  0
   26.3023  -21.7218  -10.4330 C   0  0  0  0  0  0  0  0  0  0  0  0
   25.4868  -21.8788   -9.3526 C   0  0  0  0  0  0  0  0  0  0  0  0
   24.5826  -20.8880   -9.0283 C   0  0  0  0  0  0  0  0  0  0  0  0
   24.5302  -19.7568   -9.8134 C   0  0  0  0  0  0  0  0  0  0  0  0
   25.3796  -19.6208  -10.9173 C   0  0  0  0  0  0  0  0  0  0  0  0
   25.1524  -20.6771  -13.8643 C   0  0  0  0  0  0  0  0  0  0  0  0
   24.8297  -19.6152  -14.4573 O   0  0  0  0  0  0  0  0  0  0  0  0
   18.1933  -23.1206  -15.4641 N   0  0  0  0  0  0  0  0  0  0  0  0
   18.1966  -22.4689  -16.7227 C   0  0  0  0  0  0  0  0  0  0  0  0
   17.1653  -22.1071  -17.3684 N   0  0  0  0  0  0  0  0  0  0  0  0
   19.4663  -22.1815  -17.3554 N   0  0  0  0  0  0  0  0  0  0  0  0
   20.6822  -22.6074  -16.6210 C   0  0  0  0  0  0  0  0  0  0  0  0
   20.9231  -21.6866  -15.4693 C   0  0  0  0  0  0  0  0  0  0  0  0
   22.1479  -21.8934  -14.7188 C   0  0  0  0  0  0  0  0  0  0  0  0
   22.6491  -21.1022  -13.5927 C   0  0  2  0  0  0  0  0  0  0  0  0
   24.1036  -21.5139  -13.4269 N   0  0  0  0  0  0  0  0  0  0  0  0
   22.0733  -21.2084  -12.2655 C   0  0  0  0  0  0  0  0  0  0  0  0
   20.9917  -20.3826  -11.8986 O   0  0  0  0  0  0  0  0  0  0  0  0
   22.4611  -21.9895  -11.3905 O   0  0  0  0  0  0  0  0  0  0  0  0
  2  1  1  6
  2  3  1  0
  4  3  1  0
  5  4  2  0
  6  5  1  0
  7  6  1  0
  7  8  2  0
  8  4  1  0
  9  2  1  0
 10  9  2  0
 11  9  1  0
 12 13  1  1
 12 11  1  0
 13 14  1  0
 14 15  2  0
 15 16  1  0
 17 16  2  0
 18 17  1  0
 19 18  2  0
 19 14  1  0
 20 12  1  0
 21 20  2  0
 23 24  2  0
 23 22  1  0
 25 23  1  0
 26 25  1  0
 27 26  1  0
 28 27  1  0
 29 28  1  6
 29 30  1  0
 30 20  1  0
 31 29  1  0
 31 32  1  0
 33 31  2  0
M  END
$$$$
