HFR.pdb
     RDKit          3D

 33 34  0  0  1  0  0  0  0  0999 V2000
   23.7513  -18.6645  -19.5075 N   0  0  0  0  0  0  0  0  0  0  0  0
   22.5212  -19.2971  -19.1087 C   0  0  1  0  0  0  0  0  0  0  0  0
   22.2371  -20.4815  -19.9999 C   0  0  0  0  0  0  0  0  0  0  0  0
   21.9606  -19.9748  -21.3653 C   0  0  0  0  0  0  0  0  0  0  0  0
   22.5334  -20.3754  -22.5514 C   0  0  0  0  0  0  0  0  0  0  0  0
   21.9847  -19.6515  -23.5450 N   0  0  0  0  0  0  0  0  0  0  0  0
   21.0825  -18.8061  -23.0184 C   0  0  0  0  0  0  0  0  0  0  0  0
   21.0776  -19.0143  -21.6845 N   0  0  0  0  0  0  0  0  0  0  0  0
   22.5536  -19.6664  -17.6718 C   0  0  0  0  0  0  0  0  0  0  0  0
   23.4240  -20.4652  -17.2086 O   0  0  0  0  0  0  0  0  0  0  0  0
   21.6490  -19.1833  -16.7074 N   0  0  0  0  0  0  0  0  0  0  0  0
   21.7203  -19.3955  -15.3064 C   0  0  1  0  0  0  0  0  0  0  0  0
   22.4237  -18.4024  -14.4774 C   0  0  0  0  0  0  0  0  0  0  0  0
   22.1287  -17.0158  -14.9038 C   0  0  0  0  0  0  0  0  0  0  0  0
   21.0948  -16.2823  -14.3589 C   0  0  0  0  0  0  0  0  0  0  0  0
   20.7972  -15.0073  -14.7368 C   0  0  0  0  0  0  0  0  0  0  0  0
   21.5509  -14.3900  -15.7142 C   0  0  0  0  0  0  0  0  0  0  0  0
   22.5935  -15.0869  -16.2851 C   0  0  0  0  0  0  0  0  0  0  0  0
   22.8779  -16.3953  -15.8780 C   0  0  0  0  0  0  0  0  0  0  0  0
   20.3711  -19.7829  -14.8224 C   0  0  0  0  0  0  0  0  0  0  0  0
   19.3293  -19.3699  -15.3948 O   0  0  0  0  0  0  0  0  0  0  0  0
   17.4209  -26.5728  -11.0773 N   0  0  0  0  0  0  0  0  0  0  0  0
   16.7024  -25.7804  -12.0072 C   0  0  0  0  0  0  0  0  0  0  0  0
   15.4894  -25.9519  -12.3399 N   0  0  0  0  0  0  0  0  0  0  0  0
   17.3809  -24.6777  -12.6542 N   0  0  0  0  0  0  0  0  0  0  0  0
   18.8385  -24.5616  -12.4066 C   0  0  0  0  0  0  0  0  0  0  0  0
   19.4114  -23.4849  -13.2696 C   0  0  0  0  0  0  0  0  0  0  0  0
   18.5609  -22.3371  -13.5251 C   0  0  0  0  0  0  0  0  0  0  0  0
   18.8136  -20.9407  -13.1626 C   0  0  2  0  0  0  0  0  0  0  0  0
   20.1993  -20.6280  -13.7054 N   0  0  0  0  0  0  0  0  0  0  0  0
   18.8416  -20.5011  -11.7806 C   0  0  0  0  0  0  0  0  0  0  0  0
   17.6503  -20.4658  -11.0281 O   0  0  0  0  0  0  0  0  0  0  0  0
   19.8573  -20.1394  -11.1775 O   0  0  0  0  0  0  0  0  0  0  0  0
  2  1  1  6
  2  3  1  0
  4  3  1  0
  5  4  2  0
  6  5  1  0
  7  6  1  0
  7  8  2  0
  8  4  1  0
  9  2  1  0
 10  9  2  0
 11  9  1  0
 12 13  1  1
 12 11  1  0
 13 14  1  0
 14 15  2  0
 15 16  1  0
 17 16  2  0
 18 17  1  0
 19 18  2  0
 19 14  1  0
 20 12  1  0
 21 20  2  0
 23 24  2  0
 23 22  1  0
 25 23  1  0
 26 25  1  0
 27 26  1  0
 28 27  1  0
 29 28  1  1
 29 30  1  0
 30 20  1  0
 31 29  1  0
 31 32  1  0
 33 31  2  0
M  END
$$$$
