HFR.pdb
     RDKit          3D

 33 34  0  0  1  0  0  0  0  0999 V2000
   15.3937  -22.0645    2.1758 N   0  0  0  0  0  0  0  0  0  0  0  0
   15.0622  -21.0701    3.1624 C   0  0  1  0  0  0  0  0  0  0  0  0
   15.0061  -21.7007    4.5325 C   0  0  0  0  0  0  0  0  0  0  0  0
   13.6164  -22.1571    4.7731 C   0  0  0  0  0  0  0  0  0  0  0  0
   12.7905  -22.8504    3.9172 C   0  0  0  0  0  0  0  0  0  0  0  0
   11.6185  -23.0587    4.5459 N   0  0  0  0  0  0  0  0  0  0  0  0
   11.6826  -22.5161    5.7737 C   0  0  0  0  0  0  0  0  0  0  0  0
   12.9099  -21.9681    5.8998 N   0  0  0  0  0  0  0  0  0  0  0  0
   16.0068  -19.9270    3.1050 C   0  0  0  0  0  0  0  0  0  0  0  0
   17.0960  -19.9946    2.4574 O   0  0  0  0  0  0  0  0  0  0  0  0
   15.7966  -18.6907    3.7446 N   0  0  0  0  0  0  0  0  0  0  0  0
   16.6356  -17.5493    3.6652 C   0  0  1  0  0  0  0  0  0  0  0  0
   16.1666  -16.3807    2.9019 C   0  0  0  0  0  0  0  0  0  0  0  0
   17.1754  -15.2976    2.8712 C   0  0  0  0  0  0  0  0  0  0  0  0
   18.2817  -15.3452    2.0481 C   0  0  0  0  0  0  0  0  0  0  0  0
   19.2284  -14.3660    2.0042 C   0  0  0  0  0  0  0  0  0  0  0  0
   19.1025  -13.2560    2.8144 C   0  0  0  0  0  0  0  0  0  0  0  0
   18.0122  -13.1681    3.6522 C   0  0  0  0  0  0  0  0  0  0  0  0
   17.0541  -14.1880    3.6772 C   0  0  0  0  0  0  0  0  0  0  0  0
   17.1510  -17.2518    5.0255 C   0  0  0  0  0  0  0  0  0  0  0  0
   17.9794  -16.3250    5.2210 O   0  0  0  0  0  0  0  0  0  0  0  0
   11.4999  -16.0297   10.5722 N   0  0  0  0  0  0  0  0  0  0  0  0
   11.5693  -15.3138    9.3509 C   0  0  0  0  0  0  0  0  0  0  0  0
   10.6682  -14.5449    8.8947 N   0  0  0  0  0  0  0  0  0  0  0  0
   12.7516  -15.4530    8.5277 N   0  0  0  0  0  0  0  0  0  0  0  0
   13.7386  -16.4739    8.9554 C   0  0  0  0  0  0  0  0  0  0  0  0
   14.9105  -16.4604    8.0287 C   0  0  0  0  0  0  0  0  0  0  0  0
   15.9818  -17.3938    8.3241 C   0  0  0  0  0  0  0  0  0  0  0  0
   17.2050  -17.6222    7.5517 C   0  0  2  0  0  0  0  0  0  0  0  0
   16.7354  -17.9915    6.1532 N   0  0  0  0  0  0  0  0  0  0  0  0
   18.1585  -18.6535    7.9141 C   0  0  0  0  0  0  0  0  0  0  0  0
   18.8437  -18.5789    9.1435 O   0  0  0  0  0  0  0  0  0  0  0  0
   18.4366  -19.6324    7.2137 O   0  0  0  0  0  0  0  0  0  0  0  0
  2  1  1  6
  2  3  1  0
  4  3  1  0
  5  4  2  0
  6  5  1  0
  7  6  1  0
  7  8  2  0
  8  4  1  0
  9  2  1  0
 10  9  2  0
 11  9  1  0
 12 13  1  1
 12 11  1  0
 13 14  1  0
 14 15  2  0
 15 16  1  0
 17 16  2  0
 18 17  1  0
 19 18  2  0
 19 14  1  0
 20 12  1  0
 21 20  2  0
 23 24  2  0
 23 22  1  0
 25 23  1  0
 26 25  1  0
 27 26  1  0
 28 27  1  0
 29 28  1  1
 29 30  1  0
 30 20  1  0
 31 29  1  0
 31 32  1  0
 33 31  2  0
M  END
$$$$
