HFR.pdb
     RDKit          3D

 33 34  0  0  1  0  0  0  0  0999 V2000
   28.2551  -23.1519  -17.9545 N   0  0  0  0  0  0  0  0  0  0  0  0
   27.3408  -22.0565  -17.7634 C   0  0  1  0  0  0  0  0  0  0  0  0
   26.2772  -22.0789  -18.8340 C   0  0  0  0  0  0  0  0  0  0  0  0
   26.9110  -21.7054  -20.1210 C   0  0  0  0  0  0  0  0  0  0  0  0
   27.4080  -20.4780  -20.4976 C   0  0  0  0  0  0  0  0  0  0  0  0
   27.8944  -20.5908  -21.7478 N   0  0  0  0  0  0  0  0  0  0  0  0
   27.7177  -21.8544  -22.1696 C   0  0  0  0  0  0  0  0  0  0  0  0
   27.1154  -22.5256  -21.1649 N   0  0  0  0  0  0  0  0  0  0  0  0
   26.7657  -22.0751  -16.3955 C   0  0  0  0  0  0  0  0  0  0  0  0
   26.1386  -23.0844  -15.9500 O   0  0  0  0  0  0  0  0  0  0  0  0
   26.8544  -21.0072  -15.4826 N   0  0  0  0  0  0  0  0  0  0  0  0
   26.4014  -21.0103  -14.1381 C   0  0  1  0  0  0  0  0  0  0  0  0
   27.1094  -20.1754  -13.1532 C   0  0  0  0  0  0  0  0  0  0  0  0
   26.5269  -20.3026  -11.7981 C   0  0  0  0  0  0  0  0  0  0  0  0
   25.4437  -19.5521  -11.3891 C   0  0  0  0  0  0  0  0  0  0  0  0
   24.8917  -19.6441  -10.1467 C   0  0  0  0  0  0  0  0  0  0  0  0
   25.4222  -20.5249   -9.2261 C   0  0  0  0  0  0  0  0  0  0  0  0
   26.5048  -21.2940   -9.5933 C   0  0  0  0  0  0  0  0  0  0  0  0
   27.0521  -21.1799  -10.8763 C   0  0  0  0  0  0  0  0  0  0  0  0
   24.9233  -20.8693  -14.1419 C   0  0  0  0  0  0  0  0  0  0  0  0
   24.3580  -19.9435  -14.7797 O   0  0  0  0  0  0  0  0  0  0  0  0
   22.0820  -26.9582  -14.3417 N   0  0  0  0  0  0  0  0  0  0  0  0
   21.0077  -26.9759  -13.4173 C   0  0  0  0  0  0  0  0  0  0  0  0
   20.7836  -27.8892  -12.5647 N   0  0  0  0  0  0  0  0  0  0  0  0
   20.0652  -25.8775  -13.4231 N   0  0  0  0  0  0  0  0  0  0  0  0
   20.3878  -24.7342  -14.3108 C   0  0  0  0  0  0  0  0  0  0  0  0
   20.7449  -23.5411  -13.4854 C   0  0  0  0  0  0  0  0  0  0  0  0
   22.1104  -23.0621  -13.5945 C   0  0  0  0  0  0  0  0  0  0  0  0
   22.5773  -21.6751  -13.5351 C   0  0  2  0  0  0  0  0  0  0  0  0
   24.0921  -21.7639  -13.4346 N   0  0  0  0  0  0  0  0  0  0  0  0
   22.1801  -20.7784  -12.4663 C   0  0  0  0  0  0  0  0  0  0  0  0
   22.9397  -20.7153  -11.2807 O   0  0  0  0  0  0  0  0  0  0  0  0
   21.1951  -20.0336  -12.5020 O   0  0  0  0  0  0  0  0  0  0  0  0
  2  1  1  6
  2  3  1  0
  4  3  1  0
  5  4  2  0
  6  5  1  0
  7  6  1  0
  7  8  2  0
  8  4  1  0
  9  2  1  0
 10  9  2  0
 11  9  1  0
 12 13  1  1
 12 11  1  0
 13 14  1  0
 14 15  2  0
 15 16  1  0
 17 16  2  0
 18 17  1  0
 19 18  2  0
 19 14  1  0
 20 12  1  0
 21 20  2  0
 23 24  2  0
 23 22  1  0
 25 23  1  0
 26 25  1  0
 27 26  1  0
 28 27  1  0
 29 28  1  1
 29 30  1  0
 30 20  1  0
 31 29  1  0
 31 32  1  0
 33 31  2  0
M  END
$$$$
