HFR.pdb
     RDKit          3D

 33 34  0  0  1  0  0  0  0  0999 V2000
   25.2515  -22.9723  -17.8558 N   0  0  0  0  0  0  0  0  0  0  0  0
   24.5444  -21.7738  -17.4869 C   0  0  1  0  0  0  0  0  0  0  0  0
   23.4285  -21.5099  -18.4682 C   0  0  0  0  0  0  0  0  0  0  0  0
   24.0358  -21.2086  -19.7865 C   0  0  0  0  0  0  0  0  0  0  0  0
   24.5838  -20.0213  -20.2171 C   0  0  0  0  0  0  0  0  0  0  0  0
   25.0195  -20.1964  -21.4787 N   0  0  0  0  0  0  0  0  0  0  0  0
   24.7612  -21.4603  -21.8553 C   0  0  0  0  0  0  0  0  0  0  0  0
   24.1596  -22.0685  -20.8109 N   0  0  0  0  0  0  0  0  0  0  0  0
   24.0588  -21.8514  -16.0868 C   0  0  0  0  0  0  0  0  0  0  0  0
   23.4668  -22.8824  -15.6431 O   0  0  0  0  0  0  0  0  0  0  0  0
   24.2006  -20.8201  -15.1391 N   0  0  0  0  0  0  0  0  0  0  0  0
   23.7245  -20.8347  -13.8027 C   0  0  1  0  0  0  0  0  0  0  0  0
   24.3957  -19.9844  -12.8054 C   0  0  0  0  0  0  0  0  0  0  0  0
   23.8325  -20.1709  -11.4490 C   0  0  0  0  0  0  0  0  0  0  0  0
   22.6189  -19.6312  -11.0754 C   0  0  0  0  0  0  0  0  0  0  0  0
   22.0801  -19.7817   -9.8328 C   0  0  0  0  0  0  0  0  0  0  0  0
   22.7606  -20.5061   -8.8753 C   0  0  0  0  0  0  0  0  0  0  0  0
   23.9768  -21.0626   -9.2065 C   0  0  0  0  0  0  0  0  0  0  0  0
   24.5072  -20.8930  -10.4905 C   0  0  0  0  0  0  0  0  0  0  0  0
   22.2438  -20.7279  -13.8322 C   0  0  0  0  0  0  0  0  0  0  0  0
   21.6657  -19.8736  -14.5529 O   0  0  0  0  0  0  0  0  0  0  0  0
   15.2846  -23.8347  -14.6527 N   0  0  0  0  0  0  0  0  0  0  0  0
   16.2982  -24.4144  -15.4562 C   0  0  0  0  0  0  0  0  0  0  0  0
   16.2066  -24.6543  -16.6993 N   0  0  0  0  0  0  0  0  0  0  0  0
   17.5542  -24.7804  -14.8370 N   0  0  0  0  0  0  0  0  0  0  0  0
   17.6563  -24.5678  -13.3729 C   0  0  0  0  0  0  0  0  0  0  0  0
   17.9614  -23.1322  -13.0928 C   0  0  0  0  0  0  0  0  0  0  0  0
   19.3584  -22.7433  -13.1483 C   0  0  0  0  0  0  0  0  0  0  0  0
   19.9150  -21.3943  -13.0235 C   0  0  2  0  0  0  0  0  0  0  0  0
   21.4244  -21.5766  -13.0577 N   0  0  0  0  0  0  0  0  0  0  0  0
   19.6613  -20.5656  -11.8603 C   0  0  0  0  0  0  0  0  0  0  0  0
   18.6800  -19.5554  -11.9154 O   0  0  0  0  0  0  0  0  0  0  0  0
   20.2521  -20.6688  -10.7802 O   0  0  0  0  0  0  0  0  0  0  0  0
  2  1  1  6
  2  3  1  0
  4  3  1  0
  5  4  2  0
  6  5  1  0
  7  6  1  0
  7  8  2  0
  8  4  1  0
  9  2  1  0
 10  9  2  0
 11  9  1  0
 12 13  1  1
 12 11  1  0
 13 14  1  0
 14 15  2  0
 15 16  1  0
 17 16  2  0
 18 17  1  0
 19 18  2  0
 19 14  1  0
 20 12  1  0
 21 20  2  0
 23 24  2  0
 23 22  1  0
 25 23  1  0
 26 25  1  0
 27 26  1  0
 28 27  1  0
 29 28  1  1
 29 30  1  0
 30 20  1  0
 31 29  1  0
 31 32  1  0
 33 31  2  0
M  END
$$$$
