CRD.pdb
     RDKit          3D

 26 25  0  0  1  0  0  0  0  0999 V2000
   28.0905  -19.0658  -17.1147 N   0  0  0  0  0  0  0  0  0  0  0  0
   27.5799  -18.6219  -15.8295 C   0  0  1  0  0  0  0  0  0  0  0  0
   26.9497  -17.2530  -16.0547 C   0  0  0  0  0  0  0  0  0  0  0  0
   28.2896  -16.0351  -16.2273 S   0  0  0  0  0  0  0  0  0  0  0  0
   26.5117  -19.5638  -15.3947 C   0  0  0  0  0  0  0  0  0  0  0  0
   25.7362  -20.1059  -16.2290 O   0  0  0  0  0  0  0  0  0  0  0  0
   24.5818  -21.0729   -7.4368 N   0  0  0  0  0  0  0  0  0  0  0  0
   25.9274  -20.6895   -7.7105 C   0  0  0  0  0  0  0  0  0  0  0  0
   26.7083  -20.1905   -6.8201 N   0  0  0  0  0  0  0  0  0  0  0  0
   26.4354  -20.8605   -9.0257 N   0  0  0  0  0  0  0  0  0  0  0  0
   25.7407  -20.2943  -10.1449 C   0  0  0  0  0  0  0  0  0  0  0  0
   26.4518  -20.5403  -11.4624 C   0  0  0  0  0  0  0  0  0  0  0  0
   25.6103  -21.4080  -12.3474 C   0  0  0  0  0  0  0  0  0  0  0  0
   25.1966  -20.7961  -13.6415 C   0  0  2  0  0  0  0  0  0  0  0  0
   26.3076  -19.9021  -14.0279 N   0  0  0  0  0  0  0  0  0  0  0  0
   23.9707  -19.9907  -13.5554 C   0  0  0  0  0  0  0  0  0  0  0  0
   24.0065  -18.7483  -13.7252 O   0  0  0  0  0  0  0  0  0  0  0  0
   27.6705  -19.8806   -7.1157 N   0  0  0  0  0  0  0  0  0  0  0  0
   22.7209  -20.5783  -13.2819 C   0  0  1  0  0  0  0  0  0  0  0  0
   21.5163  -19.9490  -13.7838 C   0  0  0  0  0  0  0  0  0  0  0  0
   21.6821  -19.7624  -15.2782 C   0  0  0  0  0  0  0  0  0  0  0  0
   20.4779  -19.2359  -15.9528 O   0  0  0  0  0  0  0  0  0  0  0  0
   19.5317  -18.7691  -15.2476 C   0  0  0  0  0  0  0  0  0  0  0  0
   20.4021  -20.8700  -13.4720 O   0  0  0  0  0  0  0  0  0  0  0  0
   20.3705  -22.1935  -13.8392 O   0  0  0  0  0  0  0  0  0  0  0  0
   20.2747  -19.2025  -17.3204 O   0  0  0  0  0  0  0  0  0  0  0  0
  2  1  1  6
  3  2  1  0
  4  3  1  0
  5  2  1  0
  5  6  2  0
  7  8  1  0
  8  9  2  0
  8 10  1  0
 10 11  1  0
 11 12  1  0
 12 13  1  0
 14 13  1  1
 14 15  1  0
 15  5  1  0
 16 14  1  0
 17 16  2  0
 18 16  1  0
 19 18  1  0
 19 20  1  1
 20 21  1  0
 21 25  1  0
 22 21  2  0
 23 19  1  0
 24 23  1  0
 26 23  2  0
M  END
$$$$
