CRD.pdb
     RDKit          3D

 26 25  0  0  1  0  0  0  0  0999 V2000
   28.6397  -19.8200  -11.3250 N   0  0  0  0  0  0  0  0  0  0  0  0
   28.3477  -21.2405  -11.4073 C   0  0  1  0  0  0  0  0  0  0  0  0
   28.9794  -21.8918  -10.1832 C   0  0  0  0  0  0  0  0  0  0  0  0
   30.6745  -21.2541  -10.0148 S   0  0  0  0  0  0  0  0  0  0  0  0
   26.8722  -21.4248  -11.3273 C   0  0  0  0  0  0  0  0  0  0  0  0
   26.3534  -22.5746  -11.3409 O   0  0  0  0  0  0  0  0  0  0  0  0
   19.3647  -21.5712   -8.2530 N   0  0  0  0  0  0  0  0  0  0  0  0
   20.5328  -22.1457   -7.6716 C   0  0  0  0  0  0  0  0  0  0  0  0
   20.5309  -23.2843   -7.0755 N   0  0  0  0  0  0  0  0  0  0  0  0
   21.7587  -21.4324   -7.7475 N   0  0  0  0  0  0  0  0  0  0  0  0
   22.2225  -20.9306   -9.0079 C   0  0  0  0  0  0  0  0  0  0  0  0
   23.5962  -20.2930   -8.9160 C   0  0  0  0  0  0  0  0  0  0  0  0
   23.9513  -19.6453  -10.2192 C   0  0  0  0  0  0  0  0  0  0  0  0
   24.5143  -20.5550  -11.2564 C   0  0  2  0  0  0  0  0  0  0  0  0
   25.9736  -20.3258  -11.2316 N   0  0  0  0  0  0  0  0  0  0  0  0
   24.0314  -20.2796  -12.6166 C   0  0  0  0  0  0  0  0  0  0  0  0
   24.4317  -19.2719  -13.2473 O   0  0  0  0  0  0  0  0  0  0  0  0
   21.4375  -23.6408   -6.6751 N   0  0  0  0  0  0  0  0  0  0  0  0
   23.1097  -21.1293  -13.2572 C   0  0  2  0  0  0  0  0  0  0  0  0
   22.7014  -20.8369  -14.6161 C   0  0  0  0  0  0  0  0  0  0  0  0
   22.6049  -22.1523  -15.3617 C   0  0  0  0  0  0  0  0  0  0  0  0
   22.0611  -22.0266  -16.7294 O   0  0  0  0  0  0  0  0  0  0  0  0
   21.8411  -23.0790  -17.4036 C   0  0  0  0  0  0  0  0  0  0  0  0
   21.3858  -20.1679  -14.5229 O   0  0  0  0  0  0  0  0  0  0  0  0
   20.8796  -19.3259  -15.4833 O   0  0  0  0  0  0  0  0  0  0  0  0
   21.7607  -20.8366  -17.3668 O   0  0  0  0  0  0  0  0  0  0  0  0
  2  1  1  1
  3  2  1  0
  4  3  1  0
  5  2  1  0
  5  6  2  0
  7  8  1  0
  8  9  2  0
  8 10  1  0
 10 11  1  0
 11 12  1  0
 12 13  1  0
 14 13  1  1
 14 15  1  0
 15  5  1  0
 16 14  1  0
 17 16  2  0
 18 16  1  0
 19 18  1  0
 19 20  1  1
 20 21  1  0
 21 25  1  0
 22 21  2  0
 23 19  1  0
 24 23  1  0
 26 23  2  0
M  END
$$$$
