CRD.pdb
     RDKit          3D

 26 25  0  0  1  0  0  0  0  0999 V2000
   31.8339  -12.6997  -20.5097 N   0  0  0  0  0  0  0  0  0  0  0  0
   31.7952  -12.1096  -19.1831 C   0  0  1  0  0  0  0  0  0  0  0  0
   33.1265  -12.4351  -18.5171 C   0  0  0  0  0  0  0  0  0  0  0  0
   33.1263  -14.2022  -18.0866 S   0  0  0  0  0  0  0  0  0  0  0  0
   31.6921  -10.6310  -19.3266 C   0  0  0  0  0  0  0  0  0  0  0  0
   32.1822  -10.0334  -20.3237 O   0  0  0  0  0  0  0  0  0  0  0  0
   25.7729   -9.9223  -21.6933 N   0  0  0  0  0  0  0  0  0  0  0  0
   25.7321  -10.3105  -20.3221 C   0  0  0  0  0  0  0  0  0  0  0  0
   25.0758  -11.3329  -19.9029 N   0  0  0  0  0  0  0  0  0  0  0  0
   26.4442   -9.5357  -19.3683 N   0  0  0  0  0  0  0  0  0  0  0  0
   27.2137   -8.4025  -19.7917 C   0  0  0  0  0  0  0  0  0  0  0  0
   28.7004   -8.6965  -19.8636 C   0  0  0  0  0  0  0  0  0  0  0  0
   29.3919   -8.1530  -18.6510 C   0  0  0  0  0  0  0  0  0  0  0  0
   30.8651   -8.3707  -18.5997 C   0  0  2  0  0  0  0  0  0  0  0  0
   31.0416   -9.8174  -18.3576 N   0  0  0  0  0  0  0  0  0  0  0  0
   31.5384   -7.6405  -17.5169 C   0  0  0  0  0  0  0  0  0  0  0  0
   31.2730   -7.8866  -16.3159 O   0  0  0  0  0  0  0  0  0  0  0  0
   25.1520  -11.5934  -18.8853 N   0  0  0  0  0  0  0  0  0  0  0  0
   32.4986   -6.6463  -17.7847 C   0  0  2  0  0  0  0  0  0  0  0  0
   33.1451   -5.9687  -16.6794 C   0  0  0  0  0  0  0  0  0  0  0  0
   32.0841   -5.1828  -15.9364 C   0  0  0  0  0  0  0  0  0  0  0  0
   32.5775   -3.9222  -15.3449 O   0  0  0  0  0  0  0  0  0  0  0  0
   33.8015   -3.6160  -15.4810 C   0  0  0  0  0  0  0  0  0  0  0  0
   33.7340   -7.0249  -15.8282 O   0  0  0  0  0  0  0  0  0  0  0  0
   34.3377   -6.7908  -14.6164 O   0  0  0  0  0  0  0  0  0  0  0  0
   31.8117   -3.0162  -14.6341 O   0  0  0  0  0  0  0  0  0  0  0  0
  2  1  1  6
  3  2  1  0
  4  3  1  0
  5  2  1  0
  5  6  2  0
  7  8  1  0
  8  9  2  0
  8 10  1  0
 10 11  1  0
 11 12  1  0
 12 13  1  0
 14 13  1  1
 14 15  1  0
 15  5  1  0
 16 14  1  0
 17 16  2  0
 18 16  1  0
 19 18  1  0
 19 20  1  6
 20 21  1  0
 21 25  1  0
 22 21  2  0
 23 19  1  0
 24 23  1  0
 26 23  2  0
M  END
$$$$
