CRD.pdb
     RDKit          3D

 26 25  0  0  1  0  0  0  0  0999 V2000
   17.4396  -11.2366  -14.3648 N   0  0  0  0  0  0  0  0  0  0  0  0
   18.0678  -10.4244  -15.3921 C   0  0  1  0  0  0  0  0  0  0  0  0
   17.2722   -9.1275  -15.4761 C   0  0  0  0  0  0  0  0  0  0  0  0
   15.7439   -9.4608  -16.4042 S   0  0  0  0  0  0  0  0  0  0  0  0
   19.4529  -10.0970  -14.9543 C   0  0  0  0  0  0  0  0  0  0  0  0
   19.7726  -10.0997  -13.7340 O   0  0  0  0  0  0  0  0  0  0  0  0
   26.9381  -13.1469  -16.1290 N   0  0  0  0  0  0  0  0  0  0  0  0
   27.4050  -11.8010  -16.0752 C   0  0  0  0  0  0  0  0  0  0  0  0
   28.6501  -11.4886  -16.1368 N   0  0  0  0  0  0  0  0  0  0  0  0
   26.4577  -10.7509  -15.9444 N   0  0  0  0  0  0  0  0  0  0  0  0
   25.0823  -10.9765  -16.2806 C   0  0  0  0  0  0  0  0  0  0  0  0
   24.2277   -9.7329  -16.1214 C   0  0  0  0  0  0  0  0  0  0  0  0
   22.7826  -10.0721  -16.3224 C   0  0  0  0  0  0  0  0  0  0  0  0
   21.8303   -9.4049  -15.3906 C   0  0  2  0  0  0  0  0  0  0  0  0
   20.4832   -9.7664  -15.8780 N   0  0  0  0  0  0  0  0  0  0  0  0
   21.9345   -7.9393  -15.3799 C   0  0  0  0  0  0  0  0  0  0  0  0
   21.4649   -7.2563  -16.3215 O   0  0  0  0  0  0  0  0  0  0  0  0
   28.9127  -10.4694  -16.0988 N   0  0  0  0  0  0  0  0  0  0  0  0
   22.5597   -7.2529  -14.3216 C   0  0  1  0  0  0  0  0  0  0  0  0
   22.5643   -5.8042  -14.3207 C   0  0  0  0  0  0  0  0  0  0  0  0
   22.8440   -5.3432  -15.7365 C   0  0  0  0  0  0  0  0  0  0  0  0
   22.8633   -3.8746  -15.8950 O   0  0  0  0  0  0  0  0  0  0  0  0
   22.3354   -3.3599  -16.9279 C   0  0  0  0  0  0  0  0  0  0  0  0
   21.2214   -5.3818  -13.8676 O   0  0  0  0  0  0  0  0  0  0  0  0
   20.7988   -4.0753  -13.8222 O   0  0  0  0  0  0  0  0  0  0  0  0
   23.4192   -2.9786  -15.0002 O   0  0  0  0  0  0  0  0  0  0  0  0
  2  1  1  1
  3  2  1  0
  4  3  1  0
  5  2  1  0
  5  6  2  0
  7  8  1  0
  8  9  2  0
  8 10  1  0
 10 11  1  0
 11 12  1  0
 12 13  1  0
 14 13  1  6
 14 15  1  0
 15  5  1  0
 16 14  1  0
 17 16  2  0
 18 16  1  0
 19 18  1  0
 19 20  1  1
 20 21  1  0
 21 25  1  0
 22 21  2  0
 23 19  1  0
 24 23  1  0
 26 23  2  0
M  END
$$$$
