CRD.pdb
     RDKit          3D

 26 25  0  0  1  0  0  0  0  0999 V2000
   28.3556  -18.7969  -18.4393 N   0  0  0  0  0  0  0  0  0  0  0  0
   27.6756  -18.3521  -17.2353 C   0  0  1  0  0  0  0  0  0  0  0  0
   27.1312  -16.9590  -17.5258 C   0  0  0  0  0  0  0  0  0  0  0  0
   26.2876  -16.3583  -16.0306 S   0  0  0  0  0  0  0  0  0  0  0  0
   26.5243  -19.2613  -16.9798 C   0  0  0  0  0  0  0  0  0  0  0  0
   25.8600  -19.7607  -17.9290 O   0  0  0  0  0  0  0  0  0  0  0  0
   27.4701  -20.8797  -10.2815 N   0  0  0  0  0  0  0  0  0  0  0  0
   26.1320  -21.0239   -9.8111 C   0  0  0  0  0  0  0  0  0  0  0  0
   25.7372  -20.5743   -8.6737 N   0  0  0  0  0  0  0  0  0  0  0  0
   25.1859  -21.6965  -10.6294 N   0  0  0  0  0  0  0  0  0  0  0  0
   25.5209  -22.0449  -11.9793 C   0  0  0  0  0  0  0  0  0  0  0  0
   25.0821  -20.9946  -12.9825 C   0  0  0  0  0  0  0  0  0  0  0  0
   25.3849  -21.4549  -14.3755 C   0  0  0  0  0  0  0  0  0  0  0  0
   24.9678  -20.5265  -15.4638 C   0  0  2  0  0  0  0  0  0  0  0  0
   26.1128  -19.6146  -15.6645 N   0  0  0  0  0  0  0  0  0  0  0  0
   23.7885  -19.7140  -15.1352 C   0  0  0  0  0  0  0  0  0  0  0  0
   23.8808  -18.7362  -14.3549 O   0  0  0  0  0  0  0  0  0  0  0  0
   24.7194  -20.6743   -8.4223 N   0  0  0  0  0  0  0  0  0  0  0  0
   22.5220  -20.0000  -15.6794 C   0  0  1  0  0  0  0  0  0  0  0  0
   21.4000  -19.1438  -15.3526 C   0  0  0  0  0  0  0  0  0  0  0  0
   20.6038  -18.9223  -16.6225 C   0  0  0  0  0  0  0  0  0  0  0  0
   20.8238  -17.6004  -17.2440 O   0  0  0  0  0  0  0  0  0  0  0  0
   21.5425  -16.7475  -16.6386 C   0  0  0  0  0  0  0  0  0  0  0  0
   20.6068  -19.8643  -14.3334 O   0  0  0  0  0  0  0  0  0  0  0  0
   19.5659  -19.3069  -13.6310 O   0  0  0  0  0  0  0  0  0  0  0  0
   20.3054  -17.1887  -18.4582 O   0  0  0  0  0  0  0  0  0  0  0  0
  2  1  1  6
  3  2  1  0
  4  3  1  0
  5  2  1  0
  5  6  2  0
  7  8  1  0
  8  9  2  0
  8 10  1  0
 10 11  1  0
 11 12  1  0
 12 13  1  0
 14 13  1  1
 14 15  1  0
 15  5  1  0
 16 14  1  0
 17 16  2  0
 18 16  1  0
 19 18  1  0
 19 20  1  1
 20 21  1  0
 21 25  1  0
 22 21  2  0
 23 19  1  0
 24 23  1  0
 26 23  2  0
M  END
$$$$
