CRD.pdb
     RDKit          3D

 26 25  0  0  1  0  0  0  0  0999 V2000
   26.2395  -13.6456  -17.9921 N   0  0  0  0  0  0  0  0  0  0  0  0
   25.8898  -13.9197  -16.6093 C   0  0  1  0  0  0  0  0  0  0  0  0
   24.6899  -13.0419  -16.2759 C   0  0  0  0  0  0  0  0  0  0  0  0
   25.3099  -11.4458  -15.6624 S   0  0  0  0  0  0  0  0  0  0  0  0
   25.4723  -15.3450  -16.5012 C   0  0  0  0  0  0  0  0  0  0  0  0
   24.7150  -15.8732  -17.3608 O   0  0  0  0  0  0  0  0  0  0  0  0
   25.4196  -21.8610  -11.3863 N   0  0  0  0  0  0  0  0  0  0  0  0
   25.9971  -22.3918  -12.5768 C   0  0  0  0  0  0  0  0  0  0  0  0
   25.6432  -23.5179  -13.0851 N   0  0  0  0  0  0  0  0  0  0  0  0
   27.0130  -21.6500  -13.2362 N   0  0  0  0  0  0  0  0  0  0  0  0
   27.0623  -20.2231  -13.1053 C   0  0  0  0  0  0  0  0  0  0  0  0
   25.9178  -19.5286  -13.8194 C   0  0  0  0  0  0  0  0  0  0  0  0
   26.4137  -18.2931  -14.5061 C   0  0  0  0  0  0  0  0  0  0  0  0
   25.4085  -17.5729  -15.3376 C   0  0  2  0  0  0  0  0  0  0  0  0
   25.8997  -16.1827  -15.4337 N   0  0  0  0  0  0  0  0  0  0  0  0
   24.0615  -17.5423  -14.7515 C   0  0  0  0  0  0  0  0  0  0  0  0
   23.8403  -16.9196  -13.6852 O   0  0  0  0  0  0  0  0  0  0  0  0
   26.1353  -23.8509  -13.9547 N   0  0  0  0  0  0  0  0  0  0  0  0
   22.9783  -18.2047  -15.3596 C   0  0  1  0  0  0  0  0  0  0  0  0
   21.6925  -18.2218  -14.6923 C   0  0  0  0  0  0  0  0  0  0  0  0
   20.7873  -17.2418  -15.4105 C   0  0  0  0  0  0  0  0  0  0  0  0
   19.3973  -17.2340  -14.9105 O   0  0  0  0  0  0  0  0  0  0  0  0
   19.1931  -17.2769  -13.6587 C   0  0  0  0  0  0  0  0  0  0  0  0
   21.1850  -19.6069  -14.7975 O   0  0  0  0  0  0  0  0  0  0  0  0
   20.1605  -20.1123  -14.0343 O   0  0  0  0  0  0  0  0  0  0  0  0
   18.2618  -17.1844  -15.6984 O   0  0  0  0  0  0  0  0  0  0  0  0
  2  1  1  6
  3  2  1  0
  4  3  1  0
  5  2  1  0
  5  6  2  0
  7  8  1  0
  8  9  2  0
  8 10  1  0
 10 11  1  0
 11 12  1  0
 12 13  1  0
 14 13  1  1
 14 15  1  0
 15  5  1  0
 16 14  1  0
 17 16  2  0
 18 16  1  0
 19 18  1  0
 19 20  1  6
 20 21  1  0
 21 25  1  0
 22 21  2  0
 23 19  1  0
 24 23  1  0
 26 23  2  0
M  END
$$$$
