CRD.pdb
     RDKit          3D

 26 25  0  0  1  0  0  0  0  0999 V2000
   28.5152  -21.6430  -14.1687 N   0  0  0  0  0  0  0  0  0  0  0  0
   27.7140  -20.8144  -13.2848 C   0  0  1  0  0  0  0  0  0  0  0  0
   28.1697  -19.3759  -13.4963 C   0  0  0  0  0  0  0  0  0  0  0  0
   29.8734  -19.2256  -12.8774 S   0  0  0  0  0  0  0  0  0  0  0  0
   26.2883  -20.9205  -13.7014 C   0  0  0  0  0  0  0  0  0  0  0  0
   25.9709  -21.1425  -14.9020 O   0  0  0  0  0  0  0  0  0  0  0  0
   20.7464  -21.7910   -7.8727 N   0  0  0  0  0  0  0  0  0  0  0  0
   20.5389  -20.5938   -8.6186 C   0  0  0  0  0  0  0  0  0  0  0  0
   19.8847  -19.5873   -8.1598 N   0  0  0  0  0  0  0  0  0  0  0  0
   21.0740  -20.5019   -9.9310 N   0  0  0  0  0  0  0  0  0  0  0  0
   20.8550  -21.5602  -10.8732 C   0  0  0  0  0  0  0  0  0  0  0  0
   21.5426  -21.3135  -12.2030 C   0  0  0  0  0  0  0  0  0  0  0  0
   23.0208  -21.1786  -12.0010 C   0  0  0  0  0  0  0  0  0  0  0  0
   23.8177  -20.9285  -13.2350 C   0  0  2  0  0  0  0  0  0  0  0  0
   25.2149  -20.7791  -12.7784 N   0  0  0  0  0  0  0  0  0  0  0  0
   23.4377  -19.7038  -13.9523 C   0  0  0  0  0  0  0  0  0  0  0  0
   24.0666  -18.6336  -13.7715 O   0  0  0  0  0  0  0  0  0  0  0  0
   19.8993  -18.6888   -8.7090 N   0  0  0  0  0  0  0  0  0  0  0  0
   22.3631  -19.6859  -14.8616 C   0  0  1  0  0  0  0  0  0  0  0  0
   22.4646  -18.8840  -16.0639 C   0  0  0  0  0  0  0  0  0  0  0  0
   23.8749  -19.0304  -16.5979 C   0  0  0  0  0  0  0  0  0  0  0  0
   24.1051  -18.3325  -17.8794 O   0  0  0  0  0  0  0  0  0  0  0  0
   23.1299  -17.7537  -18.4490 C   0  0  0  0  0  0  0  0  0  0  0  0
   21.4663  -19.4235  -17.0122 O   0  0  0  0  0  0  0  0  0  0  0  0
   20.5932  -20.4420  -16.7155 O   0  0  0  0  0  0  0  0  0  0  0  0
   25.3172  -18.2473  -18.5398 O   0  0  0  0  0  0  0  0  0  0  0  0
  2  1  1  6
  3  2  1  0
  4  3  1  0
  5  2  1  0
  5  6  2  0
  7  8  1  0
  8  9  2  0
  8 10  1  0
 10 11  1  0
 11 12  1  0
 12 13  1  0
 14 13  1  1
 14 15  1  0
 15  5  1  0
 16 14  1  0
 17 16  2  0
 18 16  1  0
 19 18  1  0
 19 20  1  6
 20 21  1  0
 21 25  1  0
 22 21  2  0
 23 19  1  0
 24 23  1  0
 26 23  2  0
M  END
$$$$
