CRD.pdb
     RDKit          3D

 26 25  0  0  1  0  0  0  0  0999 V2000
   24.0631  -12.9041  -16.7589 N   0  0  0  0  0  0  0  0  0  0  0  0
   24.1739  -11.8668  -15.7481 C   0  0  1  0  0  0  0  0  0  0  0  0
   25.5078  -11.1674  -15.9790 C   0  0  0  0  0  0  0  0  0  0  0  0
   26.8274  -12.2379  -15.3301 S   0  0  0  0  0  0  0  0  0  0  0  0
   23.0823  -10.8775  -15.9649 C   0  0  0  0  0  0  0  0  0  0  0  0
   22.7909  -10.4655  -17.1210 O   0  0  0  0  0  0  0  0  0  0  0  0
   18.9362  -12.7265  -17.5030 N   0  0  0  0  0  0  0  0  0  0  0  0
   17.8597  -12.8473  -16.5761 C   0  0  0  0  0  0  0  0  0  0  0  0
   17.3834  -13.9801  -16.1997 N   0  0  0  0  0  0  0  0  0  0  0  0
   17.2790  -11.6666  -16.0415 N   0  0  0  0  0  0  0  0  0  0  0  0
   18.1133  -10.5698  -15.6456 C   0  0  0  0  0  0  0  0  0  0  0  0
   19.3419  -11.0156  -14.8750 C   0  0  0  0  0  0  0  0  0  0  0  0
   20.0771   -9.8234  -14.3439 C   0  0  0  0  0  0  0  0  0  0  0  0
   21.2390   -9.3695  -15.1590 C   0  0  2  0  0  0  0  0  0  0  0  0
   22.3142  -10.3468  -14.8913 N   0  0  0  0  0  0  0  0  0  0  0  0
   21.7349   -8.0341  -14.7985 C   0  0  0  0  0  0  0  0  0  0  0  0
   22.3441   -7.8465  -13.7182 O   0  0  0  0  0  0  0  0  0  0  0  0
   16.6163  -13.9852  -15.4780 N   0  0  0  0  0  0  0  0  0  0  0  0
   21.5466   -6.9251  -15.6451 C   0  0  2  0  0  0  0  0  0  0  0  0
   22.1094   -5.6437  -15.2708 C   0  0  0  0  0  0  0  0  0  0  0  0
   21.9804   -4.7176  -16.4630 C   0  0  0  0  0  0  0  0  0  0  0  0
   22.5043   -3.3573  -16.2236 O   0  0  0  0  0  0  0  0  0  0  0  0
   23.1048   -3.1120  -15.1328 C   0  0  0  0  0  0  0  0  0  0  0  0
   21.3180   -5.1595  -14.1192 O   0  0  0  0  0  0  0  0  0  0  0  0
   21.8373   -4.4224  -13.0825 O   0  0  0  0  0  0  0  0  0  0  0  0
   22.3995   -2.2919  -17.0991 O   0  0  0  0  0  0  0  0  0  0  0  0
  2  1  1  6
  3  2  1  0
  4  3  1  0
  5  2  1  0
  5  6  2  0
  7  8  1  0
  8  9  2  0
  8 10  1  0
 10 11  1  0
 11 12  1  0
 12 13  1  0
 14 13  1  1
 14 15  1  0
 15  5  1  0
 16 14  1  0
 17 16  2  0
 18 16  1  0
 19 18  1  0
 19 20  1  6
 20 21  1  0
 21 25  1  0
 22 21  2  0
 23 19  1  0
 24 23  1  0
 26 23  2  0
M  END
$$$$
