MNG.pdb
     RDKit          3D

 21 20  0  0  1  0  0  0  0  0999 V2000
    6.3672  -11.5390   27.7607 C   0  0  0  0  0  0  0  0  0  0  0  0
    6.6137  -11.3102   25.9704 S   0  0  0  0  0  0  0  0  0  0  0  0
    6.1920  -12.8561   25.1550 C   0  0  0  0  0  0  0  0  0  0  0  0
    7.1121  -13.9821   25.5647 C   0  0  0  0  0  0  0  0  0  0  0  0
    8.0942  -14.3238   24.4850 C   0  0  2  0  0  0  0  0  0  0  0  0
    7.4975  -14.8673   23.2889 N   0  0  0  0  0  0  0  0  0  0  0  0
    9.1283  -15.2638   25.0137 C   0  0  0  0  0  0  0  0  0  0  0  0
    9.7340  -14.9613   26.0587 O   0  0  0  0  0  0  0  0  0  0  0  0
    7.6771  -19.2379   25.9781 N   0  0  0  0  0  0  0  0  0  0  0  0
    8.9892  -18.7954   26.1988 C   0  0  0  0  0  0  0  0  0  0  0  0
    9.3403  -18.4799   27.3570 O   0  0  0  0  0  0  0  0  0  0  0  0
    9.9363  -18.7028   25.0925 C   0  0  0  0  0  0  0  0  0  0  0  0
   10.5295  -17.3417   24.8384 C   0  0  2  0  0  0  0  0  0  0  0  0
    9.4303  -16.4675   24.3671 N   0  0  0  0  0  0  0  0  0  0  0  0
   11.6067  -17.2951   23.8561 C   0  0  0  0  0  0  0  0  0  0  0  0
   12.2960  -18.3219   23.6405 O   0  0  0  0  0  0  0  0  0  0  0  0
   11.9175  -16.1259   23.1173 N   0  0  0  0  0  0  0  0  0  0  0  0
   13.1185  -16.0828   22.3092 C   0  0  0  0  0  0  0  0  0  0  0  0
   14.2544  -15.6717   23.1518 C   0  0  0  0  0  0  0  0  0  0  0  0
   15.4810  -15.3678   22.5576 O   0  0  0  0  0  0  0  0  0  0  0  0
   14.1288  -15.5943   24.3787 O   0  0  0  0  0  0  0  0  0  0  0  0
  2  1  1  0
  3  2  1  0
  4  5  1  0
  4  3  1  0
  5  6  1  6
  7  8  2  0
  7  5  1  0
  9 10  1  0
 10 11  2  0
 10 12  1  0
 13 12  1  6
 13 15  1  0
 13 14  1  0
 14  7  1  0
 15 17  1  0
 16 15  2  0
 17 18  1  0
 19 20  1  0
 19 18  1  0
 21 19  2  0
M  END
$$$$
