MNG.pdb
     RDKit          3D

 21 20  0  0  1  0  0  0  0  0999 V2000
    6.8379  -11.1112   28.2288 C   0  0  0  0  0  0  0  0  0  0  0  0
    7.2063  -12.6246   27.2843 S   0  0  0  0  0  0  0  0  0  0  0  0
    6.1230  -12.6552   25.8497 C   0  0  0  0  0  0  0  0  0  0  0  0
    6.2333  -13.9529   25.0841 C   0  0  0  0  0  0  0  0  0  0  0  0
    7.6545  -14.4153   24.9675 C   0  0  2  0  0  0  0  0  0  0  0  0
    8.6313  -13.3550   25.0272 N   0  0  0  0  0  0  0  0  0  0  0  0
    7.8332  -15.2060   23.7124 C   0  0  0  0  0  0  0  0  0  0  0  0
    7.0605  -16.1563   23.4883 O   0  0  0  0  0  0  0  0  0  0  0  0
    7.7502  -12.8905   19.9554 N   0  0  0  0  0  0  0  0  0  0  0  0
    7.8455  -14.2855   20.0591 C   0  0  0  0  0  0  0  0  0  0  0  0
    6.8281  -14.9837   19.8549 O   0  0  0  0  0  0  0  0  0  0  0  0
    9.1151  -14.9185   20.4010 C   0  0  0  0  0  0  0  0  0  0  0  0
    9.1134  -15.7885   21.6307 C   0  0  2  0  0  0  0  0  0  0  0  0
    8.8412  -14.9062   22.7893 N   0  0  0  0  0  0  0  0  0  0  0  0
   10.3491  -16.5187   21.8899 C   0  0  0  0  0  0  0  0  0  0  0  0
   10.8084  -17.2933   21.0152 O   0  0  0  0  0  0  0  0  0  0  0  0
   11.0717  -16.3924   23.1029 N   0  0  0  0  0  0  0  0  0  0  0  0
   12.2293  -17.2291   23.3421 C   0  0  0  0  0  0  0  0  0  0  0  0
   13.4482  -16.4819   22.9884 C   0  0  0  0  0  0  0  0  0  0  0  0
   14.4389  -16.2805   23.9516 O   0  0  0  0  0  0  0  0  0  0  0  0
   13.5989  -16.0331   21.8470 O   0  0  0  0  0  0  0  0  0  0  0  0
  2  1  1  0
  3  2  1  0
  4  5  1  0
  4  3  1  0
  5  6  1  6
  7  8  2  0
  7  5  1  0
  9 10  1  0
 10 11  2  0
 10 12  1  0
 13 12  1  6
 13 15  1  0
 13 14  1  0
 14  7  1  0
 15 17  1  0
 16 15  2  0
 17 18  1  0
 19 20  1  0
 19 18  1  0
 21 19  2  0
M  END
$$$$
