MNG.pdb
     RDKit          3D

 21 20  0  0  1  0  0  0  0  0999 V2000
    7.6408  -11.6434   20.2705 C   0  0  0  0  0  0  0  0  0  0  0  0
    7.0119  -12.9278   19.1423 S   0  0  0  0  0  0  0  0  0  0  0  0
    7.7965  -14.4832   19.5874 C   0  0  0  0  0  0  0  0  0  0  0  0
    8.5204  -14.3942   20.9105 C   0  0  0  0  0  0  0  0  0  0  0  0
    9.1784  -15.6903   21.2770 C   0  0  2  0  0  0  0  0  0  0  0  0
    8.5198  -16.8611   20.7504 N   0  0  0  0  0  0  0  0  0  0  0  0
    9.3034  -15.7978   22.7621 C   0  0  0  0  0  0  0  0  0  0  0  0
    9.7076  -14.8091   23.4020 O   0  0  0  0  0  0  0  0  0  0  0  0
    6.1512  -18.3847   23.9397 N   0  0  0  0  0  0  0  0  0  0  0  0
    6.7353  -17.5995   24.9438 C   0  0  0  0  0  0  0  0  0  0  0  0
    6.1047  -16.6186   25.3960 O   0  0  0  0  0  0  0  0  0  0  0  0
    8.0630  -17.9202   25.4574 C   0  0  0  0  0  0  0  0  0  0  0  0
    9.2033  -17.1058   24.9047 C   0  0  2  0  0  0  0  0  0  0  0  0
    8.9794  -16.9748   23.4461 N   0  0  0  0  0  0  0  0  0  0  0  0
   10.5361  -17.6590   25.1167 C   0  0  0  0  0  0  0  0  0  0  0  0
   10.9392  -17.8786   26.2853 O   0  0  0  0  0  0  0  0  0  0  0  0
   11.4141  -17.9692   24.0480 N   0  0  0  0  0  0  0  0  0  0  0  0
   12.7238  -18.5199   24.3285 C   0  0  0  0  0  0  0  0  0  0  0  0
   13.7312  -17.4505   24.2245 C   0  0  0  0  0  0  0  0  0  0  0  0
   15.0814  -17.7527   24.4124 O   0  0  0  0  0  0  0  0  0  0  0  0
   13.3893  -16.2901   23.9724 O   0  0  0  0  0  0  0  0  0  0  0  0
  2  1  1  0
  3  2  1  0
  4  5  1  0
  4  3  1  0
  5  6  1  1
  7  8  2  0
  7  5  1  0
  9 10  1  0
 10 11  2  0
 10 12  1  0
 13 12  1  6
 13 15  1  0
 13 14  1  0
 14  7  1  0
 15 17  1  0
 16 15  2  0
 17 18  1  0
 19 20  1  0
 19 18  1  0
 21 19  2  0
M  END
$$$$
