MNG.pdb
     RDKit          3D

 21 20  0  0  1  0  0  0  0  0999 V2000
    7.1197  -11.0554   26.2370 C   0  0  0  0  0  0  0  0  0  0  0  0
    6.3880  -12.2476   27.4039 S   0  0  0  0  0  0  0  0  0  0  0  0
    5.9095  -13.7080   26.4706 C   0  0  0  0  0  0  0  0  0  0  0  0
    7.0452  -14.2388   25.6274 C   0  0  0  0  0  0  0  0  0  0  0  0
    6.6236  -15.4116   24.7944 C   0  0  2  0  0  0  0  0  0  0  0  0
    6.2542  -16.5798   25.5565 N   0  0  0  0  0  0  0  0  0  0  0  0
    7.6995  -15.7572   23.8170 C   0  0  0  0  0  0  0  0  0  0  0  0
    8.3096  -16.8340   23.9541 O   0  0  0  0  0  0  0  0  0  0  0  0
    7.0183  -12.9519   19.8308 N   0  0  0  0  0  0  0  0  0  0  0  0
    7.6544  -14.1947   19.9602 C   0  0  0  0  0  0  0  0  0  0  0  0
    7.0968  -15.2164   19.5024 O   0  0  0  0  0  0  0  0  0  0  0  0
    8.9515  -14.2984   20.6206 C   0  0  0  0  0  0  0  0  0  0  0  0
    9.0455  -15.2944   21.7468 C   0  0  2  0  0  0  0  0  0  0  0  0
    8.0357  -14.9057   22.7587 N   0  0  0  0  0  0  0  0  0  0  0  0
   10.3441  -15.3837   22.4047 C   0  0  0  0  0  0  0  0  0  0  0  0
   10.9802  -14.3342   22.6693 O   0  0  0  0  0  0  0  0  0  0  0  0
   10.9331  -16.6205   22.7692 N   0  0  0  0  0  0  0  0  0  0  0  0
   12.2483  -16.6410   23.3752 C   0  0  0  0  0  0  0  0  0  0  0  0
   13.0639  -17.6820   22.7270 C   0  0  0  0  0  0  0  0  0  0  0  0
   13.3545  -17.5836   21.3648 O   0  0  0  0  0  0  0  0  0  0  0  0
   13.4915  -18.6400   23.3801 O   0  0  0  0  0  0  0  0  0  0  0  0
  2  1  1  0
  3  2  1  0
  4  5  1  0
  4  3  1  0
  5  6  1  1
  7  8  2  0
  7  5  1  0
  9 10  1  0
 10 11  2  0
 10 12  1  0
 13 12  1  6
 13 15  1  0
 13 14  1  0
 14  7  1  0
 15 17  1  0
 16 15  2  0
 17 18  1  0
 19 20  1  0
 19 18  1  0
 21 19  2  0
M  END
$$$$
