MNG.pdb
     RDKit          3D

 21 20  0  0  1  0  0  0  0  0999 V2000
    8.7605  -11.6670   20.0198 C   0  0  0  0  0  0  0  0  0  0  0  0
    7.3966  -12.3147   19.0007 S   0  0  0  0  0  0  0  0  0  0  0  0
    7.1763  -14.0503   19.4153 C   0  0  0  0  0  0  0  0  0  0  0  0
    7.3893  -14.3125   20.8878 C   0  0  0  0  0  0  0  0  0  0  0  0
    7.2931  -15.7719   21.2164 C   0  0  2  0  0  0  0  0  0  0  0  0
    6.0741  -16.4024   20.7711 N   0  0  0  0  0  0  0  0  0  0  0  0
    7.4684  -15.9774   22.6860 C   0  0  0  0  0  0  0  0  0  0  0  0
    6.6789  -15.4150   23.4675 O   0  0  0  0  0  0  0  0  0  0  0  0
    9.3226  -19.7000   26.9001 N   0  0  0  0  0  0  0  0  0  0  0  0
    8.6335  -18.5403   26.5179 C   0  0  0  0  0  0  0  0  0  0  0  0
    8.2139  -17.7605   27.4012 O   0  0  0  0  0  0  0  0  0  0  0  0
    8.4069  -18.2436   25.1072 C   0  0  0  0  0  0  0  0  0  0  0  0
    8.7591  -16.8500   24.6568 C   0  0  2  0  0  0  0  0  0  0  0  0
    8.4916  -16.7809   23.2014 N   0  0  0  0  0  0  0  0  0  0  0  0
   10.1395  -16.4404   24.8899 C   0  0  0  0  0  0  0  0  0  0  0  0
   10.5484  -16.2744   26.0652 O   0  0  0  0  0  0  0  0  0  0  0  0
   11.0598  -16.2190   23.8347 N   0  0  0  0  0  0  0  0  0  0  0  0
   12.3779  -15.6952   24.1269 C   0  0  0  0  0  0  0  0  0  0  0  0
   13.3878  -16.7173   23.8035 C   0  0  0  0  0  0  0  0  0  0  0  0
   14.7309  -16.3513   23.6942 O   0  0  0  0  0  0  0  0  0  0  0  0
   13.0542  -17.8943   23.6287 O   0  0  0  0  0  0  0  0  0  0  0  0
  2  1  1  0
  3  2  1  0
  4  5  1  0
  4  3  1  0
  5  6  1  1
  7  8  2  0
  7  5  1  0
  9 10  1  0
 10 11  2  0
 10 12  1  0
 13 12  1  6
 13 15  1  0
 13 14  1  0
 14  7  1  0
 15 17  1  0
 16 15  2  0
 17 18  1  0
 19 20  1  0
 19 18  1  0
 21 19  2  0
M  END
$$$$
