MNG.pdb
     RDKit          3D

 21 20  0  0  1  0  0  0  0  0999 V2000
    6.6124  -10.8387   27.9323 C   0  0  0  0  0  0  0  0  0  0  0  0
    5.8759  -11.8871   26.6375 S   0  0  0  0  0  0  0  0  0  0  0  0
    7.0457  -13.1995   26.2607 C   0  0  0  0  0  0  0  0  0  0  0  0
    6.4972  -14.1725   25.2434 C   0  0  0  0  0  0  0  0  0  0  0  0
    7.4849  -15.2494   24.9092 C   0  0  2  0  0  0  0  0  0  0  0  0
    8.7623  -15.1087   25.5652 N   0  0  0  0  0  0  0  0  0  0  0  0
    7.6754  -15.3266   23.4292 C   0  0  0  0  0  0  0  0  0  0  0  0
    6.6909  -15.5839   22.7115 O   0  0  0  0  0  0  0  0  0  0  0  0
    7.1133  -12.4869   20.1211 N   0  0  0  0  0  0  0  0  0  0  0  0
    7.6640  -13.7762   20.1005 C   0  0  0  0  0  0  0  0  0  0  0  0
    7.0191  -14.7070   19.5696 O   0  0  0  0  0  0  0  0  0  0  0  0
    8.9739  -14.0323   20.6906 C   0  0  0  0  0  0  0  0  0  0  0  0
    9.1402  -15.3569   21.3884 C   0  0  2  0  0  0  0  0  0  0  0  0
    8.9248  -15.1185   22.8346 N   0  0  0  0  0  0  0  0  0  0  0  0
   10.4368  -16.0028   21.2176 C   0  0  0  0  0  0  0  0  0  0  0  0
   11.0135  -15.9540   20.1036 O   0  0  0  0  0  0  0  0  0  0  0  0
   11.0910  -16.6938   22.2683 N   0  0  0  0  0  0  0  0  0  0  0  0
   12.3438  -17.3738   22.0126 C   0  0  0  0  0  0  0  0  0  0  0  0
   12.8586  -17.9312   23.2749 C   0  0  0  0  0  0  0  0  0  0  0  0
   14.1017  -18.5668   23.2933 O   0  0  0  0  0  0  0  0  0  0  0  0
   12.1983  -17.8400   24.3155 O   0  0  0  0  0  0  0  0  0  0  0  0
  2  1  1  0
  3  2  1  0
  4  5  1  0
  4  3  1  0
  5  6  1  1
  7  8  2  0
  7  5  1  0
  9 10  1  0
 10 11  2  0
 10 12  1  0
 13 12  1  6
 13 15  1  0
 13 14  1  0
 14  7  1  0
 15 17  1  0
 16 15  2  0
 17 18  1  0
 19 20  1  0
 19 18  1  0
 21 19  2  0
M  END
$$$$
