MNG.pdb
     RDKit          3D

 21 20  0  0  1  0  0  0  0  0999 V2000
    8.5008  -11.9521   20.4049 C   0  0  0  0  0  0  0  0  0  0  0  0
    7.1404  -12.5600   19.3570 S   0  0  0  0  0  0  0  0  0  0  0  0
    6.9126  -14.3081   19.7105 C   0  0  0  0  0  0  0  0  0  0  0  0
    6.8909  -14.5878   21.1950 C   0  0  0  0  0  0  0  0  0  0  0  0
    6.6762  -16.0422   21.4877 C   0  0  2  0  0  0  0  0  0  0  0  0
    5.4018  -16.5554   21.0469 N   0  0  0  0  0  0  0  0  0  0  0  0
    6.8548  -16.3011   22.9484 C   0  0  0  0  0  0  0  0  0  0  0  0
    5.9214  -16.0230   23.7242 O   0  0  0  0  0  0  0  0  0  0  0  0
    7.5051  -19.7631   27.2116 N   0  0  0  0  0  0  0  0  0  0  0  0
    8.4294  -18.9355   26.5584 C   0  0  0  0  0  0  0  0  0  0  0  0
    9.4502  -18.5560   27.1734 O   0  0  0  0  0  0  0  0  0  0  0  0
    8.2061  -18.5202   25.1774 C   0  0  0  0  0  0  0  0  0  0  0  0
    8.2299  -17.0365   24.9181 C   0  0  2  0  0  0  0  0  0  0  0  0
    8.0376  -16.8448   23.4617 N   0  0  0  0  0  0  0  0  0  0  0  0
    9.4513  -16.3451   25.3149 C   0  0  0  0  0  0  0  0  0  0  0  0
    9.4204  -15.5244   26.2644 O   0  0  0  0  0  0  0  0  0  0  0  0
   10.6955  -16.5603   24.6706 N   0  0  0  0  0  0  0  0  0  0  0  0
   11.8826  -15.8859   25.1533 C   0  0  0  0  0  0  0  0  0  0  0  0
   12.9931  -16.8508   25.2230 C   0  0  0  0  0  0  0  0  0  0  0  0
   14.2848  -16.3988   25.5006 O   0  0  0  0  0  0  0  0  0  0  0  0
   12.7890  -18.0554   25.0378 O   0  0  0  0  0  0  0  0  0  0  0  0
  2  1  1  0
  3  2  1  0
  4  5  1  0
  4  3  1  0
  5  6  1  1
  7  8  2  0
  7  5  1  0
  9 10  1  0
 10 11  2  0
 10 12  1  0
 13 12  1  6
 13 15  1  0
 13 14  1  0
 14  7  1  0
 15 17  1  0
 16 15  2  0
 17 18  1  0
 19 20  1  0
 19 18  1  0
 21 19  2  0
M  END
$$$$
