MNG.pdb
     RDKit          3D

 21 20  0  0  1  0  0  0  0  0999 V2000
    5.6236  -11.1287   26.9329 C   0  0  0  0  0  0  0  0  0  0  0  0
    6.9822  -12.3211   26.7079 S   0  0  0  0  0  0  0  0  0  0  0  0
    6.2551  -13.9549   26.5218 C   0  0  0  0  0  0  0  0  0  0  0  0
    6.6794  -14.6205   25.2337 C   0  0  0  0  0  0  0  0  0  0  0  0
    8.1488  -14.4655   24.9808 C   0  0  2  0  0  0  0  0  0  0  0  0
    8.4802  -13.4626   23.9978 N   0  0  0  0  0  0  0  0  0  0  0  0
    8.7415  -15.7804   24.5905 C   0  0  0  0  0  0  0  0  0  0  0  0
    8.5132  -16.7753   25.3036 O   0  0  0  0  0  0  0  0  0  0  0  0
   10.0537  -19.9147   21.5696 N   0  0  0  0  0  0  0  0  0  0  0  0
   10.5489  -18.6841   21.1153 C   0  0  0  0  0  0  0  0  0  0  0  0
   11.4517  -18.6714   20.2498 O   0  0  0  0  0  0  0  0  0  0  0  0
   10.0194  -17.4312   21.6439 C   0  0  0  0  0  0  0  0  0  0  0  0
   10.1993  -17.2056   23.1224 C   0  0  2  0  0  0  0  0  0  0  0  0
    9.5415  -15.9194   23.4509 N   0  0  0  0  0  0  0  0  0  0  0  0
   11.5797  -17.1478   23.5896 C   0  0  0  0  0  0  0  0  0  0  0  0
   12.1772  -18.2088   23.8954 O   0  0  0  0  0  0  0  0  0  0  0  0
   12.2940  -15.9299   23.7153 N   0  0  0  0  0  0  0  0  0  0  0  0
   13.6570  -15.9415   24.2045 C   0  0  0  0  0  0  0  0  0  0  0  0
   14.5797  -16.0701   23.0639 C   0  0  0  0  0  0  0  0  0  0  0  0
   15.9573  -15.9893   23.2771 O   0  0  0  0  0  0  0  0  0  0  0  0
   14.1430  -16.2486   21.9217 O   0  0  0  0  0  0  0  0  0  0  0  0
  2  1  1  0
  3  2  1  0
  4  5  1  0
  4  3  1  0
  5  6  1  6
  7  8  2  0
  7  5  1  0
  9 10  1  0
 10 11  2  0
 10 12  1  0
 13 12  1  6
 13 15  1  0
 13 14  1  0
 14  7  1  0
 15 17  1  0
 16 15  2  0
 17 18  1  0
 19 20  1  0
 19 18  1  0
 21 19  2  0
M  END
$$$$
