MNG.pdb
     RDKit          3D

 21 20  0  0  1  0  0  0  0  0999 V2000
    8.2372  -11.8963   18.9288 C   0  0  0  0  0  0  0  0  0  0  0  0
    7.9656  -12.3540   20.6709 S   0  0  0  0  0  0  0  0  0  0  0  0
    7.6227  -14.1180   20.7292 C   0  0  0  0  0  0  0  0  0  0  0  0
    7.3872  -14.6030   22.1405 C   0  0  0  0  0  0  0  0  0  0  0  0
    6.9929  -16.0488   22.1773 C   0  0  2  0  0  0  0  0  0  0  0  0
    5.8619  -16.3779   21.3440 N   0  0  0  0  0  0  0  0  0  0  0  0
    6.7306  -16.4711   23.5864 C   0  0  0  0  0  0  0  0  0  0  0  0
    5.9564  -15.7876   24.2819 O   0  0  0  0  0  0  0  0  0  0  0  0
    7.5688  -21.2782   24.9114 N   0  0  0  0  0  0  0  0  0  0  0  0
    6.6558  -20.2797   24.5434 C   0  0  0  0  0  0  0  0  0  0  0  0
    6.1975  -20.2705   23.3796 O   0  0  0  0  0  0  0  0  0  0  0  0
    6.2431  -19.2619   25.5041 C   0  0  0  0  0  0  0  0  0  0  0  0
    7.0774  -18.0083   25.5430 C   0  0  2  0  0  0  0  0  0  0  0  0
    7.3300  -17.6083   24.1391 N   0  0  0  0  0  0  0  0  0  0  0  0
    8.3612  -18.1244   26.2255 C   0  0  0  0  0  0  0  0  0  0  0  0
    8.3906  -18.3071   27.4672 O   0  0  0  0  0  0  0  0  0  0  0  0
    9.6005  -18.0419   25.5422 N   0  0  0  0  0  0  0  0  0  0  0  0
   10.7005  -17.3075   26.1320 C   0  0  0  0  0  0  0  0  0  0  0  0
   11.9537  -18.0468   25.9042 C   0  0  0  0  0  0  0  0  0  0  0  0
   13.1531  -17.5479   26.4164 O   0  0  0  0  0  0  0  0  0  0  0  0
   11.9501  -19.1038   25.2639 O   0  0  0  0  0  0  0  0  0  0  0  0
  2  1  1  0
  3  2  1  0
  4  5  1  0
  4  3  1  0
  5  6  1  6
  7  8  2  0
  7  5  1  0
  9 10  1  0
 10 11  2  0
 10 12  1  0
 13 12  1  6
 13 15  1  0
 13 14  1  0
 14  7  1  0
 15 17  1  0
 16 15  2  0
 17 18  1  0
 19 20  1  0
 19 18  1  0
 21 19  2  0
M  END
$$$$
