MNG.pdb
     RDKit          3D

 21 20  0  0  1  0  0  0  0  0999 V2000
    7.8645  -11.8741   21.4687 C   0  0  0  0  0  0  0  0  0  0  0  0
    8.3124  -12.7285   19.9236 S   0  0  0  0  0  0  0  0  0  0  0  0
    7.7835  -14.4408   20.0686 C   0  0  0  0  0  0  0  0  0  0  0  0
    7.5954  -14.8556   21.5091 C   0  0  0  0  0  0  0  0  0  0  0  0
    7.2040  -16.2975   21.6301 C   0  0  2  0  0  0  0  0  0  0  0  0
    6.1414  -16.7016   20.7416 N   0  0  0  0  0  0  0  0  0  0  0  0
    6.8355  -16.6100   23.0440 C   0  0  0  0  0  0  0  0  0  0  0  0
    6.1347  -15.7961   23.6739 O   0  0  0  0  0  0  0  0  0  0  0  0
    6.2521  -21.3070   24.3923 N   0  0  0  0  0  0  0  0  0  0  0  0
    5.6787  -20.0823   24.0219 C   0  0  0  0  0  0  0  0  0  0  0  0
    5.2182  -19.9483   22.8668 O   0  0  0  0  0  0  0  0  0  0  0  0
    5.6181  -18.9750   24.9705 C   0  0  0  0  0  0  0  0  0  0  0  0
    6.8476  -18.1093   25.0599 C   0  0  2  0  0  0  0  0  0  0  0  0
    7.2564  -17.7871   23.6728 N   0  0  0  0  0  0  0  0  0  0  0  0
    7.9886  -18.7011   25.7491 C   0  0  0  0  0  0  0  0  0  0  0  0
    8.8873  -19.2734   25.0851 O   0  0  0  0  0  0  0  0  0  0  0  0
    8.1366  -18.6589   27.1583 N   0  0  0  0  0  0  0  0  0  0  0  0
    9.1720  -17.8368   27.7493 C   0  0  0  0  0  0  0  0  0  0  0  0
   10.4593  -18.5480   27.6695 C   0  0  0  0  0  0  0  0  0  0  0  0
   11.4312  -18.1178   26.7638 O   0  0  0  0  0  0  0  0  0  0  0  0
   10.6839  -19.5208   28.3976 O   0  0  0  0  0  0  0  0  0  0  0  0
  2  1  1  0
  3  2  1  0
  4  5  1  0
  4  3  1  0
  5  6  1  6
  7  8  2  0
  7  5  1  0
  9 10  1  0
 10 11  2  0
 10 12  1  0
 13 12  1  6
 13 15  1  0
 13 14  1  0
 14  7  1  0
 15 17  1  0
 16 15  2  0
 17 18  1  0
 19 20  1  0
 19 18  1  0
 21 19  2  0
M  END
$$$$
