MNG.pdb
     RDKit          3D

 21 20  0  0  1  0  0  0  0  0999 V2000
    5.3296  -11.9742   27.5254 C   0  0  0  0  0  0  0  0  0  0  0  0
    7.1308  -11.8817   27.2698 S   0  0  0  0  0  0  0  0  0  0  0  0
    7.4559  -12.1897   25.5285 C   0  0  0  0  0  0  0  0  0  0  0  0
    6.7120  -13.4018   25.0190 C   0  0  0  0  0  0  0  0  0  0  0  0
    7.6029  -14.6029   24.9150 C   0  0  2  0  0  0  0  0  0  0  0  0
    8.9233  -14.4129   25.4650 N   0  0  0  0  0  0  0  0  0  0  0  0
    7.7002  -15.0451   23.4911 C   0  0  0  0  0  0  0  0  0  0  0  0
    6.7172  -15.6033   22.9691 O   0  0  0  0  0  0  0  0  0  0  0  0
    7.5948  -12.4528   19.9264 N   0  0  0  0  0  0  0  0  0  0  0  0
    7.8292  -13.8352   19.9309 C   0  0  0  0  0  0  0  0  0  0  0  0
    6.9296  -14.6081   19.5337 O   0  0  0  0  0  0  0  0  0  0  0  0
    9.1063  -14.3691   20.3927 C   0  0  0  0  0  0  0  0  0  0  0  0
    9.0336  -15.4806   21.4069 C   0  0  2  0  0  0  0  0  0  0  0  0
    8.8615  -14.8485   22.7357 N   0  0  0  0  0  0  0  0  0  0  0  0
   10.1951  -16.3609   21.4641 C   0  0  0  0  0  0  0  0  0  0  0  0
   11.3370  -15.8721   21.6461 O   0  0  0  0  0  0  0  0  0  0  0  0
   10.0956  -17.7680   21.3241 N   0  0  0  0  0  0  0  0  0  0  0  0
   11.2761  -18.5457   21.0096 C   0  0  0  0  0  0  0  0  0  0  0  0
   11.7329  -19.2446   22.2229 C   0  0  0  0  0  0  0  0  0  0  0  0
   12.6120  -20.3234   22.1091 O   0  0  0  0  0  0  0  0  0  0  0  0
   11.3436  -18.8826   23.3385 O   0  0  0  0  0  0  0  0  0  0  0  0
  2  1  1  0
  3  2  1  0
  4  5  1  0
  4  3  1  0
  5  6  1  6
  7  8  2  0
  7  5  1  0
  9 10  1  0
 10 11  2  0
 10 12  1  0
 13 12  1  6
 13 15  1  0
 13 14  1  0
 14  7  1  0
 15 17  1  0
 16 15  2  0
 17 18  1  0
 19 20  1  0
 19 18  1  0
 21 19  2  0
M  END
$$$$
