MNG.pdb
     RDKit          3D

 21 20  0  0  1  0  0  0  0  0999 V2000
    7.6758  -12.6177   28.3104 C   0  0  0  0  0  0  0  0  0  0  0  0
    6.5891  -11.7503   27.1337 S   0  0  0  0  0  0  0  0  0  0  0  0
    5.4714  -12.9642   26.4194 C   0  0  0  0  0  0  0  0  0  0  0  0
    6.2159  -14.0786   25.7222 C   0  0  0  0  0  0  0  0  0  0  0  0
    7.3858  -13.5655   24.9379 C   0  0  2  0  0  0  0  0  0  0  0  0
    7.1155  -12.3656   24.1836 N   0  0  0  0  0  0  0  0  0  0  0  0
    7.9015  -14.6351   24.0309 C   0  0  0  0  0  0  0  0  0  0  0  0
    7.8266  -15.8216   24.4012 O   0  0  0  0  0  0  0  0  0  0  0  0
    7.5071  -13.2427   19.4118 N   0  0  0  0  0  0  0  0  0  0  0  0
    7.7414  -14.5219   19.9359 C   0  0  0  0  0  0  0  0  0  0  0  0
    6.8239  -15.3713   19.9061 O   0  0  0  0  0  0  0  0  0  0  0  0
    9.0393  -14.8615   20.5100 C   0  0  0  0  0  0  0  0  0  0  0  0
    9.0228  -15.3998   21.9168 C   0  0  2  0  0  0  0  0  0  0  0  0
    8.4628  -14.3373   22.7842 N   0  0  0  0  0  0  0  0  0  0  0  0
   10.3180  -15.7980   22.4564 C   0  0  0  0  0  0  0  0  0  0  0  0
   11.1713  -14.9205   22.7355 O   0  0  0  0  0  0  0  0  0  0  0  0
   10.6661  -17.1525   22.6878 N   0  0  0  0  0  0  0  0  0  0  0  0
   12.0031  -17.4865   23.1329 C   0  0  0  0  0  0  0  0  0  0  0  0
   12.1043  -18.9452   23.3096 C   0  0  0  0  0  0  0  0  0  0  0  0
   13.3170  -19.5101   23.7098 O   0  0  0  0  0  0  0  0  0  0  0  0
   11.1247  -19.6704   23.1061 O   0  0  0  0  0  0  0  0  0  0  0  0
  2  1  1  0
  3  2  1  0
  4  5  1  0
  4  3  1  0
  5  6  1  6
  7  8  2  0
  7  5  1  0
  9 10  1  0
 10 11  2  0
 10 12  1  0
 13 12  1  6
 13 15  1  0
 13 14  1  0
 14  7  1  0
 15 17  1  0
 16 15  2  0
 17 18  1  0
 19 20  1  0
 19 18  1  0
 21 19  2  0
M  END
$$$$
