MNG.pdb
     RDKit          3D

 21 20  0  0  1  0  0  0  0  0999 V2000
    6.4086  -10.5638   26.0103 C   0  0  0  0  0  0  0  0  0  0  0  0
    5.7598  -11.8634   27.1095 S   0  0  0  0  0  0  0  0  0  0  0  0
    6.8087  -13.3123   26.9274 C   0  0  0  0  0  0  0  0  0  0  0  0
    6.6300  -13.9756   25.5819 C   0  0  0  0  0  0  0  0  0  0  0  0
    7.5402  -15.1547   25.4134 C   0  0  2  0  0  0  0  0  0  0  0  0
    8.8959  -14.9264   25.8516 N   0  0  0  0  0  0  0  0  0  0  0  0
    7.5318  -15.6074   23.9895 C   0  0  0  0  0  0  0  0  0  0  0  0
    6.4930  -16.1169   23.5294 O   0  0  0  0  0  0  0  0  0  0  0  0
    6.3341  -13.9939   20.9545 N   0  0  0  0  0  0  0  0  0  0  0  0
    7.7037  -13.7569   21.1389 C   0  0  0  0  0  0  0  0  0  0  0  0
    8.0796  -12.6363   21.5479 O   0  0  0  0  0  0  0  0  0  0  0  0
    8.6815  -14.8031   20.8581 C   0  0  0  0  0  0  0  0  0  0  0  0
    8.6626  -15.9944   21.7797 C   0  0  2  0  0  0  0  0  0  0  0  0
    8.6556  -15.4734   23.1666 N   0  0  0  0  0  0  0  0  0  0  0  0
    9.7829  -16.9181   21.6418 C   0  0  0  0  0  0  0  0  0  0  0  0
   10.2795  -17.1278   20.5080 O   0  0  0  0  0  0  0  0  0  0  0  0
   10.3509  -17.6014   22.7463 N   0  0  0  0  0  0  0  0  0  0  0  0
   11.3882  -18.5878   22.5269 C   0  0  0  0  0  0  0  0  0  0  0  0
   11.8724  -19.0789   23.8283 C   0  0  0  0  0  0  0  0  0  0  0  0
   12.9581  -19.9557   23.8753 O   0  0  0  0  0  0  0  0  0  0  0  0
   11.3247  -18.7204   24.8764 O   0  0  0  0  0  0  0  0  0  0  0  0
  2  1  1  0
  3  2  1  0
  4  5  1  0
  4  3  1  0
  5  6  1  6
  7  8  2  0
  7  5  1  0
  9 10  1  0
 10 11  2  0
 10 12  1  0
 13 12  1  6
 13 15  1  0
 13 14  1  0
 14  7  1  0
 15 17  1  0
 16 15  2  0
 17 18  1  0
 19 20  1  0
 19 18  1  0
 21 19  2  0
M  END
$$$$
