MNG.pdb
     RDKit          3D

 21 20  0  0  1  0  0  0  0  0999 V2000
    5.7820  -11.6352   26.6592 C   0  0  0  0  0  0  0  0  0  0  0  0
    7.5258  -12.0972   26.4063 S   0  0  0  0  0  0  0  0  0  0  0  0
    7.5806  -13.3598   25.1274 C   0  0  0  0  0  0  0  0  0  0  0  0
    6.5077  -14.4062   25.3181 C   0  0  0  0  0  0  0  0  0  0  0  0
    7.0775  -15.7160   25.7729 C   0  0  2  0  0  0  0  0  0  0  0  0
    7.9746  -15.6152   26.8985 N   0  0  0  0  0  0  0  0  0  0  0  0
    7.7609  -16.3992   24.6332 C   0  0  0  0  0  0  0  0  0  0  0  0
    7.0917  -16.6994   23.6270 O   0  0  0  0  0  0  0  0  0  0  0  0
    9.1982  -15.8417   21.4306 N   0  0  0  0  0  0  0  0  0  0  0  0
   10.3304  -15.8505   22.2576 C   0  0  0  0  0  0  0  0  0  0  0  0
   10.9824  -14.7943   22.4112 O   0  0  0  0  0  0  0  0  0  0  0  0
   10.7459  -17.0758   22.9325 C   0  0  0  0  0  0  0  0  0  0  0  0
    9.7046  -17.7482   23.7884 C   0  0  2  0  0  0  0  0  0  0  0  0
    9.1253  -16.7076   24.6695 N   0  0  0  0  0  0  0  0  0  0  0  0
   10.1844  -18.8428   24.6246 C   0  0  0  0  0  0  0  0  0  0  0  0
   10.7164  -19.8463   24.0898 O   0  0  0  0  0  0  0  0  0  0  0  0
   10.0797  -18.8276   26.0382 N   0  0  0  0  0  0  0  0  0  0  0  0
   10.5390  -19.9659   26.8065 C   0  0  0  0  0  0  0  0  0  0  0  0
   10.3940  -19.6712   28.2423 C   0  0  0  0  0  0  0  0  0  0  0  0
   10.7607  -20.6334   29.1855 O   0  0  0  0  0  0  0  0  0  0  0  0
    9.9508  -18.5800   28.6163 O   0  0  0  0  0  0  0  0  0  0  0  0
  2  1  1  0
  3  2  1  0
  4  5  1  0
  4  3  1  0
  5  6  1  1
  7  8  2  0
  7  5  1  0
  9 10  1  0
 10 11  2  0
 10 12  1  0
 13 12  1  1
 13 15  1  0
 13 14  1  0
 14  7  1  0
 15 17  1  0
 16 15  2  0
 17 18  1  0
 19 20  1  0
 19 18  1  0
 21 19  2  0
M  END
$$$$
