MNG.pdb
     RDKit          3D

 21 20  0  0  1  0  0  0  0  0999 V2000
    5.7127  -10.8491   26.6886 C   0  0  0  0  0  0  0  0  0  0  0  0
    7.0000  -12.1318   26.8152 S   0  0  0  0  0  0  0  0  0  0  0  0
    6.6248  -13.4089   25.6065 C   0  0  0  0  0  0  0  0  0  0  0  0
    7.6723  -14.4974   25.5887 C   0  0  0  0  0  0  0  0  0  0  0  0
    7.3928  -15.5264   24.5350 C   0  0  2  0  0  0  0  0  0  0  0  0
    6.1182  -16.1882   24.6737 N   0  0  0  0  0  0  0  0  0  0  0  0
    8.4933  -16.5366   24.5028 C   0  0  0  0  0  0  0  0  0  0  0  0
    8.2876  -17.6618   24.9948 O   0  0  0  0  0  0  0  0  0  0  0  0
   10.1724  -17.0449   20.8813 N   0  0  0  0  0  0  0  0  0  0  0  0
   11.1258  -16.3158   21.6061 C   0  0  0  0  0  0  0  0  0  0  0  0
   11.4325  -15.1646   21.2253 O   0  0  0  0  0  0  0  0  0  0  0  0
   11.7547  -16.8902   22.7910 C   0  0  0  0  0  0  0  0  0  0  0  0
   10.8299  -17.2545   23.9229 C   0  0  2  0  0  0  0  0  0  0  0  0
    9.7407  -16.2504   23.9372 N   0  0  0  0  0  0  0  0  0  0  0  0
   11.4374  -17.2918   25.2483 C   0  0  0  0  0  0  0  0  0  0  0  0
   12.6515  -17.0023   25.3839 O   0  0  0  0  0  0  0  0  0  0  0  0
   10.7100  -17.6430   26.4132 N   0  0  0  0  0  0  0  0  0  0  0  0
   10.7036  -19.0168   26.8714 C   0  0  0  0  0  0  0  0  0  0  0  0
   11.6490  -19.1579   27.9918 C   0  0  0  0  0  0  0  0  0  0  0  0
   13.0188  -19.2407   27.7338 O   0  0  0  0  0  0  0  0  0  0  0  0
   11.2381  -19.2034   29.1564 O   0  0  0  0  0  0  0  0  0  0  0  0
  2  1  1  0
  3  2  1  0
  4  5  1  0
  4  3  1  0
  5  6  1  1
  7  8  2  0
  7  5  1  0
  9 10  1  0
 10 11  2  0
 10 12  1  0
 13 12  1  6
 13 15  1  0
 13 14  1  0
 14  7  1  0
 15 17  1  0
 16 15  2  0
 17 18  1  0
 19 20  1  0
 19 18  1  0
 21 19  2  0
M  END
$$$$
