AAV.pdb
     RDKit          3D

 18 17  0  0  1  0  0  0  0  0999 V2000
   14.9514  -12.5990  -17.9476 C   0  0  0  0  0  0  0  0  0  0  0  0
   15.3561  -11.5829  -16.9034 C   0  0  2  0  0  0  0  0  0  0  0  0
   14.3476  -10.5681  -16.8448 N   0  0  0  0  0  0  0  0  0  0  0  0
   16.7120  -11.0408  -17.1399 C   0  0  0  0  0  0  0  0  0  0  0  0
   17.6766  -11.8430  -17.1518 O   0  0  0  0  0  0  0  0  0  0  0  0
   18.2908   -7.6909  -18.0860 C   0  0  0  0  0  0  0  0  0  0  0  0
   18.2751   -9.0737  -17.4940 C   0  0  2  0  0  0  0  0  0  0  0  0
   16.9829   -9.6596  -17.3547 N   0  0  0  0  0  0  0  0  0  0  0  0
   19.0391   -9.0021  -16.1988 C   0  0  0  0  0  0  0  0  0  0  0  0
   18.3831   -8.7660  -15.1606 O   0  0  0  0  0  0  0  0  0  0  0  0
   21.9428  -11.4935  -15.3244 C   0  0  0  0  0  0  0  0  0  0  0  0
   22.3940  -10.0973  -14.9895 C   0  0  2  0  0  0  0  0  0  0  0  0
   23.2090  -10.0850  -13.7287 C   0  0  0  0  0  0  0  0  0  0  0  0
   21.1829   -9.1676  -14.8858 C   0  0  2  0  0  0  0  0  0  0  0  0
   20.4227   -9.1860  -16.1196 N   0  0  0  0  0  0  0  0  0  0  0  0
   21.7369   -7.7814  -14.7127 C   0  0  0  0  0  0  0  0  0  0  0  0
   21.9837   -7.3202  -13.5623 O   0  0  0  0  0  0  0  0  0  0  0  0
   21.9937   -6.9681  -15.8024 O   0  0  0  0  0  0  0  0  0  0  0  0
  2  1  1  6
  2  3  1  0
  4  2  1  0
  4  5  2  0
  7  6  1  1
  7  8  1  0
  8  4  1  0
  9  7  1  0
  9 15  1  0
 10  9  2  0
 12 11  1  1
 12 14  1  0
 13 12  1  0
 14 15  1  6
 14 16  1  0
 16 17  2  0
 16 18  1  0
M  END
$$$$
