AAV.pdb
     RDKit          3D

 18 17  0  0  1  0  0  0  0  0999 V2000
   18.5831  -15.9906  -15.7513 C   0  0  0  0  0  0  0  0  0  0  0  0
   18.2091  -15.2423  -17.0109 C   0  0  2  0  0  0  0  0  0  0  0  0
   18.6409  -16.0111  -18.1391 N   0  0  0  0  0  0  0  0  0  0  0  0
   18.7286  -13.8572  -17.0192 C   0  0  0  0  0  0  0  0  0  0  0  0
   19.9650  -13.6894  -17.1504 O   0  0  0  0  0  0  0  0  0  0  0  0
   17.2594  -10.3157  -16.8953 C   0  0  0  0  0  0  0  0  0  0  0  0
   18.3508  -11.3509  -16.9023 C   0  0  2  0  0  0  0  0  0  0  0  0
   17.9036  -12.7045  -16.8866 N   0  0  0  0  0  0  0  0  0  0  0  0
   19.2762  -11.0163  -15.7629 C   0  0  0  0  0  0  0  0  0  0  0  0
   19.0105  -11.5127  -14.6462 O   0  0  0  0  0  0  0  0  0  0  0  0
   23.7997   -9.8965  -14.3228 C   0  0  0  0  0  0  0  0  0  0  0  0
   22.7923  -10.1231  -15.4178 C   0  0  2  0  0  0  0  0  0  0  0  0
   23.0501   -9.2097  -16.5811 C   0  0  0  0  0  0  0  0  0  0  0  0
   21.3749   -9.9479  -14.8680 C   0  0  2  0  0  0  0  0  0  0  0  0
   20.3946  -10.1901  -15.9076 N   0  0  0  0  0  0  0  0  0  0  0  0
   21.2620   -8.5052  -14.4626 C   0  0  0  0  0  0  0  0  0  0  0  0
   20.7838   -7.6442  -15.2543 O   0  0  0  0  0  0  0  0  0  0  0  0
   21.6761   -8.0742  -13.2146 O   0  0  0  0  0  0  0  0  0  0  0  0
  2  1  1  1
  2  3  1  0
  4  2  1  0
  4  5  2  0
  7  6  1  1
  7  8  1  0
  8  4  1  0
  9  7  1  0
  9 15  1  0
 10  9  2  0
 12 11  1  1
 12 14  1  0
 13 12  1  0
 14 15  1  6
 14 16  1  0
 16 17  2  0
 16 18  1  0
M  END
$$$$
