AAV.pdb
     RDKit          3D

 18 17  0  0  1  0  0  0  0  0999 V2000
   23.5756  -10.6315  -21.1372 C   0  0  0  0  0  0  0  0  0  0  0  0
   23.6710  -11.6552  -20.0284 C   0  0  2  0  0  0  0  0  0  0  0  0
   23.1967  -12.9101  -20.5290 N   0  0  0  0  0  0  0  0  0  0  0  0
   22.9741  -11.2202  -18.7981 C   0  0  0  0  0  0  0  0  0  0  0  0
   21.7706  -10.8773  -18.8890 O   0  0  0  0  0  0  0  0  0  0  0  0
   23.8116  -10.9013  -15.0671 C   0  0  0  0  0  0  0  0  0  0  0  0
   22.9728  -10.7439  -16.3058 C   0  0  2  0  0  0  0  0  0  0  0  0
   23.5931  -11.1693  -17.5169 N   0  0  0  0  0  0  0  0  0  0  0  0
   22.5151   -9.3102  -16.3430 C   0  0  0  0  0  0  0  0  0  0  0  0
   23.2601   -8.4872  -16.9188 O   0  0  0  0  0  0  0  0  0  0  0  0
   19.0986   -8.1594  -17.5290 C   0  0  0  0  0  0  0  0  0  0  0  0
   19.3198   -7.5220  -16.1837 C   0  0  2  0  0  0  0  0  0  0  0  0
   18.7448   -6.1356  -16.1460 C   0  0  0  0  0  0  0  0  0  0  0  0
   20.8122   -7.5216  -15.8448 C   0  0  2  0  0  0  0  0  0  0  0  0
   21.3152   -8.8788  -15.7698 N   0  0  0  0  0  0  0  0  0  0  0  0
   20.9267   -6.9169  -14.4739 C   0  0  0  0  0  0  0  0  0  0  0  0
   20.8882   -5.6642  -14.3118 O   0  0  0  0  0  0  0  0  0  0  0  0
   21.0775   -7.7084  -13.3488 O   0  0  0  0  0  0  0  0  0  0  0  0
  2  1  1  6
  2  3  1  0
  4  2  1  0
  4  5  2  0
  7  6  1  1
  7  8  1  0
  8  4  1  0
  9  7  1  0
  9 15  1  0
 10  9  2  0
 12 11  1  6
 12 14  1  0
 13 12  1  0
 14 15  1  1
 14 16  1  0
 16 17  2  0
 16 18  1  0
M  END
$$$$
