AAV.pdb
     RDKit          3D

 18 17  0  0  1  0  0  0  0  0999 V2000
   19.4959  -13.8894  -20.8878 C   0  0  0  0  0  0  0  0  0  0  0  0
   18.8332  -13.2113  -19.7099 C   0  0  2  0  0  0  0  0  0  0  0  0
   17.4892  -12.8797  -20.0760 N   0  0  0  0  0  0  0  0  0  0  0  0
   19.6055  -12.0480  -19.2213 C   0  0  0  0  0  0  0  0  0  0  0  0
   20.7693  -12.2462  -18.7963 O   0  0  0  0  0  0  0  0  0  0  0  0
   19.2129   -8.2459  -19.1370 C   0  0  0  0  0  0  0  0  0  0  0  0
   19.7877   -9.5691  -18.7111 C   0  0  2  0  0  0  0  0  0  0  0  0
   19.1016  -10.7165  -19.2066 N   0  0  0  0  0  0  0  0  0  0  0  0
   19.8879   -9.5378  -17.2093 C   0  0  0  0  0  0  0  0  0  0  0  0
   18.8836   -9.9066  -16.5617 O   0  0  0  0  0  0  0  0  0  0  0  0
   22.6607  -10.2549  -13.3272 C   0  0  0  0  0  0  0  0  0  0  0  0
   22.4178  -10.1822  -14.8107 C   0  0  2  0  0  0  0  0  0  0  0  0
   23.6578   -9.7462  -15.5364 C   0  0  0  0  0  0  0  0  0  0  0  0
   21.2386   -9.2513  -15.1021 C   0  0  2  0  0  0  0  0  0  0  0  0
   21.0371   -9.1207  -16.5313 N   0  0  0  0  0  0  0  0  0  0  0  0
   21.6341   -7.9017  -14.5725 C   0  0  0  0  0  0  0  0  0  0  0  0
   22.2025   -7.0535  -15.3171 O   0  0  0  0  0  0  0  0  0  0  0  0
   21.3899   -7.5449  -13.2580 O   0  0  0  0  0  0  0  0  0  0  0  0
  2  1  1  6
  2  3  1  0
  4  2  1  0
  4  5  2  0
  7  6  1  1
  7  8  1  0
  8  4  1  0
  9  7  1  0
  9 15  1  0
 10  9  2  0
 12 11  1  1
 12 14  1  0
 13 12  1  0
 14 15  1  6
 14 16  1  0
 16 17  2  0
 16 18  1  0
M  END
$$$$
