AAV.pdb
     RDKit          3D

 18 17  0  0  1  0  0  0  0  0999 V2000
   18.2272  -12.1437  -17.0066 C   0  0  0  0  0  0  0  0  0  0  0  0
   19.1926  -11.0760  -17.4695 C   0  0  2  0  0  0  0  0  0  0  0  0
   20.1776  -11.6895  -18.3084 N   0  0  0  0  0  0  0  0  0  0  0  0
   19.7802  -10.3199  -16.3419 C   0  0  0  0  0  0  0  0  0  0  0  0
   19.0093   -9.6520  -15.6112 O   0  0  0  0  0  0  0  0  0  0  0  0
   23.1748   -9.9954  -14.6221 C   0  0  0  0  0  0  0  0  0  0  0  0
   21.7978   -9.5369  -15.0174 C   0  0  2  0  0  0  0  0  0  0  0  0
   21.1715  -10.3081  -16.0399 N   0  0  0  0  0  0  0  0  0  0  0  0
   21.9061   -8.0742  -15.3569 C   0  0  0  0  0  0  0  0  0  0  0  0
   22.2208   -7.7818  -16.5314 O   0  0  0  0  0  0  0  0  0  0  0  0
   19.5023   -5.3560  -13.6282 C   0  0  0  0  0  0  0  0  0  0  0  0
   20.2920   -5.0871  -14.8809 C   0  0  2  0  0  0  0  0  0  0  0  0
   19.5992   -5.6577  -16.0845 C   0  0  0  0  0  0  0  0  0  0  0  0
   21.7109   -5.6412  -14.7330 C   0  0  2  0  0  0  0  0  0  0  0  0
   21.6726   -7.0571  -14.4265 N   0  0  0  0  0  0  0  0  0  0  0  0
   22.3113   -4.9351  -13.5500 C   0  0  0  0  0  0  0  0  0  0  0  0
   22.3759   -5.4998  -12.4213 O   0  0  0  0  0  0  0  0  0  0  0  0
   22.8111   -3.6492  -13.6574 O   0  0  0  0  0  0  0  0  0  0  0  0
  2  1  1  1
  2  3  1  0
  4  2  1  0
  4  5  2  0
  7  6  1  6
  7  8  1  0
  8  4  1  0
  9  7  1  0
  9 15  1  0
 10  9  2  0
 12 11  1  1
 12 14  1  0
 13 12  1  0
 14 15  1  1
 14 16  1  0
 16 17  2  0
 16 18  1  0
M  END
$$$$
