AAV.pdb
     RDKit          3D

 18 17  0  0  1  0  0  0  0  0999 V2000
   18.0980  -11.6391  -17.3875 C   0  0  0  0  0  0  0  0  0  0  0  0
   19.2912  -10.7927  -17.7701 C   0  0  2  0  0  0  0  0  0  0  0  0
   20.2975  -11.6510  -18.3187 N   0  0  0  0  0  0  0  0  0  0  0  0
   19.7821   -9.9686  -16.6440 C   0  0  0  0  0  0  0  0  0  0  0  0
   19.0053   -9.1147  -16.1524 O   0  0  0  0  0  0  0  0  0  0  0  0
   22.9171   -9.8150  -14.4455 C   0  0  0  0  0  0  0  0  0  0  0  0
   21.6047   -9.3301  -14.9982 C   0  0  2  0  0  0  0  0  0  0  0  0
   21.0868  -10.0905  -16.0873 N   0  0  0  0  0  0  0  0  0  0  0  0
   21.7805   -7.8704  -15.3216 C   0  0  0  0  0  0  0  0  0  0  0  0
   22.2591   -7.5867  -16.4416 O   0  0  0  0  0  0  0  0  0  0  0  0
   19.3789   -5.2284  -15.7817 C   0  0  0  0  0  0  0  0  0  0  0  0
   20.2603   -4.7128  -14.6761 C   0  0  2  0  0  0  0  0  0  0  0  0
   20.4276   -3.2239  -14.7738 C   0  0  0  0  0  0  0  0  0  0  0  0
   21.6098   -5.4338  -14.7045 C   0  0  2  0  0  0  0  0  0  0  0  0
   21.4353   -6.8468  -14.4341 N   0  0  0  0  0  0  0  0  0  0  0  0
   22.4162   -4.8506  -13.5784 C   0  0  0  0  0  0  0  0  0  0  0  0
   23.0422   -3.7625  -13.7241 O   0  0  0  0  0  0  0  0  0  0  0  0
   22.4993   -5.4830  -12.3504 O   0  0  0  0  0  0  0  0  0  0  0  0
  2  1  1  1
  2  3  1  0
  4  2  1  0
  4  5  2  0
  7  6  1  6
  7  8  1  0
  8  4  1  0
  9  7  1  0
  9 15  1  0
 10  9  2  0
 12 11  1  6
 12 14  1  0
 13 12  1  0
 14 15  1  1
 14 16  1  0
 16 17  2  0
 16 18  1  0
M  END
$$$$
