AAV.pdb
     RDKit          3D

 18 17  0  0  1  0  0  0  0  0999 V2000
   18.6932  -12.7243  -19.6400 C   0  0  0  0  0  0  0  0  0  0  0  0
   19.6069  -13.4266  -18.6612 C   0  0  2  0  0  0  0  0  0  0  0  0
   19.0119  -14.6796  -18.3058 N   0  0  0  0  0  0  0  0  0  0  0  0
   19.9311  -12.5847  -17.4887 C   0  0  0  0  0  0  0  0  0  0  0  0
   18.9825  -12.1459  -16.7945 O   0  0  0  0  0  0  0  0  0  0  0  0
   23.0718  -11.4211  -15.6359 C   0  0  0  0  0  0  0  0  0  0  0  0
   21.6227  -11.3730  -16.0368 C   0  0  2  0  0  0  0  0  0  0  0  0
   21.2592  -12.2448  -17.1047 N   0  0  0  0  0  0  0  0  0  0  0  0
   21.2933   -9.9293  -16.3085 C   0  0  0  0  0  0  0  0  0  0  0  0
   21.5646   -9.4854  -17.4457 O   0  0  0  0  0  0  0  0  0  0  0  0
   18.1304   -8.1963  -16.4274 C   0  0  0  0  0  0  0  0  0  0  0  0
   18.9111   -7.4281  -15.3952 C   0  0  2  0  0  0  0  0  0  0  0  0
   18.5933   -5.9623  -15.4639 C   0  0  0  0  0  0  0  0  0  0  0  0
   20.4087   -7.6882  -15.5726 C   0  0  2  0  0  0  0  0  0  0  0  0
   20.7089   -9.0894  -15.3559 N   0  0  0  0  0  0  0  0  0  0  0  0
   21.0975   -6.9024  -14.4925 C   0  0  0  0  0  0  0  0  0  0  0  0
   21.3339   -5.6695  -14.6373 O   0  0  0  0  0  0  0  0  0  0  0  0
   21.4938   -7.5005  -13.3092 O   0  0  0  0  0  0  0  0  0  0  0  0
  2  1  1  6
  2  3  1  0
  4  2  1  0
  4  5  2  0
  7  6  1  6
  7  8  1  0
  8  4  1  0
  9  7  1  0
  9 15  1  0
 10  9  2  0
 12 11  1  6
 12 14  1  0
 13 12  1  0
 14 15  1  1
 14 16  1  0
 16 17  2  0
 16 18  1  0
M  END
$$$$
