AAV.pdb
     RDKit          3D

 18 17  0  0  1  0  0  0  0  0999 V2000
   17.1117  -11.4705  -14.2451 C   0  0  0  0  0  0  0  0  0  0  0  0
   16.6813  -10.6735  -15.4559 C   0  0  2  0  0  0  0  0  0  0  0  0
   16.7184  -11.5334  -16.6002 N   0  0  0  0  0  0  0  0  0  0  0  0
   17.4783   -9.4395  -15.6310 C   0  0  0  0  0  0  0  0  0  0  0  0
   18.6267   -9.5417  -16.1260 O   0  0  0  0  0  0  0  0  0  0  0  0
   16.9513   -5.6697  -15.2530 C   0  0  0  0  0  0  0  0  0  0  0  0
   17.7616   -6.9323  -15.3632 C   0  0  2  0  0  0  0  0  0  0  0  0
   17.0146   -8.1430  -15.2691 N   0  0  0  0  0  0  0  0  0  0  0  0
   18.8648   -6.8327  -14.3437 C   0  0  0  0  0  0  0  0  0  0  0  0
   18.6025   -7.2063  -13.1794 O   0  0  0  0  0  0  0  0  0  0  0  0
   22.8303   -6.5343  -15.6381 C   0  0  0  0  0  0  0  0  0  0  0  0
   22.4395   -7.1196  -14.3078 C   0  0  2  0  0  0  0  0  0  0  0  0
   22.1306   -8.5833  -14.4358 C   0  0  0  0  0  0  0  0  0  0  0  0
   21.2570   -6.3440  -13.7228 C   0  0  2  0  0  0  0  0  0  0  0  0
   20.1408   -6.3487  -14.6471 N   0  0  0  0  0  0  0  0  0  0  0  0
   21.7230   -4.9225  -13.5786 C   0  0  0  0  0  0  0  0  0  0  0  0
   21.4758   -4.0646  -14.4730 O   0  0  0  0  0  0  0  0  0  0  0  0
   22.4351   -4.5082  -12.4668 O   0  0  0  0  0  0  0  0  0  0  0  0
  2  1  1  1
  2  3  1  0
  4  2  1  0
  4  5  2  0
  7  6  1  1
  7  8  1  0
  8  4  1  0
  9  7  1  0
  9 15  1  0
 10  9  2  0
 12 11  1  6
 12 14  1  0
 13 12  1  0
 14 15  1  6
 14 16  1  0
 16 17  2  0
 16 18  1  0
M  END
$$$$
