AAV.pdb
     RDKit          3D

 18 17  0  0  1  0  0  0  0  0999 V2000
   19.4495  -10.1280  -19.3060 C   0  0  0  0  0  0  0  0  0  0  0  0
   19.9344  -10.9937  -18.1650 C   0  0  2  0  0  0  0  0  0  0  0  0
   18.9482  -12.0000  -17.9097 N   0  0  0  0  0  0  0  0  0  0  0  0
   20.2802  -10.2021  -16.9641 C   0  0  0  0  0  0  0  0  0  0  0  0
   19.4160   -9.4183  -16.5025 O   0  0  0  0  0  0  0  0  0  0  0  0
   23.2438   -9.9311  -14.5448 C   0  0  0  0  0  0  0  0  0  0  0  0
   21.9244   -9.5363  -15.1499 C   0  0  2  0  0  0  0  0  0  0  0  0
   21.5389  -10.2802  -16.3034 N   0  0  0  0  0  0  0  0  0  0  0  0
   21.9824   -8.0514  -15.3910 C   0  0  0  0  0  0  0  0  0  0  0  0
   22.4718   -7.6672  -16.4758 O   0  0  0  0  0  0  0  0  0  0  0  0
   19.4378   -5.5265  -15.7945 C   0  0  0  0  0  0  0  0  0  0  0  0
   20.2431   -5.0277  -14.6250 C   0  0  2  0  0  0  0  0  0  0  0  0
   20.3339   -3.5291  -14.6366 C   0  0  0  0  0  0  0  0  0  0  0  0
   21.6296   -5.6755  -14.6311 C   0  0  2  0  0  0  0  0  0  0  0  0
   21.5190   -7.1110  -14.4661 N   0  0  0  0  0  0  0  0  0  0  0  0
   22.3471   -5.1325  -13.4275 C   0  0  0  0  0  0  0  0  0  0  0  0
   22.9277   -4.0108  -13.4694 O   0  0  0  0  0  0  0  0  0  0  0  0
   22.3954   -5.8397  -12.2391 O   0  0  0  0  0  0  0  0  0  0  0  0
  2  1  1  6
  2  3  1  0
  4  2  1  0
  4  5  2  0
  7  6  1  6
  7  8  1  0
  8  4  1  0
  9  7  1  0
  9 15  1  0
 10  9  2  0
 12 11  1  6
 12 14  1  0
 13 12  1  0
 14 15  1  1
 14 16  1  0
 16 17  2  0
 16 18  1  0
M  END
$$$$
