AAV.pdb
     RDKit          3D

 18 17  0  0  1  0  0  0  0  0999 V2000
   18.3414  -11.9343  -18.4411 C   0  0  0  0  0  0  0  0  0  0  0  0
   19.4005  -10.8783  -18.6635 C   0  0  2  0  0  0  0  0  0  0  0  0
   20.4345  -11.4394  -19.4799 N   0  0  0  0  0  0  0  0  0  0  0  0
   19.9065  -10.3111  -17.3944 C   0  0  0  0  0  0  0  0  0  0  0  0
   19.0977   -9.7007  -16.6545 O   0  0  0  0  0  0  0  0  0  0  0  0
   23.1278  -10.4050  -15.3437 C   0  0  0  0  0  0  0  0  0  0  0  0
   21.8161   -9.8240  -15.7962 C   0  0  2  0  0  0  0  0  0  0  0  0
   21.2600  -10.4195  -16.9660 N   0  0  0  0  0  0  0  0  0  0  0  0
   22.0184   -8.3376  -15.9234 C   0  0  0  0  0  0  0  0  0  0  0  0
   22.5111   -7.9174  -16.9933 O   0  0  0  0  0  0  0  0  0  0  0  0
   20.6908   -3.8681  -15.6127 C   0  0  0  0  0  0  0  0  0  0  0  0
   20.5464   -5.3654  -15.5623 C   0  0  2  0  0  0  0  0  0  0  0  0
   19.3464   -5.7614  -14.7515 C   0  0  0  0  0  0  0  0  0  0  0  0
   21.8287   -5.9957  -15.0143 C   0  0  2  0  0  0  0  0  0  0  0  0
   21.6824   -7.4339  -14.9111 N   0  0  0  0  0  0  0  0  0  0  0  0
   21.9962   -5.4538  -13.6227 C   0  0  0  0  0  0  0  0  0  0  0  0
   21.5785   -6.0999  -12.6200 O   0  0  0  0  0  0  0  0  0  0  0  0
   22.6105   -4.2351  -13.3944 O   0  0  0  0  0  0  0  0  0  0  0  0
  2  1  1  1
  2  3  1  0
  4  2  1  0
  4  5  2  0
  7  6  1  6
  7  8  1  0
  8  4  1  0
  9  7  1  0
  9 15  1  0
 10  9  2  0
 12 11  1  1
 12 14  1  0
 13 12  1  0
 14 15  1  1
 14 16  1  0
 16 17  2  0
 16 18  1  0
M  END
$$$$
