AAV.pdb
     RDKit          3D

 18 17  0  0  1  0  0  0  0  0999 V2000
   28.5047  -17.4285  -18.3485 C   0  0  0  0  0  0  0  0  0  0  0  0
   27.5363  -18.5892  -18.3855 C   0  0  2  0  0  0  0  0  0  0  0  0
   26.8772  -18.5883  -19.6567 N   0  0  0  0  0  0  0  0  0  0  0  0
   26.5956  -18.5753  -17.2439 C   0  0  0  0  0  0  0  0  0  0  0  0
   27.0668  -18.6920  -16.0869 O   0  0  0  0  0  0  0  0  0  0  0  0
   22.8767  -17.8748  -16.6968 C   0  0  0  0  0  0  0  0  0  0  0  0
   24.2404  -18.3853  -16.3193 C   0  0  2  0  0  0  0  0  0  0  0  0
   25.1857  -18.4369  -17.3852 N   0  0  0  0  0  0  0  0  0  0  0  0
   24.0361  -19.7132  -15.6399 C   0  0  0  0  0  0  0  0  0  0  0  0
   23.9228  -20.7193  -16.3740 O   0  0  0  0  0  0  0  0  0  0  0  0
   25.0462  -22.6494  -11.9668 C   0  0  0  0  0  0  0  0  0  0  0  0
   25.0655  -21.2777  -12.5858 C   0  0  2  0  0  0  0  0  0  0  0  0
   25.0444  -20.2119  -11.5286 C   0  0  0  0  0  0  0  0  0  0  0  0
   23.8948  -21.1275  -13.5599 C   0  0  2  0  0  0  0  0  0  0  0  0
   23.9704  -19.8558  -14.2508 N   0  0  0  0  0  0  0  0  0  0  0  0
   22.6514  -21.1143  -12.7159 C   0  0  0  0  0  0  0  0  0  0  0  0
   22.1844  -22.1841  -12.2316 O   0  0  0  0  0  0  0  0  0  0  0  0
   21.9799  -19.9356  -12.4427 O   0  0  0  0  0  0  0  0  0  0  0  0
  2  1  1  6
  2  3  1  0
  4  2  1  0
  4  5  2  0
  7  6  1  6
  7  8  1  0
  8  4  1  0
  9  7  1  0
  9 15  1  0
 10  9  2  0
 12 11  1  1
 12 14  1  0
 13 12  1  0
 14 15  1  1
 14 16  1  0
 16 17  2  0
 16 18  1  0
M  END
$$$$
