AAV.pdb
     RDKit          3D

 18 17  0  0  1  0  0  0  0  0999 V2000
   18.6112  -10.7464  -18.9513 C   0  0  0  0  0  0  0  0  0  0  0  0
   20.0377  -11.2187  -18.7829 C   0  0  2  0  0  0  0  0  0  0  0  0
   20.0181  -12.6176  -18.4777 N   0  0  0  0  0  0  0  0  0  0  0  0
   20.7830  -10.4178  -17.7872 C   0  0  0  0  0  0  0  0  0  0  0  0
   20.5941  -10.6606  -16.5708 O   0  0  0  0  0  0  0  0  0  0  0  0
   23.5199   -7.7387  -17.8147 C   0  0  0  0  0  0  0  0  0  0  0  0
   22.4081   -8.5552  -17.2146 C   0  0  2  0  0  0  0  0  0  0  0  0
   21.7024   -9.3871  -18.1325 N   0  0  0  0  0  0  0  0  0  0  0  0
   21.5153   -7.5969  -16.4721 C   0  0  0  0  0  0  0  0  0  0  0  0
   20.5512   -7.1093  -17.1019 O   0  0  0  0  0  0  0  0  0  0  0  0
   20.8610   -7.7293  -12.4010 C   0  0  0  0  0  0  0  0  0  0  0  0
   20.0242   -6.9690  -13.3942 C   0  0  2  0  0  0  0  0  0  0  0  0
   19.0333   -7.8753  -14.0658 C   0  0  0  0  0  0  0  0  0  0  0  0
   20.9280   -6.2703  -14.4125 C   0  0  2  0  0  0  0  0  0  0  0  0
   21.7228   -7.2427  -15.1358 N   0  0  0  0  0  0  0  0  0  0  0  0
   21.8706   -5.4151  -13.6134 C   0  0  0  0  0  0  0  0  0  0  0  0
   23.0504   -5.7993  -13.3736 O   0  0  0  0  0  0  0  0  0  0  0  0
   21.4795   -4.1845  -13.1162 O   0  0  0  0  0  0  0  0  0  0  0  0
  2  1  1  1
  2  3  1  0
  4  2  1  0
  4  5  2  0
  7  6  1  6
  7  8  1  0
  8  4  1  0
  9  7  1  0
  9 15  1  0
 10  9  2  0
 12 11  1  1
 12 14  1  0
 13 12  1  0
 14 15  1  1
 14 16  1  0
 16 17  2  0
 16 18  1  0
M  END
$$$$
