AAV.pdb
     RDKit          3D

 18 17  0  0  1  0  0  0  0  0999 V2000
   19.4915  -10.4465  -19.3932 C   0  0  0  0  0  0  0  0  0  0  0  0
   20.2452  -11.2747  -18.3771 C   0  0  2  0  0  0  0  0  0  0  0  0
   19.4972  -12.4689  -18.1223 N   0  0  0  0  0  0  0  0  0  0  0  0
   20.5578  -10.5123  -17.1485 C   0  0  0  0  0  0  0  0  0  0  0  0
   19.6107   -9.9641  -16.5347 O   0  0  0  0  0  0  0  0  0  0  0  0
   23.5536   -9.9866  -14.8482 C   0  0  0  0  0  0  0  0  0  0  0  0
   22.2323   -9.6176  -15.4652 C   0  0  2  0  0  0  0  0  0  0  0  0
   21.8734  -10.3662  -16.6241 N   0  0  0  0  0  0  0  0  0  0  0  0
   22.2617   -8.1311  -15.7021 C   0  0  0  0  0  0  0  0  0  0  0  0
   22.7228   -7.7356  -16.7952 O   0  0  0  0  0  0  0  0  0  0  0  0
   19.4586   -5.6205  -14.3778 C   0  0  0  0  0  0  0  0  0  0  0  0
   20.5201   -5.2026  -15.3595 C   0  0  2  0  0  0  0  0  0  0  0  0
   20.1605   -5.6310  -16.7528 C   0  0  0  0  0  0  0  0  0  0  0  0
   21.8779   -5.7636  -14.9311 C   0  0  2  0  0  0  0  0  0  0  0  0
   21.8025   -7.2013  -14.7645 N   0  0  0  0  0  0  0  0  0  0  0  0
   22.1691   -5.1637  -13.5843 C   0  0  0  0  0  0  0  0  0  0  0  0
   21.9218   -5.8023  -12.5222 O   0  0  0  0  0  0  0  0  0  0  0  0
   22.7151   -3.8979  -13.4635 O   0  0  0  0  0  0  0  0  0  0  0  0
  2  1  1  6
  2  3  1  0
  4  2  1  0
  4  5  2  0
  7  6  1  6
  7  8  1  0
  8  4  1  0
  9  7  1  0
  9 15  1  0
 10  9  2  0
 12 11  1  1
 12 14  1  0
 13 12  1  0
 14 15  1  1
 14 16  1  0
 16 17  2  0
 16 18  1  0
M  END
$$$$
