QVW.pdb
     RDKit          3D

 31 32  0  0  1  0  0  0  0  0999 V2000
   12.3217  -18.1804   15.6855 N   0  0  0  0  0  0  0  0  0  0  0  0
   11.4362  -19.2912   15.8584 C   0  0  0  0  0  0  0  0  0  0  0  0
   11.5318  -20.2839   15.1082 O   0  0  0  0  0  0  0  0  0  0  0  0
   10.4201  -19.2615   16.9233 C   0  0  0  0  0  0  0  0  0  0  0  0
   10.3820  -18.0511   17.7701 C   0  0  0  0  0  0  0  0  0  0  0  0
   10.1179  -18.1683   19.2222 C   0  0  2  0  0  0  0  0  0  0  0  0
    8.7535  -18.7787   19.3323 N   0  0  0  0  0  0  0  0  0  0  0  0
   10.0872  -16.9536   20.0156 C   0  0  0  0  0  0  0  0  0  0  0  0
   11.1599  -16.3119   20.2300 O   0  0  0  0  0  0  0  0  0  0  0  0
    7.4641  -13.3759   22.1836 C   0  0  0  0  0  0  0  0  0  0  0  0
    7.5017  -14.7193   21.4655 C   0  0  1  0  0  0  0  0  0  0  0  0
    6.8925  -14.5123   20.1093 C   0  0  0  0  0  0  0  0  0  0  0  0
    8.9631  -15.1215   21.3197 C   0  0  2  0  0  0  0  0  0  0  0  0
    8.9109  -16.3942   20.5857 N   0  0  0  0  0  0  0  0  0  0  0  0
    9.6141  -15.3571   22.5977 C   0  0  0  0  0  0  0  0  0  0  0  0
   10.5618  -14.6340   22.9969 O   0  0  0  0  0  0  0  0  0  0  0  0
    9.2356  -16.4168   23.4950 N   0  0  0  0  0  0  0  0  0  0  0  0
    9.7684  -16.5468   24.8273 C   0  0  1  0  0  0  0  0  0  0  0  0
    9.5906  -15.3536   25.7062 C   0  0  0  0  0  0  0  0  0  0  0  0
    8.2278  -14.9882   26.0567 C   0  0  0  0  0  0  0  0  0  0  0  0
    7.1207  -15.8054   25.9899 C   0  0  0  0  0  0  0  0  0  0  0  0
    6.0457  -15.0952   26.3834 N   0  0  0  0  0  0  0  0  0  0  0  0
    6.4360  -13.8441   26.7010 C   0  0  0  0  0  0  0  0  0  0  0  0
    5.7716  -12.7323   27.1544 C   0  0  0  0  0  0  0  0  0  0  0  0
    6.3914  -11.5490   27.4188 C   0  0  0  0  0  0  0  0  0  0  0  0
    7.7374  -11.4453   27.2296 C   0  0  0  0  0  0  0  0  0  0  0  0
    8.4289  -12.5459   26.7749 C   0  0  0  0  0  0  0  0  0  0  0  0
    7.8117  -13.7572   26.5010 C   0  0  0  0  0  0  0  0  0  0  0  0
    9.3072  -17.7998   25.4586 C   0  0  0  0  0  0  0  0  0  0  0  0
    9.7637  -18.1332   26.7200 O   0  0  0  0  0  0  0  0  0  0  0  0
    8.5110  -18.5849   24.8965 O   0  0  0  0  0  0  0  0  0  0  0  0
  1  2  1  0
  2  4  1  0
  3  2  2  0
  4  5  1  0
  6  7  1  6
  6  5  1  0
  8  9  2  0
  8  6  1  0
 11 10  1  1
 11 13  1  0
 12 11  1  0
 13 14  1  6
 14  8  1  0
 15 13  1  0
 15 17  1  0
 16 15  2  0
 18 17  1  0
 18 29  1  0
 19 20  1  0
 18 19  1  1
 20 28  1  0
 21 22  1  0
 21 20  2  0
 22 23  1  0
 23 28  2  0
 23 24  1  0
 24 25  2  0
 25 26  1  0
 27 26  2  0
 28 27  1  0
 29 31  2  0
 29 30  1  0
M  END
$$$$
