QVW.pdb
     RDKit          3D

 31 32  0  0  1  0  0  0  0  0999 V2000
   15.9342  -17.5794   19.2828 N   0  0  0  0  0  0  0  0  0  0  0  0
   15.7080  -17.2957   17.8986 C   0  0  0  0  0  0  0  0  0  0  0  0
   16.5402  -17.6650   17.0451 O   0  0  0  0  0  0  0  0  0  0  0  0
   14.4925  -16.5747   17.4857 C   0  0  0  0  0  0  0  0  0  0  0  0
   13.5423  -16.2091   18.5567 C   0  0  0  0  0  0  0  0  0  0  0  0
   12.2772  -15.5161   18.2227 C   0  0  2  0  0  0  0  0  0  0  0  0
   12.6595  -14.4227   17.2716 N   0  0  0  0  0  0  0  0  0  0  0  0
   11.5363  -14.8822   19.2974 C   0  0  0  0  0  0  0  0  0  0  0  0
   12.1227  -14.0711   20.0763 O   0  0  0  0  0  0  0  0  0  0  0  0
    7.2902  -13.5443   21.3197 C   0  0  0  0  0  0  0  0  0  0  0  0
    8.1288  -14.0363   20.1465 C   0  0  1  0  0  0  0  0  0  0  0  0
    8.2784  -12.8838   19.1965 C   0  0  0  0  0  0  0  0  0  0  0  0
    9.4928  -14.4365   20.6926 C   0  0  2  0  0  0  0  0  0  0  0  0
   10.1538  -15.0922   19.5548 N   0  0  0  0  0  0  0  0  0  0  0  0
    9.4057  -15.3926   21.7838 C   0  0  0  0  0  0  0  0  0  0  0  0
    9.4244  -16.6323   21.5760 O   0  0  0  0  0  0  0  0  0  0  0  0
    9.2929  -15.0076   23.1660 N   0  0  0  0  0  0  0  0  0  0  0  0
    9.3207  -15.9551   24.2509 C   0  0  1  0  0  0  0  0  0  0  0  0
    9.1640  -15.3700   25.6151 C   0  0  0  0  0  0  0  0  0  0  0  0
    7.8564  -14.8353   25.9586 C   0  0  0  0  0  0  0  0  0  0  0  0
    6.6725  -15.5384   26.0010 C   0  0  0  0  0  0  0  0  0  0  0  0
    5.6866  -14.6874   26.3456 N   0  0  0  0  0  0  0  0  0  0  0  0
    6.2090  -13.4573   26.5256 C   0  0  0  0  0  0  0  0  0  0  0  0
    5.6732  -12.2445   26.8796 C   0  0  0  0  0  0  0  0  0  0  0  0
    6.4154  -11.1101   27.0081 C   0  0  0  0  0  0  0  0  0  0  0  0
    7.7579  -11.1628   26.7778 C   0  0  0  0  0  0  0  0  0  0  0  0
    8.3218  -12.3674   26.4209 C   0  0  0  0  0  0  0  0  0  0  0  0
    7.5791  -13.5307   26.2856 C   0  0  0  0  0  0  0  0  0  0  0  0
    8.3922  -17.0749   23.9955 C   0  0  0  0  0  0  0  0  0  0  0  0
    8.6372  -18.3062   24.5740 O   0  0  0  0  0  0  0  0  0  0  0  0
    7.3795  -16.9591   23.2694 O   0  0  0  0  0  0  0  0  0  0  0  0
  1  2  1  0
  2  4  1  0
  3  2  2  0
  4  5  1  0
  6  7  1  6
  6  5  1  0
  8  9  2  0
  8  6  1  0
 11 10  1  1
 11 13  1  0
 12 11  1  0
 13 14  1  6
 14  8  1  0
 15 13  1  0
 15 17  1  0
 16 15  2  0
 18 17  1  0
 18 29  1  0
 19 20  1  0
 18 19  1  1
 20 28  1  0
 21 22  1  0
 21 20  2  0
 22 23  1  0
 23 28  2  0
 23 24  1  0
 24 25  2  0
 25 26  1  0
 27 26  2  0
 28 27  1  0
 29 31  2  0
 29 30  1  0
M  END
$$$$
