QVW.pdb
     RDKit          3D

 31 32  0  0  1  0  0  0  0  0999 V2000
   17.6046  -14.4017   18.8911 N   0  0  0  0  0  0  0  0  0  0  0  0
   16.7799  -14.5395   17.7298 C   0  0  0  0  0  0  0  0  0  0  0  0
   17.0194  -13.8557   16.7136 O   0  0  0  0  0  0  0  0  0  0  0  0
   15.6563  -15.4908   17.7356 C   0  0  0  0  0  0  0  0  0  0  0  0
   14.5390  -15.1917   18.6552 C   0  0  0  0  0  0  0  0  0  0  0  0
   13.1430  -15.4579   18.2396 C   0  0  2  0  0  0  0  0  0  0  0  0
   13.0837  -15.0994   16.7856 N   0  0  0  0  0  0  0  0  0  0  0  0
   12.0790  -14.7137   18.8876 C   0  0  0  0  0  0  0  0  0  0  0  0
   12.3076  -13.5530   19.3445 O   0  0  0  0  0  0  0  0  0  0  0  0
    7.2977  -13.9631   19.5148 C   0  0  0  0  0  0  0  0  0  0  0  0
    8.5106  -14.4993   18.7643 C   0  0  1  0  0  0  0  0  0  0  0  0
    8.6831  -13.6492   17.5393 C   0  0  0  0  0  0  0  0  0  0  0  0
    9.7205  -14.3439   19.6759 C   0  0  2  0  0  0  0  0  0  0  0  0
   10.7487  -15.1883   19.0504 N   0  0  0  0  0  0  0  0  0  0  0  0
    9.4803  -14.8372   21.0218 C   0  0  0  0  0  0  0  0  0  0  0  0
    9.8252  -15.9949   21.3700 O   0  0  0  0  0  0  0  0  0  0  0  0
    8.8404  -14.0569   22.0480 N   0  0  0  0  0  0  0  0  0  0  0  0
    8.6837  -14.5184   23.4038 C   0  0  1  0  0  0  0  0  0  0  0  0
    8.5598  -13.4455   24.4341 C   0  0  0  0  0  0  0  0  0  0  0  0
    7.8904  -13.7962   25.6761 C   0  0  0  0  0  0  0  0  0  0  0  0
    7.7577  -15.0623   26.2026 C   0  0  0  0  0  0  0  0  0  0  0  0
    7.0637  -14.9718   27.3537 N   0  0  0  0  0  0  0  0  0  0  0  0
    6.7488  -13.6799   27.5782 C   0  0  0  0  0  0  0  0  0  0  0  0
    6.0703  -13.0318   28.5796 C   0  0  0  0  0  0  0  0  0  0  0  0
    5.8756  -11.6843   28.5977 C   0  0  0  0  0  0  0  0  0  0  0  0
    6.3720  -10.9258   27.5796 C   0  0  0  0  0  0  0  0  0  0  0  0
    7.0570  -11.5506   26.5615 C   0  0  0  0  0  0  0  0  0  0  0  0
    7.2628  -12.9216   26.5289 C   0  0  0  0  0  0  0  0  0  0  0  0
    7.6111  -15.5295   23.4948 C   0  0  0  0  0  0  0  0  0  0  0  0
    7.8706  -16.7424   24.1050 O   0  0  0  0  0  0  0  0  0  0  0  0
    6.4617  -15.3366   23.0387 O   0  0  0  0  0  0  0  0  0  0  0  0
  1  2  1  0
  2  4  1  0
  3  2  2  0
  4  5  1  0
  6  7  1  6
  6  5  1  0
  8  9  2  0
  8  6  1  0
 11 10  1  1
 11 13  1  0
 12 11  1  0
 13 14  1  6
 14  8  1  0
 15 13  1  0
 15 17  1  0
 16 15  2  0
 18 17  1  0
 18 29  1  0
 19 20  1  0
 18 19  1  1
 20 28  1  0
 21 22  1  0
 21 20  2  0
 22 23  1  0
 23 28  2  0
 23 24  1  0
 24 25  2  0
 25 26  1  0
 27 26  2  0
 28 27  1  0
 29 31  2  0
 29 30  1  0
M  END
$$$$
