QVW.pdb
     RDKit          3D

 31 32  0  0  1  0  0  0  0  0999 V2000
   11.6001  -20.4410   21.1268 N   0  0  0  0  0  0  0  0  0  0  0  0
   10.5955  -21.0850   20.3369 C   0  0  0  0  0  0  0  0  0  0  0  0
   10.4165  -22.3155   20.4431 O   0  0  0  0  0  0  0  0  0  0  0  0
    9.7735  -20.2936   19.4066 C   0  0  0  0  0  0  0  0  0  0  0  0
    8.6069  -19.5935   19.9833 C   0  0  0  0  0  0  0  0  0  0  0  0
    8.2037  -18.2677   19.4620 C   0  0  2  0  0  0  0  0  0  0  0  0
    8.4247  -18.3366   17.9812 N   0  0  0  0  0  0  0  0  0  0  0  0
    8.9239  -17.0975   19.9285 C   0  0  0  0  0  0  0  0  0  0  0  0
   10.1428  -16.9397   19.6160 O   0  0  0  0  0  0  0  0  0  0  0  0
    7.6070  -13.7044   19.6102 C   0  0  0  0  0  0  0  0  0  0  0  0
    8.1581  -13.7367   21.0304 C   0  0  1  0  0  0  0  0  0  0  0  0
    6.9983  -13.9926   21.9484 C   0  0  0  0  0  0  0  0  0  0  0  0
    9.1475  -14.8913   21.1132 C   0  0  2  0  0  0  0  0  0  0  0  0
    8.3551  -16.0679   20.7273 N   0  0  0  0  0  0  0  0  0  0  0  0
    9.6562  -15.1036   22.4581 C   0  0  0  0  0  0  0  0  0  0  0  0
   10.4652  -14.3018   22.9901 O   0  0  0  0  0  0  0  0  0  0  0  0
    9.2836  -16.2271   23.2768 N   0  0  0  0  0  0  0  0  0  0  0  0
    9.7570  -16.4086   24.6253 C   0  0  1  0  0  0  0  0  0  0  0  0
    9.5008  -15.2667   25.5519 C   0  0  0  0  0  0  0  0  0  0  0  0
    8.1121  -14.9102   25.7931 C   0  0  0  0  0  0  0  0  0  0  0  0
    7.0145  -15.7166   25.5862 C   0  0  0  0  0  0  0  0  0  0  0  0
    5.9091  -15.0195   25.9131 N   0  0  0  0  0  0  0  0  0  0  0  0
    6.2706  -13.7872   26.3245 C   0  0  0  0  0  0  0  0  0  0  0  0
    5.5692  -12.6941   26.7678 C   0  0  0  0  0  0  0  0  0  0  0  0
    6.1641  -11.5285   27.1441 C   0  0  0  0  0  0  0  0  0  0  0  0
    7.5220  -11.4240   27.0842 C   0  0  0  0  0  0  0  0  0  0  0  0
    8.2505  -12.5060   26.6427 C   0  0  0  0  0  0  0  0  0  0  0  0
    7.6590  -13.6991   26.2558 C   0  0  0  0  0  0  0  0  0  0  0  0
    9.3059  -17.7045   25.1715 C   0  0  0  0  0  0  0  0  0  0  0  0
    9.7608  -18.1150   26.4106 O   0  0  0  0  0  0  0  0  0  0  0  0
    8.5198  -18.4590   24.5559 O   0  0  0  0  0  0  0  0  0  0  0  0
  1  2  1  0
  2  4  1  0
  3  2  2  0
  4  5  1  0
  6  7  1  6
  6  5  1  0
  8  9  2  0
  8  6  1  0
 11 10  1  6
 11 13  1  0
 12 11  1  0
 13 14  1  1
 14  8  1  0
 15 13  1  0
 15 17  1  0
 16 15  2  0
 18 17  1  0
 18 29  1  0
 19 20  1  0
 18 19  1  1
 20 28  1  0
 21 22  1  0
 21 20  2  0
 22 23  1  0
 23 28  2  0
 23 24  1  0
 24 25  2  0
 25 26  1  0
 27 26  2  0
 28 27  1  0
 29 31  2  0
 29 30  1  0
M  END
$$$$
