QVW.pdb
     RDKit          3D

 31 32  0  0  1  0  0  0  0  0999 V2000
   14.6369  -13.6180   19.1015 N   0  0  0  0  0  0  0  0  0  0  0  0
   14.1407  -14.9485   19.2789 C   0  0  0  0  0  0  0  0  0  0  0  0
   14.6874  -15.7104   20.1023 O   0  0  0  0  0  0  0  0  0  0  0  0
   12.9843  -15.4117   18.4942 C   0  0  0  0  0  0  0  0  0  0  0  0
   11.6751  -14.8116   18.8248 C   0  0  0  0  0  0  0  0  0  0  0  0
   10.4240  -15.5381   18.5100 C   0  0  2  0  0  0  0  0  0  0  0  0
    9.6603  -14.6374   17.5870 N   0  0  0  0  0  0  0  0  0  0  0  0
    9.5242  -15.8624   19.6013 C   0  0  0  0  0  0  0  0  0  0  0  0
    8.2718  -15.7364   19.4461 O   0  0  0  0  0  0  0  0  0  0  0  0
    8.1641  -17.7265   19.7855 C   0  0  0  0  0  0  0  0  0  0  0  0
    8.2755  -17.9560   21.2878 C   0  0  1  0  0  0  0  0  0  0  0  0
    9.1379  -19.1684   21.4866 C   0  0  0  0  0  0  0  0  0  0  0  0
    8.9552  -16.7337   21.8900 C   0  0  2  0  0  0  0  0  0  0  0  0
    9.9419  -16.3380   20.8744 N   0  0  0  0  0  0  0  0  0  0  0  0
    9.6633  -17.0319   23.1238 C   0  0  0  0  0  0  0  0  0  0  0  0
   10.8187  -17.5275   23.1164 O   0  0  0  0  0  0  0  0  0  0  0  0
    9.1120  -16.7897   24.4309 N   0  0  0  0  0  0  0  0  0  0  0  0
    9.9250  -16.5255   25.5906 C   0  0  1  0  0  0  0  0  0  0  0  0
    9.5019  -15.3553   26.4150 C   0  0  0  0  0  0  0  0  0  0  0  0
    8.1313  -14.8969   26.2573 C   0  0  0  0  0  0  0  0  0  0  0  0
    7.0204  -15.6914   26.0771 C   0  0  0  0  0  0  0  0  0  0  0  0
    5.9427  -14.8920   25.9576 N   0  0  0  0  0  0  0  0  0  0  0  0
    6.3348  -13.6056   26.0571 C   0  0  0  0  0  0  0  0  0  0  0  0
    5.6678  -12.4071   26.0127 C   0  0  0  0  0  0  0  0  0  0  0  0
    6.2887  -11.2026   26.1456 C   0  0  0  0  0  0  0  0  0  0  0  0
    7.6385  -11.1659   26.3327 C   0  0  0  0  0  0  0  0  0  0  0  0
    8.3328  -12.3542   26.3809 C   0  0  0  0  0  0  0  0  0  0  0  0
    7.7146  -13.5883   26.2468 C   0  0  0  0  0  0  0  0  0  0  0  0
   10.1164  -17.7526   26.3897 C   0  0  0  0  0  0  0  0  0  0  0  0
   11.0963  -17.7829   27.3642 O   0  0  0  0  0  0  0  0  0  0  0  0
    9.4227  -18.7809   26.2233 O   0  0  0  0  0  0  0  0  0  0  0  0
  1  2  1  0
  2  4  1  0
  3  2  2  0
  4  5  1  0
  6  7  1  6
  6  5  1  0
  8  9  2  0
  8  6  1  0
 11 10  1  6
 11 13  1  0
 12 11  1  0
 13 14  1  6
 14  8  1  0
 15 13  1  0
 15 17  1  0
 16 15  2  0
 18 17  1  0
 18 29  1  0
 19 20  1  0
 18 19  1  1
 20 28  1  0
 21 22  1  0
 21 20  2  0
 22 23  1  0
 23 28  2  0
 23 24  1  0
 24 25  2  0
 25 26  1  0
 27 26  2  0
 28 27  1  0
 29 31  2  0
 29 30  1  0
M  END
$$$$
