QVW.pdb
     RDKit          3D

 31 32  0  0  1  0  0  0  0  0999 V2000
    9.7541  -15.4010   15.4852 N   0  0  0  0  0  0  0  0  0  0  0  0
    8.4912  -14.9945   16.0216 C   0  0  0  0  0  0  0  0  0  0  0  0
    8.2729  -13.7869   16.2489 O   0  0  0  0  0  0  0  0  0  0  0  0
    7.4526  -16.0006   16.2982 C   0  0  0  0  0  0  0  0  0  0  0  0
    7.2256  -16.3470   17.7166 C   0  0  0  0  0  0  0  0  0  0  0  0
    8.3766  -16.5356   18.6287 C   0  0  2  0  0  0  0  0  0  0  0  0
    9.1317  -17.7091   18.0818 N   0  0  0  0  0  0  0  0  0  0  0  0
    8.1072  -16.8369   20.0224 C   0  0  0  0  0  0  0  0  0  0  0  0
    7.3562  -16.0720   20.7003 O   0  0  0  0  0  0  0  0  0  0  0  0
    9.3906  -20.3703   21.6374 C   0  0  0  0  0  0  0  0  0  0  0  0
    8.0486  -19.8012   22.0814 C   0  0  1  0  0  0  0  0  0  0  0  0
    7.8026  -20.2896   23.4794 C   0  0  0  0  0  0  0  0  0  0  0  0
    8.1695  -18.2833   22.0779 C   0  0  2  0  0  0  0  0  0  0  0  0
    8.6239  -17.9651   20.7164 N   0  0  0  0  0  0  0  0  0  0  0  0
    9.1641  -17.7939   23.0180 C   0  0  0  0  0  0  0  0  0  0  0  0
   10.3950  -17.9463   22.8129 O   0  0  0  0  0  0  0  0  0  0  0  0
    8.8295  -17.1075   24.2380 N   0  0  0  0  0  0  0  0  0  0  0  0
    9.8208  -16.6097   25.1573 C   0  0  1  0  0  0  0  0  0  0  0  0
    9.5866  -15.2245   25.6616 C   0  0  0  0  0  0  0  0  0  0  0  0
    8.2066  -14.7735   25.7380 C   0  0  0  0  0  0  0  0  0  0  0  0
    7.0892  -15.5751   25.8195 C   0  0  0  0  0  0  0  0  0  0  0  0
    6.0008  -14.7821   25.8572 N   0  0  0  0  0  0  0  0  0  0  0  0
    6.3926  -13.4930   25.8024 C   0  0  0  0  0  0  0  0  0  0  0  0
    5.7180  -12.2979   25.8120 C   0  0  0  0  0  0  0  0  0  0  0  0
    6.3414  -11.0889   25.7518 C   0  0  0  0  0  0  0  0  0  0  0  0
    7.7019  -11.0439   25.6780 C   0  0  0  0  0  0  0  0  0  0  0  0
    8.4039  -12.2286   25.6665 C   0  0  0  0  0  0  0  0  0  0  0  0
    7.7832  -13.4671   25.7268 C   0  0  0  0  0  0  0  0  0  0  0  0
   10.0688  -17.5819   26.2410 C   0  0  0  0  0  0  0  0  0  0  0  0
   11.2371  -17.4977   26.9750 O   0  0  0  0  0  0  0  0  0  0  0  0
    9.2590  -18.4913   26.5298 O   0  0  0  0  0  0  0  0  0  0  0  0
  1  2  1  0
  2  4  1  0
  3  2  2  0
  4  5  1  0
  6  7  1  6
  6  5  1  0
  8  9  2  0
  8  6  1  0
 11 10  1  1
 11 13  1  0
 12 11  1  0
 13 14  1  6
 14  8  1  0
 15 13  1  0
 15 17  1  0
 16 15  2  0
 18 17  1  0
 18 29  1  0
 19 20  1  0
 18 19  1  1
 20 28  1  0
 21 22  1  0
 21 20  2  0
 22 23  1  0
 23 28  2  0
 23 24  1  0
 24 25  2  0
 25 26  1  0
 27 26  2  0
 28 27  1  0
 29 31  2  0
 29 30  1  0
M  END
$$$$
