QVW.pdb
     RDKit          3D

 31 32  0  0  1  0  0  0  0  0999 V2000
   14.0879  -18.5414   19.7460 N   0  0  0  0  0  0  0  0  0  0  0  0
   14.8623  -17.3552   19.9484 C   0  0  0  0  0  0  0  0  0  0  0  0
   15.9243  -17.4110   20.6016 O   0  0  0  0  0  0  0  0  0  0  0  0
   14.4070  -16.0751   19.3813 C   0  0  0  0  0  0  0  0  0  0  0  0
   13.1906  -16.1163   18.5433 C   0  0  0  0  0  0  0  0  0  0  0  0
   12.3911  -14.8879   18.3333 C   0  0  2  0  0  0  0  0  0  0  0  0
   13.3868  -13.8111   18.0242 N   0  0  0  0  0  0  0  0  0  0  0  0
   11.5854  -14.3953   19.4351 C   0  0  0  0  0  0  0  0  0  0  0  0
   12.1110  -13.6546   20.3203 O   0  0  0  0  0  0  0  0  0  0  0  0
    7.1794  -13.8461   21.5770 C   0  0  0  0  0  0  0  0  0  0  0  0
    8.0374  -14.0883   20.3412 C   0  0  1  0  0  0  0  0  0  0  0  0
    7.8809  -12.8885   19.4529 C   0  0  0  0  0  0  0  0  0  0  0  0
    9.4840  -14.2052   20.8021 C   0  0  2  0  0  0  0  0  0  0  0  0
   10.2018  -14.6735   19.6076 N   0  0  0  0  0  0  0  0  0  0  0  0
    9.6627  -15.1882   21.8577 C   0  0  0  0  0  0  0  0  0  0  0  0
   10.0487  -16.3585   21.6090 O   0  0  0  0  0  0  0  0  0  0  0  0
    9.4174  -14.9095   23.2482 N   0  0  0  0  0  0  0  0  0  0  0  0
    9.6451  -15.8726   24.2952 C   0  0  1  0  0  0  0  0  0  0  0  0
    9.3767  -15.3864   25.6806 C   0  0  0  0  0  0  0  0  0  0  0  0
    8.0493  -14.8582   25.9501 C   0  0  0  0  0  0  0  0  0  0  0  0
    6.8619  -15.5514   25.8639 C   0  0  0  0  0  0  0  0  0  0  0  0
    5.8569  -14.7105   26.1761 N   0  0  0  0  0  0  0  0  0  0  0  0
    6.3702  -13.4964   26.4605 C   0  0  0  0  0  0  0  0  0  0  0  0
    5.8150  -12.2988   26.8357 C   0  0  0  0  0  0  0  0  0  0  0  0
    6.5510  -11.1796   27.0808 C   0  0  0  0  0  0  0  0  0  0  0  0
    7.9071  -11.2328   26.9522 C   0  0  0  0  0  0  0  0  0  0  0  0
    8.4905  -12.4223   26.5766 C   0  0  0  0  0  0  0  0  0  0  0  0
    7.7544  -13.5699   26.3233 C   0  0  0  0  0  0  0  0  0  0  0  0
    8.9668  -17.1492   23.9924 C   0  0  0  0  0  0  0  0  0  0  0  0
    9.4787  -18.3280   24.5016 O   0  0  0  0  0  0  0  0  0  0  0  0
    7.9356  -17.2142   23.2863 O   0  0  0  0  0  0  0  0  0  0  0  0
  1  2  1  0
  2  4  1  0
  3  2  2  0
  4  5  1  0
  6  7  1  1
  6  5  1  0
  8  9  2  0
  8  6  1  0
 11 10  1  1
 11 13  1  0
 12 11  1  0
 13 14  1  6
 14  8  1  0
 15 13  1  0
 15 17  1  0
 16 15  2  0
 18 17  1  0
 18 29  1  0
 19 20  1  0
 18 19  1  1
 20 28  1  0
 21 22  1  0
 21 20  2  0
 22 23  1  0
 23 28  2  0
 23 24  1  0
 24 25  2  0
 25 26  1  0
 27 26  2  0
 28 27  1  0
 29 31  2  0
 29 30  1  0
M  END
$$$$
