QVW.pdb
     RDKit          3D

 31 32  0  0  1  0  0  0  0  0999 V2000
    7.9764  -12.3124   19.6513 N   0  0  0  0  0  0  0  0  0  0  0  0
    7.7520  -13.1060   18.4818 C   0  0  0  0  0  0  0  0  0  0  0  0
    7.0198  -12.6729   17.5687 O   0  0  0  0  0  0  0  0  0  0  0  0
    8.3896  -14.4272   18.3573 C   0  0  0  0  0  0  0  0  0  0  0  0
    9.2424  -14.8608   19.4835 C   0  0  0  0  0  0  0  0  0  0  0  0
    9.8336  -16.2182   19.4881 C   0  0  2  0  0  0  0  0  0  0  0  0
    9.2538  -16.9106   18.2919 N   0  0  0  0  0  0  0  0  0  0  0  0
    9.5697  -17.0791   20.6261 C   0  0  0  0  0  0  0  0  0  0  0  0
    8.4855  -17.7344   20.6845 O   0  0  0  0  0  0  0  0  0  0  0  0
   10.7552  -19.9963   21.4420 C   0  0  0  0  0  0  0  0  0  0  0  0
   11.0228  -19.3011   22.7713 C   0  0  1  0  0  0  0  0  0  0  0  0
   12.4469  -18.8276   22.7432 C   0  0  0  0  0  0  0  0  0  0  0  0
   10.0826  -18.1068   22.8626 C   0  0  2  0  0  0  0  0  0  0  0  0
   10.4617  -17.2665   21.7174 N   0  0  0  0  0  0  0  0  0  0  0  0
   10.2689  -17.3332   24.0789 C   0  0  0  0  0  0  0  0  0  0  0  0
   11.1360  -16.4263   24.1560 O   0  0  0  0  0  0  0  0  0  0  0  0
    9.4916  -17.5369   25.2730 N   0  0  0  0  0  0  0  0  0  0  0  0
    9.7309  -16.8188   26.4988 C   0  0  1  0  0  0  0  0  0  0  0  0
    8.5301  -16.1729   27.1063 C   0  0  0  0  0  0  0  0  0  0  0  0
    7.6714  -15.4067   26.2179 C   0  0  0  0  0  0  0  0  0  0  0  0
    6.8086  -15.9192   25.2741 C   0  0  0  0  0  0  0  0  0  0  0  0
    6.2057  -14.8899   24.6481 N   0  0  0  0  0  0  0  0  0  0  0  0
    6.6600  -13.7312   25.1671 C   0  0  0  0  0  0  0  0  0  0  0  0
    6.3886  -12.4101   24.9133 C   0  0  0  0  0  0  0  0  0  0  0  0
    6.9808  -11.3845   25.5853 C   0  0  0  0  0  0  0  0  0  0  0  0
    7.8901  -11.6648   26.5615 C   0  0  0  0  0  0  0  0  0  0  0  0
    8.1812  -12.9823   26.8367 C   0  0  0  0  0  0  0  0  0  0  0  0
    7.5869  -14.0372   26.1607 C   0  0  0  0  0  0  0  0  0  0  0  0
   10.4829  -17.6520   27.4587 C   0  0  0  0  0  0  0  0  0  0  0  0
   10.9725  -17.0794   28.6177 O   0  0  0  0  0  0  0  0  0  0  0  0
   10.7006  -18.8697   27.2688 O   0  0  0  0  0  0  0  0  0  0  0  0
  1  2  1  0
  2  4  1  0
  3  2  2  0
  4  5  1  0
  6  7  1  6
  6  5  1  0
  8  9  2  0
  8  6  1  0
 11 10  1  6
 11 13  1  0
 12 11  1  0
 13 14  1  6
 14  8  1  0
 15 13  1  0
 15 17  1  0
 16 15  2  0
 18 17  1  0
 18 29  1  0
 19 20  1  0
 18 19  1  1
 20 28  1  0
 21 22  1  0
 21 20  2  0
 22 23  1  0
 23 28  2  0
 23 24  1  0
 24 25  2  0
 25 26  1  0
 27 26  2  0
 28 27  1  0
 29 31  2  0
 29 30  1  0
M  END
$$$$
