QVW.pdb
     RDKit          3D

 31 32  0  0  1  0  0  0  0  0999 V2000
    6.9385  -19.4807   15.7226 N   0  0  0  0  0  0  0  0  0  0  0  0
    7.8169  -20.3494   16.4448 C   0  0  0  0  0  0  0  0  0  0  0  0
    7.4831  -21.5330   16.6573 O   0  0  0  0  0  0  0  0  0  0  0  0
    9.1127  -19.8459   16.9296 C   0  0  0  0  0  0  0  0  0  0  0  0
    9.1102  -18.5116   17.5646 C   0  0  0  0  0  0  0  0  0  0  0  0
    9.1036  -18.3911   19.0402 C   0  0  2  0  0  0  0  0  0  0  0  0
    7.7258  -18.7971   19.4681 N   0  0  0  0  0  0  0  0  0  0  0  0
    9.3444  -17.0847   19.6244 C   0  0  0  0  0  0  0  0  0  0  0  0
   10.4300  -16.4751   19.3828 O   0  0  0  0  0  0  0  0  0  0  0  0
    7.6163  -13.0000   21.7115 C   0  0  0  0  0  0  0  0  0  0  0  0
    7.3839  -14.3917   21.1363 C   0  0  1  0  0  0  0  0  0  0  0  0
    6.7574  -14.2117   19.7842 C   0  0  0  0  0  0  0  0  0  0  0  0
    8.7435  -15.0618   20.9910 C   0  0  2  0  0  0  0  0  0  0  0  0
    8.4278  -16.3988   20.4675 N   0  0  0  0  0  0  0  0  0  0  0  0
    9.4341  -15.2189   22.2602 C   0  0  0  0  0  0  0  0  0  0  0  0
   10.3269  -14.4139   22.6279 O   0  0  0  0  0  0  0  0  0  0  0  0
    9.1590  -16.2881   23.1836 N   0  0  0  0  0  0  0  0  0  0  0  0
    9.7828  -16.3887   24.4783 C   0  0  1  0  0  0  0  0  0  0  0  0
    9.6358  -15.1888   25.3539 C   0  0  0  0  0  0  0  0  0  0  0  0
    8.2845  -14.8068   25.7301 C   0  0  0  0  0  0  0  0  0  0  0  0
    7.1594  -15.5975   25.6462 C   0  0  0  0  0  0  0  0  0  0  0  0
    6.1037  -14.8787   26.0745 N   0  0  0  0  0  0  0  0  0  0  0  0
    6.5238  -13.6480   26.4312 C   0  0  0  0  0  0  0  0  0  0  0  0
    5.8877  -12.5386   26.9292 C   0  0  0  0  0  0  0  0  0  0  0  0
    6.5353  -11.3787   27.2281 C   0  0  0  0  0  0  0  0  0  0  0  0
    7.8815  -11.2971   27.0293 C   0  0  0  0  0  0  0  0  0  0  0  0
    8.5449  -12.3958   26.5301 C   0  0  0  0  0  0  0  0  0  0  0  0
    7.8992  -13.5834   26.2208 C   0  0  0  0  0  0  0  0  0  0  0  0
    9.3950  -17.6438   25.1532 C   0  0  0  0  0  0  0  0  0  0  0  0
    9.9262  -17.9401   26.3945 O   0  0  0  0  0  0  0  0  0  0  0  0
    8.5964  -18.4633   24.6463 O   0  0  0  0  0  0  0  0  0  0  0  0
  1  2  1  0
  2  4  1  0
  3  2  2  0
  4  5  1  0
  6  7  1  6
  6  5  1  0
  8  9  2  0
  8  6  1  0
 11 10  1  6
 11 13  1  0
 12 11  1  0
 13 14  1  1
 14  8  1  0
 15 13  1  0
 15 17  1  0
 16 15  2  0
 18 17  1  0
 18 29  1  0
 19 20  1  0
 18 19  1  1
 20 28  1  0
 21 22  1  0
 21 20  2  0
 22 23  1  0
 23 28  2  0
 23 24  1  0
 24 25  2  0
 25 26  1  0
 27 26  2  0
 28 27  1  0
 29 31  2  0
 29 30  1  0
M  END
$$$$
