QVW.pdb
     RDKit          3D

 31 32  0  0  1  0  0  0  0  0999 V2000
    6.6850  -21.0474   20.4742 N   0  0  0  0  0  0  0  0  0  0  0  0
    7.6197  -20.5109   21.4156 C   0  0  0  0  0  0  0  0  0  0  0  0
    7.5552  -20.8481   22.6155 O   0  0  0  0  0  0  0  0  0  0  0  0
    8.6569  -19.5681   20.9650 C   0  0  0  0  0  0  0  0  0  0  0  0
    8.6484  -19.2080   19.5320 C   0  0  0  0  0  0  0  0  0  0  0  0
    8.2566  -17.8437   19.1110 C   0  0  2  0  0  0  0  0  0  0  0  0
    8.4989  -17.7965   17.6327 N   0  0  0  0  0  0  0  0  0  0  0  0
    8.9733  -16.7167   19.6786 C   0  0  0  0  0  0  0  0  0  0  0  0
   10.1959  -16.5372   19.3934 O   0  0  0  0  0  0  0  0  0  0  0  0
    7.8036  -13.3085   19.4197 C   0  0  0  0  0  0  0  0  0  0  0  0
    8.2000  -13.4267   20.8862 C   0  0  1  0  0  0  0  0  0  0  0  0
    6.9487  -13.7270   21.6591 C   0  0  0  0  0  0  0  0  0  0  0  0
    9.1738  -14.5912   21.0064 C   0  0  2  0  0  0  0  0  0  0  0  0
    8.3971  -15.7537   20.5516 N   0  0  0  0  0  0  0  0  0  0  0  0
    9.5992  -14.8326   22.3751 C   0  0  0  0  0  0  0  0  0  0  0  0
   10.2898  -13.9938   23.0075 O   0  0  0  0  0  0  0  0  0  0  0  0
    9.2719  -16.0283   23.1062 N   0  0  0  0  0  0  0  0  0  0  0  0
    9.6646  -16.2450   24.4753 C   0  0  1  0  0  0  0  0  0  0  0  0
    8.5466  -16.5212   25.4250 C   0  0  0  0  0  0  0  0  0  0  0  0
    7.4866  -15.5294   25.5043 C   0  0  0  0  0  0  0  0  0  0  0  0
    6.1671  -15.7152   25.1546 C   0  0  0  0  0  0  0  0  0  0  0  0
    5.5080  -14.5581   25.3583 N   0  0  0  0  0  0  0  0  0  0  0  0
    6.3715  -13.6360   25.8300 C   0  0  0  0  0  0  0  0  0  0  0  0
    6.2414  -12.3221   26.2041 C   0  0  0  0  0  0  0  0  0  0  0  0
    7.2792  -11.5723   26.6677 C   0  0  0  0  0  0  0  0  0  0  0  0
    8.5151  -12.1379   26.7723 C   0  0  0  0  0  0  0  0  0  0  0  0
    8.6739  -13.4551   26.4034 C   0  0  0  0  0  0  0  0  0  0  0  0
    7.6270  -14.2310   25.9292 C   0  0  0  0  0  0  0  0  0  0  0  0
   10.7504  -17.2426   24.5598 C   0  0  0  0  0  0  0  0  0  0  0  0
   11.3421  -17.5009   25.7820 O   0  0  0  0  0  0  0  0  0  0  0  0
   11.1656  -17.8737   23.5621 O   0  0  0  0  0  0  0  0  0  0  0  0
  1  2  1  0
  2  4  1  0
  3  2  2  0
  4  5  1  0
  6  7  1  6
  6  5  1  0
  8  9  2  0
  8  6  1  0
 11 10  1  6
 11 13  1  0
 12 11  1  0
 13 14  1  1
 14  8  1  0
 15 13  1  0
 15 17  1  0
 16 15  2  0
 18 17  1  0
 18 29  1  0
 19 20  1  0
 18 19  1  1
 20 28  1  0
 21 22  1  0
 21 20  2  0
 22 23  1  0
 23 28  2  0
 23 24  1  0
 24 25  2  0
 25 26  1  0
 27 26  2  0
 28 27  1  0
 29 31  2  0
 29 30  1  0
M  END
$$$$
