QVW.pdb
     RDKit          3D

 31 32  0  0  1  0  0  0  0  0999 V2000
   11.3446  -19.1165   16.2199 N   0  0  0  0  0  0  0  0  0  0  0  0
   10.3482  -20.0734   16.5932 C   0  0  0  0  0  0  0  0  0  0  0  0
   10.2924  -21.1730   16.0056 O   0  0  0  0  0  0  0  0  0  0  0  0
    9.3966  -19.7599   17.6720 C   0  0  0  0  0  0  0  0  0  0  0  0
    9.4573  -18.3947   18.2340 C   0  0  0  0  0  0  0  0  0  0  0  0
    9.4319  -18.1931   19.7006 C   0  0  2  0  0  0  0  0  0  0  0  0
    8.0586  -18.6056   20.1369 N   0  0  0  0  0  0  0  0  0  0  0  0
    9.6377  -16.8514   20.2137 C   0  0  0  0  0  0  0  0  0  0  0  0
   10.7554  -16.2757   20.0466 O   0  0  0  0  0  0  0  0  0  0  0  0
    6.9426  -14.6014   19.9810 C   0  0  0  0  0  0  0  0  0  0  0  0
    7.6510  -13.9753   21.1759 C   0  0  1  0  0  0  0  0  0  0  0  0
    6.7521  -14.1527   22.3649 C   0  0  0  0  0  0  0  0  0  0  0  0
    8.9505  -14.7393   21.3917 C   0  0  2  0  0  0  0  0  0  0  0  0
    8.6525  -16.0940   20.9045 N   0  0  0  0  0  0  0  0  0  0  0  0
    9.3264  -14.8296   22.7928 C   0  0  0  0  0  0  0  0  0  0  0  0
    9.7122  -13.8214   23.4372 O   0  0  0  0  0  0  0  0  0  0  0  0
    9.2891  -16.0563   23.5446 N   0  0  0  0  0  0  0  0  0  0  0  0
    9.8017  -16.1722   24.8860 C   0  0  1  0  0  0  0  0  0  0  0  0
    8.7751  -16.4006   25.9452 C   0  0  0  0  0  0  0  0  0  0  0  0
    7.7234  -15.4048   26.0718 C   0  0  0  0  0  0  0  0  0  0  0  0
    6.3920  -15.5801   25.7645 C   0  0  0  0  0  0  0  0  0  0  0  0
    5.7460  -14.4225   26.0040 N   0  0  0  0  0  0  0  0  0  0  0  0
    6.6296  -13.5102   26.4573 C   0  0  0  0  0  0  0  0  0  0  0  0
    6.5189  -12.2003   26.8512 C   0  0  0  0  0  0  0  0  0  0  0  0
    7.5755  -11.4611   27.2886 C   0  0  0  0  0  0  0  0  0  0  0  0
    8.8113  -12.0337   27.3448 C   0  0  0  0  0  0  0  0  0  0  0  0
    8.9508  -13.3471   26.9552 C   0  0  0  0  0  0  0  0  0  0  0  0
    7.8846  -14.1123   26.5072 C   0  0  0  0  0  0  0  0  0  0  0  0
   10.9123  -17.1440   24.9428 C   0  0  0  0  0  0  0  0  0  0  0  0
   11.3112  -17.7885   23.7868 O   0  0  0  0  0  0  0  0  0  0  0  0
   11.5178  -17.4151   26.0041 O   0  0  0  0  0  0  0  0  0  0  0  0
  1  2  1  0
  2  4  1  0
  3  2  2  0
  4  5  1  0
  6  7  1  6
  6  5  1  0
  8  9  2  0
  8  6  1  0
 11 10  1  6
 11 13  1  0
 12 11  1  0
 13 14  1  1
 14  8  1  0
 15 13  1  0
 15 17  1  0
 16 15  2  0
 18 17  1  0
 18 29  1  0
 19 20  1  0
 18 19  1  1
 20 28  1  0
 21 22  1  0
 21 20  2  0
 22 23  1  0
 23 28  2  0
 23 24  1  0
 24 25  2  0
 25 26  1  0
 27 26  2  0
 28 27  1  0
 29 31  2  0
 29 30  1  0
M  END
$$$$
