QVW.pdb
     RDKit          3D

 31 32  0  0  1  0  0  0  0  0999 V2000
   16.0858  -14.7148   18.8470 N   0  0  0  0  0  0  0  0  0  0  0  0
   15.7247  -15.1661   17.5378 C   0  0  0  0  0  0  0  0  0  0  0  0
   16.5937  -15.2407   16.6452 O   0  0  0  0  0  0  0  0  0  0  0  0
   14.3317  -15.5458   17.2502 C   0  0  0  0  0  0  0  0  0  0  0  0
   13.3953  -15.5482   18.3933 C   0  0  0  0  0  0  0  0  0  0  0  0
   11.9555  -15.2812   18.1749 C   0  0  2  0  0  0  0  0  0  0  0  0
   11.8953  -14.3481   17.0035 N   0  0  0  0  0  0  0  0  0  0  0  0
   11.2044  -14.6463   19.2419 C   0  0  0  0  0  0  0  0  0  0  0  0
   11.5976  -13.5389   19.7189 O   0  0  0  0  0  0  0  0  0  0  0  0
    8.0978  -13.2485   19.3108 C   0  0  0  0  0  0  0  0  0  0  0  0
    7.9745  -14.2026   20.4924 C   0  0  1  0  0  0  0  0  0  0  0  0
    7.3106  -15.4498   19.9856 C   0  0  0  0  0  0  0  0  0  0  0  0
    9.3836  -14.5252   20.9714 C   0  0  2  0  0  0  0  0  0  0  0  0
   10.0140  -15.1743   19.8126 N   0  0  0  0  0  0  0  0  0  0  0  0
    9.4015  -15.4594   22.0847 C   0  0  0  0  0  0  0  0  0  0  0  0
    9.8820  -16.6151   21.9666 O   0  0  0  0  0  0  0  0  0  0  0  0
    8.8809  -15.1458   23.3893 N   0  0  0  0  0  0  0  0  0  0  0  0
    9.1932  -15.9156   24.5663 C   0  0  1  0  0  0  0  0  0  0  0  0
    9.1559  -15.1601   25.8530 C   0  0  0  0  0  0  0  0  0  0  0  0
    7.8915  -14.5442   26.2212 C   0  0  0  0  0  0  0  0  0  0  0  0
    6.6660  -15.1705   26.2838 C   0  0  0  0  0  0  0  0  0  0  0  0
    5.7428  -14.2595   26.6479 N   0  0  0  0  0  0  0  0  0  0  0  0
    6.3457  -13.0657   26.8206 C   0  0  0  0  0  0  0  0  0  0  0  0
    5.8948  -11.8223   27.1866 C   0  0  0  0  0  0  0  0  0  0  0  0
    6.7099  -10.7379   27.3037 C   0  0  0  0  0  0  0  0  0  0  0  0
    8.0421  -10.8753   27.0489 C   0  0  0  0  0  0  0  0  0  0  0  0
    8.5214  -12.1123   26.6796 C   0  0  0  0  0  0  0  0  0  0  0  0
    7.7038  -13.2255   26.5557 C   0  0  0  0  0  0  0  0  0  0  0  0
    8.3990  -17.1601   24.6072 C   0  0  0  0  0  0  0  0  0  0  0  0
    8.7933  -18.1908   25.4397 O   0  0  0  0  0  0  0  0  0  0  0  0
    7.3711  -17.3274   23.9131 O   0  0  0  0  0  0  0  0  0  0  0  0
  1  2  1  0
  2  4  1  0
  3  2  2  0
  4  5  1  0
  6  7  1  6
  6  5  1  0
  8  9  2  0
  8  6  1  0
 11 10  1  6
 11 13  1  0
 12 11  1  0
 13 14  1  6
 14  8  1  0
 15 13  1  0
 15 17  1  0
 16 15  2  0
 18 17  1  0
 18 29  1  0
 19 20  1  0
 18 19  1  1
 20 28  1  0
 21 22  1  0
 21 20  2  0
 22 23  1  0
 23 28  2  0
 23 24  1  0
 24 25  2  0
 25 26  1  0
 27 26  2  0
 28 27  1  0
 29 31  2  0
 29 30  1  0
M  END
$$$$
