NSC.pdb
     RDKit          3D

 21 20  0  0  1  0  0  0  0  0999 V2000
   14.3594  -13.1041  -11.6637 N   0  0  0  0  0  0  0  0  0  0  0  0
   13.6342  -12.0372  -11.0627 C   0  0  0  0  0  0  0  0  0  0  0  0
   12.7054  -12.2424  -10.2637 O   0  0  0  0  0  0  0  0  0  0  0  0
   14.0362  -10.6616  -11.4325 C   0  0  0  0  0  0  0  0  0  0  0  0
   14.8627  -10.0567  -10.3285 C   0  0  2  0  0  0  0  0  0  0  0  0
   14.0583   -9.8603   -9.1583 N   0  0  0  0  0  0  0  0  0  0  0  0
   15.3679   -8.7213  -10.7681 C   0  0  0  0  0  0  0  0  0  0  0  0
   15.3047   -8.5042  -12.0266 O   0  0  0  0  0  0  0  0  0  0  0  0
   17.0419   -5.9374   -8.0834 O   0  0  0  0  0  0  0  0  0  0  0  0
   16.4341   -5.5195   -9.2421 C   0  0  0  0  0  0  0  0  0  0  0  0
   16.4541   -6.5420  -10.3587 C   0  0  2  0  0  0  0  0  0  0  0  0
   15.8822   -7.7601   -9.8564 N   0  0  0  0  0  0  0  0  0  0  0  0
   17.8668   -6.7572  -10.8260 C   0  0  0  0  0  0  0  0  0  0  0  0
   18.6938   -7.3475  -10.0852 O   0  0  0  0  0  0  0  0  0  0  0  0
   18.3378   -6.3245  -12.0849 N   0  0  0  0  0  0  0  0  0  0  0  0
   19.6531   -6.6226  -12.5940 C   0  0  1  0  0  0  0  0  0  0  0  0
   19.7903   -8.0261  -13.1100 C   0  0  0  0  0  0  0  0  0  0  0  0
   21.4232   -8.3229  -13.8446 S   0  0  0  0  0  0  0  0  0  0  0  0
   20.1165   -5.6728  -13.6170 C   0  0  0  0  0  0  0  0  0  0  0  0
   19.3223   -5.0438  -14.3607 O   0  0  0  0  0  0  0  0  0  0  0  0
   21.4655   -5.4639  -13.7673 O   0  0  0  0  0  0  0  0  0  0  0  0
  2  4  1  0
  2  1  1  0
  3  2  2  0
  5  6  1  1
  5  4  1  0
  7  5  1  0
  8  7  2  0
  9 10  1  0
 11 10  1  1
 11 12  1  0
 11 13  1  0
 12  7  1  0
 13 14  2  0
 13 15  1  0
 15 16  1  0
 16 17  1  6
 16 19  1  0
 17 18  1  0
 19 21  1  0
 20 19  2  0
M  END
$$$$
