NSC.pdb
     RDKit          3D

 21 20  0  0  1  0  0  0  0  0999 V2000
   25.4863  -10.9208  -15.5511 N   0  0  0  0  0  0  0  0  0  0  0  0
   25.2017  -10.5092  -16.8834 C   0  0  0  0  0  0  0  0  0  0  0  0
   26.0223  -10.6534  -17.8048 O   0  0  0  0  0  0  0  0  0  0  0  0
   23.8762   -9.8975  -17.1272 C   0  0  0  0  0  0  0  0  0  0  0  0
   23.0896   -9.8541  -15.8438 C   0  0  2  0  0  0  0  0  0  0  0  0
   22.2230  -10.9926  -15.7554 N   0  0  0  0  0  0  0  0  0  0  0  0
   22.2383   -8.6267  -15.8304 C   0  0  0  0  0  0  0  0  0  0  0  0
   22.4009   -7.8421  -16.8270 O   0  0  0  0  0  0  0  0  0  0  0  0
   19.6120   -7.7137  -12.6711 O   0  0  0  0  0  0  0  0  0  0  0  0
   19.2785   -7.4064  -13.9676 C   0  0  0  0  0  0  0  0  0  0  0  0
   20.4667   -7.1921  -14.8814 C   0  0  2  0  0  0  0  0  0  0  0  0
   21.3140   -8.3481  -14.7874 N   0  0  0  0  0  0  0  0  0  0  0  0
   21.2019   -5.9450  -14.4758 C   0  0  0  0  0  0  0  0  0  0  0  0
   22.1003   -5.9992  -13.5976 O   0  0  0  0  0  0  0  0  0  0  0  0
   20.9384   -4.6765  -15.0373 N   0  0  0  0  0  0  0  0  0  0  0  0
   21.6552   -3.4777  -14.6804 C   0  0  1  0  0  0  0  0  0  0  0  0
   22.3821   -2.8499  -15.8347 C   0  0  0  0  0  0  0  0  0  0  0  0
   23.4788   -4.0308  -16.6694 S   0  0  0  0  0  0  0  0  0  0  0  0
   20.8172   -2.4677  -14.0163 C   0  0  0  0  0  0  0  0  0  0  0  0
   19.5649   -2.5600  -13.9652 O   0  0  0  0  0  0  0  0  0  0  0  0
   21.4225   -1.3833  -13.4302 O   0  0  0  0  0  0  0  0  0  0  0  0
  2  4  1  0
  2  1  1  0
  3  2  2  0
  5  6  1  6
  5  4  1  0
  7  5  1  0
  8  7  2  0
  9 10  1  0
 11 10  1  1
 11 12  1  0
 11 13  1  0
 12  7  1  0
 13 14  2  0
 13 15  1  0
 15 16  1  0
 16 17  1  6
 16 19  1  0
 17 18  1  0
 19 21  1  0
 20 19  2  0
M  END
$$$$
