NSC.pdb
     RDKit          3D

 21 20  0  0  1  0  0  0  0  0999 V2000
   12.9166  -13.4787  -16.7511 N   0  0  0  0  0  0  0  0  0  0  0  0
   14.1249  -12.7819  -17.0336 C   0  0  0  0  0  0  0  0  0  0  0  0
   14.7132  -12.9014  -18.1212 O   0  0  0  0  0  0  0  0  0  0  0  0
   14.6555  -11.9014  -15.9688 C   0  0  0  0  0  0  0  0  0  0  0  0
   16.1466  -12.0784  -15.8553 C   0  0  2  0  0  0  0  0  0  0  0  0
   16.4492  -13.2687  -15.1161 N   0  0  0  0  0  0  0  0  0  0  0  0
   16.7243  -10.9176  -15.1135 C   0  0  0  0  0  0  0  0  0  0  0  0
   16.3564  -10.8155  -13.8931 O   0  0  0  0  0  0  0  0  0  0  0  0
   20.3047   -9.3951  -16.0566 O   0  0  0  0  0  0  0  0  0  0  0  0
   19.6967   -9.2116  -14.8387 C   0  0  0  0  0  0  0  0  0  0  0  0
   18.2071   -8.9526  -14.9200 C   0  0  2  0  0  0  0  0  0  0  0  0
   17.6179   -9.9921  -15.7173 N   0  0  0  0  0  0  0  0  0  0  0  0
   17.9584   -7.5981  -15.5232 C   0  0  0  0  0  0  0  0  0  0  0  0
   18.0403   -7.4365  -16.7675 O   0  0  0  0  0  0  0  0  0  0  0  0
   17.6280   -6.4601  -14.7553 N   0  0  0  0  0  0  0  0  0  0  0  0
   17.5187   -5.1299  -15.3003 C   0  0  1  0  0  0  0  0  0  0  0  0
   16.4982   -4.2793  -14.6003 C   0  0  0  0  0  0  0  0  0  0  0  0
   14.8998   -5.1253  -14.4463 S   0  0  0  0  0  0  0  0  0  0  0  0
   18.8014   -4.4126  -15.3613 C   0  0  0  0  0  0  0  0  0  0  0  0
   18.9177   -3.2868  -15.9075 O   0  0  0  0  0  0  0  0  0  0  0  0
   19.9139   -4.9920  -14.8021 O   0  0  0  0  0  0  0  0  0  0  0  0
  2  4  1  0
  2  1  1  0
  3  2  2  0
  5  6  1  1
  5  4  1  0
  7  5  1  0
  8  7  2  0
  9 10  1  0
 11 10  1  6
 11 12  1  0
 11 13  1  0
 12  7  1  0
 13 14  2  0
 13 15  1  0
 15 16  1  0
 16 17  1  1
 16 19  1  0
 17 18  1  0
 19 21  1  0
 20 19  2  0
M  END
$$$$
