NSC.pdb
     RDKit          3D

 21 20  0  0  1  0  0  0  0  0999 V2000
   18.7768  -14.5814  -16.1570 N   0  0  0  0  0  0  0  0  0  0  0  0
   20.0810  -14.0334  -16.3121 C   0  0  0  0  0  0  0  0  0  0  0  0
   21.0988  -14.7455  -16.2962 O   0  0  0  0  0  0  0  0  0  0  0  0
   20.1748  -12.5677  -16.4946 C   0  0  0  0  0  0  0  0  0  0  0  0
   18.7967  -11.9609  -16.4726 C   0  0  2  0  0  0  0  0  0  0  0  0
   18.1756  -12.0958  -17.7575 N   0  0  0  0  0  0  0  0  0  0  0  0
   18.9066  -10.5029  -16.1663 C   0  0  0  0  0  0  0  0  0  0  0  0
   19.5010   -9.8041  -17.0570 O   0  0  0  0  0  0  0  0  0  0  0  0
   17.9102   -8.7783  -12.4469 O   0  0  0  0  0  0  0  0  0  0  0  0
   17.5318   -8.1633  -13.6153 C   0  0  0  0  0  0  0  0  0  0  0  0
   18.4009   -8.5042  -14.8074 C   0  0  2  0  0  0  0  0  0  0  0  0
   18.3892   -9.9310  -14.9726 N   0  0  0  0  0  0  0  0  0  0  0  0
   19.7972   -7.9947  -14.5813 C   0  0  0  0  0  0  0  0  0  0  0  0
   20.6917   -8.7709  -14.1587 O   0  0  0  0  0  0  0  0  0  0  0  0
   20.1790   -6.6567  -14.8217 N   0  0  0  0  0  0  0  0  0  0  0  0
   21.5202   -6.1609  -14.6381 C   0  0  1  0  0  0  0  0  0  0  0  0
   22.2166   -5.8301  -15.9267 C   0  0  0  0  0  0  0  0  0  0  0  0
   23.8016   -4.9917  -15.6460 S   0  0  0  0  0  0  0  0  0  0  0  0
   21.6019   -5.0119  -13.7234 C   0  0  0  0  0  0  0  0  0  0  0  0
   20.6902   -4.1508  -13.6411 O   0  0  0  0  0  0  0  0  0  0  0  0
   22.7137   -4.8726  -12.9294 O   0  0  0  0  0  0  0  0  0  0  0  0
  2  4  1  0
  2  1  1  0
  3  2  2  0
  5  6  1  6
  5  4  1  0
  7  5  1  0
  8  7  2  0
  9 10  1  0
 11 10  1  1
 11 12  1  0
 11 13  1  0
 12  7  1  0
 13 14  2  0
 13 15  1  0
 15 16  1  0
 16 17  1  6
 16 19  1  0
 17 18  1  0
 19 21  1  0
 20 19  2  0
M  END
$$$$
