NSC.pdb
     RDKit          3D

 21 20  0  0  1  0  0  0  0  0999 V2000
   12.4839  -13.2126  -12.7058 N   0  0  0  0  0  0  0  0  0  0  0  0
   12.2060  -12.7666  -11.3833 C   0  0  0  0  0  0  0  0  0  0  0  0
   11.1542  -13.0690  -10.7955 O   0  0  0  0  0  0  0  0  0  0  0  0
   13.2310  -11.9206  -10.7320 C   0  0  0  0  0  0  0  0  0  0  0  0
   14.4267  -11.7790  -11.6366 C   0  0  2  0  0  0  0  0  0  0  0  0
   15.1798  -12.9985  -11.6564 N   0  0  0  0  0  0  0  0  0  0  0  0
   15.3150  -10.6989  -11.1115 C   0  0  0  0  0  0  0  0  0  0  0  0
   15.8138  -10.9202   -9.9550 O   0  0  0  0  0  0  0  0  0  0  0  0
   16.5206   -7.4045  -13.4255 O   0  0  0  0  0  0  0  0  0  0  0  0
   17.2578   -7.8882  -12.3723 C   0  0  0  0  0  0  0  0  0  0  0  0
   16.4294   -8.5007  -11.2627 C   0  0  2  0  0  0  0  0  0  0  0  0
   15.5879   -9.5105  -11.8415 N   0  0  0  0  0  0  0  0  0  0  0  0
   15.6126   -7.4331  -10.5892 C   0  0  0  0  0  0  0  0  0  0  0  0
   14.5415   -7.0334  -11.1127 O   0  0  0  0  0  0  0  0  0  0  0  0
   15.9847   -6.8326   -9.3666 N   0  0  0  0  0  0  0  0  0  0  0  0
   15.2723   -5.7335   -8.7642 C   0  0  1  0  0  0  0  0  0  0  0  0
   15.3102   -5.7479   -7.2631 C   0  0  0  0  0  0  0  0  0  0  0  0
   14.3363   -4.3944   -6.5465 S   0  0  0  0  0  0  0  0  0  0  0  0
   15.7004   -4.4153   -9.2565 C   0  0  0  0  0  0  0  0  0  0  0  0
   16.8984   -4.1573   -9.5351 O   0  0  0  0  0  0  0  0  0  0  0  0
   14.7589   -3.4287   -9.4184 O   0  0  0  0  0  0  0  0  0  0  0  0
  2  4  1  0
  2  1  1  0
  3  2  2  0
  5  6  1  1
  5  4  1  0
  7  5  1  0
  8  7  2  0
  9 10  1  0
 11 10  1  6
 11 12  1  0
 11 13  1  0
 12  7  1  0
 13 14  2  0
 13 15  1  0
 15 16  1  0
 16 17  1  1
 16 19  1  0
 17 18  1  0
 19 21  1  0
 20 19  2  0
M  END
$$$$
