NSC.pdb
     RDKit          3D

 21 20  0  0  1  0  0  0  0  0999 V2000
   24.7768  -12.4076  -15.1765 N   0  0  0  0  0  0  0  0  0  0  0  0
   24.4512  -11.9138  -16.4709 C   0  0  0  0  0  0  0  0  0  0  0  0
   24.8019  -12.5036  -17.5064 O   0  0  0  0  0  0  0  0  0  0  0  0
   23.6707  -10.6578  -16.5322 C   0  0  0  0  0  0  0  0  0  0  0  0
   22.2242  -10.9394  -16.2223 C   0  0  2  0  0  0  0  0  0  0  0  0
   21.6151  -11.6524  -17.3065 N   0  0  0  0  0  0  0  0  0  0  0  0
   21.4960   -9.6456  -16.0567 C   0  0  0  0  0  0  0  0  0  0  0  0
   21.3571   -8.9598  -17.1269 O   0  0  0  0  0  0  0  0  0  0  0  0
   19.7541   -8.4824  -12.4118 O   0  0  0  0  0  0  0  0  0  0  0  0
   19.2516   -8.0748  -13.6234 C   0  0  0  0  0  0  0  0  0  0  0  0
   20.2898   -7.9564  -14.7193 C   0  0  2  0  0  0  0  0  0  0  0  0
   20.9931   -9.2060  -14.8023 N   0  0  0  0  0  0  0  0  0  0  0  0
   21.2288   -6.8237  -14.4101 C   0  0  0  0  0  0  0  0  0  0  0  0
   22.2983   -7.0427  -13.7860 O   0  0  0  0  0  0  0  0  0  0  0  0
   20.9771   -5.4870  -14.7891 N   0  0  0  0  0  0  0  0  0  0  0  0
   21.8669   -4.3906  -14.4986 C   0  0  1  0  0  0  0  0  0  0  0  0
   22.7441   -4.0100  -15.6563 C   0  0  0  0  0  0  0  0  0  0  0  0
   23.7853   -2.5729  -15.2756 S   0  0  0  0  0  0  0  0  0  0  0  0
   21.1793   -3.1956  -13.9860 C   0  0  0  0  0  0  0  0  0  0  0  0
   20.0183   -2.8795  -14.3488 O   0  0  0  0  0  0  0  0  0  0  0  0
   21.8272   -2.3944  -13.0782 O   0  0  0  0  0  0  0  0  0  0  0  0
  2  4  1  0
  2  1  1  0
  3  2  2  0
  5  6  1  6
  5  4  1  0
  7  5  1  0
  8  7  2  0
  9 10  1  0
 11 10  1  1
 11 12  1  0
 11 13  1  0
 12  7  1  0
 13 14  2  0
 13 15  1  0
 15 16  1  0
 16 17  1  6
 16 19  1  0
 17 18  1  0
 19 21  1  0
 20 19  2  0
M  END
$$$$
