NSC.pdb
     RDKit          3D

 21 20  0  0  1  0  0  0  0  0999 V2000
   12.9577  -11.9078  -12.2753 N   0  0  0  0  0  0  0  0  0  0  0  0
   12.9385  -11.9454  -10.8527 C   0  0  0  0  0  0  0  0  0  0  0  0
   12.1063  -12.6207  -10.2246 O   0  0  0  0  0  0  0  0  0  0  0  0
   13.9601  -11.1397  -10.1472 C   0  0  0  0  0  0  0  0  0  0  0  0
   14.8757  -10.4856  -11.1480 C   0  0  2  0  0  0  0  0  0  0  0  0
   15.9065  -11.3984  -11.5469 N   0  0  0  0  0  0  0  0  0  0  0  0
   15.5304   -9.3016  -10.5148 C   0  0  0  0  0  0  0  0  0  0  0  0
   16.2774   -9.5662   -9.5113 O   0  0  0  0  0  0  0  0  0  0  0  0
   16.0298   -5.7913  -12.5169 O   0  0  0  0  0  0  0  0  0  0  0  0
   16.7831   -6.1230  -11.4174 C   0  0  0  0  0  0  0  0  0  0  0  0
   16.0259   -6.8880  -10.3524 C   0  0  2  0  0  0  0  0  0  0  0  0
   15.3388   -7.9761  -10.9904 N   0  0  0  0  0  0  0  0  0  0  0  0
   15.0606   -5.9697   -9.6558 C   0  0  0  0  0  0  0  0  0  0  0  0
   13.9388   -5.7261  -10.1689 O   0  0  0  0  0  0  0  0  0  0  0  0
   15.3441   -5.3439   -8.4221 N   0  0  0  0  0  0  0  0  0  0  0  0
   14.5381   -4.2928   -7.8530 C   0  0  1  0  0  0  0  0  0  0  0  0
   14.5800   -4.2535   -6.3525 C   0  0  0  0  0  0  0  0  0  0  0  0
   13.5224   -2.9419   -5.6778 S   0  0  0  0  0  0  0  0  0  0  0  0
   14.8464   -2.9590   -8.3909 C   0  0  0  0  0  0  0  0  0  0  0  0
   15.9951   -2.4541   -8.3208 O   0  0  0  0  0  0  0  0  0  0  0  0
   13.8446   -2.2371   -8.9918 O   0  0  0  0  0  0  0  0  0  0  0  0
  2  4  1  0
  2  1  1  0
  3  2  2  0
  5  6  1  1
  5  4  1  0
  7  5  1  0
  8  7  2  0
  9 10  1  0
 11 10  1  6
 11 12  1  0
 11 13  1  0
 12  7  1  0
 13 14  2  0
 13 15  1  0
 15 16  1  0
 16 17  1  1
 16 19  1  0
 17 18  1  0
 19 21  1  0
 20 19  2  0
M  END
$$$$
