NSC.pdb
     RDKit          3D

 21 20  0  0  1  0  0  0  0  0999 V2000
   20.1342  -14.4543  -16.2622 N   0  0  0  0  0  0  0  0  0  0  0  0
   20.1433  -13.5589  -17.3683 C   0  0  0  0  0  0  0  0  0  0  0  0
   20.1883  -13.9646  -18.5415 O   0  0  0  0  0  0  0  0  0  0  0  0
   20.0964  -12.1121  -17.0597 C   0  0  0  0  0  0  0  0  0  0  0  0
   18.6903  -11.7121  -16.6983 C   0  0  2  0  0  0  0  0  0  0  0  0
   17.8361  -11.8139  -17.8449 N   0  0  0  0  0  0  0  0  0  0  0  0
   18.6852  -10.2882  -16.2466 C   0  0  0  0  0  0  0  0  0  0  0  0
   19.0146   -9.4340  -17.1395 O   0  0  0  0  0  0  0  0  0  0  0  0
   18.2618   -9.1928  -12.1956 O   0  0  0  0  0  0  0  0  0  0  0  0
   17.7851   -8.3665  -13.1837 C   0  0  0  0  0  0  0  0  0  0  0  0
   18.4747   -8.5343  -14.5213 C   0  0  2  0  0  0  0  0  0  0  0  0
   18.3400   -9.9071  -14.9218 N   0  0  0  0  0  0  0  0  0  0  0  0
   19.9212   -8.1428  -14.4005 C   0  0  0  0  0  0  0  0  0  0  0  0
   20.7721   -8.9827  -14.0110 O   0  0  0  0  0  0  0  0  0  0  0  0
   20.3992   -6.8501  -14.7072 N   0  0  0  0  0  0  0  0  0  0  0  0
   21.7841   -6.4628  -14.6053 C   0  0  1  0  0  0  0  0  0  0  0  0
   22.4259   -6.1834  -15.9338 C   0  0  0  0  0  0  0  0  0  0  0  0
   22.1505   -7.5313  -17.1176 S   0  0  0  0  0  0  0  0  0  0  0  0
   22.0115   -5.3273  -13.6984 C   0  0  0  0  0  0  0  0  0  0  0  0
   21.0806   -4.5753  -13.3147 O   0  0  0  0  0  0  0  0  0  0  0  0
   23.2865   -5.0775  -13.2534 O   0  0  0  0  0  0  0  0  0  0  0  0
  2  4  1  0
  2  1  1  0
  3  2  2  0
  5  6  1  6
  5  4  1  0
  7  5  1  0
  8  7  2  0
  9 10  1  0
 11 10  1  1
 11 12  1  0
 11 13  1  0
 12  7  1  0
 13 14  2  0
 13 15  1  0
 15 16  1  0
 16 17  1  6
 16 19  1  0
 17 18  1  0
 19 21  1  0
 20 19  2  0
M  END
$$$$
