NSC.pdb
     RDKit          3D

 21 20  0  0  1  0  0  0  0  0999 V2000
   14.8253  -11.0778  -10.9350 N   0  0  0  0  0  0  0  0  0  0  0  0
   15.7554  -11.8983  -11.6328 C   0  0  0  0  0  0  0  0  0  0  0  0
   15.7872  -13.1308  -11.4809 O   0  0  0  0  0  0  0  0  0  0  0  0
   16.6909  -11.2162  -12.5549 C   0  0  0  0  0  0  0  0  0  0  0  0
   15.9161  -10.4478  -13.5927 C   0  0  2  0  0  0  0  0  0  0  0  0
   15.2227  -11.3516  -14.4628 N   0  0  0  0  0  0  0  0  0  0  0  0
   16.8662   -9.6485  -14.4233 C   0  0  0  0  0  0  0  0  0  0  0  0
   17.3600  -10.2652  -15.4287 O   0  0  0  0  0  0  0  0  0  0  0  0
   16.5204   -5.7028  -14.7620 O   0  0  0  0  0  0  0  0  0  0  0  0
   17.2336   -6.4683  -15.6519 C   0  0  0  0  0  0  0  0  0  0  0  0
   18.0557   -7.5655  -15.0092 C   0  0  2  0  0  0  0  0  0  0  0  0
   17.1992   -8.3004  -14.1207 N   0  0  0  0  0  0  0  0  0  0  0  0
   19.2178   -6.9633  -14.2694 C   0  0  0  0  0  0  0  0  0  0  0  0
   19.0493   -6.4654  -13.1271 O   0  0  0  0  0  0  0  0  0  0  0  0
   20.5282   -6.9209  -14.7937 N   0  0  0  0  0  0  0  0  0  0  0  0
   21.6607   -6.3884  -14.0781 C   0  0  1  0  0  0  0  0  0  0  0  0
   22.9805   -6.8894  -14.5899 C   0  0  0  0  0  0  0  0  0  0  0  0
   23.0706   -8.7020  -14.5753 S   0  0  0  0  0  0  0  0  0  0  0  0
   21.6799   -4.9189  -14.0180 C   0  0  0  0  0  0  0  0  0  0  0  0
   20.9558   -4.2054  -14.7570 O   0  0  0  0  0  0  0  0  0  0  0  0
   22.5186   -4.3014  -13.1229 O   0  0  0  0  0  0  0  0  0  0  0  0
  2  4  1  0
  2  1  1  0
  3  2  2  0
  5  6  1  6
  5  4  1  0
  7  5  1  0
  8  7  2  0
  9 10  1  0
 11 10  1  1
 11 12  1  0
 11 13  1  0
 12  7  1  0
 13 14  2  0
 13 15  1  0
 15 16  1  0
 16 17  1  6
 16 19  1  0
 17 18  1  0
 19 21  1  0
 20 19  2  0
M  END
$$$$
