NSC.pdb
     RDKit          3D

 21 20  0  0  1  0  0  0  0  0999 V2000
   14.0487  -17.4395  -15.9118 N   0  0  0  0  0  0  0  0  0  0  0  0
   14.3488  -16.1168  -16.3426 C   0  0  0  0  0  0  0  0  0  0  0  0
   13.6256  -15.5086  -17.1490 O   0  0  0  0  0  0  0  0  0  0  0  0
   15.5686  -15.4909  -15.7852 C   0  0  0  0  0  0  0  0  0  0  0  0
   16.4204  -14.9478  -16.9020 C   0  0  2  0  0  0  0  0  0  0  0  0
   17.1520  -16.0096  -17.5282 N   0  0  0  0  0  0  0  0  0  0  0  0
   17.4082  -13.9784  -16.3399 C   0  0  0  0  0  0  0  0  0  0  0  0
   18.5424  -14.4790  -16.0266 O   0  0  0  0  0  0  0  0  0  0  0  0
   18.7885  -10.9911  -17.8959 O   0  0  0  0  0  0  0  0  0  0  0  0
   19.2038  -11.5993  -16.7365 C   0  0  0  0  0  0  0  0  0  0  0  0
   18.1303  -11.7128  -15.6747 C   0  0  2  0  0  0  0  0  0  0  0  0
   17.1121  -12.5995  -16.1648 N   0  0  0  0  0  0  0  0  0  0  0  0
   17.5667  -10.3518  -15.3737 C   0  0  0  0  0  0  0  0  0  0  0  0
   16.6888   -9.8523  -16.1226 O   0  0  0  0  0  0  0  0  0  0  0  0
   17.9745   -9.5750  -14.2673 N   0  0  0  0  0  0  0  0  0  0  0  0
   17.5204   -8.2288  -14.0225 C   0  0  1  0  0  0  0  0  0  0  0  0
   17.7506   -7.7676  -12.6121 C   0  0  0  0  0  0  0  0  0  0  0  0
   16.9498   -8.8579  -11.4021 S   0  0  0  0  0  0  0  0  0  0  0  0
   18.0747   -7.2417  -14.9616 C   0  0  0  0  0  0  0  0  0  0  0  0
   18.9679   -7.5340  -15.7959 O   0  0  0  0  0  0  0  0  0  0  0  0
   17.6008   -5.9532  -14.9275 O   0  0  0  0  0  0  0  0  0  0  0  0
  2  4  1  0
  2  1  1  0
  3  2  2  0
  5  6  1  1
  5  4  1  0
  7  5  1  0
  8  7  2  0
  9 10  1  0
 11 10  1  6
 11 12  1  0
 11 13  1  0
 12  7  1  0
 13 14  2  0
 13 15  1  0
 15 16  1  0
 16 17  1  1
 16 19  1  0
 17 18  1  0
 19 21  1  0
 20 19  2  0
M  END
$$$$
