NSC.pdb
     RDKit          3D

 21 20  0  0  1  0  0  0  0  0999 V2000
   13.4900  -12.8884   -9.6076 N   0  0  0  0  0  0  0  0  0  0  0  0
   14.3419  -12.9940  -10.7427 C   0  0  0  0  0  0  0  0  0  0  0  0
   14.7168  -14.0935  -11.1826 O   0  0  0  0  0  0  0  0  0  0  0  0
   14.7658  -11.7285  -11.3825 C   0  0  0  0  0  0  0  0  0  0  0  0
   14.2106  -10.5573  -10.6158 C   0  0  2  0  0  0  0  0  0  0  0  0
   12.8318  -10.3544  -10.9513 N   0  0  0  0  0  0  0  0  0  0  0  0
   14.9618   -9.3223  -10.9930 C   0  0  0  0  0  0  0  0  0  0  0  0
   14.6467   -8.8198  -12.1258 O   0  0  0  0  0  0  0  0  0  0  0  0
   17.3034   -5.4236   -9.5574 O   0  0  0  0  0  0  0  0  0  0  0  0
   16.6398   -6.6070   -9.3434 C   0  0  0  0  0  0  0  0  0  0  0  0
   16.5896   -7.5190  -10.5511 C   0  0  2  0  0  0  0  0  0  0  0  0
   15.9550   -8.7455  -10.1560 N   0  0  0  0  0  0  0  0  0  0  0  0
   17.9826   -7.7671  -11.0594 C   0  0  0  0  0  0  0  0  0  0  0  0
   18.8469   -8.2833  -10.3059 O   0  0  0  0  0  0  0  0  0  0  0  0
   18.3940   -7.4468  -12.3716 N   0  0  0  0  0  0  0  0  0  0  0  0
   19.7596   -7.5302  -12.8261 C   0  0  1  0  0  0  0  0  0  0  0  0
   19.9677   -8.5490  -13.9093 C   0  0  0  0  0  0  0  0  0  0  0  0
   19.1869  -10.1372  -13.5068 S   0  0  0  0  0  0  0  0  0  0  0  0
   20.3178   -6.2372  -13.2503 C   0  0  0  0  0  0  0  0  0  0  0  0
   19.5994   -5.2236  -13.4402 O   0  0  0  0  0  0  0  0  0  0  0  0
   21.6728   -6.1308  -13.4468 O   0  0  0  0  0  0  0  0  0  0  0  0
  2  4  1  0
  2  1  1  0
  3  2  2  0
  5  6  1  6
  5  4  1  0
  7  5  1  0
  8  7  2  0
  9 10  1  0
 11 10  1  1
 11 12  1  0
 11 13  1  0
 12  7  1  0
 13 14  2  0
 13 15  1  0
 15 16  1  0
 16 17  1  6
 16 19  1  0
 17 18  1  0
 19 21  1  0
 20 19  2  0
M  END
$$$$
