KYD.pdb
     RDKit          3D

 30 30  0  0  1  0  0  0  0  0999 V2000
   10.0733  -15.3914   19.2920 N   0  0  0  0  0  0  0  0  0  0  0  0
    9.1484  -15.9083   20.3067 C   0  0  1  0  0  0  0  0  0  0  0  0
    8.8567  -17.3699   20.0361 C   0  0  0  0  0  0  0  0  0  0  0  0
    8.0993  -17.5829   18.7702 C   0  0  0  0  0  0  0  0  0  0  0  0
    7.6901  -19.0253   18.5653 C   0  0  0  0  0  0  0  0  0  0  0  0
    6.9887  -19.1797   17.2324 C   0  0  0  0  0  0  0  0  0  0  0  0
    6.6162  -20.5800   17.0701 N   0  0  0  0  0  0  0  0  0  0  0  0
    9.8138  -15.7248   21.6219 C   0  0  0  0  0  0  0  0  0  0  0  0
   11.0586  -15.8276   21.7660 O   0  0  0  0  0  0  0  0  0  0  0  0
   10.2010  -14.8789   30.5302 O   0  0  0  0  0  0  0  0  0  0  0  0
    9.8519  -14.8134   29.1871 C   0  0  0  0  0  0  0  0  0  0  0  0
   10.2776  -13.7696   28.3774 C   0  0  0  0  0  0  0  0  0  0  0  0
    9.9083  -13.7396   27.0429 C   0  0  0  0  0  0  0  0  0  0  0  0
    9.1252  -14.7229   26.4929 C   0  0  0  0  0  0  0  0  0  0  0  0
    8.7455  -14.6752   25.0868 C   0  0  0  0  0  0  0  0  0  0  0  0
    9.6412  -15.4143   24.1363 C   0  0  2  0  0  0  0  0  0  0  0  0
    9.0686  -15.4191   22.8033 N   0  0  0  0  0  0  0  0  0  0  0  0
   10.0467  -16.7637   24.5589 C   0  0  0  0  0  0  0  0  0  0  0  0
    9.2510  -17.7305   24.5441 O   0  0  0  0  0  0  0  0  0  0  0  0
    8.6910  -15.7698   27.2802 C   0  0  0  0  0  0  0  0  0  0  0  0
    9.0691  -15.7810   28.6040 C   0  0  0  0  0  0  0  0  0  0  0  0
   11.3749  -17.0201   25.0019 N   0  0  0  0  0  0  0  0  0  0  0  0
   11.9327  -18.2408   25.4272 C   0  0  1  0  0  0  0  0  0  0  0  0
   13.3469  -18.5394   25.1485 C   0  0  0  0  0  0  0  0  0  0  0  0
   13.7023  -18.2547   23.7474 C   0  0  0  0  0  0  0  0  0  0  0  0
   13.1084  -18.6787   22.7299 O   0  0  0  0  0  0  0  0  0  0  0  0
   11.6355  -18.5031   26.8925 C   0  0  0  0  0  0  0  0  0  0  0  0
   11.9888  -19.5938   27.3725 O   0  0  0  0  0  0  0  0  0  0  0  0
   14.8018  -17.4365   23.5065 O   0  0  0  0  0  0  0  0  0  0  0  0
   10.9929  -17.5748   27.6918 O   0  0  0  0  0  0  0  0  0  0  0  0
  2  1  1  6
  3  4  1  0
  3  2  1  0
  5  6  1  0
  5  4  1  0
  6  7  1  0
  8  2  1  0
  8  9  2  0
 10 11  1  0
 11 12  2  0
 12 13  1  0
 14 15  1  0
 14 13  2  0
 16 17  1  0
 16 15  1  1
 17  8  1  0
 18 16  1  0
 19 18  2  0
 20 14  1  0
 21 20  2  0
 21 11  1  0
 22 18  1  0
 23 22  1  0
 24 25  1  0
 23 24  1  1
 25 26  2  0
 27 23  1  0
 27 30  1  0
 28 27  2  0
 29 25  1  0
M  END
$$$$
