KYD.pdb
     RDKit          3D

 30 30  0  0  1  0  0  0  0  0999 V2000
    6.5599  -15.0022   20.7514 N   0  0  0  0  0  0  0  0  0  0  0  0
    7.8920  -14.5095   20.3838 C   0  0  1  0  0  0  0  0  0  0  0  0
    7.7824  -13.1050   19.8272 C   0  0  0  0  0  0  0  0  0  0  0  0
    7.2637  -13.0762   18.4302 C   0  0  0  0  0  0  0  0  0  0  0  0
    8.1823  -13.7694   17.4474 C   0  0  0  0  0  0  0  0  0  0  0  0
    7.5682  -13.7507   16.0636 C   0  0  0  0  0  0  0  0  0  0  0  0
    8.4698  -14.4458   15.1527 N   0  0  0  0  0  0  0  0  0  0  0  0
    8.7126  -14.5375   21.6216 C   0  0  0  0  0  0  0  0  0  0  0  0
    9.9387  -14.2594   21.6221 O   0  0  0  0  0  0  0  0  0  0  0  0
   10.6342  -15.0625   30.3167 O   0  0  0  0  0  0  0  0  0  0  0  0
   10.0078  -14.9825   29.0792 C   0  0  0  0  0  0  0  0  0  0  0  0
    9.7347  -16.1184   28.3299 C   0  0  0  0  0  0  0  0  0  0  0  0
    9.1088  -15.9973   27.1004 C   0  0  0  0  0  0  0  0  0  0  0  0
    8.7473  -14.7733   26.5968 C   0  0  0  0  0  0  0  0  0  0  0  0
    8.0899  -14.6642   25.3008 C   0  0  0  0  0  0  0  0  0  0  0  0
    8.9250  -15.0197   24.1056 C   0  0  2  0  0  0  0  0  0  0  0  0
    8.1474  -14.8847   22.8883 N   0  0  0  0  0  0  0  0  0  0  0  0
    9.6129  -16.3184   24.1704 C   0  0  0  0  0  0  0  0  0  0  0  0
    8.9941  -17.4024   24.0712 O   0  0  0  0  0  0  0  0  0  0  0  0
    9.0095  -13.6311   27.3254 C   0  0  0  0  0  0  0  0  0  0  0  0
    9.6324  -13.7731   28.5450 C   0  0  0  0  0  0  0  0  0  0  0  0
   11.0236  -16.3875   24.3473 N   0  0  0  0  0  0  0  0  0  0  0  0
   11.8367  -17.5333   24.4385 C   0  0  1  0  0  0  0  0  0  0  0  0
   13.1574  -17.5509   23.7889 C   0  0  0  0  0  0  0  0  0  0  0  0
   13.0907  -18.1020   22.4242 C   0  0  0  0  0  0  0  0  0  0  0  0
   12.0641  -18.5191   21.8413 O   0  0  0  0  0  0  0  0  0  0  0  0
   11.9690  -18.0036   25.8757 C   0  0  0  0  0  0  0  0  0  0  0  0
   12.5580  -19.0779   26.0852 O   0  0  0  0  0  0  0  0  0  0  0  0
   14.2717  -18.1756   21.6920 O   0  0  0  0  0  0  0  0  0  0  0  0
   11.4596  -17.2790   26.9382 O   0  0  0  0  0  0  0  0  0  0  0  0
  2  1  1  1
  3  4  1  0
  3  2  1  0
  5  6  1  0
  5  4  1  0
  6  7  1  0
  8  2  1  0
  8  9  2  0
 10 11  1  0
 11 12  2  0
 12 13  1  0
 14 15  1  0
 14 13  2  0
 16 17  1  0
 16 15  1  1
 17  8  1  0
 18 16  1  0
 19 18  2  0
 20 14  1  0
 21 20  2  0
 21 11  1  0
 22 18  1  0
 23 22  1  0
 24 25  1  0
 23 24  1  1
 25 26  2  0
 27 23  1  0
 27 30  1  0
 28 27  2  0
 29 25  1  0
M  END
$$$$
