KYD.pdb
     RDKit          3D

 30 30  0  0  1  0  0  0  0  0999 V2000
    6.7775  -15.7945   20.9064 N   0  0  0  0  0  0  0  0  0  0  0  0
    8.0788  -15.2657   20.4827 C   0  0  1  0  0  0  0  0  0  0  0  0
    7.8800  -13.9837   19.7008 C   0  0  0  0  0  0  0  0  0  0  0  0
    7.4136  -14.2244   18.3058 C   0  0  0  0  0  0  0  0  0  0  0  0
    8.2326  -15.2726   17.5845 C   0  0  0  0  0  0  0  0  0  0  0  0
    7.6215  -15.5651   16.2304 C   0  0  0  0  0  0  0  0  0  0  0  0
    8.4199  -16.5978   15.5807 N   0  0  0  0  0  0  0  0  0  0  0  0
    8.8646  -15.0273   21.7204 C   0  0  0  0  0  0  0  0  0  0  0  0
   10.0158  -14.5223   21.6993 O   0  0  0  0  0  0  0  0  0  0  0  0
   10.8111  -14.6764   30.4173 O   0  0  0  0  0  0  0  0  0  0  0  0
   10.1831  -14.7246   29.1790 C   0  0  0  0  0  0  0  0  0  0  0  0
    9.9094  -13.5699   28.4593 C   0  0  0  0  0  0  0  0  0  0  0  0
    9.2816  -13.6594   27.2281 C   0  0  0  0  0  0  0  0  0  0  0  0
    8.9188  -14.8701   26.6941 C   0  0  0  0  0  0  0  0  0  0  0  0
    8.2583  -14.9458   25.3972 C   0  0  0  0  0  0  0  0  0  0  0  0
    9.1338  -15.2990   24.2307 C   0  0  2  0  0  0  0  0  0  0  0  0
    8.3497  -15.3617   23.0117 N   0  0  0  0  0  0  0  0  0  0  0  0
    9.9720  -16.4959   24.4004 C   0  0  0  0  0  0  0  0  0  0  0  0
    9.4964  -17.6528   24.3405 O   0  0  0  0  0  0  0  0  0  0  0  0
    9.1815  -16.0306   27.3930 C   0  0  0  0  0  0  0  0  0  0  0  0
    9.8062  -15.9199   28.6148 C   0  0  0  0  0  0  0  0  0  0  0  0
   11.3704  -16.3782   24.6387 N   0  0  0  0  0  0  0  0  0  0  0  0
   12.3256  -17.4061   24.7545 C   0  0  1  0  0  0  0  0  0  0  0  0
   13.6822  -17.2127   24.2171 C   0  0  0  0  0  0  0  0  0  0  0  0
   13.6595  -16.8174   22.7980 C   0  0  0  0  0  0  0  0  0  0  0  0
   12.9042  -17.2769   21.9113 O   0  0  0  0  0  0  0  0  0  0  0  0
   12.4105  -17.9234   26.1791 C   0  0  0  0  0  0  0  0  0  0  0  0
   13.1355  -18.9087   26.3989 O   0  0  0  0  0  0  0  0  0  0  0  0
   14.5557  -15.8389   22.3789 O   0  0  0  0  0  0  0  0  0  0  0  0
   11.7135  -17.3356   27.2193 O   0  0  0  0  0  0  0  0  0  0  0  0
  2  1  1  1
  3  4  1  0
  3  2  1  0
  5  6  1  0
  5  4  1  0
  6  7  1  0
  8  2  1  0
  8  9  2  0
 10 11  1  0
 11 12  2  0
 12 13  1  0
 14 15  1  0
 14 13  2  0
 16 17  1  0
 16 15  1  1
 17  8  1  0
 18 16  1  0
 19 18  2  0
 20 14  1  0
 21 20  2  0
 21 11  1  0
 22 18  1  0
 23 22  1  0
 24 25  1  0
 23 24  1  1
 25 26  2  0
 27 23  1  0
 27 30  1  0
 28 27  2  0
 29 25  1  0
M  END
$$$$
