KYD.pdb
     RDKit          3D

 30 30  0  0  1  0  0  0  0  0999 V2000
    7.8953  -16.5253   19.0544 N   0  0  0  0  0  0  0  0  0  0  0  0
    9.2192  -15.9021   19.1604 C   0  0  1  0  0  0  0  0  0  0  0  0
    9.3283  -14.7608   18.1705 C   0  0  0  0  0  0  0  0  0  0  0  0
    8.8927  -15.1435   16.7975 C   0  0  0  0  0  0  0  0  0  0  0  0
    8.3918  -13.9659   15.9898 C   0  0  0  0  0  0  0  0  0  0  0  0
    7.9035  -14.4373   14.6363 C   0  0  0  0  0  0  0  0  0  0  0  0
    7.4146  -13.2796   13.8969 N   0  0  0  0  0  0  0  0  0  0  0  0
    9.3512  -15.4189   20.5588 C   0  0  0  0  0  0  0  0  0  0  0  0
   10.3844  -14.8349   20.9738 O   0  0  0  0  0  0  0  0  0  0  0  0
    6.8490  -12.2893   28.4676 O   0  0  0  0  0  0  0  0  0  0  0  0
    6.8986  -12.8370   27.1918 C   0  0  0  0  0  0  0  0  0  0  0  0
    6.5116  -14.1477   26.9498 C   0  0  0  0  0  0  0  0  0  0  0  0
    6.5757  -14.6575   25.6637 C   0  0  0  0  0  0  0  0  0  0  0  0
    7.0156  -13.8954   24.6110 C   0  0  0  0  0  0  0  0  0  0  0  0
    7.0772  -14.4482   23.2640 C   0  0  0  0  0  0  0  0  0  0  0  0
    8.3697  -15.1070   22.8799 C   0  0  2  0  0  0  0  0  0  0  0  0
    8.3023  -15.5932   21.5147 N   0  0  0  0  0  0  0  0  0  0  0  0
    8.8576  -16.1433   23.8029 C   0  0  0  0  0  0  0  0  0  0  0  0
    8.2971  -17.2585   23.9041 O   0  0  0  0  0  0  0  0  0  0  0  0
    7.4052  -12.5897   24.8294 C   0  0  0  0  0  0  0  0  0  0  0  0
    7.3339  -12.1021   26.1150 C   0  0  0  0  0  0  0  0  0  0  0  0
    9.9995  -15.9116   24.6205 N   0  0  0  0  0  0  0  0  0  0  0  0
   10.6565  -16.8144   25.4781 C   0  0  1  0  0  0  0  0  0  0  0  0
   12.1272  -16.8348   25.5366 C   0  0  0  0  0  0  0  0  0  0  0  0
   12.7296  -16.8754   24.1927 C   0  0  0  0  0  0  0  0  0  0  0  0
   13.5938  -16.0893   23.7424 O   0  0  0  0  0  0  0  0  0  0  0  0
   10.0912  -16.7502   26.8855 C   0  0  0  0  0  0  0  0  0  0  0  0
   10.0451  -17.8039   27.5433 O   0  0  0  0  0  0  0  0  0  0  0  0
   12.3131  -17.8771   23.3212 O   0  0  0  0  0  0  0  0  0  0  0  0
    9.6347  -15.5696   27.4432 O   0  0  0  0  0  0  0  0  0  0  0  0
  2  1  1  1
  3  4  1  0
  3  2  1  0
  5  6  1  0
  5  4  1  0
  6  7  1  0
  8  2  1  0
  8  9  2  0
 10 11  1  0
 11 12  2  0
 12 13  1  0
 14 15  1  0
 14 13  2  0
 16 17  1  0
 16 15  1  1
 17  8  1  0
 18 16  1  0
 19 18  2  0
 20 14  1  0
 21 20  2  0
 21 11  1  0
 22 18  1  0
 23 22  1  0
 24 25  1  0
 23 24  1  1
 25 26  2  0
 27 23  1  0
 27 30  1  0
 28 27  2  0
 29 25  1  0
M  END
$$$$
