KYD.pdb
     RDKit          3D

 30 30  0  0  1  0  0  0  0  0999 V2000
    8.6888  -17.8722   19.4947 N   0  0  0  0  0  0  0  0  0  0  0  0
   10.0686  -17.4860   19.8099 C   0  0  1  0  0  0  0  0  0  0  0  0
   10.7275  -16.8935   18.5814 C   0  0  0  0  0  0  0  0  0  0  0  0
   10.7901  -17.8511   17.4410 C   0  0  0  0  0  0  0  0  0  0  0  0
   11.3424  -17.2264   16.1782 C   0  0  0  0  0  0  0  0  0  0  0  0
   11.4120  -18.2625   15.0763 C   0  0  0  0  0  0  0  0  0  0  0  0
   11.7248  -17.5811   13.8257 N   0  0  0  0  0  0  0  0  0  0  0  0
    9.9914  -16.4942   20.9130 C   0  0  0  0  0  0  0  0  0  0  0  0
   10.9725  -15.7826   21.2474 O   0  0  0  0  0  0  0  0  0  0  0  0
    6.5390  -11.7390   27.6227 O   0  0  0  0  0  0  0  0  0  0  0  0
    6.7639  -12.4730   26.4648 C   0  0  0  0  0  0  0  0  0  0  0  0
    7.4751  -11.9433   25.3971 C   0  0  0  0  0  0  0  0  0  0  0  0
    7.6782  -12.7067   24.2595 C   0  0  0  0  0  0  0  0  0  0  0  0
    7.1911  -13.9853   24.1571 C   0  0  0  0  0  0  0  0  0  0  0  0
    7.4136  -14.7744   22.9523 C   0  0  0  0  0  0  0  0  0  0  0  0
    8.7187  -15.5115   22.8783 C   0  0  2  0  0  0  0  0  0  0  0  0
    8.7880  -16.2942   21.6588 N   0  0  0  0  0  0  0  0  0  0  0  0
    9.0667  -16.3146   24.0606 C   0  0  0  0  0  0  0  0  0  0  0  0
    8.4952  -17.3988   24.3176 O   0  0  0  0  0  0  0  0  0  0  0  0
    6.4812  -14.5313   25.2070 C   0  0  0  0  0  0  0  0  0  0  0  0
    6.2904  -13.7561   26.3286 C   0  0  0  0  0  0  0  0  0  0  0  0
   10.0798  -15.8826   24.9623 N   0  0  0  0  0  0  0  0  0  0  0  0
   10.6534  -16.5913   26.0351 C   0  0  1  0  0  0  0  0  0  0  0  0
   12.1161  -16.6231   26.1966 C   0  0  0  0  0  0  0  0  0  0  0  0
   12.7964  -17.0385   24.9576 C   0  0  0  0  0  0  0  0  0  0  0  0
   12.6056  -18.1033   24.3270 O   0  0  0  0  0  0  0  0  0  0  0  0
   10.0028  -16.2177   27.3547 C   0  0  0  0  0  0  0  0  0  0  0  0
    9.2195  -15.2526   27.3655 O   0  0  0  0  0  0  0  0  0  0  0  0
   13.7478  -16.1794   24.4162 O   0  0  0  0  0  0  0  0  0  0  0  0
   10.2556  -16.9124   28.5238 O   0  0  0  0  0  0  0  0  0  0  0  0
  2  1  1  6
  3  4  1  0
  3  2  1  0
  5  6  1  0
  5  4  1  0
  6  7  1  0
  8  2  1  0
  8  9  2  0
 10 11  1  0
 11 12  2  0
 12 13  1  0
 14 15  1  0
 14 13  2  0
 16 17  1  0
 16 15  1  1
 17  8  1  0
 18 16  1  0
 19 18  2  0
 20 14  1  0
 21 20  2  0
 21 11  1  0
 22 18  1  0
 23 22  1  0
 24 25  1  0
 23 24  1  1
 25 26  2  0
 27 23  1  0
 27 30  1  0
 28 27  2  0
 29 25  1  0
M  END
$$$$
