KYD.pdb
     RDKit          3D

 30 30  0  0  1  0  0  0  0  0999 V2000
    7.9256  -12.6227   19.2922 N   0  0  0  0  0  0  0  0  0  0  0  0
    7.5802  -13.9061   19.9134 C   0  0  1  0  0  0  0  0  0  0  0  0
    7.9126  -15.0395   18.9651 C   0  0  0  0  0  0  0  0  0  0  0  0
    7.6944  -14.6792   17.5354 C   0  0  0  0  0  0  0  0  0  0  0  0
    8.0026  -15.8183   16.5881 C   0  0  0  0  0  0  0  0  0  0  0  0
    7.6436  -15.4242   15.1710 C   0  0  0  0  0  0  0  0  0  0  0  0
    8.0247  -16.5149   14.2815 N   0  0  0  0  0  0  0  0  0  0  0  0
    8.3732  -13.9996   21.1660 C   0  0  0  0  0  0  0  0  0  0  0  0
    9.5672  -13.6124   21.2365 O   0  0  0  0  0  0  0  0  0  0  0  0
    9.8216  -14.7543   29.9341 O   0  0  0  0  0  0  0  0  0  0  0  0
    9.2890  -14.6031   28.6598 C   0  0  0  0  0  0  0  0  0  0  0  0
    9.2855  -13.3732   28.0166 C   0  0  0  0  0  0  0  0  0  0  0  0
    8.7451  -13.2630   26.7462 C   0  0  0  0  0  0  0  0  0  0  0  0
    8.2073  -14.3466   26.0988 C   0  0  0  0  0  0  0  0  0  0  0  0
    7.6422  -14.2125   24.7622 C   0  0  0  0  0  0  0  0  0  0  0  0
    8.5362  -14.6116   23.6250 C   0  0  2  0  0  0  0  0  0  0  0  0
    7.8164  -14.5389   22.3675 N   0  0  0  0  0  0  0  0  0  0  0  0
    9.2313  -15.8988   23.7802 C   0  0  0  0  0  0  0  0  0  0  0  0
    8.6527  -16.9925   23.5876 O   0  0  0  0  0  0  0  0  0  0  0  0
    8.2006  -15.5787   26.7202 C   0  0  0  0  0  0  0  0  0  0  0  0
    8.7426  -15.6670   27.9827 C   0  0  0  0  0  0  0  0  0  0  0  0
   10.6033  -15.9451   24.1565 N   0  0  0  0  0  0  0  0  0  0  0  0
   11.4204  -17.0770   24.3392 C   0  0  1  0  0  0  0  0  0  0  0  0
   12.8589  -17.0017   24.0362 C   0  0  0  0  0  0  0  0  0  0  0  0
   13.1064  -16.7645   22.6034 C   0  0  0  0  0  0  0  0  0  0  0  0
   12.3918  -17.1541   21.6520 O   0  0  0  0  0  0  0  0  0  0  0  0
   11.2205  -17.6863   25.7151 C   0  0  0  0  0  0  0  0  0  0  0  0
   10.4573  -17.1041   26.5048 O   0  0  0  0  0  0  0  0  0  0  0  0
   14.2391  -16.0382   22.2485 O   0  0  0  0  0  0  0  0  0  0  0  0
   11.8550  -18.8523   26.1041 O   0  0  0  0  0  0  0  0  0  0  0  0
  2  1  1  6
  3  4  1  0
  3  2  1  0
  5  6  1  0
  5  4  1  0
  6  7  1  0
  8  2  1  0
  8  9  2  0
 10 11  1  0
 11 12  2  0
 12 13  1  0
 14 15  1  0
 14 13  2  0
 16 17  1  0
 16 15  1  1
 17  8  1  0
 18 16  1  0
 19 18  2  0
 20 14  1  0
 21 20  2  0
 21 11  1  0
 22 18  1  0
 23 22  1  0
 24 25  1  0
 23 24  1  1
 25 26  2  0
 27 23  1  0
 27 30  1  0
 28 27  2  0
 29 25  1  0
M  END
$$$$
