KYD.pdb
     RDKit          3D

 30 30  0  0  1  0  0  0  0  0999 V2000
    9.0380  -16.3711   17.8428 N   0  0  0  0  0  0  0  0  0  0  0  0
    8.5305  -17.1596   18.9711 C   0  0  1  0  0  0  0  0  0  0  0  0
    9.1931  -18.5218   18.9825 C   0  0  0  0  0  0  0  0  0  0  0  0
    8.5217  -19.4981   18.0784 C   0  0  0  0  0  0  0  0  0  0  0  0
    9.2779  -19.7195   16.7864 C   0  0  0  0  0  0  0  0  0  0  0  0
    8.6125  -20.8136   15.9785 C   0  0  0  0  0  0  0  0  0  0  0  0
    9.2930  -20.9121   14.6927 N   0  0  0  0  0  0  0  0  0  0  0  0
    8.8493  -16.3935   20.2031 C   0  0  0  0  0  0  0  0  0  0  0  0
   10.0214  -16.0422   20.4922 O   0  0  0  0  0  0  0  0  0  0  0  0
    7.2476  -12.0816   27.8824 O   0  0  0  0  0  0  0  0  0  0  0  0
    7.1621  -12.6894   26.6360 C   0  0  0  0  0  0  0  0  0  0  0  0
    7.6343  -12.0640   25.4905 C   0  0  0  0  0  0  0  0  0  0  0  0
    7.5309  -12.7026   24.2659 C   0  0  0  0  0  0  0  0  0  0  0  0
    6.9690  -13.9491   24.1520 C   0  0  0  0  0  0  0  0  0  0  0  0
    6.8677  -14.6064   22.8552 C   0  0  0  0  0  0  0  0  0  0  0  0
    8.1010  -15.3149   22.3767 C   0  0  2  0  0  0  0  0  0  0  0  0
    7.8324  -16.0117   21.1330 N   0  0  0  0  0  0  0  0  0  0  0  0
    8.7569  -16.1906   23.3601 C   0  0  0  0  0  0  0  0  0  0  0  0
    8.4554  -17.4004   23.4760 O   0  0  0  0  0  0  0  0  0  0  0  0
    6.4933  -14.5889   25.2784 C   0  0  0  0  0  0  0  0  0  0  0  0
    6.6056  -13.9371   26.4859 C   0  0  0  0  0  0  0  0  0  0  0  0
    9.7712  -15.6866   24.2222 N   0  0  0  0  0  0  0  0  0  0  0  0
   10.7163  -16.4101   24.9742 C   0  0  1  0  0  0  0  0  0  0  0  0
   12.1540  -16.2377   24.7094 C   0  0  0  0  0  0  0  0  0  0  0  0
   12.8838  -17.5151   24.7884 C   0  0  0  0  0  0  0  0  0  0  0  0
   14.1206  -17.6720   24.6720 O   0  0  0  0  0  0  0  0  0  0  0  0
   10.4532  -16.2806   26.4636 C   0  0  0  0  0  0  0  0  0  0  0  0
   10.7370  -15.2028   27.0138 O   0  0  0  0  0  0  0  0  0  0  0  0
   12.1477  -18.6741   25.0145 O   0  0  0  0  0  0  0  0  0  0  0  0
    9.9150  -17.3138   27.2095 O   0  0  0  0  0  0  0  0  0  0  0  0
  2  1  1  6
  3  4  1  0
  3  2  1  0
  5  6  1  0
  5  4  1  0
  6  7  1  0
  8  2  1  0
  8  9  2  0
 10 11  1  0
 11 12  2  0
 12 13  1  0
 14 15  1  0
 14 13  2  0
 16 17  1  0
 16 15  1  1
 17  8  1  0
 18 16  1  0
 19 18  2  0
 20 14  1  0
 21 20  2  0
 21 11  1  0
 22 18  1  0
 23 22  1  0
 24 25  1  0
 23 24  1  1
 25 26  2  0
 27 23  1  0
 27 30  1  0
 28 27  2  0
 29 25  1  0
M  END
$$$$
