KYD.pdb
     RDKit          3D

 30 30  0  0  1  0  0  0  0  0999 V2000
    7.9321  -17.3306   19.8413 N   0  0  0  0  0  0  0  0  0  0  0  0
    9.1212  -16.5019   19.6146 C   0  0  1  0  0  0  0  0  0  0  0  0
    8.9671  -15.7288   18.3211 C   0  0  0  0  0  0  0  0  0  0  0  0
    8.2444  -16.4998   17.2701 C   0  0  0  0  0  0  0  0  0  0  0  0
    9.1480  -17.4446   16.5079 C   0  0  0  0  0  0  0  0  0  0  0  0
    8.3498  -18.1917   15.4605 C   0  0  0  0  0  0  0  0  0  0  0  0
    9.2334  -19.1512   14.8090 N   0  0  0  0  0  0  0  0  0  0  0  0
    9.2315  -15.5880   20.7803 C   0  0  0  0  0  0  0  0  0  0  0  0
   10.1896  -14.7855   20.9175 O   0  0  0  0  0  0  0  0  0  0  0  0
    6.5694  -11.1076   28.0342 O   0  0  0  0  0  0  0  0  0  0  0  0
    6.6619  -11.9089   26.9031 C   0  0  0  0  0  0  0  0  0  0  0  0
    7.1096  -11.4030   25.6907 C   0  0  0  0  0  0  0  0  0  0  0  0
    7.1877  -12.2338   24.5854 C   0  0  0  0  0  0  0  0  0  0  0  0
    6.8311  -13.5569   24.6558 C   0  0  0  0  0  0  0  0  0  0  0  0
    6.9190  -14.4168   23.4825 C   0  0  0  0  0  0  0  0  0  0  0  0
    8.3013  -14.6865   22.9643 C   0  0  2  0  0  0  0  0  0  0  0  0
    8.2463  -15.5720   21.8165 N   0  0  0  0  0  0  0  0  0  0  0  0
    9.2786  -15.1490   23.9618 C   0  0  0  0  0  0  0  0  0  0  0  0
    9.4420  -14.5583   25.0538 O   0  0  0  0  0  0  0  0  0  0  0  0
    6.3834  -14.0804   25.8515 C   0  0  0  0  0  0  0  0  0  0  0  0
    6.3132  -13.2379   26.9382 C   0  0  0  0  0  0  0  0  0  0  0  0
   10.0797  -16.3000   23.7176 N   0  0  0  0  0  0  0  0  0  0  0  0
   10.8102  -17.0675   24.6446 C   0  0  1  0  0  0  0  0  0  0  0  0
   10.1898  -18.2435   25.2761 C   0  0  0  0  0  0  0  0  0  0  0  0
   11.0531  -18.8269   26.3177 C   0  0  0  0  0  0  0  0  0  0  0  0
   12.0045  -19.6202   26.1349 O   0  0  0  0  0  0  0  0  0  0  0  0
   12.1749  -17.4437   24.0966 C   0  0  0  0  0  0  0  0  0  0  0  0
   12.3554  -17.3530   22.8702 O   0  0  0  0  0  0  0  0  0  0  0  0
   10.8063  -18.4763   27.6415 O   0  0  0  0  0  0  0  0  0  0  0  0
   13.2035  -17.8767   24.9139 O   0  0  0  0  0  0  0  0  0  0  0  0
  2  1  1  1
  3  4  1  0
  3  2  1  0
  5  6  1  0
  5  4  1  0
  6  7  1  0
  8  2  1  0
  8  9  2  0
 10 11  1  0
 11 12  2  0
 12 13  1  0
 14 15  1  0
 14 13  2  0
 16 17  1  0
 16 15  1  1
 17  8  1  0
 18 16  1  0
 19 18  2  0
 20 14  1  0
 21 20  2  0
 21 11  1  0
 22 18  1  0
 23 22  1  0
 24 25  1  0
 23 24  1  6
 25 26  2  0
 27 23  1  0
 27 30  1  0
 28 27  2  0
 29 25  1  0
M  END
$$$$
