KYD.pdb
     RDKit          3D

 30 30  0  0  1  0  0  0  0  0999 V2000
    5.9156  -15.7375   21.8720 N   0  0  0  0  0  0  0  0  0  0  0  0
    7.2541  -15.3679   21.3985 C   0  0  1  0  0  0  0  0  0  0  0  0
    7.1494  -14.2261   20.4086 C   0  0  0  0  0  0  0  0  0  0  0  0
    7.6354  -14.5944   19.0486 C   0  0  0  0  0  0  0  0  0  0  0  0
    7.4300  -13.4923   18.0322 C   0  0  0  0  0  0  0  0  0  0  0  0
    7.9124  -13.9473   16.6711 C   0  0  0  0  0  0  0  0  0  0  0  0
    7.7579  -12.8392   15.7361 N   0  0  0  0  0  0  0  0  0  0  0  0
    8.0358  -14.9728   22.5982 C   0  0  0  0  0  0  0  0  0  0  0  0
    7.8373  -13.8887   23.2032 O   0  0  0  0  0  0  0  0  0  0  0  0
   10.8423  -14.8030   30.6902 O   0  0  0  0  0  0  0  0  0  0  0  0
   10.3282  -14.9064   29.4036 C   0  0  0  0  0  0  0  0  0  0  0  0
   10.2182  -13.7980   28.5756 C   0  0  0  0  0  0  0  0  0  0  0  0
    9.7003  -13.9418   27.2991 C   0  0  0  0  0  0  0  0  0  0  0  0
    9.2887  -15.1618   26.8251 C   0  0  0  0  0  0  0  0  0  0  0  0
    8.7455  -15.2949   25.4794 C   0  0  0  0  0  0  0  0  0  0  0  0
    9.7433  -15.5480   24.3874 C   0  0  2  0  0  0  0  0  0  0  0  0
    9.0633  -15.8109   23.1331 N   0  0  0  0  0  0  0  0  0  0  0  0
   10.7629  -16.5679   24.6775 C   0  0  0  0  0  0  0  0  0  0  0  0
   10.4609  -17.7614   24.9064 O   0  0  0  0  0  0  0  0  0  0  0  0
    9.3894  -16.2768   27.6319 C   0  0  0  0  0  0  0  0  0  0  0  0
    9.9068  -16.1126   28.8971 C   0  0  0  0  0  0  0  0  0  0  0  0
   12.1452  -16.2290   24.7053 N   0  0  0  0  0  0  0  0  0  0  0  0
   13.2495  -17.0826   24.8896 C   0  0  1  0  0  0  0  0  0  0  0  0
   14.5840  -16.6684   24.4267 C   0  0  0  0  0  0  0  0  0  0  0  0
   14.5266  -15.9964   23.1169 C   0  0  0  0  0  0  0  0  0  0  0  0
   14.8121  -14.7998   22.8831 O   0  0  0  0  0  0  0  0  0  0  0  0
   13.3365  -17.5714   26.3241 C   0  0  0  0  0  0  0  0  0  0  0  0
   12.5637  -17.0696   27.1584 O   0  0  0  0  0  0  0  0  0  0  0  0
   14.1185  -16.7447   22.0170 O   0  0  0  0  0  0  0  0  0  0  0  0
   14.2380  -18.5438   26.7181 O   0  0  0  0  0  0  0  0  0  0  0  0
  2  1  1  1
  3  4  1  0
  3  2  1  0
  5  6  1  0
  5  4  1  0
  6  7  1  0
  8  2  1  0
  8  9  2  0
 10 11  1  0
 11 12  2  0
 12 13  1  0
 14 15  1  0
 14 13  2  0
 16 17  1  0
 16 15  1  1
 17  8  1  0
 18 16  1  0
 19 18  2  0
 20 14  1  0
 21 20  2  0
 21 11  1  0
 22 18  1  0
 23 22  1  0
 24 25  1  0
 23 24  1  1
 25 26  2  0
 27 23  1  0
 27 30  1  0
 28 27  2  0
 29 25  1  0
M  END
$$$$
