KYD.pdb
     RDKit          3D

 30 30  0  0  1  0  0  0  0  0999 V2000
    8.4041  -12.7794   17.7232 N   0  0  0  0  0  0  0  0  0  0  0  0
    7.7961  -13.9306   18.3995 C   0  0  1  0  0  0  0  0  0  0  0  0
    8.2054  -15.2100   17.6996 C   0  0  0  0  0  0  0  0  0  0  0  0
    7.2428  -15.6214   16.6387 C   0  0  0  0  0  0  0  0  0  0  0  0
    7.9045  -16.3705   15.5025 C   0  0  0  0  0  0  0  0  0  0  0  0
    6.8737  -16.7404   14.4570 C   0  0  0  0  0  0  0  0  0  0  0  0
    7.5488  -17.4559   13.3808 N   0  0  0  0  0  0  0  0  0  0  0  0
    8.2805  -13.9040   19.8034 C   0  0  0  0  0  0  0  0  0  0  0  0
    9.4801  -13.6677   20.0965 O   0  0  0  0  0  0  0  0  0  0  0  0
    7.7101  -13.2602   28.6810 O   0  0  0  0  0  0  0  0  0  0  0  0
    7.4550  -13.3389   27.3176 C   0  0  0  0  0  0  0  0  0  0  0  0
    6.8127  -14.4368   26.7623 C   0  0  0  0  0  0  0  0  0  0  0  0
    6.5765  -14.4782   25.3982 C   0  0  0  0  0  0  0  0  0  0  0  0
    6.9636  -13.4537   24.5717 C   0  0  0  0  0  0  0  0  0  0  0  0
    6.7076  -13.5140   23.1383 C   0  0  0  0  0  0  0  0  0  0  0  0
    7.8142  -14.0743   22.2937 C   0  0  2  0  0  0  0  0  0  0  0  0
    7.4017  -14.1473   20.9047 N   0  0  0  0  0  0  0  0  0  0  0  0
    8.3907  -15.3458   22.7573 C   0  0  0  0  0  0  0  0  0  0  0  0
    7.8440  -16.4473   22.5210 O   0  0  0  0  0  0  0  0  0  0  0  0
    7.6036  -12.3527   25.1031 C   0  0  0  0  0  0  0  0  0  0  0  0
    7.8289  -12.3310   26.4612 C   0  0  0  0  0  0  0  0  0  0  0  0
    9.6065  -15.3676   23.4973 N   0  0  0  0  0  0  0  0  0  0  0  0
   10.3246  -16.4853   23.9634 C   0  0  1  0  0  0  0  0  0  0  0  0
   11.7555  -16.6237   23.6470 C   0  0  0  0  0  0  0  0  0  0  0  0
   12.3128  -17.8854   24.1649 C   0  0  0  0  0  0  0  0  0  0  0  0
   11.8709  -19.0367   23.9477 O   0  0  0  0  0  0  0  0  0  0  0  0
   10.1082  -16.7000   25.4504 C   0  0  0  0  0  0  0  0  0  0  0  0
   10.4855  -17.7763   25.9447 O   0  0  0  0  0  0  0  0  0  0  0  0
   13.4407  -17.8158   24.9768 O   0  0  0  0  0  0  0  0  0  0  0  0
    9.5124  -15.7446   26.2540 O   0  0  0  0  0  0  0  0  0  0  0  0
  2  1  1  6
  3  4  1  0
  3  2  1  0
  5  6  1  0
  5  4  1  0
  6  7  1  0
  8  2  1  0
  8  9  2  0
 10 11  1  0
 11 12  2  0
 12 13  1  0
 14 15  1  0
 14 13  2  0
 16 17  1  0
 16 15  1  1
 17  8  1  0
 18 16  1  0
 19 18  2  0
 20 14  1  0
 21 20  2  0
 21 11  1  0
 22 18  1  0
 23 22  1  0
 24 25  1  0
 23 24  1  1
 25 26  2  0
 27 23  1  0
 27 30  1  0
 28 27  2  0
 29 25  1  0
M  END
$$$$
