KYD.pdb
     RDKit          3D

 30 30  0  0  1  0  0  0  0  0999 V2000
    7.0893  -15.4965   18.6462 N   0  0  0  0  0  0  0  0  0  0  0  0
    8.1960  -14.5340   18.6148 C   0  0  1  0  0  0  0  0  0  0  0  0
    7.7847  -13.3068   17.8279 C   0  0  0  0  0  0  0  0  0  0  0  0
    7.5217  -13.6034   16.3911 C   0  0  0  0  0  0  0  0  0  0  0  0
    8.7847  -13.8936   15.6097 C   0  0  0  0  0  0  0  0  0  0  0  0
    8.4523  -14.0981   14.1468 C   0  0  0  0  0  0  0  0  0  0  0  0
    9.6976  -14.3152   13.4200 N   0  0  0  0  0  0  0  0  0  0  0  0
    8.5028  -14.1921   20.0274 C   0  0  0  0  0  0  0  0  0  0  0  0
    9.4932  -13.4875   20.3490 O   0  0  0  0  0  0  0  0  0  0  0  0
    7.4952  -13.2788   28.8163 O   0  0  0  0  0  0  0  0  0  0  0  0
    7.3228  -13.4549   27.4490 C   0  0  0  0  0  0  0  0  0  0  0  0
    7.4063  -12.3887   26.5643 C   0  0  0  0  0  0  0  0  0  0  0  0
    7.2283  -12.6048   25.2080 C   0  0  0  0  0  0  0  0  0  0  0  0
    6.9691  -13.8563   24.7088 C   0  0  0  0  0  0  0  0  0  0  0  0
    6.7838  -14.0656   23.2786 C   0  0  0  0  0  0  0  0  0  0  0  0
    8.0095  -14.4535   22.5045 C   0  0  2  0  0  0  0  0  0  0  0  0
    7.6818  -14.6495   21.1049 N   0  0  0  0  0  0  0  0  0  0  0  0
    8.7761  -15.5857   23.0473 C   0  0  0  0  0  0  0  0  0  0  0  0
    8.3065  -16.7458   23.0885 O   0  0  0  0  0  0  0  0  0  0  0  0
    6.8819  -14.9303   25.5709 C   0  0  0  0  0  0  0  0  0  0  0  0
    7.0619  -14.6943   26.9153 C   0  0  0  0  0  0  0  0  0  0  0  0
   10.0955  -15.3990   23.5478 N   0  0  0  0  0  0  0  0  0  0  0  0
   10.9657  -16.3610   24.0951 C   0  0  1  0  0  0  0  0  0  0  0  0
   12.3977  -16.0557   24.2459 C   0  0  0  0  0  0  0  0  0  0  0  0
   13.1719  -17.2412   24.6531 C   0  0  0  0  0  0  0  0  0  0  0  0
   13.7176  -17.4255   25.7649 O   0  0  0  0  0  0  0  0  0  0  0  0
   10.4232  -16.9185   25.3986 C   0  0  0  0  0  0  0  0  0  0  0  0
    9.9169  -18.0536   25.3810 O   0  0  0  0  0  0  0  0  0  0  0  0
   13.3247  -18.2698   23.7285 O   0  0  0  0  0  0  0  0  0  0  0  0
   10.4777  -16.2072   26.5837 O   0  0  0  0  0  0  0  0  0  0  0  0
  2  1  1  1
  3  4  1  0
  3  2  1  0
  5  6  1  0
  5  4  1  0
  6  7  1  0
  8  2  1  0
  8  9  2  0
 10 11  1  0
 11 12  2  0
 12 13  1  0
 14 15  1  0
 14 13  2  0
 16 17  1  0
 16 15  1  1
 17  8  1  0
 18 16  1  0
 19 18  2  0
 20 14  1  0
 21 20  2  0
 21 11  1  0
 22 18  1  0
 23 22  1  0
 24 25  1  0
 23 24  1  1
 25 26  2  0
 27 23  1  0
 27 30  1  0
 28 27  2  0
 29 25  1  0
M  END
$$$$
