KYD.pdb
     RDKit          3D

 30 30  0  0  1  0  0  0  0  0999 V2000
    7.2287  -18.3375   19.4376 N   0  0  0  0  0  0  0  0  0  0  0  0
    8.4437  -17.6143   19.0465 C   0  0  1  0  0  0  0  0  0  0  0  0
    8.2178  -16.9125   17.7232 C   0  0  0  0  0  0  0  0  0  0  0  0
    8.6676  -17.7225   16.5558 C   0  0  0  0  0  0  0  0  0  0  0  0
    9.4914  -16.9245   15.5686 C   0  0  0  0  0  0  0  0  0  0  0  0
    9.9664  -17.8225   14.4460 C   0  0  0  0  0  0  0  0  0  0  0  0
   10.6742  -17.0016   13.4707 N   0  0  0  0  0  0  0  0  0  0  0  0
    8.7278  -16.6414   20.1324 C   0  0  0  0  0  0  0  0  0  0  0  0
    9.7352  -15.8893   20.1148 O   0  0  0  0  0  0  0  0  0  0  0  0
    7.3025  -11.9551   27.6089 O   0  0  0  0  0  0  0  0  0  0  0  0
    7.2082  -12.6853   26.4307 C   0  0  0  0  0  0  0  0  0  0  0  0
    7.6800  -12.1824   25.2262 C   0  0  0  0  0  0  0  0  0  0  0  0
    7.5676  -12.9409   24.0729 C   0  0  0  0  0  0  0  0  0  0  0  0
    6.9969  -14.1886   24.0876 C   0  0  0  0  0  0  0  0  0  0  0  0
    6.8862  -14.9729   22.8643 C   0  0  0  0  0  0  0  0  0  0  0  0
    8.1453  -15.6383   22.3912 C   0  0  2  0  0  0  0  0  0  0  0  0
    7.8642  -16.5073   21.2640 N   0  0  0  0  0  0  0  0  0  0  0  0
    8.9316  -16.3272   23.4262 C   0  0  0  0  0  0  0  0  0  0  0  0
    8.5692  -17.4211   23.9162 O   0  0  0  0  0  0  0  0  0  0  0  0
    6.5213  -14.7076   25.2745 C   0  0  0  0  0  0  0  0  0  0  0  0
    6.6426  -13.9378   26.4094 C   0  0  0  0  0  0  0  0  0  0  0  0
   10.1480  -15.7680   23.9097 N   0  0  0  0  0  0  0  0  0  0  0  0
   11.1822  -16.4088   24.6183 C   0  0  1  0  0  0  0  0  0  0  0  0
   12.5521  -15.8731   24.5636 C   0  0  0  0  0  0  0  0  0  0  0  0
   13.5328  -16.8143   25.1320 C   0  0  0  0  0  0  0  0  0  0  0  0
   13.4219  -18.0604   25.1843 O   0  0  0  0  0  0  0  0  0  0  0  0
   10.7896  -16.6583   26.0632 C   0  0  0  0  0  0  0  0  0  0  0  0
   11.0536  -17.7689   26.5552 O   0  0  0  0  0  0  0  0  0  0  0  0
   14.7048  -16.2903   25.6686 O   0  0  0  0  0  0  0  0  0  0  0  0
   10.1571  -15.6976   26.8315 O   0  0  0  0  0  0  0  0  0  0  0  0
  2  1  1  1
  3  4  1  0
  3  2  1  0
  5  6  1  0
  5  4  1  0
  6  7  1  0
  8  2  1  0
  8  9  2  0
 10 11  1  0
 11 12  2  0
 12 13  1  0
 14 15  1  0
 14 13  2  0
 16 17  1  0
 16 15  1  1
 17  8  1  0
 18 16  1  0
 19 18  2  0
 20 14  1  0
 21 20  2  0
 21 11  1  0
 22 18  1  0
 23 22  1  0
 24 25  1  0
 23 24  1  1
 25 26  2  0
 27 23  1  0
 27 30  1  0
 28 27  2  0
 29 25  1  0
M  END
$$$$
