HGP.pdb
     RDKit          3D

 22 23  0  0  1  0  0  0  0  0999 V2000
   26.6524  -13.1725  -21.6695 N   0  0  0  0  0  0  0  0  0  0  0  0
   26.3593  -11.7857  -21.3856 C   0  0  1  0  0  0  0  0  0  0  0  0
   24.8964  -11.5952  -21.0304 C   0  0  0  0  0  0  0  0  0  0  0  0
   24.0925  -11.8211  -22.2469 C   0  0  0  0  0  0  0  0  0  0  0  0
   23.2352  -12.8599  -22.4956 C   0  0  0  0  0  0  0  0  0  0  0  0
   22.7258  -12.6558  -23.7231 N   0  0  0  0  0  0  0  0  0  0  0  0
   23.2304  -11.5346  -24.2471 C   0  0  0  0  0  0  0  0  0  0  0  0
   24.0765  -11.0271  -23.3211 N   0  0  0  0  0  0  0  0  0  0  0  0
   27.1955  -11.2816  -20.2661 C   0  0  0  0  0  0  0  0  0  0  0  0
   26.9159  -11.5274  -19.0717 O   0  0  0  0  0  0  0  0  0  0  0  0
   28.3381  -10.5018  -20.5801 N   0  0  0  0  0  0  0  0  0  0  0  0
   29.2032  -10.0388  -19.5199 C   0  0  0  0  0  0  0  0  0  0  0  0
   30.1249   -8.9790  -20.0000 C   0  0  0  0  0  0  0  0  0  0  0  0
   30.1068   -8.6967  -21.2232 O   0  0  0  0  0  0  0  0  0  0  0  0
   30.9990   -8.3047  -19.1096 N   0  0  0  0  0  0  0  0  0  0  0  0
   31.0771   -8.5608  -17.6847 C   0  0  0  0  0  0  0  0  0  0  0  0
   32.3916   -7.9240  -17.2909 C   0  0  0  0  0  0  0  0  0  0  0  0
   32.3486   -6.6547  -18.1521 C   0  0  0  0  0  0  0  0  0  0  0  0
   31.9391   -7.2661  -19.4852 C   0  0  1  0  0  0  0  0  0  0  0  0
   33.1534   -7.9363  -20.0352 C   0  0  0  0  0  0  0  0  0  0  0  0
   34.0123   -7.2731  -20.6802 O   0  0  0  0  0  0  0  0  0  0  0  0
   33.4065   -9.2889  -19.8768 O   0  0  0  0  0  0  0  0  0  0  0  0
  2  1  1  1
  2  3  1  0
  3  4  1  0
  4  5  2  0
  5  6  1  0
  7  6  1  0
  8  4  1  0
  8  7  2  0
  9  2  1  0
  9 11  1  0
 10  9  2  0
 12 11  1  0
 12 13  1  0
 13 15  1  0
 14 13  2  0
 15 16  1  0
 15 19  1  0
 16 17  1  0
 17 18  1  0
 19 20  1  1
 19 18  1  0
 20 22  1  0
 21 20  2  0
M  END
$$$$
