HGP.pdb
     RDKit          3D

 22 23  0  0  1  0  0  0  0  0999 V2000
   25.4947  -20.0438  -12.8822 N   0  0  0  0  0  0  0  0  0  0  0  0
   25.0206  -20.2597  -11.5338 C   0  0  1  0  0  0  0  0  0  0  0  0
   24.0948  -21.4600  -11.4626 C   0  0  0  0  0  0  0  0  0  0  0  0
   22.8246  -21.1033  -12.1234 C   0  0  0  0  0  0  0  0  0  0  0  0
   21.7200  -20.5333  -11.5484 C   0  0  0  0  0  0  0  0  0  0  0  0
   20.8062  -20.3899  -12.5243 N   0  0  0  0  0  0  0  0  0  0  0  0
   21.2966  -20.8466  -13.6807 C   0  0  0  0  0  0  0  0  0  0  0  0
   22.5490  -21.2861  -13.4177 N   0  0  0  0  0  0  0  0  0  0  0  0
   26.1538  -20.4705  -10.5967 C   0  0  0  0  0  0  0  0  0  0  0  0
   26.9827  -21.3929  -10.7614 O   0  0  0  0  0  0  0  0  0  0  0  0
   26.2826  -19.5915   -9.4908 N   0  0  0  0  0  0  0  0  0  0  0  0
   27.5079  -19.5769   -8.7257 C   0  0  0  0  0  0  0  0  0  0  0  0
   27.3137  -20.1832   -7.3848 C   0  0  0  0  0  0  0  0  0  0  0  0
   26.2373  -20.7918   -7.1672 O   0  0  0  0  0  0  0  0  0  0  0  0
   28.3088  -20.0808   -6.3795 N   0  0  0  0  0  0  0  0  0  0  0  0
   29.6124  -19.4768   -6.5732 C   0  0  0  0  0  0  0  0  0  0  0  0
   30.0990  -19.2445   -5.1597 C   0  0  0  0  0  0  0  0  0  0  0  0
   29.6016  -20.5300   -4.4854 C   0  0  0  0  0  0  0  0  0  0  0  0
   28.1751  -20.5601   -5.0171 C   0  0  1  0  0  0  0  0  0  0  0  0
   27.4151  -19.5301   -4.2506 C   0  0  0  0  0  0  0  0  0  0  0  0
   26.9692  -19.7909   -3.0987 O   0  0  0  0  0  0  0  0  0  0  0  0
   27.1587  -18.2603   -4.7411 O   0  0  0  0  0  0  0  0  0  0  0  0
  2  1  1  6
  2  3  1  0
  3  4  1  0
  4  5  2  0
  5  6  1  0
  7  6  1  0
  8  4  1  0
  8  7  2  0
  9  2  1  0
  9 11  1  0
 10  9  2  0
 12 11  1  0
 12 13  1  0
 13 15  1  0
 14 13  2  0
 15 16  1  0
 15 19  1  0
 16 17  1  0
 17 18  1  0
 19 20  1  1
 19 18  1  0
 20 22  1  0
 21 20  2  0
M  END
$$$$
