HGP.pdb
     RDKit          3D

 22 23  0  0  1  0  0  0  0  0999 V2000
   20.2075  -21.7665  -14.5227 N   0  0  0  0  0  0  0  0  0  0  0  0
   20.2682  -20.9455  -13.3345 C   0  0  1  0  0  0  0  0  0  0  0  0
   19.2411  -21.3875  -12.3086 C   0  0  0  0  0  0  0  0  0  0  0  0
   17.8978  -21.2004  -12.8897 C   0  0  0  0  0  0  0  0  0  0  0  0
   17.0971  -20.0935  -12.7928 C   0  0  0  0  0  0  0  0  0  0  0  0
   15.9707  -20.3701  -13.4729 N   0  0  0  0  0  0  0  0  0  0  0  0
   16.0380  -21.6015  -13.9879 C   0  0  0  0  0  0  0  0  0  0  0  0
   17.2383  -22.1051  -13.6186 N   0  0  0  0  0  0  0  0  0  0  0  0
   21.6182  -20.9988  -12.7170 C   0  0  0  0  0  0  0  0  0  0  0  0
   21.9117  -20.3121  -11.7134 O   0  0  0  0  0  0  0  0  0  0  0  0
   22.5875  -21.8579  -13.2956 N   0  0  0  0  0  0  0  0  0  0  0  0
   23.9536  -21.8151  -12.8279 C   0  0  0  0  0  0  0  0  0  0  0  0
   24.7200  -20.7360  -13.4998 C   0  0  0  0  0  0  0  0  0  0  0  0
   24.0876  -19.9381  -14.2344 O   0  0  0  0  0  0  0  0  0  0  0  0
   26.1210  -20.6069  -13.3206 N   0  0  0  0  0  0  0  0  0  0  0  0
   26.9264  -21.4806  -12.4900 C   0  0  0  0  0  0  0  0  0  0  0  0
   28.3371  -21.1978  -12.9576 C   0  0  0  0  0  0  0  0  0  0  0  0
   28.2590  -19.6782  -13.1562 C   0  0  0  0  0  0  0  0  0  0  0  0
   26.9536  -19.5906  -13.9351 C   0  0  1  0  0  0  0  0  0  0  0  0
   27.2582  -20.0391  -15.3251 C   0  0  0  0  0  0  0  0  0  0  0  0
   27.0109  -21.2243  -15.6827 O   0  0  0  0  0  0  0  0  0  0  0  0
   27.8154  -19.2070  -16.2822 O   0  0  0  0  0  0  0  0  0  0  0  0
  2  1  1  6
  2  3  1  0
  3  4  1  0
  4  5  2  0
  5  6  1  0
  7  6  1  0
  8  4  1  0
  8  7  2  0
  9  2  1  0
  9 11  1  0
 10  9  2  0
 12 11  1  0
 12 13  1  0
 13 15  1  0
 14 13  2  0
 15 16  1  0
 15 19  1  0
 16 17  1  0
 17 18  1  0
 19 20  1  6
 19 18  1  0
 20 22  1  0
 21 20  2  0
M  END
$$$$
