HGP.pdb
     RDKit          3D

 22 23  0  0  1  0  0  0  0  0999 V2000
   19.8657  -11.6035  -17.4840 N   0  0  0  0  0  0  0  0  0  0  0  0
   19.1607  -11.2807  -16.2640 C   0  0  1  0  0  0  0  0  0  0  0  0
   19.1116  -12.4726  -15.3261 C   0  0  0  0  0  0  0  0  0  0  0  0
   18.3578  -13.5528  -15.9911 C   0  0  0  0  0  0  0  0  0  0  0  0
   17.0181  -13.5789  -16.2744 C   0  0  0  0  0  0  0  0  0  0  0  0
   16.7737  -14.7536  -16.8811 N   0  0  0  0  0  0  0  0  0  0  0  0
   17.9046  -15.4580  -16.9865 C   0  0  0  0  0  0  0  0  0  0  0  0
   18.8791  -14.7016  -16.4306 N   0  0  0  0  0  0  0  0  0  0  0  0
   19.8046  -10.1417  -15.5606 C   0  0  0  0  0  0  0  0  0  0  0  0
   19.2804   -9.6031  -14.5605 O   0  0  0  0  0  0  0  0  0  0  0  0
   21.0476   -9.6660  -16.0514 N   0  0  0  0  0  0  0  0  0  0  0  0
   21.7180   -8.5808  -15.3732 C   0  0  0  0  0  0  0  0  0  0  0  0
   21.1018   -7.2727  -15.7085 C   0  0  0  0  0  0  0  0  0  0  0  0
   20.2705   -7.2403  -16.6488 O   0  0  0  0  0  0  0  0  0  0  0  0
   21.4382   -6.0955  -14.9927 N   0  0  0  0  0  0  0  0  0  0  0  0
   22.3099   -6.0596  -13.8347 C   0  0  0  0  0  0  0  0  0  0  0  0
   22.6687   -4.5946  -13.7178 C   0  0  0  0  0  0  0  0  0  0  0  0
   21.3177   -3.9544  -14.0640 C   0  0  0  0  0  0  0  0  0  0  0  0
   20.9658   -4.7606  -15.3069 C   0  0  1  0  0  0  0  0  0  0  0  0
   21.8176   -4.2307  -16.4113 C   0  0  0  0  0  0  0  0  0  0  0  0
   21.4358   -3.2394  -17.0933 O   0  0  0  0  0  0  0  0  0  0  0  0
   23.0450   -4.7778  -16.7475 O   0  0  0  0  0  0  0  0  0  0  0  0
  2  1  1  6
  2  3  1  0
  3  4  1  0
  4  5  2  0
  5  6  1  0
  7  6  1  0
  8  4  1  0
  8  7  2  0
  9  2  1  0
  9 11  1  0
 10  9  2  0
 12 11  1  0
 12 13  1  0
 13 15  1  0
 14 13  2  0
 15 16  1  0
 15 19  1  0
 16 17  1  0
 17 18  1  0
 19 20  1  6
 19 18  1  0
 20 22  1  0
 21 20  2  0
M  END
$$$$
