HGP.pdb
     RDKit          3D

 22 23  0  0  1  0  0  0  0  0999 V2000
   14.8808  -17.6071    3.3052 N   0  0  0  0  0  0  0  0  0  0  0  0
   16.1135  -17.5643    4.0590 C   0  0  1  0  0  0  0  0  0  0  0  0
   17.2210  -18.3157    3.3438 C   0  0  0  0  0  0  0  0  0  0  0  0
   16.8626  -19.7467    3.3124 C   0  0  0  0  0  0  0  0  0  0  0  0
   17.1080  -20.6864    4.2782 C   0  0  0  0  0  0  0  0  0  0  0  0
   16.6078  -21.8485    3.8232 N   0  0  0  0  0  0  0  0  0  0  0  0
   16.0622  -21.6704    2.6162 C   0  0  0  0  0  0  0  0  0  0  0  0
   16.2273  -20.3624    2.3115 N   0  0  0  0  0  0  0  0  0  0  0  0
   16.5521  -16.1633    4.2862 C   0  0  0  0  0  0  0  0  0  0  0  0
   16.5545  -15.3158    3.3660 O   0  0  0  0  0  0  0  0  0  0  0  0
   16.9762  -15.7956    5.5889 N   0  0  0  0  0  0  0  0  0  0  0  0
   17.4162  -14.4436    5.8446 C   0  0  0  0  0  0  0  0  0  0  0  0
   18.8089  -14.4176    6.3573 C   0  0  0  0  0  0  0  0  0  0  0  0
   19.4128  -15.5126    6.4692 O   0  0  0  0  0  0  0  0  0  0  0  0
   19.4406  -13.1979    6.7106 N   0  0  0  0  0  0  0  0  0  0  0  0
   18.8355  -11.8883    6.5670 C   0  0  0  0  0  0  0  0  0  0  0  0
   19.7036  -11.0091    7.4401 C   0  0  0  0  0  0  0  0  0  0  0  0
   21.0873  -11.5921    7.1238 C   0  0  0  0  0  0  0  0  0  0  0  0
   20.7758  -13.0760    7.2640 C   0  0  1  0  0  0  0  0  0  0  0  0
   20.6830  -13.3535    8.7270 C   0  0  0  0  0  0  0  0  0  0  0  0
   19.5633  -13.3413    9.3098 O   0  0  0  0  0  0  0  0  0  0  0  0
   21.7878  -13.6335    9.5142 O   0  0  0  0  0  0  0  0  0  0  0  0
  2  1  1  6
  2  3  1  0
  3  4  1  0
  4  5  2  0
  5  6  1  0
  7  6  1  0
  8  4  1  0
  8  7  2  0
  9  2  1  0
  9 11  1  0
 10  9  2  0
 12 11  1  0
 12 13  1  0
 13 15  1  0
 14 13  2  0
 15 16  1  0
 15 19  1  0
 16 17  1  0
 17 18  1  0
 19 20  1  1
 19 18  1  0
 20 22  1  0
 21 20  2  0
M  END
$$$$
