HGP.pdb
     RDKit          3D

 22 23  0  0  1  0  0  0  0  0999 V2000
   33.6387  -31.0375  -18.6581 N   0  0  0  0  0  0  0  0  0  0  0  0
   32.2483  -30.8596  -19.0109 C   0  0  1  0  0  0  0  0  0  0  0  0
   31.4589  -32.1374  -18.7943 C   0  0  0  0  0  0  0  0  0  0  0  0
   31.9627  -33.1565  -19.7350 C   0  0  0  0  0  0  0  0  0  0  0  0
   31.8221  -33.1719  -21.0973 C   0  0  0  0  0  0  0  0  0  0  0  0
   32.4363  -34.2842  -21.5370 N   0  0  0  0  0  0  0  0  0  0  0  0
   32.9521  -34.9600  -20.5058 C   0  0  0  0  0  0  0  0  0  0  0  0
   32.6511  -34.2495  -19.3943 N   0  0  0  0  0  0  0  0  0  0  0  0
   31.6296  -29.7711  -18.2115 C   0  0  0  0  0  0  0  0  0  0  0  0
   31.9499  -29.5642  -17.0200 O   0  0  0  0  0  0  0  0  0  0  0  0
   30.6507  -28.9546  -18.8339 N   0  0  0  0  0  0  0  0  0  0  0  0
   30.0523  -27.8654  -18.0973 C   0  0  0  0  0  0  0  0  0  0  0  0
   28.5718  -27.8939  -18.2001 C   0  0  0  0  0  0  0  0  0  0  0  0
   28.0492  -28.8104  -18.8806 O   0  0  0  0  0  0  0  0  0  0  0  0
   27.7701  -26.9197  -17.5523 N   0  0  0  0  0  0  0  0  0  0  0  0
   28.2837  -25.8813  -16.6806 C   0  0  0  0  0  0  0  0  0  0  0  0
   27.1364  -24.8985  -16.6008 C   0  0  0  0  0  0  0  0  0  0  0  0
   25.9501  -25.8694  -16.5298 C   0  0  0  0  0  0  0  0  0  0  0  0
   26.3276  -26.8148  -17.6622 C   0  0  1  0  0  0  0  0  0  0  0  0
   26.0247  -26.0956  -18.9338 C   0  0  0  0  0  0  0  0  0  0  0  0
   26.9336  -25.4676  -19.5447 O   0  0  0  0  0  0  0  0  0  0  0  0
   24.7638  -26.0729  -19.5068 O   0  0  0  0  0  0  0  0  0  0  0  0
  2  1  1  1
  2  3  1  0
  3  4  1  0
  4  5  2  0
  5  6  1  0
  7  6  1  0
  8  4  1  0
  8  7  2  0
  9  2  1  0
  9 11  1  0
 10  9  2  0
 12 11  1  0
 12 13  1  0
 13 15  1  0
 14 13  2  0
 15 16  1  0
 15 19  1  0
 16 17  1  0
 17 18  1  0
 19 20  1  6
 19 18  1  0
 20 22  1  0
 21 20  2  0
M  END
$$$$
