HGP.pdb
     RDKit          3D

 22 23  0  0  1  0  0  0  0  0999 V2000
   24.2810  -18.9993  -14.4520 N   0  0  0  0  0  0  0  0  0  0  0  0
   24.5605  -20.3743  -14.7992 C   0  0  1  0  0  0  0  0  0  0  0  0
   24.9911  -20.4981  -16.2490 C   0  0  0  0  0  0  0  0  0  0  0  0
   23.8980  -19.9907  -17.1004 C   0  0  0  0  0  0  0  0  0  0  0  0
   22.8543  -20.7047  -17.6263 C   0  0  0  0  0  0  0  0  0  0  0  0
   22.1085  -19.8367  -18.3323 N   0  0  0  0  0  0  0  0  0  0  0  0
   22.6448  -18.6143  -18.2670 C   0  0  0  0  0  0  0  0  0  0  0  0
   23.7541  -18.7241  -17.4999 N   0  0  0  0  0  0  0  0  0  0  0  0
   25.6261  -20.9382  -13.9314 C   0  0  0  0  0  0  0  0  0  0  0  0
   26.0194  -22.1195  -14.0532 O   0  0  0  0  0  0  0  0  0  0  0  0
   26.2013  -20.0985  -12.9432 N   0  0  0  0  0  0  0  0  0  0  0  0
   27.1451  -20.6474  -11.9973 C   0  0  0  0  0  0  0  0  0  0  0  0
   26.4510  -21.2687  -10.8417 C   0  0  0  0  0  0  0  0  0  0  0  0
   25.8694  -22.3656  -11.0281 O   0  0  0  0  0  0  0  0  0  0  0  0
   26.4425  -20.6470   -9.5669 N   0  0  0  0  0  0  0  0  0  0  0  0
   27.1203  -19.4039   -9.2553 C   0  0  0  0  0  0  0  0  0  0  0  0
   26.4763  -18.9760   -7.9549 C   0  0  0  0  0  0  0  0  0  0  0  0
   26.3505  -20.3347   -7.2529 C   0  0  0  0  0  0  0  0  0  0  0  0
   25.7609  -21.1554   -8.3919 C   0  0  1  0  0  0  0  0  0  0  0  0
   24.3257  -20.7621   -8.4993 C   0  0  0  0  0  0  0  0  0  0  0  0
   23.4777  -21.2089   -7.6777 O   0  0  0  0  0  0  0  0  0  0  0  0
   23.8482  -19.9071   -9.4788 O   0  0  0  0  0  0  0  0  0  0  0  0
  2  1  1  1
  2  3  1  0
  3  4  1  0
  4  5  2  0
  5  6  1  0
  7  6  1  0
  8  4  1  0
  8  7  2  0
  9  2  1  0
  9 11  1  0
 10  9  2  0
 12 11  1  0
 12 13  1  0
 13 15  1  0
 14 13  2  0
 15 16  1  0
 15 19  1  0
 16 17  1  0
 17 18  1  0
 19 20  1  6
 19 18  1  0
 20 22  1  0
 21 20  2  0
M  END
$$$$
