HGP.pdb
     RDKit          3D

 22 23  0  0  1  0  0  0  0  0999 V2000
   18.2441  -13.8292  -18.5915 N   0  0  0  0  0  0  0  0  0  0  0  0
   18.1589  -14.0776  -17.1700 C   0  0  1  0  0  0  0  0  0  0  0  0
   18.1386  -15.5655  -16.8727 C   0  0  0  0  0  0  0  0  0  0  0  0
   16.8945  -16.1308  -17.4294 C   0  0  0  0  0  0  0  0  0  0  0  0
   15.6210  -15.6516  -17.2731 C   0  0  0  0  0  0  0  0  0  0  0  0
   14.8095  -16.4809  -17.9524 N   0  0  0  0  0  0  0  0  0  0  0  0
   15.5248  -17.4546  -18.5237 C   0  0  0  0  0  0  0  0  0  0  0  0
   16.8163  -17.2253  -18.1913 N   0  0  0  0  0  0  0  0  0  0  0  0
   19.3019  -13.4592  -16.4504 C   0  0  0  0  0  0  0  0  0  0  0  0
   19.4094  -13.5226  -15.2056 O   0  0  0  0  0  0  0  0  0  0  0  0
   20.2882  -12.7826  -17.2131 N   0  0  0  0  0  0  0  0  0  0  0  0
   21.3868  -12.1261  -16.5430 C   0  0  0  0  0  0  0  0  0  0  0  0
   20.9373  -10.8910  -15.8535 C   0  0  0  0  0  0  0  0  0  0  0  0
   19.8449  -10.3852  -16.2102 O   0  0  0  0  0  0  0  0  0  0  0  0
   21.7132  -10.2981  -14.8250 N   0  0  0  0  0  0  0  0  0  0  0  0
   22.9446  -10.8553  -14.3007 C   0  0  0  0  0  0  0  0  0  0  0  0
   23.5683   -9.6873  -13.5689 C   0  0  0  0  0  0  0  0  0  0  0  0
   22.3177   -9.0634  -12.9353 C   0  0  0  0  0  0  0  0  0  0  0  0
   21.3960   -9.0556  -14.1472 C   0  0  1  0  0  0  0  0  0  0  0  0
   21.8544   -7.9368  -15.0215 C   0  0  0  0  0  0  0  0  0  0  0  0
   21.5240   -6.7464  -14.7618 O   0  0  0  0  0  0  0  0  0  0  0  0
   22.6481   -8.1292  -16.1403 O   0  0  0  0  0  0  0  0  0  0  0  0
  2  1  1  6
  2  3  1  0
  3  4  1  0
  4  5  2  0
  5  6  1  0
  7  6  1  0
  8  4  1  0
  8  7  2  0
  9  2  1  0
  9 11  1  0
 10  9  2  0
 12 11  1  0
 12 13  1  0
 13 15  1  0
 14 13  2  0
 15 16  1  0
 15 19  1  0
 16 17  1  0
 17 18  1  0
 19 20  1  6
 19 18  1  0
 20 22  1  0
 21 20  2  0
M  END
$$$$
