HGP.pdb
     RDKit          3D

 22 23  0  0  1  0  0  0  0  0999 V2000
   18.2748  -15.0402  -18.3133 N   0  0  0  0  0  0  0  0  0  0  0  0
   18.2712  -13.5948  -18.2915 C   0  0  1  0  0  0  0  0  0  0  0  0
   16.9081  -13.0549  -17.9001 C   0  0  0  0  0  0  0  0  0  0  0  0
   15.9272  -13.5028  -18.9073 C   0  0  0  0  0  0  0  0  0  0  0  0
   15.5967  -12.8785  -20.0807 C   0  0  0  0  0  0  0  0  0  0  0  0
   14.6636  -13.6421  -20.6758 N   0  0  0  0  0  0  0  0  0  0  0  0
   14.4008  -14.7139  -19.9218 C   0  0  0  0  0  0  0  0  0  0  0  0
   15.1913  -14.6149  -18.8282 N   0  0  0  0  0  0  0  0  0  0  0  0
   19.2861  -13.0726  -17.3409 C   0  0  0  0  0  0  0  0  0  0  0  0
   19.3648  -13.4912  -16.1646 O   0  0  0  0  0  0  0  0  0  0  0  0
   20.1817  -12.0720  -17.7981 N   0  0  0  0  0  0  0  0  0  0  0  0
   21.2203  -11.5844  -16.9203 C   0  0  0  0  0  0  0  0  0  0  0  0
   20.6935  -10.5709  -15.9724 C   0  0  0  0  0  0  0  0  0  0  0  0
   19.4777  -10.2686  -16.0537 O   0  0  0  0  0  0  0  0  0  0  0  0
   21.5326   -9.9614  -15.0051 N   0  0  0  0  0  0  0  0  0  0  0  0
   22.9158  -10.3271  -14.7708 C   0  0  0  0  0  0  0  0  0  0  0  0
   23.4553   -9.1525  -13.9847 C   0  0  0  0  0  0  0  0  0  0  0  0
   22.2546   -8.8581  -13.0757 C   0  0  0  0  0  0  0  0  0  0  0  0
   21.1386   -8.8893  -14.1111 C   0  0  1  0  0  0  0  0  0  0  0  0
   21.2320   -7.6105  -14.8740 C   0  0  0  0  0  0  0  0  0  0  0  0
   21.8240   -7.5733  -15.9884 O   0  0  0  0  0  0  0  0  0  0  0  0
   20.6907   -6.4190  -14.4203 O   0  0  0  0  0  0  0  0  0  0  0  0
  2  1  1  1
  2  3  1  0
  3  4  1  0
  4  5  2  0
  5  6  1  0
  7  6  1  0
  8  4  1  0
  8  7  2  0
  9  2  1  0
  9 11  1  0
 10  9  2  0
 12 11  1  0
 12 13  1  0
 13 15  1  0
 14 13  2  0
 15 16  1  0
 15 19  1  0
 16 17  1  0
 17 18  1  0
 19 20  1  6
 19 18  1  0
 20 22  1  0
 21 20  2  0
M  END
$$$$
