HGP.pdb
     RDKit          3D

 22 23  0  0  1  0  0  0  0  0999 V2000
   17.7295  -11.8502  -15.7635 N   0  0  0  0  0  0  0  0  0  0  0  0
   19.0954  -11.9901  -16.2153 C   0  0  1  0  0  0  0  0  0  0  0  0
   19.2017  -13.0071  -17.3366 C   0  0  0  0  0  0  0  0  0  0  0  0
   18.6738  -14.2941  -16.8444 C   0  0  0  0  0  0  0  0  0  0  0  0
   19.2196  -15.1035  -15.8837 C   0  0  0  0  0  0  0  0  0  0  0  0
   18.4024  -16.1642  -15.7616 N   0  0  0  0  0  0  0  0  0  0  0  0
   17.3726  -16.0478  -16.6054 C   0  0  0  0  0  0  0  0  0  0  0  0
   17.5534  -14.8836  -17.2707 N   0  0  0  0  0  0  0  0  0  0  0  0
   19.6360  -10.6911  -16.6917 C   0  0  0  0  0  0  0  0  0  0  0  0
   18.9775   -9.9390  -17.4440 O   0  0  0  0  0  0  0  0  0  0  0  0
   20.9362  -10.3104  -16.2713 N   0  0  0  0  0  0  0  0  0  0  0  0
   21.4690   -9.0263  -16.6636 C   0  0  0  0  0  0  0  0  0  0  0  0
   21.3765   -8.0428  -15.5557 C   0  0  0  0  0  0  0  0  0  0  0  0
   20.6860   -8.3520  -14.5538 O   0  0  0  0  0  0  0  0  0  0  0  0
   22.0448   -6.7936  -15.6225 N   0  0  0  0  0  0  0  0  0  0  0  0
   22.7904   -6.3219  -16.7729 C   0  0  0  0  0  0  0  0  0  0  0  0
   22.9316   -4.8390  -16.5087 C   0  0  0  0  0  0  0  0  0  0  0  0
   23.1892   -4.8549  -14.9960 C   0  0  0  0  0  0  0  0  0  0  0  0
   22.0837   -5.8069  -14.5601 C   0  0  1  0  0  0  0  0  0  0  0  0
   20.8097   -5.0327  -14.6187 C   0  0  0  0  0  0  0  0  0  0  0  0
   20.1054   -5.0399  -15.6663 O   0  0  0  0  0  0  0  0  0  0  0  0
   20.3341   -4.2795  -13.5579 O   0  0  0  0  0  0  0  0  0  0  0  0
  2  1  1  6
  2  3  1  0
  3  4  1  0
  4  5  2  0
  5  6  1  0
  7  6  1  0
  8  4  1  0
  8  7  2  0
  9  2  1  0
  9 11  1  0
 10  9  2  0
 12 11  1  0
 12 13  1  0
 13 15  1  0
 14 13  2  0
 15 16  1  0
 15 19  1  0
 16 17  1  0
 17 18  1  0
 19 20  1  6
 19 18  1  0
 20 22  1  0
 21 20  2  0
M  END
$$$$
