HGP.pdb
     RDKit          3D

 22 23  0  0  1  0  0  0  0  0999 V2000
   17.0412  -14.1836  -17.9471 N   0  0  0  0  0  0  0  0  0  0  0  0
   17.3094  -12.7642  -18.0028 C   0  0  1  0  0  0  0  0  0  0  0  0
   16.1129  -11.9602  -17.5288 C   0  0  0  0  0  0  0  0  0  0  0  0
   14.9537  -12.3184  -18.3686 C   0  0  0  0  0  0  0  0  0  0  0  0
   13.8083  -12.9580  -17.9752 C   0  0  0  0  0  0  0  0  0  0  0  0
   13.0343  -13.0729  -19.0686 N   0  0  0  0  0  0  0  0  0  0  0  0
   13.6504  -12.5319  -20.1241 C   0  0  0  0  0  0  0  0  0  0  0  0
   14.8397  -12.0678  -19.6758 N   0  0  0  0  0  0  0  0  0  0  0  0
   18.4870  -12.4102  -17.1694 C   0  0  0  0  0  0  0  0  0  0  0  0
   18.5748  -12.7572  -15.9707 O   0  0  0  0  0  0  0  0  0  0  0  0
   19.5304  -11.6576  -17.7672 N   0  0  0  0  0  0  0  0  0  0  0  0
   20.7517  -11.4174  -17.0339 C   0  0  0  0  0  0  0  0  0  0  0  0
   20.5407  -10.4344  -15.9420 C   0  0  0  0  0  0  0  0  0  0  0  0
   19.4007   -9.9208  -15.8281 O   0  0  0  0  0  0  0  0  0  0  0  0
   21.5896  -10.0839  -15.0541 N   0  0  0  0  0  0  0  0  0  0  0  0
   22.9198  -10.6597  -15.0869 C   0  0  0  0  0  0  0  0  0  0  0  0
   23.7366   -9.6895  -14.2623 C   0  0  0  0  0  0  0  0  0  0  0  0
   22.7336   -9.3685  -13.1461 C   0  0  0  0  0  0  0  0  0  0  0  0
   21.4925   -9.1052  -13.9881 C   0  0  1  0  0  0  0  0  0  0  0  0
   21.6726   -7.7559  -14.5987 C   0  0  0  0  0  0  0  0  0  0  0  0
   22.1025   -7.6416  -15.7801 O   0  0  0  0  0  0  0  0  0  0  0  0
   21.3877   -6.5786  -13.9267 O   0  0  0  0  0  0  0  0  0  0  0  0
  2  1  1  1
  2  3  1  0
  3  4  1  0
  4  5  2  0
  5  6  1  0
  7  6  1  0
  8  4  1  0
  8  7  2  0
  9  2  1  0
  9 11  1  0
 10  9  2  0
 12 11  1  0
 12 13  1  0
 13 15  1  0
 14 13  2  0
 15 16  1  0
 15 19  1  0
 16 17  1  0
 17 18  1  0
 19 20  1  6
 19 18  1  0
 20 22  1  0
 21 20  2  0
M  END
$$$$
