HGP.pdb
     RDKit          3D

 22 23  0  0  1  0  0  0  0  0999 V2000
   24.2597  -19.7133  -19.0530 N   0  0  0  0  0  0  0  0  0  0  0  0
   24.1028  -19.2415  -17.6957 C   0  0  1  0  0  0  0  0  0  0  0  0
   22.6428  -19.2341  -17.2821 C   0  0  0  0  0  0  0  0  0  0  0  0
   21.9509  -18.1802  -18.0487 C   0  0  0  0  0  0  0  0  0  0  0  0
   22.1697  -16.8295  -17.9891 C   0  0  0  0  0  0  0  0  0  0  0  0
   21.3147  -16.2604  -18.8568 N   0  0  0  0  0  0  0  0  0  0  0  0
   20.5744  -17.2002  -19.4526 C   0  0  0  0  0  0  0  0  0  0  0  0
   20.9793  -18.3861  -18.9422 N   0  0  0  0  0  0  0  0  0  0  0  0
   24.8676  -20.0879  -16.7443 C   0  0  0  0  0  0  0  0  0  0  0  0
   24.9553  -21.3276  -16.8882 O   0  0  0  0  0  0  0  0  0  0  0  0
   25.5092  -19.4549  -15.6488 N   0  0  0  0  0  0  0  0  0  0  0  0
   26.1118  -20.2575  -14.6098 C   0  0  0  0  0  0  0  0  0  0  0  0
   25.0809  -20.8687  -13.7342 C   0  0  0  0  0  0  0  0  0  0  0  0
   24.1011  -21.4282  -14.2850 O   0  0  0  0  0  0  0  0  0  0  0  0
   25.1948  -20.8244  -12.3212 N   0  0  0  0  0  0  0  0  0  0  0  0
   26.2934  -20.2063  -11.6052 C   0  0  0  0  0  0  0  0  0  0  0  0
   25.7507  -20.0584  -10.2008 C   0  0  0  0  0  0  0  0  0  0  0  0
   24.9897  -21.3837  -10.0616 C   0  0  0  0  0  0  0  0  0  0  0  0
   24.2385  -21.3855  -11.3860 C   0  0  1  0  0  0  0  0  0  0  0  0
   23.1226  -20.4057  -11.2420 C   0  0  0  0  0  0  0  0  0  0  0  0
   23.2496  -19.2252  -11.6709 O   0  0  0  0  0  0  0  0  0  0  0  0
   21.9127  -20.7213  -10.6460 O   0  0  0  0  0  0  0  0  0  0  0  0
  2  1  1  6
  2  3  1  0
  3  4  1  0
  4  5  2  0
  5  6  1  0
  7  6  1  0
  8  4  1  0
  8  7  2  0
  9  2  1  0
  9 11  1  0
 10  9  2  0
 12 11  1  0
 12 13  1  0
 13 15  1  0
 14 13  2  0
 15 16  1  0
 15 19  1  0
 16 17  1  0
 17 18  1  0
 19 20  1  1
 19 18  1  0
 20 22  1  0
 21 20  2  0
M  END
$$$$
