HGP.pdb
     RDKit          3D

 22 23  0  0  1  0  0  0  0  0999 V2000
   23.0272  -10.4714  -17.7314 N   0  0  0  0  0  0  0  0  0  0  0  0
   23.0973  -10.9403  -16.3659 C   0  0  1  0  0  0  0  0  0  0  0  0
   24.4591  -11.5355  -16.0589 C   0  0  0  0  0  0  0  0  0  0  0  0
   24.7115  -12.6295  -17.0163 C   0  0  0  0  0  0  0  0  0  0  0  0
   24.3161  -13.9363  -16.9082 C   0  0  0  0  0  0  0  0  0  0  0  0
   24.7655  -14.5686  -18.0065 N   0  0  0  0  0  0  0  0  0  0  0  0
   25.4229  -13.7099  -18.7918 C   0  0  0  0  0  0  0  0  0  0  0  0
   25.3818  -12.5111  -18.1657 N   0  0  0  0  0  0  0  0  0  0  0  0
   22.8277   -9.8374  -15.4080 C   0  0  0  0  0  0  0  0  0  0  0  0
   22.8678  -10.0145  -14.1702 O   0  0  0  0  0  0  0  0  0  0  0  0
   22.5182   -8.5554  -15.9305 N   0  0  0  0  0  0  0  0  0  0  0  0
   22.2368   -7.4627  -15.0285 C   0  0  0  0  0  0  0  0  0  0  0  0
   21.8465   -6.2377  -15.7704 C   0  0  0  0  0  0  0  0  0  0  0  0
   21.9834   -6.2399  -17.0184 O   0  0  0  0  0  0  0  0  0  0  0  0
   21.3352   -5.0999  -15.0956 N   0  0  0  0  0  0  0  0  0  0  0  0
   21.0834   -5.0356  -13.6693 C   0  0  0  0  0  0  0  0  0  0  0  0
   20.9618   -3.5507  -13.4066 C   0  0  0  0  0  0  0  0  0  0  0  0
   20.1816   -3.1161  -14.6545 C   0  0  0  0  0  0  0  0  0  0  0  0
   20.9896   -3.8390  -15.7237 C   0  0  1  0  0  0  0  0  0  0  0  0
   22.2518   -3.0629  -15.8985 C   0  0  0  0  0  0  0  0  0  0  0  0
   23.2441   -3.2796  -15.1487 O   0  0  0  0  0  0  0  0  0  0  0  0
   22.4090   -2.0847  -16.8665 O   0  0  0  0  0  0  0  0  0  0  0  0
  2  1  1  6
  2  3  1  0
  3  4  1  0
  4  5  2  0
  5  6  1  0
  7  6  1  0
  8  4  1  0
  8  7  2  0
  9  2  1  0
  9 11  1  0
 10  9  2  0
 12 11  1  0
 12 13  1  0
 13 15  1  0
 14 13  2  0
 15 16  1  0
 15 19  1  0
 16 17  1  0
 17 18  1  0
 19 20  1  1
 19 18  1  0
 20 22  1  0
 21 20  2  0
M  END
$$$$
