HGP.pdb
     RDKit          3D

 22 23  0  0  1  0  0  0  0  0999 V2000
   22.4414  -20.1358  -16.4594 N   0  0  0  0  0  0  0  0  0  0  0  0
   23.7067  -19.4522  -16.3140 C   0  0  1  0  0  0  0  0  0  0  0  0
   23.6141  -18.0167  -16.7972 C   0  0  0  0  0  0  0  0  0  0  0  0
   23.1246  -18.0286  -18.1891 C   0  0  0  0  0  0  0  0  0  0  0  0
   23.7747  -18.5089  -19.2947 C   0  0  0  0  0  0  0  0  0  0  0  0
   22.9541  -18.3127  -20.3417 N   0  0  0  0  0  0  0  0  0  0  0  0
   21.8224  -17.7311  -19.9331 C   0  0  0  0  0  0  0  0  0  0  0  0
   21.9414  -17.5606  -18.5961 N   0  0  0  0  0  0  0  0  0  0  0  0
   24.1553  -19.4548  -14.8979 C   0  0  0  0  0  0  0  0  0  0  0  0
   23.4924  -18.8974  -13.9952 O   0  0  0  0  0  0  0  0  0  0  0  0
   25.3714  -20.1126  -14.5803 N   0  0  0  0  0  0  0  0  0  0  0  0
   25.8256  -20.1568  -13.2097 C   0  0  0  0  0  0  0  0  0  0  0  0
   24.8985  -20.9448  -12.3595 C   0  0  0  0  0  0  0  0  0  0  0  0
   24.0895  -21.7150  -12.9325 O   0  0  0  0  0  0  0  0  0  0  0  0
   24.9224  -20.8342  -10.9458 N   0  0  0  0  0  0  0  0  0  0  0  0
   25.8153  -19.9646  -10.2052 C   0  0  0  0  0  0  0  0  0  0  0  0
   25.1774  -19.9006   -8.8349 C   0  0  0  0  0  0  0  0  0  0  0  0
   24.7238  -21.3580   -8.6770 C   0  0  0  0  0  0  0  0  0  0  0  0
   24.0653  -21.5675  -10.0339 C   0  0  1  0  0  0  0  0  0  0  0  0
   22.7532  -20.8591   -9.9824 C   0  0  0  0  0  0  0  0  0  0  0  0
   22.6373  -19.6940  -10.4545 O   0  0  0  0  0  0  0  0  0  0  0  0
   21.6136  -21.4194   -9.4293 O   0  0  0  0  0  0  0  0  0  0  0  0
  2  1  1  1
  2  3  1  0
  3  4  1  0
  4  5  2  0
  5  6  1  0
  7  6  1  0
  8  4  1  0
  8  7  2  0
  9  2  1  0
  9 11  1  0
 10  9  2  0
 12 11  1  0
 12 13  1  0
 13 15  1  0
 14 13  2  0
 15 16  1  0
 15 19  1  0
 16 17  1  0
 17 18  1  0
 19 20  1  1
 19 18  1  0
 20 22  1  0
 21 20  2  0
M  END
$$$$
