HGP.pdb
     RDKit          3D

 22 23  0  0  1  0  0  0  0  0999 V2000
   25.4022  -21.3114  -16.8939 N   0  0  0  0  0  0  0  0  0  0  0  0
   26.0623  -20.5993  -15.8230 C   0  0  1  0  0  0  0  0  0  0  0  0
   25.2499  -19.3962  -15.3809 C   0  0  0  0  0  0  0  0  0  0  0  0
   25.1886  -18.4421  -16.5048 C   0  0  0  0  0  0  0  0  0  0  0  0
   24.0808  -18.0682  -17.2182 C   0  0  0  0  0  0  0  0  0  0  0  0
   24.4958  -17.1835  -18.1417 N   0  0  0  0  0  0  0  0  0  0  0  0
   25.8140  -16.9922  -18.0321 C   0  0  0  0  0  0  0  0  0  0  0  0
   26.2309  -17.7788  -17.0131 N   0  0  0  0  0  0  0  0  0  0  0  0
   26.2863  -21.4848  -14.6515 C   0  0  0  0  0  0  0  0  0  0  0  0
   25.5431  -22.4623  -14.4122 O   0  0  0  0  0  0  0  0  0  0  0  0
   27.3780  -21.1978  -13.7923 N   0  0  0  0  0  0  0  0  0  0  0  0
   27.5786  -21.9883  -12.5999 C   0  0  0  0  0  0  0  0  0  0  0  0
   26.4947  -21.7591  -11.6122 C   0  0  0  0  0  0  0  0  0  0  0  0
   25.3285  -22.0958  -11.9332 O   0  0  0  0  0  0  0  0  0  0  0  0
   26.7630  -21.1791  -10.3461 N   0  0  0  0  0  0  0  0  0  0  0  0
   28.0668  -20.7129   -9.9163 C   0  0  0  0  0  0  0  0  0  0  0  0
   27.7450  -19.8361   -8.7262 C   0  0  0  0  0  0  0  0  0  0  0  0
   26.6318  -20.6641   -8.0705 C   0  0  0  0  0  0  0  0  0  0  0  0
   25.7831  -20.9660   -9.2981 C   0  0  1  0  0  0  0  0  0  0  0  0
   25.0443  -19.7108   -9.6219 C   0  0  0  0  0  0  0  0  0  0  0  0
   25.4753  -18.9277  -10.5134 O   0  0  0  0  0  0  0  0  0  0  0  0
   23.8734  -19.3375   -8.9831 O   0  0  0  0  0  0  0  0  0  0  0  0
  2  1  1  6
  2  3  1  0
  3  4  1  0
  4  5  2  0
  5  6  1  0
  7  6  1  0
  8  4  1  0
  8  7  2  0
  9  2  1  0
  9 11  1  0
 10  9  2  0
 12 11  1  0
 12 13  1  0
 13 15  1  0
 14 13  2  0
 15 16  1  0
 15 19  1  0
 16 17  1  0
 17 18  1  0
 19 20  1  6
 19 18  1  0
 20 22  1  0
 21 20  2  0
M  END
$$$$
