DSY.pdb
     RDKit          3D

 27 27  0  0  1  0  0  0  0  0999 V2000
    9.3339  -18.9308   20.0326 N   0  0  0  0  0  0  0  0  0  0  0  0
   10.4947  -18.0778   20.0923 C   0  0  1  0  0  0  0  0  0  0  0  0
   11.1866  -17.9572   18.7407 C   0  0  0  0  0  0  0  0  0  0  0  0
   11.2379  -19.2924   18.0927 C   0  0  0  0  0  0  0  0  0  0  0  0
   10.5795  -20.2898   18.5348 O   0  0  0  0  0  0  0  0  0  0  0  0
   10.1844  -16.7860   20.7107 C   0  0  0  0  0  0  0  0  0  0  0  0
   11.1550  -15.9889   20.9480 O   0  0  0  0  0  0  0  0  0  0  0  0
   12.0146  -19.5323   16.9568 O   0  0  0  0  0  0  0  0  0  0  0  0
    6.4233  -15.6690   21.9572 O   0  0  0  0  0  0  0  0  0  0  0  0
    7.2411  -14.6641   21.4124 C   0  0  0  0  0  0  0  0  0  0  0  0
    8.6705  -15.0847   21.6094 C   0  0  2  0  0  0  0  0  0  0  0  0
    8.8639  -16.3815   21.0563 N   0  0  0  0  0  0  0  0  0  0  0  0
    9.0034  -14.9965   23.0514 C   0  0  0  0  0  0  0  0  0  0  0  0
    9.1185  -13.8435   23.5376 O   0  0  0  0  0  0  0  0  0  0  0  0
    6.0193  -10.6988   26.6122 O   0  0  0  0  0  0  0  0  0  0  0  0
    6.5681  -11.9680   26.4910 C   0  0  0  0  0  0  0  0  0  0  0  0
    5.8196  -13.0960   26.2960 C   0  0  0  0  0  0  0  0  0  0  0  0
    6.3931  -14.3479   26.1788 C   0  0  0  0  0  0  0  0  0  0  0  0
    7.7793  -14.4860   26.2592 C   0  0  0  0  0  0  0  0  0  0  0  0
    8.3432  -15.8149   26.1331 C   0  0  0  0  0  0  0  0  0  0  0  0
    9.5910  -15.9532   25.3244 C   0  0  2  0  0  0  0  0  0  0  0  0
    9.2001  -16.1027   23.9110 N   0  0  0  0  0  0  0  0  0  0  0  0
   10.2827  -17.1992   25.7284 C   0  0  0  0  0  0  0  0  0  0  0  0
   10.8757  -17.2852   26.9753 O   0  0  0  0  0  0  0  0  0  0  0  0
    8.4995  -13.3293   26.4555 C   0  0  0  0  0  0  0  0  0  0  0  0
    7.9357  -12.0797   26.5732 C   0  0  0  0  0  0  0  0  0  0  0  0
   10.3670  -18.2119   24.9886 O   0  0  0  0  0  0  0  0  0  0  0  0
  2  3  1  0
  2  1  1  6
  4  3  1  0
  4  8  1  0
  5  4  2  0
  6  2  1  0
  7  6  2  0
 10  9  1  0
 11 10  1  1
 11 12  1  0
 12  6  1  0
 13 22  1  0
 13 11  1  0
 14 13  2  0
 16 15  1  0
 17 16  2  0
 18 17  1  0
 19 25  1  0
 19 18  2  0
 20 19  1  0
 21 20  1  1
 21 23  1  0
 21 22  1  0
 23 24  1  0
 25 26  2  0
 26 16  1  0
 27 23  2  0
M  END
$$$$
