DSY.pdb
     RDKit          3D

 27 27  0  0  1  0  0  0  0  0999 V2000
   11.3992  -15.7308   18.1264 N   0  0  0  0  0  0  0  0  0  0  0  0
   11.8485  -15.5340   19.4821 C   0  0  1  0  0  0  0  0  0  0  0  0
   12.4240  -14.1403   19.6980 C   0  0  0  0  0  0  0  0  0  0  0  0
   13.8462  -14.1231   19.2711 C   0  0  0  0  0  0  0  0  0  0  0  0
   14.4295  -15.1550   18.8034 O   0  0  0  0  0  0  0  0  0  0  0  0
   10.8128  -15.8986   20.4526 C   0  0  0  0  0  0  0  0  0  0  0  0
    9.6441  -15.4068   20.2921 O   0  0  0  0  0  0  0  0  0  0  0  0
   14.6293  -12.9698   19.3588 O   0  0  0  0  0  0  0  0  0  0  0  0
   10.9013  -19.1975   22.6485 O   0  0  0  0  0  0  0  0  0  0  0  0
    9.6852  -18.5298   22.4232 C   0  0  0  0  0  0  0  0  0  0  0  0
    9.9675  -17.0537   22.4389 C   0  0  2  0  0  0  0  0  0  0  0  0
   11.0462  -16.7675   21.5560 N   0  0  0  0  0  0  0  0  0  0  0  0
   10.2126  -16.6258   23.8371 C   0  0  0  0  0  0  0  0  0  0  0  0
   11.4098  -16.4467   24.1739 O   0  0  0  0  0  0  0  0  0  0  0  0
    6.0197  -10.7009   25.5170 O   0  0  0  0  0  0  0  0  0  0  0  0
    6.5465  -11.9417   25.8479 C   0  0  0  0  0  0  0  0  0  0  0  0
    5.8487  -13.1118   25.7278 C   0  0  0  0  0  0  0  0  0  0  0  0
    6.3987  -14.3340   26.0651 C   0  0  0  0  0  0  0  0  0  0  0  0
    7.7072  -14.3968   26.5455 C   0  0  0  0  0  0  0  0  0  0  0  0
    8.2483  -15.6963   26.8897 C   0  0  0  0  0  0  0  0  0  0  0  0
    9.5181  -16.1066   26.2193 C   0  0  2  0  0  0  0  0  0  0  0  0
    9.2088  -16.4079   24.8099 N   0  0  0  0  0  0  0  0  0  0  0  0
   10.0022  -17.3585   26.8455 C   0  0  0  0  0  0  0  0  0  0  0  0
    9.9393  -18.5493   26.1441 O   0  0  0  0  0  0  0  0  0  0  0  0
    8.3783  -13.1995   26.6525 C   0  0  0  0  0  0  0  0  0  0  0  0
    7.8374  -11.9791   26.3188 C   0  0  0  0  0  0  0  0  0  0  0  0
   10.4803  -17.4085   28.0069 O   0  0  0  0  0  0  0  0  0  0  0  0
  2  3  1  0
  2  1  1  6
  4  3  1  0
  4  8  1  0
  5  4  2  0
  6  2  1  0
  7  6  2  0
 10  9  1  0
 11 10  1  1
 11 12  1  0
 12  6  1  0
 13 22  1  0
 13 11  1  0
 14 13  2  0
 16 15  1  0
 17 16  2  0
 18 17  1  0
 19 25  1  0
 19 18  2  0
 20 19  1  0
 21 20  1  1
 21 23  1  0
 21 22  1  0
 23 24  1  0
 25 26  2  0
 26 16  1  0
 27 23  2  0
M  END
$$$$
