DSY.pdb
     RDKit          3D

 27 27  0  0  1  0  0  0  0  0999 V2000
    8.8018  -18.6779   19.6239 N   0  0  0  0  0  0  0  0  0  0  0  0
    9.7098  -17.6562   19.1655 C   0  0  1  0  0  0  0  0  0  0  0  0
    9.7701  -17.5838   17.6453 C   0  0  0  0  0  0  0  0  0  0  0  0
   10.5048  -18.7646   17.1247 C   0  0  0  0  0  0  0  0  0  0  0  0
   10.4045  -19.9182   17.6567 O   0  0  0  0  0  0  0  0  0  0  0  0
    9.4379  -16.3658   19.8047 C   0  0  0  0  0  0  0  0  0  0  0  0
   10.2023  -15.3831   19.5153 O   0  0  0  0  0  0  0  0  0  0  0  0
   11.3520  -18.6777   16.0175 O   0  0  0  0  0  0  0  0  0  0  0  0
    6.1693  -15.5957   22.2228 O   0  0  0  0  0  0  0  0  0  0  0  0
    6.7114  -14.5831   21.4127 C   0  0  0  0  0  0  0  0  0  0  0  0
    8.1821  -14.8561   21.2669 C   0  0  2  0  0  0  0  0  0  0  0  0
    8.3715  -16.1581   20.7247 N   0  0  0  0  0  0  0  0  0  0  0  0
    8.8409  -14.6559   22.5799 C   0  0  0  0  0  0  0  0  0  0  0  0
    8.1744  -14.0622   23.4643 O   0  0  0  0  0  0  0  0  0  0  0  0
   10.3863  -14.9710   30.7570 O   0  0  0  0  0  0  0  0  0  0  0  0
   10.1490  -14.9836   29.3895 C   0  0  0  0  0  0  0  0  0  0  0  0
    9.7583  -13.8794   28.6834 C   0  0  0  0  0  0  0  0  0  0  0  0
    9.5289  -13.9208   27.3212 C   0  0  0  0  0  0  0  0  0  0  0  0
    9.6959  -15.1190   26.6259 C   0  0  0  0  0  0  0  0  0  0  0  0
    9.4445  -15.1229   25.1987 C   0  0  0  0  0  0  0  0  0  0  0  0
   10.6332  -15.1744   24.2962 C   0  0  2  0  0  0  0  0  0  0  0  0
   10.1509  -15.0784   22.9066 N   0  0  0  0  0  0  0  0  0  0  0  0
   11.2883  -16.4940   24.4491 C   0  0  0  0  0  0  0  0  0  0  0  0
   10.8697  -17.5647   23.6796 O   0  0  0  0  0  0  0  0  0  0  0  0
   10.0899  -16.2085   27.3694 C   0  0  0  0  0  0  0  0  0  0  0  0
   10.3202  -16.1750   28.7255 C   0  0  0  0  0  0  0  0  0  0  0  0
   12.2273  -16.7082   25.2568 O   0  0  0  0  0  0  0  0  0  0  0  0
  2  3  1  0
  2  1  1  6
  4  3  1  0
  4  8  1  0
  5  4  2  0
  6  2  1  0
  7  6  2  0
 10  9  1  0
 11 10  1  1
 11 12  1  0
 12  6  1  0
 13 22  1  0
 13 11  1  0
 14 13  2  0
 16 15  1  0
 17 16  2  0
 18 17  1  0
 19 25  1  0
 19 18  2  0
 20 19  1  0
 21 20  1  1
 21 23  1  0
 21 22  1  0
 23 24  1  0
 25 26  2  0
 26 16  1  0
 27 23  2  0
M  END
$$$$
