DSY.pdb
     RDKit          3D

 27 27  0  0  1  0  0  0  0  0999 V2000
   11.9687  -19.1536   18.1933 N   0  0  0  0  0  0  0  0  0  0  0  0
   12.7052  -18.0396   18.7365 C   0  0  1  0  0  0  0  0  0  0  0  0
   13.4083  -17.2344   17.6515 C   0  0  0  0  0  0  0  0  0  0  0  0
   14.5103  -18.0445   17.0731 C   0  0  0  0  0  0  0  0  0  0  0  0
   14.6649  -19.2791   17.3478 O   0  0  0  0  0  0  0  0  0  0  0  0
   11.8736  -17.2250   19.6267 C   0  0  0  0  0  0  0  0  0  0  0  0
   12.4037  -16.1911   20.1592 O   0  0  0  0  0  0  0  0  0  0  0  0
   15.4449  -17.4966   16.1913 O   0  0  0  0  0  0  0  0  0  0  0  0
    8.1703  -18.3620   20.9983 O   0  0  0  0  0  0  0  0  0  0  0  0
    8.3393  -16.9888   20.7510 C   0  0  0  0  0  0  0  0  0  0  0  0
    9.8102  -16.6903   20.8311 C   0  0  2  0  0  0  0  0  0  0  0  0
   10.5148  -17.5294   19.9232 N   0  0  0  0  0  0  0  0  0  0  0  0
   10.2535  -16.8311   22.2388 C   0  0  0  0  0  0  0  0  0  0  0  0
   10.8736  -17.8829   22.5358 O   0  0  0  0  0  0  0  0  0  0  0  0
   10.7613  -14.9938   31.0477 O   0  0  0  0  0  0  0  0  0  0  0  0
   10.5572  -14.9566   29.6753 C   0  0  0  0  0  0  0  0  0  0  0  0
    9.6937  -14.0883   29.0662 C   0  0  0  0  0  0  0  0  0  0  0  0
    9.5100  -14.0734   27.6965 C   0  0  0  0  0  0  0  0  0  0  0  0
   10.2196  -14.9656   26.8919 C   0  0  0  0  0  0  0  0  0  0  0  0
    9.9990  -14.9205   25.4604 C   0  0  0  0  0  0  0  0  0  0  0  0
   10.3555  -16.1401   24.6758 C   0  0  2  0  0  0  0  0  0  0  0  0
   10.0311  -15.8795   23.2617 N   0  0  0  0  0  0  0  0  0  0  0  0
    9.5009  -17.2621   25.1284 C   0  0  0  0  0  0  0  0  0  0  0  0
   10.0375  -18.2615   25.9203 O   0  0  0  0  0  0  0  0  0  0  0  0
   11.0792  -15.8239   27.5398 C   0  0  0  0  0  0  0  0  0  0  0  0
   11.2672  -15.8446   28.9027 C   0  0  0  0  0  0  0  0  0  0  0  0
    8.2844  -17.3662   24.8296 O   0  0  0  0  0  0  0  0  0  0  0  0
  2  3  1  0
  2  1  1  6
  4  3  1  0
  4  8  1  0
  5  4  2  0
  6  2  1  0
  7  6  2  0
 10  9  1  0
 11 10  1  1
 11 12  1  0
 12  6  1  0
 13 22  1  0
 13 11  1  0
 14 13  2  0
 16 15  1  0
 17 16  2  0
 18 17  1  0
 19 25  1  0
 19 18  2  0
 20 19  1  0
 21 20  1  1
 21 23  1  0
 21 22  1  0
 23 24  1  0
 25 26  2  0
 26 16  1  0
 27 23  2  0
M  END
$$$$
