DSY.pdb
     RDKit          3D

 27 27  0  0  1  0  0  0  0  0999 V2000
    7.3184  -16.5781   18.2029 N   0  0  0  0  0  0  0  0  0  0  0  0
    7.9172  -15.7395   19.2112 C   0  0  1  0  0  0  0  0  0  0  0  0
    7.6721  -14.2599   18.9449 C   0  0  0  0  0  0  0  0  0  0  0  0
    8.3840  -13.8581   17.7052 C   0  0  0  0  0  0  0  0  0  0  0  0
    9.2739  -14.5911   17.1627 O   0  0  0  0  0  0  0  0  0  0  0  0
    7.5380  -16.1639   20.5616 C   0  0  0  0  0  0  0  0  0  0  0  0
    6.2921  -16.2344   20.8379 O   0  0  0  0  0  0  0  0  0  0  0  0
    8.1179  -12.6478   17.0605 O   0  0  0  0  0  0  0  0  0  0  0  0
    9.2383  -18.9617   22.5397 O   0  0  0  0  0  0  0  0  0  0  0  0
    7.9394  -18.4836   22.7840 C   0  0  0  0  0  0  0  0  0  0  0  0
    8.0070  -16.9826   22.8208 C   0  0  2  0  0  0  0  0  0  0  0  0
    8.4848  -16.4984   21.5709 N   0  0  0  0  0  0  0  0  0  0  0  0
    8.8365  -16.5668   23.9771 C   0  0  0  0  0  0  0  0  0  0  0  0
   10.0220  -16.2294   23.7327 O   0  0  0  0  0  0  0  0  0  0  0  0
    5.6571  -10.6554   26.0147 O   0  0  0  0  0  0  0  0  0  0  0  0
    6.2981  -11.8376   26.3588 C   0  0  0  0  0  0  0  0  0  0  0  0
    5.7202  -13.0709   26.2337 C   0  0  0  0  0  0  0  0  0  0  0  0
    6.3823  -14.2321   26.5844 C   0  0  0  0  0  0  0  0  0  0  0  0
    7.6834  -14.1648   27.0841 C   0  0  0  0  0  0  0  0  0  0  0  0
    8.3441  -15.4038   27.4420 C   0  0  0  0  0  0  0  0  0  0  0  0
    9.2413  -16.0194   26.4191 C   0  0  2  0  0  0  0  0  0  0  0  0
    8.3969  -16.5235   25.3211 N   0  0  0  0  0  0  0  0  0  0  0  0
    9.9235  -17.1855   27.0265 C   0  0  0  0  0  0  0  0  0  0  0  0
   10.9273  -16.9888   27.9578 O   0  0  0  0  0  0  0  0  0  0  0  0
    8.2321  -12.9071   27.1956 C   0  0  0  0  0  0  0  0  0  0  0  0
    7.5792  -11.7467   26.8486 C   0  0  0  0  0  0  0  0  0  0  0  0
    9.6396  -18.3762   26.7407 O   0  0  0  0  0  0  0  0  0  0  0  0
  2  3  1  0
  2  1  1  6
  4  3  1  0
  4  8  1  0
  5  4  2  0
  6  2  1  0
  7  6  2  0
 10  9  1  0
 11 10  1  6
 11 12  1  0
 12  6  1  0
 13 22  1  0
 13 11  1  0
 14 13  2  0
 16 15  1  0
 17 16  2  0
 18 17  1  0
 19 25  1  0
 19 18  2  0
 20 19  1  0
 21 20  1  1
 21 23  1  0
 21 22  1  0
 23 24  1  0
 25 26  2  0
 26 16  1  0
 27 23  2  0
M  END
$$$$
