DSY.pdb
     RDKit          3D

 27 27  0  0  1  0  0  0  0  0999 V2000
   11.6199  -18.0727   19.7787 N   0  0  0  0  0  0  0  0  0  0  0  0
   10.7015  -17.0268   19.4029 C   0  0  1  0  0  0  0  0  0  0  0  0
   10.1694  -17.2133   17.9879 C   0  0  0  0  0  0  0  0  0  0  0  0
   11.1828  -16.7352   17.0135 C   0  0  0  0  0  0  0  0  0  0  0  0
   12.3327  -16.3214   17.3744 O   0  0  0  0  0  0  0  0  0  0  0  0
    9.6496  -16.8452   20.4069 C   0  0  0  0  0  0  0  0  0  0  0  0
    8.8360  -15.8720   20.2502 O   0  0  0  0  0  0  0  0  0  0  0  0
   10.9320  -16.7110   15.6396 O   0  0  0  0  0  0  0  0  0  0  0  0
    8.4056  -19.6723   23.0378 O   0  0  0  0  0  0  0  0  0  0  0  0
    7.5873  -18.5916   22.6664 C   0  0  0  0  0  0  0  0  0  0  0  0
    8.4739  -17.3918   22.4836 C   0  0  2  0  0  0  0  0  0  0  0  0
    9.4935  -17.6950   21.5384 N   0  0  0  0  0  0  0  0  0  0  0  0
    8.9941  -16.9722   23.8070 C   0  0  0  0  0  0  0  0  0  0  0  0
   10.2430  -16.9436   23.9425 O   0  0  0  0  0  0  0  0  0  0  0  0
    6.1896  -10.3595   25.5927 O   0  0  0  0  0  0  0  0  0  0  0  0
    6.5385  -11.6557   25.9460 C   0  0  0  0  0  0  0  0  0  0  0  0
    5.6326  -12.6738   26.0621 C   0  0  0  0  0  0  0  0  0  0  0  0
    6.0085  -13.9558   26.4158 C   0  0  0  0  0  0  0  0  0  0  0  0
    7.3512  -14.2405   26.6667 C   0  0  0  0  0  0  0  0  0  0  0  0
    7.7060  -15.5960   27.0364 C   0  0  0  0  0  0  0  0  0  0  0  0
    8.7701  -16.2669   26.2317 C   0  0  2  0  0  0  0  0  0  0  0  0
    8.1968  -16.6070   24.9170 N   0  0  0  0  0  0  0  0  0  0  0  0
    9.1388  -17.5375   26.8978 C   0  0  0  0  0  0  0  0  0  0  0  0
    8.7704  -18.7448   26.3317 O   0  0  0  0  0  0  0  0  0  0  0  0
    8.2336  -13.1915   26.5399 C   0  0  0  0  0  0  0  0  0  0  0  0
    7.8670  -11.9127   26.1882 C   0  0  0  0  0  0  0  0  0  0  0  0
    9.7834  -17.5891   27.9756 O   0  0  0  0  0  0  0  0  0  0  0  0
  2  3  1  0
  2  1  1  1
  4  3  1  0
  4  8  1  0
  5  4  2  0
  6  2  1  0
  7  6  2  0
 10  9  1  0
 11 10  1  1
 11 12  1  0
 12  6  1  0
 13 22  1  0
 13 11  1  0
 14 13  2  0
 16 15  1  0
 17 16  2  0
 18 17  1  0
 19 25  1  0
 19 18  2  0
 20 19  1  0
 21 20  1  1
 21 23  1  0
 21 22  1  0
 23 24  1  0
 25 26  2  0
 26 16  1  0
 27 23  2  0
M  END
$$$$
