DSY.pdb
     RDKit          3D

 27 27  0  0  1  0  0  0  0  0999 V2000
    8.6354  -18.5016   17.9777 N   0  0  0  0  0  0  0  0  0  0  0  0
    9.3813  -17.2874   18.1961 C   0  0  1  0  0  0  0  0  0  0  0  0
    9.6920  -16.5639   16.8922 C   0  0  0  0  0  0  0  0  0  0  0  0
   10.6258  -17.3872   16.0826 C   0  0  0  0  0  0  0  0  0  0  0  0
   10.2214  -18.3246   15.3201 O   0  0  0  0  0  0  0  0  0  0  0  0
    8.7429  -16.4352   19.2030 C   0  0  0  0  0  0  0  0  0  0  0  0
    9.3497  -15.3657   19.5518 O   0  0  0  0  0  0  0  0  0  0  0  0
   12.0069  -17.1804   16.1113 O   0  0  0  0  0  0  0  0  0  0  0  0
    5.5154  -17.6598   21.3908 O   0  0  0  0  0  0  0  0  0  0  0  0
    5.6133  -16.2698   21.2078 C   0  0  0  0  0  0  0  0  0  0  0  0
    7.0505  -15.9512   20.9046 C   0  0  2  0  0  0  0  0  0  0  0  0
    7.4896  -16.7408   19.8052 N   0  0  0  0  0  0  0  0  0  0  0  0
    7.8554  -16.1428   22.1347 C   0  0  0  0  0  0  0  0  0  0  0  0
    8.5263  -17.2023   22.2143 O   0  0  0  0  0  0  0  0  0  0  0  0
   11.1402  -14.7043   30.3443 O   0  0  0  0  0  0  0  0  0  0  0  0
   10.5319  -14.6196   29.0996 C   0  0  0  0  0  0  0  0  0  0  0  0
   11.1344  -15.0197   27.9388 C   0  0  0  0  0  0  0  0  0  0  0  0
   10.5046  -14.9238   26.7124 C   0  0  0  0  0  0  0  0  0  0  0  0
    9.2118  -14.4045   26.6354 C   0  0  0  0  0  0  0  0  0  0  0  0
    8.5852  -14.3185   25.3316 C   0  0  0  0  0  0  0  0  0  0  0  0
    8.6105  -15.5448   24.4797 C   0  0  2  0  0  0  0  0  0  0  0  0
    7.9221  -15.2313   23.2146 N   0  0  0  0  0  0  0  0  0  0  0  0
    7.8337  -16.6089   25.1566 C   0  0  0  0  0  0  0  0  0  0  0  0
    8.4931  -17.6215   25.8301 O   0  0  0  0  0  0  0  0  0  0  0  0
    8.6376  -14.0127   27.8237 C   0  0  0  0  0  0  0  0  0  0  0  0
    9.2582  -14.1051   29.0482 C   0  0  0  0  0  0  0  0  0  0  0  0
    6.5774  -16.6509   25.1574 O   0  0  0  0  0  0  0  0  0  0  0  0
  2  3  1  0
  2  1  1  6
  4  3  1  0
  4  8  1  0
  5  4  2  0
  6  2  1  0
  7  6  2  0
 10  9  1  0
 11 10  1  1
 11 12  1  0
 12  6  1  0
 13 22  1  0
 13 11  1  0
 14 13  2  0
 16 15  1  0
 17 16  2  0
 18 17  1  0
 19 25  1  0
 19 18  2  0
 20 19  1  0
 21 20  1  1
 21 23  1  0
 21 22  1  0
 23 24  1  0
 25 26  2  0
 26 16  1  0
 27 23  2  0
M  END
$$$$
