DSY.pdb
     RDKit          3D

 27 27  0  0  1  0  0  0  0  0999 V2000
    8.9085  -17.3488   18.7371 N   0  0  0  0  0  0  0  0  0  0  0  0
    8.1651  -17.5859   19.9494 C   0  0  1  0  0  0  0  0  0  0  0  0
    7.1636  -18.7229   19.7938 C   0  0  0  0  0  0  0  0  0  0  0  0
    6.5810  -18.6828   18.4285 C   0  0  0  0  0  0  0  0  0  0  0  0
    7.2988  -18.5390   17.3856 O   0  0  0  0  0  0  0  0  0  0  0  0
    9.0523  -17.7387   21.1057 C   0  0  0  0  0  0  0  0  0  0  0  0
    8.5172  -17.8043   22.2646 O   0  0  0  0  0  0  0  0  0  0  0  0
    5.2066  -18.8003   18.2087 O   0  0  0  0  0  0  0  0  0  0  0  0
   13.1656  -18.0507   20.8529 O   0  0  0  0  0  0  0  0  0  0  0  0
   12.4923  -18.7362   21.8787 C   0  0  0  0  0  0  0  0  0  0  0  0
   11.2360  -17.9714   22.1881 C   0  0  2  0  0  0  0  0  0  0  0  0
   10.4698  -17.8167   20.9989 N   0  0  0  0  0  0  0  0  0  0  0  0
   11.6012  -16.6872   22.8327 C   0  0  0  0  0  0  0  0  0  0  0  0
   11.7451  -15.6938   22.0768 O   0  0  0  0  0  0  0  0  0  0  0  0
   10.2991  -16.7955   30.6755 O   0  0  0  0  0  0  0  0  0  0  0  0
   10.5594  -16.2746   29.4155 C   0  0  0  0  0  0  0  0  0  0  0  0
   10.6676  -17.0449   28.2905 C   0  0  0  0  0  0  0  0  0  0  0  0
   10.9276  -16.4991   27.0478 C   0  0  0  0  0  0  0  0  0  0  0  0
   11.0881  -15.1192   26.9162 C   0  0  0  0  0  0  0  0  0  0  0  0
   11.3610  -14.5846   25.5972 C   0  0  0  0  0  0  0  0  0  0  0  0
   12.4023  -15.2777   24.7816 C   0  0  2  0  0  0  0  0  0  0  0  0
   11.7988  -16.5000   24.2209 N   0  0  0  0  0  0  0  0  0  0  0  0
   13.5051  -15.6971   25.6772 C   0  0  0  0  0  0  0  0  0  0  0  0
   13.7353  -17.0422   25.9039 O   0  0  0  0  0  0  0  0  0  0  0  0
   10.9721  -14.3766   28.0695 C   0  0  0  0  0  0  0  0  0  0  0  0
   10.7135  -14.9128   29.3100 C   0  0  0  0  0  0  0  0  0  0  0  0
   14.2664  -14.8846   26.2606 O   0  0  0  0  0  0  0  0  0  0  0  0
  2  3  1  0
  2  1  1  6
  4  3  1  0
  4  8  1  0
  5  4  2  0
  6  2  1  0
  7  6  2  0
 10  9  1  0
 11 10  1  6
 11 12  1  0
 12  6  1  0
 13 22  1  0
 13 11  1  0
 14 13  2  0
 16 15  1  0
 17 16  2  0
 18 17  1  0
 19 25  1  0
 19 18  2  0
 20 19  1  0
 21 20  1  1
 21 23  1  0
 21 22  1  0
 23 24  1  0
 25 26  2  0
 26 16  1  0
 27 23  2  0
M  END
$$$$
