DSY.pdb
     RDKit          3D

 27 27  0  0  1  0  0  0  0  0999 V2000
    8.9028  -19.0281   20.0160 N   0  0  0  0  0  0  0  0  0  0  0  0
   10.0555  -18.2157   19.7163 C   0  0  1  0  0  0  0  0  0  0  0  0
   10.3448  -18.1616   18.2218 C   0  0  0  0  0  0  0  0  0  0  0  0
   10.3804  -19.5424   17.6766 C   0  0  0  0  0  0  0  0  0  0  0  0
    9.3900  -20.0580   17.0626 O   0  0  0  0  0  0  0  0  0  0  0  0
    9.9638  -16.8953   20.3451 C   0  0  0  0  0  0  0  0  0  0  0  0
   11.0521  -16.2637   20.5696 O   0  0  0  0  0  0  0  0  0  0  0  0
   11.5064  -20.3587   17.8068 O   0  0  0  0  0  0  0  0  0  0  0  0
    6.5382  -15.3191   22.0098 O   0  0  0  0  0  0  0  0  0  0  0  0
    7.3676  -14.4204   21.3171 C   0  0  0  0  0  0  0  0  0  0  0  0
    8.7558  -14.9965   21.3093 C   0  0  2  0  0  0  0  0  0  0  0  0
    8.7297  -16.2889   20.7142 N   0  0  0  0  0  0  0  0  0  0  0  0
    9.2874  -14.9887   22.6932 C   0  0  0  0  0  0  0  0  0  0  0  0
   10.0094  -14.0128   23.0180 O   0  0  0  0  0  0  0  0  0  0  0  0
    5.5124  -11.0415   26.3763 O   0  0  0  0  0  0  0  0  0  0  0  0
    6.2347  -12.2234   26.2863 C   0  0  0  0  0  0  0  0  0  0  0  0
    7.5148  -12.3599   26.7482 C   0  0  0  0  0  0  0  0  0  0  0  0
    8.2108  -13.5494   26.6452 C   0  0  0  0  0  0  0  0  0  0  0  0
    7.6048  -14.6585   26.0539 C   0  0  0  0  0  0  0  0  0  0  0  0
    8.3671  -15.8876   25.9629 C   0  0  0  0  0  0  0  0  0  0  0  0
    9.5467  -15.8932   25.0472 C   0  0  2  0  0  0  0  0  0  0  0  0
    9.0457  -15.9886   23.6642 N   0  0  0  0  0  0  0  0  0  0  0  0
   10.3489  -17.1095   25.3142 C   0  0  0  0  0  0  0  0  0  0  0  0
   11.1002  -17.1994   26.4722 O   0  0  0  0  0  0  0  0  0  0  0  0
    6.3165  -14.4836   25.6012 C   0  0  0  0  0  0  0  0  0  0  0  0
    5.6174  -13.3027   25.7002 C   0  0  0  0  0  0  0  0  0  0  0  0
   10.3910  -18.0930   24.5325 O   0  0  0  0  0  0  0  0  0  0  0  0
  2  3  1  0
  2  1  1  6
  4  3  1  0
  4  8  1  0
  5  4  2  0
  6  2  1  0
  7  6  2  0
 10  9  1  0
 11 10  1  1
 11 12  1  0
 12  6  1  0
 13 22  1  0
 13 11  1  0
 14 13  2  0
 16 15  1  0
 17 16  2  0
 18 17  1  0
 19 25  1  0
 19 18  2  0
 20 19  1  0
 21 20  1  1
 21 23  1  0
 21 22  1  0
 23 24  1  0
 25 26  2  0
 26 16  1  0
 27 23  2  0
M  END
$$$$
