DSY.pdb
     RDKit          3D

 27 27  0  0  1  0  0  0  0  0999 V2000
   11.6260  -18.2344   18.6969 N   0  0  0  0  0  0  0  0  0  0  0  0
   12.0969  -18.3059   20.0576 C   0  0  1  0  0  0  0  0  0  0  0  0
   13.6027  -18.0978   20.1541 C   0  0  0  0  0  0  0  0  0  0  0  0
   14.2981  -19.3627   19.8056 C   0  0  0  0  0  0  0  0  0  0  0  0
   14.8807  -19.5334   18.6853 O   0  0  0  0  0  0  0  0  0  0  0  0
   11.3248  -17.4298   20.9430 C   0  0  0  0  0  0  0  0  0  0  0  0
   11.6939  -16.2105   21.0469 O   0  0  0  0  0  0  0  0  0  0  0  0
   14.3530  -20.4427   20.6898 O   0  0  0  0  0  0  0  0  0  0  0  0
    8.0055  -18.6170   23.1468 O   0  0  0  0  0  0  0  0  0  0  0  0
    8.0233  -17.3490   22.5409 C   0  0  0  0  0  0  0  0  0  0  0  0
    9.4582  -16.9132   22.4407 C   0  0  2  0  0  0  0  0  0  0  0  0
   10.1930  -17.8701   21.6860 N   0  0  0  0  0  0  0  0  0  0  0  0
    9.9912  -16.6955   23.8069 C   0  0  0  0  0  0  0  0  0  0  0  0
   10.6905  -17.6175   24.2966 O   0  0  0  0  0  0  0  0  0  0  0  0
    5.0304  -11.6296   26.2280 O   0  0  0  0  0  0  0  0  0  0  0  0
    6.2935  -12.2023   26.2860 C   0  0  0  0  0  0  0  0  0  0  0  0
    6.9841  -12.3848   27.4523 C   0  0  0  0  0  0  0  0  0  0  0  0
    8.2412  -12.9582   27.4806 C   0  0  0  0  0  0  0  0  0  0  0  0
    8.8421  -13.3709   26.2908 C   0  0  0  0  0  0  0  0  0  0  0  0
   10.1613  -13.9665   26.3609 C   0  0  0  0  0  0  0  0  0  0  0  0
   10.2844  -15.4017   25.9672 C   0  0  2  0  0  0  0  0  0  0  0  0
    9.7718  -15.5393   24.5920 N   0  0  0  0  0  0  0  0  0  0  0  0
    9.4132  -16.2121   26.8494 C   0  0  0  0  0  0  0  0  0  0  0  0
    8.2402  -16.7518   26.3527 O   0  0  0  0  0  0  0  0  0  0  0  0
    8.1172  -13.1716   25.1375 C   0  0  0  0  0  0  0  0  0  0  0  0
    6.8655  -12.6015   25.1015 C   0  0  0  0  0  0  0  0  0  0  0  0
    9.6802  -16.4470   28.0550 O   0  0  0  0  0  0  0  0  0  0  0  0
  2  3  1  0
  2  1  1  6
  4  3  1  0
  4  8  1  0
  5  4  2  0
  6  2  1  0
  7  6  2  0
 10  9  1  0
 11 10  1  1
 11 12  1  0
 12  6  1  0
 13 22  1  0
 13 11  1  0
 14 13  2  0
 16 15  1  0
 17 16  2  0
 18 17  1  0
 19 25  1  0
 19 18  2  0
 20 19  1  0
 21 20  1  1
 21 23  1  0
 21 22  1  0
 23 24  1  0
 25 26  2  0
 26 16  1  0
 27 23  2  0
M  END
$$$$
