DSY.pdb
     RDKit          3D

 27 27  0  0  1  0  0  0  0  0999 V2000
   11.4761  -18.5491   20.1983 N   0  0  0  0  0  0  0  0  0  0  0  0
   11.4002  -17.1585   20.5710 C   0  0  1  0  0  0  0  0  0  0  0  0
   11.3151  -16.2438   19.3560 C   0  0  0  0  0  0  0  0  0  0  0  0
   12.6318  -16.2122   18.6701 C   0  0  0  0  0  0  0  0  0  0  0  0
   12.7637  -16.4986   17.4355 O   0  0  0  0  0  0  0  0  0  0  0  0
   10.3450  -16.9212   21.5599 C   0  0  0  0  0  0  0  0  0  0  0  0
    9.1309  -17.0030   21.1692 O   0  0  0  0  0  0  0  0  0  0  0  0
   13.8061  -15.8656   19.3423 O   0  0  0  0  0  0  0  0  0  0  0  0
    9.7502  -19.0229   25.0355 O   0  0  0  0  0  0  0  0  0  0  0  0
    9.3646  -18.4424   23.8150 C   0  0  0  0  0  0  0  0  0  0  0  0
    9.6426  -16.9681   23.9048 C   0  0  2  0  0  0  0  0  0  0  0  0
   10.6076  -16.6067   22.9234 N   0  0  0  0  0  0  0  0  0  0  0  0
   10.0513  -16.6394   25.2914 C   0  0  0  0  0  0  0  0  0  0  0  0
   11.2567  -16.8337   25.5887 O   0  0  0  0  0  0  0  0  0  0  0  0
    6.4150  -10.5105   25.3936 O   0  0  0  0  0  0  0  0  0  0  0  0
    6.9690  -11.5774   26.0874 C   0  0  0  0  0  0  0  0  0  0  0  0
    8.3119  -11.8340   26.1259 C   0  0  0  0  0  0  0  0  0  0  0  0
    8.8362  -12.9044   26.8253 C   0  0  0  0  0  0  0  0  0  0  0  0
    7.9840  -13.7626   27.5212 C   0  0  0  0  0  0  0  0  0  0  0  0
    8.5712  -14.8746   28.2415 C   0  0  0  0  0  0  0  0  0  0  0  0
    9.6930  -15.6025   27.5769 C   0  0  2  0  0  0  0  0  0  0  0  0
    9.1934  -16.1300   26.2943 N   0  0  0  0  0  0  0  0  0  0  0  0
   10.0702  -16.7622   28.4176 C   0  0  0  0  0  0  0  0  0  0  0  0
   10.7670  -16.5619   29.5958 O   0  0  0  0  0  0  0  0  0  0  0  0
    6.6396  -13.4729   27.4598 C   0  0  0  0  0  0  0  0  0  0  0  0
    6.1102  -12.4093   26.7657 C   0  0  0  0  0  0  0  0  0  0  0  0
    9.7890  -17.9505   28.1194 O   0  0  0  0  0  0  0  0  0  0  0  0
  2  3  1  0
  2  1  1  6
  4  3  1  0
  4  8  1  0
  5  4  2  0
  6  2  1  0
  7  6  2  0
 10  9  1  0
 11 10  1  1
 11 12  1  0
 12  6  1  0
 13 22  1  0
 13 11  1  0
 14 13  2  0
 16 15  1  0
 17 16  2  0
 18 17  1  0
 19 25  1  0
 19 18  2  0
 20 19  1  0
 21 20  1  1
 21 23  1  0
 21 22  1  0
 23 24  1  0
 25 26  2  0
 26 16  1  0
 27 23  2  0
M  END
$$$$
