DSY.pdb
     RDKit          3D

 27 27  0  0  1  0  0  0  0  0999 V2000
    9.4230  -15.3246   18.0719 N   0  0  0  0  0  0  0  0  0  0  0  0
    8.6381  -14.3476   18.7846 C   0  0  1  0  0  0  0  0  0  0  0  0
    7.5332  -13.7580   17.9177 C   0  0  0  0  0  0  0  0  0  0  0  0
    7.9954  -13.6922   16.5080 C   0  0  0  0  0  0  0  0  0  0  0  0
    7.3116  -13.1282   15.5926 O   0  0  0  0  0  0  0  0  0  0  0  0
    8.1620  -14.8696   20.0684 C   0  0  0  0  0  0  0  0  0  0  0  0
    7.4911  -14.0840   20.8209 O   0  0  0  0  0  0  0  0  0  0  0  0
    9.2114  -14.2476   16.1032 O   0  0  0  0  0  0  0  0  0  0  0  0
    8.7290  -18.7341   21.2258 O   0  0  0  0  0  0  0  0  0  0  0  0
    7.5656  -18.0981   21.6921 C   0  0  0  0  0  0  0  0  0  0  0  0
    7.8456  -16.6225   21.7482 C   0  0  2  0  0  0  0  0  0  0  0  0
    8.4100  -16.1995   20.5122 N   0  0  0  0  0  0  0  0  0  0  0  0
    8.7048  -16.3403   22.9229 C   0  0  0  0  0  0  0  0  0  0  0  0
    9.9118  -16.0772   22.6929 O   0  0  0  0  0  0  0  0  0  0  0  0
    6.0842  -10.3100   25.8564 O   0  0  0  0  0  0  0  0  0  0  0  0
    6.6105  -11.5834   26.0236 C   0  0  0  0  0  0  0  0  0  0  0  0
    5.9131  -12.6182   26.5835 C   0  0  0  0  0  0  0  0  0  0  0  0
    6.4625  -13.8769   26.7379 C   0  0  0  0  0  0  0  0  0  0  0  0
    7.7699  -14.1196   26.3148 C   0  0  0  0  0  0  0  0  0  0  0  0
    8.3114  -15.4517   26.4947 C   0  0  0  0  0  0  0  0  0  0  0  0
    9.1588  -15.9987   25.3936 C   0  0  2  0  0  0  0  0  0  0  0  0
    8.2711  -16.3468   24.2695 N   0  0  0  0  0  0  0  0  0  0  0  0
    9.7949  -17.2517   25.8620 C   0  0  0  0  0  0  0  0  0  0  0  0
   10.8283  -17.1988   26.7802 O   0  0  0  0  0  0  0  0  0  0  0  0
    8.4402  -13.0548   25.7561 C   0  0  0  0  0  0  0  0  0  0  0  0
    7.9000  -11.7991   25.5992 C   0  0  0  0  0  0  0  0  0  0  0  0
    9.4447  -18.3923   25.4666 O   0  0  0  0  0  0  0  0  0  0  0  0
  2  3  1  0
  2  1  1  6
  4  3  1  0
  4  8  1  0
  5  4  2  0
  6  2  1  0
  7  6  2  0
 10  9  1  0
 11 10  1  6
 11 12  1  0
 12  6  1  0
 13 22  1  0
 13 11  1  0
 14 13  2  0
 16 15  1  0
 17 16  2  0
 18 17  1  0
 19 25  1  0
 19 18  2  0
 20 19  1  0
 21 20  1  1
 21 23  1  0
 21 22  1  0
 23 24  1  0
 25 26  2  0
 26 16  1  0
 27 23  2  0
M  END
$$$$
