DSY.pdb
     RDKit          3D

 27 27  0  0  1  0  0  0  0  0999 V2000
   16.0848  -21.9445   23.4389 N   0  0  0  0  0  0  0  0  0  0  0  0
   16.0781  -22.2735   24.8425 C   0  0  1  0  0  0  0  0  0  0  0  0
   17.4857  -22.3521   25.4189 C   0  0  0  0  0  0  0  0  0  0  0  0
   18.2404  -23.4299   24.7306 C   0  0  0  0  0  0  0  0  0  0  0  0
   19.1299  -23.1844   23.8518 O   0  0  0  0  0  0  0  0  0  0  0  0
   15.1818  -21.3947   25.5988 C   0  0  0  0  0  0  0  0  0  0  0  0
   15.6333  -20.2584   25.9709 O   0  0  0  0  0  0  0  0  0  0  0  0
   18.0170  -24.7806   25.0082 O   0  0  0  0  0  0  0  0  0  0  0  0
   11.1266  -21.8657   25.8277 O   0  0  0  0  0  0  0  0  0  0  0  0
   11.7422  -20.6074   25.9416 C   0  0  0  0  0  0  0  0  0  0  0  0
   13.0519  -20.8048   26.6521 C   0  0  2  0  0  0  0  0  0  0  0  0
   13.8435  -21.7452   25.9352 N   0  0  0  0  0  0  0  0  0  0  0  0
   12.7828  -21.1998   28.0555 C   0  0  0  0  0  0  0  0  0  0  0  0
   12.7333  -22.4316   28.2986 O   0  0  0  0  0  0  0  0  0  0  0  0
   18.4791  -21.3177   32.0112 O   0  0  0  0  0  0  0  0  0  0  0  0
   17.1333  -20.9984   31.8943 C   0  0  0  0  0  0  0  0  0  0  0  0
   16.1576  -21.5536   32.6755 C   0  0  0  0  0  0  0  0  0  0  0  0
   14.8244  -21.2169   32.5372 C   0  0  0  0  0  0  0  0  0  0  0  0
   14.4416  -20.2818   31.5748 C   0  0  0  0  0  0  0  0  0  0  0  0
   13.0343  -19.9558   31.4590 C   0  0  0  0  0  0  0  0  0  0  0  0
   12.2265  -20.7524   30.4881 C   0  0  2  0  0  0  0  0  0  0  0  0
   12.5785  -20.3018   29.1294 N   0  0  0  0  0  0  0  0  0  0  0  0
   10.7928  -20.4466   30.7002 C   0  0  0  0  0  0  0  0  0  0  0  0
   10.1052  -19.6866   29.7710 O   0  0  0  0  0  0  0  0  0  0  0  0
   15.4506  -19.7443   30.8078 C   0  0  0  0  0  0  0  0  0  0  0  0
   16.7798  -20.0747   30.9397 C   0  0  0  0  0  0  0  0  0  0  0  0
   10.1433  -20.8456   31.6997 O   0  0  0  0  0  0  0  0  0  0  0  0
  2  3  1  0
  2  1  1  6
  4  3  1  0
  4  8  1  0
  5  4  2  0
  6  2  1  0
  7  6  2  0
 10  9  1  0
 11 10  1  6
 11 12  1  0
 12  6  1  0
 13 22  1  0
 13 11  1  0
 14 13  2  0
 16 15  1  0
 17 16  2  0
 18 17  1  0
 19 25  1  0
 19 18  2  0
 20 19  1  0
 21 20  1  1
 21 23  1  0
 21 22  1  0
 23 24  1  0
 25 26  2  0
 26 16  1  0
 27 23  2  0
M  END
$$$$
