DSY.pdb
     RDKit          3D

 27 27  0  0  1  0  0  0  0  0999 V2000
   10.3191  -15.9446   19.5494 N   0  0  0  0  0  0  0  0  0  0  0  0
    9.1105  -16.7303   19.5721 C   0  0  1  0  0  0  0  0  0  0  0  0
    9.0900  -17.7812   18.4698 C   0  0  0  0  0  0  0  0  0  0  0  0
    9.7259  -17.2261   17.2481 C   0  0  0  0  0  0  0  0  0  0  0  0
    9.5172  -16.0325   16.8539 O   0  0  0  0  0  0  0  0  0  0  0  0
    8.8446  -17.2737   20.9068 C   0  0  0  0  0  0  0  0  0  0  0  0
    7.9133  -18.1411   21.0239 O   0  0  0  0  0  0  0  0  0  0  0  0
   10.5926  -17.9843   16.4574 O   0  0  0  0  0  0  0  0  0  0  0  0
   11.0118  -18.9952   23.0658 O   0  0  0  0  0  0  0  0  0  0  0  0
    9.6266  -18.9332   23.2955 C   0  0  0  0  0  0  0  0  0  0  0  0
    9.2336  -17.4826   23.3150 C   0  0  2  0  0  0  0  0  0  0  0  0
    9.5691  -16.8835   22.0686 N   0  0  0  0  0  0  0  0  0  0  0  0
    9.8715  -16.8272   24.4818 C   0  0  0  0  0  0  0  0  0  0  0  0
   11.0263  -16.3625   24.3103 O   0  0  0  0  0  0  0  0  0  0  0  0
    6.2862  -10.9787   25.3585 O   0  0  0  0  0  0  0  0  0  0  0  0
    6.9608  -12.0469   25.9334 C   0  0  0  0  0  0  0  0  0  0  0  0
    8.3191  -12.1965   25.8783 C   0  0  0  0  0  0  0  0  0  0  0  0
    8.9648  -13.2709   26.4601 C   0  0  0  0  0  0  0  0  0  0  0  0
    8.2241  -14.2453   27.1301 C   0  0  0  0  0  0  0  0  0  0  0  0
    8.9367  -15.3575   27.7260 C   0  0  0  0  0  0  0  0  0  0  0  0
    9.9711  -16.0336   26.8875 C   0  0  2  0  0  0  0  0  0  0  0  0
    9.2828  -16.6890   25.7608 N   0  0  0  0  0  0  0  0  0  0  0  0
   10.6150  -17.0964   27.6937 C   0  0  0  0  0  0  0  0  0  0  0  0
   11.4612  -16.7556   28.7337 O   0  0  0  0  0  0  0  0  0  0  0  0
    6.8602  -14.0612   27.1652 C   0  0  0  0  0  0  0  0  0  0  0  0
    6.2104  -12.9943   26.5884 C   0  0  0  0  0  0  0  0  0  0  0  0
   10.4359  -18.3231   27.4864 O   0  0  0  0  0  0  0  0  0  0  0  0
  2  3  1  0
  2  1  1  1
  4  3  1  0
  4  8  1  0
  5  4  2  0
  6  2  1  0
  7  6  2  0
 10  9  1  0
 11 10  1  6
 11 12  1  0
 12  6  1  0
 13 22  1  0
 13 11  1  0
 14 13  2  0
 16 15  1  0
 17 16  2  0
 18 17  1  0
 19 25  1  0
 19 18  2  0
 20 19  1  0
 21 20  1  1
 21 23  1  0
 21 22  1  0
 23 24  1  0
 25 26  2  0
 26 16  1  0
 27 23  2  0
M  END
$$$$
