TDR.pdb
     RDKit          3D

 27 26  0  0  1  0  0  0  0  0999 V2000
    9.2872  -12.4424   19.2858 C   0  0  0  0  0  0  0  0  0  0  0  0
    8.2520  -13.2957   18.6099 C   0  0  1  0  0  0  0  0  0  0  0  0
    7.5532  -12.5111   17.7017 O   0  0  0  0  0  0  0  0  0  0  0  0
    8.8965  -14.4967   17.9054 C   0  0  2  0  0  0  0  0  0  0  0  0
    7.8805  -15.3031   17.2797 N   0  0  0  0  0  0  0  0  0  0  0  0
    9.6239  -15.2322   18.9763 C   0  0  0  0  0  0  0  0  0  0  0  0
    8.9537  -15.9478   19.7572 O   0  0  0  0  0  0  0  0  0  0  0  0
   11.0202  -15.1657   19.1561 N   0  0  0  0  0  0  0  0  0  0  0  0
   11.7659  -15.8093   20.2125 C   0  0  1  0  0  0  0  0  0  0  0  0
   13.2284  -15.5379   19.9704 C   0  0  0  0  0  0  0  0  0  0  0  0
   14.0194  -16.1818   21.0437 C   0  0  0  0  0  0  0  0  0  0  0  0
   15.0646  -15.6371   21.4737 O   0  0  0  0  0  0  0  0  0  0  0  0
   11.2840  -15.4581   21.5565 C   0  0  0  0  0  0  0  0  0  0  0  0
   11.5369  -14.3223   22.0392 O   0  0  0  0  0  0  0  0  0  0  0  0
   13.6584  -17.4043   21.6256 O   0  0  0  0  0  0  0  0  0  0  0  0
    5.2729  -11.8117   25.7288 N   0  0  0  0  0  0  0  0  0  0  0  0
    6.2040  -12.3725   26.6253 C   0  0  0  0  0  0  0  0  0  0  0  0
    6.4533  -11.8082   27.7643 N   0  0  0  0  0  0  0  0  0  0  0  0
    6.8965  -13.5678   26.3098 N   0  0  0  0  0  0  0  0  0  0  0  0
    7.3052  -13.8886   24.9676 C   0  0  0  0  0  0  0  0  0  0  0  0
    7.9750  -15.2419   25.0009 C   0  0  0  0  0  0  0  0  0  0  0  0
    8.4869  -15.6557   23.6410 C   0  0  0  0  0  0  0  0  0  0  0  0
    9.9574  -15.9309   23.6728 C   0  0  2  0  0  0  0  0  0  0  0  0
   10.5238  -16.3314   22.3998 N   0  0  0  0  0  0  0  0  0  0  0  0
   10.2974  -16.9354   24.7342 C   0  0  0  0  0  0  0  0  0  0  0  0
   10.5320  -18.1271   24.3575 O   0  0  0  0  0  0  0  0  0  0  0  0
   10.3747  -16.6744   26.0680 O   0  0  0  0  0  0  0  0  0  0  0  0
  2  1  1  6
  2  3  1  0
  4  2  1  0
  4  5  1  1
  6  4  1  0
  6  7  2  0
  8  6  1  0
  9  8  1  0
  9 10  1  1
 10 11  1  0
 11 12  2  0
 13  9  1  0
 14 13  2  0
 15 11  1  0
 17 18  2  0
 17 16  1  0
 19 17  1  0
 20 19  1  0
 21 20  1  0
 22 21  1  0
 23 22  1  6
 23 24  1  0
 24 13  1  0
 25 23  1  0
 26 25  2  0
 27 25  1  0
M  END
$$$$
