TDR.pdb
     RDKit          3D

 27 26  0  0  1  0  0  0  0  0999 V2000
    7.9881  -15.9064   18.1873 C   0  0  0  0  0  0  0  0  0  0  0  0
    8.5424  -14.5730   17.7736 C   0  0  1  0  0  0  0  0  0  0  0  0
    8.0620  -14.2653   16.5075 O   0  0  0  0  0  0  0  0  0  0  0  0
    8.1622  -13.4778   18.7787 C   0  0  2  0  0  0  0  0  0  0  0  0
    8.5501  -12.1875   18.2703 N   0  0  0  0  0  0  0  0  0  0  0  0
    8.8823  -13.8327   20.0325 C   0  0  0  0  0  0  0  0  0  0  0  0
   10.1096  -13.5855   20.0956 O   0  0  0  0  0  0  0  0  0  0  0  0
    8.2584  -14.4291   21.1467 N   0  0  0  0  0  0  0  0  0  0  0  0
    8.9250  -14.8742   22.3484 C   0  0  1  0  0  0  0  0  0  0  0  0
    7.8619  -15.2615   23.3439 C   0  0  0  0  0  0  0  0  0  0  0  0
    8.5168  -15.7172   24.5913 C   0  0  0  0  0  0  0  0  0  0  0  0
    9.4281  -15.0320   25.1148 O   0  0  0  0  0  0  0  0  0  0  0  0
    9.9435  -15.9042   22.0962 C   0  0  0  0  0  0  0  0  0  0  0  0
    9.5985  -17.0427   21.6818 O   0  0  0  0  0  0  0  0  0  0  0  0
    8.1682  -16.9081   25.2421 O   0  0  0  0  0  0  0  0  0  0  0  0
   16.4960  -15.2036   19.2314 N   0  0  0  0  0  0  0  0  0  0  0  0
   15.6550  -14.5828   18.2867 C   0  0  0  0  0  0  0  0  0  0  0  0
   16.0158  -13.4903   17.6917 N   0  0  0  0  0  0  0  0  0  0  0  0
   14.3903  -15.1318   17.9592 N   0  0  0  0  0  0  0  0  0  0  0  0
   13.8019  -16.2097   18.7098 C   0  0  0  0  0  0  0  0  0  0  0  0
   13.0801  -15.6077   19.8920 C   0  0  0  0  0  0  0  0  0  0  0  0
   13.5175  -16.2258   21.1993 C   0  0  0  0  0  0  0  0  0  0  0  0
   12.3462  -16.7269   21.9842 C   0  0  2  0  0  0  0  0  0  0  0  0
   11.3504  -15.7190   22.2915 N   0  0  0  0  0  0  0  0  0  0  0  0
   12.7914  -17.4199   23.2383 C   0  0  0  0  0  0  0  0  0  0  0  0
   13.5590  -18.4254   23.1094 O   0  0  0  0  0  0  0  0  0  0  0  0
   12.4396  -17.0595   24.5030 O   0  0  0  0  0  0  0  0  0  0  0  0
  2  1  1  1
  2  3  1  0
  4  2  1  0
  4  5  1  6
  6  4  1  0
  6  7  2  0
  8  6  1  0
  9  8  1  0
  9 10  1  1
 10 11  1  0
 11 12  2  0
 13  9  1  0
 14 13  2  0
 15 11  1  0
 17 18  2  0
 17 16  1  0
 19 17  1  0
 20 19  1  0
 21 20  1  0
 22 21  1  0
 23 22  1  1
 23 24  1  0
 24 13  1  0
 25 23  1  0
 26 25  2  0
 27 25  1  0
M  END
$$$$
