TDR.pdb
     RDKit          3D

 27 26  0  0  1  0  0  0  0  0999 V2000
    3.8086  -21.1440   20.2545 C   0  0  0  0  0  0  0  0  0  0  0  0
    4.6857  -20.3957   21.2174 C   0  0  1  0  0  0  0  0  0  0  0  0
    5.3586  -19.3988   20.5232 O   0  0  0  0  0  0  0  0  0  0  0  0
    3.8638  -19.7964   22.3661 C   0  0  2  0  0  0  0  0  0  0  0  0
    2.8383  -18.9335   21.8391 N   0  0  0  0  0  0  0  0  0  0  0  0
    4.8478  -19.0596   23.2061 C   0  0  0  0  0  0  0  0  0  0  0  0
    4.8728  -17.8092   23.1219 O   0  0  0  0  0  0  0  0  0  0  0  0
    5.7481  -19.6924   24.0867 N   0  0  0  0  0  0  0  0  0  0  0  0
    6.7501  -19.0293   24.8884 C   0  0  1  0  0  0  0  0  0  0  0  0
    7.1095  -19.9512   26.0251 C   0  0  0  0  0  0  0  0  0  0  0  0
    7.9307  -19.2053   27.0057 C   0  0  0  0  0  0  0  0  0  0  0  0
    8.2008  -17.9950   26.8150 O   0  0  0  0  0  0  0  0  0  0  0  0
    7.8916  -18.5425   24.0998 C   0  0  0  0  0  0  0  0  0  0  0  0
    8.0162  -18.8860   22.8942 O   0  0  0  0  0  0  0  0  0  0  0  0
    8.4417  -19.7909   28.1716 O   0  0  0  0  0  0  0  0  0  0  0  0
    8.0068  -11.6141   19.8198 N   0  0  0  0  0  0  0  0  0  0  0  0
    8.2625  -12.8347   19.1642 C   0  0  0  0  0  0  0  0  0  0  0  0
    8.4552  -12.8742   17.8839 N   0  0  0  0  0  0  0  0  0  0  0  0
    8.3156  -14.0550   19.8825 N   0  0  0  0  0  0  0  0  0  0  0  0
    8.1084  -14.1198   21.3052 C   0  0  0  0  0  0  0  0  0  0  0  0
    8.9719  -15.2345   21.8463 C   0  0  0  0  0  0  0  0  0  0  0  0
    8.5727  -15.6328   23.2480 C   0  0  0  0  0  0  0  0  0  0  0  0
    9.5343  -16.6215   23.8284 C   0  0  2  0  0  0  0  0  0  0  0  0
    8.9172  -17.6791   24.6045 N   0  0  0  0  0  0  0  0  0  0  0  0
   10.5965  -15.9343   24.6351 C   0  0  0  0  0  0  0  0  0  0  0  0
   10.2758  -15.5248   25.7954 O   0  0  0  0  0  0  0  0  0  0  0  0
   11.8756  -15.7133   24.2251 O   0  0  0  0  0  0  0  0  0  0  0  0
  2  1  1  6
  2  3  1  0
  4  2  1  0
  4  5  1  6
  6  4  1  0
  6  7  2  0
  8  6  1  0
  9  8  1  0
  9 10  1  1
 10 11  1  0
 11 12  2  0
 13  9  1  0
 14 13  2  0
 15 11  1  0
 17 18  2  0
 17 16  1  0
 19 17  1  0
 20 19  1  0
 21 20  1  0
 22 21  1  0
 23 22  1  1
 23 24  1  0
 24 13  1  0
 25 23  1  0
 26 25  2  0
 27 25  1  0
M  END
$$$$
