TDR.pdb
     RDKit          3D

 27 26  0  0  1  0  0  0  0  0999 V2000
    9.3763  -12.0487   19.7714 C   0  0  0  0  0  0  0  0  0  0  0  0
    8.2159  -12.9661   19.5100 C   0  0  1  0  0  0  0  0  0  0  0  0
    7.1355  -12.2055   19.0824 O   0  0  0  0  0  0  0  0  0  0  0  0
    8.5752  -14.0322   18.4668 C   0  0  2  0  0  0  0  0  0  0  0  0
    7.4343  -14.8726   18.2093 N   0  0  0  0  0  0  0  0  0  0  0  0
    9.7136  -14.7879   19.0581 C   0  0  0  0  0  0  0  0  0  0  0  0
    9.4505  -15.7152   19.8595 O   0  0  0  0  0  0  0  0  0  0  0  0
   11.0650  -14.5159   18.7647 N   0  0  0  0  0  0  0  0  0  0  0  0
   12.2048  -15.1981   19.3321 C   0  0  1  0  0  0  0  0  0  0  0  0
   13.4430  -14.6398   18.6790 C   0  0  0  0  0  0  0  0  0  0  0  0
   14.6288  -15.3407   19.2223 C   0  0  0  0  0  0  0  0  0  0  0  0
   15.6164  -14.6868   19.6360 O   0  0  0  0  0  0  0  0  0  0  0  0
   12.2166  -15.1789   20.8022 C   0  0  0  0  0  0  0  0  0  0  0  0
   12.6782  -14.1798   21.4152 O   0  0  0  0  0  0  0  0  0  0  0  0
   14.7163  -16.7368   19.3031 O   0  0  0  0  0  0  0  0  0  0  0  0
    7.2938  -13.4442   24.1550 N   0  0  0  0  0  0  0  0  0  0  0  0
    6.9920  -14.7073   24.7015 C   0  0  0  0  0  0  0  0  0  0  0  0
    5.7680  -15.0467   24.9554 N   0  0  0  0  0  0  0  0  0  0  0  0
    8.0154  -15.6435   24.9915 N   0  0  0  0  0  0  0  0  0  0  0  0
    9.1874  -15.2920   25.7493 C   0  0  0  0  0  0  0  0  0  0  0  0
   10.3562  -16.0531   25.1699 C   0  0  0  0  0  0  0  0  0  0  0  0
   10.3147  -16.0945   23.6602 C   0  0  0  0  0  0  0  0  0  0  0  0
   11.6910  -16.1796   23.0792 C   0  0  2  0  0  0  0  0  0  0  0  0
   11.7318  -16.2416   21.6314 N   0  0  0  0  0  0  0  0  0  0  0  0
   12.4593  -17.3238   23.6723 C   0  0  0  0  0  0  0  0  0  0  0  0
   12.7156  -17.2730   24.9167 O   0  0  0  0  0  0  0  0  0  0  0  0
   12.9044  -18.4118   22.9858 O   0  0  0  0  0  0  0  0  0  0  0  0
  2  1  1  6
  2  3  1  0
  4  2  1  0
  4  5  1  1
  6  4  1  0
  6  7  2  0
  8  6  1  0
  9  8  1  0
  9 10  1  6
 10 11  1  0
 11 12  2  0
 13  9  1  0
 14 13  2  0
 15 11  1  0
 17 18  2  0
 17 16  1  0
 19 17  1  0
 20 19  1  0
 21 20  1  0
 22 21  1  0
 23 22  1  1
 23 24  1  0
 24 13  1  0
 25 23  1  0
 26 25  2  0
 27 25  1  0
M  END
$$$$
