TDR.pdb
     RDKit          3D

 27 26  0  0  1  0  0  0  0  0999 V2000
    7.4626  -15.7685   17.1440 C   0  0  0  0  0  0  0  0  0  0  0  0
    7.9902  -14.3746   17.3307 C   0  0  1  0  0  0  0  0  0  0  0  0
    7.0095  -13.4721   16.9404 O   0  0  0  0  0  0  0  0  0  0  0  0
    8.4049  -14.1284   18.7872 C   0  0  2  0  0  0  0  0  0  0  0  0
    8.6402  -12.7237   19.0009 N   0  0  0  0  0  0  0  0  0  0  0  0
    9.6336  -14.9454   18.9858 C   0  0  0  0  0  0  0  0  0  0  0  0
    9.5509  -16.1837   18.8100 O   0  0  0  0  0  0  0  0  0  0  0  0
   10.8788  -14.4009   19.3593 N   0  0  0  0  0  0  0  0  0  0  0  0
   12.0687  -15.1563   19.6756 C   0  0  1  0  0  0  0  0  0  0  0  0
   13.2551  -14.2533   19.4561 C   0  0  0  0  0  0  0  0  0  0  0  0
   13.7977  -14.4960   18.0999 C   0  0  0  0  0  0  0  0  0  0  0  0
   14.1639  -13.5339   17.3829 O   0  0  0  0  0  0  0  0  0  0  0  0
   12.0122  -15.7960   20.9983 C   0  0  0  0  0  0  0  0  0  0  0  0
   11.9563  -15.0874   22.0384 O   0  0  0  0  0  0  0  0  0  0  0  0
   13.9293  -15.7788   17.5519 O   0  0  0  0  0  0  0  0  0  0  0  0
   11.6055  -24.1876   24.6526 N   0  0  0  0  0  0  0  0  0  0  0  0
   11.4498  -23.1824   25.6275 C   0  0  0  0  0  0  0  0  0  0  0  0
   11.3408  -23.4844   26.8825 N   0  0  0  0  0  0  0  0  0  0  0  0
   11.4062  -21.8126   25.2671 N   0  0  0  0  0  0  0  0  0  0  0  0
   11.4692  -21.3753   23.8974 C   0  0  0  0  0  0  0  0  0  0  0  0
   11.5946  -19.8702   23.8995 C   0  0  0  0  0  0  0  0  0  0  0  0
   11.6944  -19.3067   22.5013 C   0  0  0  0  0  0  0  0  0  0  0  0
   11.9126  -17.8265   22.5245 C   0  0  2  0  0  0  0  0  0  0  0  0
   12.0186  -17.2117   21.2158 N   0  0  0  0  0  0  0  0  0  0  0  0
   13.1008  -17.4675   23.3673 C   0  0  0  0  0  0  0  0  0  0  0  0
   14.2282  -17.3882   22.7845 O   0  0  0  0  0  0  0  0  0  0  0  0
   13.0697  -17.2201   24.7056 O   0  0  0  0  0  0  0  0  0  0  0  0
  2  1  1  1
  2  3  1  0
  4  2  1  0
  4  5  1  6
  6  4  1  0
  6  7  2  0
  8  6  1  0
  9  8  1  0
  9 10  1  1
 10 11  1  0
 11 12  2  0
 13  9  1  0
 14 13  2  0
 15 11  1  0
 17 18  2  0
 17 16  1  0
 19 17  1  0
 20 19  1  0
 21 20  1  0
 22 21  1  0
 23 22  1  6
 23 24  1  0
 24 13  1  0
 25 23  1  0
 26 25  2  0
 27 25  1  0
M  END
$$$$
