TDR.pdb
     RDKit          3D

 27 26  0  0  1  0  0  0  0  0999 V2000
    8.3981  -12.7323   20.3262 C   0  0  0  0  0  0  0  0  0  0  0  0
    7.7533  -13.5793   19.2664 C   0  0  1  0  0  0  0  0  0  0  0  0
    7.1706  -12.7434   18.3228 O   0  0  0  0  0  0  0  0  0  0  0  0
    8.7747  -14.5141   18.6053 C   0  0  2  0  0  0  0  0  0  0  0  0
    8.1354  -15.2915   17.5753 N   0  0  0  0  0  0  0  0  0  0  0  0
    9.3000  -15.3615   19.7111 C   0  0  0  0  0  0  0  0  0  0  0  0
    8.5602  -16.2693   20.1582 O   0  0  0  0  0  0  0  0  0  0  0  0
   10.5797  -15.1965   20.2780 N   0  0  0  0  0  0  0  0  0  0  0  0
   11.1325  -15.9840   21.3554 C   0  0  1  0  0  0  0  0  0  0  0  0
   12.5879  -15.6165   21.4898 C   0  0  0  0  0  0  0  0  0  0  0  0
   13.3743  -16.4108   20.5187 C   0  0  0  0  0  0  0  0  0  0  0  0
   12.9977  -17.5614   20.1893 O   0  0  0  0  0  0  0  0  0  0  0  0
   10.3520  -15.8915   22.5980 C   0  0  0  0  0  0  0  0  0  0  0  0
   10.1965  -14.7759   23.1622 O   0  0  0  0  0  0  0  0  0  0  0  0
   14.5535  -15.9383   19.9275 O   0  0  0  0  0  0  0  0  0  0  0  0
    6.8475  -21.7284   26.1122 N   0  0  0  0  0  0  0  0  0  0  0  0
    6.8130  -21.0624   27.3534 C   0  0  0  0  0  0  0  0  0  0  0  0
    6.9732  -21.7132   28.4618 N   0  0  0  0  0  0  0  0  0  0  0  0
    6.6009  -19.6633   27.4284 N   0  0  0  0  0  0  0  0  0  0  0  0
    6.2445  -18.8765   26.2772 C   0  0  0  0  0  0  0  0  0  0  0  0
    7.3280  -17.8448   26.0708 C   0  0  0  0  0  0  0  0  0  0  0  0
    7.9340  -17.9263   24.6893 C   0  0  0  0  0  0  0  0  0  0  0  0
    9.0120  -16.9048   24.5059 C   0  0  2  0  0  0  0  0  0  0  0  0
    9.7306  -17.0048   23.2507 N   0  0  0  0  0  0  0  0  0  0  0  0
    9.9719  -16.9176   25.6589 C   0  0  0  0  0  0  0  0  0  0  0  0
    9.5064  -16.6429   26.8099 O   0  0  0  0  0  0  0  0  0  0  0  0
   11.3010  -17.1992   25.5726 O   0  0  0  0  0  0  0  0  0  0  0  0
  2  1  1  1
  2  3  1  0
  4  2  1  0
  4  5  1  6
  6  4  1  0
  6  7  2  0
  8  6  1  0
  9  8  1  0
  9 10  1  1
 10 11  1  0
 11 12  2  0
 13  9  1  0
 14 13  2  0
 15 11  1  0
 17 18  2  0
 17 16  1  0
 19 17  1  0
 20 19  1  0
 21 20  1  0
 22 21  1  0
 23 22  1  1
 23 24  1  0
 24 13  1  0
 25 23  1  0
 26 25  2  0
 27 25  1  0
M  END
$$$$
