TDR.pdb
     RDKit          3D

 27 26  0  0  1  0  0  0  0  0999 V2000
    8.2650  -16.1368   18.3003 C   0  0  0  0  0  0  0  0  0  0  0  0
    8.8387  -14.8213   17.8568 C   0  0  1  0  0  0  0  0  0  0  0  0
    8.5224  -14.6270   16.5186 O   0  0  0  0  0  0  0  0  0  0  0  0
    8.3048  -13.6658   18.7134 C   0  0  2  0  0  0  0  0  0  0  0  0
    8.6773  -12.4049   18.1257 N   0  0  0  0  0  0  0  0  0  0  0  0
    8.9114  -13.8652   20.0583 C   0  0  0  0  0  0  0  0  0  0  0  0
   10.0899  -13.4765   20.2351 O   0  0  0  0  0  0  0  0  0  0  0  0
    8.2323  -14.4655   21.1376 N   0  0  0  0  0  0  0  0  0  0  0  0
    8.8070  -14.7817   22.4245 C   0  0  1  0  0  0  0  0  0  0  0  0
    7.6890  -14.7885   23.4351 C   0  0  0  0  0  0  0  0  0  0  0  0
    8.2507  -15.1011   24.7690 C   0  0  0  0  0  0  0  0  0  0  0  0
    9.4250  -14.7655   25.0560 O   0  0  0  0  0  0  0  0  0  0  0  0
    9.6332  -15.9978   22.4052 C   0  0  0  0  0  0  0  0  0  0  0  0
    9.0873  -17.1281   22.2983 O   0  0  0  0  0  0  0  0  0  0  0  0
    7.5246  -15.7726   25.7616 O   0  0  0  0  0  0  0  0  0  0  0  0
   16.1221  -13.8377   18.8898 N   0  0  0  0  0  0  0  0  0  0  0  0
   14.9865  -14.4171   18.2899 C   0  0  0  0  0  0  0  0  0  0  0  0
   14.5580  -14.0033   17.1396 N   0  0  0  0  0  0  0  0  0  0  0  0
   14.2779  -15.4672   18.9248 N   0  0  0  0  0  0  0  0  0  0  0  0
   14.1719  -15.5680   20.3565 C   0  0  0  0  0  0  0  0  0  0  0  0
   13.3915  -16.8216   20.6736 C   0  0  0  0  0  0  0  0  0  0  0  0
   13.2811  -17.0607   22.1613 C   0  0  0  0  0  0  0  0  0  0  0  0
   11.8544  -17.2212   22.5832 C   0  0  2  0  0  0  0  0  0  0  0  0
   11.0621  -16.0097   22.5042 N   0  0  0  0  0  0  0  0  0  0  0  0
   11.7598  -17.8178   23.9566 C   0  0  0  0  0  0  0  0  0  0  0  0
   11.2550  -17.0960   24.8738 O   0  0  0  0  0  0  0  0  0  0  0  0
   12.1708  -19.0692   24.3003 O   0  0  0  0  0  0  0  0  0  0  0  0
  2  1  1  1
  2  3  1  0
  4  2  1  0
  4  5  1  6
  6  4  1  0
  6  7  2  0
  8  6  1  0
  9  8  1  0
  9 10  1  1
 10 11  1  0
 11 12  2  0
 13  9  1  0
 14 13  2  0
 15 11  1  0
 17 18  2  0
 17 16  1  0
 19 17  1  0
 20 19  1  0
 21 20  1  0
 22 21  1  0
 23 22  1  1
 23 24  1  0
 24 13  1  0
 25 23  1  0
 26 25  2  0
 27 25  1  0
M  END
$$$$
