TDR.pdb
     RDKit          3D

 27 26  0  0  1  0  0  0  0  0999 V2000
    9.3996  -12.6069   19.7006 C   0  0  0  0  0  0  0  0  0  0  0  0
    8.5648  -13.6088   18.9551 C   0  0  1  0  0  0  0  0  0  0  0  0
    7.4781  -12.9516   18.3931 O   0  0  0  0  0  0  0  0  0  0  0  0
    9.3869  -14.3206   17.8728 C   0  0  2  0  0  0  0  0  0  0  0  0
    8.5489  -15.2344   17.1401 N   0  0  0  0  0  0  0  0  0  0  0  0
   10.4781  -15.0176   18.6077 C   0  0  0  0  0  0  0  0  0  0  0  0
   10.1808  -16.0382   19.2720 O   0  0  0  0  0  0  0  0  0  0  0  0
   11.8214  -14.5912   18.5950 N   0  0  0  0  0  0  0  0  0  0  0  0
   12.9075  -15.2041   19.3239 C   0  0  1  0  0  0  0  0  0  0  0  0
   14.1844  -14.5283   18.8949 C   0  0  0  0  0  0  0  0  0  0  0  0
   15.3195  -15.1448   19.6188 C   0  0  0  0  0  0  0  0  0  0  0  0
   15.3701  -16.3886   19.7752 O   0  0  0  0  0  0  0  0  0  0  0  0
   12.6816  -15.2385   20.7763 C   0  0  0  0  0  0  0  0  0  0  0  0
   12.9912  -14.2444   21.4854 O   0  0  0  0  0  0  0  0  0  0  0  0
   16.3742  -14.3965   20.1580 O   0  0  0  0  0  0  0  0  0  0  0  0
    6.3132  -16.5435   20.8391 N   0  0  0  0  0  0  0  0  0  0  0  0
    6.6358  -15.2590   21.3198 C   0  0  0  0  0  0  0  0  0  0  0  0
    6.3859  -14.2025   20.6132 N   0  0  0  0  0  0  0  0  0  0  0  0
    7.2437  -15.0825   22.5876 N   0  0  0  0  0  0  0  0  0  0  0  0
    8.1045  -16.0763   23.1730 C   0  0  0  0  0  0  0  0  0  0  0  0
    9.5327  -15.6603   22.9117 C   0  0  0  0  0  0  0  0  0  0  0  0
   10.5204  -16.7197   23.3416 C   0  0  0  0  0  0  0  0  0  0  0  0
   11.9126  -16.3705   22.9186 C   0  0  2  0  0  0  0  0  0  0  0  0
   12.1201  -16.3502   21.4839 N   0  0  0  0  0  0  0  0  0  0  0  0
   12.9196  -17.2659   23.5787 C   0  0  0  0  0  0  0  0  0  0  0  0
   12.9675  -17.2546   24.8493 O   0  0  0  0  0  0  0  0  0  0  0  0
   13.7863  -18.0891   22.9272 O   0  0  0  0  0  0  0  0  0  0  0  0
  2  1  1  6
  2  3  1  0
  4  2  1  0
  4  5  1  1
  6  4  1  0
  6  7  2  0
  8  6  1  0
  9  8  1  0
  9 10  1  1
 10 11  1  0
 11 12  2  0
 13  9  1  0
 14 13  2  0
 15 11  1  0
 17 18  2  0
 17 16  1  0
 19 17  1  0
 20 19  1  0
 21 20  1  0
 22 21  1  0
 23 22  1  6
 23 24  1  0
 24 13  1  0
 25 23  1  0
 26 25  2  0
 27 25  1  0
M  END
$$$$
