TDR.pdb
     RDKit          3D

 27 26  0  0  1  0  0  0  0  0999 V2000
    7.6609  -20.0980   17.7974 C   0  0  0  0  0  0  0  0  0  0  0  0
    8.3936  -19.2380   18.7873 C   0  0  1  0  0  0  0  0  0  0  0  0
    9.7589  -19.4097   18.6004 O   0  0  0  0  0  0  0  0  0  0  0  0
    8.0067  -17.7613   18.6331 C   0  0  2  0  0  0  0  0  0  0  0  0
    8.4046  -17.2816   17.3348 N   0  0  0  0  0  0  0  0  0  0  0  0
    8.7123  -17.0563   19.7384 C   0  0  0  0  0  0  0  0  0  0  0  0
    9.7483  -16.4096   19.4563 O   0  0  0  0  0  0  0  0  0  0  0  0
    8.2775  -17.0783   21.0789 N   0  0  0  0  0  0  0  0  0  0  0  0
    8.9438  -16.4431   22.1920 C   0  0  1  0  0  0  0  0  0  0  0  0
    7.9329  -16.2818   23.2981 C   0  0  0  0  0  0  0  0  0  0  0  0
    8.5905  -15.6380   24.4581 C   0  0  0  0  0  0  0  0  0  0  0  0
    9.0072  -16.3330   25.4159 O   0  0  0  0  0  0  0  0  0  0  0  0
   10.1886  -17.1208   22.5832 C   0  0  0  0  0  0  0  0  0  0  0  0
   10.2312  -18.3789   22.6347 O   0  0  0  0  0  0  0  0  0  0  0  0
    8.7798  -14.2529   24.5528 O   0  0  0  0  0  0  0  0  0  0  0  0
   18.6715  -15.3995   23.2743 N   0  0  0  0  0  0  0  0  0  0  0  0
   18.5593  -16.8033   23.3190 C   0  0  0  0  0  0  0  0  0  0  0  0
   19.4516  -17.5228   23.9223 N   0  0  0  0  0  0  0  0  0  0  0  0
   17.4703  -17.4711   22.7057 N   0  0  0  0  0  0  0  0  0  0  0  0
   16.3212  -16.7664   22.2014 C   0  0  0  0  0  0  0  0  0  0  0  0
   15.0963  -17.3453   22.8687 C   0  0  0  0  0  0  0  0  0  0  0  0
   13.8646  -16.5060   22.6213 C   0  0  0  0  0  0  0  0  0  0  0  0
   12.6478  -17.1319   23.2268 C   0  0  2  0  0  0  0  0  0  0  0  0
   11.4052  -16.4477   22.9276 N   0  0  0  0  0  0  0  0  0  0  0  0
   12.8066  -17.3008   24.7092 C   0  0  0  0  0  0  0  0  0  0  0  0
   13.7586  -18.0398   25.1146 O   0  0  0  0  0  0  0  0  0  0  0  0
   12.0135  -16.7272   25.6553 O   0  0  0  0  0  0  0  0  0  0  0  0
  2  1  1  6
  2  3  1  0
  4  2  1  0
  4  5  1  6
  6  4  1  0
  6  7  2  0
  8  6  1  0
  9  8  1  0
  9 10  1  1
 10 11  1  0
 11 12  2  0
 13  9  1  0
 14 13  2  0
 15 11  1  0
 17 18  2  0
 17 16  1  0
 19 17  1  0
 20 19  1  0
 21 20  1  0
 22 21  1  0
 23 22  1  1
 23 24  1  0
 24 13  1  0
 25 23  1  0
 26 25  2  0
 27 25  1  0
M  END
$$$$
