TDR.pdb
     RDKit          3D

 27 26  0  0  1  0  0  0  0  0999 V2000
    7.8143  -16.7499   17.2876 C   0  0  0  0  0  0  0  0  0  0  0  0
    8.9476  -17.7104   17.0655 C   0  0  1  0  0  0  0  0  0  0  0  0
    9.1721  -17.8249   15.6998 O   0  0  0  0  0  0  0  0  0  0  0  0
   10.2193  -17.2448   17.7868 C   0  0  2  0  0  0  0  0  0  0  0  0
   11.3703  -17.9102   17.2331 N   0  0  0  0  0  0  0  0  0  0  0  0
   10.0019  -17.5867   19.2194 C   0  0  0  0  0  0  0  0  0  0  0  0
    9.0507  -17.0318   19.8183 O   0  0  0  0  0  0  0  0  0  0  0  0
   10.8062  -18.4975   19.9334 N   0  0  0  0  0  0  0  0  0  0  0  0
   10.6565  -18.8409   21.3284 C   0  0  1  0  0  0  0  0  0  0  0  0
   11.1490  -20.2541   21.5065 C   0  0  0  0  0  0  0  0  0  0  0  0
   11.0744  -20.6102   22.9418 C   0  0  0  0  0  0  0  0  0  0  0  0
   12.1125  -20.6207   23.6464 O   0  0  0  0  0  0  0  0  0  0  0  0
   11.2623  -17.8541   22.2345 C   0  0  0  0  0  0  0  0  0  0  0  0
   12.2656  -18.1689   22.9283 O   0  0  0  0  0  0  0  0  0  0  0  0
    9.8738  -20.9484   23.5801 O   0  0  0  0  0  0  0  0  0  0  0  0
    7.7607  -12.0727   21.3156 N   0  0  0  0  0  0  0  0  0  0  0  0
    8.0110  -12.8583   20.1731 C   0  0  0  0  0  0  0  0  0  0  0  0
    7.7882  -12.3936   18.9848 N   0  0  0  0  0  0  0  0  0  0  0  0
    8.5118  -14.1790   20.2875 N   0  0  0  0  0  0  0  0  0  0  0  0
    9.2266  -14.6325   21.4515 C   0  0  0  0  0  0  0  0  0  0  0  0
    8.2194  -14.8467   22.5563 C   0  0  0  0  0  0  0  0  0  0  0  0
    8.6392  -15.9477   23.5019 C   0  0  0  0  0  0  0  0  0  0  0  0
   10.1292  -16.0382   23.6059 C   0  0  2  0  0  0  0  0  0  0  0  0
   10.7900  -16.5127   22.4059 N   0  0  0  0  0  0  0  0  0  0  0  0
   10.5401  -16.8642   24.7891 C   0  0  0  0  0  0  0  0  0  0  0  0
    9.8624  -17.9118   25.0342 O   0  0  0  0  0  0  0  0  0  0  0  0
   11.5797  -16.5826   25.6217 O   0  0  0  0  0  0  0  0  0  0  0  0
  2  1  1  6
  2  3  1  0
  4  2  1  0
  4  5  1  6
  6  4  1  0
  6  7  2  0
  8  6  1  0
  9  8  1  0
  9 10  1  6
 10 11  1  0
 11 12  2  0
 13  9  1  0
 14 13  2  0
 15 11  1  0
 17 18  2  0
 17 16  1  0
 19 17  1  0
 20 19  1  0
 21 20  1  0
 22 21  1  0
 23 22  1  6
 23 24  1  0
 24 13  1  0
 25 23  1  0
 26 25  2  0
 27 25  1  0
M  END
$$$$
