QKV.pdb
     RDKit          3D

 26 25  0  0  1  0  0  0  0  0999 V2000
    9.8166  -13.3207   18.6465 N   0  0  0  0  0  0  0  0  0  0  0  0
    8.7192  -13.3591   17.7088 C   0  0  0  0  0  0  0  0  0  0  0  0
    8.9905  -13.3106   16.4845 O   0  0  0  0  0  0  0  0  0  0  0  0
    7.3230  -13.4470   18.1683 C   0  0  0  0  0  0  0  0  0  0  0  0
    7.1693  -13.7171   19.6111 C   0  0  0  0  0  0  0  0  0  0  0  0
    7.7290  -15.0199   20.1024 C   0  0  2  0  0  0  0  0  0  0  0  0
    7.3955  -16.0839   19.2404 N   0  0  0  0  0  0  0  0  0  0  0  0
    7.2973  -15.2152   21.5302 C   0  0  0  0  0  0  0  0  0  0  0  0
    6.6341  -14.2866   22.1076 O   0  0  0  0  0  0  0  0  0  0  0  0
    7.5638  -16.3460   22.2960 N   0  0  0  0  0  0  0  0  0  0  0  0
    7.2190  -16.5153   23.6855 C   0  0  1  0  0  0  0  0  0  0  0  0
    7.3959  -17.9698   24.1252 C   0  0  0  0  0  0  0  0  0  0  0  0
    6.2750  -18.8314   23.6270 C   0  0  0  0  0  0  0  0  0  0  0  0
    6.5843  -20.2665   23.9901 C   0  0  0  0  0  0  0  0  0  0  0  0
    5.5429  -21.2330   23.5243 C   0  0  0  0  0  0  0  0  0  0  0  0
    5.9434  -22.5561   23.9694 N   0  0  0  0  0  0  0  0  0  0  0  0
    7.9666  -15.6782   24.6083 C   0  0  0  0  0  0  0  0  0  0  0  0
    9.2122  -15.6310   24.5593 O   0  0  0  0  0  0  0  0  0  0  0  0
    6.3381  -12.3340   25.8112 C   0  0  0  0  0  0  0  0  0  0  0  0
    6.9440  -13.0363   27.0227 C   0  0  2  0  0  0  0  0  0  0  0  0
    7.5412  -11.9904   27.9238 C   0  0  0  0  0  0  0  0  0  0  0  0
    7.9894  -13.9996   26.4898 C   0  0  2  0  0  0  0  0  0  0  0  0
    7.3030  -14.8988   25.5812 N   0  0  0  0  0  0  0  0  0  0  0  0
    8.6381  -14.7442   27.5978 C   0  0  0  0  0  0  0  0  0  0  0  0
    8.1310  -15.8220   27.9922 O   0  0  0  0  0  0  0  0  0  0  0  0
    9.7840  -14.2889   28.2102 O   0  0  0  0  0  0  0  0  0  0  0  0
  2  1  1  0
  3  2  2  0
  4  2  1  0
  5  4  1  0
  6  5  1  0
  6  8  1  0
  6  7  1  6
  8  9  2  0
 10  8  1  0
 10 11  1  0
 11 12  1  1
 12 13  1  0
 13 14  1  0
 15 14  1  0
 16 15  1  0
 17 11  1  0
 17 18  2  0
 20 19  1  6
 20 22  1  0
 21 20  1  0
 22 24  1  0
 22 23  1  6
 23 17  1  0
 24 26  1  0
 25 24  2  0
M  END
$$$$
