QKV.pdb
     RDKit          3D

 26 25  0  0  1  0  0  0  0  0999 V2000
    9.0451  -14.1565   16.5186 N   0  0  0  0  0  0  0  0  0  0  0  0
    9.0447  -13.6002   17.8511 C   0  0  0  0  0  0  0  0  0  0  0  0
   10.0625  -13.7796   18.5629 O   0  0  0  0  0  0  0  0  0  0  0  0
    7.8875  -12.8495   18.3664 C   0  0  0  0  0  0  0  0  0  0  0  0
    7.3770  -13.3280   19.6659 C   0  0  0  0  0  0  0  0  0  0  0  0
    7.5900  -14.7833   19.9637 C   0  0  2  0  0  0  0  0  0  0  0  0
    6.8726  -15.6043   19.0706 N   0  0  0  0  0  0  0  0  0  0  0  0
    7.2801  -15.0221   21.4163 C   0  0  0  0  0  0  0  0  0  0  0  0
    6.3232  -14.3701   21.9592 O   0  0  0  0  0  0  0  0  0  0  0  0
    7.9613  -15.9124   22.2408 N   0  0  0  0  0  0  0  0  0  0  0  0
    7.6495  -16.1779   23.6230 C   0  0  1  0  0  0  0  0  0  0  0  0
    7.9403  -17.6356   23.9847 C   0  0  0  0  0  0  0  0  0  0  0  0
    7.6242  -17.9151   25.4230 C   0  0  0  0  0  0  0  0  0  0  0  0
    7.8858  -19.3808   25.6884 C   0  0  0  0  0  0  0  0  0  0  0  0
    7.4422  -19.8254   27.0454 C   0  0  0  0  0  0  0  0  0  0  0  0
    7.6983  -21.2515   27.1440 N   0  0  0  0  0  0  0  0  0  0  0  0
    8.3457  -15.3353   24.5804 C   0  0  0  0  0  0  0  0  0  0  0  0
    9.5880  -15.2260   24.5477 O   0  0  0  0  0  0  0  0  0  0  0  0
    6.0082  -13.1379   27.1900 C   0  0  0  0  0  0  0  0  0  0  0  0
    7.3843  -12.6009   26.8078 C   0  0  2  0  0  0  0  0  0  0  0  0
    7.2362  -11.7675   25.5643 C   0  0  0  0  0  0  0  0  0  0  0  0
    8.2769  -13.8087   26.5863 C   0  0  2  0  0  0  0  0  0  0  0  0
    7.6348  -14.6207   25.5695 N   0  0  0  0  0  0  0  0  0  0  0  0
    8.4617  -14.5698   27.8470 C   0  0  0  0  0  0  0  0  0  0  0  0
    7.8265  -15.6385   28.0172 O   0  0  0  0  0  0  0  0  0  0  0  0
    9.3116  -14.1397   28.8410 O   0  0  0  0  0  0  0  0  0  0  0  0
  2  1  1  0
  3  2  2  0
  4  2  1  0
  5  4  1  0
  6  5  1  0
  6  8  1  0
  6  7  1  6
  8  9  2  0
 10  8  1  0
 10 11  1  0
 11 12  1  1
 12 13  1  0
 13 14  1  0
 15 14  1  0
 16 15  1  0
 17 11  1  0
 17 18  2  0
 20 19  1  6
 20 22  1  0
 21 20  1  0
 22 24  1  0
 22 23  1  6
 23 17  1  0
 24 26  1  0
 25 24  2  0
M  END
$$$$
