QKV.pdb
     RDKit          3D

 26 25  0  0  1  0  0  0  0  0999 V2000
    9.4317  -13.5492   16.2870 N   0  0  0  0  0  0  0  0  0  0  0  0
    8.2914  -14.3191   16.7252 C   0  0  0  0  0  0  0  0  0  0  0  0
    8.1808  -15.4964   16.3048 O   0  0  0  0  0  0  0  0  0  0  0  0
    7.2836  -13.7451   17.6324 C   0  0  0  0  0  0  0  0  0  0  0  0
    7.7705  -13.4826   19.0007 C   0  0  0  0  0  0  0  0  0  0  0  0
    8.4647  -14.6236   19.6849 C   0  0  2  0  0  0  0  0  0  0  0  0
    8.4042  -15.8024   18.9145 N   0  0  0  0  0  0  0  0  0  0  0  0
    7.9042  -14.7573   21.0745 C   0  0  0  0  0  0  0  0  0  0  0  0
    7.5516  -13.7007   21.7027 O   0  0  0  0  0  0  0  0  0  0  0  0
    7.7323  -15.9603   21.7523 N   0  0  0  0  0  0  0  0  0  0  0  0
    7.2322  -16.0982   23.0974 C   0  0  1  0  0  0  0  0  0  0  0  0
    7.1218  -17.5707   23.4974 C   0  0  0  0  0  0  0  0  0  0  0  0
    6.0362  -18.2648   22.7316 C   0  0  0  0  0  0  0  0  0  0  0  0
    6.1005  -19.7412   23.0531 C   0  0  0  0  0  0  0  0  0  0  0  0
    4.9830  -20.5286   22.4471 C   0  0  0  0  0  0  0  0  0  0  0  0
    5.2089  -21.9268   22.7679 N   0  0  0  0  0  0  0  0  0  0  0  0
    8.0164  -15.4191   24.1148 C   0  0  0  0  0  0  0  0  0  0  0  0
    9.2591  -15.5260   24.1381 O   0  0  0  0  0  0  0  0  0  0  0  0
    8.0166  -11.8416   27.4727 C   0  0  0  0  0  0  0  0  0  0  0  0
    7.2143  -12.7079   26.5062 C   0  0  2  0  0  0  0  0  0  0  0  0
    5.9861  -13.1993   27.2222 C   0  0  0  0  0  0  0  0  0  0  0  0
    8.1255  -13.8458   26.0823 C   0  0  2  0  0  0  0  0  0  0  0  0
    7.3926  -14.6229   25.1003 N   0  0  0  0  0  0  0  0  0  0  0  0
    8.5124  -14.6779   27.2488 C   0  0  0  0  0  0  0  0  0  0  0  0
    9.3578  -14.2363   28.0641 O   0  0  0  0  0  0  0  0  0  0  0  0
    7.9714  -15.9250   27.4669 O   0  0  0  0  0  0  0  0  0  0  0  0
  2  1  1  0
  3  2  2  0
  4  2  1  0
  5  4  1  0
  6  5  1  0
  6  8  1  0
  6  7  1  6
  8  9  2  0
 10  8  1  0
 10 11  1  0
 11 12  1  1
 12 13  1  0
 13 14  1  0
 15 14  1  0
 16 15  1  0
 17 11  1  0
 17 18  2  0
 20 19  1  1
 20 22  1  0
 21 20  1  0
 22 24  1  0
 22 23  1  6
 23 17  1  0
 24 26  1  0
 25 24  2  0
M  END
$$$$
