QKV.pdb
     RDKit          3D

 26 25  0  0  1  0  0  0  0  0999 V2000
    9.9555  -13.2535   18.6339 N   0  0  0  0  0  0  0  0  0  0  0  0
    8.6027  -13.0364   19.0898 C   0  0  0  0  0  0  0  0  0  0  0  0
    8.1486  -11.8673   19.0462 O   0  0  0  0  0  0  0  0  0  0  0  0
    7.7785  -14.1466   19.5960 C   0  0  0  0  0  0  0  0  0  0  0  0
    8.4820  -15.4412   19.6828 C   0  0  0  0  0  0  0  0  0  0  0  0
    7.6547  -16.6143   20.1203 C   0  0  2  0  0  0  0  0  0  0  0  0
    6.5536  -16.8184   19.2645 N   0  0  0  0  0  0  0  0  0  0  0  0
    7.2927  -16.4277   21.5685 C   0  0  0  0  0  0  0  0  0  0  0  0
    6.3252  -15.6469   21.8679 O   0  0  0  0  0  0  0  0  0  0  0  0
    7.9355  -17.0458   22.6368 N   0  0  0  0  0  0  0  0  0  0  0  0
    7.5340  -16.9578   24.0186 C   0  0  1  0  0  0  0  0  0  0  0  0
    7.8737  -18.2431   24.7754 C   0  0  0  0  0  0  0  0  0  0  0  0
    7.4490  -18.1604   26.2106 C   0  0  0  0  0  0  0  0  0  0  0  0
    7.8140  -19.4626   26.8875 C   0  0  0  0  0  0  0  0  0  0  0  0
    7.3692  -19.5340   28.3133 C   0  0  0  0  0  0  0  0  0  0  0  0
    7.7959  -20.8180   28.8409 N   0  0  0  0  0  0  0  0  0  0  0  0
    8.1093  -15.8441   24.7535 C   0  0  0  0  0  0  0  0  0  0  0  0
    9.3346  -15.6148   24.7063 O   0  0  0  0  0  0  0  0  0  0  0  0
    5.8519  -12.6334   25.6740 C   0  0  0  0  0  0  0  0  0  0  0  0
    6.6227  -13.1503   26.8851 C   0  0  2  0  0  0  0  0  0  0  0  0
    7.0286  -11.9698   27.7243 C   0  0  0  0  0  0  0  0  0  0  0  0
    7.8212  -13.9107   26.3464 C   0  0  2  0  0  0  0  0  0  0  0  0
    7.2973  -14.9956   25.5377 N   0  0  0  0  0  0  0  0  0  0  0  0
    8.6657  -14.4231   27.4541 C   0  0  0  0  0  0  0  0  0  0  0  0
    8.3661  -15.5118   28.0011 O   0  0  0  0  0  0  0  0  0  0  0  0
    9.7730  -13.7394   27.9037 O   0  0  0  0  0  0  0  0  0  0  0  0
  2  1  1  0
  3  2  2  0
  4  2  1  0
  5  4  1  0
  6  5  1  0
  6  8  1  0
  6  7  1  6
  8  9  2  0
 10  8  1  0
 10 11  1  0
 11 12  1  1
 12 13  1  0
 13 14  1  0
 15 14  1  0
 16 15  1  0
 17 11  1  0
 17 18  2  0
 20 19  1  6
 20 22  1  0
 21 20  1  0
 22 24  1  0
 22 23  1  1
 23 17  1  0
 24 26  1  0
 25 24  2  0
M  END
$$$$
