QKV.pdb
     RDKit          3D

 26 25  0  0  1  0  0  0  0  0999 V2000
   11.2452  -14.4080   17.4099 N   0  0  0  0  0  0  0  0  0  0  0  0
   11.0785  -13.4869   18.5093 C   0  0  0  0  0  0  0  0  0  0  0  0
   12.0461  -13.3251   19.2920 O   0  0  0  0  0  0  0  0  0  0  0  0
    9.8139  -12.7611   18.7145 C   0  0  0  0  0  0  0  0  0  0  0  0
    9.0183  -13.2309   19.8654 C   0  0  0  0  0  0  0  0  0  0  0  0
    8.5717  -14.6628   19.8191 C   0  0  2  0  0  0  0  0  0  0  0  0
    7.6686  -14.8889   18.7609 N   0  0  0  0  0  0  0  0  0  0  0  0
    8.0484  -15.0423   21.1775 C   0  0  0  0  0  0  0  0  0  0  0  0
    7.0429  -14.4097   21.6510 O   0  0  0  0  0  0  0  0  0  0  0  0
    8.5767  -16.0462   21.9833 N   0  0  0  0  0  0  0  0  0  0  0  0
    8.0936  -16.4089   23.2923 C   0  0  1  0  0  0  0  0  0  0  0  0
    8.4953  -17.8404   23.6522 C   0  0  0  0  0  0  0  0  0  0  0  0
    7.7903  -18.8399   22.7857 C   0  0  0  0  0  0  0  0  0  0  0  0
    8.2683  -20.2216   23.1725 C   0  0  0  0  0  0  0  0  0  0  0  0
    7.6178  -21.3150   22.3869 C   0  0  0  0  0  0  0  0  0  0  0  0
    8.1681  -22.5755   22.8528 N   0  0  0  0  0  0  0  0  0  0  0  0
    8.5340  -15.5395   24.3700 C   0  0  0  0  0  0  0  0  0  0  0  0
    9.7492  -15.3683   24.5941 O   0  0  0  0  0  0  0  0  0  0  0  0
    6.2495  -12.4766   25.4002 C   0  0  0  0  0  0  0  0  0  0  0  0
    6.7255  -13.2051   26.6535 C   0  0  2  0  0  0  0  0  0  0  0  0
    6.9946  -12.1800   27.7209 C   0  0  0  0  0  0  0  0  0  0  0  0
    7.9776  -13.9699   26.2635 C   0  0  2  0  0  0  0  0  0  0  0  0
    7.5993  -14.8684   25.1887 N   0  0  0  0  0  0  0  0  0  0  0  0
    8.5255  -14.7169   27.4230 C   0  0  0  0  0  0  0  0  0  0  0  0
    8.1115  -15.8783   27.6558 O   0  0  0  0  0  0  0  0  0  0  0  0
    9.4780  -14.1746   28.2561 O   0  0  0  0  0  0  0  0  0  0  0  0
  2  1  1  0
  3  2  2  0
  4  2  1  0
  5  4  1  0
  6  5  1  0
  6  8  1  0
  6  7  1  6
  8  9  2  0
 10  8  1  0
 10 11  1  0
 11 12  1  1
 12 13  1  0
 13 14  1  0
 15 14  1  0
 16 15  1  0
 17 11  1  0
 17 18  2  0
 20 19  1  6
 20 22  1  0
 21 20  1  0
 22 24  1  0
 22 23  1  6
 23 17  1  0
 24 26  1  0
 25 24  2  0
M  END
$$$$
