QKV.pdb
     RDKit          3D

 26 25  0  0  1  0  0  0  0  0999 V2000
    8.5805  -20.2530   28.0105 N   0  0  0  0  0  0  0  0  0  0  0  0
    7.5164  -21.0350   27.4262 C   0  0  0  0  0  0  0  0  0  0  0  0
    6.6234  -21.4754   28.1900 O   0  0  0  0  0  0  0  0  0  0  0  0
    7.4774  -21.3151   25.9811 C   0  0  0  0  0  0  0  0  0  0  0  0
    6.4114  -20.6043   25.2485 C   0  0  0  0  0  0  0  0  0  0  0  0
    6.7598  -20.1357   23.8660 C   0  0  2  0  0  0  0  0  0  0  0  0
    7.5401  -21.0872   23.1788 N   0  0  0  0  0  0  0  0  0  0  0  0
    7.3870  -18.7723   23.9696 C   0  0  0  0  0  0  0  0  0  0  0  0
    8.4841  -18.6443   24.6141 O   0  0  0  0  0  0  0  0  0  0  0  0
    6.8639  -17.6098   23.4117 N   0  0  0  0  0  0  0  0  0  0  0  0
    7.4286  -16.2902   23.5461 C   0  0  1  0  0  0  0  0  0  0  0  0
    6.7845  -15.3110   22.5630 C   0  0  0  0  0  0  0  0  0  0  0  0
    7.8144  -14.4509   21.8949 C   0  0  0  0  0  0  0  0  0  0  0  0
    7.2407  -13.9565   20.5860 C   0  0  0  0  0  0  0  0  0  0  0  0
    8.2197  -13.1783   19.7663 C   0  0  0  0  0  0  0  0  0  0  0  0
    7.5821  -12.8708   18.4983 N   0  0  0  0  0  0  0  0  0  0  0  0
    7.3290  -15.7142   24.8764 C   0  0  0  0  0  0  0  0  0  0  0  0
    6.3502  -15.9659   25.6079 O   0  0  0  0  0  0  0  0  0  0  0  0
   10.2159  -15.6166   27.4005 C   0  0  0  0  0  0  0  0  0  0  0  0
    9.7428  -14.1838   27.1735 C   0  0  2  0  0  0  0  0  0  0  0  0
    9.8704  -13.4342   28.4714 C   0  0  0  0  0  0  0  0  0  0  0  0
    8.3031  -14.2705   26.6999 C   0  0  2  0  0  0  0  0  0  0  0  0
    8.3354  -14.8571   25.3732 N   0  0  0  0  0  0  0  0  0  0  0  0
    7.6694  -12.9285   26.6808 C   0  0  0  0  0  0  0  0  0  0  0  0
    7.3580  -12.3815   27.7663 O   0  0  0  0  0  0  0  0  0  0  0  0
    7.4106  -12.2605   25.5051 O   0  0  0  0  0  0  0  0  0  0  0  0
  2  1  1  0
  3  2  2  0
  4  2  1  0
  5  4  1  0
  6  5  1  0
  6  8  1  0
  6  7  1  1
  8  9  2  0
 10  8  1  0
 10 11  1  0
 11 12  1  6
 12 13  1  0
 13 14  1  0
 15 14  1  0
 16 15  1  0
 17 11  1  0
 17 18  2  0
 20 19  1  1
 20 22  1  0
 21 20  1  0
 22 24  1  0
 22 23  1  6
 23 17  1  0
 24 26  1  0
 25 24  2  0
M  END
$$$$
