QKV.pdb
     RDKit          3D

 26 25  0  0  1  0  0  0  0  0999 V2000
    8.7078  -14.1113   15.7387 N   0  0  0  0  0  0  0  0  0  0  0  0
    7.7877  -14.1964   16.8483 C   0  0  0  0  0  0  0  0  0  0  0  0
    7.0453  -15.2057   16.9199 O   0  0  0  0  0  0  0  0  0  0  0  0
    7.7140  -13.1332   17.8645 C   0  0  0  0  0  0  0  0  0  0  0  0
    7.3495  -13.6022   19.2156 C   0  0  0  0  0  0  0  0  0  0  0  0
    8.4662  -14.1723   20.0402 C   0  0  2  0  0  0  0  0  0  0  0  0
    9.0687  -15.2755   19.4028 N   0  0  0  0  0  0  0  0  0  0  0  0
    7.9400  -14.4600   21.4199 C   0  0  0  0  0  0  0  0  0  0  0  0
    7.4328  -13.5030   22.0998 O   0  0  0  0  0  0  0  0  0  0  0  0
    7.9582  -15.7077   22.0357 N   0  0  0  0  0  0  0  0  0  0  0  0
    7.5693  -15.9735   23.3982 C   0  0  1  0  0  0  0  0  0  0  0  0
    7.7888  -17.4440   23.7584 C   0  0  0  0  0  0  0  0  0  0  0  0
    7.3967  -17.7231   25.1780 C   0  0  0  0  0  0  0  0  0  0  0  0
    7.6374  -19.1901   25.4554 C   0  0  0  0  0  0  0  0  0  0  0  0
    7.0873  -19.6424   26.7702 C   0  0  0  0  0  0  0  0  0  0  0  0
    7.3805  -21.0585   26.9033 N   0  0  0  0  0  0  0  0  0  0  0  0
    8.2475  -15.1654   24.3973 C   0  0  0  0  0  0  0  0  0  0  0  0
    9.4903  -15.0572   24.3926 O   0  0  0  0  0  0  0  0  0  0  0  0
    5.8859  -13.1895   27.2348 C   0  0  0  0  0  0  0  0  0  0  0  0
    7.1659  -12.5360   26.7220 C   0  0  2  0  0  0  0  0  0  0  0  0
    6.8263  -11.7321   25.4969 C   0  0  0  0  0  0  0  0  0  0  0  0
    8.1381  -13.6617   26.4186 C   0  0  2  0  0  0  0  0  0  0  0  0
    7.5182  -14.4837   25.3962 N   0  0  0  0  0  0  0  0  0  0  0  0
    8.4329  -14.4515   27.6401 C   0  0  0  0  0  0  0  0  0  0  0  0
    7.9140  -15.5857   27.7775 O   0  0  0  0  0  0  0  0  0  0  0  0
    9.2613  -13.9783   28.6327 O   0  0  0  0  0  0  0  0  0  0  0  0
  2  1  1  0
  3  2  2  0
  4  2  1  0
  5  4  1  0
  6  5  1  0
  6  8  1  0
  6  7  1  6
  8  9  2  0
 10  8  1  0
 10 11  1  0
 11 12  1  1
 12 13  1  0
 13 14  1  0
 15 14  1  0
 16 15  1  0
 17 11  1  0
 17 18  2  0
 20 19  1  6
 20 22  1  0
 21 20  1  0
 22 24  1  0
 22 23  1  6
 23 17  1  0
 24 26  1  0
 25 24  2  0
M  END
$$$$
