QKV.pdb
     RDKit          3D

 26 25  0  0  1  0  0  0  0  0999 V2000
    7.9096  -20.9625   26.7863 N   0  0  0  0  0  0  0  0  0  0  0  0
    7.8168  -21.5131   25.4546 C   0  0  0  0  0  0  0  0  0  0  0  0
    8.5106  -22.5240   25.1872 O   0  0  0  0  0  0  0  0  0  0  0  0
    6.9415  -20.9090   24.4362 C   0  0  0  0  0  0  0  0  0  0  0  0
    6.1950  -19.7220   24.8969 C   0  0  0  0  0  0  0  0  0  0  0  0
    5.6168  -18.8478   23.8229 C   0  0  2  0  0  0  0  0  0  0  0  0
    5.2196  -19.6019   22.7003 N   0  0  0  0  0  0  0  0  0  0  0  0
    6.6010  -17.7509   23.5209 C   0  0  0  0  0  0  0  0  0  0  0  0
    7.7094  -17.7227   24.1582 O   0  0  0  0  0  0  0  0  0  0  0  0
    6.4050  -16.7393   22.5857 N   0  0  0  0  0  0  0  0  0  0  0  0
    7.2206  -15.5586   22.4478 C   0  0  1  0  0  0  0  0  0  0  0  0
    6.7933  -14.7309   21.2342 C   0  0  0  0  0  0  0  0  0  0  0  0
    7.8969  -13.8272   20.7734 C   0  0  0  0  0  0  0  0  0  0  0  0
    7.7618  -13.6399   19.2789 C   0  0  0  0  0  0  0  0  0  0  0  0
    8.8736  -12.8397   18.6793 C   0  0  0  0  0  0  0  0  0  0  0  0
    8.5251  -12.5756   17.2944 N   0  0  0  0  0  0  0  0  0  0  0  0
    7.2264  -14.6799   23.6050 C   0  0  0  0  0  0  0  0  0  0  0  0
    6.3634  -13.7881   23.7321 O   0  0  0  0  0  0  0  0  0  0  0  0
    6.8309  -12.0921   26.2364 C   0  0  0  0  0  0  0  0  0  0  0  0
    7.1549  -13.5783   26.3568 C   0  0  2  0  0  0  0  0  0  0  0  0
    7.2611  -13.9206   27.8177 C   0  0  0  0  0  0  0  0  0  0  0  0
    8.4629  -13.8000   25.6188 C   0  0  2  0  0  0  0  0  0  0  0  0
    8.2071  -14.8134   24.6123 N   0  0  0  0  0  0  0  0  0  0  0  0
    9.5336  -14.2268   26.5538 C   0  0  0  0  0  0  0  0  0  0  0  0
    9.9376  -13.4256   27.4309 O   0  0  0  0  0  0  0  0  0  0  0  0
   10.1012  -15.4795   26.4901 O   0  0  0  0  0  0  0  0  0  0  0  0
  2  1  1  0
  3  2  2  0
  4  2  1  0
  5  4  1  0
  6  5  1  0
  6  8  1  0
  6  7  1  6
  8  9  2  0
 10  8  1  0
 10 11  1  0
 11 12  1  6
 12 13  1  0
 13 14  1  0
 15 14  1  0
 16 15  1  0
 17 11  1  0
 17 18  2  0
 20 19  1  1
 20 22  1  0
 21 20  1  0
 22 24  1  0
 22 23  1  6
 23 17  1  0
 24 26  1  0
 25 24  2  0
M  END
$$$$
