QKV.pdb
     RDKit          3D

 26 25  0  0  1  0  0  0  0  0999 V2000
    7.4650  -12.3932   17.4175 N   0  0  0  0  0  0  0  0  0  0  0  0
    7.4269  -13.7878   17.0451 C   0  0  0  0  0  0  0  0  0  0  0  0
    6.9309  -14.0850   15.9313 O   0  0  0  0  0  0  0  0  0  0  0  0
    7.9471  -14.8336   17.9416 C   0  0  0  0  0  0  0  0  0  0  0  0
    8.3909  -14.3435   19.2611 C   0  0  0  0  0  0  0  0  0  0  0  0
    9.1087  -15.3369   20.1272 C   0  0  2  0  0  0  0  0  0  0  0  0
    9.3325  -16.5503   19.4461 N   0  0  0  0  0  0  0  0  0  0  0  0
    8.3504  -15.4774   21.4189 C   0  0  0  0  0  0  0  0  0  0  0  0
    7.8080  -14.4396   21.9330 O   0  0  0  0  0  0  0  0  0  0  0  0
    8.1845  -16.6676   22.1204 N   0  0  0  0  0  0  0  0  0  0  0  0
    7.6639  -16.7834   23.4597 C   0  0  1  0  0  0  0  0  0  0  0  0
    7.8032  -18.2135   23.9848 C   0  0  0  0  0  0  0  0  0  0  0  0
    7.2657  -18.3385   25.3785 C   0  0  0  0  0  0  0  0  0  0  0  0
    7.4153  -19.7785   25.8156 C   0  0  0  0  0  0  0  0  0  0  0  0
    6.9701  -20.0198   27.2225 C   0  0  0  0  0  0  0  0  0  0  0  0
    7.2865  -21.3985   27.5512 N   0  0  0  0  0  0  0  0  0  0  0  0
    8.2726  -15.8918   24.4323 C   0  0  0  0  0  0  0  0  0  0  0  0
    9.5064  -15.8969   24.6166 O   0  0  0  0  0  0  0  0  0  0  0  0
    6.8954  -12.2651   24.9593 C   0  0  0  0  0  0  0  0  0  0  0  0
    7.0155  -12.9522   26.3163 C   0  0  2  0  0  0  0  0  0  0  0  0
    7.4485  -11.9261   27.3274 C   0  0  0  0  0  0  0  0  0  0  0  0
    8.0368  -14.0635   26.1528 C   0  0  2  0  0  0  0  0  0  0  0  0
    7.4842  -14.9992   25.1913 N   0  0  0  0  0  0  0  0  0  0  0  0
    8.3128  -14.7255   27.4522 C   0  0  0  0  0  0  0  0  0  0  0  0
    7.6886  -15.7717   27.7526 O   0  0  0  0  0  0  0  0  0  0  0  0
    9.2360  -14.2268   28.3435 O   0  0  0  0  0  0  0  0  0  0  0  0
  2  1  1  0
  3  2  2  0
  4  2  1  0
  5  4  1  0
  6  5  1  0
  6  8  1  0
  6  7  1  6
  8  9  2  0
 10  8  1  0
 10 11  1  0
 11 12  1  1
 12 13  1  0
 13 14  1  0
 15 14  1  0
 16 15  1  0
 17 11  1  0
 17 18  2  0
 20 19  1  6
 20 22  1  0
 21 20  1  0
 22 24  1  0
 22 23  1  6
 23 17  1  0
 24 26  1  0
 25 24  2  0
M  END
$$$$
