QKV.pdb
     RDKit          3D

 26 25  0  0  1  0  0  0  0  0999 V2000
    6.7602  -13.0719   18.3787 N   0  0  0  0  0  0  0  0  0  0  0  0
    8.0061  -13.3480   17.7030 C   0  0  0  0  0  0  0  0  0  0  0  0
    8.0268  -13.2632   16.4511 O   0  0  0  0  0  0  0  0  0  0  0  0
    9.2165  -13.7230   18.4529 C   0  0  0  0  0  0  0  0  0  0  0  0
    8.9873  -14.0057   19.8833 C   0  0  0  0  0  0  0  0  0  0  0  0
    9.4277  -15.3558   20.3684 C   0  0  2  0  0  0  0  0  0  0  0  0
    8.9314  -16.3877   19.5466 N   0  0  0  0  0  0  0  0  0  0  0  0
    9.0583  -15.4833   21.8211 C   0  0  0  0  0  0  0  0  0  0  0  0
    8.4573  -14.5103   22.3935 O   0  0  0  0  0  0  0  0  0  0  0  0
    9.3208  -16.5950   22.6157 N   0  0  0  0  0  0  0  0  0  0  0  0
    8.8295  -16.8001   23.9555 C   0  0  1  0  0  0  0  0  0  0  0  0
    8.6163  -18.2872   24.2439 C   0  0  0  0  0  0  0  0  0  0  0  0
    7.5938  -18.8813   23.3228 C   0  0  0  0  0  0  0  0  0  0  0  0
    7.4790  -20.3571   23.6324 C   0  0  0  0  0  0  0  0  0  0  0  0
    6.4188  -21.0486   22.8365 C   0  0  0  0  0  0  0  0  0  0  0  0
    6.4231  -22.4480   23.2245 N   0  0  0  0  0  0  0  0  0  0  0  0
    9.6748  -16.2603   25.0069 C   0  0  0  0  0  0  0  0  0  0  0  0
   10.9173  -16.3400   24.9292 O   0  0  0  0  0  0  0  0  0  0  0  0
    8.8986  -12.9854   26.8083 C   0  0  0  0  0  0  0  0  0  0  0  0
    9.1153  -14.0284   27.9007 C   0  0  2  0  0  0  0  0  0  0  0  0
    9.8693  -13.3794   29.0289 C   0  0  0  0  0  0  0  0  0  0  0  0
    9.8964  -15.1660   27.2678 C   0  0  2  0  0  0  0  0  0  0  0  0
    9.1119  -15.6336   26.1403 N   0  0  0  0  0  0  0  0  0  0  0  0
   10.1349  -16.2550   28.2475 C   0  0  0  0  0  0  0  0  0  0  0  0
    9.2783  -17.1628   28.3763 O   0  0  0  0  0  0  0  0  0  0  0  0
   11.2710  -16.3023   29.0237 O   0  0  0  0  0  0  0  0  0  0  0  0
  2  1  1  0
  3  2  2  0
  4  2  1  0
  5  4  1  0
  6  5  1  0
  6  8  1  0
  6  7  1  6
  8  9  2  0
 10  8  1  0
 10 11  1  0
 11 12  1  1
 12 13  1  0
 13 14  1  0
 15 14  1  0
 16 15  1  0
 17 11  1  0
 17 18  2  0
 20 19  1  6
 20 22  1  0
 21 20  1  0
 22 24  1  0
 22 23  1  6
 23 17  1  0
 24 26  1  0
 25 24  2  0
M  END
$$$$
