QKV.pdb
     RDKit          3D

 26 25  0  0  1  0  0  0  0  0999 V2000
   12.7197  -13.5893   20.6556 N   0  0  0  0  0  0  0  0  0  0  0  0
   12.6616  -14.3539   19.4321 C   0  0  0  0  0  0  0  0  0  0  0  0
   13.6986  -14.4157   18.7281 O   0  0  0  0  0  0  0  0  0  0  0  0
   11.4260  -15.0378   19.0152 C   0  0  0  0  0  0  0  0  0  0  0  0
   10.2669  -14.7994   19.8974 C   0  0  0  0  0  0  0  0  0  0  0  0
    9.1388  -15.7826   19.7857 C   0  0  2  0  0  0  0  0  0  0  0  0
    8.3884  -15.5774   18.6104 N   0  0  0  0  0  0  0  0  0  0  0  0
    8.3348  -15.7308   21.0560 C   0  0  0  0  0  0  0  0  0  0  0  0
    7.4904  -14.7834   21.2146 O   0  0  0  0  0  0  0  0  0  0  0  0
    8.4328  -16.6463   22.0994 N   0  0  0  0  0  0  0  0  0  0  0  0
    7.7095  -16.5758   23.3445 C   0  0  1  0  0  0  0  0  0  0  0  0
    7.5463  -17.9633   23.9677 C   0  0  0  0  0  0  0  0  0  0  0  0
    6.5921  -18.8079   23.1783 C   0  0  0  0  0  0  0  0  0  0  0  0
    6.4740  -20.1520   23.8612 C   0  0  0  0  0  0  0  0  0  0  0  0
    5.4756  -21.0588   23.2156 C   0  0  0  0  0  0  0  0  0  0  0  0
    5.4315  -22.2849   23.9925 N   0  0  0  0  0  0  0  0  0  0  0  0
    8.2997  -15.7052   24.3469 C   0  0  0  0  0  0  0  0  0  0  0  0
    9.5235  -15.7465   24.5857 O   0  0  0  0  0  0  0  0  0  0  0  0
    6.6420  -12.1700   25.1100 C   0  0  0  0  0  0  0  0  0  0  0  0
    6.9426  -12.9041   26.4134 C   0  0  2  0  0  0  0  0  0  0  0  0
    7.3821  -11.8907   27.4345 C   0  0  0  0  0  0  0  0  0  0  0  0
    8.0316  -13.9151   26.1026 C   0  0  2  0  0  0  0  0  0  0  0  0
    7.5044  -14.7926   25.0742 N   0  0  0  0  0  0  0  0  0  0  0  0
    8.4110  -14.6766   27.3187 C   0  0  0  0  0  0  0  0  0  0  0  0
    7.7171  -15.6624   27.6667 O   0  0  0  0  0  0  0  0  0  0  0  0
    9.5051  -14.3351   28.0815 O   0  0  0  0  0  0  0  0  0  0  0  0
  2  1  1  0
  3  2  2  0
  4  2  1  0
  5  4  1  0
  6  5  1  0
  6  8  1  0
  6  7  1  6
  8  9  2  0
 10  8  1  0
 10 11  1  0
 11 12  1  1
 12 13  1  0
 13 14  1  0
 15 14  1  0
 16 15  1  0
 17 11  1  0
 17 18  2  0
 20 19  1  6
 20 22  1  0
 21 20  1  0
 22 24  1  0
 22 23  1  6
 23 17  1  0
 24 26  1  0
 25 24  2  0
M  END
$$$$
