QKV.pdb
     RDKit          3D

 26 25  0  0  1  0  0  0  0  0999 V2000
   14.5405  -19.0471   19.8679 N   0  0  0  0  0  0  0  0  0  0  0  0
   13.9355  -18.4434   18.7040 C   0  0  0  0  0  0  0  0  0  0  0  0
   14.2110  -18.9290   17.5801 O   0  0  0  0  0  0  0  0  0  0  0  0
   13.0273  -17.2907   18.8247 C   0  0  0  0  0  0  0  0  0  0  0  0
   12.8374  -16.8028   20.2047 C   0  0  0  0  0  0  0  0  0  0  0  0
   11.7111  -17.4259   20.9762 C   0  0  2  0  0  0  0  0  0  0  0  0
   10.7002  -17.9053   20.1190 N   0  0  0  0  0  0  0  0  0  0  0  0
   11.2376  -16.4386   22.0078 C   0  0  0  0  0  0  0  0  0  0  0  0
   12.1009  -15.7128   22.6105 O   0  0  0  0  0  0  0  0  0  0  0  0
    9.9091  -16.2421   22.3724 N   0  0  0  0  0  0  0  0  0  0  0  0
    9.4524  -15.3855   23.4382 C   0  0  1  0  0  0  0  0  0  0  0  0
    7.9305  -15.2328   23.4104 C   0  0  0  0  0  0  0  0  0  0  0  0
    7.5134  -14.0726   22.5580 C   0  0  0  0  0  0  0  0  0  0  0  0
    7.8468  -14.3987   21.1194 C   0  0  0  0  0  0  0  0  0  0  0  0
    7.4310  -13.3313   20.1583 C   0  0  0  0  0  0  0  0  0  0  0  0
    7.8843  -13.7308   18.8377 N   0  0  0  0  0  0  0  0  0  0  0  0
    9.8315  -15.8146   24.7737 C   0  0  0  0  0  0  0  0  0  0  0  0
   10.1232  -17.0060   25.0012 O   0  0  0  0  0  0  0  0  0  0  0  0
   10.5891  -12.8261   27.3545 C   0  0  0  0  0  0  0  0  0  0  0  0
   10.0246  -14.0512   28.0678 C   0  0  2  0  0  0  0  0  0  0  0  0
   10.6890  -14.1612   29.4128 C   0  0  0  0  0  0  0  0  0  0  0  0
   10.3222  -15.2470   27.1810 C   0  0  2  0  0  0  0  0  0  0  0  0
    9.8791  -14.8955   25.8448 N   0  0  0  0  0  0  0  0  0  0  0  0
    9.6280  -16.4612   27.6775 C   0  0  0  0  0  0  0  0  0  0  0  0
    8.4303  -16.6567   27.3586 O   0  0  0  0  0  0  0  0  0  0  0  0
   10.2582  -17.3850   28.4806 O   0  0  0  0  0  0  0  0  0  0  0  0
  2  1  1  0
  3  2  2  0
  4  2  1  0
  5  4  1  0
  6  5  1  0
  6  8  1  0
  6  7  1  6
  8  9  2  0
 10  8  1  0
 10 11  1  0
 11 12  1  1
 12 13  1  0
 13 14  1  0
 15 14  1  0
 16 15  1  0
 17 11  1  0
 17 18  2  0
 20 19  1  6
 20 22  1  0
 21 20  1  0
 22 24  1  0
 22 23  1  6
 23 17  1  0
 24 26  1  0
 25 24  2  0
M  END
$$$$
