QKV.pdb
     RDKit          3D

 26 25  0  0  1  0  0  0  0  0999 V2000
   12.0335  -13.5825   20.1016 N   0  0  0  0  0  0  0  0  0  0  0  0
   11.1524  -13.9174   19.0077 C   0  0  0  0  0  0  0  0  0  0  0  0
   11.4383  -14.9198   18.3088 O   0  0  0  0  0  0  0  0  0  0  0  0
    9.9574  -13.1093   18.7129 C   0  0  0  0  0  0  0  0  0  0  0  0
    8.8282  -13.3262   19.6384 C   0  0  0  0  0  0  0  0  0  0  0  0
    8.4308  -14.7543   19.8719 C   0  0  2  0  0  0  0  0  0  0  0  0
    7.7379  -15.2858   18.7656 N   0  0  0  0  0  0  0  0  0  0  0  0
    7.6810  -14.8328   21.1737 C   0  0  0  0  0  0  0  0  0  0  0  0
    6.8211  -13.9265   21.4471 O   0  0  0  0  0  0  0  0  0  0  0  0
    7.8463  -15.8301   22.1299 N   0  0  0  0  0  0  0  0  0  0  0  0
    7.2426  -15.8419   23.4390 C   0  0  1  0  0  0  0  0  0  0  0  0
    6.8951  -17.2667   23.8742 C   0  0  0  0  0  0  0  0  0  0  0  0
    8.1149  -18.1366   23.9205 C   0  0  0  0  0  0  0  0  0  0  0  0
    7.6780  -19.5465   24.2496 C   0  0  0  0  0  0  0  0  0  0  0  0
    8.8174  -20.5079   24.3654 C   0  0  0  0  0  0  0  0  0  0  0  0
    8.2554  -21.8260   24.6014 N   0  0  0  0  0  0  0  0  0  0  0  0
    8.0464  -15.2401   24.4893 C   0  0  0  0  0  0  0  0  0  0  0  0
    9.2850  -15.3877   24.5072 O   0  0  0  0  0  0  0  0  0  0  0  0
    6.0960  -12.7472   27.1498 C   0  0  0  0  0  0  0  0  0  0  0  0
    7.5742  -12.5102   26.8549 C   0  0  2  0  0  0  0  0  0  0  0  0
    7.6768  -11.6095   25.6546 C   0  0  0  0  0  0  0  0  0  0  0  0
    8.1922  -13.8739   26.6037 C   0  0  2  0  0  0  0  0  0  0  0  0
    7.4467  -14.4750   25.5135 N   0  0  0  0  0  0  0  0  0  0  0  0
    8.1345  -14.7154   27.8249 C   0  0  0  0  0  0  0  0  0  0  0  0
    7.2689  -15.6201   27.9062 O   0  0  0  0  0  0  0  0  0  0  0  0
    9.0041  -14.5351   28.8769 O   0  0  0  0  0  0  0  0  0  0  0  0
  2  1  1  0
  3  2  2  0
  4  2  1  0
  5  4  1  0
  6  5  1  0
  6  8  1  0
  6  7  1  6
  8  9  2  0
 10  8  1  0
 10 11  1  0
 11 12  1  1
 12 13  1  0
 13 14  1  0
 15 14  1  0
 16 15  1  0
 17 11  1  0
 17 18  2  0
 20 19  1  6
 20 22  1  0
 21 20  1  0
 22 24  1  0
 22 23  1  6
 23 17  1  0
 24 26  1  0
 25 24  2  0
M  END
$$$$
