QKV.pdb
     RDKit          3D

 26 25  0  0  1  0  0  0  0  0999 V2000
    7.2253  -12.4117   17.8030 N   0  0  0  0  0  0  0  0  0  0  0  0
    8.0738  -13.5134   18.1920 C   0  0  0  0  0  0  0  0  0  0  0  0
    8.3277  -14.3914   17.3320 O   0  0  0  0  0  0  0  0  0  0  0  0
    8.6228  -13.6124   19.5546 C   0  0  0  0  0  0  0  0  0  0  0  0
    7.6150  -13.8605   20.6040 C   0  0  0  0  0  0  0  0  0  0  0  0
    7.1345  -15.2760   20.7366 C   0  0  2  0  0  0  0  0  0  0  0  0
    5.9794  -15.5047   19.9620 N   0  0  0  0  0  0  0  0  0  0  0  0
    6.9768  -15.5901   22.1993 C   0  0  0  0  0  0  0  0  0  0  0  0
    6.2495  -14.8246   22.9207 O   0  0  0  0  0  0  0  0  0  0  0  0
    7.5687  -16.6674   22.8516 N   0  0  0  0  0  0  0  0  0  0  0  0
    7.4595  -16.9547   24.2601 C   0  0  1  0  0  0  0  0  0  0  0  0
    7.5173  -18.4607   24.5227 C   0  0  0  0  0  0  0  0  0  0  0  0
    7.4360  -18.7631   25.9885 C   0  0  0  0  0  0  0  0  0  0  0  0
    7.4805  -20.2644   26.1648 C   0  0  0  0  0  0  0  0  0  0  0  0
    7.3121  -20.6993   27.5855 C   0  0  0  0  0  0  0  0  0  0  0  0
    7.2861  -22.1512   27.5985 N   0  0  0  0  0  0  0  0  0  0  0  0
    8.4654  -16.3193   25.0943 C   0  0  0  0  0  0  0  0  0  0  0  0
    9.6365  -16.1817   24.6869 O   0  0  0  0  0  0  0  0  0  0  0  0
    7.6045  -13.1706   26.8876 C   0  0  0  0  0  0  0  0  0  0  0  0
    8.2490  -14.0530   27.9525 C   0  0  2  0  0  0  0  0  0  0  0  0
    9.0995  -13.1812   28.8353 C   0  0  0  0  0  0  0  0  0  0  0  0
    9.0688  -15.0968   27.2155 C   0  0  2  0  0  0  0  0  0  0  0  0
    8.1430  -15.8430   26.3840 N   0  0  0  0  0  0  0  0  0  0  0  0
    9.7747  -15.9876   28.1699 C   0  0  0  0  0  0  0  0  0  0  0  0
    9.1785  -16.9927   28.6268 O   0  0  0  0  0  0  0  0  0  0  0  0
   11.0689  -15.7462   28.5726 O   0  0  0  0  0  0  0  0  0  0  0  0
  2  1  1  0
  3  2  2  0
  4  2  1  0
  5  4  1  0
  6  5  1  0
  6  8  1  0
  6  7  1  6
  8  9  2  0
 10  8  1  0
 10 11  1  0
 11 12  1  6
 12 13  1  0
 13 14  1  0
 15 14  1  0
 16 15  1  0
 17 11  1  0
 17 18  2  0
 20 19  1  6
 20 22  1  0
 21 20  1  0
 22 24  1  0
 22 23  1  1
 23 17  1  0
 24 26  1  0
 25 24  2  0
M  END
$$$$
