DYA.pdb
     RDKit          3D

 26 26  0  0  1  0  0  0  0  0999 V2000
   10.0742  -16.2434   18.5808 N   0  0  0  0  0  0  0  0  0  0  0  0
    9.5005  -17.0466   19.6261 C   0  0  1  0  0  0  0  0  0  0  0  0
   10.1321  -18.4133   19.6392 C   0  0  0  0  0  0  0  0  0  0  0  0
    9.9155  -19.0456   18.3271 C   0  0  0  0  0  0  0  0  0  0  0  0
    8.7852  -19.4504   18.0043 O   0  0  0  0  0  0  0  0  0  0  0  0
    9.5572  -16.3655   20.9469 C   0  0  0  0  0  0  0  0  0  0  0  0
   10.6808  -16.2316   21.4784 O   0  0  0  0  0  0  0  0  0  0  0  0
   10.9647  -19.1945   17.4443 O   0  0  0  0  0  0  0  0  0  0  0  0
    6.8629  -11.9059   28.1127 O   0  0  0  0  0  0  0  0  0  0  0  0
    6.9503  -12.5179   26.8752 C   0  0  0  0  0  0  0  0  0  0  0  0
    7.7703  -11.9641   25.9160 C   0  0  0  0  0  0  0  0  0  0  0  0
    7.8596  -12.5673   24.6878 C   0  0  0  0  0  0  0  0  0  0  0  0
    7.1325  -13.7262   24.4073 C   0  0  0  0  0  0  0  0  0  0  0  0
    7.2405  -14.3458   23.0709 C   0  0  0  0  0  0  0  0  0  0  0  0
    8.4800  -15.1965   22.8942 C   0  0  2  0  0  0  0  0  0  0  0  0
    8.4032  -15.8774   21.6025 N   0  0  0  0  0  0  0  0  0  0  0  0
    8.6673  -16.1830   23.9898 C   0  0  0  0  0  0  0  0  0  0  0  0
    7.8282  -17.1142   24.1071 O   0  0  0  0  0  0  0  0  0  0  0  0
    6.3171  -14.2608   25.3880 C   0  0  0  0  0  0  0  0  0  0  0  0
    6.2182  -13.6642   26.6277 C   0  0  0  0  0  0  0  0  0  0  0  0
   11.1857  -17.9472   25.5826 C   0  0  0  0  0  0  0  0  0  0  0  0
    9.9914  -17.0937   25.9266 C   0  0  2  0  0  0  0  0  0  0  0  0
    9.7531  -16.1145   24.9064 N   0  0  0  0  0  0  0  0  0  0  0  0
   10.1920  -16.4886   27.2633 C   0  0  0  0  0  0  0  0  0  0  0  0
   10.3478  -17.2706   28.2349 O   0  0  0  0  0  0  0  0  0  0  0  0
   10.2207  -15.1343   27.5208 O   0  0  0  0  0  0  0  0  0  0  0  0
  2  1  1  6
  3  2  1  0
  3  4  1  0
  4  5  2  0
  6  2  1  0
  7  6  2  0
  8  4  1  0
  9 10  1  0
 10 11  2  0
 10 20  1  0
 11 12  1  0
 12 13  2  0
 13 14  1  0
 15 14  1  1
 15 17  1  0
 15 16  1  0
 16  6  1  0
 17 23  1  0
 18 17  2  0
 19 13  1  0
 20 19  2  0
 22 21  1  6
 22 24  1  0
 23 22  1  0
 24 25  2  0
 24 26  1  0
M  END
$$$$
