DYA.pdb
     RDKit          3D

 26 26  0  0  1  0  0  0  0  0999 V2000
   11.3741  -16.7349   19.7044 N   0  0  0  0  0  0  0  0  0  0  0  0
   10.6967  -17.3976   20.7854 C   0  0  1  0  0  0  0  0  0  0  0  0
   11.4302  -18.6561   21.1666 C   0  0  0  0  0  0  0  0  0  0  0  0
   11.3085  -19.6250   20.0644 C   0  0  0  0  0  0  0  0  0  0  0  0
   10.5765  -19.3788   19.0901 O   0  0  0  0  0  0  0  0  0  0  0  0
   10.4630  -16.4872   21.9380 C   0  0  0  0  0  0  0  0  0  0  0  0
   11.4500  -15.8706   22.3945 O   0  0  0  0  0  0  0  0  0  0  0  0
   12.0054  -20.8146   20.1031 O   0  0  0  0  0  0  0  0  0  0  0  0
    6.2368  -11.3083   27.6995 O   0  0  0  0  0  0  0  0  0  0  0  0
    6.5601  -12.1790   26.6744 C   0  0  0  0  0  0  0  0  0  0  0  0
    6.1380  -13.4883   26.7561 C   0  0  0  0  0  0  0  0  0  0  0  0
    6.4567  -14.3550   25.7423 C   0  0  0  0  0  0  0  0  0  0  0  0
    7.1979  -13.9226   24.6404 C   0  0  0  0  0  0  0  0  0  0  0  0
    7.5355  -14.8829   23.5702 C   0  0  0  0  0  0  0  0  0  0  0  0
    8.9671  -15.3718   23.6223 C   0  0  2  0  0  0  0  0  0  0  0  0
    9.1862  -16.3047   22.5179 N   0  0  0  0  0  0  0  0  0  0  0  0
    9.3145  -16.0116   24.9179 C   0  0  0  0  0  0  0  0  0  0  0  0
    8.7836  -17.1175   25.2011 O   0  0  0  0  0  0  0  0  0  0  0  0
    7.6088  -12.6034   24.5838 C   0  0  0  0  0  0  0  0  0  0  0  0
    7.2951  -11.7213   25.5966 C   0  0  0  0  0  0  0  0  0  0  0  0
   11.8494  -15.3319   27.6348 C   0  0  0  0  0  0  0  0  0  0  0  0
   10.7195  -16.1054   27.0038 C   0  0  2  0  0  0  0  0  0  0  0  0
   10.2193  -15.4242   25.8453 N   0  0  0  0  0  0  0  0  0  0  0  0
    9.6699  -16.3524   28.0187 C   0  0  0  0  0  0  0  0  0  0  0  0
    9.9798  -17.0581   29.0117 O   0  0  0  0  0  0  0  0  0  0  0  0
    8.3808  -15.8670   27.9560 O   0  0  0  0  0  0  0  0  0  0  0  0
  2  1  1  6
  3  2  1  0
  3  4  1  0
  4  5  2  0
  6  2  1  0
  7  6  2  0
  8  4  1  0
  9 10  1  0
 10 11  2  0
 10 20  1  0
 11 12  1  0
 12 13  2  0
 13 14  1  0
 15 14  1  1
 15 17  1  0
 15 16  1  0
 16  6  1  0
 17 23  1  0
 18 17  2  0
 19 13  1  0
 20 19  2  0
 22 21  1  1
 22 24  1  0
 23 22  1  0
 24 25  2  0
 24 26  1  0
M  END
$$$$
