DYA.pdb
     RDKit          3D

 26 26  0  0  1  0  0  0  0  0999 V2000
    9.4756  -18.3982   20.6647 N   0  0  0  0  0  0  0  0  0  0  0  0
   10.6436  -17.6492   21.0411 C   0  0  1  0  0  0  0  0  0  0  0  0
   11.2285  -16.9569   19.8386 C   0  0  0  0  0  0  0  0  0  0  0  0
   11.6663  -17.9786   18.8728 C   0  0  0  0  0  0  0  0  0  0  0  0
   11.6123  -19.1852   19.1676 O   0  0  0  0  0  0  0  0  0  0  0  0
   10.3710  -16.7227   22.1719 C   0  0  0  0  0  0  0  0  0  0  0  0
   11.3128  -16.0008   22.5653 O   0  0  0  0  0  0  0  0  0  0  0  0
   12.1406  -17.6063   17.6324 O   0  0  0  0  0  0  0  0  0  0  0  0
    7.5973  -12.6137   18.4290 O   0  0  0  0  0  0  0  0  0  0  0  0
    7.5791  -13.1927   19.6851 C   0  0  0  0  0  0  0  0  0  0  0  0
    8.2106  -12.5453   20.7249 C   0  0  0  0  0  0  0  0  0  0  0  0
    8.1953  -13.1161   21.9717 C   0  0  0  0  0  0  0  0  0  0  0  0
    7.5505  -14.3354   22.1906 C   0  0  0  0  0  0  0  0  0  0  0  0
    7.5617  -14.9306   23.5423 C   0  0  0  0  0  0  0  0  0  0  0  0
    8.8385  -15.6758   23.8673 C   0  0  2  0  0  0  0  0  0  0  0  0
    9.1065  -16.6381   22.7995 N   0  0  0  0  0  0  0  0  0  0  0  0
    8.7895  -16.3631   25.1841 C   0  0  0  0  0  0  0  0  0  0  0  0
    8.3398  -15.7288   26.1743 O   0  0  0  0  0  0  0  0  0  0  0  0
    6.9246  -14.9637   21.1294 C   0  0  0  0  0  0  0  0  0  0  0  0
    6.9324  -14.4005   19.8703 C   0  0  0  0  0  0  0  0  0  0  0  0
    9.2075  -19.8774   26.4351 C   0  0  0  0  0  0  0  0  0  0  0  0
    9.1989  -18.3823   26.6294 C   0  0  2  0  0  0  0  0  0  0  0  0
    9.2299  -17.7034   25.3667 N   0  0  0  0  0  0  0  0  0  0  0  0
   10.3239  -17.9978   27.5123 C   0  0  0  0  0  0  0  0  0  0  0  0
   10.2771  -18.3800   28.7088 O   0  0  0  0  0  0  0  0  0  0  0  0
   11.4166  -17.2537   27.1205 O   0  0  0  0  0  0  0  0  0  0  0  0
  2  1  1  6
  3  2  1  0
  3  4  1  0
  4  5  2  0
  6  2  1  0
  7  6  2  0
  8  4  1  0
  9 10  1  0
 10 11  2  0
 10 20  1  0
 11 12  1  0
 12 13  2  0
 13 14  1  0
 15 14  1  6
 15 17  1  0
 15 16  1  0
 16  6  1  0
 17 23  1  0
 18 17  2  0
 19 13  1  0
 20 19  2  0
 22 21  1  6
 22 24  1  0
 23 22  1  0
 24 25  2  0
 24 26  1  0
M  END
$$$$
