DYA.pdb
     RDKit          3D

 26 26  0  0  1  0  0  0  0  0999 V2000
    9.9841  -17.2321   18.6958 N   0  0  0  0  0  0  0  0  0  0  0  0
    9.0812  -17.6042   19.7509 C   0  0  1  0  0  0  0  0  0  0  0  0
    9.2100  -19.0737   20.0528 C   0  0  0  0  0  0  0  0  0  0  0  0
    8.9481  -19.8334   18.8189 C   0  0  0  0  0  0  0  0  0  0  0  0
    9.7464  -20.7071   18.4382 O   0  0  0  0  0  0  0  0  0  0  0  0
    9.2458  -16.7453   20.9538 C   0  0  0  0  0  0  0  0  0  0  0  0
   10.4108  -16.5303   21.3533 O   0  0  0  0  0  0  0  0  0  0  0  0
    7.8147  -19.5824   18.0741 O   0  0  0  0  0  0  0  0  0  0  0  0
    7.1548  -11.8727   28.0459 O   0  0  0  0  0  0  0  0  0  0  0  0
    7.1309  -12.5582   26.8447 C   0  0  0  0  0  0  0  0  0  0  0  0
    7.9143  -12.1055   25.8051 C   0  0  0  0  0  0  0  0  0  0  0  0
    7.8933  -12.7818   24.6123 C   0  0  0  0  0  0  0  0  0  0  0  0
    7.0919  -13.9136   24.4477 C   0  0  0  0  0  0  0  0  0  0  0  0
    7.0818  -14.6134   23.1471 C   0  0  0  0  0  0  0  0  0  0  0  0
    8.3169  -15.4527   22.8993 C   0  0  2  0  0  0  0  0  0  0  0  0
    8.1476  -16.1793   21.6418 N   0  0  0  0  0  0  0  0  0  0  0  0
    8.6078  -16.3978   24.0088 C   0  0  0  0  0  0  0  0  0  0  0  0
    7.7560  -17.2846   24.2790 O   0  0  0  0  0  0  0  0  0  0  0  0
    6.3155  -14.3462   25.5073 C   0  0  0  0  0  0  0  0  0  0  0  0
    6.3273  -13.6753   26.7123 C   0  0  0  0  0  0  0  0  0  0  0  0
   11.5139  -17.8757   25.5392 C   0  0  0  0  0  0  0  0  0  0  0  0
   10.1465  -17.2916   25.7885 C   0  0  2  0  0  0  0  0  0  0  0  0
    9.8062  -16.3379   24.7731 N   0  0  0  0  0  0  0  0  0  0  0  0
   10.1028  -16.7146   27.1516 C   0  0  0  0  0  0  0  0  0  0  0  0
   10.3165  -17.4919   28.1160 O   0  0  0  0  0  0  0  0  0  0  0  0
    9.8460  -15.3912   27.4411 O   0  0  0  0  0  0  0  0  0  0  0  0
  2  1  1  6
  3  2  1  0
  3  4  1  0
  4  5  2  0
  6  2  1  0
  7  6  2  0
  8  4  1  0
  9 10  1  0
 10 11  2  0
 10 20  1  0
 11 12  1  0
 12 13  2  0
 13 14  1  0
 15 14  1  1
 15 17  1  0
 15 16  1  0
 16  6  1  0
 17 23  1  0
 18 17  2  0
 19 13  1  0
 20 19  2  0
 22 21  1  6
 22 24  1  0
 23 22  1  0
 24 25  2  0
 24 26  1  0
M  END
$$$$
