DYA.pdb
     RDKit          3D

 26 26  0  0  1  0  0  0  0  0999 V2000
   10.1390  -17.0835   17.3807 N   0  0  0  0  0  0  0  0  0  0  0  0
   10.7864  -17.8467   18.4127 C   0  0  1  0  0  0  0  0  0  0  0  0
   12.1254  -18.3409   17.9331 C   0  0  0  0  0  0  0  0  0  0  0  0
   11.9222  -19.1520   16.7211 C   0  0  0  0  0  0  0  0  0  0  0  0
   11.0545  -20.0422   16.6996 O   0  0  0  0  0  0  0  0  0  0  0  0
   10.8669  -17.0956   19.6938 C   0  0  0  0  0  0  0  0  0  0  0  0
   11.7438  -16.2096   19.7881 O   0  0  0  0  0  0  0  0  0  0  0  0
   12.6928  -18.9317   15.5986 O   0  0  0  0  0  0  0  0  0  0  0  0
    7.3376  -12.2198   18.1666 O   0  0  0  0  0  0  0  0  0  0  0  0
    7.6839  -13.1158   19.1620 C   0  0  0  0  0  0  0  0  0  0  0  0
    7.0005  -14.3094   19.2494 C   0  0  0  0  0  0  0  0  0  0  0  0
    7.3403  -15.2004   20.2349 C   0  0  0  0  0  0  0  0  0  0  0  0
    8.3632  -14.9079   21.1396 C   0  0  0  0  0  0  0  0  0  0  0  0
    8.6979  -15.8828   22.1975 C   0  0  0  0  0  0  0  0  0  0  0  0
   10.0427  -16.5502   22.0051 C   0  0  2  0  0  0  0  0  0  0  0  0
   10.0003  -17.3502   20.7819 N   0  0  0  0  0  0  0  0  0  0  0  0
   10.4425  -17.3931   23.1620 C   0  0  0  0  0  0  0  0  0  0  0  0
    9.6869  -18.3410   23.5018 O   0  0  0  0  0  0  0  0  0  0  0  0
    9.0326  -13.7028   21.0293 C   0  0  0  0  0  0  0  0  0  0  0  0
    8.7010  -12.7978   20.0427 C   0  0  0  0  0  0  0  0  0  0  0  0
   13.4718  -17.6356   25.4118 C   0  0  0  0  0  0  0  0  0  0  0  0
   12.0814  -18.0141   24.9681 C   0  0  2  0  0  0  0  0  0  0  0  0
   11.6404  -17.1699   23.8961 N   0  0  0  0  0  0  0  0  0  0  0  0
   11.1699  -17.9791   26.1346 C   0  0  0  0  0  0  0  0  0  0  0  0
   11.4226  -18.7560   27.0898 O   0  0  0  0  0  0  0  0  0  0  0  0
   10.0671  -17.1596   26.2508 O   0  0  0  0  0  0  0  0  0  0  0  0
  2  1  1  6
  3  2  1  0
  3  4  1  0
  4  5  2  0
  6  2  1  0
  7  6  2  0
  8  4  1  0
  9 10  1  0
 10 11  2  0
 10 20  1  0
 11 12  1  0
 12 13  2  0
 13 14  1  0
 15 14  1  1
 15 17  1  0
 15 16  1  0
 16  6  1  0
 17 23  1  0
 18 17  2  0
 19 13  1  0
 20 19  2  0
 22 21  1  1
 22 24  1  0
 23 22  1  0
 24 25  2  0
 24 26  1  0
M  END
$$$$
