DYA.pdb
     RDKit          3D

 26 26  0  0  1  0  0  0  0  0999 V2000
   10.6938  -17.0243   19.4727 N   0  0  0  0  0  0  0  0  0  0  0  0
   11.4011  -17.3353   20.6850 C   0  0  1  0  0  0  0  0  0  0  0  0
   12.8871  -17.3052   20.4437 C   0  0  0  0  0  0  0  0  0  0  0  0
   13.1995  -18.1968   19.3142 C   0  0  0  0  0  0  0  0  0  0  0  0
   14.3527  -18.2438   18.8519 O   0  0  0  0  0  0  0  0  0  0  0  0
   10.9766  -16.4678   21.8159 C   0  0  0  0  0  0  0  0  0  0  0  0
   11.7884  -15.6060   22.2173 O   0  0  0  0  0  0  0  0  0  0  0  0
   12.2157  -18.9878   18.7587 O   0  0  0  0  0  0  0  0  0  0  0  0
    7.7627  -12.5624   18.1732 O   0  0  0  0  0  0  0  0  0  0  0  0
    7.8174  -13.1809   19.4093 C   0  0  0  0  0  0  0  0  0  0  0  0
    7.2259  -14.4163   19.5614 C   0  0  0  0  0  0  0  0  0  0  0  0
    7.2774  -15.0329   20.7852 C   0  0  0  0  0  0  0  0  0  0  0  0
    7.9187  -14.4226   21.8654 C   0  0  0  0  0  0  0  0  0  0  0  0
    7.9469  -15.1065   23.1742 C   0  0  0  0  0  0  0  0  0  0  0  0
    9.2955  -15.7006   23.5201 C   0  0  2  0  0  0  0  0  0  0  0  0
    9.7109  -16.5883   22.4350 N   0  0  0  0  0  0  0  0  0  0  0  0
    9.2926  -16.4307   24.8146 C   0  0  0  0  0  0  0  0  0  0  0  0
    8.7217  -15.8971   25.8017 O   0  0  0  0  0  0  0  0  0  0  0  0
    8.5039  -13.1826   21.6851 C   0  0  0  0  0  0  0  0  0  0  0  0
    8.4595  -12.5515   20.4595 C   0  0  0  0  0  0  0  0  0  0  0  0
   10.0362  -19.9229   25.9399 C   0  0  0  0  0  0  0  0  0  0  0  0
    9.8712  -18.4476   26.2041 C   0  0  2  0  0  0  0  0  0  0  0  0
    9.9079  -17.7027   24.9793 N   0  0  0  0  0  0  0  0  0  0  0  0
   10.9015  -18.0064   27.1719 C   0  0  0  0  0  0  0  0  0  0  0  0
   10.9113  -18.5613   28.2997 O   0  0  0  0  0  0  0  0  0  0  0  0
   11.8489  -17.0345   26.9287 O   0  0  0  0  0  0  0  0  0  0  0  0
  2  1  1  6
  3  2  1  0
  3  4  1  0
  4  5  2  0
  6  2  1  0
  7  6  2  0
  8  4  1  0
  9 10  1  0
 10 11  2  0
 10 20  1  0
 11 12  1  0
 12 13  2  0
 13 14  1  0
 15 14  1  6
 15 17  1  0
 15 16  1  0
 16  6  1  0
 17 23  1  0
 18 17  2  0
 19 13  1  0
 20 19  2  0
 22 21  1  6
 22 24  1  0
 23 22  1  0
 24 25  2  0
 24 26  1  0
M  END
$$$$
