DYA.pdb
     RDKit          3D

 26 26  0  0  1  0  0  0  0  0999 V2000
   11.9389  -16.8663   20.0483 N   0  0  0  0  0  0  0  0  0  0  0  0
   11.4581  -17.4726   21.2599 C   0  0  1  0  0  0  0  0  0  0  0  0
   12.4556  -18.4781   21.7708 C   0  0  0  0  0  0  0  0  0  0  0  0
   12.4873  -19.6230   20.8453 C   0  0  0  0  0  0  0  0  0  0  0  0
   11.4349  -20.2062   20.5319 O   0  0  0  0  0  0  0  0  0  0  0  0
   11.0796  -16.4575   22.2787 C   0  0  0  0  0  0  0  0  0  0  0  0
   11.9306  -15.5896   22.5713 O   0  0  0  0  0  0  0  0  0  0  0  0
   13.6848  -20.0590   20.3179 O   0  0  0  0  0  0  0  0  0  0  0  0
    6.0709  -11.0095   27.0264 O   0  0  0  0  0  0  0  0  0  0  0  0
    6.5370  -12.0145   26.1979 C   0  0  0  0  0  0  0  0  0  0  0  0
    6.2120  -13.3214   26.4902 C   0  0  0  0  0  0  0  0  0  0  0  0
    6.6723  -14.3208   25.6717 C   0  0  0  0  0  0  0  0  0  0  0  0
    7.4593  -14.0244   24.5567 C   0  0  0  0  0  0  0  0  0  0  0  0
    7.9499  -15.1238   23.7011 C   0  0  0  0  0  0  0  0  0  0  0  0
    9.4312  -15.3963   23.8520 C   0  0  2  0  0  0  0  0  0  0  0  0
    9.8146  -16.4474   22.9107 N   0  0  0  0  0  0  0  0  0  0  0  0
    9.8125  -15.7766   25.2372 C   0  0  0  0  0  0  0  0  0  0  0  0
    9.7811  -16.9947   25.5539 O   0  0  0  0  0  0  0  0  0  0  0  0
    7.7705  -12.7043   24.2866 C   0  0  0  0  0  0  0  0  0  0  0  0
    7.3140  -11.6895   25.1016 C   0  0  0  0  0  0  0  0  0  0  0  0
   10.9830  -13.9399   28.3332 C   0  0  0  0  0  0  0  0  0  0  0  0
   10.6923  -15.1737   27.5167 C   0  0  2  0  0  0  0  0  0  0  0  0
   10.2092  -14.8209   26.2134 N   0  0  0  0  0  0  0  0  0  0  0  0
    9.7494  -16.0405   28.2599 C   0  0  0  0  0  0  0  0  0  0  0  0
    8.5521  -16.0545   27.8775 O   0  0  0  0  0  0  0  0  0  0  0  0
   10.0862  -16.8319   29.3377 O   0  0  0  0  0  0  0  0  0  0  0  0
  2  1  1  6
  3  2  1  0
  3  4  1  0
  4  5  2  0
  6  2  1  0
  7  6  2  0
  8  4  1  0
  9 10  1  0
 10 11  2  0
 10 20  1  0
 11 12  1  0
 12 13  2  0
 13 14  1  0
 15 14  1  1
 15 17  1  0
 15 16  1  0
 16  6  1  0
 17 23  1  0
 18 17  2  0
 19 13  1  0
 20 19  2  0
 22 21  1  1
 22 24  1  0
 23 22  1  0
 24 25  2  0
 24 26  1  0
M  END
$$$$
