DYA.pdb
     RDKit          3D

 26 26  0  0  1  0  0  0  0  0999 V2000
    9.8075  -18.1039   20.7123 N   0  0  0  0  0  0  0  0  0  0  0  0
   10.9517  -17.3014   21.0496 C   0  0  1  0  0  0  0  0  0  0  0  0
   11.5539  -16.7038   19.8057 C   0  0  0  0  0  0  0  0  0  0  0  0
   11.8937  -17.7938   18.8756 C   0  0  0  0  0  0  0  0  0  0  0  0
   11.0349  -18.2470   18.0993 O   0  0  0  0  0  0  0  0  0  0  0  0
   10.6336  -16.2863   22.0888 C   0  0  0  0  0  0  0  0  0  0  0  0
   11.5345  -15.4769   22.3986 O   0  0  0  0  0  0  0  0  0  0  0  0
   13.1677  -18.3218   18.8575 O   0  0  0  0  0  0  0  0  0  0  0  0
    5.9884  -11.3393   27.7513 O   0  0  0  0  0  0  0  0  0  0  0  0
    6.4041  -12.1761   26.7313 C   0  0  0  0  0  0  0  0  0  0  0  0
    5.8521  -13.4354   26.6376 C   0  0  0  0  0  0  0  0  0  0  0  0
    6.2616  -14.2684   25.6282 C   0  0  0  0  0  0  0  0  0  0  0  0
    7.2238  -13.8520   24.7056 C   0  0  0  0  0  0  0  0  0  0  0  0
    7.6531  -14.7766   23.6367 C   0  0  0  0  0  0  0  0  0  0  0  0
    9.0893  -15.2353   23.7709 C   0  0  2  0  0  0  0  0  0  0  0  0
    9.3709  -16.2136   22.7214 N   0  0  0  0  0  0  0  0  0  0  0  0
    9.3924  -15.8081   25.1083 C   0  0  0  0  0  0  0  0  0  0  0  0
    9.6150  -15.0172   26.0621 O   0  0  0  0  0  0  0  0  0  0  0  0
    7.7614  -12.5833   24.8227 C   0  0  0  0  0  0  0  0  0  0  0  0
    7.3583  -11.7354   25.8332 C   0  0  0  0  0  0  0  0  0  0  0  0
    8.9050  -19.0366   26.8469 C   0  0  0  0  0  0  0  0  0  0  0  0
    9.7149  -17.7826   26.6351 C   0  0  2  0  0  0  0  0  0  0  0  0
    9.4408  -17.2093   25.3496 N   0  0  0  0  0  0  0  0  0  0  0  0
   11.1505  -18.0896   26.8292 C   0  0  0  0  0  0  0  0  0  0  0  0
   11.4919  -18.5871   27.9318 O   0  0  0  0  0  0  0  0  0  0  0  0
   12.1385  -17.8709   25.8925 O   0  0  0  0  0  0  0  0  0  0  0  0
  2  1  1  6
  3  2  1  0
  3  4  1  0
  4  5  2  0
  6  2  1  0
  7  6  2  0
  8  4  1  0
  9 10  1  0
 10 11  2  0
 10 20  1  0
 11 12  1  0
 12 13  2  0
 13 14  1  0
 15 14  1  1
 15 17  1  0
 15 16  1  0
 16  6  1  0
 17 23  1  0
 18 17  2  0
 19 13  1  0
 20 19  2  0
 22 21  1  6
 22 24  1  0
 23 22  1  0
 24 25  2  0
 24 26  1  0
M  END
$$$$
