DYA.pdb
     RDKit          3D

 26 26  0  0  1  0  0  0  0  0999 V2000
    7.7008  -15.9968   19.4742 N   0  0  0  0  0  0  0  0  0  0  0  0
    8.7480  -15.0513   19.7502 C   0  0  1  0  0  0  0  0  0  0  0  0
    8.4192  -13.7159   19.1374 C   0  0  0  0  0  0  0  0  0  0  0  0
    8.2324  -13.8953   17.6878 C   0  0  0  0  0  0  0  0  0  0  0  0
    9.1835  -14.2545   16.9721 O   0  0  0  0  0  0  0  0  0  0  0  0
    9.0534  -14.9666   21.2032 C   0  0  0  0  0  0  0  0  0  0  0  0
   10.1135  -14.3940   21.5368 O   0  0  0  0  0  0  0  0  0  0  0  0
    7.0008  -13.6664   17.1109 O   0  0  0  0  0  0  0  0  0  0  0  0
    6.2759  -10.5196   26.6065 O   0  0  0  0  0  0  0  0  0  0  0  0
    6.5418  -11.7664   26.0697 C   0  0  0  0  0  0  0  0  0  0  0  0
    7.0757  -12.7412   26.8847 C   0  0  0  0  0  0  0  0  0  0  0  0
    7.3412  -13.9785   26.3565 C   0  0  0  0  0  0  0  0  0  0  0  0
    7.0765  -14.2527   25.0129 C   0  0  0  0  0  0  0  0  0  0  0  0
    7.3846  -15.5915   24.4705 C   0  0  0  0  0  0  0  0  0  0  0  0
    8.6157  -15.6217   23.5903 C   0  0  2  0  0  0  0  0  0  0  0  0
    8.1988  -15.5034   22.1939 N   0  0  0  0  0  0  0  0  0  0  0  0
    9.4372  -16.8449   23.7841 C   0  0  0  0  0  0  0  0  0  0  0  0
    8.9714  -17.9472   23.3928 O   0  0  0  0  0  0  0  0  0  0  0  0
    6.5408  -13.2564   24.2175 C   0  0  0  0  0  0  0  0  0  0  0  0
    6.2688  -12.0076   24.7360 C   0  0  0  0  0  0  0  0  0  0  0  0
   12.9659  -17.7190   24.2379 C   0  0  0  0  0  0  0  0  0  0  0  0
   11.5267  -17.9865   24.5991 C   0  0  2  0  0  0  0  0  0  0  0  0
   10.7229  -16.8172   24.3923 N   0  0  0  0  0  0  0  0  0  0  0  0
   11.4574  -18.4885   25.9905 C   0  0  0  0  0  0  0  0  0  0  0  0
   12.1272  -19.5149   26.2694 O   0  0  0  0  0  0  0  0  0  0  0  0
   10.7147  -17.9150   27.0009 O   0  0  0  0  0  0  0  0  0  0  0  0
  2  1  1  1
  3  2  1  0
  3  4  1  0
  4  5  2  0
  6  2  1  0
  7  6  2  0
  8  4  1  0
  9 10  1  0
 10 11  2  0
 10 20  1  0
 11 12  1  0
 12 13  2  0
 13 14  1  0
 15 14  1  1
 15 17  1  0
 15 16  1  0
 16  6  1  0
 17 23  1  0
 18 17  2  0
 19 13  1  0
 20 19  2  0
 22 21  1  1
 22 24  1  0
 23 22  1  0
 24 25  2  0
 24 26  1  0
M  END
$$$$
