DYA.pdb
     RDKit          3D

 26 26  0  0  1  0  0  0  0  0999 V2000
    9.6211  -18.2225   18.4952 N   0  0  0  0  0  0  0  0  0  0  0  0
   10.9709  -18.0057   18.9400 C   0  0  1  0  0  0  0  0  0  0  0  0
   11.7928  -17.3985   17.8342 C   0  0  0  0  0  0  0  0  0  0  0  0
   11.8590  -18.3546   16.7162 C   0  0  0  0  0  0  0  0  0  0  0  0
   11.3433  -19.4810   16.8222 O   0  0  0  0  0  0  0  0  0  0  0  0
   11.0223  -17.2214   20.2026 C   0  0  0  0  0  0  0  0  0  0  0  0
   12.0754  -16.5943   20.4489 O   0  0  0  0  0  0  0  0  0  0  0  0
   12.4937  -18.0094   15.5414 O   0  0  0  0  0  0  0  0  0  0  0  0
    7.6439  -12.1250   18.3273 O   0  0  0  0  0  0  0  0  0  0  0  0
    7.9015  -12.9986   19.3684 C   0  0  0  0  0  0  0  0  0  0  0  0
    8.9551  -12.7312   20.2156 C   0  0  0  0  0  0  0  0  0  0  0  0
    9.2142  -13.5948   21.2488 C   0  0  0  0  0  0  0  0  0  0  0  0
    8.4252  -14.7304   21.4447 C   0  0  0  0  0  0  0  0  0  0  0  0
    8.7369  -15.6479   22.5593 C   0  0  0  0  0  0  0  0  0  0  0  0
   10.0225  -16.4234   22.3664 C   0  0  2  0  0  0  0  0  0  0  0  0
    9.9393  -17.1673   21.1104 N   0  0  0  0  0  0  0  0  0  0  0  0
   10.3194  -17.3436   23.4950 C   0  0  0  0  0  0  0  0  0  0  0  0
    9.5115  -18.2793   23.7333 O   0  0  0  0  0  0  0  0  0  0  0  0
    7.3743  -14.9748   20.5797 C   0  0  0  0  0  0  0  0  0  0  0  0
    7.1026  -14.1143   19.5365 C   0  0  0  0  0  0  0  0  0  0  0  0
   13.3060  -18.1200   25.6106 C   0  0  0  0  0  0  0  0  0  0  0  0
   11.8195  -18.1259   25.3582 C   0  0  2  0  0  0  0  0  0  0  0  0
   11.4760  -17.2073   24.3121 N   0  0  0  0  0  0  0  0  0  0  0  0
   11.1077  -17.8408   26.6251 C   0  0  0  0  0  0  0  0  0  0  0  0
   10.4071  -16.7983   26.6732 O   0  0  0  0  0  0  0  0  0  0  0  0
   11.1559  -18.6320   27.7533 O   0  0  0  0  0  0  0  0  0  0  0  0
  2  1  1  6
  3  2  1  0
  3  4  1  0
  4  5  2  0
  6  2  1  0
  7  6  2  0
  8  4  1  0
  9 10  1  0
 10 11  2  0
 10 20  1  0
 11 12  1  0
 12 13  2  0
 13 14  1  0
 15 14  1  1
 15 17  1  0
 15 16  1  0
 16  6  1  0
 17 23  1  0
 18 17  2  0
 19 13  1  0
 20 19  2  0
 22 21  1  1
 22 24  1  0
 23 22  1  0
 24 25  2  0
 24 26  1  0
M  END
$$$$
