DYA.pdb
     RDKit          3D

 26 26  0  0  1  0  0  0  0  0999 V2000
    7.6201  -19.0514   20.2574 N   0  0  0  0  0  0  0  0  0  0  0  0
    8.2498  -17.8224   20.6571 C   0  0  1  0  0  0  0  0  0  0  0  0
    7.8014  -16.6937   19.7671 C   0  0  0  0  0  0  0  0  0  0  0  0
    8.4585  -16.8365   18.4571 C   0  0  0  0  0  0  0  0  0  0  0  0
    9.6805  -17.0551   18.3882 O   0  0  0  0  0  0  0  0  0  0  0  0
    8.0505  -17.5389   22.1033 C   0  0  0  0  0  0  0  0  0  0  0  0
    6.8869  -17.6245   22.5523 O   0  0  0  0  0  0  0  0  0  0  0  0
    7.7243  -16.7289   17.2945 O   0  0  0  0  0  0  0  0  0  0  0  0
    9.5783  -16.8151   30.7201 O   0  0  0  0  0  0  0  0  0  0  0  0
    9.6881  -16.9999   29.3536 C   0  0  0  0  0  0  0  0  0  0  0  0
   10.5571  -16.2010   28.6423 C   0  0  0  0  0  0  0  0  0  0  0  0
   10.6688  -16.3806   27.2874 C   0  0  0  0  0  0  0  0  0  0  0  0
    9.9154  -17.3573   26.6324 C   0  0  0  0  0  0  0  0  0  0  0  0
   10.0490  -17.5184   25.1703 C   0  0  0  0  0  0  0  0  0  0  0  0
    8.9016  -16.9189   24.3859 C   0  0  2  0  0  0  0  0  0  0  0  0
    9.1150  -17.1834   22.9637 N   0  0  0  0  0  0  0  0  0  0  0  0
    8.7365  -15.4610   24.6228 C   0  0  0  0  0  0  0  0  0  0  0  0
    9.6420  -14.6830   24.2233 O   0  0  0  0  0  0  0  0  0  0  0  0
    9.0510  -18.1451   27.3704 C   0  0  0  0  0  0  0  0  0  0  0  0
    8.9292  -17.9751   28.7337 C   0  0  0  0  0  0  0  0  0  0  0  0
    6.0073  -13.2103   25.9347 C   0  0  0  0  0  0  0  0  0  0  0  0
    7.4294  -13.5140   25.5363 C   0  0  2  0  0  0  0  0  0  0  0  0
    7.5998  -14.9148   25.2811 N   0  0  0  0  0  0  0  0  0  0  0  0
    8.3483  -13.0081   26.5817 C   0  0  0  0  0  0  0  0  0  0  0  0
    8.9491  -13.8591   27.2850 O   0  0  0  0  0  0  0  0  0  0  0  0
    8.5935  -11.6761   26.8402 O   0  0  0  0  0  0  0  0  0  0  0  0
  2  1  1  6
  3  2  1  0
  3  4  1  0
  4  5  2  0
  6  2  1  0
  7  6  2  0
  8  4  1  0
  9 10  1  0
 10 11  2  0
 10 20  1  0
 11 12  1  0
 12 13  2  0
 13 14  1  0
 15 14  1  1
 15 17  1  0
 15 16  1  0
 16  6  1  0
 17 23  1  0
 18 17  2  0
 19 13  1  0
 20 19  2  0
 22 21  1  1
 22 24  1  0
 23 22  1  0
 24 25  2  0
 24 26  1  0
M  END
$$$$
