PNR.pdb
     RDKit          3D

 27 27  0  0  1  0  0  0  0  0999 V2000
   30.6682  -20.5208   -9.8610 N   0  0  0  0  0  0  0  0  0  0  0  0
   31.2087  -21.3845   -8.8556 C   0  0  0  0  0  0  0  0  0  0  0  0
   31.9438  -22.4394   -9.6742 C   0  0  0  0  0  0  0  0  0  0  0  0
   30.8331  -22.7600  -10.6898 C   0  0  0  0  0  0  0  0  0  0  0  0
   30.2420  -21.3727  -10.9398 C   0  0  1  0  0  0  0  0  0  0  0  0
   28.7628  -21.4697  -10.9698 C   0  0  0  0  0  0  0  0  0  0  0  0
   28.2089  -22.2651  -11.7929 O   0  0  0  0  0  0  0  0  0  0  0  0
   23.9238  -21.4137   -7.9713 N   0  0  0  0  0  0  0  0  0  0  0  0
   24.3777  -20.5497   -9.0010 C   0  0  0  0  0  0  0  0  0  0  0  0
   23.5018  -20.1472   -9.8068 O   0  0  0  0  0  0  0  0  0  0  0  0
   25.8111  -20.1954   -9.0499 C   0  0  0  0  0  0  0  0  0  0  0  0
   26.4665  -20.9507  -10.1750 C   0  0  2  0  0  0  0  0  0  0  0  0
   27.8960  -20.7136  -10.1186 N   0  0  0  0  0  0  0  0  0  0  0  0
   25.9136  -20.3949  -11.4378 C   0  0  0  0  0  0  0  0  0  0  0  0
   26.1187  -19.1534  -11.6631 O   0  0  0  0  0  0  0  0  0  0  0  0
   25.6236  -20.0665  -19.6403 N   0  0  0  0  0  0  0  0  0  0  0  0
   26.7113  -20.3366  -18.7716 C   0  0  0  0  0  0  0  0  0  0  0  0
   27.8848  -19.9875  -19.1178 N   0  0  0  0  0  0  0  0  0  0  0  0
   26.4678  -20.9872  -17.5451 N   0  0  0  0  0  0  0  0  0  0  0  0
   25.1437  -21.4560  -17.2297 C   0  0  0  0  0  0  0  0  0  0  0  0
   24.5473  -20.6415  -16.0703 C   0  0  0  0  0  0  0  0  0  0  0  0
   25.1397  -21.1667  -14.7905 C   0  0  0  0  0  0  0  0  0  0  0  0
   24.5856  -20.4844  -13.5703 C   0  0  2  0  0  0  0  0  0  0  0  0
   25.1920  -21.1151  -12.3948 N   0  0  0  0  0  0  0  0  0  0  0  0
   23.1284  -20.6223  -13.5083 C   0  0  0  0  0  0  0  0  0  0  0  0
   22.2262  -19.8652  -14.2318 O   0  0  0  0  0  0  0  0  0  0  0  0
   22.6172  -21.4884  -12.7443 O   0  0  0  0  0  0  0  0  0  0  0  0
  1  2  1  0
  3  2  1  0
  4  5  1  0
  4  3  1  0
  5  1  1  0
  5  6  1  1
  6  7  2  0
  8  9  1  0
  9 11  1  0
 10  9  2  0
 12 11  1  1
 12 13  1  0
 13  6  1  0
 14 12  1  0
 15 14  2  0
 16 17  1  0
 17 19  1  0
 18 17  2  0
 19 20  1  0
 21 20  1  0
 22 21  1  0
 23 22  1  6
 23 24  1  0
 24 14  1  0
 25 23  1  0
 26 25  1  0
 27 25  2  0
M  END
$$$$
