PNR.pdb
     RDKit          3D

 27 27  0  0  1  0  0  0  0  0999 V2000
   19.3937  -15.2545  -17.3749 N   0  0  0  0  0  0  0  0  0  0  0  0
   18.2655  -15.8217  -18.0488 C   0  0  0  0  0  0  0  0  0  0  0  0
   18.8760  -16.3614  -19.3369 C   0  0  0  0  0  0  0  0  0  0  0  0
   19.6881  -15.1202  -19.7462 C   0  0  0  0  0  0  0  0  0  0  0  0
   20.2027  -14.6348  -18.3912 C   0  0  1  0  0  0  0  0  0  0  0  0
   20.0804  -13.1588  -18.3219 C   0  0  0  0  0  0  0  0  0  0  0  0
   20.7948  -12.4395  -19.0896 O   0  0  0  0  0  0  0  0  0  0  0  0
   17.1153  -11.3752  -19.0240 N   0  0  0  0  0  0  0  0  0  0  0  0
   16.8079  -10.7769  -17.7749 C   0  0  0  0  0  0  0  0  0  0  0  0
   15.6010  -10.4814  -17.5892 O   0  0  0  0  0  0  0  0  0  0  0  0
   17.9016  -10.5499  -16.8081 C   0  0  0  0  0  0  0  0  0  0  0  0
   19.1974  -11.0222  -17.4113 C   0  0  2  0  0  0  0  0  0  0  0  0
   19.1953  -12.4722  -17.4315 N   0  0  0  0  0  0  0  0  0  0  0  0
   20.2828  -10.5328  -16.5216 C   0  0  0  0  0  0  0  0  0  0  0  0
   20.7383  -11.3563  -15.6563 O   0  0  0  0  0  0  0  0  0  0  0  0
   27.6457  -12.2810  -17.0456 N   0  0  0  0  0  0  0  0  0  0  0  0
   27.8161  -11.3775  -15.9661 C   0  0  0  0  0  0  0  0  0  0  0  0
   28.9154  -11.3747  -15.3254 N   0  0  0  0  0  0  0  0  0  0  0  0
   26.7630  -10.5042  -15.6264 N   0  0  0  0  0  0  0  0  0  0  0  0
   25.4819  -10.6377  -16.2693 C   0  0  0  0  0  0  0  0  0  0  0  0
   24.5014   -9.5794  -15.7381 C   0  0  0  0  0  0  0  0  0  0  0  0
   23.1504   -9.8674  -16.3353 C   0  0  0  0  0  0  0  0  0  0  0  0
   22.0889   -8.9151  -15.8579 C   0  0  2  0  0  0  0  0  0  0  0  0
   20.8441   -9.2525  -16.5538 N   0  0  0  0  0  0  0  0  0  0  0  0
   22.4581   -7.5280  -16.1510 C   0  0  0  0  0  0  0  0  0  0  0  0
   23.2929   -6.7461  -15.3750 O   0  0  0  0  0  0  0  0  0  0  0  0
   21.9967   -6.9660  -17.1837 O   0  0  0  0  0  0  0  0  0  0  0  0
  1  2  1  0
  3  2  1  0
  4  5  1  0
  4  3  1  0
  5  1  1  0
  5  6  1  6
  6  7  2  0
  8  9  1  0
  9 11  1  0
 10  9  2  0
 12 11  1  1
 12 13  1  0
 13  6  1  0
 14 12  1  0
 15 14  2  0
 16 17  1  0
 17 19  1  0
 18 17  2  0
 19 20  1  0
 21 20  1  0
 22 21  1  0
 23 22  1  6
 23 24  1  0
 24 14  1  0
 25 23  1  0
 26 25  1  0
 27 25  2  0
M  END
$$$$
