PNR.pdb
     RDKit          3D

 27 27  0  0  1  0  0  0  0  0999 V2000
   26.8458  -20.3353  -16.8561 N   0  0  0  0  0  0  0  0  0  0  0  0
   26.7051  -18.9211  -17.0266 C   0  0  0  0  0  0  0  0  0  0  0  0
   28.0898  -18.3965  -16.6649 C   0  0  0  0  0  0  0  0  0  0  0  0
   28.2936  -19.1684  -15.3494 C   0  0  0  0  0  0  0  0  0  0  0  0
   27.6736  -20.5225  -15.6938 C   0  0  1  0  0  0  0  0  0  0  0  0
   26.8588  -20.9928  -14.5479 C   0  0  0  0  0  0  0  0  0  0  0  0
   26.3322  -22.1494  -14.5933 O   0  0  0  0  0  0  0  0  0  0  0  0
   28.6514  -20.0101  -10.6986 N   0  0  0  0  0  0  0  0  0  0  0  0
   27.4502  -20.7510  -10.5536 C   0  0  0  0  0  0  0  0  0  0  0  0
   27.5660  -21.8901  -10.0364 O   0  0  0  0  0  0  0  0  0  0  0  0
   26.1827  -20.1447  -11.0103 C   0  0  0  0  0  0  0  0  0  0  0  0
   25.7820  -20.7698  -12.3197 C   0  0  2  0  0  0  0  0  0  0  0  0
   26.6179  -20.2187  -13.3688 N   0  0  0  0  0  0  0  0  0  0  0  0
   24.3642  -20.3907  -12.5546 C   0  0  0  0  0  0  0  0  0  0  0  0
   24.1439  -19.2043  -12.9768 O   0  0  0  0  0  0  0  0  0  0  0  0
   18.5935  -25.0483  -16.7149 N   0  0  0  0  0  0  0  0  0  0  0  0
   17.7983  -23.9175  -16.3996 C   0  0  0  0  0  0  0  0  0  0  0  0
   16.6451  -23.8026  -16.9247 N   0  0  0  0  0  0  0  0  0  0  0  0
   18.3043  -22.9456  -15.5128 N   0  0  0  0  0  0  0  0  0  0  0  0
   19.6178  -23.1038  -14.9451 C   0  0  0  0  0  0  0  0  0  0  0  0
   20.0010  -21.8623  -14.1234 C   0  0  0  0  0  0  0  0  0  0  0  0
   21.4051  -22.0628  -13.6202 C   0  0  0  0  0  0  0  0  0  0  0  0
   21.9156  -20.8848  -12.8371 C   0  0  2  0  0  0  0  0  0  0  0  0
   23.2574  -21.2212  -12.3532 N   0  0  0  0  0  0  0  0  0  0  0  0
   21.0398  -20.5913  -11.7001 C   0  0  0  0  0  0  0  0  0  0  0  0
   21.3069  -20.9202  -10.3844 O   0  0  0  0  0  0  0  0  0  0  0  0
   19.9446  -19.9936  -11.8961 O   0  0  0  0  0  0  0  0  0  0  0  0
  1  2  1  0
  3  2  1  0
  4  5  1  0
  4  3  1  0
  5  1  1  0
  5  6  1  1
  6  7  2  0
  8  9  1  0
  9 11  1  0
 10  9  2  0
 12 11  1  1
 12 13  1  0
 13  6  1  0
 14 12  1  0
 15 14  2  0
 16 17  1  0
 17 19  1  0
 18 17  2  0
 19 20  1  0
 21 20  1  0
 22 21  1  0
 23 22  1  1
 23 24  1  0
 24 14  1  0
 25 23  1  0
 26 25  1  0
 27 25  2  0
M  END
$$$$
