PNR.pdb
     RDKit          3D

 27 27  0  0  1  0  0  0  0  0999 V2000
   26.2856  -21.3387  -13.3500 N   0  0  0  0  0  0  0  0  0  0  0  0
   27.2548  -21.2937  -12.2976 C   0  0  0  0  0  0  0  0  0  0  0  0
   26.4297  -21.6334  -11.0619 C   0  0  0  0  0  0  0  0  0  0  0  0
   25.2530  -20.6702  -11.2970 C   0  0  0  0  0  0  0  0  0  0  0  0
   25.0775  -20.7708  -12.8121 C   0  0  1  0  0  0  0  0  0  0  0  0
   24.8496  -19.4157  -13.3690 C   0  0  0  0  0  0  0  0  0  0  0  0
   23.8194  -18.7620  -13.0108 O   0  0  0  0  0  0  0  0  0  0  0  0
   26.1286  -14.2802  -14.5539 N   0  0  0  0  0  0  0  0  0  0  0  0
   26.4032  -15.3335  -15.4638 C   0  0  0  0  0  0  0  0  0  0  0  0
   26.3684  -15.0302  -16.6825 O   0  0  0  0  0  0  0  0  0  0  0  0
   26.7023  -16.6765  -14.9258 C   0  0  0  0  0  0  0  0  0  0  0  0
   25.4151  -17.4405  -14.7664 C   0  0  2  0  0  0  0  0  0  0  0  0
   25.7273  -18.7784  -14.3023 N   0  0  0  0  0  0  0  0  0  0  0  0
   24.7919  -17.5078  -16.1141 C   0  0  0  0  0  0  0  0  0  0  0  0
   25.2805  -18.3558  -16.9366 O   0  0  0  0  0  0  0  0  0  0  0  0
   16.7577  -15.6501  -19.1893 N   0  0  0  0  0  0  0  0  0  0  0  0
   17.7147  -14.6610  -19.5307 C   0  0  0  0  0  0  0  0  0  0  0  0
   17.4196  -13.7867  -20.4068 N   0  0  0  0  0  0  0  0  0  0  0  0
   18.9717  -14.6699  -18.8930 N   0  0  0  0  0  0  0  0  0  0  0  0
   19.6382  -15.9193  -18.6337 C   0  0  0  0  0  0  0  0  0  0  0  0
   20.9152  -15.6863  -17.8102 C   0  0  0  0  0  0  0  0  0  0  0  0
   21.6308  -17.0050  -17.6933 C   0  0  0  0  0  0  0  0  0  0  0  0
   23.1175  -16.8782  -17.8803 C   0  0  2  0  0  0  0  0  0  0  0  0
   23.7204  -16.7242  -16.5535 N   0  0  0  0  0  0  0  0  0  0  0  0
   23.4449  -15.7157  -18.7094 C   0  0  0  0  0  0  0  0  0  0  0  0
   23.8817  -14.4948  -18.2308 O   0  0  0  0  0  0  0  0  0  0  0  0
   23.3302  -15.7945  -19.9647 O   0  0  0  0  0  0  0  0  0  0  0  0
  1  2  1  0
  3  2  1  0
  4  5  1  0
  4  3  1  0
  5  1  1  0
  5  6  1  6
  6  7  2  0
  8  9  1  0
  9 11  1  0
 10  9  2  0
 12 11  1  6
 12 13  1  0
 13  6  1  0
 14 12  1  0
 15 14  2  0
 16 17  1  0
 17 19  1  0
 18 17  2  0
 19 20  1  0
 21 20  1  0
 22 21  1  0
 23 22  1  1
 23 24  1  0
 24 14  1  0
 25 23  1  0
 26 25  1  0
 27 25  2  0
M  END
$$$$
