PNR.pdb
     RDKit          3D

 27 27  0  0  1  0  0  0  0  0999 V2000
   22.9050  -19.2071  -18.6597 N   0  0  0  0  0  0  0  0  0  0  0  0
   24.0589  -19.7405  -19.3175 C   0  0  0  0  0  0  0  0  0  0  0  0
   24.2208  -21.1075  -18.6629 C   0  0  0  0  0  0  0  0  0  0  0  0
   24.0939  -20.6761  -17.1913 C   0  0  0  0  0  0  0  0  0  0  0  0
   23.0024  -19.6098  -17.2814 C   0  0  1  0  0  0  0  0  0  0  0  0
   23.3753  -18.4551  -16.4296 C   0  0  0  0  0  0  0  0  0  0  0  0
   23.8069  -18.6654  -15.2521 O   0  0  0  0  0  0  0  0  0  0  0  0
   25.4078  -14.3986  -14.5997 N   0  0  0  0  0  0  0  0  0  0  0  0
   26.1522  -15.4480  -15.1976 C   0  0  0  0  0  0  0  0  0  0  0  0
   27.3840  -15.4579  -14.9510 O   0  0  0  0  0  0  0  0  0  0  0  0
   25.4427  -16.4277  -16.0458 C   0  0  0  0  0  0  0  0  0  0  0  0
   23.9816  -16.0687  -16.0953 C   0  0  2  0  0  0  0  0  0  0  0  0
   23.2810  -17.0903  -16.8492 N   0  0  0  0  0  0  0  0  0  0  0  0
   23.8885  -14.7663  -16.8054 C   0  0  0  0  0  0  0  0  0  0  0  0
   24.4394  -13.7591  -16.2430 O   0  0  0  0  0  0  0  0  0  0  0  0
   16.8016  -14.5582  -14.2462 N   0  0  0  0  0  0  0  0  0  0  0  0
   16.4522  -13.8590  -15.4293 C   0  0  0  0  0  0  0  0  0  0  0  0
   15.2291  -13.5892  -15.6536 N   0  0  0  0  0  0  0  0  0  0  0  0
   17.4676  -13.4803  -16.3306 N   0  0  0  0  0  0  0  0  0  0  0  0
   18.7271  -14.1774  -16.3298 C   0  0  0  0  0  0  0  0  0  0  0  0
   19.7103  -13.5118  -17.3064 C   0  0  0  0  0  0  0  0  0  0  0  0
   21.0012  -14.2834  -17.2524 C   0  0  0  0  0  0  0  0  0  0  0  0
   22.0529  -13.7217  -18.1688 C   0  0  2  0  0  0  0  0  0  0  0  0
   23.2515  -14.5537  -18.0319 N   0  0  0  0  0  0  0  0  0  0  0  0
   22.3707  -12.3359  -17.8158 C   0  0  0  0  0  0  0  0  0  0  0  0
   21.7170  -11.2205  -18.3048 O   0  0  0  0  0  0  0  0  0  0  0  0
   23.3103  -12.0998  -17.0055 O   0  0  0  0  0  0  0  0  0  0  0  0
  1  2  1  0
  3  2  1  0
  4  5  1  0
  4  3  1  0
  5  1  1  0
  5  6  1  1
  6  7  2  0
  8  9  1  0
  9 11  1  0
 10  9  2  0
 12 11  1  6
 12 13  1  0
 13  6  1  0
 14 12  1  0
 15 14  2  0
 16 17  1  0
 17 19  1  0
 18 17  2  0
 19 20  1  0
 21 20  1  0
 22 21  1  0
 23 22  1  1
 23 24  1  0
 24 14  1  0
 25 23  1  0
 26 25  1  0
 27 25  2  0
M  END
$$$$
