PNR.pdb
     RDKit          3D

 27 27  0  0  1  0  0  0  0  0999 V2000
   26.5665  -17.9913  -17.7379 N   0  0  0  0  0  0  0  0  0  0  0  0
   27.9961  -17.9218  -17.7284 C   0  0  0  0  0  0  0  0  0  0  0  0
   28.3723  -18.4878  -19.0927 C   0  0  0  0  0  0  0  0  0  0  0  0
   27.4930  -19.7504  -19.0702 C   0  0  0  0  0  0  0  0  0  0  0  0
   26.2256  -19.2247  -18.3965 C   0  0  1  0  0  0  0  0  0  0  0  0
   25.7458  -20.2228  -17.4107 C   0  0  0  0  0  0  0  0  0  0  0  0
   25.4300  -21.3881  -17.8100 O   0  0  0  0  0  0  0  0  0  0  0  0
   27.4866  -21.9390  -15.8628 N   0  0  0  0  0  0  0  0  0  0  0  0
   27.3144  -21.7496  -14.4674 C   0  0  0  0  0  0  0  0  0  0  0  0
   28.2763  -22.1053  -13.7416 O   0  0  0  0  0  0  0  0  0  0  0  0
   26.0485  -21.1633  -13.9814 C   0  0  0  0  0  0  0  0  0  0  0  0
   25.1026  -21.0044  -15.1415 C   0  0  2  0  0  0  0  0  0  0  0  0
   25.6100  -19.9603  -16.0106 N   0  0  0  0  0  0  0  0  0  0  0  0
   23.7947  -20.5911  -14.5690 C   0  0  0  0  0  0  0  0  0  0  0  0
   23.6990  -19.3860  -14.1532 O   0  0  0  0  0  0  0  0  0  0  0  0
   17.3804  -23.1539  -11.1445 N   0  0  0  0  0  0  0  0  0  0  0  0
   16.4013  -22.6403  -12.0323 C   0  0  0  0  0  0  0  0  0  0  0  0
   15.2450  -22.3548  -11.5848 N   0  0  0  0  0  0  0  0  0  0  0  0
   16.7309  -22.4595  -13.3909 N   0  0  0  0  0  0  0  0  0  0  0  0
   18.0553  -22.7756  -13.8581 C   0  0  0  0  0  0  0  0  0  0  0  0
   19.0356  -21.6473  -13.4983 C   0  0  0  0  0  0  0  0  0  0  0  0
   20.3495  -21.9532  -14.1653 C   0  0  0  0  0  0  0  0  0  0  0  0
   21.4192  -20.9510  -13.8294 C   0  0  2  0  0  0  0  0  0  0  0  0
   22.6662  -21.4080  -14.4490 N   0  0  0  0  0  0  0  0  0  0  0  0
   21.5991  -20.8416  -12.3797 C   0  0  0  0  0  0  0  0  0  0  0  0
   21.0362  -19.8651  -11.5796 O   0  0  0  0  0  0  0  0  0  0  0  0
   22.3195  -21.6857  -11.7765 O   0  0  0  0  0  0  0  0  0  0  0  0
  1  2  1  0
  3  2  1  0
  4  5  1  0
  4  3  1  0
  5  1  1  0
  5  6  1  1
  6  7  2  0
  8  9  1  0
  9 11  1  0
 10  9  2  0
 12 11  1  1
 12 13  1  0
 13  6  1  0
 14 12  1  0
 15 14  2  0
 16 17  1  0
 17 19  1  0
 18 17  2  0
 19 20  1  0
 21 20  1  0
 22 21  1  0
 23 22  1  1
 23 24  1  0
 24 14  1  0
 25 23  1  0
 26 25  1  0
 27 25  2  0
M  END
$$$$
