PNR.pdb
     RDKit          3D

 27 27  0  0  1  0  0  0  0  0999 V2000
   18.4182  -21.6002  -11.4279 N   0  0  0  0  0  0  0  0  0  0  0  0
   17.3919  -22.3874  -12.0410 C   0  0  0  0  0  0  0  0  0  0  0  0
   17.4745  -23.7051  -11.2793 C   0  0  0  0  0  0  0  0  0  0  0  0
   18.9960  -23.9216  -11.3553 C   0  0  0  0  0  0  0  0  0  0  0  0
   19.5144  -22.4959  -11.1682 C   0  0  1  0  0  0  0  0  0  0  0  0
   20.6220  -22.2492  -12.1224 C   0  0  0  0  0  0  0  0  0  0  0  0
   21.7271  -22.8578  -11.9625 O   0  0  0  0  0  0  0  0  0  0  0  0
   23.4815  -21.1608  -16.0847 N   0  0  0  0  0  0  0  0  0  0  0  0
   22.2439  -20.5484  -16.4105 C   0  0  0  0  0  0  0  0  0  0  0  0
   22.1545  -20.0725  -17.5699 O   0  0  0  0  0  0  0  0  0  0  0  0
   21.1774  -20.5153  -15.3888 C   0  0  0  0  0  0  0  0  0  0  0  0
   21.6321  -21.2853  -14.1778 C   0  0  2  0  0  0  0  0  0  0  0  0
   20.5324  -21.3539  -13.2351 N   0  0  0  0  0  0  0  0  0  0  0  0
   22.7570  -20.5164  -13.5839 C   0  0  0  0  0  0  0  0  0  0  0  0
   22.4542  -19.4689  -12.9165 O   0  0  0  0  0  0  0  0  0  0  0  0
   30.0196  -20.8911   -9.2053 N   0  0  0  0  0  0  0  0  0  0  0  0
   30.0882  -21.8566  -10.2415 C   0  0  0  0  0  0  0  0  0  0  0  0
   31.1484  -22.5464  -10.3793 N   0  0  0  0  0  0  0  0  0  0  0  0
   28.9807  -22.0289  -11.0964 N   0  0  0  0  0  0  0  0  0  0  0  0
   27.8080  -21.2111  -10.9284 C   0  0  0  0  0  0  0  0  0  0  0  0
   26.7828  -21.5082  -12.0349 C   0  0  0  0  0  0  0  0  0  0  0  0
   25.6487  -20.5309  -11.8816 C   0  0  0  0  0  0  0  0  0  0  0  0
   25.1807  -19.9726  -13.1972 C   0  0  2  0  0  0  0  0  0  0  0  0
   24.1120  -20.8436  -13.6942 N   0  0  0  0  0  0  0  0  0  0  0  0
   26.2760  -19.9310  -14.1691 C   0  0  0  0  0  0  0  0  0  0  0  0
   27.3108  -19.0146  -14.1627 O   0  0  0  0  0  0  0  0  0  0  0  0
   26.3126  -20.7811  -15.1024 O   0  0  0  0  0  0  0  0  0  0  0  0
  1  2  1  0
  3  2  1  0
  4  5  1  0
  4  3  1  0
  5  1  1  0
  5  6  1  6
  6  7  2  0
  8  9  1  0
  9 11  1  0
 10  9  2  0
 12 11  1  6
 12 13  1  0
 13  6  1  0
 14 12  1  0
 15 14  2  0
 16 17  1  0
 17 19  1  0
 18 17  2  0
 19 20  1  0
 21 20  1  0
 22 21  1  0
 23 22  1  1
 23 24  1  0
 24 14  1  0
 25 23  1  0
 26 25  1  0
 27 25  2  0
M  END
$$$$
