PNR.pdb
     RDKit          3D

 27 27  0  0  1  0  0  0  0  0999 V2000
   18.1958   -9.4873  -16.0947 N   0  0  0  0  0  0  0  0  0  0  0  0
   18.9766   -9.2789  -17.2761 C   0  0  0  0  0  0  0  0  0  0  0  0
   19.7014  -10.6094  -17.4428 C   0  0  0  0  0  0  0  0  0  0  0  0
   20.2081  -10.7795  -15.9998 C   0  0  0  0  0  0  0  0  0  0  0  0
   19.0173  -10.2560  -15.1971 C   0  0  1  0  0  0  0  0  0  0  0  0
   19.5112   -9.4038  -14.0890 C   0  0  0  0  0  0  0  0  0  0  0  0
   20.2770   -9.9107  -13.2093 O   0  0  0  0  0  0  0  0  0  0  0  0
   20.5764   -5.7983  -10.7725 N   0  0  0  0  0  0  0  0  0  0  0  0
   21.1935   -5.5747  -12.0302 C   0  0  0  0  0  0  0  0  0  0  0  0
   22.1628   -4.7753  -12.0326 O   0  0  0  0  0  0  0  0  0  0  0  0
   20.6646   -6.2797  -13.2158 C   0  0  0  0  0  0  0  0  0  0  0  0
   19.6547   -7.3031  -12.7698 C   0  0  2  0  0  0  0  0  0  0  0  0
   19.1787   -8.0204  -13.9368 N   0  0  0  0  0  0  0  0  0  0  0  0
   18.5332   -6.5501  -12.1497 C   0  0  0  0  0  0  0  0  0  0  0  0
   17.7916   -5.8651  -12.9340 O   0  0  0  0  0  0  0  0  0  0  0  0
   12.0739   -9.0944   -7.5861 N   0  0  0  0  0  0  0  0  0  0  0  0
   12.9417   -9.2668   -8.6941 C   0  0  0  0  0  0  0  0  0  0  0  0
   12.9382  -10.3745   -9.3202 N   0  0  0  0  0  0  0  0  0  0  0  0
   13.7898   -8.2075   -9.0757 N   0  0  0  0  0  0  0  0  0  0  0  0
   14.2688   -7.2773   -8.0869 C   0  0  0  0  0  0  0  0  0  0  0  0
   15.0808   -6.1551   -8.7538 C   0  0  0  0  0  0  0  0  0  0  0  0
   16.2863   -6.7842   -9.3985 C   0  0  0  0  0  0  0  0  0  0  0  0
   17.0636   -5.8160  -10.2469 C   0  0  2  0  0  0  0  0  0  0  0  0
   18.2240   -6.5303  -10.7862 N   0  0  0  0  0  0  0  0  0  0  0  0
   17.5142   -4.6688   -9.4549 C   0  0  0  0  0  0  0  0  0  0  0  0
   16.7272   -3.5898   -9.0987 O   0  0  0  0  0  0  0  0  0  0  0  0
   18.7091   -4.6240   -9.0483 O   0  0  0  0  0  0  0  0  0  0  0  0
  1  2  1  0
  3  2  1  0
  4  5  1  0
  4  3  1  0
  5  1  1  0
  5  6  1  1
  6  7  2  0
  8  9  1  0
  9 11  1  0
 10  9  2  0
 12 11  1  6
 12 13  1  0
 13  6  1  0
 14 12  1  0
 15 14  2  0
 16 17  1  0
 17 19  1  0
 18 17  2  0
 19 20  1  0
 21 20  1  0
 22 21  1  0
 23 22  1  1
 23 24  1  0
 24 14  1  0
 25 23  1  0
 26 25  1  0
 27 25  2  0
M  END
$$$$
