PNR.pdb
     RDKit          3D

 27 27  0  0  1  0  0  0  0  0999 V2000
   29.4050  -21.9384  -12.5497 N   0  0  0  0  0  0  0  0  0  0  0  0
   30.7975  -21.6793  -12.3433 C   0  0  0  0  0  0  0  0  0  0  0  0
   30.8541  -21.2809  -10.8732 C   0  0  0  0  0  0  0  0  0  0  0  0
   29.6982  -20.2653  -10.8637 C   0  0  0  0  0  0  0  0  0  0  0  0
   28.6917  -20.9435  -11.7930 C   0  0  1  0  0  0  0  0  0  0  0  0
   28.1015  -19.9287  -12.6986 C   0  0  0  0  0  0  0  0  0  0  0  0
   27.4620  -18.9487  -12.2009 O   0  0  0  0  0  0  0  0  0  0  0  0
   26.5224  -16.9938  -16.3813 N   0  0  0  0  0  0  0  0  0  0  0  0
   27.6862  -17.6062  -16.9136 C   0  0  0  0  0  0  0  0  0  0  0  0
   28.0985  -17.1456  -18.0074 O   0  0  0  0  0  0  0  0  0  0  0  0
   28.3126  -18.7133  -16.1623 C   0  0  0  0  0  0  0  0  0  0  0  0
   27.5094  -18.9794  -14.9173 C   0  0  2  0  0  0  0  0  0  0  0  0
   28.2032  -19.9765  -14.1252 N   0  0  0  0  0  0  0  0  0  0  0  0
   26.1977  -19.5160  -15.3652 C   0  0  0  0  0  0  0  0  0  0  0  0
   26.2133  -20.3522  -16.3321 O   0  0  0  0  0  0  0  0  0  0  0  0
   25.2918  -22.2180  -10.7265 N   0  0  0  0  0  0  0  0  0  0  0  0
   24.6332  -21.3136   -9.8553 C   0  0  0  0  0  0  0  0  0  0  0  0
   24.9685  -21.2765   -8.6284 N   0  0  0  0  0  0  0  0  0  0  0  0
   23.6208  -20.4774  -10.3680 N   0  0  0  0  0  0  0  0  0  0  0  0
   23.0074  -20.7834  -11.6339 C   0  0  0  0  0  0  0  0  0  0  0  0
   23.7221  -20.0364  -12.7717 C   0  0  0  0  0  0  0  0  0  0  0  0
   23.0323  -20.3975  -14.0596 C   0  0  0  0  0  0  0  0  0  0  0  0
   23.7017  -19.7981  -15.2654 C   0  0  2  0  0  0  0  0  0  0  0  0
   24.9546  -19.1833  -14.8182 N   0  0  0  0  0  0  0  0  0  0  0  0
   22.8487  -18.7833  -15.8890 C   0  0  0  0  0  0  0  0  0  0  0  0
   23.1347  -17.4324  -15.9508 O   0  0  0  0  0  0  0  0  0  0  0  0
   21.7569  -19.1296  -16.4213 O   0  0  0  0  0  0  0  0  0  0  0  0
  1  2  1  0
  3  2  1  0
  4  5  1  0
  4  3  1  0
  5  1  1  0
  5  6  1  6
  6  7  2  0
  8  9  1  0
  9 11  1  0
 10  9  2  0
 12 11  1  6
 12 13  1  0
 13  6  1  0
 14 12  1  0
 15 14  2  0
 16 17  1  0
 17 19  1  0
 18 17  2  0
 19 20  1  0
 21 20  1  0
 22 21  1  0
 23 22  1  1
 23 24  1  0
 24 14  1  0
 25 23  1  0
 26 25  1  0
 27 25  2  0
M  END
$$$$
