PNR.pdb
     RDKit          3D

 27 27  0  0  1  0  0  0  0  0999 V2000
   27.1661  -18.7508  -20.1588 N   0  0  0  0  0  0  0  0  0  0  0  0
   28.4511  -18.3088  -19.7093 C   0  0  0  0  0  0  0  0  0  0  0  0
   29.0875  -19.5915  -19.1870 C   0  0  0  0  0  0  0  0  0  0  0  0
   27.9154  -20.0988  -18.3287 C   0  0  0  0  0  0  0  0  0  0  0  0
   26.7175  -19.7291  -19.2033 C   0  0  1  0  0  0  0  0  0  0  0  0
   25.6444  -19.1651  -18.3497 C   0  0  0  0  0  0  0  0  0  0  0  0
   25.9604  -18.4750  -17.3294 O   0  0  0  0  0  0  0  0  0  0  0  0
   19.6386  -18.3029  -17.5544 N   0  0  0  0  0  0  0  0  0  0  0  0
   21.0071  -17.9294  -17.5289 C   0  0  0  0  0  0  0  0  0  0  0  0
   21.3049  -16.9856  -16.7549 O   0  0  0  0  0  0  0  0  0  0  0  0
   21.9582  -18.6584  -18.3928 C   0  0  0  0  0  0  0  0  0  0  0  0
   23.2838  -18.7622  -17.6871 C   0  0  2  0  0  0  0  0  0  0  0  0
   24.2473  -19.3476  -18.5992 N   0  0  0  0  0  0  0  0  0  0  0  0
   23.0765  -19.6662  -16.5256 C   0  0  0  0  0  0  0  0  0  0  0  0
   23.0229  -20.9200  -16.7696 O   0  0  0  0  0  0  0  0  0  0  0  0
   25.2886  -21.0132   -8.1354 N   0  0  0  0  0  0  0  0  0  0  0  0
   26.1980  -20.9590   -9.2220 C   0  0  0  0  0  0  0  0  0  0  0  0
   27.4298  -21.2010   -9.0143 N   0  0  0  0  0  0  0  0  0  0  0  0
   25.7168  -20.6367  -10.5071 N   0  0  0  0  0  0  0  0  0  0  0  0
   24.4805  -19.9137  -10.6521 C   0  0  0  0  0  0  0  0  0  0  0  0
   23.6009  -20.5646  -11.7319 C   0  0  0  0  0  0  0  0  0  0  0  0
   23.7276  -19.7390  -12.9837 C   0  0  0  0  0  0  0  0  0  0  0  0
   22.8176  -20.2091  -14.0848 C   0  0  2  0  0  0  0  0  0  0  0  0
   22.9367  -19.2600  -15.1950 N   0  0  0  0  0  0  0  0  0  0  0  0
   21.4266  -20.2635  -13.6286 C   0  0  0  0  0  0  0  0  0  0  0  0
   20.8063  -21.3792  -13.0984 O   0  0  0  0  0  0  0  0  0  0  0  0
   20.7037  -19.2312  -13.7112 O   0  0  0  0  0  0  0  0  0  0  0  0
  1  2  1  0
  3  2  1  0
  4  5  1  0
  4  3  1  0
  5  1  1  0
  5  6  1  1
  6  7  2  0
  8  9  1  0
  9 11  1  0
 10  9  2  0
 12 11  1  6
 12 13  1  0
 13  6  1  0
 14 12  1  0
 15 14  2  0
 16 17  1  0
 17 19  1  0
 18 17  2  0
 19 20  1  0
 21 20  1  0
 22 21  1  0
 23 22  1  1
 23 24  1  0
 24 14  1  0
 25 23  1  0
 26 25  1  0
 27 25  2  0
M  END
$$$$
