PNR.pdb
     RDKit          3D

 27 27  0  0  1  0  0  0  0  0999 V2000
   25.0074  -14.3335  -17.0889 N   0  0  0  0  0  0  0  0  0  0  0  0
   24.0873  -13.5531  -17.8591 C   0  0  0  0  0  0  0  0  0  0  0  0
   23.6485  -12.4761  -16.8739 C   0  0  0  0  0  0  0  0  0  0  0  0
   23.3347  -13.3790  -15.6681 C   0  0  0  0  0  0  0  0  0  0  0  0
   24.4607  -14.4086  -15.7597 C   0  0  1  0  0  0  0  0  0  0  0  0
   23.9092  -15.7606  -15.5022 C   0  0  0  0  0  0  0  0  0  0  0  0
   23.4167  -16.0234  -14.3596 O   0  0  0  0  0  0  0  0  0  0  0  0
   22.3338  -20.5094  -15.5992 N   0  0  0  0  0  0  0  0  0  0  0  0
   22.4023  -20.1606  -16.9727 C   0  0  0  0  0  0  0  0  0  0  0  0
   21.9464  -21.0096  -17.7788 O   0  0  0  0  0  0  0  0  0  0  0  0
   22.9904  -18.8577  -17.3458 C   0  0  0  0  0  0  0  0  0  0  0  0
   23.3705  -18.1130  -16.0941 C   0  0  2  0  0  0  0  0  0  0  0  0
   23.8924  -16.8136  -16.4710 N   0  0  0  0  0  0  0  0  0  0  0  0
   24.4361  -18.9107  -15.4327 C   0  0  0  0  0  0  0  0  0  0  0  0
   25.5980  -18.8795  -15.9649 O   0  0  0  0  0  0  0  0  0  0  0  0
   27.7406  -21.5982   -8.3372 N   0  0  0  0  0  0  0  0  0  0  0  0
   26.8552  -20.4914   -8.3793 C   0  0  0  0  0  0  0  0  0  0  0  0
   27.1000  -19.4717   -7.6587 N   0  0  0  0  0  0  0  0  0  0  0  0
   25.7230  -20.5469   -9.2172 N   0  0  0  0  0  0  0  0  0  0  0  0
   25.4965  -21.7026  -10.0451 C   0  0  0  0  0  0  0  0  0  0  0  0
   26.0300  -21.4585  -11.4661 C   0  0  0  0  0  0  0  0  0  0  0  0
   24.9787  -20.6933  -12.2238 C   0  0  0  0  0  0  0  0  0  0  0  0
   25.3824  -20.4004  -13.6425 C   0  0  2  0  0  0  0  0  0  0  0  0
   24.2728  -19.6880  -14.2819 N   0  0  0  0  0  0  0  0  0  0  0  0
   25.6619  -21.6381  -14.3748 C   0  0  0  0  0  0  0  0  0  0  0  0
   26.9225  -22.1467  -14.6254 O   0  0  0  0  0  0  0  0  0  0  0  0
   24.7027  -22.3219  -14.8304 O   0  0  0  0  0  0  0  0  0  0  0  0
  1  2  1  0
  3  2  1  0
  4  5  1  0
  4  3  1  0
  5  1  1  0
  5  6  1  6
  6  7  2  0
  8  9  1  0
  9 11  1  0
 10  9  2  0
 12 11  1  6
 12 13  1  0
 13  6  1  0
 14 12  1  0
 15 14  2  0
 16 17  1  0
 17 19  1  0
 18 17  2  0
 19 20  1  0
 21 20  1  0
 22 21  1  0
 23 22  1  1
 23 24  1  0
 24 14  1  0
 25 23  1  0
 26 25  1  0
 27 25  2  0
M  END
$$$$
