PNR.pdb
     RDKit          3D

 27 27  0  0  1  0  0  0  0  0999 V2000
   18.9589   -8.8329  -16.1852 N   0  0  0  0  0  0  0  0  0  0  0  0
   20.0335   -9.6232  -16.7041 C   0  0  0  0  0  0  0  0  0  0  0  0
   19.4513  -11.0318  -16.6999 C   0  0  0  0  0  0  0  0  0  0  0  0
   18.8823  -11.0431  -15.2703 C   0  0  0  0  0  0  0  0  0  0  0  0
   18.3434   -9.6179  -15.1477 C   0  0  1  0  0  0  0  0  0  0  0  0
   18.6925   -9.0763  -13.8124 C   0  0  0  0  0  0  0  0  0  0  0  0
   18.2379   -9.6485  -12.7717 O   0  0  0  0  0  0  0  0  0  0  0  0
   20.9807   -7.1344   -9.8746 N   0  0  0  0  0  0  0  0  0  0  0  0
   21.5563   -6.3937  -10.9390 C   0  0  0  0  0  0  0  0  0  0  0  0
   22.4715   -5.5941  -10.6203 O   0  0  0  0  0  0  0  0  0  0  0  0
   21.0502   -6.6105  -12.3099 C   0  0  0  0  0  0  0  0  0  0  0  0
   19.8617   -7.5326  -12.2554 C   0  0  2  0  0  0  0  0  0  0  0  0
   19.5231   -7.9291  -13.6086 N   0  0  0  0  0  0  0  0  0  0  0  0
   18.7441   -6.7500  -11.6658 C   0  0  0  0  0  0  0  0  0  0  0  0
   18.2382   -5.8261  -12.3903 O   0  0  0  0  0  0  0  0  0  0  0  0
   11.8945   -9.4065   -7.4085 N   0  0  0  0  0  0  0  0  0  0  0  0
   11.6604   -8.0080   -7.4112 C   0  0  0  0  0  0  0  0  0  0  0  0
   10.4949   -7.5723   -7.1451 N   0  0  0  0  0  0  0  0  0  0  0  0
   12.7239   -7.1325   -7.7102 N   0  0  0  0  0  0  0  0  0  0  0  0
   14.0015   -7.6623   -8.1095 C   0  0  0  0  0  0  0  0  0  0  0  0
   14.9254   -6.5316   -8.5905 C   0  0  0  0  0  0  0  0  0  0  0  0
   16.1869   -7.1636   -9.1139 C   0  0  0  0  0  0  0  0  0  0  0  0
   17.0305   -6.2055   -9.9088 C   0  0  2  0  0  0  0  0  0  0  0  0
   18.2032   -6.9407  -10.3905 N   0  0  0  0  0  0  0  0  0  0  0  0
   17.4614   -5.0754   -9.0823 C   0  0  0  0  0  0  0  0  0  0  0  0
   16.8351   -3.8443   -9.0290 O   0  0  0  0  0  0  0  0  0  0  0  0
   18.4820   -5.1948   -8.3479 O   0  0  0  0  0  0  0  0  0  0  0  0
  1  2  1  0
  3  2  1  0
  4  5  1  0
  4  3  1  0
  5  1  1  0
  5  6  1  1
  6  7  2  0
  8  9  1  0
  9 11  1  0
 10  9  2  0
 12 11  1  6
 12 13  1  0
 13  6  1  0
 14 12  1  0
 15 14  2  0
 16 17  1  0
 17 19  1  0
 18 17  2  0
 19 20  1  0
 21 20  1  0
 22 21  1  0
 23 22  1  1
 23 24  1  0
 24 14  1  0
 25 23  1  0
 26 25  1  0
 27 25  2  0
M  END
$$$$
