PNR.pdb
     RDKit          3D

 27 27  0  0  1  0  0  0  0  0999 V2000
   22.9949  -19.5622  -14.7224 N   0  0  0  0  0  0  0  0  0  0  0  0
   23.5866  -19.9190  -15.9760 C   0  0  0  0  0  0  0  0  0  0  0  0
   24.0240  -18.5723  -16.5402 C   0  0  0  0  0  0  0  0  0  0  0  0
   22.7207  -17.7886  -16.3058 C   0  0  0  0  0  0  0  0  0  0  0  0
   22.2797  -18.3337  -14.9476 C   0  0  1  0  0  0  0  0  0  0  0  0
   20.8182  -18.5823  -14.9716 C   0  0  0  0  0  0  0  0  0  0  0  0
   20.0250  -17.6063  -15.1596 O   0  0  0  0  0  0  0  0  0  0  0  0
   19.3870  -21.4948  -17.9306 N   0  0  0  0  0  0  0  0  0  0  0  0
   18.5978  -20.6715  -17.0867 C   0  0  0  0  0  0  0  0  0  0  0  0
   18.1483  -19.6206  -17.6082 O   0  0  0  0  0  0  0  0  0  0  0  0
   18.3682  -21.0987  -15.6912 C   0  0  0  0  0  0  0  0  0  0  0  0
   18.7798  -19.9878  -14.7626 C   0  0  2  0  0  0  0  0  0  0  0  0
   20.2250  -19.8723  -14.7936 N   0  0  0  0  0  0  0  0  0  0  0  0
   18.3358  -20.3864  -13.4012 C   0  0  0  0  0  0  0  0  0  0  0  0
   19.2305  -20.8433  -12.6106 O   0  0  0  0  0  0  0  0  0  0  0  0
   10.9674  -17.5895  -10.2536 N   0  0  0  0  0  0  0  0  0  0  0  0
   11.8806  -16.6742  -10.8359 C   0  0  0  0  0  0  0  0  0  0  0  0
   11.5240  -15.4651  -11.0085 N   0  0  0  0  0  0  0  0  0  0  0  0
   13.1621  -17.1253  -11.2118 N   0  0  0  0  0  0  0  0  0  0  0  0
   13.4672  -18.5318  -11.1821 C   0  0  0  0  0  0  0  0  0  0  0  0
   14.9591  -18.7642  -11.4714 C   0  0  0  0  0  0  0  0  0  0  0  0
   15.2269  -20.2388  -11.3354 C   0  0  0  0  0  0  0  0  0  0  0  0
   16.6782  -20.5858  -11.5219 C   0  0  2  0  0  0  0  0  0  0  0  0
   17.0268  -20.3024  -12.9168 N   0  0  0  0  0  0  0  0  0  0  0  0
   16.9212  -22.0005  -11.2297 C   0  0  0  0  0  0  0  0  0  0  0  0
   17.1105  -22.5311   -9.9674 O   0  0  0  0  0  0  0  0  0  0  0  0
   16.9707  -22.8325  -12.1787 O   0  0  0  0  0  0  0  0  0  0  0  0
  1  2  1  0
  3  2  1  0
  4  5  1  0
  4  3  1  0
  5  1  1  0
  5  6  1  6
  6  7  2  0
  8  9  1  0
  9 11  1  0
 10  9  2  0
 12 11  1  6
 12 13  1  0
 13  6  1  0
 14 12  1  0
 15 14  2  0
 16 17  1  0
 17 19  1  0
 18 17  2  0
 19 20  1  0
 21 20  1  0
 22 21  1  0
 23 22  1  6
 23 24  1  0
 24 14  1  0
 25 23  1  0
 26 25  1  0
 27 25  2  0
M  END
$$$$
