MCG.pdb
     RDKit          3D

 19 18  0  0  1  0  0  0  0  0999 V2000
   26.6967  -16.2994  -16.4979 C   0  0  0  0  0  0  0  0  0  0  0  0
   27.5549  -17.3380  -17.7346 S   0  0  0  0  0  0  0  0  0  0  0  0
   28.0523  -18.8981  -16.9422 C   0  0  0  0  0  0  0  0  0  0  0  0
   27.5245  -18.9674  -15.5511 C   0  0  0  0  0  0  0  0  0  0  0  0
   27.9912  -20.1960  -14.7727 C   0  0  2  0  0  0  0  0  0  0  0  0
   28.3315  -21.1626  -15.8456 N   0  0  0  0  0  0  0  0  0  0  0  0
   26.8663  -20.7772  -14.0034 C   0  0  0  0  0  0  0  0  0  0  0  0
   25.9902  -21.4916  -14.5771 O   0  0  0  0  0  0  0  0  0  0  0  0
   26.6590  -20.6073  -12.6020 N   0  0  0  0  0  0  0  0  0  0  0  0
   25.4578  -21.0373  -11.9513 C   0  0  1  0  0  0  0  0  0  0  0  0
   25.6426  -20.6642  -10.4611 C   0  0  0  0  0  0  0  0  0  0  0  0
   24.1621  -21.0625   -9.5194 S   0  0  0  0  0  0  0  0  0  0  0  0
   24.2181  -20.4104  -12.3776 C   0  0  0  0  0  0  0  0  0  0  0  0
   24.2055  -19.1420  -12.4292 O   0  0  0  0  0  0  0  0  0  0  0  0
   23.0141  -21.0620  -12.7459 N   0  0  0  0  0  0  0  0  0  0  0  0
   21.8482  -20.3232  -13.2152 C   0  0  0  0  0  0  0  0  0  0  0  0
   20.6374  -21.0453  -12.7831 C   0  0  0  0  0  0  0  0  0  0  0  0
   20.7811  -22.2743  -12.1758 O   0  0  0  0  0  0  0  0  0  0  0  0
   19.4939  -20.5765  -12.9514 O   0  0  0  0  0  0  0  0  0  0  0  0
  2  1  1  0
  3  2  1  0
  4  3  1  0
  4  5  1  0
  5  6  1  6
  7  5  1  0
  7  8  2  0
  9  7  1  0
 10  9  1  0
 10 11  1  1
 10 13  1  0
 11 12  1  0
 13 15  1  0
 13 14  2  0
 15 16  1  0
 16 17  1  0
 17 19  2  0
 17 18  1  0
M  END
$$$$
