MCG.pdb
     RDKit          3D

 19 18  0  0  1  0  0  0  0  0999 V2000
   30.3109  -22.3306   -9.7553 C   0  0  0  0  0  0  0  0  0  0  0  0
   31.2952  -21.3219  -10.9206 S   0  0  0  0  0  0  0  0  0  0  0  0
   30.1763  -20.6111  -12.1664 C   0  0  0  0  0  0  0  0  0  0  0  0
   28.8343  -21.2526  -12.0878 C   0  0  0  0  0  0  0  0  0  0  0  0
   27.8713  -20.8093  -13.1875 C   0  0  2  0  0  0  0  0  0  0  0  0
   27.9203  -19.3292  -13.0988 N   0  0  0  0  0  0  0  0  0  0  0  0
   26.4866  -21.2200  -12.8570 C   0  0  0  0  0  0  0  0  0  0  0  0
   26.1120  -22.4206  -13.0155 O   0  0  0  0  0  0  0  0  0  0  0  0
   25.4755  -20.3525  -12.3465 N   0  0  0  0  0  0  0  0  0  0  0  0
   24.1676  -20.8247  -12.0034 C   0  0  1  0  0  0  0  0  0  0  0  0
   23.8416  -20.1738  -10.6382 C   0  0  0  0  0  0  0  0  0  0  0  0
   22.1820  -20.6183  -10.1038 S   0  0  0  0  0  0  0  0  0  0  0  0
   23.0814  -20.4617  -12.8978 C   0  0  0  0  0  0  0  0  0  0  0  0
   23.0117  -19.2438  -13.2496 O   0  0  0  0  0  0  0  0  0  0  0  0
   22.0857  -21.3218  -13.4255 N   0  0  0  0  0  0  0  0  0  0  0  0
   21.0612  -20.8442  -14.3461 C   0  0  0  0  0  0  0  0  0  0  0  0
   19.7750  -20.8013  -13.6262 C   0  0  0  0  0  0  0  0  0  0  0  0
   18.9661  -19.6962  -13.7818 O   0  0  0  0  0  0  0  0  0  0  0  0
   19.4022  -21.7325  -12.8848 O   0  0  0  0  0  0  0  0  0  0  0  0
  2  1  1  0
  3  2  1  0
  4  3  1  0
  4  5  1  0
  5  6  1  1
  7  5  1  0
  7  8  2  0
  9  7  1  0
 10  9  1  0
 10 11  1  1
 10 13  1  0
 11 12  1  0
 13 15  1  0
 13 14  2  0
 15 16  1  0
 16 17  1  0
 17 19  2  0
 17 18  1  0
M  END
$$$$
