MCG.pdb
     RDKit          3D

 19 18  0  0  1  0  0  0  0  0999 V2000
   15.4893  -14.7081  -17.3263 C   0  0  0  0  0  0  0  0  0  0  0  0
   16.7254  -13.5173  -17.9578 S   0  0  0  0  0  0  0  0  0  0  0  0
   18.3299  -13.8730  -17.1780 C   0  0  0  0  0  0  0  0  0  0  0  0
   18.7360  -12.7510  -16.2865 C   0  0  0  0  0  0  0  0  0  0  0  0
   19.3311  -11.5556  -17.0282 C   0  0  2  0  0  0  0  0  0  0  0  0
   20.4887  -12.1476  -17.7428 N   0  0  0  0  0  0  0  0  0  0  0  0
   19.8722  -10.5683  -16.0651 C   0  0  0  0  0  0  0  0  0  0  0  0
   19.1273  -10.0541  -15.1776 O   0  0  0  0  0  0  0  0  0  0  0  0
   21.2243  -10.1141  -16.0314 N   0  0  0  0  0  0  0  0  0  0  0  0
   21.6491   -9.0470  -15.1757 C   0  0  1  0  0  0  0  0  0  0  0  0
   23.1472   -9.3161  -14.8974 C   0  0  0  0  0  0  0  0  0  0  0  0
   23.3417  -10.6671  -13.7251 S   0  0  0  0  0  0  0  0  0  0  0  0
   21.5704   -7.7000  -15.7150 C   0  0  0  0  0  0  0  0  0  0  0  0
   22.1163   -7.5020  -16.8440 O   0  0  0  0  0  0  0  0  0  0  0  0
   20.9466   -6.5758  -15.1177 N   0  0  0  0  0  0  0  0  0  0  0  0
   20.8416   -5.2946  -15.8052 C   0  0  0  0  0  0  0  0  0  0  0  0
   20.0218   -4.3905  -14.9775 C   0  0  0  0  0  0  0  0  0  0  0  0
   19.9163   -3.0672  -15.3485 O   0  0  0  0  0  0  0  0  0  0  0  0
   19.4252   -4.7890  -13.9572 O   0  0  0  0  0  0  0  0  0  0  0  0
  2  1  1  0
  3  2  1  0
  4  3  1  0
  4  5  1  0
  5  6  1  6
  7  5  1  0
  7  8  2  0
  9  7  1  0
 10  9  1  0
 10 11  1  6
 10 13  1  0
 11 12  1  0
 13 15  1  0
 13 14  2  0
 15 16  1  0
 16 17  1  0
 17 19  2  0
 17 18  1  0
M  END
$$$$
