MCG.pdb
     RDKit          3D

 19 18  0  0  1  0  0  0  0  0999 V2000
   19.3288  -22.0783  -15.3349 C   0  0  0  0  0  0  0  0  0  0  0  0
   18.9330  -20.4025  -14.7185 S   0  0  0  0  0  0  0  0  0  0  0  0
   20.3855  -19.3340  -14.9589 C   0  0  0  0  0  0  0  0  0  0  0  0
   21.2393  -19.3330  -13.7384 C   0  0  0  0  0  0  0  0  0  0  0  0
   22.1499  -20.5536  -13.6193 C   0  0  2  0  0  0  0  0  0  0  0  0
   21.5287  -21.3283  -12.5170 N   0  0  0  0  0  0  0  0  0  0  0  0
   23.4989  -20.1478  -13.1604 C   0  0  0  0  0  0  0  0  0  0  0  0
   24.0707  -19.1288  -13.6517 O   0  0  0  0  0  0  0  0  0  0  0  0
   24.2618  -20.8245  -12.1625 N   0  0  0  0  0  0  0  0  0  0  0  0
   25.5929  -20.4237  -11.8181 C   0  0  1  0  0  0  0  0  0  0  0  0
   25.8604  -21.0429  -10.4256 C   0  0  0  0  0  0  0  0  0  0  0  0
   24.6424  -20.4694   -9.2320 S   0  0  0  0  0  0  0  0  0  0  0  0
   26.6644  -20.8878  -12.6831 C   0  0  0  0  0  0  0  0  0  0  0  0
   26.7567  -22.1419  -12.8584 O   0  0  0  0  0  0  0  0  0  0  0  0
   27.6230  -20.0910  -13.3583 N   0  0  0  0  0  0  0  0  0  0  0  0
   28.6253  -20.6722  -14.2430 C   0  0  0  0  0  0  0  0  0  0  0  0
   28.0200  -20.8492  -15.5759 C   0  0  0  0  0  0  0  0  0  0  0  0
   27.9469  -19.7615  -16.4193 O   0  0  0  0  0  0  0  0  0  0  0  0
   27.5751  -21.9501  -15.9578 O   0  0  0  0  0  0  0  0  0  0  0  0
  2  1  1  0
  3  2  1  0
  4  3  1  0
  4  5  1  0
  5  6  1  1
  7  5  1  0
  7  8  2  0
  9  7  1  0
 10  9  1  0
 10 11  1  1
 10 13  1  0
 11 12  1  0
 13 15  1  0
 13 14  2  0
 15 16  1  0
 16 17  1  0
 17 19  2  0
 17 18  1  0
M  END
$$$$
