MCG.pdb
     RDKit          3D

 19 18  0  0  1  0  0  0  0  0999 V2000
   27.5330  -18.6700   -6.1702 C   0  0  0  0  0  0  0  0  0  0  0  0
   26.4851  -20.1226   -5.8009 S   0  0  0  0  0  0  0  0  0  0  0  0
   25.6721  -20.6613   -7.3365 C   0  0  0  0  0  0  0  0  0  0  0  0
   26.4158  -20.1569   -8.5244 C   0  0  0  0  0  0  0  0  0  0  0  0
   25.7051  -20.4097   -9.8526 C   0  0  2  0  0  0  0  0  0  0  0  0
   25.5484  -21.8849   -9.8729 N   0  0  0  0  0  0  0  0  0  0  0  0
   26.5878  -20.0497  -10.9867 C   0  0  0  0  0  0  0  0  0  0  0  0
   26.9180  -18.8433  -11.1926 O   0  0  0  0  0  0  0  0  0  0  0  0
   27.1377  -20.9763  -11.9220 N   0  0  0  0  0  0  0  0  0  0  0  0
   28.0582  -20.5738  -12.9427 C   0  0  1  0  0  0  0  0  0  0  0  0
   29.2573  -21.5438  -12.8193 C   0  0  0  0  0  0  0  0  0  0  0  0
   30.0703  -21.3478  -11.2263 S   0  0  0  0  0  0  0  0  0  0  0  0
   27.5980  -20.6676  -14.3178 C   0  0  0  0  0  0  0  0  0  0  0  0
   27.0839  -21.7718  -14.6760 O   0  0  0  0  0  0  0  0  0  0  0  0
   27.6584  -19.6564  -15.3096 N   0  0  0  0  0  0  0  0  0  0  0  0
   27.1492  -19.8668  -16.6593 C   0  0  0  0  0  0  0  0  0  0  0  0
   25.6996  -19.5967  -16.6549 C   0  0  0  0  0  0  0  0  0  0  0  0
   25.2705  -18.2870  -16.6316 O   0  0  0  0  0  0  0  0  0  0  0  0
   24.8568  -20.5160  -16.6717 O   0  0  0  0  0  0  0  0  0  0  0  0
  2  1  1  0
  3  2  1  0
  4  3  1  0
  4  5  1  0
  5  6  1  6
  7  5  1  0
  7  8  2  0
  9  7  1  0
 10  9  1  0
 10 11  1  6
 10 13  1  0
 11 12  1  0
 13 15  1  0
 13 14  2  0
 15 16  1  0
 16 17  1  0
 17 19  2  0
 17 18  1  0
M  END
$$$$
