MCG.pdb
     RDKit          3D

 19 18  0  0  1  0  0  0  0  0999 V2000
   20.5999  -19.2011  -10.7510 C   0  0  0  0  0  0  0  0  0  0  0  0
   20.2200  -20.9666  -11.0394 S   0  0  0  0  0  0  0  0  0  0  0  0
   21.5637  -21.6998  -12.0222 C   0  0  0  0  0  0  0  0  0  0  0  0
   22.6705  -20.7197  -12.2044 C   0  0  0  0  0  0  0  0  0  0  0  0
   24.0331  -21.3641  -12.4519 C   0  0  2  0  0  0  0  0  0  0  0  0
   24.3613  -21.9684  -11.1372 N   0  0  0  0  0  0  0  0  0  0  0  0
   25.0541  -20.3247  -12.7207 C   0  0  0  0  0  0  0  0  0  0  0  0
   25.3359  -19.4522  -11.8453 O   0  0  0  0  0  0  0  0  0  0  0  0
   25.7967  -20.2011  -13.9327 N   0  0  0  0  0  0  0  0  0  0  0  0
   26.7964  -19.1918  -14.1147 C   0  0  1  0  0  0  0  0  0  0  0  0
   28.1486  -19.9432  -14.0815 C   0  0  0  0  0  0  0  0  0  0  0  0
   28.1330  -21.2210  -12.8150 S   0  0  0  0  0  0  0  0  0  0  0  0
   26.7691  -18.4572  -15.3682 C   0  0  0  0  0  0  0  0  0  0  0  0
   26.4416  -19.1090  -16.4073 O   0  0  0  0  0  0  0  0  0  0  0  0
   27.0679  -17.0848  -15.5607 N   0  0  0  0  0  0  0  0  0  0  0  0
   27.0048  -16.4574  -16.8750 C   0  0  0  0  0  0  0  0  0  0  0  0
   25.6961  -15.7910  -17.0079 C   0  0  0  0  0  0  0  0  0  0  0  0
   24.5545  -16.5142  -16.7363 O   0  0  0  0  0  0  0  0  0  0  0  0
   25.5953  -14.5979  -17.3572 O   0  0  0  0  0  0  0  0  0  0  0  0
  2  1  1  0
  3  2  1  0
  4  3  1  0
  4  5  1  0
  5  6  1  1
  7  5  1  0
  7  8  2  0
  9  7  1  0
 10  9  1  0
 10 11  1  6
 10 13  1  0
 11 12  1  0
 13 15  1  0
 13 14  2  0
 15 16  1  0
 16 17  1  0
 17 19  2  0
 17 18  1  0
M  END
$$$$
