MCG.pdb
     RDKit          3D

 19 18  0  0  1  0  0  0  0  0999 V2000
   21.8995  -17.4572  -14.6890 C   0  0  0  0  0  0  0  0  0  0  0  0
   20.4612  -17.9504  -15.7052 S   0  0  0  0  0  0  0  0  0  0  0  0
   20.4380  -16.9361  -17.2150 C   0  0  0  0  0  0  0  0  0  0  0  0
   21.1841  -15.6649  -17.0002 C   0  0  0  0  0  0  0  0  0  0  0  0
   20.3780  -14.4107  -17.3322 C   0  0  2  0  0  0  0  0  0  0  0  0
   20.1023  -14.5639  -18.7820 N   0  0  0  0  0  0  0  0  0  0  0  0
   21.2181  -13.2006  -17.1740 C   0  0  0  0  0  0  0  0  0  0  0  0
   21.7280  -12.9087  -16.0507 O   0  0  0  0  0  0  0  0  0  0  0  0
   21.5319  -12.2799  -18.2178 N   0  0  0  0  0  0  0  0  0  0  0  0
   22.3294  -11.1122  -17.9903 C   0  0  1  0  0  0  0  0  0  0  0  0
   23.0837  -10.8656  -19.3185 C   0  0  0  0  0  0  0  0  0  0  0  0
   24.3225  -12.1417  -19.5907 S   0  0  0  0  0  0  0  0  0  0  0  0
   21.6206   -9.8799  -17.6892 C   0  0  0  0  0  0  0  0  0  0  0  0
   20.8367   -9.4365  -18.5840 O   0  0  0  0  0  0  0  0  0  0  0  0
   21.7068   -9.1138  -16.4995 N   0  0  0  0  0  0  0  0  0  0  0  0
   20.9632   -7.8721  -16.3248 C   0  0  0  0  0  0  0  0  0  0  0  0
   21.3640   -7.2689  -15.0402 C   0  0  0  0  0  0  0  0  0  0  0  0
   22.1322   -8.0131  -14.1708 O   0  0  0  0  0  0  0  0  0  0  0  0
   21.0284   -6.1107  -14.7216 O   0  0  0  0  0  0  0  0  0  0  0  0
  2  1  1  0
  3  2  1  0
  4  3  1  0
  4  5  1  0
  5  6  1  6
  7  5  1  0
  7  8  2  0
  9  7  1  0
 10  9  1  0
 10 11  1  6
 10 13  1  0
 11 12  1  0
 13 15  1  0
 13 14  2  0
 15 16  1  0
 16 17  1  0
 17 19  2  0
 17 18  1  0
M  END
$$$$
