MCG.pdb
     RDKit          3D

 19 18  0  0  1  0  0  0  0  0999 V2000
   28.4704  -11.2350  -17.5495 C   0  0  0  0  0  0  0  0  0  0  0  0
   28.5672  -12.3085  -16.0721 S   0  0  0  0  0  0  0  0  0  0  0  0
   26.9256  -13.0303  -15.7664 C   0  0  0  0  0  0  0  0  0  0  0  0
   25.8546  -12.0607  -16.1290 C   0  0  0  0  0  0  0  0  0  0  0  0
   24.4436  -12.6412  -16.0548 C   0  0  2  0  0  0  0  0  0  0  0  0
   24.3907  -13.5440  -17.2309 N   0  0  0  0  0  0  0  0  0  0  0  0
   23.4361  -11.5777  -16.2763 C   0  0  0  0  0  0  0  0  0  0  0  0
   23.2494  -11.0933  -17.4327 O   0  0  0  0  0  0  0  0  0  0  0  0
   22.6052  -11.0136  -15.2628 N   0  0  0  0  0  0  0  0  0  0  0  0
   21.6219  -10.0133  -15.5523 C   0  0  1  0  0  0  0  0  0  0  0  0
   20.3330  -10.4868  -14.8391 C   0  0  0  0  0  0  0  0  0  0  0  0
   19.8295  -12.1037  -15.4468 S   0  0  0  0  0  0  0  0  0  0  0  0
   21.8869   -8.6700  -15.0657 C   0  0  0  0  0  0  0  0  0  0  0  0
   22.6461   -8.5666  -14.0534 O   0  0  0  0  0  0  0  0  0  0  0  0
   21.3898   -7.4545  -15.5998 N   0  0  0  0  0  0  0  0  0  0  0  0
   21.7461   -6.1592  -15.0338 C   0  0  0  0  0  0  0  0  0  0  0  0
   21.1299   -5.1063  -15.8623 C   0  0  0  0  0  0  0  0  0  0  0  0
   21.2397   -3.7943  -15.4545 O   0  0  0  0  0  0  0  0  0  0  0  0
   20.5159   -5.3700  -16.9155 O   0  0  0  0  0  0  0  0  0  0  0  0
  2  1  1  0
  3  2  1  0
  4  3  1  0
  4  5  1  0
  5  6  1  6
  7  5  1  0
  7  8  2  0
  9  7  1  0
 10  9  1  0
 10 11  1  1
 10 13  1  0
 11 12  1  0
 13 15  1  0
 13 14  2  0
 15 16  1  0
 16 17  1  0
 17 19  2  0
 17 18  1  0
M  END
$$$$
