MCG.pdb
     RDKit          3D

 19 18  0  0  1  0  0  0  0  0999 V2000
   25.2385  -20.0638   -9.1701 C   0  0  0  0  0  0  0  0  0  0  0  0
   25.7583  -21.5877  -10.0372 S   0  0  0  0  0  0  0  0  0  0  0  0
   27.1655  -21.1921  -11.1200 C   0  0  0  0  0  0  0  0  0  0  0  0
   26.8222  -20.0631  -12.0289 C   0  0  0  0  0  0  0  0  0  0  0  0
   25.9366  -20.4644  -13.2070 C   0  0  2  0  0  0  0  0  0  0  0  0
   26.9190  -20.8832  -14.2369 N   0  0  0  0  0  0  0  0  0  0  0  0
   25.2221  -19.2817  -13.7417 C   0  0  0  0  0  0  0  0  0  0  0  0
   24.2256  -18.7950  -13.1277 O   0  0  0  0  0  0  0  0  0  0  0  0
   25.5634  -18.5941  -14.9443 N   0  0  0  0  0  0  0  0  0  0  0  0
   24.7675  -17.5215  -15.4614 C   0  0  1  0  0  0  0  0  0  0  0  0
   25.7545  -16.6136  -16.2332 C   0  0  0  0  0  0  0  0  0  0  0  0
   26.7971  -15.6948  -15.0903 S   0  0  0  0  0  0  0  0  0  0  0  0
   23.7182  -17.8752  -16.4024 C   0  0  0  0  0  0  0  0  0  0  0  0
   23.9701  -18.8189  -17.2134 O   0  0  0  0  0  0  0  0  0  0  0  0
   22.4361  -17.2808  -16.5152 N   0  0  0  0  0  0  0  0  0  0  0  0
   21.3701  -17.5564  -15.5598 C   0  0  0  0  0  0  0  0  0  0  0  0
   20.9380  -18.9550  -15.7385 C   0  0  0  0  0  0  0  0  0  0  0  0
   19.7874  -19.2057  -16.4548 O   0  0  0  0  0  0  0  0  0  0  0  0
   21.5819  -19.9108  -15.2616 O   0  0  0  0  0  0  0  0  0  0  0  0
  2  1  1  0
  3  2  1  0
  4  3  1  0
  4  5  1  0
  5  6  1  6
  7  5  1  0
  7  8  2  0
  9  7  1  0
 10  9  1  0
 10 11  1  6
 10 13  1  0
 11 12  1  0
 13 15  1  0
 13 14  2  0
 15 16  1  0
 16 17  1  0
 17 19  2  0
 17 18  1  0
M  END
$$$$
