MCG.pdb
     RDKit          3D

 19 18  0  0  1  0  0  0  0  0999 V2000
   20.3875  -16.9374  -20.1981 C   0  0  0  0  0  0  0  0  0  0  0  0
   20.5289  -15.9714  -18.6516 S   0  0  0  0  0  0  0  0  0  0  0  0
   20.6655  -14.2077  -19.0756 C   0  0  0  0  0  0  0  0  0  0  0  0
   21.0015  -13.4057  -17.8662 C   0  0  0  0  0  0  0  0  0  0  0  0
   21.1731  -11.9131  -18.1417 C   0  0  2  0  0  0  0  0  0  0  0  0
   22.4566  -11.8550  -18.8837 N   0  0  0  0  0  0  0  0  0  0  0  0
   21.3695  -11.1736  -16.8730 C   0  0  0  0  0  0  0  0  0  0  0  0
   20.4746  -11.1789  -15.9752 O   0  0  0  0  0  0  0  0  0  0  0  0
   22.5311  -10.4155  -16.5389 N   0  0  0  0  0  0  0  0  0  0  0  0
   22.6381   -9.6853  -15.3115 C   0  0  1  0  0  0  0  0  0  0  0  0
   24.0048  -10.0914  -14.7105 C   0  0  0  0  0  0  0  0  0  0  0  0
   25.3532   -9.5020  -15.7458 S   0  0  0  0  0  0  0  0  0  0  0  0
   22.6497   -8.2354  -15.4074 C   0  0  0  0  0  0  0  0  0  0  0  0
   23.3558   -7.7280  -16.3325 O   0  0  0  0  0  0  0  0  0  0  0  0
   21.9549   -7.3190  -14.5785 N   0  0  0  0  0  0  0  0  0  0  0  0
   22.0477   -5.8772  -14.7735 C   0  0  0  0  0  0  0  0  0  0  0  0
   22.3303   -5.2505  -13.4690 C   0  0  0  0  0  0  0  0  0  0  0  0
   22.4494   -6.0584  -12.3586 O   0  0  0  0  0  0  0  0  0  0  0  0
   22.4635   -4.0166  -13.3445 O   0  0  0  0  0  0  0  0  0  0  0  0
  2  1  1  0
  3  2  1  0
  4  3  1  0
  4  5  1  0
  5  6  1  6
  7  5  1  0
  7  8  2  0
  9  7  1  0
 10  9  1  0
 10 11  1  6
 10 13  1  0
 11 12  1  0
 13 15  1  0
 13 14  2  0
 15 16  1  0
 16 17  1  0
 17 19  2  0
 17 18  1  0
M  END
$$$$
