MCG.pdb
     RDKit          3D

 19 18  0  0  1  0  0  0  0  0999 V2000
   20.0370  -13.9785  -20.5509 C   0  0  0  0  0  0  0  0  0  0  0  0
   21.1727  -15.1009  -21.4426 S   0  0  0  0  0  0  0  0  0  0  0  0
   22.4808  -15.6377  -20.2981 C   0  0  0  0  0  0  0  0  0  0  0  0
   22.5751  -14.7052  -19.1405 C   0  0  0  0  0  0  0  0  0  0  0  0
   23.6946  -15.0480  -18.1594 C   0  0  2  0  0  0  0  0  0  0  0  0
   23.2390  -16.3293  -17.5661 N   0  0  0  0  0  0  0  0  0  0  0  0
   23.7423  -14.0528  -17.0630 C   0  0  0  0  0  0  0  0  0  0  0  0
   22.8722  -14.0627  -16.1411 O   0  0  0  0  0  0  0  0  0  0  0  0
   24.7259  -13.0279  -16.9302 N   0  0  0  0  0  0  0  0  0  0  0  0
   24.7079  -12.0892  -15.8486 C   0  0  1  0  0  0  0  0  0  0  0  0
   26.1912  -11.8837  -15.4591 C   0  0  0  0  0  0  0  0  0  0  0  0
   26.9180  -13.4291  -14.8926 S   0  0  0  0  0  0  0  0  0  0  0  0
   24.1745  -10.7678  -16.1331 C   0  0  0  0  0  0  0  0  0  0  0  0
   24.5199  -10.2349  -17.2324 O   0  0  0  0  0  0  0  0  0  0  0  0
   23.3048  -10.0034  -15.3151 N   0  0  0  0  0  0  0  0  0  0  0  0
   22.7873   -8.7076  -15.7373 C   0  0  0  0  0  0  0  0  0  0  0  0
   21.8983   -8.1962  -14.6778 C   0  0  0  0  0  0  0  0  0  0  0  0
   22.2554   -7.0422  -14.0141 O   0  0  0  0  0  0  0  0  0  0  0  0
   20.8386   -8.7766  -14.3682 O   0  0  0  0  0  0  0  0  0  0  0  0
  2  1  1  0
  3  2  1  0
  4  3  1  0
  4  5  1  0
  5  6  1  1
  7  5  1  0
  7  8  2  0
  9  7  1  0
 10  9  1  0
 10 11  1  6
 10 13  1  0
 11 12  1  0
 13 15  1  0
 13 14  2  0
 15 16  1  0
 16 17  1  0
 17 19  2  0
 17 18  1  0
M  END
$$$$
