MCG.pdb
     RDKit          3D

 19 18  0  0  1  0  0  0  0  0999 V2000
   28.6524  -15.9158  -16.3354 C   0  0  0  0  0  0  0  0  0  0  0  0
   27.2706  -16.5864  -15.3427 S   0  0  0  0  0  0  0  0  0  0  0  0
   25.7334  -15.7531  -15.8443 C   0  0  0  0  0  0  0  0  0  0  0  0
   25.7935  -14.3031  -15.5090 C   0  0  0  0  0  0  0  0  0  0  0  0
   24.5726  -13.5100  -15.9713 C   0  0  2  0  0  0  0  0  0  0  0  0
   24.5917  -13.6939  -17.4434 N   0  0  0  0  0  0  0  0  0  0  0  0
   24.7672  -12.0647  -15.7102 C   0  0  0  0  0  0  0  0  0  0  0  0
   24.7803  -11.6169  -14.5244 O   0  0  0  0  0  0  0  0  0  0  0  0
   24.9552  -11.0696  -16.7152 N   0  0  0  0  0  0  0  0  0  0  0  0
   25.0558   -9.6763  -16.3992 C   0  0  1  0  0  0  0  0  0  0  0  0
   26.3163   -9.1767  -17.1446 C   0  0  0  0  0  0  0  0  0  0  0  0
   27.7929   -9.9791  -16.5019 S   0  0  0  0  0  0  0  0  0  0  0  0
   23.9619   -8.8230  -16.8314 C   0  0  0  0  0  0  0  0  0  0  0  0
   23.5350   -8.9938  -18.0148 O   0  0  0  0  0  0  0  0  0  0  0  0
   23.3134   -7.8157  -16.0733 N   0  0  0  0  0  0  0  0  0  0  0  0
   22.2375   -7.0036  -16.6281 C   0  0  0  0  0  0  0  0  0  0  0  0
   21.7508   -6.0958  -15.5729 C   0  0  0  0  0  0  0  0  0  0  0  0
   20.8463   -5.1124  -15.9112 O   0  0  0  0  0  0  0  0  0  0  0  0
   22.1336   -6.1937  -14.3898 O   0  0  0  0  0  0  0  0  0  0  0  0
  2  1  1  0
  3  2  1  0
  4  3  1  0
  4  5  1  0
  5  6  1  6
  7  5  1  0
  7  8  2  0
  9  7  1  0
 10  9  1  0
 10 11  1  6
 10 13  1  0
 11 12  1  0
 13 15  1  0
 13 14  2  0
 15 16  1  0
 16 17  1  0
 17 19  2  0
 17 18  1  0
M  END
$$$$
