MCG.pdb
     RDKit          3D

 19 18  0  0  1  0  0  0  0  0999 V2000
   13.4880  -25.9027    2.2077 C   0  0  0  0  0  0  0  0  0  0  0  0
   13.0688  -24.8059    3.6098 S   0  0  0  0  0  0  0  0  0  0  0  0
   13.4561  -23.0904    3.1450 C   0  0  0  0  0  0  0  0  0  0  0  0
   14.8461  -22.9944    2.6185 C   0  0  0  0  0  0  0  0  0  0  0  0
   15.2166  -21.6065    2.0992 C   0  0  2  0  0  0  0  0  0  0  0  0
   15.1395  -21.7686    0.6264 N   0  0  0  0  0  0  0  0  0  0  0  0
   16.6261  -21.2914    2.4296 C   0  0  0  0  0  0  0  0  0  0  0  0
   17.5426  -21.4416    1.5668 O   0  0  0  0  0  0  0  0  0  0  0  0
   17.0819  -20.8055    3.6912 N   0  0  0  0  0  0  0  0  0  0  0  0
   18.4668  -20.5544    3.9564 C   0  0  1  0  0  0  0  0  0  0  0  0
   18.5852  -19.0182    4.0983 C   0  0  0  0  0  0  0  0  0  0  0  0
   20.2256  -18.5595    4.6779 S   0  0  0  0  0  0  0  0  0  0  0  0
   19.0161  -21.1200    5.1770 C   0  0  0  0  0  0  0  0  0  0  0  0
   18.3964  -20.8661    6.2556 O   0  0  0  0  0  0  0  0  0  0  0  0
   20.1734  -21.9298    5.2979 N   0  0  0  0  0  0  0  0  0  0  0  0
   20.6086  -22.4688    6.5806 C   0  0  0  0  0  0  0  0  0  0  0  0
   21.0800  -21.3498    7.4173 C   0  0  0  0  0  0  0  0  0  0  0  0
   21.2755  -21.5673    8.7642 O   0  0  0  0  0  0  0  0  0  0  0  0
   21.3050  -20.2190    6.9415 O   0  0  0  0  0  0  0  0  0  0  0  0
  2  1  1  0
  3  2  1  0
  4  3  1  0
  4  5  1  0
  5  6  1  6
  7  5  1  0
  7  8  2  0
  9  7  1  0
 10  9  1  0
 10 11  1  1
 10 13  1  0
 11 12  1  0
 13 15  1  0
 13 14  2  0
 15 16  1  0
 16 17  1  0
 17 19  2  0
 17 18  1  0
M  END
$$$$
