DYF.pdb
     RDKit          3D

 32 33  0  0  1  0  0  0  0  0999 V2000
   26.3495  -21.1023  -15.3127 N   0  0  0  0  0  0  0  0  0  0  0  0
   27.2480  -20.2444  -14.5813 C   0  0  1  0  0  0  0  0  0  0  0  0
   27.7495  -19.0657  -15.3464 C   0  0  0  0  0  0  0  0  0  0  0  0
   28.3808  -19.4948  -16.6234 C   0  0  0  0  0  0  0  0  0  0  0  0
   29.0538  -20.5595  -16.6071 O   0  0  0  0  0  0  0  0  0  0  0  0
   26.6107  -19.8931  -13.2762 C   0  0  0  0  0  0  0  0  0  0  0  0
   26.5358  -18.7007  -12.8544 O   0  0  0  0  0  0  0  0  0  0  0  0
   28.2367  -18.7661  -17.7559 O   0  0  0  0  0  0  0  0  0  0  0  0
   19.9901  -19.3041  -14.5744 O   0  0  0  0  0  0  0  0  0  0  0  0
   20.9915  -19.8161  -13.7229 C   0  0  0  0  0  0  0  0  0  0  0  0
   21.1354  -19.3553  -12.4361 C   0  0  0  0  0  0  0  0  0  0  0  0
   22.1146  -19.8588  -11.6125 C   0  0  0  0  0  0  0  0  0  0  0  0
   22.9972  -20.8338  -12.0065 C   0  0  0  0  0  0  0  0  0  0  0  0
   24.0798  -21.4008  -11.1916 C   0  0  0  0  0  0  0  0  0  0  0  0
   25.3538  -20.5706  -11.1851 C   0  0  2  0  0  0  0  0  0  0  0  0
   26.0493  -20.8941  -12.4327 N   0  0  0  0  0  0  0  0  0  0  0  0
   26.1721  -20.8272   -9.9903 C   0  0  0  0  0  0  0  0  0  0  0  0
   26.6730  -22.0006   -9.8940 O   0  0  0  0  0  0  0  0  0  0  0  0
   22.8363  -21.2940  -13.3220 C   0  0  0  0  0  0  0  0  0  0  0  0
   21.8559  -20.7967  -14.1624 C   0  0  0  0  0  0  0  0  0  0  0  0
   26.4376  -19.8889   -8.9641 N   0  0  0  0  0  0  0  0  0  0  0  0
   27.2284  -20.1840   -7.7735 C   0  0  1  0  0  0  0  0  0  0  0  0
   27.9466  -18.9668   -7.2787 C   0  0  0  0  0  0  0  0  0  0  0  0
   28.6075  -19.2276   -6.0021 C   0  0  0  0  0  0  0  0  0  0  0  0
   28.0753  -18.7580   -4.8037 C   0  0  0  0  0  0  0  0  0  0  0  0
   28.6802  -19.0179   -3.5854 C   0  0  0  0  0  0  0  0  0  0  0  0
   29.8447  -19.7609   -3.5320 C   0  0  0  0  0  0  0  0  0  0  0  0
   30.3677  -20.2208   -4.6966 C   0  0  0  0  0  0  0  0  0  0  0  0
   29.7655  -19.9661   -5.9384 C   0  0  0  0  0  0  0  0  0  0  0  0
   26.3229  -20.6803   -6.7330 C   0  0  0  0  0  0  0  0  0  0  0  0
   25.0027  -20.2776   -6.7233 O   0  0  0  0  0  0  0  0  0  0  0  0
   26.7116  -21.4653   -5.8457 O   0  0  0  0  0  0  0  0  0  0  0  0
  2  1  1  6
  2  3  1  0
  3  4  1  0
  4  8  1  0
  5  4  2  0
  6  2  1  0
  6  7  2  0
  9 10  1  0
 10 20  2  0
 11 12  2  0
 11 10  1  0
 12 13  1  0
 13 14  1  0
 13 19  2  0
 15 16  1  0
 15 14  1  1
 16  6  1  0
 17 15  1  0
 18 17  2  0
 20 19  1  0
 21 17  1  0
 22 21  1  0
 23 24  1  0
 22 23  1  1
 24 25  2  0
 25 26  1  0
 27 26  2  0
 28 27  1  0
 29 28  2  0
 29 24  1  0
 30 22  1  0
 30 31  1  0
 32 30  2  0
M  END
$$$$
