DYF.pdb
     RDKit          3D

 32 33  0  0  1  0  0  0  0  0999 V2000
   20.9019  -11.1886  -17.5495 N   0  0  0  0  0  0  0  0  0  0  0  0
   21.6766   -9.9787  -17.4302 C   0  0  1  0  0  0  0  0  0  0  0  0
   22.1290   -9.3948  -18.7266 C   0  0  0  0  0  0  0  0  0  0  0  0
   23.0172  -10.3431  -19.4514 C   0  0  0  0  0  0  0  0  0  0  0  0
   24.0216  -10.7837  -18.8321 O   0  0  0  0  0  0  0  0  0  0  0  0
   20.9279   -9.0200  -16.5622 C   0  0  0  0  0  0  0  0  0  0  0  0
   19.8302   -8.4957  -16.9164 O   0  0  0  0  0  0  0  0  0  0  0  0
   22.7536  -10.7141  -20.7271 O   0  0  0  0  0  0  0  0  0  0  0  0
   17.6251   -5.0023   -9.4718 O   0  0  0  0  0  0  0  0  0  0  0  0
   18.3496   -5.8317  -10.3532 C   0  0  0  0  0  0  0  0  0  0  0  0
   19.5778   -6.3404  -10.0041 C   0  0  0  0  0  0  0  0  0  0  0  0
   20.2782   -7.1474  -10.8692 C   0  0  0  0  0  0  0  0  0  0  0  0
   19.8128   -7.4947  -12.1133 C   0  0  0  0  0  0  0  0  0  0  0  0
   20.5143   -8.3305  -13.0967 C   0  0  0  0  0  0  0  0  0  0  0  0
   20.7425   -7.6532  -14.4389 C   0  0  2  0  0  0  0  0  0  0  0  0
   21.4180   -8.6448  -15.2786 N   0  0  0  0  0  0  0  0  0  0  0  0
   21.5058   -6.4034  -14.3022 C   0  0  0  0  0  0  0  0  0  0  0  0
   22.6563   -6.5053  -13.7517 O   0  0  0  0  0  0  0  0  0  0  0  0
   18.5578   -6.9685  -12.4539 C   0  0  0  0  0  0  0  0  0  0  0  0
   17.8415   -6.1547  -11.5939 C   0  0  0  0  0  0  0  0  0  0  0  0
   21.0666   -5.1264  -14.7270 N   0  0  0  0  0  0  0  0  0  0  0  0
   21.8605   -3.9081  -14.6037 C   0  0  1  0  0  0  0  0  0  0  0  0
   22.6345   -3.6309  -15.8551 C   0  0  0  0  0  0  0  0  0  0  0  0
   21.7440   -3.4877  -17.0046 C   0  0  0  0  0  0  0  0  0  0  0  0
   21.2114   -2.2498  -17.3562 C   0  0  0  0  0  0  0  0  0  0  0  0
   20.3846   -2.0973  -18.4567 C   0  0  0  0  0  0  0  0  0  0  0  0
   20.0648   -3.1889  -19.2423 C   0  0  0  0  0  0  0  0  0  0  0  0
   20.5810   -4.3974  -18.9043 C   0  0  0  0  0  0  0  0  0  0  0  0
   21.4206   -4.5670  -17.7927 C   0  0  0  0  0  0  0  0  0  0  0  0
   20.9494   -2.7929  -14.3292 C   0  0  0  0  0  0  0  0  0  0  0  0
   21.4611   -1.5556  -13.9939 O   0  0  0  0  0  0  0  0  0  0  0  0
   19.7114   -2.9276  -14.3904 O   0  0  0  0  0  0  0  0  0  0  0  0
  2  1  1  6
  2  3  1  0
  3  4  1  0
  4  8  1  0
  5  4  2  0
  6  2  1  0
  6  7  2  0
  9 10  1  0
 10 20  2  0
 11 12  2  0
 11 10  1  0
 12 13  1  0
 13 14  1  0
 13 19  2  0
 15 16  1  0
 15 14  1  1
 16  6  1  0
 17 15  1  0
 18 17  2  0
 20 19  1  0
 21 17  1  0
 22 21  1  0
 23 24  1  0
 22 23  1  6
 24 25  2  0
 25 26  1  0
 27 26  2  0
 28 27  1  0
 29 28  2  0
 29 24  1  0
 30 22  1  0
 30 31  1  0
 32 30  2  0
M  END
$$$$
