DYF.pdb
     RDKit          3D

 32 33  0  0  1  0  0  0  0  0999 V2000
   26.2415  -20.5822  -15.8882 N   0  0  0  0  0  0  0  0  0  0  0  0
   27.2349  -20.0206  -15.0074 C   0  0  1  0  0  0  0  0  0  0  0  0
   27.9452  -18.8244  -15.5468 C   0  0  0  0  0  0  0  0  0  0  0  0
   28.5871  -19.1357  -16.8524 C   0  0  0  0  0  0  0  0  0  0  0  0
   28.5001  -18.2681  -17.7614 O   0  0  0  0  0  0  0  0  0  0  0  0
   26.6111  -19.8017  -13.6674 C   0  0  0  0  0  0  0  0  0  0  0  0
   26.5541  -18.6598  -13.1214 O   0  0  0  0  0  0  0  0  0  0  0  0
   29.2370  -20.3071  -17.0521 O   0  0  0  0  0  0  0  0  0  0  0  0
   19.8717  -19.4729  -15.1248 O   0  0  0  0  0  0  0  0  0  0  0  0
   20.9116  -19.9977  -14.3292 C   0  0  0  0  0  0  0  0  0  0  0  0
   21.7930  -20.9252  -14.8312 C   0  0  0  0  0  0  0  0  0  0  0  0
   22.8034  -21.4328  -14.0490 C   0  0  0  0  0  0  0  0  0  0  0  0
   22.9998  -21.0590  -12.7426 C   0  0  0  0  0  0  0  0  0  0  0  0
   24.0400  -21.5747  -11.8427 C   0  0  0  0  0  0  0  0  0  0  0  0
   25.2551  -20.6697  -11.7131 C   0  0  2  0  0  0  0  0  0  0  0  0
   26.0427  -20.8795  -12.9298 N   0  0  0  0  0  0  0  0  0  0  0  0
   26.0162  -20.9425  -10.4844 C   0  0  0  0  0  0  0  0  0  0  0  0
   26.3769  -22.1569  -10.3051 O   0  0  0  0  0  0  0  0  0  0  0  0
   22.0927  -20.1112  -12.2459 C   0  0  0  0  0  0  0  0  0  0  0  0
   21.0707  -19.5917  -13.0209 C   0  0  0  0  0  0  0  0  0  0  0  0
   26.3687  -19.9781   -9.5099 N   0  0  0  0  0  0  0  0  0  0  0  0
   27.0198  -20.2982   -8.2436 C   0  0  1  0  0  0  0  0  0  0  0  0
   27.7793  -19.1245   -7.7074 C   0  0  0  0  0  0  0  0  0  0  0  0
   28.3745  -19.4308   -6.4087 C   0  0  0  0  0  0  0  0  0  0  0  0
   27.7824  -19.0020   -5.2232 C   0  0  0  0  0  0  0  0  0  0  0  0
   28.3246  -19.3053   -3.9856 C   0  0  0  0  0  0  0  0  0  0  0  0
   29.4847  -20.0522   -3.8991 C   0  0  0  0  0  0  0  0  0  0  0  0
   30.0659  -20.4725   -5.0510 C   0  0  0  0  0  0  0  0  0  0  0  0
   29.5276  -20.1736   -6.3121 C   0  0  0  0  0  0  0  0  0  0  0  0
   25.9857  -20.6975   -7.2843 C   0  0  0  0  0  0  0  0  0  0  0  0
   26.3018  -21.5607   -6.2547 O   0  0  0  0  0  0  0  0  0  0  0  0
   24.8152  -20.2764   -7.3691 O   0  0  0  0  0  0  0  0  0  0  0  0
  2  1  1  6
  2  3  1  0
  3  4  1  0
  4  8  1  0
  5  4  2  0
  6  2  1  0
  6  7  2  0
  9 10  1  0
 10 20  2  0
 11 12  2  0
 11 10  1  0
 12 13  1  0
 13 14  1  0
 13 19  2  0
 15 16  1  0
 15 14  1  6
 16  6  1  0
 17 15  1  0
 18 17  2  0
 20 19  1  0
 21 17  1  0
 22 21  1  0
 23 24  1  0
 22 23  1  1
 24 25  2  0
 25 26  1  0
 27 26  2  0
 28 27  1  0
 29 28  2  0
 29 24  1  0
 30 22  1  0
 30 31  1  0
 32 30  2  0
M  END
$$$$
