DYF.pdb
     RDKit          3D

 32 33  0  0  1  0  0  0  0  0999 V2000
   20.2412  -13.6573  -18.6944 N   0  0  0  0  0  0  0  0  0  0  0  0
   19.7226  -12.8128  -17.6476 C   0  0  1  0  0  0  0  0  0  0  0  0
   19.6773  -13.4461  -16.2973 C   0  0  0  0  0  0  0  0  0  0  0  0
   18.4480  -14.2694  -16.1411 C   0  0  0  0  0  0  0  0  0  0  0  0
   17.6244  -14.2660  -17.0941 O   0  0  0  0  0  0  0  0  0  0  0  0
   20.4552  -11.5109  -17.6820 C   0  0  0  0  0  0  0  0  0  0  0  0
   21.7000  -11.4244  -17.4623 O   0  0  0  0  0  0  0  0  0  0  0  0
   18.2261  -14.9910  -15.0167 O   0  0  0  0  0  0  0  0  0  0  0  0
   21.1737   -9.8026  -24.3964 O   0  0  0  0  0  0  0  0  0  0  0  0
   20.8437   -9.3902  -23.0884 C   0  0  0  0  0  0  0  0  0  0  0  0
   21.6886   -8.5860  -22.3613 C   0  0  0  0  0  0  0  0  0  0  0  0
   21.3603   -8.1891  -21.0865 C   0  0  0  0  0  0  0  0  0  0  0  0
   20.1940   -8.5582  -20.4635 C   0  0  0  0  0  0  0  0  0  0  0  0
   19.7890   -8.1928  -19.0996 C   0  0  0  0  0  0  0  0  0  0  0  0
   20.4757   -9.0002  -18.0092 C   0  0  2  0  0  0  0  0  0  0  0  0
   19.7814  -10.2890  -17.9674 N   0  0  0  0  0  0  0  0  0  0  0  0
   20.4630   -8.3008  -16.7155 C   0  0  0  0  0  0  0  0  0  0  0  0
   19.3865   -8.4040  -16.0317 O   0  0  0  0  0  0  0  0  0  0  0  0
   19.3424   -9.3779  -21.2191 C   0  0  0  0  0  0  0  0  0  0  0  0
   19.6594   -9.7858  -22.5029 C   0  0  0  0  0  0  0  0  0  0  0  0
   21.5332   -7.5395  -16.1870 N   0  0  0  0  0  0  0  0  0  0  0  0
   21.5091   -6.8989  -14.8760 C   0  0  1  0  0  0  0  0  0  0  0  0
   22.8365   -7.0049  -14.1913 C   0  0  0  0  0  0  0  0  0  0  0  0
   23.9169   -6.5486  -15.0626 C   0  0  0  0  0  0  0  0  0  0  0  0
   24.5840   -7.4308  -15.9091 C   0  0  0  0  0  0  0  0  0  0  0  0
   25.5940   -7.0062  -16.7561 C   0  0  0  0  0  0  0  0  0  0  0  0
   25.9680   -5.6755  -16.7793 C   0  0  0  0  0  0  0  0  0  0  0  0
   25.3215   -4.8116  -15.9565 C   0  0  0  0  0  0  0  0  0  0  0  0
   24.2957   -5.2272  -15.0937 C   0  0  0  0  0  0  0  0  0  0  0  0
   21.1605   -5.4872  -15.0617 C   0  0  0  0  0  0  0  0  0  0  0  0
   20.8033   -4.7196  -13.9715 O   0  0  0  0  0  0  0  0  0  0  0  0
   21.1774   -4.9504  -16.1869 O   0  0  0  0  0  0  0  0  0  0  0  0
  2  1  1  6
  2  3  1  0
  3  4  1  0
  4  8  1  0
  5  4  2  0
  6  2  1  0
  6  7  2  0
  9 10  1  0
 10 20  2  0
 11 12  2  0
 11 10  1  0
 12 13  1  0
 13 14  1  0
 13 19  2  0
 15 16  1  0
 15 14  1  6
 16  6  1  0
 17 15  1  0
 18 17  2  0
 20 19  1  0
 21 17  1  0
 22 21  1  0
 23 24  1  0
 22 23  1  6
 24 25  2  0
 25 26  1  0
 27 26  2  0
 28 27  1  0
 29 28  2  0
 29 24  1  0
 30 22  1  0
 30 31  1  0
 32 30  2  0
M  END
$$$$
