DYF.pdb
     RDKit          3D

 32 33  0  0  1  0  0  0  0  0999 V2000
   26.1026  -20.9644  -16.3470 N   0  0  0  0  0  0  0  0  0  0  0  0
   27.0813  -21.0686  -15.2937 C   0  0  1  0  0  0  0  0  0  0  0  0
   28.4265  -20.5193  -15.6327 C   0  0  0  0  0  0  0  0  0  0  0  0
   29.0785  -21.3352  -16.6922 C   0  0  0  0  0  0  0  0  0  0  0  0
   28.6864  -22.5242  -16.8303 O   0  0  0  0  0  0  0  0  0  0  0  0
   26.4932  -20.5021  -14.0423 C   0  0  0  0  0  0  0  0  0  0  0  0
   26.3221  -19.2581  -13.8731 O   0  0  0  0  0  0  0  0  0  0  0  0
   30.0556  -20.8171  -17.4739 O   0  0  0  0  0  0  0  0  0  0  0  0
   20.3553  -19.0085  -15.4469 O   0  0  0  0  0  0  0  0  0  0  0  0
   21.2471  -19.6153  -14.5379 C   0  0  0  0  0  0  0  0  0  0  0  0
   21.3635  -19.1626  -13.2454 C   0  0  0  0  0  0  0  0  0  0  0  0
   22.2358  -19.7589  -12.3656 C   0  0  0  0  0  0  0  0  0  0  0  0
   23.0336  -20.8229  -12.7064 C   0  0  0  0  0  0  0  0  0  0  0  0
   24.0026  -21.4931  -11.8290 C   0  0  0  0  0  0  0  0  0  0  0  0
   25.3723  -20.8334  -11.7962 C   0  0  2  0  0  0  0  0  0  0  0  0
   26.0909  -21.3435  -12.9658 N   0  0  0  0  0  0  0  0  0  0  0  0
   26.0783  -21.0930  -10.5323 C   0  0  0  0  0  0  0  0  0  0  0  0
   26.3705  -22.3155  -10.2931 O   0  0  0  0  0  0  0  0  0  0  0  0
   22.9021  -21.2735  -14.0284 C   0  0  0  0  0  0  0  0  0  0  0  0
   22.0290  -20.6833  -14.9251 C   0  0  0  0  0  0  0  0  0  0  0  0
   26.4478  -20.1082   -9.5849 N   0  0  0  0  0  0  0  0  0  0  0  0
   26.5690  -20.3592   -8.1524 C   0  0  1  0  0  0  0  0  0  0  0  0
   26.9302  -19.1116   -7.4074 C   0  0  0  0  0  0  0  0  0  0  0  0
   27.9721  -19.3723   -6.4168 C   0  0  0  0  0  0  0  0  0  0  0  0
   28.6489  -18.3298   -5.7885 C   0  0  0  0  0  0  0  0  0  0  0  0
   29.6222  -18.5637   -4.8316 C   0  0  0  0  0  0  0  0  0  0  0  0
   29.9483  -19.8587   -4.4741 C   0  0  0  0  0  0  0  0  0  0  0  0
   29.2920  -20.8783   -5.0832 C   0  0  0  0  0  0  0  0  0  0  0  0
   28.3031  -20.6565   -6.0538 C   0  0  0  0  0  0  0  0  0  0  0  0
   25.2840  -20.8703   -7.6661 C   0  0  0  0  0  0  0  0  0  0  0  0
   24.1080  -20.4165   -8.2287 O   0  0  0  0  0  0  0  0  0  0  0  0
   25.2182  -21.7130   -6.7496 O   0  0  0  0  0  0  0  0  0  0  0  0
  2  1  1  6
  2  3  1  0
  3  4  1  0
  4  8  1  0
  5  4  2  0
  6  2  1  0
  6  7  2  0
  9 10  1  0
 10 20  2  0
 11 12  2  0
 11 10  1  0
 12 13  1  0
 13 14  1  0
 13 19  2  0
 15 16  1  0
 15 14  1  1
 16  6  1  0
 17 15  1  0
 18 17  2  0
 20 19  1  0
 21 17  1  0
 22 21  1  0
 23 24  1  0
 22 23  1  1
 24 25  2  0
 25 26  1  0
 27 26  2  0
 28 27  1  0
 29 28  2  0
 29 24  1  0
 30 22  1  0
 30 31  1  0
 32 30  2  0
M  END
$$$$
