DYF.pdb
     RDKit          3D

 32 33  0  0  1  0  0  0  0  0999 V2000
   21.5874  -10.1382  -17.6378 N   0  0  0  0  0  0  0  0  0  0  0  0
   22.5590   -9.2692  -17.0223 C   0  0  1  0  0  0  0  0  0  0  0  0
   23.9657   -9.7633  -17.0792 C   0  0  0  0  0  0  0  0  0  0  0  0
   24.1050  -11.0463  -16.3388 C   0  0  0  0  0  0  0  0  0  0  0  0
   24.9361  -11.8827  -16.7817 O   0  0  0  0  0  0  0  0  0  0  0  0
   22.3781   -7.8913  -17.5717 C   0  0  0  0  0  0  0  0  0  0  0  0
   22.5739   -7.6143  -18.7924 O   0  0  0  0  0  0  0  0  0  0  0  0
   23.3645  -11.3016  -15.2339 O   0  0  0  0  0  0  0  0  0  0  0  0
   16.1671   -6.9297  -20.1094 O   0  0  0  0  0  0  0  0  0  0  0  0
   17.2185   -6.4406  -19.3063 C   0  0  0  0  0  0  0  0  0  0  0  0
   18.1476   -5.5609  -19.8083 C   0  0  0  0  0  0  0  0  0  0  0  0
   19.1701   -5.0894  -19.0194 C   0  0  0  0  0  0  0  0  0  0  0  0
   19.3328   -5.4542  -17.7059 C   0  0  0  0  0  0  0  0  0  0  0  0
   20.4109   -5.0106  -16.8123 C   0  0  0  0  0  0  0  0  0  0  0  0
   21.8004   -5.4473  -17.2494 C   0  0  2  0  0  0  0  0  0  0  0  0
   21.9713   -6.8094  -16.7395 N   0  0  0  0  0  0  0  0  0  0  0  0
   22.8423   -4.5236  -16.7755 C   0  0  0  0  0  0  0  0  0  0  0  0
   22.9106   -4.3561  -15.5088 O   0  0  0  0  0  0  0  0  0  0  0  0
   18.3759   -6.3514  -17.2085 C   0  0  0  0  0  0  0  0  0  0  0  0
   17.3416   -6.8348  -17.9905 C   0  0  0  0  0  0  0  0  0  0  0  0
   23.7528   -3.8238  -17.6033 N   0  0  0  0  0  0  0  0  0  0  0  0
   24.7923   -2.9314  -17.1006 C   0  0  1  0  0  0  0  0  0  0  0  0
   26.1600   -3.4582  -17.4066 C   0  0  0  0  0  0  0  0  0  0  0  0
   27.1949   -2.5279  -16.9611 C   0  0  0  0  0  0  0  0  0  0  0  0
   27.5977   -2.4793  -15.6287 C   0  0  0  0  0  0  0  0  0  0  0  0
   28.5932   -1.6181  -15.1985 C   0  0  0  0  0  0  0  0  0  0  0  0
   29.2183   -0.7740  -16.0974 C   0  0  0  0  0  0  0  0  0  0  0  0
   28.8297   -0.8172  -17.3968 C   0  0  0  0  0  0  0  0  0  0  0  0
   27.8231   -1.6851  -17.8473 C   0  0  0  0  0  0  0  0  0  0  0  0
   24.6154   -1.6201  -17.7317 C   0  0  0  0  0  0  0  0  0  0  0  0
   24.8949   -0.4721  -17.0181 O   0  0  0  0  0  0  0  0  0  0  0  0
   24.2165   -1.5069  -18.9076 O   0  0  0  0  0  0  0  0  0  0  0  0
  2  1  1  6
  2  3  1  0
  3  4  1  0
  4  8  1  0
  5  4  2  0
  6  2  1  0
  6  7  2  0
  9 10  1  0
 10 20  2  0
 11 12  2  0
 11 10  1  0
 12 13  1  0
 13 14  1  0
 13 19  2  0
 15 16  1  0
 15 14  1  1
 16  6  1  0
 17 15  1  0
 18 17  2  0
 20 19  1  0
 21 17  1  0
 22 21  1  0
 23 24  1  0
 22 23  1  6
 24 25  2  0
 25 26  1  0
 27 26  2  0
 28 27  1  0
 29 28  2  0
 29 24  1  0
 30 22  1  0
 30 31  1  0
 32 30  2  0
M  END
$$$$
