DYF.pdb
     RDKit          3D

 32 33  0  0  1  0  0  0  0  0999 V2000
   33.7520   -7.2409  -15.4507 N   0  0  0  0  0  0  0  0  0  0  0  0
   32.8730   -6.6663  -16.4382 C   0  0  1  0  0  0  0  0  0  0  0  0
   31.9094   -7.6256  -17.0525 C   0  0  0  0  0  0  0  0  0  0  0  0
   32.6264   -8.7832  -17.6520 C   0  0  0  0  0  0  0  0  0  0  0  0
   33.4894   -8.5349  -18.5352 O   0  0  0  0  0  0  0  0  0  0  0  0
   32.2286   -5.4528  -15.8506 C   0  0  0  0  0  0  0  0  0  0  0  0
   31.5821   -5.4854  -14.7615 O   0  0  0  0  0  0  0  0  0  0  0  0
   32.3577  -10.0521  -17.2621 O   0  0  0  0  0  0  0  0  0  0  0  0
   31.2140    3.2649  -14.2166 O   0  0  0  0  0  0  0  0  0  0  0  0
   31.6155    1.9674  -14.5974 C   0  0  0  0  0  0  0  0  0  0  0  0
   32.1056    1.0746  -13.6744 C   0  0  0  0  0  0  0  0  0  0  0  0
   32.4958   -0.1882  -14.0536 C   0  0  0  0  0  0  0  0  0  0  0  0
   32.4258   -0.6370  -15.3492 C   0  0  0  0  0  0  0  0  0  0  0  0
   32.8451   -1.9602  -15.8298 C   0  0  0  0  0  0  0  0  0  0  0  0
   31.7160   -2.9743  -15.9244 C   0  0  2  0  0  0  0  0  0  0  0  0
   32.3113   -4.1849  -16.4942 N   0  0  0  0  0  0  0  0  0  0  0  0
   30.5844   -2.4662  -16.7146 C   0  0  0  0  0  0  0  0  0  0  0  0
   30.6858   -2.5891  -17.9842 O   0  0  0  0  0  0  0  0  0  0  0  0
   31.9226    0.2857  -16.2784 C   0  0  0  0  0  0  0  0  0  0  0  0
   31.5264    1.5599  -15.9118 C   0  0  0  0  0  0  0  0  0  0  0  0
   29.4190   -1.8651  -16.1811 N   0  0  0  0  0  0  0  0  0  0  0  0
   28.3307   -1.3323  -16.9944 C   0  0  1  0  0  0  0  0  0  0  0  0
   27.3217   -2.3902  -17.3181 C   0  0  0  0  0  0  0  0  0  0  0  0
   26.2346   -1.8504  -18.1314 C   0  0  0  0  0  0  0  0  0  0  0  0
   26.4440   -1.4642  -19.4531 C   0  0  0  0  0  0  0  0  0  0  0  0
   25.4168   -0.9725  -20.2410 C   0  0  0  0  0  0  0  0  0  0  0  0
   24.1406   -0.8521  -19.7235 C   0  0  0  0  0  0  0  0  0  0  0  0
   23.9309   -1.2268  -18.4363 C   0  0  0  0  0  0  0  0  0  0  0  0
   24.9617   -1.7275  -17.6263 C   0  0  0  0  0  0  0  0  0  0  0  0
   27.6871   -0.2485  -16.2460 C   0  0  0  0  0  0  0  0  0  0  0  0
   28.0395   -0.0192  -14.9313 O   0  0  0  0  0  0  0  0  0  0  0  0
   26.8213    0.4829  -16.7657 O   0  0  0  0  0  0  0  0  0  0  0  0
  2  1  1  1
  2  3  1  0
  3  4  1  0
  4  8  1  0
  5  4  2  0
  6  2  1  0
  6  7  2  0
  9 10  1  0
 10 20  2  0
 11 12  2  0
 11 10  1  0
 12 13  1  0
 13 14  1  0
 13 19  2  0
 15 16  1  0
 15 14  1  6
 16  6  1  0
 17 15  1  0
 18 17  2  0
 20 19  1  0
 21 17  1  0
 22 21  1  0
 23 24  1  0
 22 23  1  1
 24 25  2  0
 25 26  1  0
 27 26  2  0
 28 27  1  0
 29 28  2  0
 29 24  1  0
 30 22  1  0
 30 31  1  0
 32 30  2  0
M  END
$$$$
