DYF.pdb
     RDKit          3D

 32 33  0  0  1  0  0  0  0  0999 V2000
   19.9135   -2.1599  -20.7846 N   0  0  0  0  0  0  0  0  0  0  0  0
   20.5313   -2.3980  -19.5040 C   0  0  1  0  0  0  0  0  0  0  0  0
   20.5495   -1.2196  -18.5890 C   0  0  0  0  0  0  0  0  0  0  0  0
   21.5041   -0.1877  -19.0760 C   0  0  0  0  0  0  0  0  0  0  0  0
   21.1797    1.0196  -18.9214 O   0  0  0  0  0  0  0  0  0  0  0  0
   19.9205   -3.6223  -18.9033 C   0  0  0  0  0  0  0  0  0  0  0  0
   18.7044   -3.6737  -18.5516 O   0  0  0  0  0  0  0  0  0  0  0  0
   22.6737   -0.5365  -19.6630 O   0  0  0  0  0  0  0  0  0  0  0  0
   17.6992   -7.2063  -24.0234 O   0  0  0  0  0  0  0  0  0  0  0  0
   18.3873   -7.2081  -22.7921 C   0  0  0  0  0  0  0  0  0  0  0  0
   17.8559   -7.8178  -21.6808 C   0  0  0  0  0  0  0  0  0  0  0  0
   18.5323   -7.8145  -20.4838 C   0  0  0  0  0  0  0  0  0  0  0  0
   19.7569   -7.2169  -20.3165 C   0  0  0  0  0  0  0  0  0  0  0  0
   20.5247   -7.1536  -19.0658 C   0  0  0  0  0  0  0  0  0  0  0  0
   20.1045   -6.0277  -18.1341 C   0  0  2  0  0  0  0  0  0  0  0  0
   20.6851   -4.8057  -18.6948 N   0  0  0  0  0  0  0  0  0  0  0  0
   20.5234   -6.2761  -16.7463 C   0  0  0  0  0  0  0  0  0  0  0  0
   21.7564   -6.5727  -16.5763 O   0  0  0  0  0  0  0  0  0  0  0  0
   20.2859   -6.6002  -21.4602 C   0  0  0  0  0  0  0  0  0  0  0  0
   19.6166   -6.5950  -22.6714 C   0  0  0  0  0  0  0  0  0  0  0  0
   19.6777   -6.2117  -15.6129 N   0  0  0  0  0  0  0  0  0  0  0  0
   20.1300   -6.4364  -14.2437 C   0  0  1  0  0  0  0  0  0  0  0  0
   19.9568   -5.2099  -13.4025 C   0  0  0  0  0  0  0  0  0  0  0  0
   20.2472   -5.4888  -11.9981 C   0  0  0  0  0  0  0  0  0  0  0  0
   21.5438   -5.4009  -11.4970 C   0  0  0  0  0  0  0  0  0  0  0  0
   21.8282   -5.6406  -10.1631 C   0  0  0  0  0  0  0  0  0  0  0  0
   20.8145   -5.9784   -9.2861 C   0  0  0  0  0  0  0  0  0  0  0  0
   19.5493   -6.0656   -9.7689 C   0  0  0  0  0  0  0  0  0  0  0  0
   19.2459   -5.8247  -11.1177 C   0  0  0  0  0  0  0  0  0  0  0  0
   19.3470   -7.5386  -13.6771 C   0  0  0  0  0  0  0  0  0  0  0  0
   19.9528   -8.4477  -12.8335 O   0  0  0  0  0  0  0  0  0  0  0  0
   18.1358   -7.6826  -13.9353 O   0  0  0  0  0  0  0  0  0  0  0  0
  2  1  1  6
  2  3  1  0
  3  4  1  0
  4  8  1  0
  5  4  2  0
  6  2  1  0
  6  7  2  0
  9 10  1  0
 10 20  2  0
 11 12  2  0
 11 10  1  0
 12 13  1  0
 13 14  1  0
 13 19  2  0
 15 16  1  0
 15 14  1  6
 16  6  1  0
 17 15  1  0
 18 17  2  0
 20 19  1  0
 21 17  1  0
 22 21  1  0
 23 24  1  0
 22 23  1  1
 24 25  2  0
 25 26  1  0
 27 26  2  0
 28 27  1  0
 29 28  2  0
 29 24  1  0
 30 22  1  0
 30 31  1  0
 32 30  2  0
M  END
$$$$
