DYF.pdb
     RDKit          3D

 32 33  0  0  1  0  0  0  0  0999 V2000
   22.8936  -11.1940  -16.3125 N   0  0  0  0  0  0  0  0  0  0  0  0
   22.4254  -10.4499  -17.4550 C   0  0  1  0  0  0  0  0  0  0  0  0
   21.8007  -11.2776  -18.5278 C   0  0  0  0  0  0  0  0  0  0  0  0
   22.7508  -12.3128  -19.0167 C   0  0  0  0  0  0  0  0  0  0  0  0
   23.9634  -12.1799  -18.7027 O   0  0  0  0  0  0  0  0  0  0  0  0
   21.5599   -9.3322  -16.9706 C   0  0  0  0  0  0  0  0  0  0  0  0
   20.9347   -8.5640  -17.7606 O   0  0  0  0  0  0  0  0  0  0  0  0
   22.3252  -13.3544  -19.7705 O   0  0  0  0  0  0  0  0  0  0  0  0
   15.3275  -11.7106  -16.1201 O   0  0  0  0  0  0  0  0  0  0  0  0
   16.3843  -10.9370  -15.5961 C   0  0  0  0  0  0  0  0  0  0  0  0
   16.2901   -9.5684  -15.5108 C   0  0  0  0  0  0  0  0  0  0  0  0
   17.3249   -8.8212  -14.9997 C   0  0  0  0  0  0  0  0  0  0  0  0
   18.4977   -9.3745  -14.5489 C   0  0  0  0  0  0  0  0  0  0  0  0
   19.6513   -8.6392  -14.0139 C   0  0  0  0  0  0  0  0  0  0  0  0
   20.5307   -8.0016  -15.0781 C   0  0  2  0  0  0  0  0  0  0  0  0
   21.3934   -9.0734  -15.5799 N   0  0  0  0  0  0  0  0  0  0  0  0
   21.2882   -6.8558  -14.5523 C   0  0  0  0  0  0  0  0  0  0  0  0
   22.0795   -7.1049  -13.5782 O   0  0  0  0  0  0  0  0  0  0  0  0
   18.5775  -10.7720  -14.6419 C   0  0  0  0  0  0  0  0  0  0  0  0
   17.5446  -11.5372  -15.1542 C   0  0  0  0  0  0  0  0  0  0  0  0
   21.2045   -5.5284  -15.0373 N   0  0  0  0  0  0  0  0  0  0  0  0
   22.0360   -4.4300  -14.5556 C   0  0  1  0  0  0  0  0  0  0  0  0
   22.5521   -3.5977  -15.6882 C   0  0  0  0  0  0  0  0  0  0  0  0
   23.3593   -4.3986  -16.6056 C   0  0  0  0  0  0  0  0  0  0  0  0
   24.7174   -4.6082  -16.3785 C   0  0  0  0  0  0  0  0  0  0  0  0
   25.4879   -5.3840  -17.2283 C   0  0  0  0  0  0  0  0  0  0  0  0
   24.9161   -5.9763  -18.3388 C   0  0  0  0  0  0  0  0  0  0  0  0
   23.5932   -5.7753  -18.5649 C   0  0  0  0  0  0  0  0  0  0  0  0
   22.7998   -4.9926  -17.7123 C   0  0  0  0  0  0  0  0  0  0  0  0
   21.2246   -3.5987  -13.6615 C   0  0  0  0  0  0  0  0  0  0  0  0
   19.8819   -3.8743  -13.4989 O   0  0  0  0  0  0  0  0  0  0  0  0
   21.7147   -2.6390  -13.0343 O   0  0  0  0  0  0  0  0  0  0  0  0
  2  1  1  1
  2  3  1  0
  3  4  1  0
  4  8  1  0
  5  4  2  0
  6  2  1  0
  6  7  2  0
  9 10  1  0
 10 20  2  0
 11 12  2  0
 11 10  1  0
 12 13  1  0
 13 14  1  0
 13 19  2  0
 15 16  1  0
 15 14  1  1
 16  6  1  0
 17 15  1  0
 18 17  2  0
 20 19  1  0
 21 17  1  0
 22 21  1  0
 23 24  1  0
 22 23  1  6
 24 25  2  0
 25 26  1  0
 27 26  2  0
 28 27  1  0
 29 28  2  0
 29 24  1  0
 30 22  1  0
 30 31  1  0
 32 30  2  0
M  END
$$$$
