DYF.pdb
     RDKit          3D

 32 33  0  0  1  0  0  0  0  0999 V2000
   21.6517  -21.1784  -15.2446 N   0  0  0  0  0  0  0  0  0  0  0  0
   22.8782  -21.6391  -15.8460 C   0  0  1  0  0  0  0  0  0  0  0  0
   22.8775  -21.6516  -17.3380 C   0  0  0  0  0  0  0  0  0  0  0  0
   21.8232  -22.5635  -17.8579 C   0  0  0  0  0  0  0  0  0  0  0  0
   21.8976  -23.7784  -17.5338 O   0  0  0  0  0  0  0  0  0  0  0  0
   24.0154  -20.8771  -15.2470 C   0  0  0  0  0  0  0  0  0  0  0  0
   23.9866  -19.6197  -15.0939 O   0  0  0  0  0  0  0  0  0  0  0  0
   20.8257  -22.1022  -18.6494 O   0  0  0  0  0  0  0  0  0  0  0  0
   23.0877  -21.0684   -8.8008 O   0  0  0  0  0  0  0  0  0  0  0  0
   24.0279  -21.1732   -9.8471 C   0  0  0  0  0  0  0  0  0  0  0  0
   25.2018  -20.4588   -9.8232 C   0  0  0  0  0  0  0  0  0  0  0  0
   26.1129  -20.5656  -10.8474 C   0  0  0  0  0  0  0  0  0  0  0  0
   25.9204  -21.3735  -11.9406 C   0  0  0  0  0  0  0  0  0  0  0  0
   26.8360  -21.5194  -13.0799 C   0  0  0  0  0  0  0  0  0  0  0  0
   26.3787  -20.8034  -14.3411 C   0  0  2  0  0  0  0  0  0  0  0  0
   25.2015  -21.5356  -14.8132 N   0  0  0  0  0  0  0  0  0  0  0  0
   27.4474  -20.7267  -15.3488 C   0  0  0  0  0  0  0  0  0  0  0  0
   27.9875  -21.8382  -15.6804 O   0  0  0  0  0  0  0  0  0  0  0  0
   24.7183  -22.0965  -11.9492 C   0  0  0  0  0  0  0  0  0  0  0  0
   23.7918  -21.9990  -10.9260 C   0  0  0  0  0  0  0  0  0  0  0  0
   27.9088  -19.5373  -15.9623 N   0  0  0  0  0  0  0  0  0  0  0  0
   28.8954  -19.5036  -17.0372 C   0  0  1  0  0  0  0  0  0  0  0  0
   28.2945  -19.9197  -18.3440 C   0  0  0  0  0  0  0  0  0  0  0  0
   27.1794  -19.0502  -18.7118 C   0  0  0  0  0  0  0  0  0  0  0  0
   25.8840  -19.3112  -18.2717 C   0  0  0  0  0  0  0  0  0  0  0  0
   24.8229  -18.4821  -18.5947 C   0  0  0  0  0  0  0  0  0  0  0  0
   25.0302  -17.3594  -19.3742 C   0  0  0  0  0  0  0  0  0  0  0  0
   26.2904  -17.1004  -19.8059 C   0  0  0  0  0  0  0  0  0  0  0  0
   27.3754  -17.9309  -19.4859 C   0  0  0  0  0  0  0  0  0  0  0  0
   29.4108  -18.1355  -17.1438 C   0  0  0  0  0  0  0  0  0  0  0  0
   28.8904  -17.1417  -16.3396 O   0  0  0  0  0  0  0  0  0  0  0  0
   30.3164  -17.8369  -17.9472 O   0  0  0  0  0  0  0  0  0  0  0  0
  2  1  1  6
  2  3  1  0
  3  4  1  0
  4  8  1  0
  5  4  2  0
  6  2  1  0
  6  7  2  0
  9 10  1  0
 10 20  2  0
 11 12  2  0
 11 10  1  0
 12 13  1  0
 13 14  1  0
 13 19  2  0
 15 16  1  0
 15 14  1  1
 16  6  1  0
 17 15  1  0
 18 17  2  0
 20 19  1  0
 21 17  1  0
 22 21  1  0
 23 24  1  0
 22 23  1  6
 24 25  2  0
 25 26  1  0
 27 26  2  0
 28 27  1  0
 29 28  2  0
 29 24  1  0
 30 22  1  0
 30 31  1  0
 32 30  2  0
M  END
$$$$
