DYF.pdb
     RDKit          3D

 32 33  0  0  1  0  0  0  0  0999 V2000
   35.5336  -30.2850  -18.8110 N   0  0  0  0  0  0  0  0  0  0  0  0
   34.3102  -30.4240  -19.5607 C   0  0  1  0  0  0  0  0  0  0  0  0
   34.1040  -31.7664  -20.1786 C   0  0  0  0  0  0  0  0  0  0  0  0
   34.5035  -31.7549  -21.6117 C   0  0  0  0  0  0  0  0  0  0  0  0
   34.6538  -30.6318  -22.1616 O   0  0  0  0  0  0  0  0  0  0  0  0
   33.1740  -29.9712  -18.7022 C   0  0  0  0  0  0  0  0  0  0  0  0
   33.0622  -30.3102  -17.4866 O   0  0  0  0  0  0  0  0  0  0  0  0
   34.6953  -32.9086  -22.2949 O   0  0  0  0  0  0  0  0  0  0  0  0
   26.0287  -25.2724  -16.1811 O   0  0  0  0  0  0  0  0  0  0  0  0
   27.1607  -25.7731  -16.8575 C   0  0  0  0  0  0  0  0  0  0  0  0
   27.1138  -26.0734  -18.1979 C   0  0  0  0  0  0  0  0  0  0  0  0
   28.2213  -26.5620  -18.8500 C   0  0  0  0  0  0  0  0  0  0  0  0
   29.4239  -26.7798  -18.2247 C   0  0  0  0  0  0  0  0  0  0  0  0
   30.6384  -27.3199  -18.8500 C   0  0  0  0  0  0  0  0  0  0  0  0
   30.9798  -28.7388  -18.4229 C   0  0  2  0  0  0  0  0  0  0  0  0
   32.1491  -29.1255  -19.2152 N   0  0  0  0  0  0  0  0  0  0  0  0
   29.8422  -29.6548  -18.5965 C   0  0  0  0  0  0  0  0  0  0  0  0
   29.6275  -30.0639  -19.7897 O   0  0  0  0  0  0  0  0  0  0  0  0
   29.4555  -26.4674  -16.8574 C   0  0  0  0  0  0  0  0  0  0  0  0
   28.3491  -25.9754  -16.1876 C   0  0  0  0  0  0  0  0  0  0  0  0
   28.9889  -30.1043  -17.5603 N   0  0  0  0  0  0  0  0  0  0  0  0
   27.8798  -31.0313  -17.7614 C   0  0  1  0  0  0  0  0  0  0  0  0
   27.1880  -31.3442  -16.4708 C   0  0  0  0  0  0  0  0  0  0  0  0
   25.7777  -30.9662  -16.5239 C   0  0  0  0  0  0  0  0  0  0  0  0
   24.7933  -31.8930  -16.8584 C   0  0  0  0  0  0  0  0  0  0  0  0
   23.4513  -31.5527  -16.8899 C   0  0  0  0  0  0  0  0  0  0  0  0
   23.0537  -30.2642  -16.5854 C   0  0  0  0  0  0  0  0  0  0  0  0
   24.0087  -29.3570  -16.2588 C   0  0  0  0  0  0  0  0  0  0  0  0
   25.3720  -29.6876  -16.2219 C   0  0  0  0  0  0  0  0  0  0  0  0
   26.9309  -30.4157  -18.6939 C   0  0  0  0  0  0  0  0  0  0  0  0
   26.1758  -31.2129  -19.5302 O   0  0  0  0  0  0  0  0  0  0  0  0
   26.7814  -29.1794  -18.7561 O   0  0  0  0  0  0  0  0  0  0  0  0
  2  1  1  1
  2  3  1  0
  3  4  1  0
  4  8  1  0
  5  4  2  0
  6  2  1  0
  6  7  2  0
  9 10  1  0
 10 20  2  0
 11 12  2  0
 11 10  1  0
 12 13  1  0
 13 14  1  0
 13 19  2  0
 15 16  1  0
 15 14  1  6
 16  6  1  0
 17 15  1  0
 18 17  2  0
 20 19  1  0
 21 17  1  0
 22 21  1  0
 23 24  1  0
 22 23  1  1
 24 25  2  0
 25 26  1  0
 27 26  2  0
 28 27  1  0
 29 28  2  0
 29 24  1  0
 30 22  1  0
 30 31  1  0
 32 30  2  0
M  END
$$$$
