DYF.pdb
     RDKit          3D

 32 33  0  0  1  0  0  0  0  0999 V2000
   24.2861  -20.1065  -18.8985 N   0  0  0  0  0  0  0  0  0  0  0  0
   24.0789  -19.8435  -17.4963 C   0  0  1  0  0  0  0  0  0  0  0  0
   24.1683  -18.4053  -17.1094 C   0  0  0  0  0  0  0  0  0  0  0  0
   25.5504  -17.8907  -17.3054 C   0  0  0  0  0  0  0  0  0  0  0  0
   25.7124  -16.6419  -17.2763 O   0  0  0  0  0  0  0  0  0  0  0  0
   22.8091  -20.5073  -17.0721 C   0  0  0  0  0  0  0  0  0  0  0  0
   21.7433  -20.4363  -17.7534 O   0  0  0  0  0  0  0  0  0  0  0  0
   26.5901  -18.7346  -17.5083 O   0  0  0  0  0  0  0  0  0  0  0  0
   21.7426  -25.8416  -20.5169 O   0  0  0  0  0  0  0  0  0  0  0  0
   21.7351  -25.2440  -19.2391 C   0  0  0  0  0  0  0  0  0  0  0  0
   20.5914  -25.2063  -18.4778 C   0  0  0  0  0  0  0  0  0  0  0  0
   20.5919  -24.6212  -17.2336 C   0  0  0  0  0  0  0  0  0  0  0  0
   21.7072  -24.0467  -16.6759 C   0  0  0  0  0  0  0  0  0  0  0  0
   21.7759  -23.3848  -15.3664 C   0  0  0  0  0  0  0  0  0  0  0  0
   21.4940  -21.8911  -15.4087 C   0  0  2  0  0  0  0  0  0  0  0  0
   22.7347  -21.2618  -15.8663 N   0  0  0  0  0  0  0  0  0  0  0  0
   21.0389  -21.3797  -14.1069 C   0  0  0  0  0  0  0  0  0  0  0  0
   21.7343  -21.7300  -13.0916 O   0  0  0  0  0  0  0  0  0  0  0  0
   22.8661  -24.0944  -17.4650 C   0  0  0  0  0  0  0  0  0  0  0  0
   22.8808  -24.6794  -18.7190 C   0  0  0  0  0  0  0  0  0  0  0  0
   19.9121  -20.5470  -13.9041 N   0  0  0  0  0  0  0  0  0  0  0  0
   19.5382  -19.9808  -12.6121 C   0  0  1  0  0  0  0  0  0  0  0  0
   20.1611  -18.6352  -12.4039 C   0  0  0  0  0  0  0  0  0  0  0  0
   19.9734  -17.7809  -13.5742 C   0  0  0  0  0  0  0  0  0  0  0  0
   20.9949  -17.5912  -14.5018 C   0  0  0  0  0  0  0  0  0  0  0  0
   20.8217  -16.8023  -15.6266 C   0  0  0  0  0  0  0  0  0  0  0  0
   19.6111  -16.1754  -15.8562 C   0  0  0  0  0  0  0  0  0  0  0  0
   18.6124  -16.3567  -14.9557 C   0  0  0  0  0  0  0  0  0  0  0  0
   18.7730  -17.1539  -13.8119 C   0  0  0  0  0  0  0  0  0  0  0  0
   18.0778  -19.8610  -12.5693 C   0  0  0  0  0  0  0  0  0  0  0  0
   17.3360  -20.1029  -13.7079 O   0  0  0  0  0  0  0  0  0  0  0  0
   17.4764  -19.5446  -11.5239 O   0  0  0  0  0  0  0  0  0  0  0  0
  2  1  1  6
  2  3  1  0
  3  4  1  0
  4  8  1  0
  5  4  2  0
  6  2  1  0
  6  7  2  0
  9 10  1  0
 10 20  2  0
 11 12  2  0
 11 10  1  0
 12 13  1  0
 13 14  1  0
 13 19  2  0
 15 16  1  0
 15 14  1  1
 16  6  1  0
 17 15  1  0
 18 17  2  0
 20 19  1  0
 21 17  1  0
 22 21  1  0
 23 24  1  0
 22 23  1  6
 24 25  2  0
 25 26  1  0
 27 26  2  0
 28 27  1  0
 29 28  2  0
 29 24  1  0
 30 22  1  0
 30 31  1  0
 32 30  2  0
M  END
$$$$
