DYF.pdb
     RDKit          3D

 32 33  0  0  1  0  0  0  0  0999 V2000
   23.7168  -12.8081  -20.5524 N   0  0  0  0  0  0  0  0  0  0  0  0
   24.0816  -11.4423  -20.2705 C   0  0  1  0  0  0  0  0  0  0  0  0
   24.3638  -10.6084  -21.4752 C   0  0  0  0  0  0  0  0  0  0  0  0
   25.5486  -11.1269  -22.2106 C   0  0  0  0  0  0  0  0  0  0  0  0
   26.5534  -11.4597  -21.5277 O   0  0  0  0  0  0  0  0  0  0  0  0
   23.0559  -10.8568  -19.3551 C   0  0  0  0  0  0  0  0  0  0  0  0
   21.8120  -10.9533  -19.5761 O   0  0  0  0  0  0  0  0  0  0  0  0
   25.5438  -11.2337  -23.5607 O   0  0  0  0  0  0  0  0  0  0  0  0
   19.4445   -8.2075  -11.7034 O   0  0  0  0  0  0  0  0  0  0  0  0
   20.3447   -8.5750  -12.7254 C   0  0  0  0  0  0  0  0  0  0  0  0
   21.3129   -7.7055  -13.1675 C   0  0  0  0  0  0  0  0  0  0  0  0
   22.1861   -8.0708  -14.1648 C   0  0  0  0  0  0  0  0  0  0  0  0
   22.1545   -9.3000  -14.7756 C   0  0  0  0  0  0  0  0  0  0  0  0
   23.0373   -9.7496  -15.8601 C   0  0  0  0  0  0  0  0  0  0  0  0
   22.4464   -9.5858  -17.2517 C   0  0  2  0  0  0  0  0  0  0  0  0
   23.4314  -10.1536  -18.1748 N   0  0  0  0  0  0  0  0  0  0  0  0
   22.1236   -8.1824  -17.5511 C   0  0  0  0  0  0  0  0  0  0  0  0
   23.1218   -7.4039  -17.7372 O   0  0  0  0  0  0  0  0  0  0  0  0
   21.1614  -10.1758  -14.3123 C   0  0  0  0  0  0  0  0  0  0  0  0
   20.2755   -9.8222  -13.3099 C   0  0  0  0  0  0  0  0  0  0  0  0
   20.8169   -7.6461  -17.6452 N   0  0  0  0  0  0  0  0  0  0  0  0
   20.5294   -6.2383  -17.9006 C   0  0  1  0  0  0  0  0  0  0  0  0
   19.7257   -6.0626  -19.1517 C   0  0  0  0  0  0  0  0  0  0  0  0
   19.4174   -4.6539  -19.3866 C   0  0  0  0  0  0  0  0  0  0  0  0
   20.4055   -3.7534  -19.7773 C   0  0  0  0  0  0  0  0  0  0  0  0
   20.1214   -2.4208  -20.0250 C   0  0  0  0  0  0  0  0  0  0  0  0
   18.8296   -1.9482  -19.8867 C   0  0  0  0  0  0  0  0  0  0  0  0
   17.8631   -2.8213  -19.5061 C   0  0  0  0  0  0  0  0  0  0  0  0
   18.1358   -4.1743  -19.2526 C   0  0  0  0  0  0  0  0  0  0  0  0
   19.7834   -5.7076  -16.7557 C   0  0  0  0  0  0  0  0  0  0  0  0
   18.8895   -6.5173  -16.0845 O   0  0  0  0  0  0  0  0  0  0  0  0
   19.9329   -4.5336  -16.3632 O   0  0  0  0  0  0  0  0  0  0  0  0
  2  1  1  6
  2  3  1  0
  3  4  1  0
  4  8  1  0
  5  4  2  0
  6  2  1  0
  6  7  2  0
  9 10  1  0
 10 20  2  0
 11 12  2  0
 11 10  1  0
 12 13  1  0
 13 14  1  0
 13 19  2  0
 15 16  1  0
 15 14  1  1
 16  6  1  0
 17 15  1  0
 18 17  2  0
 20 19  1  0
 21 17  1  0
 22 21  1  0
 23 24  1  0
 22 23  1  6
 24 25  2  0
 25 26  1  0
 27 26  2  0
 28 27  1  0
 29 28  2  0
 29 24  1  0
 30 22  1  0
 30 31  1  0
 32 30  2  0
M  END
$$$$
