VFW.pdb
     RDKit          3D

 33 35  0  0  1  0  0  0  0  0999 V2000
    9.6389  -20.9884   23.3301 C   0  0  0  0  0  0  0  0  0  0  0  0
    8.1595  -20.8516   23.3346 C   0  0  2  0  0  0  0  0  0  0  0  0
    7.5454  -22.2095   23.7027 C   0  0  0  0  0  0  0  0  0  0  0  0
    7.6239  -20.4846   21.9957 C   0  0  2  0  0  0  0  0  0  0  0  0
    8.0434  -21.4088   20.9711 N   0  0  0  0  0  0  0  0  0  0  0  0
    8.0942  -19.1220   21.6061 C   0  0  0  0  0  0  0  0  0  0  0  0
    9.1092  -18.9529   20.8791 O   0  0  0  0  0  0  0  0  0  0  0  0
    7.4259  -17.9481   22.0324 N   0  0  0  0  0  0  0  0  0  0  0  0
    7.8422  -16.6105   21.6998 C   0  0  1  0  0  0  0  0  0  0  0  0
    6.7264  -15.6343   21.6017 C   0  0  0  0  0  0  0  0  0  0  0  0
    7.1075  -14.2695   21.2364 C   0  0  0  0  0  0  0  0  0  0  0  0
    7.5249  -13.9876   19.9518 C   0  0  0  0  0  0  0  0  0  0  0  0
    7.8885  -12.6843   19.5962 C   0  0  0  0  0  0  0  0  0  0  0  0
    7.8343  -11.6540   20.5332 C   0  0  0  0  0  0  0  0  0  0  0  0
    7.4167  -11.9411   21.8157 C   0  0  0  0  0  0  0  0  0  0  0  0
    7.0586  -13.2466   22.1499 C   0  0  0  0  0  0  0  0  0  0  0  0
    8.9707  -16.1592   22.5654 C   0  0  0  0  0  0  0  0  0  0  0  0
    9.7125  -15.2586   22.1233 O   0  0  0  0  0  0  0  0  0  0  0  0
    9.2040  -16.7118   23.8258 N   0  0  0  0  0  0  0  0  0  0  0  0
   10.2753  -16.3849   24.7404 C   0  0  1  0  0  0  0  0  0  0  0  0
    9.8856  -15.4265   25.7925 C   0  0  0  0  0  0  0  0  0  0  0  0
    8.4150  -15.3132   25.9202 C   0  0  0  0  0  0  0  0  0  0  0  0
    7.4615  -16.3063   25.8428 C   0  0  0  0  0  0  0  0  0  0  0  0
    6.2627  -15.7303   25.9997 N   0  0  0  0  0  0  0  0  0  0  0  0
    6.3840  -14.4080   26.1760 C   0  0  0  0  0  0  0  0  0  0  0  0
    5.4595  -13.3858   26.3765 C   0  0  0  0  0  0  0  0  0  0  0  0
    5.8602  -12.0806   26.5315 C   0  0  0  0  0  0  0  0  0  0  0  0
    7.2180  -11.7973   26.4841 C   0  0  0  0  0  0  0  0  0  0  0  0
    8.1199  -12.8233   26.2845 C   0  0  0  0  0  0  0  0  0  0  0  0
    7.7221  -14.1159   26.1311 C   0  0  0  0  0  0  0  0  0  0  0  0
   10.9284  -17.5797   25.3424 C   0  0  0  0  0  0  0  0  0  0  0  0
   12.1192  -17.5592   26.0484 O   0  0  0  0  0  0  0  0  0  0  0  0
   10.3439  -18.6879   25.1949 O   0  0  0  0  0  0  0  0  0  0  0  0
  2  3  1  6
  2  1  1  0
  4  2  1  0
  4  5  1  6
  6  4  1  0
  6  7  2  0
  8  6  1  0
  9 10  1  1
  9  8  1  0
 11 16  1  0
 11 10  1  0
 12 11  2  0
 13 14  2  0
 13 12  1  0
 14 15  1  0
 15 16  2  0
 17  9  1  0
 18 17  2  0
 19 17  1  0
 20 21  1  1
 20 19  1  0
 21 22  1  0
 22 30  1  0
 23 22  2  0
 23 24  1  0
 24 25  1  0
 25 26  1  0
 26 27  2  0
 28 27  1  0
 29 28  2  0
 30 25  2  0
 30 29  1  0
 31 32  1  0
 31 20  1  0
 33 31  2  0
M  END
$$$$
