VFW.pdb
     RDKit          3D

 33 35  0  0  1  0  0  0  0  0999 V2000
   10.1244  -19.4876   17.6346 C   0  0  0  0  0  0  0  0  0  0  0  0
   10.1320  -18.7768   18.9393 C   0  0  2  0  0  0  0  0  0  0  0  0
    9.0025  -19.3442   19.8102 C   0  0  0  0  0  0  0  0  0  0  0  0
    9.8701  -17.3198   18.7882 C   0  0  2  0  0  0  0  0  0  0  0  0
   10.8502  -16.6761   17.9486 N   0  0  0  0  0  0  0  0  0  0  0  0
    9.8956  -16.6486   20.1218 C   0  0  0  0  0  0  0  0  0  0  0  0
   10.9753  -16.4225   20.7306 O   0  0  0  0  0  0  0  0  0  0  0  0
    8.7093  -16.2310   20.7735 N   0  0  0  0  0  0  0  0  0  0  0  0
    8.6694  -15.6329   22.0827 C   0  0  1  0  0  0  0  0  0  0  0  0
    7.5011  -14.7431   22.3081 C   0  0  0  0  0  0  0  0  0  0  0  0
    7.3316  -14.2527   23.6764 C   0  0  0  0  0  0  0  0  0  0  0  0
    7.8850  -13.0461   24.0530 C   0  0  0  0  0  0  0  0  0  0  0  0
    7.7246  -12.5712   25.3591 C   0  0  0  0  0  0  0  0  0  0  0  0
    7.0045  -13.3092   26.2968 C   0  0  0  0  0  0  0  0  0  0  0  0
    6.4534  -14.5145   25.9154 C   0  0  0  0  0  0  0  0  0  0  0  0
    6.6249  -14.9701   24.6088 C   0  0  0  0  0  0  0  0  0  0  0  0
    8.8739  -16.6513   23.1541 C   0  0  0  0  0  0  0  0  0  0  0  0
    8.1499  -17.6671   23.1301 O   0  0  0  0  0  0  0  0  0  0  0  0
    9.8342  -16.4911   24.1543 N   0  0  0  0  0  0  0  0  0  0  0  0
   10.3351  -17.5035   25.0572 C   0  0  1  0  0  0  0  0  0  0  0  0
   11.4592  -17.0462   25.8966 C   0  0  0  0  0  0  0  0  0  0  0  0
   11.0123  -16.6493   27.2511 C   0  0  0  0  0  0  0  0  0  0  0  0
   10.9617  -17.4079   28.4015 C   0  0  0  0  0  0  0  0  0  0  0  0
   10.4718  -16.6322   29.3771 N   0  0  0  0  0  0  0  0  0  0  0  0
   10.1987  -15.4022   28.9222 C   0  0  0  0  0  0  0  0  0  0  0  0
    9.6850  -14.2566   29.5252 C   0  0  0  0  0  0  0  0  0  0  0  0
    9.4979  -13.0970   28.8123 C   0  0  0  0  0  0  0  0  0  0  0  0
    9.8341  -13.0886   27.4659 C   0  0  0  0  0  0  0  0  0  0  0  0
   10.3420  -14.2336   26.8851 C   0  0  0  0  0  0  0  0  0  0  0  0
   10.5271  -15.3818   27.5920 C   0  0  0  0  0  0  0  0  0  0  0  0
    9.2766  -18.1246   25.9001 C   0  0  0  0  0  0  0  0  0  0  0  0
    9.4160  -19.3123   26.5978 O   0  0  0  0  0  0  0  0  0  0  0  0
    8.1756  -17.5140   25.9801 O   0  0  0  0  0  0  0  0  0  0  0  0
  2  3  1  1
  2  1  1  0
  4  2  1  0
  4  5  1  6
  6  4  1  0
  6  7  2  0
  8  6  1  0
  9 10  1  1
  9  8  1  0
 11 16  1  0
 11 10  1  0
 12 11  2  0
 13 14  2  0
 13 12  1  0
 14 15  1  0
 15 16  2  0
 17  9  1  0
 18 17  2  0
 19 17  1  0
 20 21  1  1
 20 19  1  0
 21 22  1  0
 22 30  1  0
 23 22  2  0
 23 24  1  0
 24 25  1  0
 25 26  1  0
 26 27  2  0
 28 27  1  0
 29 28  2  0
 30 25  2  0
 30 29  1  0
 31 32  1  0
 31 20  1  0
 33 31  2  0
M  END
$$$$
