VFW.pdb
     RDKit          3D

 33 35  0  0  1  0  0  0  0  0999 V2000
   10.7168  -20.1824   19.1347 C   0  0  0  0  0  0  0  0  0  0  0  0
   10.5551  -19.0899   20.1287 C   0  0  2  0  0  0  0  0  0  0  0  0
   10.1184  -19.7070   21.4647 C   0  0  0  0  0  0  0  0  0  0  0  0
    9.4963  -18.1218   19.7340 C   0  0  2  0  0  0  0  0  0  0  0  0
    9.6502  -17.6742   18.3717 N   0  0  0  0  0  0  0  0  0  0  0  0
    9.5376  -16.9204   20.6198 C   0  0  0  0  0  0  0  0  0  0  0  0
   10.4116  -16.0235   20.4814 O   0  0  0  0  0  0  0  0  0  0  0  0
    8.5983  -16.7248   21.6618 N   0  0  0  0  0  0  0  0  0  0  0  0
    8.5548  -15.5605   22.5079 C   0  0  1  0  0  0  0  0  0  0  0  0
    7.1842  -15.1588   22.9174 C   0  0  0  0  0  0  0  0  0  0  0  0
    7.1080  -14.1425   23.9675 C   0  0  0  0  0  0  0  0  0  0  0  0
    7.5217  -12.8511   23.7124 C   0  0  0  0  0  0  0  0  0  0  0  0
    7.4492  -11.8747   24.7117 C   0  0  0  0  0  0  0  0  0  0  0  0
    6.9588  -12.1923   25.9770 C   0  0  0  0  0  0  0  0  0  0  0  0
    6.5467  -13.4844   26.2269 C   0  0  0  0  0  0  0  0  0  0  0  0
    6.6272  -14.4428   25.2173 C   0  0  0  0  0  0  0  0  0  0  0  0
    9.5196  -15.6730   23.6407 C   0  0  0  0  0  0  0  0  0  0  0  0
    9.7526  -14.6425   24.3044 O   0  0  0  0  0  0  0  0  0  0  0  0
   10.1481  -16.8774   23.9613 N   0  0  0  0  0  0  0  0  0  0  0  0
   11.1692  -17.0927   24.9623 C   0  0  1  0  0  0  0  0  0  0  0  0
   10.6851  -17.8061   26.1598 C   0  0  0  0  0  0  0  0  0  0  0  0
    9.6219  -17.0514   26.8611 C   0  0  0  0  0  0  0  0  0  0  0  0
    8.2649  -17.2942   26.8900 C   0  0  0  0  0  0  0  0  0  0  0  0
    7.6979  -16.3383   27.6372 N   0  0  0  0  0  0  0  0  0  0  0  0
    8.6173  -15.4807   28.0994 C   0  0  0  0  0  0  0  0  0  0  0  0
    8.5408  -14.3435   28.9000 C   0  0  0  0  0  0  0  0  0  0  0  0
    9.6653  -13.6274   29.2327 C   0  0  0  0  0  0  0  0  0  0  0  0
   10.8917  -14.0633   28.7509 C   0  0  0  0  0  0  0  0  0  0  0  0
   10.9483  -15.1925   27.9587 C   0  0  0  0  0  0  0  0  0  0  0  0
    9.8339  -15.9013   27.6297 C   0  0  0  0  0  0  0  0  0  0  0  0
   12.3960  -17.7461   24.4290 C   0  0  0  0  0  0  0  0  0  0  0  0
   12.5327  -18.2442   23.1444 O   0  0  0  0  0  0  0  0  0  0  0  0
   13.3794  -17.8459   25.2130 O   0  0  0  0  0  0  0  0  0  0  0  0
  2  3  1  1
  2  1  1  0
  4  2  1  0
  4  5  1  6
  6  4  1  0
  6  7  2  0
  8  6  1  0
  9 10  1  1
  9  8  1  0
 11 16  1  0
 11 10  1  0
 12 11  2  0
 13 14  2  0
 13 12  1  0
 14 15  1  0
 15 16  2  0
 17  9  1  0
 18 17  2  0
 19 17  1  0
 20 21  1  1
 20 19  1  0
 21 22  1  0
 22 30  1  0
 23 22  2  0
 23 24  1  0
 24 25  1  0
 25 26  1  0
 26 27  2  0
 28 27  1  0
 29 28  2  0
 30 25  2  0
 30 29  1  0
 31 32  1  0
 31 20  1  0
 33 31  2  0
M  END
$$$$
