VFW.pdb
     RDKit          3D

 33 35  0  0  1  0  0  0  0  0999 V2000
    9.3682  -19.5598   17.5154 C   0  0  0  0  0  0  0  0  0  0  0  0
    9.5756  -18.7225   18.7252 C   0  0  2  0  0  0  0  0  0  0  0  0
    8.5454  -19.1346   19.7859 C   0  0  0  0  0  0  0  0  0  0  0  0
    9.3591  -17.2758   18.4525 C   0  0  2  0  0  0  0  0  0  0  0  0
   10.2853  -16.7632   17.4730 N   0  0  0  0  0  0  0  0  0  0  0  0
    9.5294  -16.4820   19.7056 C   0  0  0  0  0  0  0  0  0  0  0  0
   10.6601  -16.0763   20.0858 O   0  0  0  0  0  0  0  0  0  0  0  0
    8.4311  -16.1431   20.5334 N   0  0  0  0  0  0  0  0  0  0  0  0
    8.5516  -15.5544   21.8419 C   0  0  1  0  0  0  0  0  0  0  0  0
    7.3507  -14.7969   22.2795 C   0  0  0  0  0  0  0  0  0  0  0  0
    7.4134  -14.2319   23.6280 C   0  0  0  0  0  0  0  0  0  0  0  0
    6.9926  -14.9763   24.7108 C   0  0  0  0  0  0  0  0  0  0  0  0
    7.0522  -14.4421   26.0025 C   0  0  0  0  0  0  0  0  0  0  0  0
    7.5368  -13.1525   26.2131 C   0  0  0  0  0  0  0  0  0  0  0  0
    7.9561  -12.4126   25.1275 C   0  0  0  0  0  0  0  0  0  0  0  0
    7.8884  -12.9633   23.8483 C   0  0  0  0  0  0  0  0  0  0  0  0
    9.0435  -16.5457   22.8429 C   0  0  0  0  0  0  0  0  0  0  0  0
    8.4687  -17.6521   22.8896 O   0  0  0  0  0  0  0  0  0  0  0  0
   10.1058  -16.2642   23.7035 N   0  0  0  0  0  0  0  0  0  0  0  0
   10.9563  -17.2149   24.3846 C   0  0  1  0  0  0  0  0  0  0  0  0
   11.6184  -16.6661   25.5836 C   0  0  0  0  0  0  0  0  0  0  0  0
   10.7422  -16.7265   26.7756 C   0  0  0  0  0  0  0  0  0  0  0  0
   10.1614  -17.8287   27.3665 C   0  0  0  0  0  0  0  0  0  0  0  0
    9.4381  -17.3965   28.4074 N   0  0  0  0  0  0  0  0  0  0  0  0
    9.5164  -16.0646   28.5274 C   0  0  0  0  0  0  0  0  0  0  0  0
    8.9600  -15.1553   29.4238 C   0  0  0  0  0  0  0  0  0  0  0  0
    9.2066  -13.8076   29.3196 C   0  0  0  0  0  0  0  0  0  0  0  0
   10.0293  -13.3648   28.2933 C   0  0  0  0  0  0  0  0  0  0  0  0
   10.5720  -14.2806   27.4141 C   0  0  0  0  0  0  0  0  0  0  0  0
   10.3273  -15.6154   27.5182 C   0  0  0  0  0  0  0  0  0  0  0  0
   10.2736  -18.4974   24.7094 C   0  0  0  0  0  0  0  0  0  0  0  0
    8.9043  -18.6979   24.6668 O   0  0  0  0  0  0  0  0  0  0  0  0
   11.0063  -19.4681   25.0445 O   0  0  0  0  0  0  0  0  0  0  0  0
  2  3  1  1
  2  1  1  0
  4  2  1  0
  4  5  1  6
  6  4  1  0
  6  7  2  0
  8  6  1  0
  9 10  1  1
  9  8  1  0
 11 16  1  0
 11 10  1  0
 12 11  2  0
 13 14  2  0
 13 12  1  0
 14 15  1  0
 15 16  2  0
 17  9  1  0
 18 17  2  0
 19 17  1  0
 20 21  1  1
 20 19  1  0
 21 22  1  0
 22 30  1  0
 23 22  2  0
 23 24  1  0
 24 25  1  0
 25 26  1  0
 26 27  2  0
 28 27  1  0
 29 28  2  0
 30 25  2  0
 30 29  1  0
 31 32  1  0
 31 20  1  0
 33 31  2  0
M  END
$$$$
