VFW.pdb
     RDKit          3D

 33 35  0  0  1  0  0  0  0  0999 V2000
   10.6896  -19.2673   19.4714 C   0  0  0  0  0  0  0  0  0  0  0  0
    9.3699  -18.7921   18.9815 C   0  0  2  0  0  0  0  0  0  0  0  0
    9.0765  -19.4699   17.6358 C   0  0  0  0  0  0  0  0  0  0  0  0
    9.3550  -17.3243   18.7376 C   0  0  2  0  0  0  0  0  0  0  0  0
   10.4585  -16.8998   17.9118 N   0  0  0  0  0  0  0  0  0  0  0  0
    9.4382  -16.5840   20.0317 C   0  0  0  0  0  0  0  0  0  0  0  0
   10.5168  -16.0740   20.4366 O   0  0  0  0  0  0  0  0  0  0  0  0
    8.3109  -16.4158   20.8728 N   0  0  0  0  0  0  0  0  0  0  0  0
    8.3498  -15.7843   22.1662 C   0  0  1  0  0  0  0  0  0  0  0  0
    7.0710  -15.1427   22.5670 C   0  0  0  0  0  0  0  0  0  0  0  0
    7.0355  -14.5902   23.9216 C   0  0  0  0  0  0  0  0  0  0  0  0
    7.4648  -13.2997   24.1545 C   0  0  0  0  0  0  0  0  0  0  0  0
    7.4313  -12.7655   25.4470 C   0  0  0  0  0  0  0  0  0  0  0  0
    6.9644  -13.5282   26.5160 C   0  0  0  0  0  0  0  0  0  0  0  0
    6.5365  -14.8174   26.2779 C   0  0  0  0  0  0  0  0  0  0  0  0
    6.5782  -15.3312   24.9823 C   0  0  0  0  0  0  0  0  0  0  0  0
    8.9241  -16.6939   23.2004 C   0  0  0  0  0  0  0  0  0  0  0  0
    8.4201  -17.8297   23.3136 O   0  0  0  0  0  0  0  0  0  0  0  0
    9.9855  -16.3067   24.0200 N   0  0  0  0  0  0  0  0  0  0  0  0
   11.0966  -17.1223   24.4575 C   0  0  1  0  0  0  0  0  0  0  0  0
   12.0076  -16.4325   25.3910 C   0  0  0  0  0  0  0  0  0  0  0  0
   11.3548  -16.1420   26.6876 C   0  0  0  0  0  0  0  0  0  0  0  0
   10.8422  -17.0251   27.6144 C   0  0  0  0  0  0  0  0  0  0  0  0
   10.3335  -16.3048   28.6223 N   0  0  0  0  0  0  0  0  0  0  0  0
   10.4876  -14.9927   28.4013 C   0  0  0  0  0  0  0  0  0  0  0  0
   10.1375  -13.8574   29.1283 C   0  0  0  0  0  0  0  0  0  0  0  0
   10.4179  -12.5958   28.6617 C   0  0  0  0  0  0  0  0  0  0  0  0
   11.0636  -12.4729   27.4394 C   0  0  0  0  0  0  0  0  0  0  0  0
   11.4031  -13.6093   26.7326 C   0  0  0  0  0  0  0  0  0  0  0  0
   11.1249  -14.8586   27.1957 C   0  0  0  0  0  0  0  0  0  0  0  0
   10.6840  -18.4404   25.0132 C   0  0  0  0  0  0  0  0  0  0  0  0
    9.3760  -18.8196   25.2627 O   0  0  0  0  0  0  0  0  0  0  0  0
   11.6017  -19.2671   25.2698 O   0  0  0  0  0  0  0  0  0  0  0  0
  2  3  1  6
  2  1  1  0
  4  2  1  0
  4  5  1  6
  6  4  1  0
  6  7  2  0
  8  6  1  0
  9 10  1  1
  9  8  1  0
 11 16  1  0
 11 10  1  0
 12 11  2  0
 13 14  2  0
 13 12  1  0
 14 15  1  0
 15 16  2  0
 17  9  1  0
 18 17  2  0
 19 17  1  0
 20 21  1  1
 20 19  1  0
 21 22  1  0
 22 30  1  0
 23 22  2  0
 23 24  1  0
 24 25  1  0
 25 26  1  0
 26 27  2  0
 28 27  1  0
 29 28  2  0
 30 25  2  0
 30 29  1  0
 31 32  1  0
 31 20  1  0
 33 31  2  0
M  END
$$$$
