VFW.pdb
     RDKit          3D

 33 35  0  0  1  0  0  0  0  0999 V2000
    8.1255  -22.8358   23.5922 C   0  0  0  0  0  0  0  0  0  0  0  0
    8.4488  -21.4234   23.2634 C   0  0  2  0  0  0  0  0  0  0  0  0
    8.0576  -20.5428   24.4584 C   0  0  0  0  0  0  0  0  0  0  0  0
    7.6779  -20.9274   22.0913 C   0  0  2  0  0  0  0  0  0  0  0  0
    7.8209  -21.7887   20.9434 N   0  0  0  0  0  0  0  0  0  0  0  0
    8.1461  -19.5636   21.7036 C   0  0  0  0  0  0  0  0  0  0  0  0
    9.2280  -19.3846   21.0833 O   0  0  0  0  0  0  0  0  0  0  0  0
    7.4007  -18.3993   22.0123 N   0  0  0  0  0  0  0  0  0  0  0  0
    7.8054  -17.0610   21.6681 C   0  0  1  0  0  0  0  0  0  0  0  0
    6.6908  -16.0790   21.6374 C   0  0  0  0  0  0  0  0  0  0  0  0
    7.0667  -14.7026   21.3123 C   0  0  0  0  0  0  0  0  0  0  0  0
    7.1313  -13.7490   22.3075 C   0  0  0  0  0  0  0  0  0  0  0  0
    7.4921  -12.4321   22.0030 C   0  0  0  0  0  0  0  0  0  0  0  0
    7.7909  -12.0655   20.6920 C   0  0  0  0  0  0  0  0  0  0  0  0
    7.7247  -13.0222   19.7010 C   0  0  0  0  0  0  0  0  0  0  0  0
    7.3630  -14.3292   20.0254 C   0  0  0  0  0  0  0  0  0  0  0  0
    8.9809  -16.6219   22.4755 C   0  0  0  0  0  0  0  0  0  0  0  0
    9.8236  -15.8907   21.9170 O   0  0  0  0  0  0  0  0  0  0  0  0
    9.1489  -17.0044   23.8073 N   0  0  0  0  0  0  0  0  0  0  0  0
   10.0846  -16.4566   24.7641 C   0  0  1  0  0  0  0  0  0  0  0  0
    9.7872  -15.0653   25.1554 C   0  0  0  0  0  0  0  0  0  0  0  0
    8.3858  -14.9050   25.6054 C   0  0  0  0  0  0  0  0  0  0  0  0
    7.3830  -15.8496   25.6629 C   0  0  0  0  0  0  0  0  0  0  0  0
    6.2793  -15.2418   26.1166 N   0  0  0  0  0  0  0  0  0  0  0  0
    6.5098  -13.9447   26.3591 C   0  0  0  0  0  0  0  0  0  0  0  0
    5.7082  -12.9071   26.8288 C   0  0  0  0  0  0  0  0  0  0  0  0
    6.2060  -11.6364   26.9891 C   0  0  0  0  0  0  0  0  0  0  0  0
    7.5367  -11.4041   26.6707 C   0  0  0  0  0  0  0  0  0  0  0  0
    8.3162  -12.4447   26.2065 C   0  0  0  0  0  0  0  0  0  0  0  0
    7.8223  -13.7031   26.0481 C   0  0  0  0  0  0  0  0  0  0  0  0
   10.2670  -17.3081   25.9717 C   0  0  0  0  0  0  0  0  0  0  0  0
    9.5418  -18.4546   26.2485 O   0  0  0  0  0  0  0  0  0  0  0  0
   11.1524  -16.9512   26.7965 O   0  0  0  0  0  0  0  0  0  0  0  0
  2  3  1  1
  2  1  1  0
  4  2  1  0
  4  5  1  6
  6  4  1  0
  6  7  2  0
  8  6  1  0
  9 10  1  1
  9  8  1  0
 11 16  1  0
 11 10  1  0
 12 11  2  0
 13 14  2  0
 13 12  1  0
 14 15  1  0
 15 16  2  0
 17  9  1  0
 18 17  2  0
 19 17  1  0
 20 21  1  1
 20 19  1  0
 21 22  1  0
 22 30  1  0
 23 22  2  0
 23 24  1  0
 24 25  1  0
 25 26  1  0
 26 27  2  0
 28 27  1  0
 29 28  2  0
 30 25  2  0
 30 29  1  0
 31 32  1  0
 31 20  1  0
 33 31  2  0
M  END
$$$$
