VFW.pdb
     RDKit          3D

 33 35  0  0  1  0  0  0  0  0999 V2000
   10.1016  -19.2362   17.5557 C   0  0  0  0  0  0  0  0  0  0  0  0
   10.0193  -18.6351   18.9119 C   0  0  2  0  0  0  0  0  0  0  0  0
    8.9049  -19.3452   19.6931 C   0  0  0  0  0  0  0  0  0  0  0  0
    9.6624  -17.1913   18.8672 C   0  0  2  0  0  0  0  0  0  0  0  0
   10.5993  -16.4243   18.0836 N   0  0  0  0  0  0  0  0  0  0  0  0
    9.6417  -16.6205   20.2468 C   0  0  0  0  0  0  0  0  0  0  0  0
   10.7032  -16.3456   20.8675 O   0  0  0  0  0  0  0  0  0  0  0  0
    8.4297  -16.3580   20.9313 N   0  0  0  0  0  0  0  0  0  0  0  0
    8.3494  -15.7880   22.2511 C   0  0  1  0  0  0  0  0  0  0  0  0
    7.1047  -15.0170   22.5044 C   0  0  0  0  0  0  0  0  0  0  0  0
    6.9209  -14.5418   23.8763 C   0  0  0  0  0  0  0  0  0  0  0  0
    6.3480  -15.3656   24.8234 C   0  0  0  0  0  0  0  0  0  0  0  0
    6.1716  -14.9175   26.1369 C   0  0  0  0  0  0  0  0  0  0  0  0
    6.5715  -13.6347   26.5066 C   0  0  0  0  0  0  0  0  0  0  0  0
    7.1434  -12.8152   25.5562 C   0  0  0  0  0  0  0  0  0  0  0  0
    7.3103  -13.2808   24.2525 C   0  0  0  0  0  0  0  0  0  0  0  0
    8.6627  -16.7996   23.3023 C   0  0  0  0  0  0  0  0  0  0  0  0
    7.9883  -17.8493   23.3121 O   0  0  0  0  0  0  0  0  0  0  0  0
    9.6691  -16.5972   24.2481 N   0  0  0  0  0  0  0  0  0  0  0  0
   10.5276  -17.5985   24.8409 C   0  0  1  0  0  0  0  0  0  0  0  0
   11.6473  -17.0346   25.6191 C   0  0  0  0  0  0  0  0  0  0  0  0
   11.2087  -16.5497   26.9475 C   0  0  0  0  0  0  0  0  0  0  0  0
   10.8571  -17.2816   28.0620 C   0  0  0  0  0  0  0  0  0  0  0  0
   10.5117  -16.4154   29.0232 N   0  0  0  0  0  0  0  0  0  0  0  0
   10.6197  -15.1514   28.5929 C   0  0  0  0  0  0  0  0  0  0  0  0
   10.3831  -13.9177   29.1945 C   0  0  0  0  0  0  0  0  0  0  0  0
   10.5768  -12.7412   28.5116 C   0  0  0  0  0  0  0  0  0  0  0  0
   11.0176  -12.8062   27.1971 C   0  0  0  0  0  0  0  0  0  0  0  0
   11.2469  -14.0380   26.6173 C   0  0  0  0  0  0  0  0  0  0  0  0
   11.0548  -15.2028   27.2945 C   0  0  0  0  0  0  0  0  0  0  0  0
    9.7918  -18.6102   25.6480 C   0  0  0  0  0  0  0  0  0  0  0  0
    8.4419  -18.5517   25.9505 O   0  0  0  0  0  0  0  0  0  0  0  0
   10.4560  -19.5912   26.0815 O   0  0  0  0  0  0  0  0  0  0  0  0
  2  3  1  1
  2  1  1  0
  4  2  1  0
  4  5  1  6
  6  4  1  0
  6  7  2  0
  8  6  1  0
  9 10  1  1
  9  8  1  0
 11 16  1  0
 11 10  1  0
 12 11  2  0
 13 14  2  0
 13 12  1  0
 14 15  1  0
 15 16  2  0
 17  9  1  0
 18 17  2  0
 19 17  1  0
 20 21  1  1
 20 19  1  0
 21 22  1  0
 22 30  1  0
 23 22  2  0
 23 24  1  0
 24 25  1  0
 25 26  1  0
 26 27  2  0
 28 27  1  0
 29 28  2  0
 30 25  2  0
 30 29  1  0
 31 32  1  0
 31 20  1  0
 33 31  2  0
M  END
$$$$
