VFW.pdb
     RDKit          3D

 33 35  0  0  1  0  0  0  0  0999 V2000
   10.8470  -18.9747   17.4396 C   0  0  0  0  0  0  0  0  0  0  0  0
   10.6825  -18.3982   18.7991 C   0  0  2  0  0  0  0  0  0  0  0  0
    9.7824  -19.3328   19.6193 C   0  0  0  0  0  0  0  0  0  0  0  0
   10.0127  -17.0698   18.7701 C   0  0  2  0  0  0  0  0  0  0  0  0
   10.7275  -16.1189   17.9548 N   0  0  0  0  0  0  0  0  0  0  0  0
    9.9149  -16.5095   20.1507 C   0  0  0  0  0  0  0  0  0  0  0  0
   10.9156  -16.0238   20.7424 O   0  0  0  0  0  0  0  0  0  0  0  0
    8.6940  -16.4941   20.8686 N   0  0  0  0  0  0  0  0  0  0  0  0
    8.5591  -16.0507   22.2319 C   0  0  1  0  0  0  0  0  0  0  0  0
    7.2057  -15.5412   22.5732 C   0  0  0  0  0  0  0  0  0  0  0  0
    7.0698  -14.9416   23.9012 C   0  0  0  0  0  0  0  0  0  0  0  0
    6.4550  -15.6431   24.9179 C   0  0  0  0  0  0  0  0  0  0  0  0
    6.3240  -15.0758   26.1900 C   0  0  0  0  0  0  0  0  0  0  0  0
    6.8121  -13.7961   26.4477 C   0  0  0  0  0  0  0  0  0  0  0  0
    7.4256  -13.0991   25.4281 C   0  0  0  0  0  0  0  0  0  0  0  0
    7.5461  -13.6823   24.1674 C   0  0  0  0  0  0  0  0  0  0  0  0
    9.0864  -17.0655   23.1904 C   0  0  0  0  0  0  0  0  0  0  0  0
    8.6640  -18.2347   23.0830 O   0  0  0  0  0  0  0  0  0  0  0  0
   10.0178  -16.7384   24.1771 N   0  0  0  0  0  0  0  0  0  0  0  0
   10.7517  -17.6510   25.0254 C   0  0  1  0  0  0  0  0  0  0  0  0
   11.7726  -16.9921   25.8625 C   0  0  0  0  0  0  0  0  0  0  0  0
   11.2097  -16.5094   27.1440 C   0  0  0  0  0  0  0  0  0  0  0  0
   10.8974  -17.2306   28.2771 C   0  0  0  0  0  0  0  0  0  0  0  0
   10.3973  -16.3744   29.1773 N   0  0  0  0  0  0  0  0  0  0  0  0
   10.3665  -15.1272   28.6895 C   0  0  0  0  0  0  0  0  0  0  0  0
    9.9460  -13.9089   29.2172 C   0  0  0  0  0  0  0  0  0  0  0  0
   10.0240  -12.7485   28.4855 C   0  0  0  0  0  0  0  0  0  0  0  0
   10.5353  -12.8142   27.1969 C   0  0  0  0  0  0  0  0  0  0  0  0
   10.9473  -14.0307   26.6903 C   0  0  0  0  0  0  0  0  0  0  0  0
   10.8697  -15.1796   27.4159 C   0  0  0  0  0  0  0  0  0  0  0  0
    9.8774  -18.5200   25.8603 C   0  0  0  0  0  0  0  0  0  0  0  0
   10.2967  -19.6614   26.5224 O   0  0  0  0  0  0  0  0  0  0  0  0
    8.6671  -18.1810   25.9682 O   0  0  0  0  0  0  0  0  0  0  0  0
  2  3  1  1
  2  1  1  0
  4  2  1  0
  4  5  1  6
  6  4  1  0
  6  7  2  0
  8  6  1  0
  9 10  1  1
  9  8  1  0
 11 16  1  0
 11 10  1  0
 12 11  2  0
 13 14  2  0
 13 12  1  0
 14 15  1  0
 15 16  2  0
 17  9  1  0
 18 17  2  0
 19 17  1  0
 20 21  1  1
 20 19  1  0
 21 22  1  0
 22 30  1  0
 23 22  2  0
 23 24  1  0
 24 25  1  0
 25 26  1  0
 26 27  2  0
 28 27  1  0
 29 28  2  0
 30 25  2  0
 30 29  1  0
 31 32  1  0
 31 20  1  0
 33 31  2  0
M  END
$$$$
