VFW.pdb
     RDKit          3D

 33 35  0  0  1  0  0  0  0  0999 V2000
    7.7063  -13.3689   19.3314 C   0  0  0  0  0  0  0  0  0  0  0  0
    8.1946  -13.9966   20.5865 C   0  0  2  0  0  0  0  0  0  0  0  0
    8.2030  -12.9323   21.6927 C   0  0  0  0  0  0  0  0  0  0  0  0
    9.5899  -14.4978   20.4594 C   0  0  2  0  0  0  0  0  0  0  0  0
    9.7489  -15.3811   19.3306 N   0  0  0  0  0  0  0  0  0  0  0  0
    9.9842  -15.2479   21.6889 C   0  0  0  0  0  0  0  0  0  0  0  0
    9.7476  -16.4784   21.8202 O   0  0  0  0  0  0  0  0  0  0  0  0
   10.6438  -14.6174   22.7723 N   0  0  0  0  0  0  0  0  0  0  0  0
   10.8140  -15.2084   24.0743 C   0  0  1  0  0  0  0  0  0  0  0  0
   11.4673  -14.3149   25.0656 C   0  0  0  0  0  0  0  0  0  0  0  0
   11.4734  -14.7971   26.4472 C   0  0  0  0  0  0  0  0  0  0  0  0
   12.2705  -15.8653   26.8041 C   0  0  0  0  0  0  0  0  0  0  0  0
   12.2821  -16.3293   28.1239 C   0  0  0  0  0  0  0  0  0  0  0  0
   11.4898  -15.7200   29.0951 C   0  0  0  0  0  0  0  0  0  0  0  0
   10.6948  -14.6529   28.7332 C   0  0  0  0  0  0  0  0  0  0  0  0
   10.6976  -14.2057   27.4125 C   0  0  0  0  0  0  0  0  0  0  0  0
    9.5487  -15.8329   24.5595 C   0  0  0  0  0  0  0  0  0  0  0  0
    8.7627  -15.1140   25.2093 O   0  0  0  0  0  0  0  0  0  0  0  0
    9.2381  -17.1699   24.3059 N   0  0  0  0  0  0  0  0  0  0  0  0
    8.0115  -17.8614   24.6349 C   0  0  1  0  0  0  0  0  0  0  0  0
    6.8152  -17.2870   23.9898 C   0  0  0  0  0  0  0  0  0  0  0  0
    6.2668  -16.1461   24.7575 C   0  0  0  0  0  0  0  0  0  0  0  0
    5.4653  -16.1646   25.8794 C   0  0  0  0  0  0  0  0  0  0  0  0
    5.2040  -14.8938   26.2117 N   0  0  0  0  0  0  0  0  0  0  0  0
    5.7951  -14.0433   25.3623 C   0  0  0  0  0  0  0  0  0  0  0  0
    5.8292  -12.6536   25.2765 C   0  0  0  0  0  0  0  0  0  0  0  0
    6.5283  -12.0165   24.2797 C   0  0  0  0  0  0  0  0  0  0  0  0
    7.2070  -12.7922   23.3503 C   0  0  0  0  0  0  0  0  0  0  0  0
    7.1619  -14.1684   23.4511 C   0  0  0  0  0  0  0  0  0  0  0  0
    6.4693  -14.7986   24.4388 C   0  0  0  0  0  0  0  0  0  0  0  0
    8.0749  -19.3298   24.3978 C   0  0  0  0  0  0  0  0  0  0  0  0
    9.2023  -20.0160   23.9794 O   0  0  0  0  0  0  0  0  0  0  0  0
    7.0182  -19.9892   24.5985 O   0  0  0  0  0  0  0  0  0  0  0  0
  2  3  1  1
  2  1  1  0
  4  2  1  0
  4  5  1  6
  6  4  1  0
  6  7  2  0
  8  6  1  0
  9 10  1  1
  9  8  1  0
 11 16  1  0
 11 10  1  0
 12 11  2  0
 13 14  2  0
 13 12  1  0
 14 15  1  0
 15 16  2  0
 17  9  1  0
 18 17  2  0
 19 17  1  0
 20 21  1  6
 20 19  1  0
 21 22  1  0
 22 30  1  0
 23 22  2  0
 23 24  1  0
 24 25  1  0
 25 26  1  0
 26 27  2  0
 28 27  1  0
 29 28  2  0
 30 25  2  0
 30 29  1  0
 31 32  1  0
 31 20  1  0
 33 31  2  0
M  END
$$$$
