VFW.pdb
     RDKit          3D

 33 35  0  0  1  0  0  0  0  0999 V2000
   11.1520  -19.5470   19.8383 C   0  0  0  0  0  0  0  0  0  0  0  0
    9.7207  -19.9423   19.7851 C   0  0  2  0  0  0  0  0  0  0  0  0
    9.6194  -21.3168   19.1091 C   0  0  0  0  0  0  0  0  0  0  0  0
    8.9062  -19.0000   18.9709 C   0  0  2  0  0  0  0  0  0  0  0  0
    9.4384  -18.8314   17.6412 N   0  0  0  0  0  0  0  0  0  0  0  0
    8.8634  -17.6571   19.6225 C   0  0  0  0  0  0  0  0  0  0  0  0
    9.6451  -16.7293   19.2826 O   0  0  0  0  0  0  0  0  0  0  0  0
    7.9436  -17.3546   20.6563 N   0  0  0  0  0  0  0  0  0  0  0  0
    8.0179  -16.1849   21.4927 C   0  0  1  0  0  0  0  0  0  0  0  0
    6.8615  -16.0211   22.4111 C   0  0  0  0  0  0  0  0  0  0  0  0
    6.9038  -14.8452   23.2812 C   0  0  0  0  0  0  0  0  0  0  0  0
    6.5240  -14.9485   24.6037 C   0  0  0  0  0  0  0  0  0  0  0  0
    6.5643  -13.8282   25.4407 C   0  0  0  0  0  0  0  0  0  0  0  0
    6.9880  -12.5941   24.9511 C   0  0  0  0  0  0  0  0  0  0  0  0
    7.3664  -12.4962   23.6286 C   0  0  0  0  0  0  0  0  0  0  0  0
    7.3189  -13.6246   22.8109 C   0  0  0  0  0  0  0  0  0  0  0  0
    9.3468  -16.0770   22.1629 C   0  0  0  0  0  0  0  0  0  0  0  0
   10.1500  -15.2319   21.7186 O   0  0  0  0  0  0  0  0  0  0  0  0
    9.6966  -16.8827   23.2477 N   0  0  0  0  0  0  0  0  0  0  0  0
   10.9243  -16.8392   24.0106 C   0  0  1  0  0  0  0  0  0  0  0  0
   11.0317  -15.6635   24.8956 C   0  0  0  0  0  0  0  0  0  0  0  0
   10.1546  -15.7826   26.0824 C   0  0  0  0  0  0  0  0  0  0  0  0
    9.2633  -16.7852   26.4013 C   0  0  0  0  0  0  0  0  0  0  0  0
    8.6805  -16.4554   27.5611 N   0  0  0  0  0  0  0  0  0  0  0  0
    9.1463  -15.2854   28.0178 C   0  0  0  0  0  0  0  0  0  0  0  0
    8.8665  -14.5270   29.1520 C   0  0  0  0  0  0  0  0  0  0  0  0
    9.5020  -13.3315   29.3863 C   0  0  0  0  0  0  0  0  0  0  0  0
   10.4379  -12.8894   28.4618 C   0  0  0  0  0  0  0  0  0  0  0  0
   10.7024  -13.6544   27.3434 C   0  0  0  0  0  0  0  0  0  0  0  0
   10.0724  -14.8386   27.1121 C   0  0  0  0  0  0  0  0  0  0  0  0
   11.1953  -18.0892   24.7725 C   0  0  0  0  0  0  0  0  0  0  0  0
   10.3174  -19.1540   24.8843 O   0  0  0  0  0  0  0  0  0  0  0  0
   12.3118  -18.1759   25.3534 O   0  0  0  0  0  0  0  0  0  0  0  0
  2  3  1  6
  2  1  1  0
  4  2  1  0
  4  5  1  6
  6  4  1  0
  6  7  2  0
  8  6  1  0
  9 10  1  1
  9  8  1  0
 11 16  1  0
 11 10  1  0
 12 11  2  0
 13 14  2  0
 13 12  1  0
 14 15  1  0
 15 16  2  0
 17  9  1  0
 18 17  2  0
 19 17  1  0
 20 21  1  1
 20 19  1  0
 21 22  1  0
 22 30  1  0
 23 22  2  0
 23 24  1  0
 24 25  1  0
 25 26  1  0
 26 27  2  0
 28 27  1  0
 29 28  2  0
 30 25  2  0
 30 29  1  0
 31 32  1  0
 31 20  1  0
 33 31  2  0
M  END
$$$$
