VFW.pdb
     RDKit          3D

 33 35  0  0  1  0  0  0  0  0999 V2000
    8.6401  -22.3132   19.1857 C   0  0  0  0  0  0  0  0  0  0  0  0
    9.1194  -20.9106   19.2883 C   0  0  2  0  0  0  0  0  0  0  0  0
   10.5514  -20.8434   18.7393 C   0  0  0  0  0  0  0  0  0  0  0  0
    9.1749  -20.4362   20.6976 C   0  0  2  0  0  0  0  0  0  0  0  0
    7.9337  -20.6629   21.3961 N   0  0  0  0  0  0  0  0  0  0  0  0
    9.4649  -18.9720   20.7395 C   0  0  0  0  0  0  0  0  0  0  0  0
   10.5735  -18.5039   20.3661 O   0  0  0  0  0  0  0  0  0  0  0  0
    8.5111  -18.0319   21.2010 N   0  0  0  0  0  0  0  0  0  0  0  0
    8.6950  -16.6043   21.1651 C   0  0  1  0  0  0  0  0  0  0  0  0
    7.4282  -15.8308   21.0974 C   0  0  0  0  0  0  0  0  0  0  0  0
    7.5756  -14.3763   21.0322 C   0  0  0  0  0  0  0  0  0  0  0  0
    7.3342  -13.6051   22.1506 C   0  0  0  0  0  0  0  0  0  0  0  0
    7.4755  -12.2144   22.0949 C   0  0  0  0  0  0  0  0  0  0  0  0
    7.8615  -11.5894   20.9105 C   0  0  0  0  0  0  0  0  0  0  0  0
    8.1014  -12.3646   19.7955 C   0  0  0  0  0  0  0  0  0  0  0  0
    7.9549  -13.7491   19.8720 C   0  0  0  0  0  0  0  0  0  0  0  0
    9.6299  -16.1476   22.2347 C   0  0  0  0  0  0  0  0  0  0  0  0
   10.3651  -15.1721   21.9804 O   0  0  0  0  0  0  0  0  0  0  0  0
    9.6941  -16.7755   23.4797 N   0  0  0  0  0  0  0  0  0  0  0  0
   10.4297  -16.3365   24.6447 C   0  0  1  0  0  0  0  0  0  0  0  0
    9.9368  -15.0677   25.2143 C   0  0  0  0  0  0  0  0  0  0  0  0
    8.4996  -15.1392   25.5627 C   0  0  0  0  0  0  0  0  0  0  0  0
    7.6593  -16.2324   25.5453 C   0  0  0  0  0  0  0  0  0  0  0  0
    6.4433  -15.8147   25.9199 N   0  0  0  0  0  0  0  0  0  0  0  0
    6.4455  -14.5010   26.1818 C   0  0  0  0  0  0  0  0  0  0  0  0
    5.4570  -13.6112   26.5953 C   0  0  0  0  0  0  0  0  0  0  0  0
    5.7324  -12.2798   26.7942 C   0  0  0  0  0  0  0  0  0  0  0  0
    7.0279  -11.8338   26.5731 C   0  0  0  0  0  0  0  0  0  0  0  0
    7.9947  -12.7302   26.1635 C   0  0  0  0  0  0  0  0  0  0  0  0
    7.7211  -14.0488   25.9668 C   0  0  0  0  0  0  0  0  0  0  0  0
   10.5374  -17.3750   25.7060 C   0  0  0  0  0  0  0  0  0  0  0  0
   11.3234  -17.2684   26.8408 O   0  0  0  0  0  0  0  0  0  0  0  0
    9.8558  -18.4253   25.5517 O   0  0  0  0  0  0  0  0  0  0  0  0
  2  3  1  1
  2  1  1  0
  4  2  1  0
  4  5  1  6
  6  4  1  0
  6  7  2  0
  8  6  1  0
  9 10  1  1
  9  8  1  0
 11 16  1  0
 11 10  1  0
 12 11  2  0
 13 14  2  0
 13 12  1  0
 14 15  1  0
 15 16  2  0
 17  9  1  0
 18 17  2  0
 19 17  1  0
 20 21  1  1
 20 19  1  0
 21 22  1  0
 22 30  1  0
 23 22  2  0
 23 24  1  0
 24 25  1  0
 25 26  1  0
 26 27  2  0
 28 27  1  0
 29 28  2  0
 30 25  2  0
 30 29  1  0
 31 32  1  0
 31 20  1  0
 33 31  2  0
M  END
$$$$
