VFW.pdb
     RDKit          3D

 33 35  0  0  1  0  0  0  0  0999 V2000
    9.3250  -19.4709   17.4413 C   0  0  0  0  0  0  0  0  0  0  0  0
    9.5248  -18.7023   18.6970 C   0  0  2  0  0  0  0  0  0  0  0  0
    8.6383  -19.3151   19.7901 C   0  0  0  0  0  0  0  0  0  0  0  0
    9.1153  -17.2786   18.5570 C   0  0  2  0  0  0  0  0  0  0  0  0
    9.8578  -16.5990   17.5242 N   0  0  0  0  0  0  0  0  0  0  0  0
    9.3381  -16.5477   19.8398 C   0  0  0  0  0  0  0  0  0  0  0  0
   10.4916  -16.2169   20.2236 O   0  0  0  0  0  0  0  0  0  0  0  0
    8.2664  -16.1877   20.6933 N   0  0  0  0  0  0  0  0  0  0  0  0
    8.4271  -15.5461   21.9723 C   0  0  1  0  0  0  0  0  0  0  0  0
    7.1872  -14.9164   22.4954 C   0  0  0  0  0  0  0  0  0  0  0  0
    7.2644  -14.4044   23.8641 C   0  0  0  0  0  0  0  0  0  0  0  0
    7.8996  -13.2066   24.1204 C   0  0  0  0  0  0  0  0  0  0  0  0
    7.9747  -12.7110   25.4266 C   0  0  0  0  0  0  0  0  0  0  0  0
    7.4097  -13.4193   26.4856 C   0  0  0  0  0  0  0  0  0  0  0  0
    6.7761  -14.6160   26.2241 C   0  0  0  0  0  0  0  0  0  0  0  0
    6.7122  -15.0925   24.9152 C   0  0  0  0  0  0  0  0  0  0  0  0
    9.1134  -16.4412   22.9492 C   0  0  0  0  0  0  0  0  0  0  0  0
    8.4802  -17.4313   23.3680 O   0  0  0  0  0  0  0  0  0  0  0  0
   10.4151  -16.1966   23.3899 N   0  0  0  0  0  0  0  0  0  0  0  0
   11.2096  -17.0206   24.2735 C   0  0  1  0  0  0  0  0  0  0  0  0
   11.7174  -16.3021   25.4580 C   0  0  0  0  0  0  0  0  0  0  0  0
   10.7159  -16.2543   26.5473 C   0  0  0  0  0  0  0  0  0  0  0  0
    9.7563  -17.1867   26.8808 C   0  0  0  0  0  0  0  0  0  0  0  0
    9.0681  -16.7047   27.9237 N   0  0  0  0  0  0  0  0  0  0  0  0
    9.5298  -15.5018   28.2899 C   0  0  0  0  0  0  0  0  0  0  0  0
    9.1626  -14.6058   29.2910 C   0  0  0  0  0  0  0  0  0  0  0  0
    9.8174  -13.4087   29.4534 C   0  0  0  0  0  0  0  0  0  0  0  0
   10.8626  -13.1062   28.5919 C   0  0  0  0  0  0  0  0  0  0  0  0
   11.2126  -14.0065   27.6055 C   0  0  0  0  0  0  0  0  0  0  0  0
   10.5636  -15.1920   27.4454 C   0  0  0  0  0  0  0  0  0  0  0  0
   10.5303  -18.2807   24.6822 C   0  0  0  0  0  0  0  0  0  0  0  0
   11.1371  -19.3218   25.3641 O   0  0  0  0  0  0  0  0  0  0  0  0
    9.3104  -18.3976   24.3826 O   0  0  0  0  0  0  0  0  0  0  0  0
  2  3  1  1
  2  1  1  0
  4  2  1  0
  4  5  1  6
  6  4  1  0
  6  7  2  0
  8  6  1  0
  9 10  1  1
  9  8  1  0
 11 16  1  0
 11 10  1  0
 12 11  2  0
 13 14  2  0
 13 12  1  0
 14 15  1  0
 15 16  2  0
 17  9  1  0
 18 17  2  0
 19 17  1  0
 20 21  1  1
 20 19  1  0
 21 22  1  0
 22 30  1  0
 23 22  2  0
 23 24  1  0
 24 25  1  0
 25 26  1  0
 26 27  2  0
 28 27  1  0
 29 28  2  0
 30 25  2  0
 30 29  1  0
 31 32  1  0
 31 20  1  0
 33 31  2  0
M  END
$$$$
