VFW.pdb
     RDKit          3D

 33 35  0  0  1  0  0  0  0  0999 V2000
    9.7237  -19.6997   19.4606 C   0  0  0  0  0  0  0  0  0  0  0  0
    8.3065  -19.3756   19.1537 C   0  0  2  0  0  0  0  0  0  0  0  0
    7.8108  -20.3383   18.0656 C   0  0  0  0  0  0  0  0  0  0  0  0
    8.1479  -17.9975   18.6153 C   0  0  2  0  0  0  0  0  0  0  0  0
    9.0041  -17.7561   17.4802 N   0  0  0  0  0  0  0  0  0  0  0  0
    8.4824  -16.9901   19.6656 C   0  0  0  0  0  0  0  0  0  0  0  0
    9.5834  -16.3777   19.6713 O   0  0  0  0  0  0  0  0  0  0  0  0
    7.5815  -16.6696   20.7106 N   0  0  0  0  0  0  0  0  0  0  0  0
    7.8833  -15.7737   21.7967 C   0  0  1  0  0  0  0  0  0  0  0  0
    6.7328  -14.9420   22.2350 C   0  0  0  0  0  0  0  0  0  0  0  0
    6.9642  -14.1113   23.4173 C   0  0  0  0  0  0  0  0  0  0  0  0
    6.4768  -14.5053   24.6465 C   0  0  0  0  0  0  0  0  0  0  0  0
    6.6967  -13.7163   25.7806 C   0  0  0  0  0  0  0  0  0  0  0  0
    7.4103  -12.5230   25.6848 C   0  0  0  0  0  0  0  0  0  0  0  0
    7.8953  -12.1336   24.4540 C   0  0  0  0  0  0  0  0  0  0  0  0
    7.6652  -12.9342   23.3358 C   0  0  0  0  0  0  0  0  0  0  0  0
    8.5811  -16.4814   22.9098 C   0  0  0  0  0  0  0  0  0  0  0  0
    7.8748  -17.0898   23.7391 O   0  0  0  0  0  0  0  0  0  0  0  0
    9.9712  -16.4744   23.0354 N   0  0  0  0  0  0  0  0  0  0  0  0
   10.7496  -15.9179   24.1196 C   0  0  1  0  0  0  0  0  0  0  0  0
    9.9561  -15.1108   25.0663 C   0  0  0  0  0  0  0  0  0  0  0  0
    9.9470  -15.7011   26.4240 C   0  0  0  0  0  0  0  0  0  0  0  0
    9.6393  -16.9904   26.8040 C   0  0  0  0  0  0  0  0  0  0  0  0
    9.7491  -17.0572   28.1370 N   0  0  0  0  0  0  0  0  0  0  0  0
   10.1137  -15.8744   28.6493 C   0  0  0  0  0  0  0  0  0  0  0  0
   10.3547  -15.4333   29.9482 C   0  0  0  0  0  0  0  0  0  0  0  0
   10.7245  -14.1350   30.2046 C   0  0  0  0  0  0  0  0  0  0  0  0
   10.8547  -13.2623   29.1334 C   0  0  0  0  0  0  0  0  0  0  0  0
   10.6118  -13.7171   27.8527 C   0  0  0  0  0  0  0  0  0  0  0  0
   10.2456  -15.0033   27.5997 C   0  0  0  0  0  0  0  0  0  0  0  0
   11.5584  -16.9309   24.8518 C   0  0  0  0  0  0  0  0  0  0  0  0
   11.4173  -18.3019   24.7201 O   0  0  0  0  0  0  0  0  0  0  0  0
   12.4368  -16.4975   25.6469 O   0  0  0  0  0  0  0  0  0  0  0  0
  2  3  1  6
  2  1  1  0
  4  2  1  0
  4  5  1  6
  6  4  1  0
  6  7  2  0
  8  6  1  0
  9 10  1  1
  9  8  1  0
 11 16  1  0
 11 10  1  0
 12 11  2  0
 13 14  2  0
 13 12  1  0
 14 15  1  0
 15 16  2  0
 17  9  1  0
 18 17  2  0
 19 17  1  0
 20 21  1  1
 20 19  1  0
 21 22  1  0
 22 30  1  0
 23 22  2  0
 23 24  1  0
 24 25  1  0
 25 26  1  0
 26 27  2  0
 28 27  1  0
 29 28  2  0
 30 25  2  0
 30 29  1  0
 31 32  1  0
 31 20  1  0
 33 31  2  0
M  END
$$$$
