KYA.pdb
     RDKit          3D

 27 27  0  0  1  0  0  0  0  0999 V2000
   25.9178  -22.7022  -19.0726 N   0  0  0  0  0  0  0  0  0  0  0  0
   24.5411  -22.4369  -18.7635 C   0  0  1  0  0  0  0  0  0  0  0  0
   23.7108  -22.1104  -19.9449 C   0  0  0  0  0  0  0  0  0  0  0  0
   23.8576  -20.7287  -20.4849 C   0  0  0  0  0  0  0  0  0  0  0  0
   25.2217  -20.4486  -21.0366 C   0  0  0  0  0  0  0  0  0  0  0  0
   25.3533  -18.9694  -21.4262 C   0  0  0  0  0  0  0  0  0  0  0  0
   26.7144  -18.6981  -21.8361 N   0  0  0  0  0  0  0  0  0  0  0  0
   23.9444  -23.4958  -17.9025 C   0  0  0  0  0  0  0  0  0  0  0  0
   23.6458  -24.6383  -18.3641 O   0  0  0  0  0  0  0  0  0  0  0  0
   28.2133  -27.6830  -17.0118 O   0  0  0  0  0  0  0  0  0  0  0  0
   27.1649  -27.0024  -16.4285 C   0  0  0  0  0  0  0  0  0  0  0  0
   26.0543  -27.6693  -15.9994 C   0  0  0  0  0  0  0  0  0  0  0  0
   25.0254  -26.9895  -15.4254 C   0  0  0  0  0  0  0  0  0  0  0  0
   25.1086  -25.6269  -15.2791 C   0  0  0  0  0  0  0  0  0  0  0  0
   24.0371  -24.8385  -14.6721 C   0  0  0  0  0  0  0  0  0  0  0  0
   23.0675  -24.3193  -15.6710 C   0  0  2  0  0  0  0  0  0  0  0  0
   23.6756  -23.2915  -16.5219 N   0  0  0  0  0  0  0  0  0  0  0  0
   21.8395  -23.8611  -15.0469 C   0  0  0  0  0  0  0  0  0  0  0  0
   21.7704  -22.7418  -14.5019 O   0  0  0  0  0  0  0  0  0  0  0  0
   26.2335  -24.9305  -15.7110 C   0  0  0  0  0  0  0  0  0  0  0  0
   27.2585  -25.6375  -16.2869 C   0  0  0  0  0  0  0  0  0  0  0  0
   18.5479  -25.5937  -14.5351 C   0  0  0  0  0  0  0  0  0  0  0  0
   19.4370  -24.3479  -14.4371 C   0  0  2  0  0  0  0  0  0  0  0  0
   20.6849  -24.6781  -15.0418 N   0  0  0  0  0  0  0  0  0  0  0  0
   19.5225  -23.9941  -13.0198 C   0  0  0  0  0  0  0  0  0  0  0  0
   20.2802  -24.6282  -12.2579 O   0  0  0  0  0  0  0  0  0  0  0  0
   18.7710  -22.9599  -12.5063 O   0  0  0  0  0  0  0  0  0  0  0  0
  2  3  1  0
  2  1  1  6
  4  3  1  0
  5  6  1  0
  5  4  1  0
  6  7  1  0
  8  2  1  0
  8  9  2  0
 10 11  1  0
 11 12  2  0
 12 13  1  0
 14 13  2  0
 14 15  1  0
 16 15  1  1
 16 17  1  0
 17  8  1  0
 18 16  1  0
 19 18  2  0
 20 14  1  0
 21 11  1  0
 21 20  2  0
 23 22  1  1
 23 25  1  0
 23 24  1  0
 24 18  1  0
 25 27  1  0
 26 25  2  0
M  END
$$$$
