KYA.pdb
     RDKit          3D

 27 27  0  0  1  0  0  0  0  0999 V2000
   20.3001  -12.3465  -18.4107 N   0  0  0  0  0  0  0  0  0  0  0  0
   21.5561  -11.6512  -18.4223 C   0  0  1  0  0  0  0  0  0  0  0  0
   22.4153  -11.9789  -19.5825 C   0  0  0  0  0  0  0  0  0  0  0  0
   22.4418  -13.4122  -19.9916 C   0  0  0  0  0  0  0  0  0  0  0  0
   23.0998  -14.3049  -18.9848 C   0  0  0  0  0  0  0  0  0  0  0  0
   22.9613  -15.7774  -19.3967 C   0  0  0  0  0  0  0  0  0  0  0  0
   23.6623  -16.6123  -18.4450 N   0  0  0  0  0  0  0  0  0  0  0  0
   21.3891  -10.1861  -18.2120 C   0  0  0  0  0  0  0  0  0  0  0  0
   21.7265   -9.3444  -19.0982 O   0  0  0  0  0  0  0  0  0  0  0  0
   16.4369   -8.7232  -21.5365 O   0  0  0  0  0  0  0  0  0  0  0  0
   17.0980   -8.5543  -20.3377 C   0  0  0  0  0  0  0  0  0  0  0  0
   17.1378   -9.5602  -19.4164 C   0  0  0  0  0  0  0  0  0  0  0  0
   17.7922   -9.3841  -18.2370 C   0  0  0  0  0  0  0  0  0  0  0  0
   18.4139   -8.1882  -17.9764 C   0  0  0  0  0  0  0  0  0  0  0  0
   19.1322   -7.9356  -16.7280 C   0  0  0  0  0  0  0  0  0  0  0  0
   20.5878   -8.2143  -16.8347 C   0  0  2  0  0  0  0  0  0  0  0  0
   20.8457   -9.6466  -17.0147 N   0  0  0  0  0  0  0  0  0  0  0  0
   21.3294   -7.6576  -15.7179 C   0  0  0  0  0  0  0  0  0  0  0  0
   21.3942   -8.2531  -14.6244 O   0  0  0  0  0  0  0  0  0  0  0  0
   18.3836   -7.1514  -18.9044 C   0  0  0  0  0  0  0  0  0  0  0  0
   17.7175   -7.3522  -20.0868 C   0  0  0  0  0  0  0  0  0  0  0  0
   23.2875   -4.4649  -15.4114 C   0  0  0  0  0  0  0  0  0  0  0  0
   22.7596   -5.7783  -14.8214 C   0  0  2  0  0  0  0  0  0  0  0  0
   22.0006   -6.4190  -15.8439 N   0  0  0  0  0  0  0  0  0  0  0  0
   21.9951   -5.4318  -13.6228 C   0  0  0  0  0  0  0  0  0  0  0  0
   20.7797   -5.1634  -13.7079 O   0  0  0  0  0  0  0  0  0  0  0  0
   22.6024   -5.3966  -12.3867 O   0  0  0  0  0  0  0  0  0  0  0  0
  2  3  1  0
  2  1  1  6
  4  3  1  0
  5  6  1  0
  5  4  1  0
  6  7  1  0
  8  2  1  0
  8  9  2  0
 10 11  1  0
 11 12  2  0
 12 13  1  0
 14 13  2  0
 14 15  1  0
 16 15  1  1
 16 17  1  0
 17  8  1  0
 18 16  1  0
 19 18  2  0
 20 14  1  0
 21 11  1  0
 21 20  2  0
 23 22  1  6
 23 25  1  0
 23 24  1  0
 24 18  1  0
 25 27  1  0
 26 25  2  0
M  END
$$$$
