KYA.pdb
     RDKit          3D

 27 27  0  0  1  0  0  0  0  0999 V2000
   18.0991  -13.8910  -19.6514 N   0  0  0  0  0  0  0  0  0  0  0  0
   18.1098  -13.3955  -18.3040 C   0  0  1  0  0  0  0  0  0  0  0  0
   18.7799  -14.2943  -17.3372 C   0  0  0  0  0  0  0  0  0  0  0  0
   18.2747  -15.6961  -17.2897 C   0  0  0  0  0  0  0  0  0  0  0  0
   18.8866  -16.5109  -16.1919 C   0  0  0  0  0  0  0  0  0  0  0  0
   18.2892  -17.9251  -16.1719 C   0  0  0  0  0  0  0  0  0  0  0  0
   17.0256  -17.9048  -15.4670 N   0  0  0  0  0  0  0  0  0  0  0  0
   18.5914  -11.9882  -18.2268 C   0  0  0  0  0  0  0  0  0  0  0  0
   19.3392  -11.4911  -19.1219 O   0  0  0  0  0  0  0  0  0  0  0  0
   14.9800   -9.0542  -22.2378 O   0  0  0  0  0  0  0  0  0  0  0  0
   15.5999   -8.9813  -21.0077 C   0  0  0  0  0  0  0  0  0  0  0  0
   16.6904   -8.1818  -20.8237 C   0  0  0  0  0  0  0  0  0  0  0  0
   17.2950   -8.1165  -19.6069 C   0  0  0  0  0  0  0  0  0  0  0  0
   16.8030   -8.8595  -18.5625 C   0  0  0  0  0  0  0  0  0  0  0  0
   17.4080   -8.8346  -17.2315 C   0  0  0  0  0  0  0  0  0  0  0  0
   18.6089   -9.7033  -17.1286 C   0  0  2  0  0  0  0  0  0  0  0  0
   18.2448  -11.1236  -17.1534 N   0  0  0  0  0  0  0  0  0  0  0  0
   19.4256   -9.3646  -15.9773 C   0  0  0  0  0  0  0  0  0  0  0  0
   19.0700   -9.6676  -14.8212 O   0  0  0  0  0  0  0  0  0  0  0  0
   15.6919   -9.6803  -18.7322 C   0  0  0  0  0  0  0  0  0  0  0  0
   15.0989   -9.7299  -19.9683 C   0  0  0  0  0  0  0  0  0  0  0  0
   22.6830   -7.5071  -15.7352 C   0  0  0  0  0  0  0  0  0  0  0  0
   21.5082   -8.2479  -15.0848 C   0  0  2  0  0  0  0  0  0  0  0  0
   20.6518   -8.6787  -16.1398 N   0  0  0  0  0  0  0  0  0  0  0  0
   20.8885   -7.3195  -14.1387 C   0  0  0  0  0  0  0  0  0  0  0  0
   19.9499   -6.5830  -14.5037 O   0  0  0  0  0  0  0  0  0  0  0  0
   21.3294   -7.2440  -12.8357 O   0  0  0  0  0  0  0  0  0  0  0  0
  2  3  1  0
  2  1  1  6
  4  3  1  0
  5  6  1  0
  5  4  1  0
  6  7  1  0
  8  2  1  0
  8  9  2  0
 10 11  1  0
 11 12  2  0
 12 13  1  0
 14 13  2  0
 14 15  1  0
 16 15  1  1
 16 17  1  0
 17  8  1  0
 18 16  1  0
 19 18  2  0
 20 14  1  0
 21 11  1  0
 21 20  2  0
 23 22  1  6
 23 25  1  0
 23 24  1  0
 24 18  1  0
 25 27  1  0
 26 25  2  0
M  END
$$$$
