KYA.pdb
     RDKit          3D

 27 27  0  0  1  0  0  0  0  0999 V2000
   23.1426  -13.3170  -17.4972 N   0  0  0  0  0  0  0  0  0  0  0  0
   22.9959  -11.9693  -17.9694 C   0  0  1  0  0  0  0  0  0  0  0  0
   22.1600  -11.8446  -19.1849 C   0  0  0  0  0  0  0  0  0  0  0  0
   21.7325  -13.1248  -19.8179 C   0  0  0  0  0  0  0  0  0  0  0  0
   20.8897  -12.9302  -21.0407 C   0  0  0  0  0  0  0  0  0  0  0  0
   20.5267  -14.2839  -21.6675 C   0  0  0  0  0  0  0  0  0  0  0  0
   19.7353  -14.0667  -22.8593 N   0  0  0  0  0  0  0  0  0  0  0  0
   22.5930  -11.0338  -16.8827 C   0  0  0  0  0  0  0  0  0  0  0  0
   21.8707  -11.4135  -15.9122 O   0  0  0  0  0  0  0  0  0  0  0  0
   28.5461  -10.5885  -16.4232 O   0  0  0  0  0  0  0  0  0  0  0  0
   27.3425  -10.0056  -16.0851 C   0  0  0  0  0  0  0  0  0  0  0  0
   26.8218   -8.9948  -16.8397 C   0  0  0  0  0  0  0  0  0  0  0  0
   25.6342   -8.4263  -16.4983 C   0  0  0  0  0  0  0  0  0  0  0  0
   24.9599   -8.8740  -15.3894 C   0  0  0  0  0  0  0  0  0  0  0  0
   23.6808   -8.3041  -14.9686 C   0  0  0  0  0  0  0  0  0  0  0  0
   22.5498   -8.7256  -15.8351 C   0  0  2  0  0  0  0  0  0  0  0  0
   22.9904   -9.6694  -16.8674 N   0  0  0  0  0  0  0  0  0  0  0  0
   21.8429   -7.5881  -16.3951 C   0  0  0  0  0  0  0  0  0  0  0  0
   22.2795   -6.9846  -17.3950 O   0  0  0  0  0  0  0  0  0  0  0  0
   25.4761   -9.9038  -14.6083 C   0  0  0  0  0  0  0  0  0  0  0  0
   26.6754  -10.4618  -14.9722 C   0  0  0  0  0  0  0  0  0  0  0  0
   18.6813   -6.5239  -17.0307 C   0  0  0  0  0  0  0  0  0  0  0  0
   19.8865   -5.9976  -16.2417 C   0  0  2  0  0  0  0  0  0  0  0  0
   20.6348   -7.1340  -15.8166 N   0  0  0  0  0  0  0  0  0  0  0  0
   19.3583   -5.1749  -15.1529 C   0  0  0  0  0  0  0  0  0  0  0  0
   19.1528   -5.6759  -14.0289 O   0  0  0  0  0  0  0  0  0  0  0  0
   19.0809   -3.8400  -15.3506 O   0  0  0  0  0  0  0  0  0  0  0  0
  2  3  1  0
  2  1  1  1
  4  3  1  0
  5  6  1  0
  5  4  1  0
  6  7  1  0
  8  2  1  0
  8  9  2  0
 10 11  1  0
 11 12  2  0
 12 13  1  0
 14 13  2  0
 14 15  1  0
 16 15  1  6
 16 17  1  0
 17  8  1  0
 18 16  1  0
 19 18  2  0
 20 14  1  0
 21 11  1  0
 21 20  2  0
 23 22  1  1
 23 25  1  0
 23 24  1  0
 24 18  1  0
 25 27  1  0
 26 25  2  0
M  END
$$$$
