KYA.pdb
     RDKit          3D

 27 27  0  0  1  0  0  0  0  0999 V2000
   27.8983  -22.2635  -17.4615 N   0  0  0  0  0  0  0  0  0  0  0  0
   26.7200  -23.0149  -17.1330 C   0  0  1  0  0  0  0  0  0  0  0  0
   26.9982  -24.3427  -16.5404 C   0  0  0  0  0  0  0  0  0  0  0  0
   27.7123  -25.3133  -17.4182 C   0  0  0  0  0  0  0  0  0  0  0  0
   28.6344  -26.2249  -16.6684 C   0  0  0  0  0  0  0  0  0  0  0  0
   28.0440  -27.6397  -16.5838 C   0  0  0  0  0  0  0  0  0  0  0  0
   29.0781  -28.5708  -16.1869 N   0  0  0  0  0  0  0  0  0  0  0  0
   25.7445  -22.2133  -16.3429 C   0  0  0  0  0  0  0  0  0  0  0  0
   24.6562  -22.7129  -15.9262 O   0  0  0  0  0  0  0  0  0  0  0  0
   27.0502  -21.9094   -9.5621 O   0  0  0  0  0  0  0  0  0  0  0  0
   26.7496  -21.2396  -10.7299 C   0  0  0  0  0  0  0  0  0  0  0  0
   27.7053  -21.0380  -11.6830 C   0  0  0  0  0  0  0  0  0  0  0  0
   27.3993  -20.3763  -12.8314 C   0  0  0  0  0  0  0  0  0  0  0  0
   26.1227  -19.9111  -13.0285 C   0  0  0  0  0  0  0  0  0  0  0  0
   25.7306  -19.1917  -14.2396 C   0  0  0  0  0  0  0  0  0  0  0  0
   25.0256  -20.0569  -15.2204 C   0  0  2  0  0  0  0  0  0  0  0  0
   25.9723  -20.8505  -16.0105 N   0  0  0  0  0  0  0  0  0  0  0  0
   24.1130  -19.2972  -16.0555 C   0  0  0  0  0  0  0  0  0  0  0  0
   24.5363  -18.5148  -16.9292 O   0  0  0  0  0  0  0  0  0  0  0  0
   25.1356  -20.1077  -12.0673 C   0  0  0  0  0  0  0  0  0  0  0  0
   25.4677  -20.7777  -10.9171 C   0  0  0  0  0  0  0  0  0  0  0  0
   20.4955  -19.5742  -16.7467 C   0  0  0  0  0  0  0  0  0  0  0  0
   21.7258  -18.6713  -16.5944 C   0  0  2  0  0  0  0  0  0  0  0  0
   22.7135  -19.4269  -15.8976 N   0  0  0  0  0  0  0  0  0  0  0  0
   21.2845  -17.4607  -15.9010 C   0  0  0  0  0  0  0  0  0  0  0  0
   21.3929  -17.3712  -14.6614 O   0  0  0  0  0  0  0  0  0  0  0  0
   20.7448  -16.4052  -16.6028 O   0  0  0  0  0  0  0  0  0  0  0  0
  2  3  1  0
  2  1  1  1
  4  3  1  0
  5  6  1  0
  5  4  1  0
  6  7  1  0
  8  2  1  0
  8  9  2  0
 10 11  1  0
 11 12  2  0
 12 13  1  0
 14 13  2  0
 14 15  1  0
 16 15  1  6
 16 17  1  0
 17  8  1  0
 18 16  1  0
 19 18  2  0
 20 14  1  0
 21 11  1  0
 21 20  2  0
 23 22  1  1
 23 25  1  0
 23 24  1  0
 24 18  1  0
 25 27  1  0
 26 25  2  0
M  END
$$$$
