KYA.pdb
     RDKit          3D

 27 27  0  0  1  0  0  0  0  0999 V2000
   21.2038  -36.0070   -9.5204 N   0  0  0  0  0  0  0  0  0  0  0  0
   22.5124  -36.5883   -9.4168 C   0  0  1  0  0  0  0  0  0  0  0  0
   23.4028  -36.2743  -10.5571 C   0  0  0  0  0  0  0  0  0  0  0  0
   23.3524  -37.2230  -11.7059 C   0  0  0  0  0  0  0  0  0  0  0  0
   24.3324  -38.3496  -11.5891 C   0  0  0  0  0  0  0  0  0  0  0  0
   24.3271  -39.2043  -12.8645 C   0  0  0  0  0  0  0  0  0  0  0  0
   25.2192  -40.3308  -12.6937 N   0  0  0  0  0  0  0  0  0  0  0  0
   23.1412  -36.3246   -8.0925 C   0  0  0  0  0  0  0  0  0  0  0  0
   24.2681  -36.8158   -7.7819 O   0  0  0  0  0  0  0  0  0  0  0  0
   27.4507  -32.1440   -9.3244 O   0  0  0  0  0  0  0  0  0  0  0  0
   26.4440  -32.5215   -8.4602 C   0  0  0  0  0  0  0  0  0  0  0  0
   25.1360  -32.2847   -8.7687 C   0  0  0  0  0  0  0  0  0  0  0  0
   24.1502  -32.6607   -7.9101 C   0  0  0  0  0  0  0  0  0  0  0  0
   24.4768  -33.2806   -6.7295 C   0  0  0  0  0  0  0  0  0  0  0  0
   23.4650  -33.7077   -5.7642 C   0  0  0  0  0  0  0  0  0  0  0  0
   23.1754  -35.1630   -5.8394 C   0  0  2  0  0  0  0  0  0  0  0  0
   22.5211  -35.5130   -7.1043 N   0  0  0  0  0  0  0  0  0  0  0  0
   22.4264  -35.6269   -4.6857 C   0  0  0  0  0  0  0  0  0  0  0  0
   21.1800  -35.6579   -4.6944 O   0  0  0  0  0  0  0  0  0  0  0  0
   25.8055  -33.5301   -6.3986 C   0  0  0  0  0  0  0  0  0  0  0  0
   26.7823  -33.1418   -7.2802 C   0  0  0  0  0  0  0  0  0  0  0  0
   23.5264  -37.2138   -1.4820 C   0  0  0  0  0  0  0  0  0  0  0  0
   22.4694  -36.4651   -2.3031 C   0  0  2  0  0  0  0  0  0  0  0  0
   23.0963  -36.0575   -3.5168 N   0  0  0  0  0  0  0  0  0  0  0  0
   21.9820  -35.3648   -1.4708 C   0  0  0  0  0  0  0  0  0  0  0  0
   22.2334  -34.1827   -1.7807 O   0  0  0  0  0  0  0  0  0  0  0  0
   21.2409  -35.6153   -0.3368 O   0  0  0  0  0  0  0  0  0  0  0  0
  2  3  1  0
  2  1  1  6
  4  3  1  0
  5  6  1  0
  5  4  1  0
  6  7  1  0
  8  2  1  0
  8  9  2  0
 10 11  1  0
 11 12  2  0
 12 13  1  0
 14 13  2  0
 14 15  1  0
 16 15  1  1
 16 17  1  0
 17  8  1  0
 18 16  1  0
 19 18  2  0
 20 14  1  0
 21 11  1  0
 21 20  2  0
 23 22  1  1
 23 25  1  0
 23 24  1  0
 24 18  1  0
 25 27  1  0
 26 25  2  0
M  END
$$$$
