KYA.pdb
     RDKit          3D

 27 27  0  0  1  0  0  0  0  0999 V2000
   28.2760  -20.2129  -19.6169 N   0  0  0  0  0  0  0  0  0  0  0  0
   27.8678  -19.2609  -18.6227 C   0  0  1  0  0  0  0  0  0  0  0  0
   26.9663  -18.2043  -19.1350 C   0  0  0  0  0  0  0  0  0  0  0  0
   27.5124  -17.3545  -20.2314 C   0  0  0  0  0  0  0  0  0  0  0  0
   26.9978  -17.7309  -21.5868 C   0  0  0  0  0  0  0  0  0  0  0  0
   27.5224  -16.7585  -22.6527 C   0  0  0  0  0  0  0  0  0  0  0  0
   28.9618  -16.8756  -22.7456 N   0  0  0  0  0  0  0  0  0  0  0  0
   27.3557  -19.9210  -17.3896 C   0  0  0  0  0  0  0  0  0  0  0  0
   26.6427  -20.9681  -17.4429 O   0  0  0  0  0  0  0  0  0  0  0  0
   25.2761  -21.4565   -9.0256 O   0  0  0  0  0  0  0  0  0  0  0  0
   25.8608  -20.9480  -10.1668 C   0  0  0  0  0  0  0  0  0  0  0  0
   25.6544  -19.6507  -10.5364 C   0  0  0  0  0  0  0  0  0  0  0  0
   26.2353  -19.1583  -11.6635 C   0  0  0  0  0  0  0  0  0  0  0  0
   27.0319  -19.9730  -12.4293 C   0  0  0  0  0  0  0  0  0  0  0  0
   27.6834  -19.5050  -13.6519 C   0  0  0  0  0  0  0  0  0  0  0  0
   26.9714  -19.9330  -14.8838 C   0  0  2  0  0  0  0  0  0  0  0  0
   27.6328  -19.4212  -16.0883 N   0  0  0  0  0  0  0  0  0  0  0  0
   25.5616  -19.5895  -14.8419 C   0  0  0  0  0  0  0  0  0  0  0  0
   25.1817  -18.4063  -14.9432 O   0  0  0  0  0  0  0  0  0  0  0  0
   27.2534  -21.2985  -12.0675 C   0  0  0  0  0  0  0  0  0  0  0  0
   26.6569  -21.7728  -10.9267 C   0  0  0  0  0  0  0  0  0  0  0  0
   22.4698  -21.3121  -15.5200 C   0  0  0  0  0  0  0  0  0  0  0  0
   23.1788  -20.3710  -14.5383 C   0  0  2  0  0  0  0  0  0  0  0  0
   24.5790  -20.5946  -14.6843 N   0  0  0  0  0  0  0  0  0  0  0  0
   22.6510  -20.6666  -13.2059 C   0  0  0  0  0  0  0  0  0  0  0  0
   23.2351  -21.4831  -12.4652 O   0  0  0  0  0  0  0  0  0  0  0  0
   21.5060  -20.0509  -12.7502 O   0  0  0  0  0  0  0  0  0  0  0  0
  2  3  1  0
  2  1  1  6
  4  3  1  0
  5  6  1  0
  5  4  1  0
  6  7  1  0
  8  2  1  0
  8  9  2  0
 10 11  1  0
 11 12  2  0
 12 13  1  0
 14 13  2  0
 14 15  1  0
 16 15  1  1
 16 17  1  0
 17  8  1  0
 18 16  1  0
 19 18  2  0
 20 14  1  0
 21 11  1  0
 21 20  2  0
 23 22  1  6
 23 25  1  0
 23 24  1  0
 24 18  1  0
 25 27  1  0
 26 25  2  0
M  END
$$$$
