KYA.pdb
     RDKit          3D

 27 27  0  0  1  0  0  0  0  0999 V2000
   25.5720  -20.2383  -19.2651 N   0  0  0  0  0  0  0  0  0  0  0  0
   25.9397  -19.5163  -18.0800 C   0  0  1  0  0  0  0  0  0  0  0  0
   27.1116  -18.6287  -18.2548 C   0  0  0  0  0  0  0  0  0  0  0  0
   28.3018  -19.2400  -18.9121 C   0  0  0  0  0  0  0  0  0  0  0  0
   29.4718  -18.3094  -19.0055 C   0  0  0  0  0  0  0  0  0  0  0  0
   30.6890  -19.0305  -19.6019 C   0  0  0  0  0  0  0  0  0  0  0  0
   31.7688  -18.0844  -19.7831 N   0  0  0  0  0  0  0  0  0  0  0  0
   24.7741  -18.8315  -17.4548 C   0  0  0  0  0  0  0  0  0  0  0  0
   24.6131  -17.5771  -17.5447 O   0  0  0  0  0  0  0  0  0  0  0  0
   23.4674  -13.5892  -19.4354 O   0  0  0  0  0  0  0  0  0  0  0  0
   23.0338  -14.7926  -18.9190 C   0  0  0  0  0  0  0  0  0  0  0  0
   23.0797  -15.9303  -19.6712 C   0  0  0  0  0  0  0  0  0  0  0  0
   22.6499  -17.1123  -19.1533 C   0  0  0  0  0  0  0  0  0  0  0  0
   22.1688  -17.1566  -17.8682 C   0  0  0  0  0  0  0  0  0  0  0  0
   21.6908  -18.3946  -17.2541 C   0  0  0  0  0  0  0  0  0  0  0  0
   22.5865  -18.8850  -16.1748 C   0  0  2  0  0  0  0  0  0  0  0  0
   23.7791  -19.5369  -16.7251 N   0  0  0  0  0  0  0  0  0  0  0  0
   21.8825  -19.7328  -15.2299 C   0  0  0  0  0  0  0  0  0  0  0  0
   21.6101  -20.9183  -15.5040 O   0  0  0  0  0  0  0  0  0  0  0  0
   22.1148  -16.0062  -17.0867 C   0  0  0  0  0  0  0  0  0  0  0  0
   22.5538  -14.8257  -17.6306 C   0  0  0  0  0  0  0  0  0  0  0  0
   20.5589  -19.0135  -11.7875 C   0  0  0  0  0  0  0  0  0  0  0  0
   20.8430  -19.9830  -12.9413 C   0  0  2  0  0  0  0  0  0  0  0  0
   21.4862  -19.2319  -13.9680 N   0  0  0  0  0  0  0  0  0  0  0  0
   19.5613  -20.5720  -13.3303 C   0  0  0  0  0  0  0  0  0  0  0  0
   18.9607  -20.1585  -14.3427 O   0  0  0  0  0  0  0  0  0  0  0  0
   18.9996  -21.5878  -12.5883 O   0  0  0  0  0  0  0  0  0  0  0  0
  2  3  1  0
  2  1  1  6
  4  3  1  0
  5  6  1  0
  5  4  1  0
  6  7  1  0
  8  2  1  0
  8  9  2  0
 10 11  1  0
 11 12  2  0
 12 13  1  0
 14 13  2  0
 14 15  1  0
 16 15  1  6
 16 17  1  0
 17  8  1  0
 18 16  1  0
 19 18  2  0
 20 14  1  0
 21 11  1  0
 21 20  2  0
 23 22  1  1
 23 25  1  0
 23 24  1  0
 24 18  1  0
 25 27  1  0
 26 25  2  0
M  END
$$$$
