KYA.pdb
     RDKit          3D

 27 27  0  0  1  0  0  0  0  0999 V2000
   22.6919   -8.9797  -20.1817 N   0  0  0  0  0  0  0  0  0  0  0  0
   21.5428   -9.5017  -19.4976 C   0  0  1  0  0  0  0  0  0  0  0  0
   21.7414  -10.8559  -18.9335 C   0  0  0  0  0  0  0  0  0  0  0  0
   21.9357  -11.9539  -19.9231 C   0  0  0  0  0  0  0  0  0  0  0  0
   22.0175  -13.3114  -19.2954 C   0  0  0  0  0  0  0  0  0  0  0  0
   22.1335  -14.3985  -20.3732 C   0  0  0  0  0  0  0  0  0  0  0  0
   22.0326  -15.7030  -19.7551 N   0  0  0  0  0  0  0  0  0  0  0  0
   20.9869   -8.5324  -18.5126 C   0  0  0  0  0  0  0  0  0  0  0  0
   19.9581   -8.8020  -17.8224 O   0  0  0  0  0  0  0  0  0  0  0  0
   22.8877  -10.5129  -12.9143 O   0  0  0  0  0  0  0  0  0  0  0  0
   22.7220   -9.4258  -13.7470 C   0  0  0  0  0  0  0  0  0  0  0  0
   23.6069   -9.1803  -14.7564 C   0  0  0  0  0  0  0  0  0  0  0  0
   23.4351   -8.1056  -15.5724 C   0  0  0  0  0  0  0  0  0  0  0  0
   22.3659   -7.2671  -15.3763 C   0  0  0  0  0  0  0  0  0  0  0  0
   22.1264   -6.0952  -16.2173 C   0  0  0  0  0  0  0  0  0  0  0  0
   21.0904   -6.3335  -17.2553 C   0  0  2  0  0  0  0  0  0  0  0  0
   21.5713   -7.2565  -18.2883 N   0  0  0  0  0  0  0  0  0  0  0  0
   20.5899   -5.0918  -17.8166 C   0  0  0  0  0  0  0  0  0  0  0  0
   21.2628   -4.4356  -18.6359 O   0  0  0  0  0  0  0  0  0  0  0  0
   21.4537   -7.5021  -14.3519 C   0  0  0  0  0  0  0  0  0  0  0  0
   21.6475   -8.5921  -13.5416 C   0  0  0  0  0  0  0  0  0  0  0  0
   17.3208   -3.3077  -17.3229 C   0  0  0  0  0  0  0  0  0  0  0  0
   18.7330   -3.3822  -17.9162 C   0  0  2  0  0  0  0  0  0  0  0  0
   19.3194   -4.5932  -17.4456 N   0  0  0  0  0  0  0  0  0  0  0  0
   19.4346   -2.1661  -17.5040 C   0  0  0  0  0  0  0  0  0  0  0  0
   20.1416   -2.1658  -16.4760 O   0  0  0  0  0  0  0  0  0  0  0  0
   19.3263   -1.0072  -18.2410 O   0  0  0  0  0  0  0  0  0  0  0  0
  2  3  1  0
  2  1  1  1
  4  3  1  0
  5  6  1  0
  5  4  1  0
  6  7  1  0
  8  2  1  0
  8  9  2  0
 10 11  1  0
 11 12  2  0
 12 13  1  0
 14 13  2  0
 14 15  1  0
 16 15  1  1
 16 17  1  0
 17  8  1  0
 18 16  1  0
 19 18  2  0
 20 14  1  0
 21 11  1  0
 21 20  2  0
 23 22  1  1
 23 25  1  0
 23 24  1  0
 24 18  1  0
 25 27  1  0
 26 25  2  0
M  END
$$$$
