KYA.pdb
     RDKit          3D

 27 27  0  0  1  0  0  0  0  0999 V2000
   25.7020  -19.6815  -18.8390 N   0  0  0  0  0  0  0  0  0  0  0  0
   25.2477  -19.8346  -17.4858 C   0  0  1  0  0  0  0  0  0  0  0  0
   26.0696  -19.1115  -16.4892 C   0  0  0  0  0  0  0  0  0  0  0  0
   27.5014  -19.5178  -16.4048 C   0  0  0  0  0  0  0  0  0  0  0  0
   27.7075  -20.9961  -16.5294 C   0  0  0  0  0  0  0  0  0  0  0  0
   29.2025  -21.3400  -16.4677 C   0  0  0  0  0  0  0  0  0  0  0  0
   29.3680  -22.7774  -16.4895 N   0  0  0  0  0  0  0  0  0  0  0  0
   23.7892  -19.5651  -17.3489 C   0  0  0  0  0  0  0  0  0  0  0  0
   23.2251  -18.6214  -17.9807 O   0  0  0  0  0  0  0  0  0  0  0  0
   21.0837  -22.5559  -22.2430 O   0  0  0  0  0  0  0  0  0  0  0  0
   20.9817  -22.2531  -20.9011 C   0  0  0  0  0  0  0  0  0  0  0  0
   19.9555  -21.4826  -20.4370 C   0  0  0  0  0  0  0  0  0  0  0  0
   19.8633  -21.1894  -19.1120 C   0  0  0  0  0  0  0  0  0  0  0  0
   20.8085  -21.6725  -18.2414 C   0  0  0  0  0  0  0  0  0  0  0  0
   20.7667  -21.3923  -16.8069 C   0  0  0  0  0  0  0  0  0  0  0  0
   21.4955  -20.1501  -16.4414 C   0  0  2  0  0  0  0  0  0  0  0  0
   22.9475  -20.3430  -16.5085 N   0  0  0  0  0  0  0  0  0  0  0  0
   21.0683  -19.6297  -15.1554 C   0  0  0  0  0  0  0  0  0  0  0  0
   21.5002  -20.1093  -14.0886 O   0  0  0  0  0  0  0  0  0  0  0  0
   21.8619  -22.4598  -18.6971 C   0  0  0  0  0  0  0  0  0  0  0  0
   21.9341  -22.7422  -20.0377 C   0  0  0  0  0  0  0  0  0  0  0  0
   18.6935  -16.8483  -14.2918 C   0  0  0  0  0  0  0  0  0  0  0  0
   19.6406  -17.9819  -13.8797 C   0  0  2  0  0  0  0  0  0  0  0  0
   20.1464  -18.5596  -15.0807 N   0  0  0  0  0  0  0  0  0  0  0  0
   18.8691  -18.8998  -13.0409 C   0  0  0  0  0  0  0  0  0  0  0  0
   18.3383  -19.9124  -13.5402 O   0  0  0  0  0  0  0  0  0  0  0  0
   18.7174  -18.6616  -11.6925 O   0  0  0  0  0  0  0  0  0  0  0  0
  2  3  1  0
  2  1  1  6
  4  3  1  0
  5  6  1  0
  5  4  1  0
  6  7  1  0
  8  2  1  0
  8  9  2  0
 10 11  1  0
 11 12  2  0
 12 13  1  0
 14 13  2  0
 14 15  1  0
 16 15  1  1
 16 17  1  0
 17  8  1  0
 18 16  1  0
 19 18  2  0
 20 14  1  0
 21 11  1  0
 21 20  2  0
 23 22  1  6
 23 25  1  0
 23 24  1  0
 24 18  1  0
 25 27  1  0
 26 25  2  0
M  END
$$$$
