KYA.pdb
     RDKit          3D

 27 27  0  0  1  0  0  0  0  0999 V2000
   35.1004  -29.5352  -20.4159 N   0  0  0  0  0  0  0  0  0  0  0  0
   35.0387  -30.9614  -20.5677 C   0  0  1  0  0  0  0  0  0  0  0  0
   36.3194  -31.6520  -20.2945 C   0  0  0  0  0  0  0  0  0  0  0  0
   37.4225  -31.3898  -21.2625 C   0  0  0  0  0  0  0  0  0  0  0  0
   37.2061  -32.0329  -22.5978 C   0  0  0  0  0  0  0  0  0  0  0  0
   38.4468  -32.8331  -23.0191 C   0  0  0  0  0  0  0  0  0  0  0  0
   38.2216  -33.4215  -24.3218 N   0  0  0  0  0  0  0  0  0  0  0  0
   33.8852  -31.5550  -19.8359 C   0  0  0  0  0  0  0  0  0  0  0  0
   33.7107  -32.8094  -19.7748 O   0  0  0  0  0  0  0  0  0  0  0  0
   27.5004  -33.1685  -14.2270 O   0  0  0  0  0  0  0  0  0  0  0  0
   28.5000  -32.5489  -14.9478 C   0  0  0  0  0  0  0  0  0  0  0  0
   28.2695  -31.3613  -15.5794 C   0  0  0  0  0  0  0  0  0  0  0  0
   29.2616  -30.7579  -16.2879 C   0  0  0  0  0  0  0  0  0  0  0  0
   30.4982  -31.3492  -16.3653 C   0  0  0  0  0  0  0  0  0  0  0  0
   31.6052  -30.7527  -17.1116 C   0  0  0  0  0  0  0  0  0  0  0  0
   31.7603  -31.3306  -18.4716 C   0  0  2  0  0  0  0  0  0  0  0  0
   32.9174  -30.7578  -19.1668 N   0  0  0  0  0  0  0  0  0  0  0  0
   30.5401  -31.2194  -19.2500 C   0  0  0  0  0  0  0  0  0  0  0  0
   30.1318  -30.1138  -19.6568 O   0  0  0  0  0  0  0  0  0  0  0  0
   30.7510  -32.5601  -15.7275 C   0  0  0  0  0  0  0  0  0  0  0  0
   29.7350  -33.1499  -15.0189 C   0  0  0  0  0  0  0  0  0  0  0  0
   27.9285  -33.7421  -20.1580 C   0  0  0  0  0  0  0  0  0  0  0  0
   28.6220  -32.3955  -20.3983 C   0  0  2  0  0  0  0  0  0  0  0  0
   29.7803  -32.3693  -19.5679 N   0  0  0  0  0  0  0  0  0  0  0  0
   27.6399  -31.3508  -20.1060 C   0  0  0  0  0  0  0  0  0  0  0  0
   27.0451  -30.7691  -21.0357 O   0  0  0  0  0  0  0  0  0  0  0  0
   27.3577  -30.9944  -18.8055 O   0  0  0  0  0  0  0  0  0  0  0  0
  2  3  1  0
  2  1  1  1
  4  3  1  0
  5  6  1  0
  5  4  1  0
  6  7  1  0
  8  2  1  0
  8  9  2  0
 10 11  1  0
 11 12  2  0
 12 13  1  0
 14 13  2  0
 14 15  1  0
 16 15  1  1
 16 17  1  0
 17  8  1  0
 18 16  1  0
 19 18  2  0
 20 14  1  0
 21 11  1  0
 21 20  2  0
 23 22  1  1
 23 25  1  0
 23 24  1  0
 24 18  1  0
 25 27  1  0
 26 25  2  0
M  END
$$$$
