KYA.pdb
     RDKit          3D

 27 27  0  0  1  0  0  0  0  0999 V2000
   28.4297  -21.4911  -18.0308 N   0  0  0  0  0  0  0  0  0  0  0  0
   27.3376  -22.4144  -17.9046 C   0  0  1  0  0  0  0  0  0  0  0  0
   27.6810  -23.8070  -18.2712 C   0  0  0  0  0  0  0  0  0  0  0  0
   28.9656  -23.9916  -19.0048 C   0  0  0  0  0  0  0  0  0  0  0  0
   28.7825  -24.4777  -20.4097 C   0  0  0  0  0  0  0  0  0  0  0  0
   29.7141  -25.6638  -20.6965 C   0  0  0  0  0  0  0  0  0  0  0  0
   29.4527  -26.1717  -22.0261 N   0  0  0  0  0  0  0  0  0  0  0  0
   26.6605  -22.3065  -16.5824 C   0  0  0  0  0  0  0  0  0  0  0  0
   25.5942  -22.9434  -16.3274 O   0  0  0  0  0  0  0  0  0  0  0  0
   24.8792  -20.1957   -8.2602 O   0  0  0  0  0  0  0  0  0  0  0  0
   25.4958  -20.3704   -9.4817 C   0  0  0  0  0  0  0  0  0  0  0  0
   25.8464  -21.6168   -9.9129 C   0  0  0  0  0  0  0  0  0  0  0  0
   26.4541  -21.7791  -11.1190 C   0  0  0  0  0  0  0  0  0  0  0  0
   26.7140  -20.6821  -11.9025 C   0  0  0  0  0  0  0  0  0  0  0  0
   27.3653  -20.7893  -13.2072 C   0  0  0  0  0  0  0  0  0  0  0  0
   26.4551  -21.2994  -14.2650 C   0  0  2  0  0  0  0  0  0  0  0  0
   27.1643  -21.4895  -15.5342 N   0  0  0  0  0  0  0  0  0  0  0  0
   25.2757  -20.4661  -14.4130 C   0  0  0  0  0  0  0  0  0  0  0  0
   25.3476  -19.3288  -14.9191 O   0  0  0  0  0  0  0  0  0  0  0  0
   26.3634  -19.4037  -11.4785 C   0  0  0  0  0  0  0  0  0  0  0  0
   25.7515  -19.2647  -10.2585 C   0  0  0  0  0  0  0  0  0  0  0  0
   22.1273  -20.4217  -15.3506 C   0  0  0  0  0  0  0  0  0  0  0  0
   22.8020  -20.1683  -13.9969 C   0  0  2  0  0  0  0  0  0  0  0  0
   24.0089  -20.9267  -13.9845 N   0  0  0  0  0  0  0  0  0  0  0  0
   21.8377  -20.5424  -12.9619 C   0  0  0  0  0  0  0  0  0  0  0  0
   20.8071  -19.8613  -12.7869 O   0  0  0  0  0  0  0  0  0  0  0  0
   22.0512  -21.6477  -12.1677 O   0  0  0  0  0  0  0  0  0  0  0  0
  2  3  1  0
  2  1  1  1
  4  3  1  0
  5  6  1  0
  5  4  1  0
  6  7  1  0
  8  2  1  0
  8  9  2  0
 10 11  1  0
 11 12  2  0
 12 13  1  0
 14 13  2  0
 14 15  1  0
 16 15  1  1
 16 17  1  0
 17  8  1  0
 18 16  1  0
 19 18  2  0
 20 14  1  0
 21 11  1  0
 21 20  2  0
 23 22  1  6
 23 25  1  0
 23 24  1  0
 24 18  1  0
 25 27  1  0
 26 25  2  0
M  END
$$$$
