KYA.pdb
     RDKit          3D

 27 27  0  0  1  0  0  0  0  0999 V2000
   31.4960  -10.4242  -22.6675 N   0  0  0  0  0  0  0  0  0  0  0  0
   30.9039  -11.3504  -21.7442 C   0  0  1  0  0  0  0  0  0  0  0  0
   31.8875  -12.1319  -20.9610 C   0  0  0  0  0  0  0  0  0  0  0  0
   32.7533  -13.0616  -21.7411 C   0  0  0  0  0  0  0  0  0  0  0  0
   33.7456  -13.7991  -20.8956 C   0  0  0  0  0  0  0  0  0  0  0  0
   34.6209  -14.7137  -21.7641 C   0  0  0  0  0  0  0  0  0  0  0  0
   35.4919  -15.4966  -20.9141 N   0  0  0  0  0  0  0  0  0  0  0  0
   29.8578  -10.7101  -20.8991 C   0  0  0  0  0  0  0  0  0  0  0  0
   29.2139  -11.3669  -20.0264 O   0  0  0  0  0  0  0  0  0  0  0  0
   33.3253   -9.9522  -16.2053 O   0  0  0  0  0  0  0  0  0  0  0  0
   32.2935   -9.4041  -16.9385 C   0  0  0  0  0  0  0  0  0  0  0  0
   30.9945   -9.6078  -16.5731 C   0  0  0  0  0  0  0  0  0  0  0  0
   29.9838   -9.0631  -17.3025 C   0  0  0  0  0  0  0  0  0  0  0  0
   30.2759   -8.3062  -18.4099 C   0  0  0  0  0  0  0  0  0  0  0  0
   29.2359   -7.6949  -19.2362 C   0  0  0  0  0  0  0  0  0  0  0  0
   28.5610   -8.6725  -20.1288 C   0  0  2  0  0  0  0  0  0  0  0  0
   29.5204   -9.3347  -21.0184 N   0  0  0  0  0  0  0  0  0  0  0  0
   27.4596   -8.0702  -20.8578 C   0  0  0  0  0  0  0  0  0  0  0  0
   27.6071   -7.6550  -22.0242 O   0  0  0  0  0  0  0  0  0  0  0  0
   31.5948   -8.0881  -18.7972 C   0  0  0  0  0  0  0  0  0  0  0  0
   32.5973   -8.6475  -18.0461 C   0  0  0  0  0  0  0  0  0  0  0  0
   23.8829   -7.4821  -19.8666 C   0  0  0  0  0  0  0  0  0  0  0  0
   25.0276   -7.3877  -20.8828 C   0  0  2  0  0  0  0  0  0  0  0  0
   26.1849   -7.9389  -20.2591 N   0  0  0  0  0  0  0  0  0  0  0  0
   25.1513   -5.9787  -21.2578 C   0  0  0  0  0  0  0  0  0  0  0  0
   26.0965   -5.2921  -20.8199 O   0  0  0  0  0  0  0  0  0  0  0  0
   24.2302   -5.3904  -22.0965 O   0  0  0  0  0  0  0  0  0  0  0  0
  2  3  1  0
  2  1  1  1
  4  3  1  0
  5  6  1  0
  5  4  1  0
  6  7  1  0
  8  2  1  0
  8  9  2  0
 10 11  1  0
 11 12  2  0
 12 13  1  0
 14 13  2  0
 14 15  1  0
 16 15  1  6
 16 17  1  0
 17  8  1  0
 18 16  1  0
 19 18  2  0
 20 14  1  0
 21 11  1  0
 21 20  2  0
 23 22  1  1
 23 25  1  0
 23 24  1  0
 24 18  1  0
 25 27  1  0
 26 25  2  0
M  END
$$$$
