KYA.pdb
     RDKit          3D

 27 27  0  0  1  0  0  0  0  0999 V2000
   25.2538  -20.1602  -14.7091 N   0  0  0  0  0  0  0  0  0  0  0  0
   26.3284  -20.3988  -13.7874 C   0  0  1  0  0  0  0  0  0  0  0  0
   27.6342  -19.8619  -14.2329 C   0  0  0  0  0  0  0  0  0  0  0  0
   28.1649  -20.4129  -15.5124 C   0  0  0  0  0  0  0  0  0  0  0  0
   28.9186  -21.6957  -15.3392 C   0  0  0  0  0  0  0  0  0  0  0  0
   29.6100  -22.0970  -16.6499 C   0  0  0  0  0  0  0  0  0  0  0  0
   30.3801  -23.3038  -16.4390 N   0  0  0  0  0  0  0  0  0  0  0  0
   25.9747  -20.0002  -12.3966 C   0  0  0  0  0  0  0  0  0  0  0  0
   25.4804  -18.8619  -12.1363 O   0  0  0  0  0  0  0  0  0  0  0  0
   19.8366  -19.9766  -11.6316 O   0  0  0  0  0  0  0  0  0  0  0  0
   21.0482  -20.2762  -11.0444 C   0  0  0  0  0  0  0  0  0  0  0  0
   21.4483  -19.6362   -9.9074 C   0  0  0  0  0  0  0  0  0  0  0  0
   22.6450  -19.9385   -9.3356 C   0  0  0  0  0  0  0  0  0  0  0  0
   23.4504  -20.8918   -9.9077 C   0  0  0  0  0  0  0  0  0  0  0  0
   24.7478  -21.2610   -9.3432 C   0  0  0  0  0  0  0  0  0  0  0  0
   25.8684  -20.4646   -9.9066 C   0  0  2  0  0  0  0  0  0  0  0  0
   26.1682  -20.8646  -11.2851 N   0  0  0  0  0  0  0  0  0  0  0  0
   27.0430  -20.5036   -9.0545 C   0  0  0  0  0  0  0  0  0  0  0  0
   27.8033  -21.4918   -9.0471 O   0  0  0  0  0  0  0  0  0  0  0  0
   23.0583  -21.5544  -11.0671 C   0  0  0  0  0  0  0  0  0  0  0  0
   21.8473  -21.2328  -11.6258 C   0  0  0  0  0  0  0  0  0  0  0  0
   28.4461  -17.9944   -6.6405 C   0  0  0  0  0  0  0  0  0  0  0  0
   28.3082  -19.4354   -7.1468 C   0  0  2  0  0  0  0  0  0  0  0  0
   27.3554  -19.4153   -8.2069 N   0  0  0  0  0  0  0  0  0  0  0  0
   27.9237  -20.2571   -5.9987 C   0  0  0  0  0  0  0  0  0  0  0  0
   26.7851  -20.7638   -5.9413 O   0  0  0  0  0  0  0  0  0  0  0  0
   28.8087  -20.4832   -4.9674 O   0  0  0  0  0  0  0  0  0  0  0  0
  2  3  1  0
  2  1  1  6
  4  3  1  0
  5  6  1  0
  5  4  1  0
  6  7  1  0
  8  2  1  0
  8  9  2  0
 10 11  1  0
 11 12  2  0
 12 13  1  0
 14 13  2  0
 14 15  1  0
 16 15  1  1
 16 17  1  0
 17  8  1  0
 18 16  1  0
 19 18  2  0
 20 14  1  0
 21 11  1  0
 21 20  2  0
 23 22  1  1
 23 25  1  0
 23 24  1  0
 24 18  1  0
 25 27  1  0
 26 25  2  0
M  END
$$$$
