KYA.pdb
     RDKit          3D

 27 27  0  0  1  0  0  0  0  0999 V2000
   19.4775  -14.9236  -18.4801 N   0  0  0  0  0  0  0  0  0  0  0  0
   20.8824  -14.6468  -18.5837 C   0  0  1  0  0  0  0  0  0  0  0  0
   21.5146  -15.1900  -19.8072 C   0  0  0  0  0  0  0  0  0  0  0  0
   21.4316  -16.6679  -19.9844 C   0  0  0  0  0  0  0  0  0  0  0  0
   20.2202  -17.1072  -20.7480 C   0  0  0  0  0  0  0  0  0  0  0  0
   20.2045  -18.6345  -20.9037 C   0  0  0  0  0  0  0  0  0  0  0  0
   19.0121  -19.0340  -21.6196 N   0  0  0  0  0  0  0  0  0  0  0  0
   21.1899  -13.2075  -18.3549 C   0  0  0  0  0  0  0  0  0  0  0  0
   22.3818  -12.7751  -18.3478 O   0  0  0  0  0  0  0  0  0  0  0  0
   20.7180   -4.5492  -17.7180 O   0  0  0  0  0  0  0  0  0  0  0  0
   20.4161   -5.8790  -17.9257 C   0  0  0  0  0  0  0  0  0  0  0  0
   19.3716   -6.4664  -17.2727 C   0  0  0  0  0  0  0  0  0  0  0  0
   19.0817   -7.7784  -17.4840 C   0  0  0  0  0  0  0  0  0  0  0  0
   19.8452   -8.5111  -18.3586 C   0  0  0  0  0  0  0  0  0  0  0  0
   19.5864   -9.9248  -18.6282 C   0  0  0  0  0  0  0  0  0  0  0  0
   20.4684  -10.8307  -17.8478 C   0  0  2  0  0  0  0  0  0  0  0  0
   20.1741  -12.2388  -18.1323 N   0  0  0  0  0  0  0  0  0  0  0  0
   20.4267  -10.5359  -16.4270 C   0  0  0  0  0  0  0  0  0  0  0  0
   19.3928  -10.7286  -15.7572 O   0  0  0  0  0  0  0  0  0  0  0  0
   20.9141   -7.9285  -19.0332 C   0  0  0  0  0  0  0  0  0  0  0  0
   21.1875   -6.6038  -18.8039 C   0  0  0  0  0  0  0  0  0  0  0  0
   23.1260   -9.9592  -13.9695 C   0  0  0  0  0  0  0  0  0  0  0  0
   21.6601   -9.7488  -14.3678 C   0  0  2  0  0  0  0  0  0  0  0  0
   21.5646  -10.0200  -15.7640 N   0  0  0  0  0  0  0  0  0  0  0  0
   21.3060   -8.3808  -13.9881 C   0  0  0  0  0  0  0  0  0  0  0  0
   21.2496   -7.4829  -14.8525 O   0  0  0  0  0  0  0  0  0  0  0  0
   21.0304   -8.0637  -12.6760 O   0  0  0  0  0  0  0  0  0  0  0  0
  2  3  1  0
  2  1  1  6
  4  3  1  0
  5  6  1  0
  5  4  1  0
  6  7  1  0
  8  2  1  0
  8  9  2  0
 10 11  1  0
 11 12  2  0
 12 13  1  0
 14 13  2  0
 14 15  1  0
 16 15  1  6
 16 17  1  0
 17  8  1  0
 18 16  1  0
 19 18  2  0
 20 14  1  0
 21 11  1  0
 21 20  2  0
 23 22  1  6
 23 25  1  0
 23 24  1  0
 24 18  1  0
 25 27  1  0
 26 25  2  0
M  END
$$$$
