HSV.pdb
     RDKit          3D

 24 24  0  0  1  0  0  0  0  0999 V2000
    6.9519  -16.9255   19.2854 N   0  0  0  0  0  0  0  0  0  0  0  0
    7.4628  -15.8482   20.0794 C   0  0  1  0  0  0  0  0  0  0  0  0
    7.1148  -14.4937   19.5015 C   0  0  0  0  0  0  0  0  0  0  0  0
    7.7610  -14.2954   18.1773 C   0  0  0  0  0  0  0  0  0  0  0  0
    7.6175  -13.1476   17.4336 C   0  0  0  0  0  0  0  0  0  0  0  0
    8.3245  -13.2835   16.2912 N   0  0  0  0  0  0  0  0  0  0  0  0
    8.8965  -14.4933   16.3250 C   0  0  0  0  0  0  0  0  0  0  0  0
    8.5465  -15.1034   17.4803 N   0  0  0  0  0  0  0  0  0  0  0  0
    7.0104  -15.9742   21.4890 C   0  0  0  0  0  0  0  0  0  0  0  0
    5.7818  -15.9531   21.7230 O   0  0  0  0  0  0  0  0  0  0  0  0
    9.1032  -17.9715   24.3259 O   0  0  0  0  0  0  0  0  0  0  0  0
    7.7772  -17.6208   24.3827 C   0  0  0  0  0  0  0  0  0  0  0  0
    7.5322  -16.1778   23.9459 C   0  0  2  0  0  0  0  0  0  0  0  0
    7.9252  -16.1139   22.5399 N   0  0  0  0  0  0  0  0  0  0  0  0
    8.2863  -15.2136   24.7618 C   0  0  0  0  0  0  0  0  0  0  0  0
    9.4922  -14.8887   24.5039 O   0  0  0  0  0  0  0  0  0  0  0  0
    7.2159  -11.6415   25.8191 C   0  0  0  0  0  0  0  0  0  0  0  0
    7.4911  -12.4534   27.0576 C   0  0  1  0  0  0  0  0  0  0  0  0
    6.1853  -12.8525   27.6733 C   0  0  0  0  0  0  0  0  0  0  0  0
    8.3649  -13.6623   26.7440 C   0  0  2  0  0  0  0  0  0  0  0  0
    7.7014  -14.5942   25.8844 N   0  0  0  0  0  0  0  0  0  0  0  0
    8.8674  -14.2792   27.9916 C   0  0  0  0  0  0  0  0  0  0  0  0
    9.7127  -13.6673   28.8938 O   0  0  0  0  0  0  0  0  0  0  0  0
    8.4964  -15.4481   28.2486 O   0  0  0  0  0  0  0  0  0  0  0  0
  2  1  1  6
  3  2  1  0
  4  3  1  0
  5  4  2  0
  6  5  1  0
  7  6  1  0
  7  8  2  0
  8  4  1  0
  9  2  1  0
 10  9  2  0
 11 12  1  0
 13 12  1  1
 13 15  1  0
 13 14  1  0
 14  9  1  0
 15 21  1  0
 16 15  2  0
 18 20  1  0
 18 19  1  6
 18 17  1  0
 20 22  1  0
 20 21  1  1
 22 24  2  0
 22 23  1  0
M  END
$$$$
