HSV.pdb
     RDKit          3D

 24 24  0  0  1  0  0  0  0  0999 V2000
   10.7263  -16.4560   19.0248 N   0  0  0  0  0  0  0  0  0  0  0  0
   10.9230  -15.6735   20.2084 C   0  0  1  0  0  0  0  0  0  0  0  0
   11.4716  -14.2970   19.9021 C   0  0  0  0  0  0  0  0  0  0  0  0
   12.9042  -14.3673   19.5107 C   0  0  0  0  0  0  0  0  0  0  0  0
   13.8706  -14.9551   20.2928 C   0  0  0  0  0  0  0  0  0  0  0  0
   15.0585  -14.8533   19.6587 N   0  0  0  0  0  0  0  0  0  0  0  0
   14.8338  -14.2141   18.5042 C   0  0  0  0  0  0  0  0  0  0  0  0
   13.5157  -13.9217   18.4230 N   0  0  0  0  0  0  0  0  0  0  0  0
    9.6697  -15.5987   21.0028 C   0  0  0  0  0  0  0  0  0  0  0  0
    8.6505  -15.1167   20.4609 O   0  0  0  0  0  0  0  0  0  0  0  0
    8.8171  -18.0515   24.1213 O   0  0  0  0  0  0  0  0  0  0  0  0
    7.9065  -17.2398   23.4916 C   0  0  0  0  0  0  0  0  0  0  0  0
    8.4633  -15.8474   23.2011 C   0  0  2  0  0  0  0  0  0  0  0  0
    9.6157  -16.0525   22.3264 N   0  0  0  0  0  0  0  0  0  0  0  0
    8.8385  -15.1307   24.4297 C   0  0  0  0  0  0  0  0  0  0  0  0
   10.0040  -15.2066   24.9419 O   0  0  0  0  0  0  0  0  0  0  0  0
    7.2235  -11.4761   25.5163 C   0  0  0  0  0  0  0  0  0  0  0  0
    7.1658  -12.5195   26.6010 C   0  0  1  0  0  0  0  0  0  0  0  0
    5.7632  -13.0356   26.7003 C   0  0  0  0  0  0  0  0  0  0  0  0
    8.1670  -13.6399   26.3450 C   0  0  2  0  0  0  0  0  0  0  0  0
    7.9125  -14.3135   25.1085 N   0  0  0  0  0  0  0  0  0  0  0  0
    8.2291  -14.5576   27.5042 C   0  0  0  0  0  0  0  0  0  0  0  0
    8.7740  -14.2470   28.7328 O   0  0  0  0  0  0  0  0  0  0  0  0
    7.7494  -15.7060   27.3586 O   0  0  0  0  0  0  0  0  0  0  0  0
  2  1  1  6
  3  2  1  0
  4  3  1  0
  5  4  2  0
  6  5  1  0
  7  6  1  0
  7  8  2  0
  8  4  1  0
  9  2  1  0
 10  9  2  0
 11 12  1  0
 13 12  1  1
 13 15  1  0
 13 14  1  0
 14  9  1  0
 15 21  1  0
 16 15  2  0
 18 20  1  0
 18 19  1  6
 18 17  1  0
 20 22  1  0
 20 21  1  6
 22 24  2  0
 22 23  1  0
M  END
$$$$
