HSV.pdb
     RDKit          3D

 24 24  0  0  1  0  0  0  0  0999 V2000
    7.6401  -18.7624   19.5836 N   0  0  0  0  0  0  0  0  0  0  0  0
    8.1133  -17.4829   20.0204 C   0  0  1  0  0  0  0  0  0  0  0  0
    8.1401  -16.4672   18.8991 C   0  0  0  0  0  0  0  0  0  0  0  0
    9.1371  -16.8422   17.8618 C   0  0  0  0  0  0  0  0  0  0  0  0
   10.4948  -16.8194   18.0791 C   0  0  0  0  0  0  0  0  0  0  0  0
   11.1186  -17.2117   16.9475 N   0  0  0  0  0  0  0  0  0  0  0  0
   10.1658  -17.4733   16.0443 C   0  0  0  0  0  0  0  0  0  0  0  0
    8.9595  -17.2447   16.6120 N   0  0  0  0  0  0  0  0  0  0  0  0
    7.3206  -16.9974   21.1794 C   0  0  0  0  0  0  0  0  0  0  0  0
    6.1732  -16.5464   20.9676 O   0  0  0  0  0  0  0  0  0  0  0  0
    7.8515  -18.4940   24.9811 O   0  0  0  0  0  0  0  0  0  0  0  0
    6.7421  -17.9204   24.4113 C   0  0  0  0  0  0  0  0  0  0  0  0
    7.0680  -16.6312   23.6598 C   0  0  2  0  0  0  0  0  0  0  0  0
    7.8321  -17.0375   22.4823 N   0  0  0  0  0  0  0  0  0  0  0  0
    7.8210  -15.6783   24.4899 C   0  0  0  0  0  0  0  0  0  0  0  0
    9.0956  -15.6512   24.5220 O   0  0  0  0  0  0  0  0  0  0  0  0
    7.5460  -11.7131   27.5272 C   0  0  0  0  0  0  0  0  0  0  0  0
    6.8336  -12.7486   26.6973 C   0  0  1  0  0  0  0  0  0  0  0  0
    6.0835  -12.0563   25.6012 C   0  0  0  0  0  0  0  0  0  0  0  0
    7.8076  -13.7866   26.1521 C   0  0  2  0  0  0  0  0  0  0  0  0
    7.1578  -14.7359   25.3010 N   0  0  0  0  0  0  0  0  0  0  0  0
    8.5660  -14.4186   27.2544 C   0  0  0  0  0  0  0  0  0  0  0  0
    9.6539  -13.8584   27.8912 O   0  0  0  0  0  0  0  0  0  0  0  0
    8.1909  -15.5505   27.6394 O   0  0  0  0  0  0  0  0  0  0  0  0
  2  1  1  6
  3  2  1  0
  4  3  1  0
  5  4  2  0
  6  5  1  0
  7  6  1  0
  7  8  2  0
  8  4  1  0
  9  2  1  0
 10  9  2  0
 11 12  1  0
 13 12  1  1
 13 15  1  0
 13 14  1  0
 14  9  1  0
 15 21  1  0
 16 15  2  0
 18 20  1  0
 18 19  1  6
 18 17  1  0
 20 22  1  0
 20 21  1  1
 22 24  2  0
 22 23  1  0
M  END
$$$$
