HSV.pdb
     RDKit          3D

 24 24  0  0  1  0  0  0  0  0999 V2000
    9.3560  -15.6325   20.3199 N   0  0  0  0  0  0  0  0  0  0  0  0
    8.5474  -14.7118   21.0618 C   0  0  1  0  0  0  0  0  0  0  0  0
    7.2691  -14.3552   20.3349 C   0  0  0  0  0  0  0  0  0  0  0  0
    7.5391  -14.0194   18.9119 C   0  0  0  0  0  0  0  0  0  0  0  0
    8.2239  -12.8928   18.5209 C   0  0  0  0  0  0  0  0  0  0  0  0
    8.2988  -12.8806   17.1727 N   0  0  0  0  0  0  0  0  0  0  0  0
    7.6721  -13.9794   16.7347 C   0  0  0  0  0  0  0  0  0  0  0  0
    7.2118  -14.6681   17.8040 N   0  0  0  0  0  0  0  0  0  0  0  0
    8.2738  -15.2340   22.4256 C   0  0  0  0  0  0  0  0  0  0  0  0
    7.3030  -14.7631   23.0586 O   0  0  0  0  0  0  0  0  0  0  0  0
    8.9282  -18.9357   25.4041 O   0  0  0  0  0  0  0  0  0  0  0  0
    8.9259  -18.2889   24.1933 C   0  0  0  0  0  0  0  0  0  0  0  0
    8.8469  -16.7704   24.3389 C   0  0  2  0  0  0  0  0  0  0  0  0
    9.0742  -16.2285   23.0010 N   0  0  0  0  0  0  0  0  0  0  0  0
    9.8275  -16.2523   25.3053 C   0  0  0  0  0  0  0  0  0  0  0  0
   11.0786  -16.2118   25.0615 O   0  0  0  0  0  0  0  0  0  0  0  0
    9.3727  -12.9475   27.1926 C   0  0  0  0  0  0  0  0  0  0  0  0
    9.7366  -13.9878   28.2193 C   0  0  1  0  0  0  0  0  0  0  0  0
    8.5266  -14.2921   29.0480 C   0  0  0  0  0  0  0  0  0  0  0  0
   10.3046  -15.2398   27.5612 C   0  0  2  0  0  0  0  0  0  0  0  0
    9.4231  -15.7685   26.5657 N   0  0  0  0  0  0  0  0  0  0  0  0
   10.6895  -16.2369   28.5846 C   0  0  0  0  0  0  0  0  0  0  0  0
   11.7036  -16.0763   29.5058 O   0  0  0  0  0  0  0  0  0  0  0  0
   10.0441  -17.3105   28.6171 O   0  0  0  0  0  0  0  0  0  0  0  0
  2  1  1  6
  3  2  1  0
  4  3  1  0
  5  4  2  0
  6  5  1  0
  7  6  1  0
  7  8  2  0
  8  4  1  0
  9  2  1  0
 10  9  2  0
 11 12  1  0
 13 12  1  6
 13 15  1  0
 13 14  1  0
 14  9  1  0
 15 21  1  0
 16 15  2  0
 18 20  1  0
 18 19  1  6
 18 17  1  0
 20 22  1  0
 20 21  1  6
 22 24  2  0
 22 23  1  0
M  END
$$$$
