HSV.pdb
     RDKit          3D

 24 24  0  0  1  0  0  0  0  0999 V2000
    8.6771  -15.7215   19.4168 N   0  0  0  0  0  0  0  0  0  0  0  0
    8.0584  -14.4827   19.7837 C   0  0  1  0  0  0  0  0  0  0  0  0
    7.0131  -14.0441   18.7814 C   0  0  0  0  0  0  0  0  0  0  0  0
    7.5652  -14.0383   17.4009 C   0  0  0  0  0  0  0  0  0  0  0  0
    8.8980  -14.2305   17.1221 C   0  0  0  0  0  0  0  0  0  0  0  0
    9.0715  -14.1675   15.7844 N   0  0  0  0  0  0  0  0  0  0  0  0
    7.8686  -13.9403   15.2427 C   0  0  0  0  0  0  0  0  0  0  0  0
    6.9555  -13.8630   16.2376 N   0  0  0  0  0  0  0  0  0  0  0  0
    7.4995  -14.5616   21.1580 C   0  0  0  0  0  0  0  0  0  0  0  0
    6.9270  -13.5524   21.6256 O   0  0  0  0  0  0  0  0  0  0  0  0
    8.2446  -17.8759   23.8978 O   0  0  0  0  0  0  0  0  0  0  0  0
    7.0192  -17.3484   23.5744 C   0  0  0  0  0  0  0  0  0  0  0  0
    7.0831  -15.8504   23.2830 C   0  0  2  0  0  0  0  0  0  0  0  0
    7.6035  -15.7299   21.9228 N   0  0  0  0  0  0  0  0  0  0  0  0
    7.9267  -15.1309   24.2498 C   0  0  0  0  0  0  0  0  0  0  0  0
    9.1953  -15.0628   24.1391 O   0  0  0  0  0  0  0  0  0  0  0  0
    7.2463  -11.5619   25.8053 C   0  0  0  0  0  0  0  0  0  0  0  0
    7.4187  -12.5734   26.9080 C   0  0  1  0  0  0  0  0  0  0  0  0
    6.0769  -12.8734   27.5021 C   0  0  0  0  0  0  0  0  0  0  0  0
    8.1102  -13.8333   26.4001 C   0  0  2  0  0  0  0  0  0  0  0  0
    7.3627  -14.4727   25.3610 N   0  0  0  0  0  0  0  0  0  0  0  0
    8.4334  -14.7391   27.5247 C   0  0  0  0  0  0  0  0  0  0  0  0
    9.3221  -14.4555   28.5409 O   0  0  0  0  0  0  0  0  0  0  0  0
    7.8548  -15.8501   27.5566 O   0  0  0  0  0  0  0  0  0  0  0  0
  2  1  1  6
  3  2  1  0
  4  3  1  0
  5  4  2  0
  6  5  1  0
  7  6  1  0
  7  8  2  0
  8  4  1  0
  9  2  1  0
 10  9  2  0
 11 12  1  0
 13 12  1  1
 13 15  1  0
 13 14  1  0
 14  9  1  0
 15 21  1  0
 16 15  2  0
 18 20  1  0
 18 19  1  6
 18 17  1  0
 20 22  1  0
 20 21  1  6
 22 24  2  0
 22 23  1  0
M  END
$$$$
