HSV.pdb
     RDKit          3D

 24 24  0  0  1  0  0  0  0  0999 V2000
    9.7122  -17.0863   19.9935 N   0  0  0  0  0  0  0  0  0  0  0  0
    9.7491  -17.8515   21.2038 C   0  0  1  0  0  0  0  0  0  0  0  0
   11.0401  -18.6263   21.3542 C   0  0  0  0  0  0  0  0  0  0  0  0
   11.1578  -19.6772   20.3091 C   0  0  0  0  0  0  0  0  0  0  0  0
   10.6461  -20.9452   20.4551 C   0  0  0  0  0  0  0  0  0  0  0  0
   10.9189  -21.6510   19.3367 N   0  0  0  0  0  0  0  0  0  0  0  0
   11.5877  -20.8363   18.5115 C   0  0  0  0  0  0  0  0  0  0  0  0
   11.7286  -19.6336   19.1141 N   0  0  0  0  0  0  0  0  0  0  0  0
    9.4914  -16.9837   22.3819 C   0  0  0  0  0  0  0  0  0  0  0  0
    9.9742  -15.8297   22.3870 O   0  0  0  0  0  0  0  0  0  0  0  0
    7.0670  -18.3800   25.5558 O   0  0  0  0  0  0  0  0  0  0  0  0
    7.0397  -17.0806   25.1137 C   0  0  0  0  0  0  0  0  0  0  0  0
    8.4032  -16.5989   24.6220 C   0  0  2  0  0  0  0  0  0  0  0  0
    8.7288  -17.4329   23.4670 N   0  0  0  0  0  0  0  0  0  0  0  0
    9.4363  -16.6937   25.6649 C   0  0  0  0  0  0  0  0  0  0  0  0
   10.3084  -17.6239   25.6870 O   0  0  0  0  0  0  0  0  0  0  0  0
   10.8473  -13.3685   27.6423 C   0  0  0  0  0  0  0  0  0  0  0  0
   10.4947  -14.5000   28.5718 C   0  0  1  0  0  0  0  0  0  0  0  0
    9.2154  -14.1659   29.2755 C   0  0  0  0  0  0  0  0  0  0  0  0
   10.4020  -15.8238   27.8218 C   0  0  2  0  0  0  0  0  0  0  0  0
    9.5114  -15.7454   26.7047 N   0  0  0  0  0  0  0  0  0  0  0  0
   10.0719  -16.9268   28.7514 C   0  0  0  0  0  0  0  0  0  0  0  0
   10.9180  -17.4283   29.7186 O   0  0  0  0  0  0  0  0  0  0  0  0
    8.9356  -17.4456   28.6524 O   0  0  0  0  0  0  0  0  0  0  0  0
  2  1  1  6
  3  2  1  0
  4  3  1  0
  5  4  2  0
  6  5  1  0
  7  6  1  0
  7  8  2  0
  8  4  1  0
  9  2  1  0
 10  9  2  0
 11 12  1  0
 13 12  1  1
 13 15  1  0
 13 14  1  0
 14  9  1  0
 15 21  1  0
 16 15  2  0
 18 20  1  0
 18 19  1  6
 18 17  1  0
 20 22  1  0
 20 21  1  6
 22 24  2  0
 22 23  1  0
M  END
$$$$
