HSV.pdb
     RDKit          3D

 24 24  0  0  1  0  0  0  0  0999 V2000
    9.2118  -16.0711   20.3057 N   0  0  0  0  0  0  0  0  0  0  0  0
    8.6039  -14.9931   21.0269 C   0  0  1  0  0  0  0  0  0  0  0  0
    7.3609  -14.4713   20.3397 C   0  0  0  0  0  0  0  0  0  0  0  0
    7.6137  -14.2194   18.8964 C   0  0  0  0  0  0  0  0  0  0  0  0
    8.1463  -13.0449   18.4190 C   0  0  0  0  0  0  0  0  0  0  0  0
    8.2486  -13.1332   17.0754 N   0  0  0  0  0  0  0  0  0  0  0  0
    7.7880  -14.3404   16.7251 C   0  0  0  0  0  0  0  0  0  0  0  0
    7.4028  -14.9959   17.8438 N   0  0  0  0  0  0  0  0  0  0  0  0
    8.3264  -15.3912   22.4312 C   0  0  0  0  0  0  0  0  0  0  0  0
    7.4959  -14.7226   23.0854 O   0  0  0  0  0  0  0  0  0  0  0  0
   10.2750  -18.7505   24.1360 O   0  0  0  0  0  0  0  0  0  0  0  0
    8.9964  -18.3793   24.4706 C   0  0  0  0  0  0  0  0  0  0  0  0
    8.7920  -16.8665   24.4204 C   0  0  2  0  0  0  0  0  0  0  0  0
    8.9709  -16.4855   23.0210 N   0  0  0  0  0  0  0  0  0  0  0  0
    9.7281  -16.1489   25.2994 C   0  0  0  0  0  0  0  0  0  0  0  0
   10.8972  -15.8042   24.9245 O   0  0  0  0  0  0  0  0  0  0  0  0
    9.2204  -12.9168   26.7135 C   0  0  0  0  0  0  0  0  0  0  0  0
    9.5715  -13.7404   27.9247 C   0  0  1  0  0  0  0  0  0  0  0  0
    8.3384  -13.9299   28.7535 C   0  0  0  0  0  0  0  0  0  0  0  0
   10.1988  -15.0711   27.5262 C   0  0  2  0  0  0  0  0  0  0  0  0
    9.3702  -15.8033   26.6180 N   0  0  0  0  0  0  0  0  0  0  0  0
   10.5739  -15.8503   28.7270 C   0  0  0  0  0  0  0  0  0  0  0  0
   11.5133  -15.4647   29.6606 O   0  0  0  0  0  0  0  0  0  0  0  0
    9.9930  -16.9454   28.9102 O   0  0  0  0  0  0  0  0  0  0  0  0
  2  1  1  6
  3  2  1  0
  4  3  1  0
  5  4  2  0
  6  5  1  0
  7  6  1  0
  7  8  2  0
  8  4  1  0
  9  2  1  0
 10  9  2  0
 11 12  1  0
 13 12  1  6
 13 15  1  0
 13 14  1  0
 14  9  1  0
 15 21  1  0
 16 15  2  0
 18 20  1  0
 18 19  1  6
 18 17  1  0
 20 22  1  0
 20 21  1  1
 22 24  2  0
 22 23  1  0
M  END
$$$$
