HSV.pdb
     RDKit          3D

 24 24  0  0  1  0  0  0  0  0999 V2000
    9.2447  -15.8999   19.4161 N   0  0  0  0  0  0  0  0  0  0  0  0
    8.3488  -14.8594   19.8243 C   0  0  1  0  0  0  0  0  0  0  0  0
    7.1744  -14.7104   18.8818 C   0  0  0  0  0  0  0  0  0  0  0  0
    7.6291  -14.6385   17.4681 C   0  0  0  0  0  0  0  0  0  0  0  0
    8.1756  -13.5071   16.9094 C   0  0  0  0  0  0  0  0  0  0  0  0
    8.4814  -13.7680   15.6203 N   0  0  0  0  0  0  0  0  0  0  0  0
    8.1313  -15.0381   15.3830 C   0  0  0  0  0  0  0  0  0  0  0  0
    7.6120  -15.5610   16.5172 N   0  0  0  0  0  0  0  0  0  0  0  0
    7.9025  -15.0705   21.2256 C   0  0  0  0  0  0  0  0  0  0  0  0
    6.9605  -14.3719   21.6609 O   0  0  0  0  0  0  0  0  0  0  0  0
   10.0690  -17.5149   24.0912 O   0  0  0  0  0  0  0  0  0  0  0  0
    8.7265  -17.6083   23.8204 C   0  0  0  0  0  0  0  0  0  0  0  0
    8.1104  -16.2649   23.4347 C   0  0  2  0  0  0  0  0  0  0  0  0
    8.5116  -16.0241   22.0503 N   0  0  0  0  0  0  0  0  0  0  0  0
    8.5494  -15.1762   24.3214 C   0  0  0  0  0  0  0  0  0  0  0  0
    9.7197  -14.6727   24.2653 O   0  0  0  0  0  0  0  0  0  0  0  0
    5.6994  -13.1490   26.9594 C   0  0  0  0  0  0  0  0  0  0  0  0
    6.9681  -12.5644   26.3962 C   0  0  1  0  0  0  0  0  0  0  0  0
    7.4138  -11.4385   27.2778 C   0  0  0  0  0  0  0  0  0  0  0  0
    8.0482  -13.6292   26.2441 C   0  0  2  0  0  0  0  0  0  0  0  0
    7.6827  -14.6303   25.2893 N   0  0  0  0  0  0  0  0  0  0  0  0
    8.4149  -14.1909   27.5631 C   0  0  0  0  0  0  0  0  0  0  0  0
    8.2542  -15.5094   27.9355 O   0  0  0  0  0  0  0  0  0  0  0  0
    8.9098  -13.4084   28.4073 O   0  0  0  0  0  0  0  0  0  0  0  0
  2  1  1  6
  3  2  1  0
  4  3  1  0
  5  4  2  0
  6  5  1  0
  7  6  1  0
  7  8  2  0
  8  4  1  0
  9  2  1  0
 10  9  2  0
 11 12  1  0
 13 12  1  1
 13 15  1  0
 13 14  1  0
 14  9  1  0
 15 21  1  0
 16 15  2  0
 18 20  1  0
 18 19  1  1
 18 17  1  0
 20 22  1  0
 20 21  1  6
 22 24  2  0
 22 23  1  0
M  END
$$$$
