HSV.pdb
     RDKit          3D

 24 24  0  0  1  0  0  0  0  0999 V2000
    8.9638  -18.6028   19.6725 N   0  0  0  0  0  0  0  0  0  0  0  0
    9.6442  -17.8038   20.6474 C   0  0  1  0  0  0  0  0  0  0  0  0
   10.6358  -16.8501   20.0174 C   0  0  0  0  0  0  0  0  0  0  0  0
   11.8680  -17.5645   19.5911 C   0  0  0  0  0  0  0  0  0  0  0  0
   12.1069  -18.8888   19.8744 C   0  0  0  0  0  0  0  0  0  0  0  0
   13.3039  -19.2318   19.3521 N   0  0  0  0  0  0  0  0  0  0  0  0
   13.7993  -18.1405   18.7555 C   0  0  0  0  0  0  0  0  0  0  0  0
   12.9153  -17.1279   18.9068 N   0  0  0  0  0  0  0  0  0  0  0  0
    8.6708  -17.0884   21.5123 C   0  0  0  0  0  0  0  0  0  0  0  0
    7.9406  -16.2169   20.9905 O   0  0  0  0  0  0  0  0  0  0  0  0
    7.7991  -18.6461   25.2570 O   0  0  0  0  0  0  0  0  0  0  0  0
    6.8998  -17.9481   24.4898 C   0  0  0  0  0  0  0  0  0  0  0  0
    7.5447  -16.7805   23.7454 C   0  0  2  0  0  0  0  0  0  0  0  0
    8.5620  -17.3721   22.8792 N   0  0  0  0  0  0  0  0  0  0  0  0
    8.1267  -15.7890   24.6630 C   0  0  0  0  0  0  0  0  0  0  0  0
    9.3768  -15.7286   24.9079 O   0  0  0  0  0  0  0  0  0  0  0  0
    7.2026  -11.9439   27.7374 C   0  0  0  0  0  0  0  0  0  0  0  0
    6.6875  -12.9396   26.7315 C   0  0  1  0  0  0  0  0  0  0  0  0
    6.1218  -12.1951   25.5614 C   0  0  0  0  0  0  0  0  0  0  0  0
    7.7795  -13.9160   26.3101 C   0  0  2  0  0  0  0  0  0  0  0  0
    7.3166  -14.8444   25.3246 N   0  0  0  0  0  0  0  0  0  0  0  0
    8.3743  -14.5745   27.4942 C   0  0  0  0  0  0  0  0  0  0  0  0
    9.3515  -14.0262   28.2988 O   0  0  0  0  0  0  0  0  0  0  0  0
    7.9582  -15.7190   27.7892 O   0  0  0  0  0  0  0  0  0  0  0  0
  2  1  1  6
  3  2  1  0
  4  3  1  0
  5  4  2  0
  6  5  1  0
  7  6  1  0
  7  8  2  0
  8  4  1  0
  9  2  1  0
 10  9  2  0
 11 12  1  0
 13 12  1  1
 13 15  1  0
 13 14  1  0
 14  9  1  0
 15 21  1  0
 16 15  2  0
 18 20  1  0
 18 19  1  6
 18 17  1  0
 20 22  1  0
 20 21  1  6
 22 24  2  0
 22 23  1  0
M  END
$$$$
