HSV.pdb
     RDKit          3D

 24 24  0  0  1  0  0  0  0  0999 V2000
   10.1476  -16.1519   18.5692 N   0  0  0  0  0  0  0  0  0  0  0  0
    9.7462  -16.8832   19.7337 C   0  0  1  0  0  0  0  0  0  0  0  0
   10.9095  -17.5841   20.4009 C   0  0  0  0  0  0  0  0  0  0  0  0
   11.3650  -18.7484   19.5963 C   0  0  0  0  0  0  0  0  0  0  0  0
   12.5969  -18.8076   18.9879 C   0  0  0  0  0  0  0  0  0  0  0  0
   12.7008  -19.9879   18.3401 N   0  0  0  0  0  0  0  0  0  0  0  0
   11.5546  -20.6492   18.5425 C   0  0  0  0  0  0  0  0  0  0  0  0
   10.7456  -19.8843   19.3106 N   0  0  0  0  0  0  0  0  0  0  0  0
    9.0211  -16.0009   20.6839 C   0  0  0  0  0  0  0  0  0  0  0  0
    9.3828  -14.8073   20.7809 O   0  0  0  0  0  0  0  0  0  0  0  0
    5.9844  -17.5710   23.1777 O   0  0  0  0  0  0  0  0  0  0  0  0
    5.8410  -16.3576   22.5519 C   0  0  0  0  0  0  0  0  0  0  0  0
    7.1732  -15.6359   22.3579 C   0  0  2  0  0  0  0  0  0  0  0  0
    7.9572  -16.4795   21.4584 N   0  0  0  0  0  0  0  0  0  0  0  0
    7.8731  -15.4076   23.6314 C   0  0  0  0  0  0  0  0  0  0  0  0
    8.8736  -16.1065   24.0016 O   0  0  0  0  0  0  0  0  0  0  0  0
    7.9067  -11.7176   25.5851 C   0  0  0  0  0  0  0  0  0  0  0  0
    7.5081  -12.8851   26.4493 C   0  0  1  0  0  0  0  0  0  0  0  0
    6.0246  -12.8505   26.6531 C   0  0  0  0  0  0  0  0  0  0  0  0
    7.9679  -14.2055   25.8422 C   0  0  2  0  0  0  0  0  0  0  0  0
    7.4640  -14.3894   24.5156 N   0  0  0  0  0  0  0  0  0  0  0  0
    7.6493  -15.3330   26.7459 C   0  0  0  0  0  0  0  0  0  0  0  0
    8.3479  -15.6524   27.8917 O   0  0  0  0  0  0  0  0  0  0  0  0
    6.6686  -16.0537   26.4475 O   0  0  0  0  0  0  0  0  0  0  0  0
  2  1  1  6
  3  2  1  0
  4  3  1  0
  5  4  2  0
  6  5  1  0
  7  6  1  0
  7  8  2  0
  8  4  1  0
  9  2  1  0
 10  9  2  0
 11 12  1  0
 13 12  1  1
 13 15  1  0
 13 14  1  0
 14  9  1  0
 15 21  1  0
 16 15  2  0
 18 20  1  0
 18 19  1  6
 18 17  1  0
 20 22  1  0
 20 21  1  6
 22 24  2  0
 22 23  1  0
M  END
$$$$
