HSV.pdb
     RDKit          3D

 24 24  0  0  1  0  0  0  0  0999 V2000
   10.6419  -16.0194   18.7420 N   0  0  0  0  0  0  0  0  0  0  0  0
   10.9913  -15.5014   20.0310 C   0  0  1  0  0  0  0  0  0  0  0  0
   11.7336  -14.1860   19.9393 C   0  0  0  0  0  0  0  0  0  0  0  0
   13.1213  -14.3885   19.4457 C   0  0  0  0  0  0  0  0  0  0  0  0
   14.1130  -14.9668   20.2026 C   0  0  0  0  0  0  0  0  0  0  0  0
   15.2472  -15.0038   19.4708 N   0  0  0  0  0  0  0  0  0  0  0  0
   14.9650  -14.4583   18.2813 C   0  0  0  0  0  0  0  0  0  0  0  0
   13.6647  -14.0858   18.2757 N   0  0  0  0  0  0  0  0  0  0  0  0
    9.7888  -15.3918   20.8966 C   0  0  0  0  0  0  0  0  0  0  0  0
    8.8063  -14.7456   20.4701 O   0  0  0  0  0  0  0  0  0  0  0  0
    9.0352  -18.0753   23.9261 O   0  0  0  0  0  0  0  0  0  0  0  0
    8.0990  -17.2751   23.3199 C   0  0  0  0  0  0  0  0  0  0  0  0
    8.6094  -15.8565   23.0745 C   0  0  2  0  0  0  0  0  0  0  0  0
    9.7419  -15.9919   22.1610 N   0  0  0  0  0  0  0  0  0  0  0  0
    8.9996  -15.1818   24.3222 C   0  0  0  0  0  0  0  0  0  0  0  0
   10.1884  -15.2201   24.7823 O   0  0  0  0  0  0  0  0  0  0  0  0
    7.4348  -11.6185   25.5567 C   0  0  0  0  0  0  0  0  0  0  0  0
    7.3667  -12.6797   26.6234 C   0  0  1  0  0  0  0  0  0  0  0  0
    5.9535  -13.1638   26.7331 C   0  0  0  0  0  0  0  0  0  0  0  0
    8.3370  -13.8190   26.3334 C   0  0  2  0  0  0  0  0  0  0  0  0
    8.0626  -14.4499   25.0787 N   0  0  0  0  0  0  0  0  0  0  0  0
    8.3759  -14.7707   27.4658 C   0  0  0  0  0  0  0  0  0  0  0  0
    8.9010  -14.4987   28.7121 O   0  0  0  0  0  0  0  0  0  0  0  0
    7.8944  -15.9122   27.2783 O   0  0  0  0  0  0  0  0  0  0  0  0
  2  1  1  6
  3  2  1  0
  4  3  1  0
  5  4  2  0
  6  5  1  0
  7  6  1  0
  7  8  2  0
  8  4  1  0
  9  2  1  0
 10  9  2  0
 11 12  1  0
 13 12  1  1
 13 15  1  0
 13 14  1  0
 14  9  1  0
 15 21  1  0
 16 15  2  0
 18 20  1  0
 18 19  1  6
 18 17  1  0
 20 22  1  0
 20 21  1  6
 22 24  2  0
 22 23  1  0
M  END
$$$$
