HSV.pdb
     RDKit          3D

 24 24  0  0  1  0  0  0  0  0999 V2000
    7.8931  -16.7412   19.0472 N   0  0  0  0  0  0  0  0  0  0  0  0
    8.0446  -15.4539   19.6570 C   0  0  1  0  0  0  0  0  0  0  0  0
    7.4872  -14.3414   18.7958 C   0  0  0  0  0  0  0  0  0  0  0  0
    7.9586  -14.4653   17.3912 C   0  0  0  0  0  0  0  0  0  0  0  0
    7.6631  -13.5444   16.4137 C   0  0  0  0  0  0  0  0  0  0  0  0
    8.2354  -13.9445   15.2579 N   0  0  0  0  0  0  0  0  0  0  0  0
    8.8745  -15.0928   15.5132 C   0  0  0  0  0  0  0  0  0  0  0  0
    8.6997  -15.4024   16.8182 N   0  0  0  0  0  0  0  0  0  0  0  0
    7.4479  -15.4438   21.0176 C   0  0  0  0  0  0  0  0  0  0  0  0
    6.4683  -14.6957   21.2314 O   0  0  0  0  0  0  0  0  0  0  0  0
    8.7869  -18.1179   24.1116 O   0  0  0  0  0  0  0  0  0  0  0  0
    7.4965  -17.7232   23.8600 C   0  0  0  0  0  0  0  0  0  0  0  0
    7.4064  -16.2702   23.3977 C   0  0  2  0  0  0  0  0  0  0  0  0
    7.9586  -16.2464   22.0450 N   0  0  0  0  0  0  0  0  0  0  0  0
    8.1311  -15.3554   24.2932 C   0  0  0  0  0  0  0  0  0  0  0  0
    9.3826  -15.1353   24.1857 O   0  0  0  0  0  0  0  0  0  0  0  0
    5.9213  -12.8820   27.1323 C   0  0  0  0  0  0  0  0  0  0  0  0
    7.2333  -12.5218   26.4861 C   0  0  1  0  0  0  0  0  0  0  0  0
    7.9368  -11.5190   27.3481 C   0  0  0  0  0  0  0  0  0  0  0  0
    8.0879  -13.7599   26.2411 C   0  0  2  0  0  0  0  0  0  0  0  0
    7.4650  -14.6686   25.3279 N   0  0  0  0  0  0  0  0  0  0  0  0
    8.4661  -14.3937   27.5237 C   0  0  0  0  0  0  0  0  0  0  0  0
    9.4246  -13.9145   28.3923 O   0  0  0  0  0  0  0  0  0  0  0  0
    7.8693  -15.4473   27.8460 O   0  0  0  0  0  0  0  0  0  0  0  0
  2  1  1  6
  3  2  1  0
  4  3  1  0
  5  4  2  0
  6  5  1  0
  7  6  1  0
  7  8  2  0
  8  4  1  0
  9  2  1  0
 10  9  2  0
 11 12  1  0
 13 12  1  1
 13 15  1  0
 13 14  1  0
 14  9  1  0
 15 21  1  0
 16 15  2  0
 18 20  1  0
 18 19  1  1
 18 17  1  0
 20 22  1  0
 20 21  1  6
 22 24  2  0
 22 23  1  0
M  END
$$$$
