HSV.pdb
     RDKit          3D

 24 24  0  0  1  0  0  0  0  0999 V2000
    6.9584  -16.8477   19.3581 N   0  0  0  0  0  0  0  0  0  0  0  0
    7.4787  -15.8122   20.2001 C   0  0  1  0  0  0  0  0  0  0  0  0
    7.1852  -14.4301   19.6585 C   0  0  0  0  0  0  0  0  0  0  0  0
    7.8214  -14.2304   18.3296 C   0  0  0  0  0  0  0  0  0  0  0  0
    7.2225  -13.5365   17.3046 C   0  0  0  0  0  0  0  0  0  0  0  0
    8.0542  -13.5366   16.2408 N   0  0  0  0  0  0  0  0  0  0  0  0
    9.1495  -14.2181   16.5987 C   0  0  0  0  0  0  0  0  0  0  0  0
    8.9978  -14.6376   17.8757 N   0  0  0  0  0  0  0  0  0  0  0  0
    6.9856  -15.9702   21.5926 C   0  0  0  0  0  0  0  0  0  0  0  0
    5.7542  -15.8942   21.7993 O   0  0  0  0  0  0  0  0  0  0  0  0
    8.9157  -18.0689   24.4892 O   0  0  0  0  0  0  0  0  0  0  0  0
    7.6135  -17.6381   24.5428 C   0  0  0  0  0  0  0  0  0  0  0  0
    7.4508  -16.1985   24.0587 C   0  0  2  0  0  0  0  0  0  0  0  0
    7.8656  -16.1990   22.6575 N   0  0  0  0  0  0  0  0  0  0  0  0
    8.2436  -15.2502   24.8564 C   0  0  0  0  0  0  0  0  0  0  0  0
    9.4981  -15.0920   24.6903 O   0  0  0  0  0  0  0  0  0  0  0  0
    7.5150  -11.5016   25.6892 C   0  0  0  0  0  0  0  0  0  0  0  0
    7.6281  -12.2791   26.9743 C   0  0  1  0  0  0  0  0  0  0  0  0
    6.2558  -12.4785   27.5403 C   0  0  0  0  0  0  0  0  0  0  0  0
    8.3518  -13.6031   26.7582 C   0  0  2  0  0  0  0  0  0  0  0  0
    7.6436  -14.4598   25.8570 N   0  0  0  0  0  0  0  0  0  0  0  0
    8.6555  -14.2482   28.0548 C   0  0  0  0  0  0  0  0  0  0  0  0
    9.5287  -13.7533   29.0011 O   0  0  0  0  0  0  0  0  0  0  0  0
    8.0743  -15.3277   28.3135 O   0  0  0  0  0  0  0  0  0  0  0  0
  2  1  1  6
  3  2  1  0
  4  3  1  0
  5  4  2  0
  6  5  1  0
  7  6  1  0
  7  8  2  0
  8  4  1  0
  9  2  1  0
 10  9  2  0
 11 12  1  0
 13 12  1  1
 13 15  1  0
 13 14  1  0
 14  9  1  0
 15 21  1  0
 16 15  2  0
 18 20  1  0
 18 19  1  6
 18 17  1  0
 20 22  1  0
 20 21  1  6
 22 24  2  0
 22 23  1  0
M  END
$$$$
