HSV.pdb
     RDKit          3D

 24 24  0  0  1  0  0  0  0  0999 V2000
    7.5131  -16.9915   19.3003 N   0  0  0  0  0  0  0  0  0  0  0  0
    7.5952  -15.7977   20.0878 C   0  0  1  0  0  0  0  0  0  0  0  0
    6.9351  -14.6165   19.4106 C   0  0  0  0  0  0  0  0  0  0  0  0
    7.6052  -14.2956   18.1227 C   0  0  0  0  0  0  0  0  0  0  0  0
    8.3446  -13.1535   17.9226 C   0  0  0  0  0  0  0  0  0  0  0  0
    8.8149  -13.1613   16.6569 N   0  0  0  0  0  0  0  0  0  0  0  0
    8.3756  -14.2874   16.0816 C   0  0  0  0  0  0  0  0  0  0  0  0
    7.6380  -14.9731   16.9846 N   0  0  0  0  0  0  0  0  0  0  0  0
    7.0434  -16.0270   21.4481 C   0  0  0  0  0  0  0  0  0  0  0  0
    5.9712  -16.6623   21.5552 O   0  0  0  0  0  0  0  0  0  0  0  0
    7.3092  -17.8628   25.3552 O   0  0  0  0  0  0  0  0  0  0  0  0
    7.4951  -17.4071   24.0737 C   0  0  0  0  0  0  0  0  0  0  0  0
    7.2943  -15.8978   23.9522 C   0  0  2  0  0  0  0  0  0  0  0  0
    7.6964  -15.5496   22.5911 N   0  0  0  0  0  0  0  0  0  0  0  0
    8.0717  -15.1506   24.9529 C   0  0  0  0  0  0  0  0  0  0  0  0
    9.3463  -15.1112   24.9447 O   0  0  0  0  0  0  0  0  0  0  0  0
    6.9128  -11.5205   26.3015 C   0  0  0  0  0  0  0  0  0  0  0  0
    7.2339  -12.4646   27.4304 C   0  0  1  0  0  0  0  0  0  0  0  0
    5.9518  -12.9435   28.0387 C   0  0  0  0  0  0  0  0  0  0  0  0
    8.1041  -13.6217   26.9536 C   0  0  2  0  0  0  0  0  0  0  0  0
    7.4334  -14.4319   25.9834 N   0  0  0  0  0  0  0  0  0  0  0  0
    8.6149  -14.3979   28.1052 C   0  0  0  0  0  0  0  0  0  0  0  0
    9.4506  -13.9045   29.0856 O   0  0  0  0  0  0  0  0  0  0  0  0
    8.2610  -15.5964   28.1972 O   0  0  0  0  0  0  0  0  0  0  0  0
  2  1  1  6
  3  2  1  0
  4  3  1  0
  5  4  2  0
  6  5  1  0
  7  6  1  0
  7  8  2  0
  8  4  1  0
  9  2  1  0
 10  9  2  0
 11 12  1  0
 13 12  1  1
 13 15  1  0
 13 14  1  0
 14  9  1  0
 15 21  1  0
 16 15  2  0
 18 20  1  0
 18 19  1  6
 18 17  1  0
 20 22  1  0
 20 21  1  6
 22 24  2  0
 22 23  1  0
M  END
$$$$
