HSV.pdb
     RDKit          3D

 24 24  0  0  1  0  0  0  0  0999 V2000
    8.8958  -16.0394   19.9770 N   0  0  0  0  0  0  0  0  0  0  0  0
    8.1545  -14.8702   20.3445 C   0  0  1  0  0  0  0  0  0  0  0  0
    7.0773  -14.5329   19.3367 C   0  0  0  0  0  0  0  0  0  0  0  0
    7.6427  -14.4249   17.9659 C   0  0  0  0  0  0  0  0  0  0  0  0
    8.5299  -13.4429   17.5923 C   0  0  0  0  0  0  0  0  0  0  0  0
    8.8487  -13.6224   16.2925 N   0  0  0  0  0  0  0  0  0  0  0  0
    8.1719  -14.6961   15.8668 C   0  0  0  0  0  0  0  0  0  0  0  0
    7.4385  -15.1790   16.8956 N   0  0  0  0  0  0  0  0  0  0  0  0
    7.5972  -15.0107   21.7146 C   0  0  0  0  0  0  0  0  0  0  0  0
    6.8666  -14.0962   22.1557 O   0  0  0  0  0  0  0  0  0  0  0  0
    8.9463  -18.0512   24.4921 O   0  0  0  0  0  0  0  0  0  0  0  0
    7.6311  -17.7453   24.2453 C   0  0  0  0  0  0  0  0  0  0  0  0
    7.4274  -16.2742   23.8882 C   0  0  2  0  0  0  0  0  0  0  0  0
    7.8743  -16.1335   22.5041 N   0  0  0  0  0  0  0  0  0  0  0  0
    8.1663  -15.3756   24.7884 C   0  0  0  0  0  0  0  0  0  0  0  0
    9.4093  -15.1287   24.6459 O   0  0  0  0  0  0  0  0  0  0  0  0
    6.8888  -11.9061   25.6703 C   0  0  0  0  0  0  0  0  0  0  0  0
    7.2623  -12.5642   26.9726 C   0  0  1  0  0  0  0  0  0  0  0  0
    6.0087  -12.9106   27.7155 C   0  0  0  0  0  0  0  0  0  0  0  0
    8.1429  -13.7869   26.7422 C   0  0  2  0  0  0  0  0  0  0  0  0
    7.5243  -14.7352   25.8672 N   0  0  0  0  0  0  0  0  0  0  0  0
    8.5638  -14.3761   28.0327 C   0  0  0  0  0  0  0  0  0  0  0  0
    8.2673  -15.6557   28.4542 O   0  0  0  0  0  0  0  0  0  0  0  0
    9.2423  -13.6569   28.8025 O   0  0  0  0  0  0  0  0  0  0  0  0
  2  1  1  6
  3  2  1  0
  4  3  1  0
  5  4  2  0
  6  5  1  0
  7  6  1  0
  7  8  2  0
  8  4  1  0
  9  2  1  0
 10  9  2  0
 11 12  1  0
 13 12  1  1
 13 15  1  0
 13 14  1  0
 14  9  1  0
 15 21  1  0
 16 15  2  0
 18 20  1  0
 18 19  1  6
 18 17  1  0
 20 22  1  0
 20 21  1  6
 22 24  2  0
 22 23  1  0
M  END
$$$$
