HSV.pdb
     RDKit          3D

 24 24  0  0  1  0  0  0  0  0999 V2000
    8.0844  -17.1475   19.4215 N   0  0  0  0  0  0  0  0  0  0  0  0
    7.6530  -15.8656   19.8932 C   0  0  1  0  0  0  0  0  0  0  0  0
    6.6731  -15.2058   18.9477 C   0  0  0  0  0  0  0  0  0  0  0  0
    7.3629  -14.6945   17.7339 C   0  0  0  0  0  0  0  0  0  0  0  0
    8.7244  -14.7670   17.5546 C   0  0  0  0  0  0  0  0  0  0  0  0
    9.0311  -14.2192   16.3591 N   0  0  0  0  0  0  0  0  0  0  0  0
    7.8812  -13.8141   15.8062 C   0  0  0  0  0  0  0  0  0  0  0  0
    6.8685  -14.1087   16.6532 N   0  0  0  0  0  0  0  0  0  0  0  0
    7.1003  -15.9707   21.2683 C   0  0  0  0  0  0  0  0  0  0  0  0
    5.8630  -15.8679   21.4209 O   0  0  0  0  0  0  0  0  0  0  0  0
    8.9100  -18.0109   24.3637 O   0  0  0  0  0  0  0  0  0  0  0  0
    7.5973  -17.6287   24.2402 C   0  0  0  0  0  0  0  0  0  0  0  0
    7.4482  -16.1883   23.7545 C   0  0  2  0  0  0  0  0  0  0  0  0
    7.9316  -16.1796   22.3755 N   0  0  0  0  0  0  0  0  0  0  0  0
    8.1937  -15.2379   24.5942 C   0  0  0  0  0  0  0  0  0  0  0  0
    9.4254  -14.9690   24.4017 O   0  0  0  0  0  0  0  0  0  0  0  0
    6.8823  -11.7405   25.5148 C   0  0  0  0  0  0  0  0  0  0  0  0
    7.3136  -12.4089   26.7939 C   0  0  1  0  0  0  0  0  0  0  0  0
    6.0935  -12.7908   27.5742 C   0  0  0  0  0  0  0  0  0  0  0  0
    8.2096  -13.6102   26.5157 C   0  0  2  0  0  0  0  0  0  0  0  0
    7.5712  -14.5696   25.6674 N   0  0  0  0  0  0  0  0  0  0  0  0
    8.7060  -14.1938   27.7817 C   0  0  0  0  0  0  0  0  0  0  0  0
    9.5324  -13.5514   28.6802 O   0  0  0  0  0  0  0  0  0  0  0  0
    8.3479  -15.3620   28.0592 O   0  0  0  0  0  0  0  0  0  0  0  0
  2  1  1  6
  3  2  1  0
  4  3  1  0
  5  4  2  0
  6  5  1  0
  7  6  1  0
  7  8  2  0
  8  4  1  0
  9  2  1  0
 10  9  2  0
 11 12  1  0
 13 12  1  1
 13 15  1  0
 13 14  1  0
 14  9  1  0
 15 21  1  0
 16 15  2  0
 18 20  1  0
 18 19  1  6
 18 17  1  0
 20 22  1  0
 20 21  1  1
 22 24  2  0
 22 23  1  0
M  END
$$$$
