HSV.pdb
     RDKit          3D

 24 24  0  0  1  0  0  0  0  0999 V2000
    7.8729  -16.3016   19.3682 N   0  0  0  0  0  0  0  0  0  0  0  0
    8.1782  -15.0733   20.0388 C   0  0  1  0  0  0  0  0  0  0  0  0
    7.7681  -13.8609   19.2316 C   0  0  0  0  0  0  0  0  0  0  0  0
    8.2752  -13.9507   17.8369 C   0  0  0  0  0  0  0  0  0  0  0  0
    7.8820  -13.0936   16.8359 C   0  0  0  0  0  0  0  0  0  0  0  0
    8.5199  -13.4398   15.6973 N   0  0  0  0  0  0  0  0  0  0  0  0
    9.2949  -14.4926   15.9858 C   0  0  0  0  0  0  0  0  0  0  0  0
    9.1385  -14.7969   17.2945 N   0  0  0  0  0  0  0  0  0  0  0  0
    7.5786  -15.0539   21.3981 C   0  0  0  0  0  0  0  0  0  0  0  0
    6.9778  -14.0210   21.7680 O   0  0  0  0  0  0  0  0  0  0  0  0
    8.3099  -18.1723   24.2683 O   0  0  0  0  0  0  0  0  0  0  0  0
    7.0667  -17.6488   24.0136 C   0  0  0  0  0  0  0  0  0  0  0  0
    7.1212  -16.1775   23.6068 C   0  0  2  0  0  0  0  0  0  0  0  0
    7.6757  -16.1572   22.2549 N   0  0  0  0  0  0  0  0  0  0  0  0
    7.9310  -15.3731   24.5348 C   0  0  0  0  0  0  0  0  0  0  0  0
    9.1879  -15.2132   24.3900 O   0  0  0  0  0  0  0  0  0  0  0  0
    6.6332  -11.8609   25.8403 C   0  0  0  0  0  0  0  0  0  0  0  0
    7.1144  -12.6999   26.9949 C   0  0  1  0  0  0  0  0  0  0  0  0
    5.9252  -13.2214   27.7413 C   0  0  0  0  0  0  0  0  0  0  0  0
    8.0254  -13.8256   26.5192 C   0  0  2  0  0  0  0  0  0  0  0  0
    7.3457  -14.7314   25.6445 N   0  0  0  0  0  0  0  0  0  0  0  0
    8.6647  -14.4999   27.6708 C   0  0  0  0  0  0  0  0  0  0  0  0
    9.5453  -13.9039   28.5496 O   0  0  0  0  0  0  0  0  0  0  0  0
    8.3844  -15.7060   27.8629 O   0  0  0  0  0  0  0  0  0  0  0  0
  2  1  1  6
  3  2  1  0
  4  3  1  0
  5  4  2  0
  6  5  1  0
  7  6  1  0
  7  8  2  0
  8  4  1  0
  9  2  1  0
 10  9  2  0
 11 12  1  0
 13 12  1  1
 13 15  1  0
 13 14  1  0
 14  9  1  0
 15 21  1  0
 16 15  2  0
 18 20  1  0
 18 19  1  6
 18 17  1  0
 20 22  1  0
 20 21  1  1
 22 24  2  0
 22 23  1  0
M  END
$$$$
