WGS.pdb
     RDKit          3D

 25 26  0  0  1  0  0  0  0  0999 V2000
    7.9446  -17.5919   25.1672 N   0  0  0  0  0  0  0  0  0  0  0  0
    8.1522  -16.8243   23.9695 C   0  0  1  0  0  0  0  0  0  0  0  0
    8.4782  -15.3822   24.3009 C   0  0  0  0  0  0  0  0  0  0  0  0
    7.4007  -14.8276   25.1548 C   0  0  0  0  0  0  0  0  0  0  0  0
    6.3509  -15.5239   25.6910 C   0  0  0  0  0  0  0  0  0  0  0  0
    5.6026  -14.6647   26.3992 N   0  0  0  0  0  0  0  0  0  0  0  0
    6.1295  -13.4322   26.3425 C   0  0  0  0  0  0  0  0  0  0  0  0
    5.7687  -12.2066   26.8789 C   0  0  0  0  0  0  0  0  0  0  0  0
    6.5132  -11.0729   26.6523 C   0  0  0  0  0  0  0  0  0  0  0  0
    7.6422  -11.2025   25.8642 C   0  0  0  0  0  0  0  0  0  0  0  0
    8.0268  -12.4155   25.3150 C   0  0  0  0  0  0  0  0  0  0  0  0
    7.2594  -13.5272   25.5623 C   0  0  0  0  0  0  0  0  0  0  0  0
    9.2387  -17.4311   23.1308 C   0  0  0  0  0  0  0  0  0  0  0  0
   10.1904  -18.0643   23.6432 O   0  0  0  0  0  0  0  0  0  0  0  0
    9.2417  -17.3164   21.6993 N   0  0  0  0  0  0  0  0  0  0  0  0
   10.3394  -17.8226   20.9390 C   0  0  0  0  0  0  0  0  0  0  0  0
   11.5434  -16.9878   21.1572 C   0  0  0  0  0  0  0  0  0  0  0  0
   11.6774  -15.8781   20.5413 O   0  0  0  0  0  0  0  0  0  0  0  0
   13.8983  -17.8135   24.1332 O   0  0  0  0  0  0  0  0  0  0  0  0
   14.3725  -16.6308   23.5632 C   0  0  0  0  0  0  0  0  0  0  0  0
   13.7386  -16.5090   22.1986 C   0  0  2  0  0  0  0  0  0  0  0  0
   12.5957  -17.3487   22.0341 N   0  0  0  0  0  0  0  0  0  0  0  0
   14.7372  -16.8177   21.1603 C   0  0  0  0  0  0  0  0  0  0  0  0
   14.5501  -17.7398   20.3238 O   0  0  0  0  0  0  0  0  0  0  0  0
   15.9064  -16.0802   21.1008 O   0  0  0  0  0  0  0  0  0  0  0  0
  2  1  1  1
  2 13  1  0
  3  2  1  0
  4  3  1  0
  5  4  2  0
  6  5  1  0
  7  6  1  0
  7 12  2  0
  8  9  2  0
  8  7  1  0
  9 10  1  0
 10 11  2  0
 12 11  1  0
 12  4  1  0
 13 14  2  0
 13 15  1  0
 15 16  1  0
 17 18  2  0
 17 16  1  0
 21 20  1  1
 20 19  1  0
 21 22  1  0
 22 17  1  0
 23 21  1  0
 24 23  2  0
 25 23  1  0
M  END
$$$$
