WGS.pdb
     RDKit          3D

 25 26  0  0  1  0  0  0  0  0999 V2000
    6.3212  -17.8754   24.4566 N   0  0  0  0  0  0  0  0  0  0  0  0
    7.0438  -16.9285   23.6517 C   0  0  1  0  0  0  0  0  0  0  0  0
    7.9684  -16.0860   24.5069 C   0  0  0  0  0  0  0  0  0  0  0  0
    7.1525  -15.2053   25.3767 C   0  0  0  0  0  0  0  0  0  0  0  0
    6.2450  -15.6104   26.3184 C   0  0  0  0  0  0  0  0  0  0  0  0
    5.7220  -14.5142   26.8881 N   0  0  0  0  0  0  0  0  0  0  0  0
    6.2583  -13.4087   26.3492 C   0  0  0  0  0  0  0  0  0  0  0  0
    6.0802  -12.0512   26.5629 C   0  0  0  0  0  0  0  0  0  0  0  0
    6.7823  -11.1102   25.8469 C   0  0  0  0  0  0  0  0  0  0  0  0
    7.6779  -11.5723   24.8999 C   0  0  0  0  0  0  0  0  0  0  0  0
    7.8763  -12.9237   24.6652 C   0  0  0  0  0  0  0  0  0  0  0  0
    7.1578  -13.8355   25.3991 C   0  0  0  0  0  0  0  0  0  0  0  0
    7.8163  -17.6285   22.5721 C   0  0  0  0  0  0  0  0  0  0  0  0
    8.1021  -18.8457   22.6502 O   0  0  0  0  0  0  0  0  0  0  0  0
    8.2661  -16.9383   21.3959 N   0  0  0  0  0  0  0  0  0  0  0  0
    9.1615  -17.5769   20.4849 C   0  0  0  0  0  0  0  0  0  0  0  0
   10.5420  -17.0797   20.6884 C   0  0  0  0  0  0  0  0  0  0  0  0
   11.0897  -16.3263   19.8159 O   0  0  0  0  0  0  0  0  0  0  0  0
   12.2618  -16.3121   24.1532 O   0  0  0  0  0  0  0  0  0  0  0  0
   12.8514  -15.8558   22.9732 C   0  0  0  0  0  0  0  0  0  0  0  0
   12.6749  -16.9410   21.9388 C   0  0  2  0  0  0  0  0  0  0  0  0
   11.3257  -17.3939   21.8257 N   0  0  0  0  0  0  0  0  0  0  0  0
   13.5566  -18.0771   22.2588 C   0  0  0  0  0  0  0  0  0  0  0  0
   14.8038  -17.9332   22.3534 O   0  0  0  0  0  0  0  0  0  0  0  0
   13.0052  -19.3301   22.4603 O   0  0  0  0  0  0  0  0  0  0  0  0
  2  1  1  1
  2 13  1  0
  3  2  1  0
  4  3  1  0
  5  4  2  0
  6  5  1  0
  7  6  1  0
  7 12  2  0
  8  9  2  0
  8  7  1  0
  9 10  1  0
 10 11  2  0
 12 11  1  0
 12  4  1  0
 13 14  2  0
 13 15  1  0
 15 16  1  0
 17 18  2  0
 17 16  1  0
 21 20  1  1
 20 19  1  0
 21 22  1  0
 22 17  1  0
 23 21  1  0
 24 23  2  0
 25 23  1  0
M  END
$$$$
