WGS.pdb
     RDKit          3D

 25 26  0  0  1  0  0  0  0  0999 V2000
    7.2909  -18.0823   24.2790 N   0  0  0  0  0  0  0  0  0  0  0  0
    7.5969  -16.8870   23.5413 C   0  0  1  0  0  0  0  0  0  0  0  0
    8.3556  -15.8985   24.4035 C   0  0  0  0  0  0  0  0  0  0  0  0
    7.3871  -15.1221   25.2140 C   0  0  0  0  0  0  0  0  0  0  0  0
    6.3711  -15.6347   25.9751 C   0  0  0  0  0  0  0  0  0  0  0  0
    5.7265  -14.6086   26.5507 N   0  0  0  0  0  0  0  0  0  0  0  0
    6.2883  -13.4449   26.1903 C   0  0  0  0  0  0  0  0  0  0  0  0
    6.0251  -12.1173   26.4873 C   0  0  0  0  0  0  0  0  0  0  0  0
    6.7832  -11.0969   25.9630 C   0  0  0  0  0  0  0  0  0  0  0  0
    7.8243  -11.4474   25.1229 C   0  0  0  0  0  0  0  0  0  0  0  0
    8.1104  -12.7666   24.8085 C   0  0  0  0  0  0  0  0  0  0  0  0
    7.3323  -13.7600   25.3505 C   0  0  0  0  0  0  0  0  0  0  0  0
    8.3771  -17.2124   22.3014 C   0  0  0  0  0  0  0  0  0  0  0  0
    8.6595  -18.3930   21.9918 O   0  0  0  0  0  0  0  0  0  0  0  0
    8.8387  -16.1873   21.4080 N   0  0  0  0  0  0  0  0  0  0  0  0
    9.4698  -16.5371   20.1757 C   0  0  0  0  0  0  0  0  0  0  0  0
   10.8771  -16.9332   20.4139 C   0  0  0  0  0  0  0  0  0  0  0  0
   11.6195  -17.2887   19.4386 O   0  0  0  0  0  0  0  0  0  0  0  0
   13.3167  -15.5628   23.0699 O   0  0  0  0  0  0  0  0  0  0  0  0
   13.8410  -16.4756   22.1533 C   0  0  0  0  0  0  0  0  0  0  0  0
   12.7738  -17.5121   21.8972 C   0  0  2  0  0  0  0  0  0  0  0  0
   11.4787  -16.9458   21.6963 N   0  0  0  0  0  0  0  0  0  0  0  0
   12.7318  -18.4661   23.0190 C   0  0  0  0  0  0  0  0  0  0  0  0
   11.6857  -18.6331   23.6993 O   0  0  0  0  0  0  0  0  0  0  0  0
   13.8646  -19.1955   23.3341 O   0  0  0  0  0  0  0  0  0  0  0  0
  2  1  1  1
  2 13  1  0
  3  2  1  0
  4  3  1  0
  5  4  2  0
  6  5  1  0
  7  6  1  0
  7 12  2  0
  8  9  2  0
  8  7  1  0
  9 10  1  0
 10 11  2  0
 12 11  1  0
 12  4  1  0
 13 14  2  0
 13 15  1  0
 15 16  1  0
 17 18  2  0
 17 16  1  0
 21 20  1  1
 20 19  1  0
 21 22  1  0
 22 17  1  0
 23 21  1  0
 24 23  2  0
 25 23  1  0
M  END
$$$$
