WGS.pdb
     RDKit          3D

 25 26  0  0  1  0  0  0  0  0999 V2000
    8.1008  -17.7008   24.0137 N   0  0  0  0  0  0  0  0  0  0  0  0
    8.3122  -16.4934   23.2627 C   0  0  1  0  0  0  0  0  0  0  0  0
    8.7967  -15.3746   24.1624 C   0  0  0  0  0  0  0  0  0  0  0  0
    7.6600  -14.8845   24.9782 C   0  0  0  0  0  0  0  0  0  0  0  0
    6.6549  -15.6469   25.5100 C   0  0  0  0  0  0  0  0  0  0  0  0
    5.8262  -14.8314   26.1792 N   0  0  0  0  0  0  0  0  0  0  0  0
    6.2576  -13.5634   26.1013 C   0  0  0  0  0  0  0  0  0  0  0  0
    5.7908  -12.3567   26.5973 C   0  0  0  0  0  0  0  0  0  0  0  0
    6.4507  -11.1745   26.3569 C   0  0  0  0  0  0  0  0  0  0  0  0
    7.6044  -11.2353   25.5968 C   0  0  0  0  0  0  0  0  0  0  0  0
    8.0941  -12.4279   25.0881 C   0  0  0  0  0  0  0  0  0  0  0  0
    7.4093  -13.5894   25.3482 C   0  0  0  0  0  0  0  0  0  0  0  0
    9.2832  -16.7271   22.1426 C   0  0  0  0  0  0  0  0  0  0  0  0
   10.5219  -16.6943   22.3271 O   0  0  0  0  0  0  0  0  0  0  0  0
    8.8413  -17.0001   20.8038 N   0  0  0  0  0  0  0  0  0  0  0  0
    9.7895  -17.1150   19.7422 C   0  0  0  0  0  0  0  0  0  0  0  0
   10.8062  -18.1411   20.0706 C   0  0  0  0  0  0  0  0  0  0  0  0
   10.4846  -19.1703   20.7532 O   0  0  0  0  0  0  0  0  0  0  0  0
   14.0246  -18.5802   17.8400 O   0  0  0  0  0  0  0  0  0  0  0  0
   13.6883  -19.6753   18.6375 C   0  0  0  0  0  0  0  0  0  0  0  0
   13.0697  -19.1314   19.9026 C   0  0  2  0  0  0  0  0  0  0  0  0
   12.1608  -18.0563   19.6651 N   0  0  0  0  0  0  0  0  0  0  0  0
   14.1325  -18.6913   20.8230 C   0  0  0  0  0  0  0  0  0  0  0  0
   14.9928  -19.4973   21.2649 O   0  0  0  0  0  0  0  0  0  0  0  0
   14.1889  -17.3646   21.2118 O   0  0  0  0  0  0  0  0  0  0  0  0
  2  1  1  1
  2 13  1  0
  3  2  1  0
  4  3  1  0
  5  4  2  0
  6  5  1  0
  7  6  1  0
  7 12  2  0
  8  9  2  0
  8  7  1  0
  9 10  1  0
 10 11  2  0
 12 11  1  0
 12  4  1  0
 13 14  2  0
 13 15  1  0
 15 16  1  0
 17 18  2  0
 17 16  1  0
 21 20  1  6
 20 19  1  0
 21 22  1  0
 22 17  1  0
 23 21  1  0
 24 23  2  0
 25 23  1  0
M  END
$$$$
