WGS.pdb
     RDKit          3D

 25 26  0  0  1  0  0  0  0  0999 V2000
    6.7337  -17.6204   23.5006 N   0  0  0  0  0  0  0  0  0  0  0  0
    7.5918  -16.5179   23.1620 C   0  0  1  0  0  0  0  0  0  0  0  0
    8.3263  -16.0084   24.3855 C   0  0  0  0  0  0  0  0  0  0  0  0
    7.3862  -15.2236   25.2209 C   0  0  0  0  0  0  0  0  0  0  0  0
    6.3530  -15.7232   25.9674 C   0  0  0  0  0  0  0  0  0  0  0  0
    5.7452  -14.6932   26.5752 N   0  0  0  0  0  0  0  0  0  0  0  0
    6.3477  -13.5395   26.2499 C   0  0  0  0  0  0  0  0  0  0  0  0
    6.1316  -12.2132   26.5880 C   0  0  0  0  0  0  0  0  0  0  0  0
    6.9251  -11.2045   26.0941 C   0  0  0  0  0  0  0  0  0  0  0  0
    7.9528  -11.5656   25.2421 C   0  0  0  0  0  0  0  0  0  0  0  0
    8.1920  -12.8837   24.8870 C   0  0  0  0  0  0  0  0  0  0  0  0
    7.3795  -13.8652   25.3993 C   0  0  0  0  0  0  0  0  0  0  0  0
    8.5645  -16.9112   22.0890 C   0  0  0  0  0  0  0  0  0  0  0  0
    8.9654  -18.0915   21.9639 O   0  0  0  0  0  0  0  0  0  0  0  0
    9.0842  -15.9548   21.1523 N   0  0  0  0  0  0  0  0  0  0  0  0
   10.1757  -16.3022   20.2997 C   0  0  0  0  0  0  0  0  0  0  0  0
   11.4492  -16.2664   21.0555 C   0  0  0  0  0  0  0  0  0  0  0  0
   12.5652  -16.3295   20.4395 O   0  0  0  0  0  0  0  0  0  0  0  0
   11.4400  -16.3019   25.0681 O   0  0  0  0  0  0  0  0  0  0  0  0
   12.6647  -15.8179   24.6054 C   0  0  0  0  0  0  0  0  0  0  0  0
   12.7715  -16.1973   23.1482 C   0  0  2  0  0  0  0  0  0  0  0  0
   11.5174  -16.1636   22.4666 N   0  0  0  0  0  0  0  0  0  0  0  0
   13.3674  -17.5393   23.0291 C   0  0  0  0  0  0  0  0  0  0  0  0
   12.7577  -18.4791   22.4545 O   0  0  0  0  0  0  0  0  0  0  0  0
   14.6236  -17.7750   23.5591 O   0  0  0  0  0  0  0  0  0  0  0  0
  2  1  1  1
  2 13  1  0
  3  2  1  0
  4  3  1  0
  5  4  2  0
  6  5  1  0
  7  6  1  0
  7 12  2  0
  8  9  2  0
  8  7  1  0
  9 10  1  0
 10 11  2  0
 12 11  1  0
 12  4  1  0
 13 14  2  0
 13 15  1  0
 15 16  1  0
 17 18  2  0
 17 16  1  0
 21 20  1  1
 20 19  1  0
 21 22  1  0
 22 17  1  0
 23 21  1  0
 24 23  2  0
 25 23  1  0
M  END
$$$$
