WGS.pdb
     RDKit          3D

 25 26  0  0  1  0  0  0  0  0999 V2000
    8.2024  -17.2990   23.6295 N   0  0  0  0  0  0  0  0  0  0  0  0
    7.4706  -16.4781   22.7036 C   0  0  1  0  0  0  0  0  0  0  0  0
    7.6618  -15.0079   23.0162 C   0  0  0  0  0  0  0  0  0  0  0  0
    7.1426  -14.7321   24.3772 C   0  0  0  0  0  0  0  0  0  0  0  0
    6.5012  -15.6218   25.1965 C   0  0  0  0  0  0  0  0  0  0  0  0
    6.1935  -14.9867   26.3374 N   0  0  0  0  0  0  0  0  0  0  0  0
    6.6129  -13.7132   26.2889 C   0  0  0  0  0  0  0  0  0  0  0  0
    6.5540  -12.6471   27.1721 C   0  0  0  0  0  0  0  0  0  0  0  0
    7.0795  -11.4169   26.8537 C   0  0  0  0  0  0  0  0  0  0  0  0
    7.6723  -11.2827   25.6115 C   0  0  0  0  0  0  0  0  0  0  0  0
    7.7455  -12.3316   24.7085 C   0  0  0  0  0  0  0  0  0  0  0  0
    7.2102  -13.5464   25.0602 C   0  0  0  0  0  0  0  0  0  0  0  0
    7.8810  -16.7744   21.2909 C   0  0  0  0  0  0  0  0  0  0  0  0
    7.3111  -16.2375   20.3130 O   0  0  0  0  0  0  0  0  0  0  0  0
    8.9474  -17.6878   20.9893 N   0  0  0  0  0  0  0  0  0  0  0  0
    9.8957  -17.3752   19.9684 C   0  0  0  0  0  0  0  0  0  0  0  0
   11.2081  -17.0446   20.5706 C   0  0  0  0  0  0  0  0  0  0  0  0
   12.2060  -16.7656   19.8255 O   0  0  0  0  0  0  0  0  0  0  0  0
   11.8694  -16.6408   24.6578 O   0  0  0  0  0  0  0  0  0  0  0  0
   12.7175  -15.9657   23.7785 C   0  0  0  0  0  0  0  0  0  0  0  0
   12.7437  -16.7545   22.4916 C   0  0  2  0  0  0  0  0  0  0  0  0
   11.4417  -17.0158   21.9674 N   0  0  0  0  0  0  0  0  0  0  0  0
   13.4591  -18.0246   22.7047 C   0  0  0  0  0  0  0  0  0  0  0  0
   14.6660  -18.0456   23.0624 O   0  0  0  0  0  0  0  0  0  0  0  0
   12.7931  -19.2214   22.5084 O   0  0  0  0  0  0  0  0  0  0  0  0
  2  1  1  1
  2 13  1  0
  3  2  1  0
  4  3  1  0
  5  4  2  0
  6  5  1  0
  7  6  1  0
  7 12  2  0
  8  9  2  0
  8  7  1  0
  9 10  1  0
 10 11  2  0
 12 11  1  0
 12  4  1  0
 13 14  2  0
 13 15  1  0
 15 16  1  0
 17 18  2  0
 17 16  1  0
 21 20  1  1
 20 19  1  0
 21 22  1  0
 22 17  1  0
 23 21  1  0
 24 23  2  0
 25 23  1  0
M  END
$$$$
