WGS.pdb
     RDKit          3D

 25 26  0  0  1  0  0  0  0  0999 V2000
    9.8789  -15.3784   22.7160 N   0  0  0  0  0  0  0  0  0  0  0  0
    9.2960  -15.9515   23.8985 C   0  0  1  0  0  0  0  0  0  0  0  0
    7.7829  -15.9008   23.8348 C   0  0  0  0  0  0  0  0  0  0  0  0
    7.3478  -14.4838   23.8123 C   0  0  0  0  0  0  0  0  0  0  0  0
    7.0478  -13.7448   22.6996 C   0  0  0  0  0  0  0  0  0  0  0  0
    6.6965  -12.5142   23.1020 N   0  0  0  0  0  0  0  0  0  0  0  0
    6.7575  -12.4266   24.4393 C   0  0  0  0  0  0  0  0  0  0  0  0
    6.5061  -11.4121   25.3490 C   0  0  0  0  0  0  0  0  0  0  0  0
    6.6541  -11.6040   26.7026 C   0  0  0  0  0  0  0  0  0  0  0  0
    7.0661  -12.8550   27.1244 C   0  0  0  0  0  0  0  0  0  0  0  0
    7.3245  -13.8879   26.2372 C   0  0  0  0  0  0  0  0  0  0  0  0
    7.1660  -13.6605   24.8922 C   0  0  0  0  0  0  0  0  0  0  0  0
    9.7684  -17.3624   24.0941 C   0  0  0  0  0  0  0  0  0  0  0  0
    9.2991  -18.0952   24.9953 O   0  0  0  0  0  0  0  0  0  0  0  0
   10.7815  -17.9430   23.2582 N   0  0  0  0  0  0  0  0  0  0  0  0
   11.3091  -19.2355   23.5589 C   0  0  0  0  0  0  0  0  0  0  0  0
   12.1456  -19.1772   24.7801 C   0  0  0  0  0  0  0  0  0  0  0  0
   13.3056  -18.6465   24.7407 O   0  0  0  0  0  0  0  0  0  0  0  0
   12.7701  -19.5904   29.5094 O   0  0  0  0  0  0  0  0  0  0  0  0
   11.8249  -19.5808   28.4824 C   0  0  0  0  0  0  0  0  0  0  0  0
   12.5844  -19.6122   27.1781 C   0  0  2  0  0  0  0  0  0  0  0  0
   11.7327  -19.6885   26.0349 N   0  0  0  0  0  0  0  0  0  0  0  0
   13.5209  -20.7494   27.1786 C   0  0  0  0  0  0  0  0  0  0  0  0
   13.4428  -21.6638   26.3166 O   0  0  0  0  0  0  0  0  0  0  0  0
   14.5082  -20.8169   28.1457 O   0  0  0  0  0  0  0  0  0  0  0  0
  2  1  1  6
  2 13  1  0
  3  2  1  0
  4  3  1  0
  5  4  2  0
  6  5  1  0
  7  6  1  0
  7 12  2  0
  8  9  2  0
  8  7  1  0
  9 10  1  0
 10 11  2  0
 12 11  1  0
 12  4  1  0
 13 14  2  0
 13 15  1  0
 15 16  1  0
 17 18  2  0
 17 16  1  0
 21 20  1  1
 20 19  1  0
 21 22  1  0
 22 17  1  0
 23 21  1  0
 24 23  2  0
 25 23  1  0
M  END
$$$$
