WGS.pdb
     RDKit          3D

 25 26  0  0  1  0  0  0  0  0999 V2000
    8.4869  -16.6930   23.9231 N   0  0  0  0  0  0  0  0  0  0  0  0
    7.9306  -16.1756   22.7027 C   0  0  1  0  0  0  0  0  0  0  0  0
    7.4972  -14.7338   22.8742 C   0  0  0  0  0  0  0  0  0  0  0  0
    7.0788  -14.5195   24.2802 C   0  0  0  0  0  0  0  0  0  0  0  0
    6.5119  -15.4503   25.1088 C   0  0  0  0  0  0  0  0  0  0  0  0
    6.2833  -14.8651   26.2942 N   0  0  0  0  0  0  0  0  0  0  0  0
    6.6821  -13.5844   26.2656 C   0  0  0  0  0  0  0  0  0  0  0  0
    6.6768  -12.5547   27.1928 C   0  0  0  0  0  0  0  0  0  0  0  0
    7.1615  -11.3051   26.8856 C   0  0  0  0  0  0  0  0  0  0  0  0
    7.6572  -11.1133   25.6089 C   0  0  0  0  0  0  0  0  0  0  0  0
    7.6751  -12.1248   24.6616 C   0  0  0  0  0  0  0  0  0  0  0  0
    7.1829  -13.3605   25.0033 C   0  0  0  0  0  0  0  0  0  0  0  0
    8.9136  -16.3000   21.5756 C   0  0  0  0  0  0  0  0  0  0  0  0
    8.7015  -15.7791   20.4561 O   0  0  0  0  0  0  0  0  0  0  0  0
   10.1460  -17.0220   21.7238 N   0  0  0  0  0  0  0  0  0  0  0  0
   11.0661  -17.1064   20.6350 C   0  0  0  0  0  0  0  0  0  0  0  0
   12.2945  -17.8200   21.0549 C   0  0  0  0  0  0  0  0  0  0  0  0
   12.6396  -17.8387   22.2834 O   0  0  0  0  0  0  0  0  0  0  0  0
   14.1090  -20.8302   18.9814 O   0  0  0  0  0  0  0  0  0  0  0  0
   15.0340  -19.9382   19.5262 C   0  0  0  0  0  0  0  0  0  0  0  0
   14.3235  -19.1693   20.6139 C   0  0  2  0  0  0  0  0  0  0  0  0
   13.1444  -18.5082   20.1547 N   0  0  0  0  0  0  0  0  0  0  0  0
   15.2464  -18.1867   21.2082 C   0  0  0  0  0  0  0  0  0  0  0  0
   15.5063  -17.0983   20.6312 O   0  0  0  0  0  0  0  0  0  0  0  0
   15.8416  -18.4629   22.4264 O   0  0  0  0  0  0  0  0  0  0  0  0
  2  1  1  1
  2 13  1  0
  3  2  1  0
  4  3  1  0
  5  4  2  0
  6  5  1  0
  7  6  1  0
  7 12  2  0
  8  9  2  0
  8  7  1  0
  9 10  1  0
 10 11  2  0
 12 11  1  0
 12  4  1  0
 13 14  2  0
 13 15  1  0
 15 16  1  0
 17 18  2  0
 17 16  1  0
 21 20  1  6
 20 19  1  0
 21 22  1  0
 22 17  1  0
 23 21  1  0
 24 23  2  0
 25 23  1  0
M  END
$$$$
