WGS.pdb
     RDKit          3D

 25 26  0  0  1  0  0  0  0  0999 V2000
    7.0990  -17.4850   23.5861 N   0  0  0  0  0  0  0  0  0  0  0  0
    6.7965  -16.6641   22.4454 C   0  0  1  0  0  0  0  0  0  0  0  0
    6.3891  -15.2694   22.8755 C   0  0  0  0  0  0  0  0  0  0  0  0
    6.7003  -15.0978   24.3147 C   0  0  0  0  0  0  0  0  0  0  0  0
    6.8528  -16.0982   25.2368 C   0  0  0  0  0  0  0  0  0  0  0  0
    7.1283  -15.5316   26.4211 N   0  0  0  0  0  0  0  0  0  0  0  0
    7.1604  -14.1956   26.3017 C   0  0  0  0  0  0  0  0  0  0  0  0
    7.3928  -13.1563   27.1881 C   0  0  0  0  0  0  0  0  0  0  0  0
    7.3632  -11.8426   26.7830 C   0  0  0  0  0  0  0  0  0  0  0  0
    7.0909  -11.5961   25.4497 C   0  0  0  0  0  0  0  0  0  0  0  0
    6.8547  -12.6157   24.5412 C   0  0  0  0  0  0  0  0  0  0  0  0
    6.8924  -13.9161   24.9810 C   0  0  0  0  0  0  0  0  0  0  0  0
    7.9662  -16.6058   21.5071 C   0  0  0  0  0  0  0  0  0  0  0  0
    8.0813  -15.6959   20.6537 O   0  0  0  0  0  0  0  0  0  0  0  0
    9.0118  -17.5895   21.5406 N   0  0  0  0  0  0  0  0  0  0  0  0
   10.1523  -17.4569   20.6916 C   0  0  0  0  0  0  0  0  0  0  0  0
   11.3264  -17.0078   21.4752 C   0  0  0  0  0  0  0  0  0  0  0  0
   12.4361  -16.7684   20.8919 O   0  0  0  0  0  0  0  0  0  0  0  0
   11.3006  -16.8564   25.5587 O   0  0  0  0  0  0  0  0  0  0  0  0
   12.1763  -15.9300   24.9901 C   0  0  0  0  0  0  0  0  0  0  0  0
   12.4701  -16.3990   23.5856 C   0  0  2  0  0  0  0  0  0  0  0  0
   11.3028  -16.8188   22.8788 N   0  0  0  0  0  0  0  0  0  0  0  0
   13.4501  -17.4982   23.6263 C   0  0  0  0  0  0  0  0  0  0  0  0
   13.1924  -18.6255   23.1286 O   0  0  0  0  0  0  0  0  0  0  0  0
   14.6808  -17.2902   24.2236 O   0  0  0  0  0  0  0  0  0  0  0  0
  2  1  1  1
  2 13  1  0
  3  2  1  0
  4  3  1  0
  5  4  2  0
  6  5  1  0
  7  6  1  0
  7 12  2  0
  8  9  2  0
  8  7  1  0
  9 10  1  0
 10 11  2  0
 12 11  1  0
 12  4  1  0
 13 14  2  0
 13 15  1  0
 15 16  1  0
 17 18  2  0
 17 16  1  0
 21 20  1  1
 20 19  1  0
 21 22  1  0
 22 17  1  0
 23 21  1  0
 24 23  2  0
 25 23  1  0
M  END
$$$$
