WGS.pdb
     RDKit          3D

 25 26  0  0  1  0  0  0  0  0999 V2000
    7.3104  -17.7465   22.4362 N   0  0  0  0  0  0  0  0  0  0  0  0
    8.0711  -16.5781   22.7867 C   0  0  1  0  0  0  0  0  0  0  0  0
    7.6095  -16.0101   24.1135 C   0  0  0  0  0  0  0  0  0  0  0  0
    7.3151  -14.5670   23.9446 C   0  0  0  0  0  0  0  0  0  0  0  0
    7.1966  -13.8967   22.7568 C   0  0  0  0  0  0  0  0  0  0  0  0
    6.9260  -12.6118   23.0314 N   0  0  0  0  0  0  0  0  0  0  0  0
    6.8641  -12.4225   24.3582 C   0  0  0  0  0  0  0  0  0  0  0  0
    6.6224  -11.3200   25.1619 C   0  0  0  0  0  0  0  0  0  0  0  0
    6.6187  -11.4144   26.5338 C   0  0  0  0  0  0  0  0  0  0  0  0
    6.8669  -12.6584   27.0845 C   0  0  0  0  0  0  0  0  0  0  0  0
    7.1117  -13.7780   26.3051 C   0  0  0  0  0  0  0  0  0  0  0  0
    7.1076  -13.6467   24.9381 C   0  0  0  0  0  0  0  0  0  0  0  0
    9.5380  -16.8918   22.8293 C   0  0  0  0  0  0  0  0  0  0  0  0
   10.3590  -16.3040   22.0877 O   0  0  0  0  0  0  0  0  0  0  0  0
   10.0739  -17.8808   23.7220 N   0  0  0  0  0  0  0  0  0  0  0  0
   11.0704  -17.5215   24.6797 C   0  0  0  0  0  0  0  0  0  0  0  0
   11.3104  -18.6436   25.6164 C   0  0  0  0  0  0  0  0  0  0  0  0
   10.3367  -19.1735   26.2488 O   0  0  0  0  0  0  0  0  0  0  0  0
   15.0426  -19.6954   27.0345 O   0  0  0  0  0  0  0  0  0  0  0  0
   14.1810  -20.7781   26.8513 C   0  0  0  0  0  0  0  0  0  0  0  0
   12.7748  -20.2294   26.8303 C   0  0  2  0  0  0  0  0  0  0  0  0
   12.5928  -19.1897   25.8689 N   0  0  0  0  0  0  0  0  0  0  0  0
   12.4166  -19.7361   28.1715 C   0  0  0  0  0  0  0  0  0  0  0  0
   12.1506  -18.5223   28.3745 O   0  0  0  0  0  0  0  0  0  0  0  0
   12.3706  -20.6231   29.2324 O   0  0  0  0  0  0  0  0  0  0  0  0
  2  1  1  1
  2 13  1  0
  3  2  1  0
  4  3  1  0
  5  4  2  0
  6  5  1  0
  7  6  1  0
  7 12  2  0
  8  9  2  0
  8  7  1  0
  9 10  1  0
 10 11  2  0
 12 11  1  0
 12  4  1  0
 13 14  2  0
 13 15  1  0
 15 16  1  0
 17 18  2  0
 17 16  1  0
 21 20  1  1
 20 19  1  0
 21 22  1  0
 22 17  1  0
 23 21  1  0
 24 23  2  0
 25 23  1  0
M  END
$$$$
