WGS.pdb
     RDKit          3D

 25 26  0  0  1  0  0  0  0  0999 V2000
    8.2434  -16.0541   22.1733 N   0  0  0  0  0  0  0  0  0  0  0  0
    9.0404  -16.0725   23.3696 C   0  0  1  0  0  0  0  0  0  0  0  0
    8.2363  -15.5973   24.5627 C   0  0  0  0  0  0  0  0  0  0  0  0
    7.6228  -14.2868   24.2404 C   0  0  0  0  0  0  0  0  0  0  0  0
    7.3364  -13.8108   22.9891 C   0  0  0  0  0  0  0  0  0  0  0  0
    6.7893  -12.5934   23.1242 N   0  0  0  0  0  0  0  0  0  0  0  0
    6.7096  -12.2602   24.4213 C   0  0  0  0  0  0  0  0  0  0  0  0
    6.2408  -11.1477   25.1013 C   0  0  0  0  0  0  0  0  0  0  0  0
    6.2822  -11.0707   26.4736 C   0  0  0  0  0  0  0  0  0  0  0  0
    6.8127  -12.1517   27.1537 C   0  0  0  0  0  0  0  0  0  0  0  0
    7.2887  -13.2771   26.4997 C   0  0  0  0  0  0  0  0  0  0  0  0
    7.2315  -13.3196   25.1283 C   0  0  0  0  0  0  0  0  0  0  0  0
    9.5930  -17.4452   23.6193 C   0  0  0  0  0  0  0  0  0  0  0  0
    9.1475  -18.4531   23.0233 O   0  0  0  0  0  0  0  0  0  0  0  0
   10.6599  -17.6722   24.5534 N   0  0  0  0  0  0  0  0  0  0  0  0
   10.4667  -18.5420   25.6693 C   0  0  0  0  0  0  0  0  0  0  0  0
   11.7017  -18.6138   26.4842 C   0  0  0  0  0  0  0  0  0  0  0  0
   12.7375  -17.9510   26.1426 O   0  0  0  0  0  0  0  0  0  0  0  0
   11.7882  -19.5735   30.3215 O   0  0  0  0  0  0  0  0  0  0  0  0
   12.9207  -20.1278   29.7229 C   0  0  0  0  0  0  0  0  0  0  0  0
   13.0581  -19.4951   28.3592 C   0  0  2  0  0  0  0  0  0  0  0  0
   11.8176  -19.3960   27.6594 N   0  0  0  0  0  0  0  0  0  0  0  0
   14.0246  -20.2616   27.5537 C   0  0  0  0  0  0  0  0  0  0  0  0
   13.6868  -20.8132   26.4736 O   0  0  0  0  0  0  0  0  0  0  0  0
   15.3320  -20.3796   27.9910 O   0  0  0  0  0  0  0  0  0  0  0  0
  2  1  1  6
  2 13  1  0
  3  2  1  0
  4  3  1  0
  5  4  2  0
  6  5  1  0
  7  6  1  0
  7 12  2  0
  8  9  2  0
  8  7  1  0
  9 10  1  0
 10 11  2  0
 12 11  1  0
 12  4  1  0
 13 14  2  0
 13 15  1  0
 15 16  1  0
 17 18  2  0
 17 16  1  0
 21 20  1  1
 20 19  1  0
 21 22  1  0
 22 17  1  0
 23 21  1  0
 24 23  2  0
 25 23  1  0
M  END
$$$$
