WGS.pdb
     RDKit          3D

 25 26  0  0  1  0  0  0  0  0999 V2000
    9.3952  -14.6930   21.3893 N   0  0  0  0  0  0  0  0  0  0  0  0
    9.2488  -15.1963   22.7279 C   0  0  1  0  0  0  0  0  0  0  0  0
    7.7956  -15.4923   23.0385 C   0  0  0  0  0  0  0  0  0  0  0  0
    7.1464  -14.2555   23.5351 C   0  0  0  0  0  0  0  0  0  0  0  0
    6.2058  -13.5116   22.8747 C   0  0  0  0  0  0  0  0  0  0  0  0
    5.8714  -12.4758   23.6590 N   0  0  0  0  0  0  0  0  0  0  0  0
    6.5625  -12.5200   24.8081 C   0  0  0  0  0  0  0  0  0  0  0  0
    6.6027  -11.7181   25.9374 C   0  0  0  0  0  0  0  0  0  0  0  0
    7.4286  -12.0071   26.9982 C   0  0  0  0  0  0  0  0  0  0  0  0
    8.2224  -13.1348   26.8950 C   0  0  0  0  0  0  0  0  0  0  0  0
    8.2027  -13.9548   25.7778 C   0  0  0  0  0  0  0  0  0  0  0  0
    7.3654  -13.6356   24.7371 C   0  0  0  0  0  0  0  0  0  0  0  0
   10.0914  -16.4215   22.9304 C   0  0  0  0  0  0  0  0  0  0  0  0
   11.2481  -16.5109   22.4579 O   0  0  0  0  0  0  0  0  0  0  0  0
    9.6141  -17.5523   23.6759 N   0  0  0  0  0  0  0  0  0  0  0  0
    9.0715  -17.3745   24.9848 C   0  0  0  0  0  0  0  0  0  0  0  0
    9.8469  -18.1597   25.9730 C   0  0  0  0  0  0  0  0  0  0  0  0
    9.2530  -18.7415   26.9413 O   0  0  0  0  0  0  0  0  0  0  0  0
   13.6556  -18.8013   25.2273 O   0  0  0  0  0  0  0  0  0  0  0  0
   13.4139  -19.3159   26.5021 C   0  0  0  0  0  0  0  0  0  0  0  0
   11.9196  -19.2938   26.7150 C   0  0  2  0  0  0  0  0  0  0  0  0
   11.2537  -18.3154   25.9164 N   0  0  0  0  0  0  0  0  0  0  0  0
   11.6265  -19.0577   28.1394 C   0  0  0  0  0  0  0  0  0  0  0  0
   10.8590  -18.1295   28.5060 O   0  0  0  0  0  0  0  0  0  0  0  0
   12.2057  -19.8716   29.0968 O   0  0  0  0  0  0  0  0  0  0  0  0
  2  1  1  6
  2 13  1  0
  3  2  1  0
  4  3  1  0
  5  4  2  0
  6  5  1  0
  7  6  1  0
  7 12  2  0
  8  9  2  0
  8  7  1  0
  9 10  1  0
 10 11  2  0
 12 11  1  0
 12  4  1  0
 13 14  2  0
 13 15  1  0
 15 16  1  0
 17 18  2  0
 17 16  1  0
 21 20  1  1
 20 19  1  0
 21 22  1  0
 22 17  1  0
 23 21  1  0
 24 23  2  0
 25 23  1  0
M  END
$$$$
