FMP.pdb
     RDKit          3D

 27 28  0  0  1  0  0  0  0  0999 V2000
    5.7329  -18.0735   25.5056 N   0  0  0  0  0  0  0  0  0  0  0  0
    6.1749  -16.7153   25.2650 C   0  0  1  0  0  0  0  0  0  0  0  0
    6.7699  -16.1692   26.5301 C   0  0  0  0  0  0  0  0  0  0  0  0
    6.9947  -14.7303   26.5151 C   0  0  0  0  0  0  0  0  0  0  0  0
    5.8837  -13.8858   26.4071 C   0  0  0  0  0  0  0  0  0  0  0  0
    6.0924  -12.5198   26.3916 C   0  0  0  0  0  0  0  0  0  0  0  0
    7.3624  -11.9803   26.4798 C   0  0  0  0  0  0  0  0  0  0  0  0
    8.4513  -12.8424   26.5866 C   0  0  0  0  0  0  0  0  0  0  0  0
    8.2679  -14.2095   26.6041 C   0  0  0  0  0  0  0  0  0  0  0  0
    7.2363  -16.7769   24.1918 C   0  0  0  0  0  0  0  0  0  0  0  0
    7.9597  -17.7962   24.0671 O   0  0  0  0  0  0  0  0  0  0  0  0
    8.8066  -12.5816   19.0178 C   0  0  0  0  0  0  0  0  0  0  0  0
    7.1427  -12.9056   19.6053 S   0  0  0  0  0  0  0  0  0  0  0  0
    7.0821  -14.4372   20.5941 C   0  0  0  0  0  0  0  0  0  0  0  0
    8.3610  -14.4745   21.4084 C   0  0  0  0  0  0  0  0  0  0  0  0
    8.4332  -15.7149   22.2652 C   0  0  2  0  0  0  0  0  0  0  0  0
    7.4310  -15.6888   23.3124 N   0  0  0  0  0  0  0  0  0  0  0  0
    9.7664  -15.8953   22.8894 C   0  0  0  0  0  0  0  0  0  0  0  0
   10.0125  -15.4146   24.0464 O   0  0  0  0  0  0  0  0  0  0  0  0
   10.8484  -16.5964   22.2758 N   0  0  0  0  0  0  0  0  0  0  0  0
   10.8708  -17.2332   20.9763 C   0  0  0  0  0  0  0  0  0  0  0  0
   11.7458  -18.4633   21.2002 C   0  0  0  0  0  0  0  0  0  0  0  0
   12.4028  -18.2729   22.5499 C   0  0  0  0  0  0  0  0  0  0  0  0
   12.1717  -16.8069   22.8405 C   0  0  1  0  0  0  0  0  0  0  0  0
   13.1762  -15.9520   22.1667 C   0  0  0  0  0  0  0  0  0  0  0  0
   12.9835  -15.4237   21.0608 O   0  0  0  0  0  0  0  0  0  0  0  0
   14.3959  -15.7210   22.7886 O   0  0  0  0  0  0  0  0  0  0  0  0
  2  1  1  1
  3  2  1  0
  4  9  1  0
  4  3  1  0
  5  4  2  0
  6  7  2  0
  6  5  1  0
  7  8  1  0
  8  9  2  0
 10 17  1  0
 10  2  1  0
 11 10  2  0
 13 12  1  0
 14 13  1  0
 15 14  1  0
 16 15  1  1
 16 17  1  0
 18 19  2  0
 18 16  1  0
 20 18  1  0
 21 20  1  0
 22 21  1  0
 23 22  1  0
 24 23  1  0
 24 20  1  0
 24 25  1  6
 26 25  2  0
 27 25  1  0
M  END
$$$$
