FMP.pdb
     RDKit          3D

 27 28  0  0  1  0  0  0  0  0999 V2000
    3.9833  -20.1169   23.3165 N   0  0  0  0  0  0  0  0  0  0  0  0
    5.3151  -19.8235   23.8047 C   0  0  1  0  0  0  0  0  0  0  0  0
    6.3068  -20.6309   23.0190 C   0  0  0  0  0  0  0  0  0  0  0  0
    7.5708  -20.8612   23.7049 C   0  0  0  0  0  0  0  0  0  0  0  0
    8.7433  -20.3698   23.1193 C   0  0  0  0  0  0  0  0  0  0  0  0
    9.9449  -20.5868   23.7663 C   0  0  0  0  0  0  0  0  0  0  0  0
   10.0082  -21.2717   24.9658 C   0  0  0  0  0  0  0  0  0  0  0  0
    8.8269  -21.7505   25.5277 C   0  0  0  0  0  0  0  0  0  0  0  0
    7.6155  -21.5462   24.9004 C   0  0  0  0  0  0  0  0  0  0  0  0
    5.5605  -18.3516   23.5690 C   0  0  0  0  0  0  0  0  0  0  0  0
    5.3097  -17.8333   22.4527 O   0  0  0  0  0  0  0  0  0  0  0  0
    7.5735  -11.4243   26.8650 C   0  0  0  0  0  0  0  0  0  0  0  0
    7.0750  -13.1403   27.0250 S   0  0  0  0  0  0  0  0  0  0  0  0
    7.1256  -13.9917   25.4127 C   0  0  0  0  0  0  0  0  0  0  0  0
    6.5689  -15.3835   25.6434 C   0  0  0  0  0  0  0  0  0  0  0  0
    6.5165  -16.1763   24.3602 C   0  0  2  0  0  0  0  0  0  0  0  0
    6.0759  -17.5363   24.6009 N   0  0  0  0  0  0  0  0  0  0  0  0
    7.8266  -16.2182   23.6663 C   0  0  0  0  0  0  0  0  0  0  0  0
    8.6198  -17.2043   23.8352 O   0  0  0  0  0  0  0  0  0  0  0  0
    8.2961  -15.2001   22.7822 N   0  0  0  0  0  0  0  0  0  0  0  0
    7.8462  -13.8276   22.6894 C   0  0  0  0  0  0  0  0  0  0  0  0
    7.9392  -13.5250   21.1965 C   0  0  0  0  0  0  0  0  0  0  0  0
    8.7228  -14.6651   20.5836 C   0  0  0  0  0  0  0  0  0  0  0  0
    9.3459  -15.3387   21.7857 C   0  0  1  0  0  0  0  0  0  0  0  0
   10.5814  -14.6467   22.2197 C   0  0  0  0  0  0  0  0  0  0  0  0
   10.6631  -14.0075   23.2799 O   0  0  0  0  0  0  0  0  0  0  0  0
   11.7103  -14.7063   21.4135 O   0  0  0  0  0  0  0  0  0  0  0  0
  2  1  1  6
  3  2  1  0
  4  9  1  0
  4  3  1  0
  5  4  2  0
  6  7  2  0
  6  5  1  0
  7  8  1  0
  8  9  2  0
 10 17  1  0
 10  2  1  0
 11 10  2  0
 13 12  1  0
 14 13  1  0
 15 14  1  0
 16 15  1  1
 16 17  1  0
 18 19  2  0
 18 16  1  0
 20 18  1  0
 21 20  1  0
 22 21  1  0
 23 22  1  0
 24 23  1  0
 24 20  1  0
 24 25  1  1
 26 25  2  0
 27 25  1  0
M  END
$$$$
