FMP.pdb
     RDKit          3D

 27 28  0  0  1  0  0  0  0  0999 V2000
    6.1496  -18.1430   26.0032 N   0  0  0  0  0  0  0  0  0  0  0  0
    6.4447  -16.7700   25.6488 C   0  0  1  0  0  0  0  0  0  0  0  0
    7.3298  -16.1772   26.7062 C   0  0  0  0  0  0  0  0  0  0  0  0
    7.3489  -14.7210   26.7256 C   0  0  0  0  0  0  0  0  0  0  0  0
    8.5886  -14.0726   26.6835 C   0  0  0  0  0  0  0  0  0  0  0  0
    8.6114  -12.6910   26.7026 C   0  0  0  0  0  0  0  0  0  0  0  0
    7.4466  -11.9483   26.7617 C   0  0  0  0  0  0  0  0  0  0  0  0
    6.2257  -12.6177   26.8026 C   0  0  0  0  0  0  0  0  0  0  0  0
    6.1778  -13.9962   26.7847 C   0  0  0  0  0  0  0  0  0  0  0  0
    7.1815  -16.7999   24.3303 C   0  0  0  0  0  0  0  0  0  0  0  0
    7.9506  -17.7527   24.0503 O   0  0  0  0  0  0  0  0  0  0  0  0
    7.2456  -11.6194   20.3572 C   0  0  0  0  0  0  0  0  0  0  0  0
    7.6595  -12.9138   19.1859 S   0  0  0  0  0  0  0  0  0  0  0  0
    8.1907  -14.4321   20.0460 C   0  0  0  0  0  0  0  0  0  0  0  0
    7.4413  -14.4646   21.3641 C   0  0  0  0  0  0  0  0  0  0  0  0
    7.7654  -15.7102   22.1523 C   0  0  2  0  0  0  0  0  0  0  0  0
    7.0164  -15.7565   23.3926 N   0  0  0  0  0  0  0  0  0  0  0  0
    9.2105  -15.8216   22.4667 C   0  0  0  0  0  0  0  0  0  0  0  0
    9.7033  -15.2193   23.4790 O   0  0  0  0  0  0  0  0  0  0  0  0
   10.1402  -16.5834   21.6961 N   0  0  0  0  0  0  0  0  0  0  0  0
    9.9114  -17.2467   20.4302 C   0  0  0  0  0  0  0  0  0  0  0  0
   10.7601  -18.5106   20.5345 C   0  0  0  0  0  0  0  0  0  0  0  0
   11.6478  -18.3233   21.7455 C   0  0  0  0  0  0  0  0  0  0  0  0
   11.5313  -16.8427   22.0308 C   0  0  1  0  0  0  0  0  0  0  0  0
   12.4388  -16.0482   21.1711 C   0  0  0  0  0  0  0  0  0  0  0  0
   13.6465  -15.9016   21.4144 O   0  0  0  0  0  0  0  0  0  0  0  0
   11.9297  -15.4318   20.0359 O   0  0  0  0  0  0  0  0  0  0  0  0
  2  1  1  1
  3  2  1  0
  4  9  1  0
  4  3  1  0
  5  4  2  0
  6  7  2  0
  6  5  1  0
  7  8  1  0
  8  9  2  0
 10 17  1  0
 10  2  1  0
 11 10  2  0
 13 12  1  0
 14 13  1  0
 15 14  1  0
 16 15  1  1
 16 17  1  0
 18 19  2  0
 18 16  1  0
 20 18  1  0
 21 20  1  0
 22 21  1  0
 23 22  1  0
 24 23  1  0
 24 20  1  0
 24 25  1  6
 26 25  2  0
 27 25  1  0
M  END
$$$$
