FMP.pdb
     RDKit          3D

 27 28  0  0  1  0  0  0  0  0999 V2000
    5.7423  -16.1518   21.5585 N   0  0  0  0  0  0  0  0  0  0  0  0
    7.1375  -16.5181   21.6902 C   0  0  1  0  0  0  0  0  0  0  0  0
    7.8213  -16.2996   20.3721 C   0  0  0  0  0  0  0  0  0  0  0  0
    7.9898  -14.8993   20.0085 C   0  0  0  0  0  0  0  0  0  0  0  0
    6.8867  -14.2103   19.4912 C   0  0  0  0  0  0  0  0  0  0  0  0
    7.0423  -12.8818   19.1440 C   0  0  0  0  0  0  0  0  0  0  0  0
    8.2523  -12.2303   19.2967 C   0  0  0  0  0  0  0  0  0  0  0  0
    9.3346  -12.9386   19.8138 C   0  0  0  0  0  0  0  0  0  0  0  0
    9.2035  -14.2655   20.1674 C   0  0  0  0  0  0  0  0  0  0  0  0
    7.7405  -15.6042   22.7310 C   0  0  0  0  0  0  0  0  0  0  0  0
    7.8646  -14.3747   22.5061 O   0  0  0  0  0  0  0  0  0  0  0  0
    5.4777  -12.9674   27.2665 C   0  0  0  0  0  0  0  0  0  0  0  0
    7.0487  -12.1469   26.9884 S   0  0  0  0  0  0  0  0  0  0  0  0
    8.3474  -13.3483   26.5445 C   0  0  0  0  0  0  0  0  0  0  0  0
    7.8031  -14.1619   25.3861 C   0  0  0  0  0  0  0  0  0  0  0  0
    8.7495  -15.2720   24.9990 C   0  0  2  0  0  0  0  0  0  0  0  0
    8.1737  -16.1190   23.9730 N   0  0  0  0  0  0  0  0  0  0  0  0
    9.1311  -16.1197   26.1545 C   0  0  0  0  0  0  0  0  0  0  0  0
    8.3318  -17.0110   26.5984 O   0  0  0  0  0  0  0  0  0  0  0  0
   10.3776  -16.0184   26.8435 N   0  0  0  0  0  0  0  0  0  0  0  0
   11.1410  -14.8219   27.1271 C   0  0  0  0  0  0  0  0  0  0  0  0
   12.5887  -15.2881   27.0027 C   0  0  0  0  0  0  0  0  0  0  0  0
   12.5413  -16.7995   26.9468 C   0  0  0  0  0  0  0  0  0  0  0  0
   11.1392  -17.1166   27.4165 C   0  0  1  0  0  0  0  0  0  0  0  0
   11.0444  -17.1109   28.8947 C   0  0  0  0  0  0  0  0  0  0  0  0
   10.4509  -16.2273   29.5321 O   0  0  0  0  0  0  0  0  0  0  0  0
   11.6426  -18.1356   29.6159 O   0  0  0  0  0  0  0  0  0  0  0  0
  2  1  1  6
  3  2  1  0
  4  9  1  0
  4  3  1  0
  5  4  2  0
  6  7  2  0
  6  5  1  0
  7  8  1  0
  8  9  2  0
 10 17  1  0
 10  2  1  0
 11 10  2  0
 13 12  1  0
 14 13  1  0
 15 14  1  0
 16 15  1  1
 16 17  1  0
 18 19  2  0
 18 16  1  0
 20 18  1  0
 21 20  1  0
 22 21  1  0
 23 22  1  0
 24 23  1  0
 24 20  1  0
 24 25  1  1
 26 25  2  0
 27 25  1  0
M  END
$$$$
