FMP.pdb
     RDKit          3D

 27 28  0  0  1  0  0  0  0  0999 V2000
    6.0757  -17.5288   25.7634 N   0  0  0  0  0  0  0  0  0  0  0  0
    6.6787  -16.3103   25.2638 C   0  0  1  0  0  0  0  0  0  0  0  0
    7.5725  -15.7419   26.3271 C   0  0  0  0  0  0  0  0  0  0  0  0
    7.3315  -14.3369   26.6256 C   0  0  0  0  0  0  0  0  0  0  0  0
    6.1154  -13.7720   26.2244 C   0  0  0  0  0  0  0  0  0  0  0  0
    5.8828  -12.4389   26.5048 C   0  0  0  0  0  0  0  0  0  0  0  0
    6.8179  -11.6642   27.1658 C   0  0  0  0  0  0  0  0  0  0  0  0
    8.0203  -12.2503   27.5545 C   0  0  0  0  0  0  0  0  0  0  0  0
    8.2751  -13.5791   27.2857 C   0  0  0  0  0  0  0  0  0  0  0  0
    7.5044  -16.6859   24.0558 C   0  0  0  0  0  0  0  0  0  0  0  0
    7.9252  -17.8605   23.9103 O   0  0  0  0  0  0  0  0  0  0  0  0
    6.2294  -11.9542   19.2531 C   0  0  0  0  0  0  0  0  0  0  0  0
    7.7606  -12.8168   19.6136 S   0  0  0  0  0  0  0  0  0  0  0  0
    7.4612  -14.2711   20.6730 C   0  0  0  0  0  0  0  0  0  0  0  0
    8.8247  -14.8276   21.0353 C   0  0  0  0  0  0  0  0  0  0  0  0
    8.7083  -16.0097   21.9664 C   0  0  2  0  0  0  0  0  0  0  0  0
    7.8157  -15.7215   23.0718 N   0  0  0  0  0  0  0  0  0  0  0  0
   10.0206  -16.4308   22.5141 C   0  0  0  0  0  0  0  0  0  0  0  0
   10.3889  -16.0570   23.6781 O   0  0  0  0  0  0  0  0  0  0  0  0
   10.9498  -17.2598   21.8156 N   0  0  0  0  0  0  0  0  0  0  0  0
   10.8035  -17.8449   20.4999 C   0  0  0  0  0  0  0  0  0  0  0  0
   11.4974  -19.1973   20.6350 C   0  0  0  0  0  0  0  0  0  0  0  0
   12.2511  -19.1551   21.9464 C   0  0  0  0  0  0  0  0  0  0  0  0
   12.2571  -17.6827   22.2916 C   0  0  1  0  0  0  0  0  0  0  0  0
   13.3375  -16.9600   21.5813 C   0  0  0  0  0  0  0  0  0  0  0  0
   14.5142  -16.9445   21.9743 O   0  0  0  0  0  0  0  0  0  0  0  0
   13.0358  -16.2621   20.4195 O   0  0  0  0  0  0  0  0  0  0  0  0
  2  1  1  1
  3  2  1  0
  4  9  1  0
  4  3  1  0
  5  4  2  0
  6  7  2  0
  6  5  1  0
  7  8  1  0
  8  9  2  0
 10 17  1  0
 10  2  1  0
 11 10  2  0
 13 12  1  0
 14 13  1  0
 15 14  1  0
 16 15  1  6
 16 17  1  0
 18 19  2  0
 18 16  1  0
 20 18  1  0
 21 20  1  0
 22 21  1  0
 23 22  1  0
 24 23  1  0
 24 20  1  0
 24 25  1  6
 26 25  2  0
 27 25  1  0
M  END
$$$$
