FMP.pdb
     RDKit          3D

 27 28  0  0  1  0  0  0  0  0999 V2000
    6.1760  -18.2631   26.1088 N   0  0  0  0  0  0  0  0  0  0  0  0
    6.4311  -16.8553   25.8827 C   0  0  1  0  0  0  0  0  0  0  0  0
    7.1822  -16.3050   27.0599 C   0  0  0  0  0  0  0  0  0  0  0  0
    7.1796  -14.8511   27.1468 C   0  0  0  0  0  0  0  0  0  0  0  0
    5.9470  -14.1929   27.2264 C   0  0  0  0  0  0  0  0  0  0  0  0
    5.9398  -12.8134   27.3082 C   0  0  0  0  0  0  0  0  0  0  0  0
    7.1133  -12.0822   27.3127 C   0  0  0  0  0  0  0  0  0  0  0  0
    8.3269  -12.7612   27.2325 C   0  0  0  0  0  0  0  0  0  0  0  0
    8.3593  -14.1378   27.1501 C   0  0  0  0  0  0  0  0  0  0  0  0
    7.2876  -16.7524   24.6426 C   0  0  0  0  0  0  0  0  0  0  0  0
    8.1689  -17.6144   24.4021 O   0  0  0  0  0  0  0  0  0  0  0  0
    8.2934  -12.8164   18.0643 C   0  0  0  0  0  0  0  0  0  0  0  0
    8.0112  -12.5262   19.8121 S   0  0  0  0  0  0  0  0  0  0  0  0
    8.6671  -13.8979   20.8197 C   0  0  0  0  0  0  0  0  0  0  0  0
    7.5604  -14.2958   21.7773 C   0  0  0  0  0  0  0  0  0  0  0  0
    7.9118  -15.5533   22.5343 C   0  0  2  0  0  0  0  0  0  0  0  0
    7.1098  -15.6849   23.7348 N   0  0  0  0  0  0  0  0  0  0  0  0
    9.3447  -15.6047   22.9134 C   0  0  0  0  0  0  0  0  0  0  0  0
    9.7742  -14.9473   23.9202 O   0  0  0  0  0  0  0  0  0  0  0  0
   10.3301  -16.3652   22.2141 N   0  0  0  0  0  0  0  0  0  0  0  0
   10.1654  -17.1212   20.9909 C   0  0  0  0  0  0  0  0  0  0  0  0
   11.0753  -18.3289   21.1962 C   0  0  0  0  0  0  0  0  0  0  0  0
   11.9235  -18.0160   22.4096 C   0  0  0  0  0  0  0  0  0  0  0  0
   11.7244  -16.5281   22.5931 C   0  0  1  0  0  0  0  0  0  0  0  0
   12.6098  -15.7448   21.7007 C   0  0  0  0  0  0  0  0  0  0  0  0
   13.7953  -15.4971   21.9700 O   0  0  0  0  0  0  0  0  0  0  0  0
   12.1048  -15.2576   20.5026 O   0  0  0  0  0  0  0  0  0  0  0  0
  2  1  1  1
  3  2  1  0
  4  9  1  0
  4  3  1  0
  5  4  2  0
  6  7  2  0
  6  5  1  0
  7  8  1  0
  8  9  2  0
 10 17  1  0
 10  2  1  0
 11 10  2  0
 13 12  1  0
 14 13  1  0
 15 14  1  0
 16 15  1  1
 16 17  1  0
 18 19  2  0
 18 16  1  0
 20 18  1  0
 21 20  1  0
 22 21  1  0
 23 22  1  0
 24 23  1  0
 24 20  1  0
 24 25  1  6
 26 25  2  0
 27 25  1  0
M  END
$$$$
