FMP.pdb
     RDKit          3D

 27 28  0  0  1  0  0  0  0  0999 V2000
    8.3628  -19.8648   27.2458 N   0  0  0  0  0  0  0  0  0  0  0  0
    8.4514  -18.4230   27.3531 C   0  0  1  0  0  0  0  0  0  0  0  0
    9.8818  -18.0439   27.6041 C   0  0  0  0  0  0  0  0  0  0  0  0
   10.0716  -16.6620   28.0231 C   0  0  0  0  0  0  0  0  0  0  0  0
   10.0295  -16.3714   29.3917 C   0  0  0  0  0  0  0  0  0  0  0  0
   10.2083  -15.0614   29.7937 C   0  0  0  0  0  0  0  0  0  0  0  0
   10.4250  -14.0467   28.8799 C   0  0  0  0  0  0  0  0  0  0  0  0
   10.4624  -14.3622   27.5237 C   0  0  0  0  0  0  0  0  0  0  0  0
   10.2866  -15.6627   27.0983 C   0  0  0  0  0  0  0  0  0  0  0  0
    8.0005  -17.8504   26.0299 C   0  0  0  0  0  0  0  0  0  0  0  0
    8.5092  -18.2519   24.9540 O   0  0  0  0  0  0  0  0  0  0  0  0
    5.8509  -11.6134   26.9380 C   0  0  0  0  0  0  0  0  0  0  0  0
    7.3360  -11.7487   25.9407 S   0  0  0  0  0  0  0  0  0  0  0  0
    7.2892  -13.2406   24.8922 C   0  0  0  0  0  0  0  0  0  0  0  0
    7.2215  -14.4269   25.8346 C   0  0  0  0  0  0  0  0  0  0  0  0
    7.0794  -15.7250   25.0779 C   0  0  2  0  0  0  0  0  0  0  0  0
    6.9999  -16.8545   25.9831 N   0  0  0  0  0  0  0  0  0  0  0  0
    8.1976  -15.9542   24.1310 C   0  0  0  0  0  0  0  0  0  0  0  0
    9.1727  -16.7146   24.4491 O   0  0  0  0  0  0  0  0  0  0  0  0
    8.2775  -15.3687   22.8312 N   0  0  0  0  0  0  0  0  0  0  0  0
    7.7002  -14.1195   22.3827 C   0  0  0  0  0  0  0  0  0  0  0  0
    7.2992  -14.4130   20.9398 C   0  0  0  0  0  0  0  0  0  0  0  0
    7.9533  -15.7292   20.5801 C   0  0  0  0  0  0  0  0  0  0  0  0
    8.9754  -15.9162   21.6790 C   0  0  1  0  0  0  0  0  0  0  0  0
   10.2176  -15.1579   21.4038 C   0  0  0  0  0  0  0  0  0  0  0  0
   10.4967  -14.0879   21.9664 O   0  0  0  0  0  0  0  0  0  0  0  0
   11.1228  -15.6541   20.4752 O   0  0  0  0  0  0  0  0  0  0  0  0
  2  1  1  6
  3  2  1  0
  4  9  1  0
  4  3  1  0
  5  4  2  0
  6  7  2  0
  6  5  1  0
  7  8  1  0
  8  9  2  0
 10 17  1  0
 10  2  1  0
 11 10  2  0
 13 12  1  0
 14 13  1  0
 15 14  1  0
 16 15  1  1
 16 17  1  0
 18 19  2  0
 18 16  1  0
 20 18  1  0
 21 20  1  0
 22 21  1  0
 23 22  1  0
 24 23  1  0
 24 20  1  0
 24 25  1  6
 26 25  2  0
 27 25  1  0
M  END
$$$$
