FMP.pdb
     RDKit          3D

 27 28  0  0  1  0  0  0  0  0999 V2000
    9.1524  -18.0620   25.8612 N   0  0  0  0  0  0  0  0  0  0  0  0
    7.8853  -17.8513   26.5306 C   0  0  1  0  0  0  0  0  0  0  0  0
    8.1487  -17.3048   27.9034 C   0  0  0  0  0  0  0  0  0  0  0  0
    9.2575  -16.3628   27.9716 C   0  0  0  0  0  0  0  0  0  0  0  0
    9.0260  -15.0361   27.5902 C   0  0  0  0  0  0  0  0  0  0  0  0
   10.0754  -14.1391   27.6526 C   0  0  0  0  0  0  0  0  0  0  0  0
   11.3329  -14.5243   28.0793 C   0  0  0  0  0  0  0  0  0  0  0  0
   11.5371  -15.8505   28.4534 C   0  0  0  0  0  0  0  0  0  0  0  0
   10.5049  -16.7641   28.3996 C   0  0  0  0  0  0  0  0  0  0  0  0
    7.1179  -16.8340   25.7193 C   0  0  0  0  0  0  0  0  0  0  0  0
    5.8723  -16.7280   25.8416 O   0  0  0  0  0  0  0  0  0  0  0  0
    5.1989  -11.4754   26.0921 C   0  0  0  0  0  0  0  0  0  0  0  0
    6.8648  -11.7183   25.4721 S   0  0  0  0  0  0  0  0  0  0  0  0
    7.2585  -13.4933   25.3255 C   0  0  0  0  0  0  0  0  0  0  0  0
    6.9201  -13.8931   23.9023 C   0  0  0  0  0  0  0  0  0  0  0  0
    7.1135  -15.3740   23.6845 C   0  0  2  0  0  0  0  0  0  0  0  0
    7.7900  -15.9864   24.8110 N   0  0  0  0  0  0  0  0  0  0  0  0
    7.8830  -15.6695   22.4516 C   0  0  0  0  0  0  0  0  0  0  0  0
    8.3806  -16.8294   22.2588 O   0  0  0  0  0  0  0  0  0  0  0  0
    8.1238  -14.7203   21.4125 N   0  0  0  0  0  0  0  0  0  0  0  0
    7.7677  -13.3176   21.3908 C   0  0  0  0  0  0  0  0  0  0  0  0
    7.4095  -13.0661   19.9289 C   0  0  0  0  0  0  0  0  0  0  0  0
    7.8771  -14.2856   19.1647 C   0  0  0  0  0  0  0  0  0  0  0  0
    8.7954  -14.9758   20.1483 C   0  0  1  0  0  0  0  0  0  0  0  0
   10.1513  -14.3796   20.1401 C   0  0  0  0  0  0  0  0  0  0  0  0
   10.9391  -14.5015   19.1894 O   0  0  0  0  0  0  0  0  0  0  0  0
   10.5760  -13.6469   21.2403 O   0  0  0  0  0  0  0  0  0  0  0  0
  2  1  1  6
  3  2  1  0
  4  9  1  0
  4  3  1  0
  5  4  2  0
  6  7  2  0
  6  5  1  0
  7  8  1  0
  8  9  2  0
 10 17  1  0
 10  2  1  0
 11 10  2  0
 13 12  1  0
 14 13  1  0
 15 14  1  0
 16 15  1  1
 16 17  1  0
 18 19  2  0
 18 16  1  0
 20 18  1  0
 21 20  1  0
 22 21  1  0
 23 22  1  0
 24 23  1  0
 24 20  1  0
 24 25  1  1
 26 25  2  0
 27 25  1  0
M  END
$$$$
