FMP.pdb
     RDKit          3D

 27 28  0  0  1  0  0  0  0  0999 V2000
    7.1508  -16.2826   27.2972 N   0  0  0  0  0  0  0  0  0  0  0  0
    6.7213  -16.2369   25.9146 C   0  0  1  0  0  0  0  0  0  0  0  0
    5.6129  -15.2330   25.7856 C   0  0  0  0  0  0  0  0  0  0  0  0
    5.9618  -13.8929   26.2366 C   0  0  0  0  0  0  0  0  0  0  0  0
    5.5858  -13.5083   27.5288 C   0  0  0  0  0  0  0  0  0  0  0  0
    5.9141  -12.2372   27.9606 C   0  0  0  0  0  0  0  0  0  0  0  0
    6.5981  -11.3510   27.1492 C   0  0  0  0  0  0  0  0  0  0  0  0
    6.9608  -11.7582   25.8674 C   0  0  0  0  0  0  0  0  0  0  0  0
    6.6442  -13.0220   25.4142 C   0  0  0  0  0  0  0  0  0  0  0  0
    7.9084  -15.7885   25.0951 C   0  0  0  0  0  0  0  0  0  0  0  0
    8.9568  -15.3856   25.6574 O   0  0  0  0  0  0  0  0  0  0  0  0
   12.7649  -15.7297   24.8658 C   0  0  0  0  0  0  0  0  0  0  0  0
   12.5820  -15.2113   23.1580 S   0  0  0  0  0  0  0  0  0  0  0  0
   11.3480  -16.2359   22.2894 C   0  0  0  0  0  0  0  0  0  0  0  0
   10.1845  -16.4118   23.2461 C   0  0  0  0  0  0  0  0  0  0  0  0
    9.0192  -15.5315   22.8652 C   0  0  2  0  0  0  0  0  0  0  0  0
    7.8569  -15.8156   23.6837 N   0  0  0  0  0  0  0  0  0  0  0  0
    8.6415  -15.6776   21.4385 C   0  0  0  0  0  0  0  0  0  0  0  0
    8.1095  -16.7582   21.0147 O   0  0  0  0  0  0  0  0  0  0  0  0
    8.8308  -14.6618   20.4531 N   0  0  0  0  0  0  0  0  0  0  0  0
    9.6098  -13.4474   20.5677 C   0  0  0  0  0  0  0  0  0  0  0  0
    8.8033  -12.4324   19.7626 C   0  0  0  0  0  0  0  0  0  0  0  0
    7.7681  -13.2281   18.9980 C   0  0  0  0  0  0  0  0  0  0  0  0
    8.2757  -14.6483   19.1092 C   0  0  1  0  0  0  0  0  0  0  0  0
    9.3232  -14.9340   18.1017 C   0  0  0  0  0  0  0  0  0  0  0  0
   10.5328  -14.9736   18.3747 O   0  0  0  0  0  0  0  0  0  0  0  0
    8.9506  -15.1708   16.7853 O   0  0  0  0  0  0  0  0  0  0  0  0
  2  1  1  1
  3  2  1  0
  4  9  1  0
  4  3  1  0
  5  4  2  0
  6  7  2  0
  6  5  1  0
  7  8  1  0
  8  9  2  0
 10 17  1  0
 10  2  1  0
 11 10  2  0
 13 12  1  0
 14 13  1  0
 15 14  1  0
 16 15  1  1
 16 17  1  0
 18 19  2  0
 18 16  1  0
 20 18  1  0
 21 20  1  0
 22 21  1  0
 23 22  1  0
 24 23  1  0
 24 20  1  0
 24 25  1  6
 26 25  2  0
 27 25  1  0
M  END
$$$$
