FMP.pdb
     RDKit          3D

 27 28  0  0  1  0  0  0  0  0999 V2000
    4.6649  -17.6226   21.6377 N   0  0  0  0  0  0  0  0  0  0  0  0
    5.7920  -16.7709   21.3179 C   0  0  1  0  0  0  0  0  0  0  0  0
    5.3381  -15.7075   20.3608 C   0  0  0  0  0  0  0  0  0  0  0  0
    6.3959  -14.8118   19.9135 C   0  0  0  0  0  0  0  0  0  0  0  0
    6.4436  -13.5201   20.4504 C   0  0  0  0  0  0  0  0  0  0  0  0
    7.4451  -12.6667   20.0282 C   0  0  0  0  0  0  0  0  0  0  0  0
    8.3879  -13.0614   19.0970 C   0  0  0  0  0  0  0  0  0  0  0  0
    8.3184  -14.3522   18.5779 C   0  0  0  0  0  0  0  0  0  0  0  0
    7.3278  -15.2220   18.9842 C   0  0  0  0  0  0  0  0  0  0  0  0
    6.2453  -16.1303   22.6087 C   0  0  0  0  0  0  0  0  0  0  0  0
    5.6535  -15.1194   23.0620 O   0  0  0  0  0  0  0  0  0  0  0  0
    6.8294  -11.6375   26.4849 C   0  0  0  0  0  0  0  0  0  0  0  0
    7.2137  -13.2594   27.1486 S   0  0  0  0  0  0  0  0  0  0  0  0
    8.3095  -14.1866   26.0232 C   0  0  0  0  0  0  0  0  0  0  0  0
    7.4061  -14.9983   25.1149 C   0  0  0  0  0  0  0  0  0  0  0  0
    8.2057  -15.8244   24.1370 C   0  0  2  0  0  0  0  0  0  0  0  0
    7.3418  -16.6589   23.3253 N   0  0  0  0  0  0  0  0  0  0  0  0
    9.2045  -16.6895   24.8101 C   0  0  0  0  0  0  0  0  0  0  0  0
    8.8327  -17.7095   25.4821 O   0  0  0  0  0  0  0  0  0  0  0  0
   10.6142  -16.4671   24.7659 N   0  0  0  0  0  0  0  0  0  0  0  0
   11.3100  -15.2103   24.5895 C   0  0  0  0  0  0  0  0  0  0  0  0
   12.5304  -15.5952   23.7581 C   0  0  0  0  0  0  0  0  0  0  0  0
   12.5916  -17.1070   23.7744 C   0  0  0  0  0  0  0  0  0  0  0  0
   11.6523  -17.4765   24.9006 C   0  0  1  0  0  0  0  0  0  0  0  0
   12.3172  -17.3780   26.2204 C   0  0  0  0  0  0  0  0  0  0  0  0
   12.0824  -16.4686   27.0311 O   0  0  0  0  0  0  0  0  0  0  0  0
   13.2498  -18.3407   26.5828 O   0  0  0  0  0  0  0  0  0  0  0  0
  2  1  1  1
  3  2  1  0
  4  9  1  0
  4  3  1  0
  5  4  2  0
  6  7  2  0
  6  5  1  0
  7  8  1  0
  8  9  2  0
 10 17  1  0
 10  2  1  0
 11 10  2  0
 13 12  1  0
 14 13  1  0
 15 14  1  0
 16 15  1  1
 16 17  1  0
 18 19  2  0
 18 16  1  0
 20 18  1  0
 21 20  1  0
 22 21  1  0
 23 22  1  0
 24 23  1  0
 24 20  1  0
 24 25  1  1
 26 25  2  0
 27 25  1  0
M  END
$$$$
