FMP.pdb
     RDKit          3D

 27 28  0  0  1  0  0  0  0  0999 V2000
    5.7979  -18.0972   25.8100 N   0  0  0  0  0  0  0  0  0  0  0  0
    6.1471  -16.7168   25.5445 C   0  0  1  0  0  0  0  0  0  0  0  0
    6.8082  -16.1423   26.7634 C   0  0  0  0  0  0  0  0  0  0  0  0
    6.9382  -14.6918   26.7481 C   0  0  0  0  0  0  0  0  0  0  0  0
    8.2213  -14.1391   26.8331 C   0  0  0  0  0  0  0  0  0  0  0  0
    8.3493  -12.7632   26.8197 C   0  0  0  0  0  0  0  0  0  0  0  0
    7.2466  -11.9343   26.7251 C   0  0  0  0  0  0  0  0  0  0  0  0
    5.9806  -12.5094   26.6417 C   0  0  0  0  0  0  0  0  0  0  0  0
    5.8279  -13.8803   26.6532 C   0  0  0  0  0  0  0  0  0  0  0  0
    7.1242  -16.7193   24.3923 C   0  0  0  0  0  0  0  0  0  0  0  0
    7.9728  -17.6381   24.2769 O   0  0  0  0  0  0  0  0  0  0  0  0
    6.5487  -12.9544   18.8817 C   0  0  0  0  0  0  0  0  0  0  0  0
    8.2987  -12.9467   19.2770 S   0  0  0  0  0  0  0  0  0  0  0  0
    8.7532  -14.4055   20.2732 C   0  0  0  0  0  0  0  0  0  0  0  0
    7.8035  -14.4321   21.4553 C   0  0  0  0  0  0  0  0  0  0  0  0
    7.9957  -15.6753   22.2893 C   0  0  2  0  0  0  0  0  0  0  0  0
    7.0978  -15.6880   23.4275 N   0  0  0  0  0  0  0  0  0  0  0  0
    9.3874  -15.8176   22.7817 C   0  0  0  0  0  0  0  0  0  0  0  0
    9.7522  -15.2567   23.8692 O   0  0  0  0  0  0  0  0  0  0  0  0
   10.4006  -16.5663   22.1099 N   0  0  0  0  0  0  0  0  0  0  0  0
   10.2955  -17.2730   20.8511 C   0  0  0  0  0  0  0  0  0  0  0  0
   11.1762  -18.5014   21.0605 C   0  0  0  0  0  0  0  0  0  0  0  0
   11.9584  -18.2476   22.3306 C   0  0  0  0  0  0  0  0  0  0  0  0
   11.7690  -16.7649   22.5599 C   0  0  1  0  0  0  0  0  0  0  0  0
   12.7138  -15.9622   21.7494 C   0  0  0  0  0  0  0  0  0  0  0  0
   13.8531  -15.6611   22.1376 O   0  0  0  0  0  0  0  0  0  0  0  0
   12.3214  -15.5178   20.4938 O   0  0  0  0  0  0  0  0  0  0  0  0
  2  1  1  1
  3  2  1  0
  4  9  1  0
  4  3  1  0
  5  4  2  0
  6  7  2  0
  6  5  1  0
  7  8  1  0
  8  9  2  0
 10 17  1  0
 10  2  1  0
 11 10  2  0
 13 12  1  0
 14 13  1  0
 15 14  1  0
 16 15  1  1
 16 17  1  0
 18 19  2  0
 18 16  1  0
 20 18  1  0
 21 20  1  0
 22 21  1  0
 23 22  1  0
 24 23  1  0
 24 20  1  0
 24 25  1  6
 26 25  2  0
 27 25  1  0
M  END
$$$$
