YRC.pdb
     RDKit          3D

 30 30  0  0  1  0  0  0  0  0999 V2000
   16.8559  -21.5648  -17.7419 O   0  0  0  0  0  0  0  0  0  0  0  0
   17.9664  -20.8011  -17.4109 C   0  0  0  0  0  0  0  0  0  0  0  0
   19.2532  -21.2909  -17.4671 C   0  0  0  0  0  0  0  0  0  0  0  0
   20.3449  -20.5048  -17.1314 C   0  0  0  0  0  0  0  0  0  0  0  0
   20.1674  -19.2099  -16.7325 C   0  0  0  0  0  0  0  0  0  0  0  0
   21.3094  -18.3334  -16.3685 C   0  0  0  0  0  0  0  0  0  0  0  0
   22.0577  -19.0189  -15.2190 C   0  0  2  0  0  0  0  0  0  0  0  0
   21.2058  -19.1657  -14.0890 N   0  0  0  0  0  0  0  0  0  0  0  0
   23.3667  -18.3933  -14.9513 C   0  0  0  0  0  0  0  0  0  0  0  0
   23.3241  -17.2302  -14.4367 O   0  0  0  0  0  0  0  0  0  0  0  0
   18.8770  -18.7240  -16.6774 C   0  0  0  0  0  0  0  0  0  0  0  0
   17.7710  -19.4971  -17.0100 C   0  0  0  0  0  0  0  0  0  0  0  0
   26.0198  -21.3844  -10.6064 N   0  0  0  0  0  0  0  0  0  0  0  0
   26.3783  -22.0461  -11.8044 C   0  0  0  0  0  0  0  0  0  0  0  0
   25.7486  -23.0839  -12.2494 N   0  0  0  0  0  0  0  0  0  0  0  0
   27.4770  -21.5496  -12.5477 N   0  0  0  0  0  0  0  0  0  0  0  0
   27.9274  -20.1574  -12.4156 C   0  0  0  0  0  0  0  0  0  0  0  0
   26.9252  -19.2179  -12.9776 C   0  0  0  0  0  0  0  0  0  0  0  0
   26.8594  -19.1418  -14.4487 C   0  0  0  0  0  0  0  0  0  0  0  0
   25.8511  -18.1966  -15.0439 C   0  0  2  0  0  0  0  0  0  0  0  0
   24.6064  -18.9764  -15.2176 N   0  0  0  0  0  0  0  0  0  0  0  0
   26.1983  -17.6626  -16.3623 C   0  0  0  0  0  0  0  0  0  0  0  0
   26.0797  -18.4166  -17.3905 O   0  0  0  0  0  0  0  0  0  0  0  0
   25.9973  -23.5937  -13.1036 N   0  0  0  0  0  0  0  0  0  0  0  0
   26.6665  -16.3647  -16.6632 C   0  0  1  0  0  0  0  0  0  0  0  0
   27.0266  -15.9155  -17.9713 C   0  0  0  0  0  0  0  0  0  0  0  0
   27.0980  -14.4066  -18.0837 S   0  0  0  0  0  0  0  0  0  0  0  0
   25.6100  -13.7599  -17.2377 C   0  0  0  0  0  0  0  0  0  0  0  0
   28.2666  -16.4932  -18.4846 O   0  0  0  0  0  0  0  0  0  0  0  0
   28.7635  -16.3476  -19.7659 O   0  0  0  0  0  0  0  0  0  0  0  0
  2  1  1  0
  3  2  2  0
  4  3  1  0
  5 11  1  0
  5  4  2  0
  6  5  1  0
  7  6  1  0
  7  8  1  1
  9  7  1  0
  9 10  2  0
 11 12  2  0
 12  2  1  0
 13 14  1  0
 14 15  2  0
 16 14  1  0
 16 17  1  0
 18 17  1  0
 20 19  1  6
 19 18  1  0
 20 21  1  0
 21  9  1  0
 22 20  1  0
 23 22  2  0
 24 22  1  0
 25 28  1  0
 25 24  1  0
 25 26  1  6
 27 26  1  0
 28 29  1  0
 30 28  2  0
M  END
$$$$
