YRC.pdb
     RDKit          3D

 30 30  0  0  1  0  0  0  0  0999 V2000
   24.0258  -12.2338  -18.8009 O   0  0  0  0  0  0  0  0  0  0  0  0
   23.6422  -13.4216  -18.1942 C   0  0  0  0  0  0  0  0  0  0  0  0
   23.9579  -13.7292  -16.8887 C   0  0  0  0  0  0  0  0  0  0  0  0
   23.5605  -14.9237  -16.3074 C   0  0  0  0  0  0  0  0  0  0  0  0
   22.8371  -15.8342  -17.0249 C   0  0  0  0  0  0  0  0  0  0  0  0
   22.3886  -17.1228  -16.4390 C   0  0  0  0  0  0  0  0  0  0  0  0
   23.5541  -18.1103  -16.5711 C   0  0  2  0  0  0  0  0  0  0  0  0
   23.7552  -18.4622  -17.9348 N   0  0  0  0  0  0  0  0  0  0  0  0
   23.4374  -19.2428  -15.6328 C   0  0  0  0  0  0  0  0  0  0  0  0
   22.7682  -20.2392  -16.0557 O   0  0  0  0  0  0  0  0  0  0  0  0
   22.5236  -15.5219  -18.3320 C   0  0  0  0  0  0  0  0  0  0  0  0
   22.9134  -14.3300  -18.9311 C   0  0  0  0  0  0  0  0  0  0  0  0
   28.2291  -21.3297   -8.7855 N   0  0  0  0  0  0  0  0  0  0  0  0
   28.3174  -21.3911  -10.1961 C   0  0  0  0  0  0  0  0  0  0  0  0
   29.4413  -21.5019  -10.8257 N   0  0  0  0  0  0  0  0  0  0  0  0
   27.1210  -21.3267  -10.9514 N   0  0  0  0  0  0  0  0  0  0  0  0
   25.8021  -21.3540  -10.3048 C   0  0  0  0  0  0  0  0  0  0  0  0
   24.7146  -21.3886  -11.3143 C   0  0  0  0  0  0  0  0  0  0  0  0
   24.7939  -20.3826  -12.3894 C   0  0  0  0  0  0  0  0  0  0  0  0
   23.7567  -20.4555  -13.4772 C   0  0  2  0  0  0  0  0  0  0  0  0
   23.9955  -19.2889  -14.3544 N   0  0  0  0  0  0  0  0  0  0  0  0
   22.3680  -20.3608  -13.0229 C   0  0  0  0  0  0  0  0  0  0  0  0
   21.9432  -19.2508  -12.5462 O   0  0  0  0  0  0  0  0  0  0  0  0
   29.5370  -21.5245  -11.8463 N   0  0  0  0  0  0  0  0  0  0  0  0
   21.3898  -21.3790  -13.0442 C   0  0  2  0  0  0  0  0  0  0  0  0
   20.0351  -21.2111  -12.6208 C   0  0  0  0  0  0  0  0  0  0  0  0
   19.1013  -20.8293  -13.7508 S   0  0  0  0  0  0  0  0  0  0  0  0
   18.6923  -22.3846  -14.6235 C   0  0  0  0  0  0  0  0  0  0  0  0
   19.4811  -22.3608  -11.9095 O   0  0  0  0  0  0  0  0  0  0  0  0
   18.2850  -22.3915  -11.2181 O   0  0  0  0  0  0  0  0  0  0  0  0
  2  1  1  0
  3  2  2  0
  4  3  1  0
  5 11  1  0
  5  4  2  0
  6  5  1  0
  7  6  1  0
  7  8  1  6
  9  7  1  0
  9 10  2  0
 11 12  2  0
 12  2  1  0
 13 14  1  0
 14 15  2  0
 16 14  1  0
 16 17  1  0
 18 17  1  0
 20 19  1  1
 19 18  1  0
 20 21  1  0
 21  9  1  0
 22 20  1  0
 23 22  2  0
 24 22  1  0
 25 28  1  0
 25 24  1  0
 25 26  1  6
 27 26  1  0
 28 29  1  0
 30 28  2  0
M  END
$$$$
