YRC.pdb
     RDKit          3D

 30 30  0  0  1  0  0  0  0  0999 V2000
   26.3601  -12.7587  -23.8133 O   0  0  0  0  0  0  0  0  0  0  0  0
   25.3523  -13.2869  -23.0188 C   0  0  0  0  0  0  0  0  0  0  0  0
   25.2460  -13.0193  -21.6713 C   0  0  0  0  0  0  0  0  0  0  0  0
   24.2276  -13.5603  -20.9014 C   0  0  0  0  0  0  0  0  0  0  0  0
   23.2940  -14.3813  -21.4688 C   0  0  0  0  0  0  0  0  0  0  0  0
   22.1856  -14.9776  -20.6811 C   0  0  0  0  0  0  0  0  0  0  0  0
   20.9619  -14.0720  -20.8638 C   0  0  2  0  0  0  0  0  0  0  0  0
   21.1898  -12.8019  -20.2646 N   0  0  0  0  0  0  0  0  0  0  0  0
   19.7064  -14.7422  -20.4751 C   0  0  0  0  0  0  0  0  0  0  0  0
   19.3604  -14.5970  -19.2591 O   0  0  0  0  0  0  0  0  0  0  0  0
   23.4048  -14.6466  -22.8184 C   0  0  0  0  0  0  0  0  0  0  0  0
   24.4185  -14.1135  -23.6056 C   0  0  0  0  0  0  0  0  0  0  0  0
   12.7197  -16.8391  -18.2184 N   0  0  0  0  0  0  0  0  0  0  0  0
   12.9994  -17.8433  -19.1749 C   0  0  0  0  0  0  0  0  0  0  0  0
   12.7405  -19.0944  -18.9764 N   0  0  0  0  0  0  0  0  0  0  0  0
   13.5908  -17.4602  -20.4035 N   0  0  0  0  0  0  0  0  0  0  0  0
   14.9766  -16.9770  -20.4710 C   0  0  0  0  0  0  0  0  0  0  0  0
   15.3441  -16.6060  -21.8604 C   0  0  0  0  0  0  0  0  0  0  0  0
   16.7431  -16.1914  -22.0736 C   0  0  0  0  0  0  0  0  0  0  0  0
   17.6080  -16.0360  -20.8521 C   0  0  2  0  0  0  0  0  0  0  0  0
   18.9016  -15.4994  -21.3276 N   0  0  0  0  0  0  0  0  0  0  0  0
   17.9071  -17.2781  -20.1369 C   0  0  0  0  0  0  0  0  0  0  0  0
   18.6152  -18.1747  -20.7154 O   0  0  0  0  0  0  0  0  0  0  0  0
   12.9066  -19.8390  -19.6614 N   0  0  0  0  0  0  0  0  0  0  0  0
   17.5002  -17.6330  -18.8320 C   0  0  2  0  0  0  0  0  0  0  0  0
   17.8783  -18.8388  -18.1644 C   0  0  0  0  0  0  0  0  0  0  0  0
   18.1838  -18.6347  -16.6948 S   0  0  0  0  0  0  0  0  0  0  0  0
   16.6444  -18.0005  -15.9359 C   0  0  0  0  0  0  0  0  0  0  0  0
   16.9180  -19.9307  -18.3068 O   0  0  0  0  0  0  0  0  0  0  0  0
   17.1315  -21.2525  -17.9646 O   0  0  0  0  0  0  0  0  0  0  0  0
  2  1  1  0
  3  2  2  0
  4  3  1  0
  5 11  1  0
  5  4  2  0
  6  5  1  0
  7  6  1  0
  7  8  1  1
  9  7  1  0
  9 10  2  0
 11 12  2  0
 12  2  1  0
 13 14  1  0
 14 15  2  0
 16 14  1  0
 16 17  1  0
 18 17  1  0
 20 19  1  6
 19 18  1  0
 20 21  1  0
 21  9  1  0
 22 20  1  0
 23 22  2  0
 24 22  1  0
 25 28  1  0
 25 24  1  0
 25 26  1  6
 27 26  1  0
 28 29  1  0
 30 28  2  0
M  END
$$$$
