YRC.pdb
     RDKit          3D

 30 30  0  0  1  0  0  0  0  0999 V2000
   21.4889  -11.6372  -16.8291 O   0  0  0  0  0  0  0  0  0  0  0  0
   21.4782  -12.9809  -16.4823 C   0  0  0  0  0  0  0  0  0  0  0  0
   20.3664  -13.7814  -16.6300 C   0  0  0  0  0  0  0  0  0  0  0  0
   20.3842  -15.1219  -16.2759 C   0  0  0  0  0  0  0  0  0  0  0  0
   21.5194  -15.6869  -15.7663 C   0  0  0  0  0  0  0  0  0  0  0  0
   21.5817  -17.1189  -15.3787 C   0  0  0  0  0  0  0  0  0  0  0  0
   22.1330  -17.8905  -16.5836 C   0  0  2  0  0  0  0  0  0  0  0  0
   21.0679  -18.3776  -17.3914 N   0  0  0  0  0  0  0  0  0  0  0  0
   23.1435  -18.8917  -16.1926 C   0  0  0  0  0  0  0  0  0  0  0  0
   22.6951  -20.0572  -15.9475 O   0  0  0  0  0  0  0  0  0  0  0  0
   22.6300  -14.8811  -15.6199 C   0  0  0  0  0  0  0  0  0  0  0  0
   22.6306  -13.5360  -15.9692 C   0  0  0  0  0  0  0  0  0  0  0  0
   25.8699  -23.3891  -17.2437 N   0  0  0  0  0  0  0  0  0  0  0  0
   26.9704  -23.7008  -16.4113 C   0  0  0  0  0  0  0  0  0  0  0  0
   27.1443  -24.8687  -15.8843 N   0  0  0  0  0  0  0  0  0  0  0  0
   27.9227  -22.6874  -16.1424 N   0  0  0  0  0  0  0  0  0  0  0  0
   27.9067  -21.4076  -16.8638 C   0  0  0  0  0  0  0  0  0  0  0  0
   27.9082  -20.2634  -15.9185 C   0  0  0  0  0  0  0  0  0  0  0  0
   26.8123  -19.2893  -16.0759 C   0  0  0  0  0  0  0  0  0  0  0  0
   25.4323  -19.7364  -15.6757 C   0  0  2  0  0  0  0  0  0  0  0  0
   24.5133  -18.6498  -16.0783 N   0  0  0  0  0  0  0  0  0  0  0  0
   25.2347  -19.9417  -14.2395 C   0  0  0  0  0  0  0  0  0  0  0  0
   25.3311  -18.9395  -13.4482 O   0  0  0  0  0  0  0  0  0  0  0  0
   27.9178  -25.1154  -15.2580 N   0  0  0  0  0  0  0  0  0  0  0  0
   24.9359  -21.1552  -13.5821 C   0  0  2  0  0  0  0  0  0  0  0  0
   24.8658  -21.3131  -12.1634 C   0  0  0  0  0  0  0  0  0  0  0  0
   23.4568  -21.5489  -11.6597 S   0  0  0  0  0  0  0  0  0  0  0  0
   23.5959  -21.8054   -9.8533 C   0  0  0  0  0  0  0  0  0  0  0  0
   25.7449  -22.3513  -11.6304 O   0  0  0  0  0  0  0  0  0  0  0  0
   26.4164  -22.3088  -10.4232 O   0  0  0  0  0  0  0  0  0  0  0  0
  2  1  1  0
  3  2  2  0
  4  3  1  0
  5 11  1  0
  5  4  2  0
  6  5  1  0
  7  6  1  0
  7  8  1  1
  9  7  1  0
  9 10  2  0
 11 12  2  0
 12  2  1  0
 13 14  1  0
 14 15  2  0
 16 14  1  0
 16 17  1  0
 18 17  1  0
 20 19  1  1
 19 18  1  0
 20 21  1  0
 21  9  1  0
 22 20  1  0
 23 22  2  0
 24 22  1  0
 25 28  1  0
 25 24  1  0
 25 26  1  6
 27 26  1  0
 28 29  1  0
 30 28  2  0
M  END
$$$$
