YRC.pdb
     RDKit          3D

 30 30  0  0  1  0  0  0  0  0999 V2000
   23.2770  -32.6144  -12.4297 O   0  0  0  0  0  0  0  0  0  0  0  0
   24.2727  -32.8366  -13.3704 C   0  0  0  0  0  0  0  0  0  0  0  0
   24.0036  -33.0751  -14.7006 C   0  0  0  0  0  0  0  0  0  0  0  0
   25.0189  -33.2930  -15.6195 C   0  0  0  0  0  0  0  0  0  0  0  0
   26.3261  -33.2756  -15.2217 C   0  0  0  0  0  0  0  0  0  0  0  0
   27.4430  -33.5001  -16.1741 C   0  0  0  0  0  0  0  0  0  0  0  0
   28.1127  -32.1419  -16.4147 C   0  0  2  0  0  0  0  0  0  0  0  0
   27.2267  -31.2655  -17.1008 N   0  0  0  0  0  0  0  0  0  0  0  0
   29.4573  -32.2778  -17.0065 C   0  0  0  0  0  0  0  0  0  0  0  0
   29.6199  -31.7126  -18.1350 O   0  0  0  0  0  0  0  0  0  0  0  0
   26.5907  -33.0368  -13.8886 C   0  0  0  0  0  0  0  0  0  0  0  0
   25.5863  -32.8164  -12.9537 C   0  0  0  0  0  0  0  0  0  0  0  0
   37.0850  -31.1716  -13.4264 N   0  0  0  0  0  0  0  0  0  0  0  0
   36.5883  -30.3655  -14.4775 C   0  0  0  0  0  0  0  0  0  0  0  0
   36.9176  -29.1241  -14.6268 N   0  0  0  0  0  0  0  0  0  0  0  0
   35.6892  -30.9445  -15.4062 N   0  0  0  0  0  0  0  0  0  0  0  0
   35.2311  -32.3336  -15.2678 C   0  0  0  0  0  0  0  0  0  0  0  0
   34.2754  -32.6891  -16.3464 C   0  0  0  0  0  0  0  0  0  0  0  0
   32.8443  -32.5864  -16.0062 C   0  0  0  0  0  0  0  0  0  0  0  0
   31.8547  -32.9614  -17.0759 C   0  0  2  0  0  0  0  0  0  0  0  0
   30.5257  -32.9635  -16.4267 N   0  0  0  0  0  0  0  0  0  0  0  0
   32.0388  -34.2924  -17.6577 C   0  0  0  0  0  0  0  0  0  0  0  0
   31.7064  -35.3225  -16.9734 O   0  0  0  0  0  0  0  0  0  0  0  0
   36.5707  -28.5159  -15.3759 N   0  0  0  0  0  0  0  0  0  0  0  0
   32.5567  -34.6037  -18.9340 C   0  0  2  0  0  0  0  0  0  0  0  0
   32.6818  -35.9277  -19.4576 C   0  0  0  0  0  0  0  0  0  0  0  0
   32.4426  -36.0020  -20.9515 S   0  0  0  0  0  0  0  0  0  0  0  0
   30.6491  -35.7342  -21.1961 C   0  0  0  0  0  0  0  0  0  0  0  0
   33.9501  -36.5809  -19.1425 O   0  0  0  0  0  0  0  0  0  0  0  0
   34.1925  -37.9413  -19.1627 O   0  0  0  0  0  0  0  0  0  0  0  0
  2  1  1  0
  3  2  2  0
  4  3  1  0
  5 11  1  0
  5  4  2  0
  6  5  1  0
  7  6  1  0
  7  8  1  6
  9  7  1  0
  9 10  2  0
 11 12  2  0
 12  2  1  0
 13 14  1  0
 14 15  2  0
 16 14  1  0
 16 17  1  0
 18 17  1  0
 20 19  1  1
 19 18  1  0
 20 21  1  0
 21  9  1  0
 22 20  1  0
 23 22  2  0
 24 22  1  0
 25 28  1  0
 25 24  1  0
 25 26  1  1
 27 26  1  0
 28 29  1  0
 30 28  2  0
M  END
$$$$
