YRC.pdb
     RDKit          3D

 30 30  0  0  1  0  0  0  0  0999 V2000
    9.1296  -14.2923  -11.8766 O   0  0  0  0  0  0  0  0  0  0  0  0
   10.1737  -13.5013  -11.4183 C   0  0  0  0  0  0  0  0  0  0  0  0
   11.1124  -13.9529  -10.5163 C   0  0  0  0  0  0  0  0  0  0  0  0
   12.1463  -13.1407  -10.0760 C   0  0  0  0  0  0  0  0  0  0  0  0
   12.2595  -11.8577  -10.5327 C   0  0  0  0  0  0  0  0  0  0  0  0
   13.3536  -10.9568  -10.0897 C   0  0  0  0  0  0  0  0  0  0  0  0
   14.5281  -11.1630  -11.0536 C   0  0  2  0  0  0  0  0  0  0  0  0
   15.0000  -12.5032  -10.9825 N   0  0  0  0  0  0  0  0  0  0  0  0
   15.5592  -10.1175  -10.9113 C   0  0  0  0  0  0  0  0  0  0  0  0
   16.4375  -10.3312  -10.0155 O   0  0  0  0  0  0  0  0  0  0  0  0
   11.3169  -11.4099  -11.4355 C   0  0  0  0  0  0  0  0  0  0  0  0
   10.2741  -12.2094  -11.8878 C   0  0  0  0  0  0  0  0  0  0  0  0
   21.8023   -7.1434  -12.8430 N   0  0  0  0  0  0  0  0  0  0  0  0
   21.3774   -5.9633  -13.4974 C   0  0  0  0  0  0  0  0  0  0  0  0
   21.9201   -4.8088  -13.2870 N   0  0  0  0  0  0  0  0  0  0  0  0
   20.3087   -6.0513  -14.4228 N   0  0  0  0  0  0  0  0  0  0  0  0
   19.3007   -7.1163  -14.3329 C   0  0  0  0  0  0  0  0  0  0  0  0
   18.6057   -7.0826  -13.0219 C   0  0  0  0  0  0  0  0  0  0  0  0
   17.4800   -8.0210  -12.8590 C   0  0  0  0  0  0  0  0  0  0  0  0
   16.7820   -8.0326  -11.5260 C   0  0  2  0  0  0  0  0  0  0  0  0
   15.6300   -8.9488  -11.6710 N   0  0  0  0  0  0  0  0  0  0  0  0
   16.2397   -6.7429  -11.0940 C   0  0  0  0  0  0  0  0  0  0  0  0
   15.3590   -6.1630  -11.8204 O   0  0  0  0  0  0  0  0  0  0  0  0
   21.6241   -3.9359  -13.7362 N   0  0  0  0  0  0  0  0  0  0  0  0
   16.5744   -6.0222   -9.9266 C   0  0  2  0  0  0  0  0  0  0  0  0
   15.9856   -4.7769   -9.5457 C   0  0  0  0  0  0  0  0  0  0  0  0
   15.9213   -4.5834   -8.0447 S   0  0  0  0  0  0  0  0  0  0  0  0
   14.9605   -5.9954   -7.3879 C   0  0  0  0  0  0  0  0  0  0  0  0
   16.6125   -3.6053  -10.1531 O   0  0  0  0  0  0  0  0  0  0  0  0
   16.1397   -2.3079  -10.0972 O   0  0  0  0  0  0  0  0  0  0  0  0
  2  1  1  0
  3  2  2  0
  4  3  1  0
  5 11  1  0
  5  4  2  0
  6  5  1  0
  7  6  1  0
  7  8  1  1
  9  7  1  0
  9 10  2  0
 11 12  2  0
 12  2  1  0
 13 14  1  0
 14 15  2  0
 16 14  1  0
 16 17  1  0
 18 17  1  0
 20 19  1  6
 19 18  1  0
 20 21  1  0
 21  9  1  0
 22 20  1  0
 23 22  2  0
 24 22  1  0
 25 28  1  0
 25 24  1  0
 25 26  1  1
 27 26  1  0
 28 29  1  0
 30 28  2  0
M  END
$$$$
