YRC.pdb
     RDKit          3D

 30 30  0  0  1  0  0  0  0  0999 V2000
   30.1620  -15.9871  -20.0793 O   0  0  0  0  0  0  0  0  0  0  0  0
   29.2377  -15.9864  -19.0441 C   0  0  0  0  0  0  0  0  0  0  0  0
   29.0330  -17.0752  -18.2249 C   0  0  0  0  0  0  0  0  0  0  0  0
   28.1029  -17.0463  -17.1969 C   0  0  0  0  0  0  0  0  0  0  0  0
   27.3589  -15.9228  -16.9699 C   0  0  0  0  0  0  0  0  0  0  0  0
   26.3557  -15.8490  -15.8776 C   0  0  0  0  0  0  0  0  0  0  0  0
   25.1394  -16.6691  -16.3238 C   0  0  2  0  0  0  0  0  0  0  0  0
   24.1706  -15.8274  -16.9377 N   0  0  0  0  0  0  0  0  0  0  0  0
   24.6316  -17.5460  -15.2516 C   0  0  0  0  0  0  0  0  0  0  0  0
   23.7162  -17.0470  -14.5219 O   0  0  0  0  0  0  0  0  0  0  0  0
   27.5671  -14.8351  -17.7931 C   0  0  0  0  0  0  0  0  0  0  0  0
   28.4945  -14.8459  -18.8280 C   0  0  0  0  0  0  0  0  0  0  0  0
   24.4118  -25.4905  -14.5165 N   0  0  0  0  0  0  0  0  0  0  0  0
   23.1814  -24.8352  -14.2757 C   0  0  0  0  0  0  0  0  0  0  0  0
   22.2554  -25.3334  -13.5233 N   0  0  0  0  0  0  0  0  0  0  0  0
   22.9541  -23.5783  -14.8878 N   0  0  0  0  0  0  0  0  0  0  0  0
   23.9333  -22.9838  -15.8078 C   0  0  0  0  0  0  0  0  0  0  0  0
   24.6365  -21.8419  -15.1719 C   0  0  0  0  0  0  0  0  0  0  0  0
   23.7787  -20.8018  -14.5747 C   0  0  0  0  0  0  0  0  0  0  0  0
   24.4675  -19.6413  -13.9090 C   0  0  2  0  0  0  0  0  0  0  0  0
   25.0765  -18.8439  -14.9957 N   0  0  0  0  0  0  0  0  0  0  0  0
   25.5528  -20.0007  -12.9943 C   0  0  0  0  0  0  0  0  0  0  0  0
   26.3360  -20.9647  -13.3057 O   0  0  0  0  0  0  0  0  0  0  0  0
   21.3761  -24.8596  -13.2914 N   0  0  0  0  0  0  0  0  0  0  0  0
   25.8650  -19.3948  -11.7576 C   0  0  2  0  0  0  0  0  0  0  0  0
   26.1727  -20.1097  -10.5589 C   0  0  0  0  0  0  0  0  0  0  0  0
   26.0525  -19.2593   -9.3111 S   0  0  0  0  0  0  0  0  0  0  0  0
   26.0583  -20.4215   -7.8978 C   0  0  0  0  0  0  0  0  0  0  0  0
   25.4023  -21.3378  -10.3775 O   0  0  0  0  0  0  0  0  0  0  0  0
   24.0576  -21.5033  -10.6501 O   0  0  0  0  0  0  0  0  0  0  0  0
  2  1  1  0
  3  2  2  0
  4  3  1  0
  5 11  1  0
  5  4  2  0
  6  5  1  0
  7  6  1  0
  7  8  1  1
  9  7  1  0
  9 10  2  0
 11 12  2  0
 12  2  1  0
 13 14  1  0
 14 15  2  0
 16 14  1  0
 16 17  1  0
 18 17  1  0
 20 19  1  6
 19 18  1  0
 20 21  1  0
 21  9  1  0
 22 20  1  0
 23 22  2  0
 24 22  1  0
 25 28  1  0
 25 24  1  0
 25 26  1  1
 27 26  1  0
 28 29  1  0
 30 28  2  0
M  END
$$$$
