YRC.pdb
     RDKit          3D

 30 30  0  0  1  0  0  0  0  0999 V2000
   28.4753  -12.1058  -17.0772 O   0  0  0  0  0  0  0  0  0  0  0  0
   27.6223  -13.1882  -16.9140 C   0  0  0  0  0  0  0  0  0  0  0  0
   27.4009  -13.7872  -15.6930 C   0  0  0  0  0  0  0  0  0  0  0  0
   26.5420  -14.8673  -15.5588 C   0  0  0  0  0  0  0  0  0  0  0  0
   25.8867  -15.3685  -16.6482 C   0  0  0  0  0  0  0  0  0  0  0  0
   24.9556  -16.5208  -16.5471 C   0  0  0  0  0  0  0  0  0  0  0  0
   25.8060  -17.7676  -16.2762 C   0  0  2  0  0  0  0  0  0  0  0  0
   26.6584  -18.0378  -17.3828 N   0  0  0  0  0  0  0  0  0  0  0  0
   24.9953  -18.9066  -15.8052 C   0  0  0  0  0  0  0  0  0  0  0  0
   24.6437  -19.7381  -16.7020 O   0  0  0  0  0  0  0  0  0  0  0  0
   26.1119  -14.7656  -17.8689 C   0  0  0  0  0  0  0  0  0  0  0  0
   26.9690  -13.6825  -18.0223 C   0  0  0  0  0  0  0  0  0  0  0  0
   25.9902  -20.5329   -8.5330 N   0  0  0  0  0  0  0  0  0  0  0  0
   24.9852  -21.3771   -9.0609 C   0  0  0  0  0  0  0  0  0  0  0  0
   23.9097  -21.6810   -8.4106 N   0  0  0  0  0  0  0  0  0  0  0  0
   25.1670  -21.9142  -10.3588 N   0  0  0  0  0  0  0  0  0  0  0  0
   26.2873  -21.4968  -11.2127 C   0  0  0  0  0  0  0  0  0  0  0  0
   25.8227  -21.1907  -12.5887 C   0  0  0  0  0  0  0  0  0  0  0  0
   24.4326  -20.7153  -12.7145 C   0  0  0  0  0  0  0  0  0  0  0  0
   23.9405  -20.3875  -14.0982 C   0  0  2  0  0  0  0  0  0  0  0  0
   24.6031  -19.1225  -14.4833 N   0  0  0  0  0  0  0  0  0  0  0  0
   22.4989  -20.1561  -14.2096 C   0  0  0  0  0  0  0  0  0  0  0  0
   21.9791  -19.1596  -13.5961 O   0  0  0  0  0  0  0  0  0  0  0  0
   23.1900  -22.3294   -8.7466 N   0  0  0  0  0  0  0  0  0  0  0  0
   21.5637  -20.9218  -14.9399 C   0  0  2  0  0  0  0  0  0  0  0  0
   20.1484  -20.7275  -14.8992 C   0  0  0  0  0  0  0  0  0  0  0  0
   19.4109  -21.4963  -15.9760 S   0  0  0  0  0  0  0  0  0  0  0  0
   20.3183  -21.1901  -17.5352 C   0  0  0  0  0  0  0  0  0  0  0  0
   19.5395  -21.0158  -13.6027 O   0  0  0  0  0  0  0  0  0  0  0  0
   20.1443  -21.6709  -12.5467 O   0  0  0  0  0  0  0  0  0  0  0  0
  2  1  1  0
  3  2  2  0
  4  3  1  0
  5 11  1  0
  5  4  2  0
  6  5  1  0
  7  6  1  0
  7  8  1  6
  9  7  1  0
  9 10  2  0
 11 12  2  0
 12  2  1  0
 13 14  1  0
 14 15  2  0
 16 14  1  0
 16 17  1  0
 18 17  1  0
 20 19  1  1
 19 18  1  0
 20 21  1  0
 21  9  1  0
 22 20  1  0
 23 22  2  0
 24 22  1  0
 25 28  1  0
 25 24  1  0
 25 26  1  6
 27 26  1  0
 28 29  1  0
 30 28  2  0
M  END
$$$$
