YRC.pdb
     RDKit          3D

 30 30  0  0  1  0  0  0  0  0999 V2000
   17.6520  -33.4956  -17.8428 O   0  0  0  0  0  0  0  0  0  0  0  0
   18.0051  -32.1819  -17.5683 C   0  0  0  0  0  0  0  0  0  0  0  0
   18.9591  -31.4985  -18.2904 C   0  0  0  0  0  0  0  0  0  0  0  0
   19.2916  -30.1853  -17.9946 C   0  0  0  0  0  0  0  0  0  0  0  0
   18.6725  -29.5305  -16.9674 C   0  0  0  0  0  0  0  0  0  0  0  0
   18.9962  -28.1234  -16.6204 C   0  0  0  0  0  0  0  0  0  0  0  0
   20.2562  -28.1508  -15.7471 C   0  0  2  0  0  0  0  0  0  0  0  0
   19.9403  -28.5944  -14.4328 N   0  0  0  0  0  0  0  0  0  0  0  0
   21.0199  -26.8911  -15.8266 C   0  0  0  0  0  0  0  0  0  0  0  0
   20.7858  -26.0481  -14.9024 O   0  0  0  0  0  0  0  0  0  0  0  0
   17.7181  -30.2190  -16.2468 C   0  0  0  0  0  0  0  0  0  0  0  0
   17.3721  -31.5351  -16.5288 C   0  0  0  0  0  0  0  0  0  0  0  0
   28.9725  -25.8000  -16.2982 N   0  0  0  0  0  0  0  0  0  0  0  0
   27.8764  -26.6929  -16.3500 C   0  0  0  0  0  0  0  0  0  0  0  0
   27.9721  -27.9422  -16.0307 N   0  0  0  0  0  0  0  0  0  0  0  0
   26.6192  -26.1957  -16.7721 N   0  0  0  0  0  0  0  0  0  0  0  0
   26.4499  -24.8010  -17.2018 C   0  0  0  0  0  0  0  0  0  0  0  0
   25.0198  -24.4897  -17.4488 C   0  0  0  0  0  0  0  0  0  0  0  0
   24.0777  -25.6165  -17.3185 C   0  0  0  0  0  0  0  0  0  0  0  0
   22.7193  -25.3144  -16.7460 C   0  0  2  0  0  0  0  0  0  0  0  0
   21.9511  -26.5762  -16.8174 N   0  0  0  0  0  0  0  0  0  0  0  0
   21.9437  -24.3097  -17.4760 C   0  0  0  0  0  0  0  0  0  0  0  0
   21.5240  -24.5827  -18.6546 O   0  0  0  0  0  0  0  0  0  0  0  0
   27.2080  -28.6219  -16.1040 N   0  0  0  0  0  0  0  0  0  0  0  0
   21.5789  -23.0205  -17.0298 C   0  0  1  0  0  0  0  0  0  0  0  0
   20.7585  -22.1099  -17.7648 C   0  0  0  0  0  0  0  0  0  0  0  0
   20.0960  -21.0661  -16.8895 S   0  0  0  0  0  0  0  0  0  0  0  0
   19.0928  -21.9862  -15.6669 C   0  0  0  0  0  0  0  0  0  0  0  0
   21.4425  -21.4435  -18.8706 O   0  0  0  0  0  0  0  0  0  0  0  0
   20.8371  -20.8153  -19.9424 O   0  0  0  0  0  0  0  0  0  0  0  0
  2  1  1  0
  3  2  2  0
  4  3  1  0
  5 11  1  0
  5  4  2  0
  6  5  1  0
  7  6  1  0
  7  8  1  1
  9  7  1  0
  9 10  2  0
 11 12  2  0
 12  2  1  0
 13 14  1  0
 14 15  2  0
 16 14  1  0
 16 17  1  0
 18 17  1  0
 20 19  1  6
 19 18  1  0
 20 21  1  0
 21  9  1  0
 22 20  1  0
 23 22  2  0
 24 22  1  0
 25 28  1  0
 25 24  1  0
 25 26  1  6
 27 26  1  0
 28 29  1  0
 30 28  2  0
M  END
$$$$
