YRC.pdb
     RDKit          3D

 30 30  0  0  1  0  0  0  0  0999 V2000
   17.0411  -14.3260  -15.8715 O   0  0  0  0  0  0  0  0  0  0  0  0
   17.8112  -15.2998  -15.2515 C   0  0  0  0  0  0  0  0  0  0  0  0
   17.2631  -16.3397  -14.5325 C   0  0  0  0  0  0  0  0  0  0  0  0
   18.0569  -17.2999  -13.9238 C   0  0  0  0  0  0  0  0  0  0  0  0
   19.4182  -17.2361  -14.0247 C   0  0  0  0  0  0  0  0  0  0  0  0
   20.3038  -18.2460  -13.3917 C   0  0  0  0  0  0  0  0  0  0  0  0
   20.5294  -19.3594  -14.4215 C   0  0  2  0  0  0  0  0  0  0  0  0
   19.3905  -20.2090  -14.4924 N   0  0  0  0  0  0  0  0  0  0  0  0
   21.8224  -20.0440  -14.2316 C   0  0  0  0  0  0  0  0  0  0  0  0
   21.8122  -21.0191  -13.4140 O   0  0  0  0  0  0  0  0  0  0  0  0
   19.9625  -16.1928  -14.7454 C   0  0  0  0  0  0  0  0  0  0  0  0
   19.1828  -15.2216  -15.3619 C   0  0  0  0  0  0  0  0  0  0  0  0
   29.2550  -22.1034  -15.3149 N   0  0  0  0  0  0  0  0  0  0  0  0
   28.7923  -22.1934  -16.6488 C   0  0  0  0  0  0  0  0  0  0  0  0
   28.9768  -23.2383  -17.3876 N   0  0  0  0  0  0  0  0  0  0  0  0
   28.0977  -21.0884  -17.1990 N   0  0  0  0  0  0  0  0  0  0  0  0
   27.6643  -19.9604  -16.3634 C   0  0  0  0  0  0  0  0  0  0  0  0
   26.6822  -20.4009  -15.3416 C   0  0  0  0  0  0  0  0  0  0  0  0
   25.2921  -19.9505  -15.5398 C   0  0  0  0  0  0  0  0  0  0  0  0
   24.2721  -20.4031  -14.5303 C   0  0  2  0  0  0  0  0  0  0  0  0
   23.0152  -19.7016  -14.8702 N   0  0  0  0  0  0  0  0  0  0  0  0
   24.5779  -20.0644  -13.1390 C   0  0  0  0  0  0  0  0  0  0  0  0
   24.4678  -18.8475  -12.7558 O   0  0  0  0  0  0  0  0  0  0  0  0
   28.7457  -23.2942  -18.3850 N   0  0  0  0  0  0  0  0  0  0  0  0
   24.9958  -20.9442  -12.1165 C   0  0  2  0  0  0  0  0  0  0  0  0
   25.5870  -20.5311  -10.8826 C   0  0  0  0  0  0  0  0  0  0  0  0
   24.6683  -20.7131   -9.6921 S   0  0  0  0  0  0  0  0  0  0  0  0
   25.7208  -20.5491   -8.2044 C   0  0  0  0  0  0  0  0  0  0  0  0
   26.8748  -21.1581  -10.5940 O   0  0  0  0  0  0  0  0  0  0  0  0
   27.7777  -20.7563   -9.6280 O   0  0  0  0  0  0  0  0  0  0  0  0
  2  1  1  0
  3  2  2  0
  4  3  1  0
  5 11  1  0
  5  4  2  0
  6  5  1  0
  7  6  1  0
  7  8  1  1
  9  7  1  0
  9 10  2  0
 11 12  2  0
 12  2  1  0
 13 14  1  0
 14 15  2  0
 16 14  1  0
 16 17  1  0
 18 17  1  0
 20 19  1  6
 19 18  1  0
 20 21  1  0
 21  9  1  0
 22 20  1  0
 23 22  2  0
 24 22  1  0
 25 28  1  0
 25 24  1  0
 25 26  1  1
 27 26  1  0
 28 29  1  0
 30 28  2  0
M  END
$$$$
