YRC.pdb
     RDKit          3D

 30 30  0  0  1  0  0  0  0  0999 V2000
   19.2052  -22.3791  -17.7409 O   0  0  0  0  0  0  0  0  0  0  0  0
   19.7139  -23.6698  -17.7763 C   0  0  0  0  0  0  0  0  0  0  0  0
   19.6120  -24.5420  -16.7144 C   0  0  0  0  0  0  0  0  0  0  0  0
   20.1289  -25.8271  -16.7777 C   0  0  0  0  0  0  0  0  0  0  0  0
   20.7587  -26.2635  -17.9091 C   0  0  0  0  0  0  0  0  0  0  0  0
   21.3222  -27.6328  -18.0195 C   0  0  0  0  0  0  0  0  0  0  0  0
   22.6597  -27.6337  -17.2697 C   0  0  2  0  0  0  0  0  0  0  0  0
   23.5889  -26.7671  -17.9096 N   0  0  0  0  0  0  0  0  0  0  0  0
   23.1477  -28.9990  -16.9969 C   0  0  0  0  0  0  0  0  0  0  0  0
   24.0109  -29.4475  -17.8174 O   0  0  0  0  0  0  0  0  0  0  0  0
   20.8586  -25.3864  -18.9698 C   0  0  0  0  0  0  0  0  0  0  0  0
   20.3468  -24.0952  -18.9243 C   0  0  0  0  0  0  0  0  0  0  0  0
   26.2965  -33.6690  -12.0218 N   0  0  0  0  0  0  0  0  0  0  0  0
   25.3653  -34.7290  -11.9180 C   0  0  0  0  0  0  0  0  0  0  0  0
   25.7155  -35.9518  -11.6861 N   0  0  0  0  0  0  0  0  0  0  0  0
   23.9885  -34.4368  -12.0769 N   0  0  0  0  0  0  0  0  0  0  0  0
   23.5227  -33.0791  -12.3905 C   0  0  0  0  0  0  0  0  0  0  0  0
   23.7022  -32.7742  -13.8319 C   0  0  0  0  0  0  0  0  0  0  0  0
   23.2385  -31.4474  -14.2779 C   0  0  0  0  0  0  0  0  0  0  0  0
   23.3096  -31.1540  -15.7521 C   0  0  2  0  0  0  0  0  0  0  0  0
   22.7365  -29.8024  -15.9323 N   0  0  0  0  0  0  0  0  0  0  0  0
   22.5337  -32.0553  -16.6061 C   0  0  0  0  0  0  0  0  0  0  0  0
   21.3002  -31.7937  -16.8291 O   0  0  0  0  0  0  0  0  0  0  0  0
   25.0613  -36.7334  -11.5743 N   0  0  0  0  0  0  0  0  0  0  0  0
   22.9884  -33.2284  -17.2475 C   0  0  1  0  0  0  0  0  0  0  0  0
   22.2611  -33.9364  -18.2537 C   0  0  0  0  0  0  0  0  0  0  0  0
   21.7477  -33.0382  -19.3601 S   0  0  0  0  0  0  0  0  0  0  0  0
   20.9093  -34.1347  -20.5612 C   0  0  0  0  0  0  0  0  0  0  0  0
   22.9894  -35.0564  -18.8453 O   0  0  0  0  0  0  0  0  0  0  0  0
   22.6084  -36.3844  -18.8111 O   0  0  0  0  0  0  0  0  0  0  0  0
  2  1  1  0
  3  2  2  0
  4  3  1  0
  5 11  1  0
  5  4  2  0
  6  5  1  0
  7  6  1  0
  7  8  1  6
  9  7  1  0
  9 10  2  0
 11 12  2  0
 12  2  1  0
 13 14  1  0
 14 15  2  0
 16 14  1  0
 16 17  1  0
 18 17  1  0
 20 19  1  1
 19 18  1  0
 20 21  1  0
 21  9  1  0
 22 20  1  0
 23 22  2  0
 24 22  1  0
 25 28  1  0
 25 24  1  0
 25 26  1  6
 27 26  1  0
 28 29  1  0
 30 28  2  0
M  END
$$$$
