YRC.pdb
     RDKit          3D

 30 30  0  0  1  0  0  0  0  0999 V2000
   21.4817  -31.3641   -9.5983 O   0  0  0  0  0  0  0  0  0  0  0  0
   21.3713  -30.1535  -10.2676 C   0  0  0  0  0  0  0  0  0  0  0  0
   20.7544  -29.0503   -9.7188 C   0  0  0  0  0  0  0  0  0  0  0  0
   20.6592  -27.8522  -10.4102 C   0  0  0  0  0  0  0  0  0  0  0  0
   21.1820  -27.7366  -11.6675 C   0  0  0  0  0  0  0  0  0  0  0  0
   21.1050  -26.4709  -12.4401 C   0  0  0  0  0  0  0  0  0  0  0  0
   19.6587  -26.3255  -12.9278 C   0  0  2  0  0  0  0  0  0  0  0  0
   19.6295  -25.7765  -14.2400 N   0  0  0  0  0  0  0  0  0  0  0  0
   18.7989  -25.6505  -11.9371 C   0  0  0  0  0  0  0  0  0  0  0  0
   19.0060  -24.4035  -11.7897 O   0  0  0  0  0  0  0  0  0  0  0  0
   21.7985  -28.8442  -12.2130 C   0  0  0  0  0  0  0  0  0  0  0  0
   21.9031  -30.0527  -11.5350 C   0  0  0  0  0  0  0  0  0  0  0  0
   13.3911  -20.8496  -10.2865 N   0  0  0  0  0  0  0  0  0  0  0  0
   12.8392  -21.6666   -9.2719 C   0  0  0  0  0  0  0  0  0  0  0  0
   11.9428  -21.2455   -8.4407 N   0  0  0  0  0  0  0  0  0  0  0  0
   13.2906  -23.0045   -9.1617 N   0  0  0  0  0  0  0  0  0  0  0  0
   14.3656  -23.5254  -10.0170 C   0  0  0  0  0  0  0  0  0  0  0  0
   14.5337  -24.9881   -9.8298 C   0  0  0  0  0  0  0  0  0  0  0  0
   15.5653  -25.6351  -10.6614 C   0  0  0  0  0  0  0  0  0  0  0  0
   16.9966  -25.4858  -10.2213 C   0  0  2  0  0  0  0  0  0  0  0  0
   17.8067  -26.2716  -11.1771 N   0  0  0  0  0  0  0  0  0  0  0  0
   17.2974  -26.0096   -8.8875 C   0  0  0  0  0  0  0  0  0  0  0  0
   17.4399  -27.2726   -8.7321 O   0  0  0  0  0  0  0  0  0  0  0  0
   11.5676  -21.7959   -7.6612 N   0  0  0  0  0  0  0  0  0  0  0  0
   17.4605  -25.2707   -7.6952 C   0  0  2  0  0  0  0  0  0  0  0  0
   17.5914  -25.8484   -6.3945 C   0  0  0  0  0  0  0  0  0  0  0  0
   18.9162  -25.5301   -5.7325 S   0  0  0  0  0  0  0  0  0  0  0  0
   18.7563  -26.0596   -3.9883 C   0  0  0  0  0  0  0  0  0  0  0  0
   16.5049  -25.5142   -5.4767 O   0  0  0  0  0  0  0  0  0  0  0  0
   15.7122  -24.3834   -5.5306 O   0  0  0  0  0  0  0  0  0  0  0  0
  2  1  1  0
  3  2  2  0
  4  3  1  0
  5 11  1  0
  5  4  2  0
  6  5  1  0
  7  6  1  0
  7  8  1  6
  9  7  1  0
  9 10  2  0
 11 12  2  0
 12  2  1  0
 13 14  1  0
 14 15  2  0
 16 14  1  0
 16 17  1  0
 18 17  1  0
 20 19  1  6
 19 18  1  0
 20 21  1  0
 21  9  1  0
 22 20  1  0
 23 22  2  0
 24 22  1  0
 25 28  1  0
 25 24  1  0
 25 26  1  1
 27 26  1  0
 28 29  1  0
 30 28  2  0
M  END
$$$$
