YRC.pdb
     RDKit          3D

 30 30  0  0  1  0  0  0  0  0999 V2000
   30.8053  -21.4647  -17.2845 O   0  0  0  0  0  0  0  0  0  0  0  0
   29.5180  -21.1895  -16.8451 C   0  0  0  0  0  0  0  0  0  0  0  0
   28.6204  -22.1758  -16.4986 C   0  0  0  0  0  0  0  0  0  0  0  0
   27.3401  -21.8719  -16.0615 C   0  0  0  0  0  0  0  0  0  0  0  0
   26.9344  -20.5708  -15.9627 C   0  0  0  0  0  0  0  0  0  0  0  0
   25.5740  -20.2024  -15.4954 C   0  0  0  0  0  0  0  0  0  0  0  0
   24.6148  -20.4295  -16.6700 C   0  0  2  0  0  0  0  0  0  0  0  0
   24.9382  -19.5623  -17.7504 N   0  0  0  0  0  0  0  0  0  0  0  0
   23.2011  -20.4197  -16.2482 C   0  0  0  0  0  0  0  0  0  0  0  0
   22.7034  -19.2704  -16.0231 O   0  0  0  0  0  0  0  0  0  0  0  0
   27.8367  -19.5865  -16.3112 C   0  0  0  0  0  0  0  0  0  0  0  0
   29.1235  -19.8723  -16.7513 C   0  0  0  0  0  0  0  0  0  0  0  0
   20.8637  -26.4462  -13.7863 N   0  0  0  0  0  0  0  0  0  0  0  0
   20.8622  -26.6577  -15.1852 C   0  0  0  0  0  0  0  0  0  0  0  0
   21.5951  -27.5536  -15.7612 N   0  0  0  0  0  0  0  0  0  0  0  0
   20.0213  -25.8503  -15.9896 N   0  0  0  0  0  0  0  0  0  0  0  0
   19.1521  -24.8221  -15.4014 C   0  0  0  0  0  0  0  0  0  0  0  0
   19.9396  -23.6374  -14.9781 C   0  0  0  0  0  0  0  0  0  0  0  0
   20.3014  -22.6836  -16.0429 C   0  0  0  0  0  0  0  0  0  0  0  0
   21.0034  -21.4200  -15.6246 C   0  0  2  0  0  0  0  0  0  0  0  0
   22.4023  -21.5527  -16.0860 N   0  0  0  0  0  0  0  0  0  0  0  0
   21.0590  -21.1857  -14.1803 C   0  0  0  0  0  0  0  0  0  0  0  0
   21.9899  -21.7372  -13.4954 O   0  0  0  0  0  0  0  0  0  0  0  0
   21.6763  -27.6746  -16.7762 N   0  0  0  0  0  0  0  0  0  0  0  0
   20.1818  -20.3931  -13.4081 C   0  0  1  0  0  0  0  0  0  0  0  0
   20.3051  -20.1841  -11.9996 C   0  0  0  0  0  0  0  0  0  0  0  0
   20.4773  -18.7259  -11.6271 S   0  0  0  0  0  0  0  0  0  0  0  0
   20.6769  -18.6829   -9.8088 C   0  0  0  0  0  0  0  0  0  0  0  0
   19.2162  -20.7546  -11.2101 O   0  0  0  0  0  0  0  0  0  0  0  0
   19.2779  -21.1121   -9.8765 O   0  0  0  0  0  0  0  0  0  0  0  0
  2  1  1  0
  3  2  2  0
  4  3  1  0
  5 11  1  0
  5  4  2  0
  6  5  1  0
  7  6  1  0
  7  8  1  6
  9  7  1  0
  9 10  2  0
 11 12  2  0
 12  2  1  0
 13 14  1  0
 14 15  2  0
 16 14  1  0
 16 17  1  0
 18 17  1  0
 20 19  1  1
 19 18  1  0
 20 21  1  0
 21  9  1  0
 22 20  1  0
 23 22  2  0
 24 22  1  0
 25 28  1  0
 25 24  1  0
 25 26  1  1
 27 26  1  0
 28 29  1  0
 30 28  2  0
M  END
$$$$
