YRC.pdb
     RDKit          3D

 30 30  0  0  1  0  0  0  0  0999 V2000
   17.1955  -25.8971  -17.8604 O   0  0  0  0  0  0  0  0  0  0  0  0
   17.8784  -24.7328  -17.5381 C   0  0  0  0  0  0  0  0  0  0  0  0
   17.2471  -23.5202  -17.3656 C   0  0  0  0  0  0  0  0  0  0  0  0
   17.9546  -22.3723  -17.0427 C   0  0  0  0  0  0  0  0  0  0  0  0
   19.3113  -22.4182  -16.8856 C   0  0  0  0  0  0  0  0  0  0  0  0
   20.1057  -21.2134  -16.5360 C   0  0  0  0  0  0  0  0  0  0  0  0
   20.4903  -21.3381  -15.0570 C   0  0  2  0  0  0  0  0  0  0  0  0
   19.3834  -21.0088  -14.2261 N   0  0  0  0  0  0  0  0  0  0  0  0
   21.7502  -20.6367  -14.7451 C   0  0  0  0  0  0  0  0  0  0  0  0
   21.6473  -19.3829  -14.5533 O   0  0  0  0  0  0  0  0  0  0  0  0
   19.9391  -23.6347  -17.0597 C   0  0  0  0  0  0  0  0  0  0  0  0
   19.2465  -24.7951  -17.3834 C   0  0  0  0  0  0  0  0  0  0  0  0
   26.5214  -19.5608   -9.4579 N   0  0  0  0  0  0  0  0  0  0  0  0
   25.7072  -20.7173   -9.4240 C   0  0  0  0  0  0  0  0  0  0  0  0
   24.8348  -20.9355   -8.4950 N   0  0  0  0  0  0  0  0  0  0  0  0
   25.8564  -21.6790  -10.4531 N   0  0  0  0  0  0  0  0  0  0  0  0
   26.7910  -21.4725  -11.5677 C   0  0  0  0  0  0  0  0  0  0  0  0
   26.1522  -20.6998  -12.6621 C   0  0  0  0  0  0  0  0  0  0  0  0
   24.8486  -21.2005  -13.1358 C   0  0  0  0  0  0  0  0  0  0  0  0
   24.1885  -20.4455  -14.2576 C   0  0  2  0  0  0  0  0  0  0  0  0
   23.0048  -21.2407  -14.6502 N   0  0  0  0  0  0  0  0  0  0  0  0
   25.0023  -20.2820  -15.4638 C   0  0  0  0  0  0  0  0  0  0  0  0
   25.2146  -21.2978  -16.2140 O   0  0  0  0  0  0  0  0  0  0  0  0
   24.2058  -21.7448   -8.4656 N   0  0  0  0  0  0  0  0  0  0  0  0
   25.6102  -19.0962  -15.9312 C   0  0  2  0  0  0  0  0  0  0  0  0
   26.4620  -19.0185  -17.0762 C   0  0  0  0  0  0  0  0  0  0  0  0
   25.8410  -18.2577  -18.2295 S   0  0  0  0  0  0  0  0  0  0  0  0
   27.1924  -17.2827  -18.9854 C   0  0  0  0  0  0  0  0  0  0  0  0
   27.7891  -18.4724  -16.8015 O   0  0  0  0  0  0  0  0  0  0  0  0
   28.1787  -17.8217  -15.6463 O   0  0  0  0  0  0  0  0  0  0  0  0
  2  1  1  0
  3  2  2  0
  4  3  1  0
  5 11  1  0
  5  4  2  0
  6  5  1  0
  7  6  1  0
  7  8  1  1
  9  7  1  0
  9 10  2  0
 11 12  2  0
 12  2  1  0
 13 14  1  0
 14 15  2  0
 16 14  1  0
 16 17  1  0
 18 17  1  0
 20 19  1  1
 19 18  1  0
 20 21  1  0
 21  9  1  0
 22 20  1  0
 23 22  2  0
 24 22  1  0
 25 28  1  0
 25 24  1  0
 25 26  1  1
 27 26  1  0
 28 29  1  0
 30 28  2  0
M  END
$$$$
