LSS.pdb
     RDKit          3D

 21 20  0  0  1  0  0  0  0  0999 V2000
   24.0117  -13.8999  -17.4251 C   0  0  0  0  0  0  0  0  0  0  0  0
   24.2209  -13.1274  -16.1362 C   0  0  2  0  0  0  0  0  0  0  0  0
   23.0651  -13.2987  -15.1878 C   0  0  0  0  0  0  0  0  0  0  0  0
   24.4281  -11.6696  -16.5203 C   0  0  0  0  0  0  0  0  0  0  0  0
   23.0727  -11.0239  -16.5552 C   0  0  2  0  0  0  0  0  0  0  0  0
   22.3782  -11.4871  -17.7425 N   0  0  0  0  0  0  0  0  0  0  0  0
   23.1195   -9.5517  -16.5349 C   0  0  0  0  0  0  0  0  0  0  0  0
   23.7009   -8.9544  -15.5917 O   0  0  0  0  0  0  0  0  0  0  0  0
   22.2593   -5.2928  -18.8009 O   0  0  0  0  0  0  0  0  0  0  0  0
   22.0253   -6.6602  -18.7657 C   0  0  0  0  0  0  0  0  0  0  0  0
   22.5324   -7.2920  -17.4860 C   0  0  2  0  0  0  0  0  0  0  0  0
   22.5329   -8.7255  -17.5423 N   0  0  0  0  0  0  0  0  0  0  0  0
   21.7163   -6.7510  -16.3761 C   0  0  0  0  0  0  0  0  0  0  0  0
   20.5924   -7.1774  -16.0341 O   0  0  0  0  0  0  0  0  0  0  0  0
   21.9844   -3.8485  -12.4721 O   0  0  0  0  0  0  0  0  0  0  0  0
   22.5826   -4.3869  -13.5852 C   0  0  0  0  0  0  0  0  0  0  0  0
   21.5630   -5.0931  -14.4872 C   0  0  2  0  0  0  0  0  0  0  0  0
   22.2602   -5.6590  -15.6443 N   0  0  0  0  0  0  0  0  0  0  0  0
   20.5531   -4.1235  -14.9480 C   0  0  0  0  0  0  0  0  0  0  0  0
   19.3832   -3.9452  -14.2467 O   0  0  0  0  0  0  0  0  0  0  0  0
   20.7589   -3.4587  -15.9810 O   0  0  0  0  0  0  0  0  0  0  0  0
  2  1  1  6
  3  2  1  0
  4  2  1  0
  4  5  1  0
  5  6  1  6
  7  5  1  0
  8  7  2  0
 10  9  1  0
 11 10  1  6
 11 12  1  0
 11 13  1  0
 12  7  1  0
 13 18  1  0
 14 13  2  0
 16 15  1  0
 17 16  1  1
 17 19  1  0
 18 17  1  0
 19 21  2  0
 19 20  1  0
M  END
$$$$
