LSS.pdb
     RDKit          3D

 21 20  0  0  1  0  0  0  0  0999 V2000
   21.4406  -10.6689  -21.0161 C   0  0  0  0  0  0  0  0  0  0  0  0
   19.9656  -11.0172  -21.0869 C   0  0  2  0  0  0  0  0  0  0  0  0
   19.3508  -10.5845  -22.3905 C   0  0  0  0  0  0  0  0  0  0  0  0
   19.2941  -10.3517  -19.8945 C   0  0  0  0  0  0  0  0  0  0  0  0
   20.0017  -10.8346  -18.6612 C   0  0  2  0  0  0  0  0  0  0  0  0
   19.6590  -12.2301  -18.4567 N   0  0  0  0  0  0  0  0  0  0  0  0
   19.6861  -10.0510  -17.4544 C   0  0  0  0  0  0  0  0  0  0  0  0
   18.5491  -10.1464  -16.9227 O   0  0  0  0  0  0  0  0  0  0  0  0
   21.8246   -9.6234  -14.2145 O   0  0  0  0  0  0  0  0  0  0  0  0
   20.5042   -9.2267  -14.3725 C   0  0  0  0  0  0  0  0  0  0  0  0
   20.3003   -8.4166  -15.6358 C   0  0  2  0  0  0  0  0  0  0  0  0
   20.6083   -9.1609  -16.8230 N   0  0  0  0  0  0  0  0  0  0  0  0
   21.1006   -7.1793  -15.4978 C   0  0  0  0  0  0  0  0  0  0  0  0
   22.2893   -7.0460  -15.8602 O   0  0  0  0  0  0  0  0  0  0  0  0
   20.7011   -2.4634  -14.2322 O   0  0  0  0  0  0  0  0  0  0  0  0
   20.1220   -3.7041  -14.3423 C   0  0  0  0  0  0  0  0  0  0  0  0
   21.1358   -4.7610  -14.7970 C   0  0  2  0  0  0  0  0  0  0  0  0
   20.4601   -6.0560  -14.9046 N   0  0  0  0  0  0  0  0  0  0  0  0
   22.2278   -4.8570  -13.8118 C   0  0  0  0  0  0  0  0  0  0  0  0
   23.3553   -4.0792  -13.9390 O   0  0  0  0  0  0  0  0  0  0  0  0
   22.1309   -5.6486  -12.8550 O   0  0  0  0  0  0  0  0  0  0  0  0
  2  1  1  6
  3  2  1  0
  4  2  1  0
  4  5  1  0
  5  6  1  1
  7  5  1  0
  8  7  2  0
 10  9  1  0
 11 10  1  1
 11 12  1  0
 11 13  1  0
 12  7  1  0
 13 18  1  0
 14 13  2  0
 16 15  1  0
 17 16  1  1
 17 19  1  0
 18 17  1  0
 19 21  2  0
 19 20  1  0
M  END
$$$$
