LSS.pdb
     RDKit          3D

 21 20  0  0  1  0  0  0  0  0999 V2000
   18.6533  -11.8885  -18.9361 C   0  0  0  0  0  0  0  0  0  0  0  0
   17.2449  -11.8525  -18.3731 C   0  0  2  0  0  0  0  0  0  0  0  0
   16.2085  -11.7957  -19.4628 C   0  0  0  0  0  0  0  0  0  0  0  0
   17.1654  -10.6444  -17.4513 C   0  0  0  0  0  0  0  0  0  0  0  0
   18.2000  -10.8361  -16.3798 C   0  0  2  0  0  0  0  0  0  0  0  0
   17.7405  -11.8827  -15.4854 N   0  0  0  0  0  0  0  0  0  0  0  0
   18.4961   -9.6101  -15.6189 C   0  0  0  0  0  0  0  0  0  0  0  0
   17.6422   -9.1450  -14.8194 O   0  0  0  0  0  0  0  0  0  0  0  0
   22.3204   -7.6776  -15.5551 O   0  0  0  0  0  0  0  0  0  0  0  0
   21.3793   -7.5114  -14.5489 C   0  0  0  0  0  0  0  0  0  0  0  0
   19.9621   -7.6343  -15.0687 C   0  0  2  0  0  0  0  0  0  0  0  0
   19.7235   -8.8867  -15.7265 N   0  0  0  0  0  0  0  0  0  0  0  0
   19.7093   -6.4615  -15.9354 C   0  0  0  0  0  0  0  0  0  0  0  0
   19.9974   -6.3874  -17.1492 O   0  0  0  0  0  0  0  0  0  0  0  0
   16.4156   -4.2888  -15.5374 O   0  0  0  0  0  0  0  0  0  0  0  0
   17.5174   -3.4698  -15.4902 C   0  0  0  0  0  0  0  0  0  0  0  0
   18.7464   -4.1418  -16.1144 C   0  0  2  0  0  0  0  0  0  0  0  0
   19.0886   -5.3322  -15.3327 N   0  0  0  0  0  0  0  0  0  0  0  0
   19.8833   -3.2039  -16.1043 C   0  0  0  0  0  0  0  0  0  0  0  0
   21.0259   -3.4971  -15.3968 O   0  0  0  0  0  0  0  0  0  0  0  0
   19.8108   -2.1360  -16.7414 O   0  0  0  0  0  0  0  0  0  0  0  0
  2  1  1  6
  3  2  1  0
  4  2  1  0
  4  5  1  0
  5  6  1  1
  7  5  1  0
  8  7  2  0
 10  9  1  0
 11 10  1  6
 11 12  1  0
 11 13  1  0
 12  7  1  0
 13 18  1  0
 14 13  2  0
 16 15  1  0
 17 16  1  1
 17 19  1  0
 18 17  1  0
 19 21  2  0
 19 20  1  0
M  END
$$$$
