LSS.pdb
     RDKit          3D

 21 20  0  0  1  0  0  0  0  0999 V2000
   17.3632  -10.8761  -19.7574 C   0  0  0  0  0  0  0  0  0  0  0  0
   18.0692  -12.0763  -19.1549 C   0  0  2  0  0  0  0  0  0  0  0  0
   17.1472  -13.2581  -19.0209 C   0  0  0  0  0  0  0  0  0  0  0  0
   18.6253  -11.6353  -17.8088 C   0  0  0  0  0  0  0  0  0  0  0  0
   19.4680  -10.4170  -18.0555 C   0  0  2  0  0  0  0  0  0  0  0  0
   20.6641  -10.8274  -18.7677 N   0  0  0  0  0  0  0  0  0  0  0  0
   19.8315   -9.6918  -16.8259 C   0  0  0  0  0  0  0  0  0  0  0  0
   18.9314   -9.3017  -16.0370 O   0  0  0  0  0  0  0  0  0  0  0  0
   22.8722  -10.3225  -14.2333 O   0  0  0  0  0  0  0  0  0  0  0  0
   22.8664   -9.0198  -14.7114 C   0  0  0  0  0  0  0  0  0  0  0  0
   21.5198   -8.6294  -15.2843 C   0  0  2  0  0  0  0  0  0  0  0  0
   21.1768   -9.3892  -16.4518 N   0  0  0  0  0  0  0  0  0  0  0  0
   21.5522   -7.1696  -15.5258 C   0  0  0  0  0  0  0  0  0  0  0  0
   21.9842   -6.6203  -16.5620 O   0  0  0  0  0  0  0  0  0  0  0  0
   19.6434   -2.9877  -13.9782 O   0  0  0  0  0  0  0  0  0  0  0  0
   19.7716   -4.3500  -13.8563 C   0  0  0  0  0  0  0  0  0  0  0  0
   20.9640   -4.8783  -14.6629 C   0  0  2  0  0  0  0  0  0  0  0  0
   21.0501   -6.3305  -14.4925 N   0  0  0  0  0  0  0  0  0  0  0  0
   22.2072   -4.2522  -14.1783 C   0  0  0  0  0  0  0  0  0  0  0  0
   22.7517   -3.1753  -14.8386 O   0  0  0  0  0  0  0  0  0  0  0  0
   22.7711   -4.7006  -13.1622 O   0  0  0  0  0  0  0  0  0  0  0  0
  2  1  1  1
  3  2  1  0
  4  2  1  0
  4  5  1  0
  5  6  1  1
  7  5  1  0
  8  7  2  0
 10  9  1  0
 11 10  1  6
 11 12  1  0
 11 13  1  0
 12  7  1  0
 13 18  1  0
 14 13  2  0
 16 15  1  0
 17 16  1  1
 17 19  1  0
 18 17  1  0
 19 21  2  0
 19 20  1  0
M  END
$$$$
