LSS.pdb
     RDKit          3D

 21 20  0  0  1  0  0  0  0  0999 V2000
   21.6316  -21.5963  -11.3345 C   0  0  0  0  0  0  0  0  0  0  0  0
   22.3822  -20.7875  -10.2931 C   0  0  2  0  0  0  0  0  0  0  0  0
   21.4493  -19.9690   -9.4420 C   0  0  0  0  0  0  0  0  0  0  0  0
   23.3795  -19.9154  -11.0417 C   0  0  0  0  0  0  0  0  0  0  0  0
   24.1926  -20.8244  -11.9179 C   0  0  2  0  0  0  0  0  0  0  0  0
   24.9860  -21.6895  -11.0642 N   0  0  0  0  0  0  0  0  0  0  0  0
   25.0630  -20.1076  -12.8657 C   0  0  0  0  0  0  0  0  0  0  0  0
   24.5702  -19.2561  -13.6510 O   0  0  0  0  0  0  0  0  0  0  0  0
   29.0190  -21.3464  -13.6750 O   0  0  0  0  0  0  0  0  0  0  0  0
   28.7718  -19.9830  -13.7520 C   0  0  0  0  0  0  0  0  0  0  0  0
   27.3005  -19.6810  -13.9462 C   0  0  2  0  0  0  0  0  0  0  0  0
   26.4733  -20.3160  -12.9610 N   0  0  0  0  0  0  0  0  0  0  0  0
   26.9536  -20.0618  -15.3337 C   0  0  0  0  0  0  0  0  0  0  0  0
   26.6249  -21.2090  -15.7051 O   0  0  0  0  0  0  0  0  0  0  0  0
   27.0700  -16.9670  -18.1178 O   0  0  0  0  0  0  0  0  0  0  0  0
   26.1670  -17.9750  -18.3534 C   0  0  0  0  0  0  0  0  0  0  0  0
   26.6116  -19.2925  -17.7068 C   0  0  2  0  0  0  0  0  0  0  0  0
   27.0001  -19.0359  -16.3181 N   0  0  0  0  0  0  0  0  0  0  0  0
   27.7620  -19.8439  -18.4449 C   0  0  0  0  0  0  0  0  0  0  0  0
   27.5787  -20.4878  -19.6466 O   0  0  0  0  0  0  0  0  0  0  0  0
   28.9109  -19.7268  -17.9783 O   0  0  0  0  0  0  0  0  0  0  0  0
  2  1  1  6
  3  2  1  0
  4  2  1  0
  4  5  1  0
  5  6  1  1
  7  5  1  0
  8  7  2  0
 10  9  1  0
 11 10  1  1
 11 12  1  0
 11 13  1  0
 12  7  1  0
 13 18  1  0
 14 13  2  0
 16 15  1  0
 17 16  1  6
 17 19  1  0
 18 17  1  0
 19 21  2  0
 19 20  1  0
M  END
$$$$
