LSS.pdb
     RDKit          3D

 21 20  0  0  1  0  0  0  0  0999 V2000
   15.5496  -10.2530  -14.1117 C   0  0  0  0  0  0  0  0  0  0  0  0
   15.0008   -9.2922  -13.0736 C   0  0  2  0  0  0  0  0  0  0  0  0
   13.6777   -8.7112  -13.4938 C   0  0  0  0  0  0  0  0  0  0  0  0
   16.0537   -8.2133  -12.8660 C   0  0  0  0  0  0  0  0  0  0  0  0
   17.2157   -8.8574  -12.1658 C   0  0  2  0  0  0  0  0  0  0  0  0
   16.8748   -9.0089  -10.7632 N   0  0  0  0  0  0  0  0  0  0  0  0
   18.4771   -8.1097  -12.3051 C   0  0  0  0  0  0  0  0  0  0  0  0
   18.6447   -7.0359  -11.6698 O   0  0  0  0  0  0  0  0  0  0  0  0
   22.3994   -9.4239  -13.2330 O   0  0  0  0  0  0  0  0  0  0  0  0
   21.8245   -8.4881  -14.0812 C   0  0  0  0  0  0  0  0  0  0  0  0
   20.7108   -7.7154  -13.4057 C   0  0  2  0  0  0  0  0  0  0  0  0
   19.5603   -8.5293  -13.1371 N   0  0  0  0  0  0  0  0  0  0  0  0
   20.4110   -6.5426  -14.2572 C   0  0  0  0  0  0  0  0  0  0  0  0
   19.6126   -6.5357  -15.2187 O   0  0  0  0  0  0  0  0  0  0  0  0
   19.6364   -1.9952  -14.3839 O   0  0  0  0  0  0  0  0  0  0  0  0
   19.9249   -3.1909  -13.7725 C   0  0  0  0  0  0  0  0  0  0  0  0
   20.7897   -4.0872  -14.6671 C   0  0  2  0  0  0  0  0  0  0  0  0
   21.0890   -5.3298  -13.9518 N   0  0  0  0  0  0  0  0  0  0  0  0
   22.0483   -3.3940  -14.9953 C   0  0  0  0  0  0  0  0  0  0  0  0
   22.1399   -2.6042  -16.1179 O   0  0  0  0  0  0  0  0  0  0  0  0
   23.0387   -3.5229  -14.2510 O   0  0  0  0  0  0  0  0  0  0  0  0
  2  1  1  6
  3  2  1  0
  4  2  1  0
  4  5  1  0
  5  6  1  1
  7  5  1  0
  8  7  2  0
 10  9  1  0
 11 10  1  6
 11 12  1  0
 11 13  1  0
 12  7  1  0
 13 18  1  0
 14 13  2  0
 16 15  1  0
 17 16  1  1
 17 19  1  0
 18 17  1  0
 19 21  2  0
 19 20  1  0
M  END
$$$$
