LSS.pdb
     RDKit          3D

 21 20  0  0  1  0  0  0  0  0999 V2000
   24.4641  -28.1369  -18.4115 C   0  0  0  0  0  0  0  0  0  0  0  0
   25.9016  -27.6562  -18.3446 C   0  0  2  0  0  0  0  0  0  0  0  0
   26.5852  -27.7498  -19.6820 C   0  0  0  0  0  0  0  0  0  0  0  0
   26.6031  -28.4981  -17.2889 C   0  0  0  0  0  0  0  0  0  0  0  0
   28.0304  -28.0349  -17.2295 C   0  0  2  0  0  0  0  0  0  0  0  0
   28.7947  -29.0108  -16.4745 N   0  0  0  0  0  0  0  0  0  0  0  0
   28.1921  -26.6949  -16.6394 C   0  0  0  0  0  0  0  0  0  0  0  0
   28.1042  -26.5423  -15.3930 O   0  0  0  0  0  0  0  0  0  0  0  0
   30.9730  -24.1373  -17.4751 O   0  0  0  0  0  0  0  0  0  0  0  0
   30.0969  -23.9956  -16.4083 C   0  0  0  0  0  0  0  0  0  0  0  0
   28.6572  -24.2237  -16.8196 C   0  0  2  0  0  0  0  0  0  0  0  0
   28.4501  -25.5167  -17.4054 N   0  0  0  0  0  0  0  0  0  0  0  0
   28.2744  -23.1086  -17.7143 C   0  0  0  0  0  0  0  0  0  0  0  0
   28.3350  -23.1332  -18.9624 O   0  0  0  0  0  0  0  0  0  0  0  0
   26.6199  -18.4922  -17.6383 O   0  0  0  0  0  0  0  0  0  0  0  0
   27.0084  -19.6124  -16.9447 C   0  0  0  0  0  0  0  0  0  0  0  0
   27.4532  -20.7348  -17.8904 C   0  0  2  0  0  0  0  0  0  0  0  0
   27.8006  -21.9170  -17.0985 N   0  0  0  0  0  0  0  0  0  0  0  0
   28.6305  -20.2965  -18.6612 C   0  0  0  0  0  0  0  0  0  0  0  0
   28.4824  -19.7538  -19.9166 O   0  0  0  0  0  0  0  0  0  0  0  0
   29.7702  -20.4176  -18.1736 O   0  0  0  0  0  0  0  0  0  0  0  0
  2  1  1  6
  3  2  1  0
  4  2  1  0
  4  5  1  0
  5  6  1  1
  7  5  1  0
  8  7  2  0
 10  9  1  0
 11 10  1  6
 11 12  1  0
 11 13  1  0
 12  7  1  0
 13 18  1  0
 14 13  2  0
 16 15  1  0
 17 16  1  1
 17 19  1  0
 18 17  1  0
 19 21  2  0
 19 20  1  0
M  END
$$$$
