LSS.pdb
     RDKit          3D

 21 20  0  0  1  0  0  0  0  0999 V2000
   21.4029  -13.9562  -16.9760 C   0  0  0  0  0  0  0  0  0  0  0  0
   20.0847  -13.5104  -16.3712 C   0  0  2  0  0  0  0  0  0  0  0  0
   18.9505  -14.4130  -16.7755 C   0  0  0  0  0  0  0  0  0  0  0  0
   19.8537  -12.0743  -16.8182 C   0  0  0  0  0  0  0  0  0  0  0  0
   18.6335  -11.5770  -16.0976 C   0  0  2  0  0  0  0  0  0  0  0  0
   17.4603  -12.0557  -16.8053 N   0  0  0  0  0  0  0  0  0  0  0  0
   18.5838  -10.1110  -15.9631 C   0  0  0  0  0  0  0  0  0  0  0  0
   18.4056   -9.3922  -16.9810 O   0  0  0  0  0  0  0  0  0  0  0  0
   17.8115   -6.0752  -13.5133 O   0  0  0  0  0  0  0  0  0  0  0  0
   17.8076   -7.4618  -13.5678 C   0  0  0  0  0  0  0  0  0  0  0  0
   18.7717   -7.9936  -14.6077 C   0  0  2  0  0  0  0  0  0  0  0  0
   18.7282   -9.4232  -14.7191 N   0  0  0  0  0  0  0  0  0  0  0  0
   20.1152   -7.4747  -14.2667 C   0  0  0  0  0  0  0  0  0  0  0  0
   20.8440   -7.9099  -13.3494 O   0  0  0  0  0  0  0  0  0  0  0  0
   23.5464   -4.3436  -15.8179 O   0  0  0  0  0  0  0  0  0  0  0  0
   22.3049   -4.9070  -15.9860 C   0  0  0  0  0  0  0  0  0  0  0  0
   21.9446   -5.8352  -14.8197 C   0  0  2  0  0  0  0  0  0  0  0  0
   20.6106   -6.3947  -15.0490 N   0  0  0  0  0  0  0  0  0  0  0  0
   21.9471   -5.0716  -13.5590 C   0  0  0  0  0  0  0  0  0  0  0  0
   23.0621   -5.0546  -12.7536 O   0  0  0  0  0  0  0  0  0  0  0  0
   20.9319   -4.4355  -13.2183 O   0  0  0  0  0  0  0  0  0  0  0  0
  2  1  1  6
  3  2  1  0
  4  2  1  0
  4  5  1  0
  5  6  1  6
  7  5  1  0
  8  7  2  0
 10  9  1  0
 11 10  1  1
 11 12  1  0
 11 13  1  0
 12  7  1  0
 13 18  1  0
 14 13  2  0
 16 15  1  0
 17 16  1  6
 17 19  1  0
 18 17  1  0
 19 21  2  0
 19 20  1  0
M  END
$$$$
