LSS.pdb
     RDKit          3D

 21 20  0  0  1  0  0  0  0  0999 V2000
   17.5930  -11.1385  -19.4476 C   0  0  0  0  0  0  0  0  0  0  0  0
   16.7244  -11.5935  -18.2898 C   0  0  2  0  0  0  0  0  0  0  0  0
   15.2633  -11.3539  -18.5592 C   0  0  0  0  0  0  0  0  0  0  0  0
   17.2034  -10.8458  -17.0541 C   0  0  0  0  0  0  0  0  0  0  0  0
   18.6512  -11.1940  -16.8592 C   0  0  2  0  0  0  0  0  0  0  0  0
   18.7347  -12.5872  -16.4611 N   0  0  0  0  0  0  0  0  0  0  0  0
   19.3360  -10.3408  -15.8728 C   0  0  0  0  0  0  0  0  0  0  0  0
   18.9708  -10.3554  -14.6682 O   0  0  0  0  0  0  0  0  0  0  0  0
   23.2659   -9.0311  -16.1727 O   0  0  0  0  0  0  0  0  0  0  0  0
   22.5237   -9.0569  -15.0005 C   0  0  0  0  0  0  0  0  0  0  0  0
   21.0847   -8.6432  -15.2284 C   0  0  2  0  0  0  0  0  0  0  0  0
   20.4209   -9.4689  -16.1955 N   0  0  0  0  0  0  0  0  0  0  0  0
   21.0929   -7.2085  -15.5921 C   0  0  0  0  0  0  0  0  0  0  0  0
   21.1836   -6.7608  -16.7554 O   0  0  0  0  0  0  0  0  0  0  0  0
   19.3371   -4.5558  -13.0920 O   0  0  0  0  0  0  0  0  0  0  0  0
   19.6884   -4.2089  -14.3739 C   0  0  0  0  0  0  0  0  0  0  0  0
   21.0328   -4.8269  -14.7767 C   0  0  2  0  0  0  0  0  0  0  0  0
   20.9888   -6.2697  -14.5283 N   0  0  0  0  0  0  0  0  0  0  0  0
   22.1151   -4.2237  -13.9785 C   0  0  0  0  0  0  0  0  0  0  0  0
   22.4695   -2.9073  -14.1620 O   0  0  0  0  0  0  0  0  0  0  0  0
   22.7152   -4.9102  -13.1300 O   0  0  0  0  0  0  0  0  0  0  0  0
  2  1  1  6
  3  2  1  0
  4  2  1  0
  4  5  1  0
  5  6  1  1
  7  5  1  0
  8  7  2  0
 10  9  1  0
 11 10  1  6
 11 12  1  0
 11 13  1  0
 12  7  1  0
 13 18  1  0
 14 13  2  0
 16 15  1  0
 17 16  1  1
 17 19  1  0
 18 17  1  0
 19 21  2  0
 19 20  1  0
M  END
$$$$
