RWE.pdb
     RDKit          3D

 35 36  0  0  1  0  0  0  0  0999 V2000
    9.5277  -15.0563   16.4391 N   0  0  0  0  0  0  0  0  0  0  0  0
    8.3134  -14.3333   16.2518 C   0  0  0  0  0  0  0  0  0  0  0  0
    7.7154  -14.4190   15.1261 N   0  0  0  0  0  0  0  0  0  0  0  0
    7.7703  -13.5321   17.2872 N   0  0  0  0  0  0  0  0  0  0  0  0
    8.2620  -13.7539   18.6479 C   0  0  0  0  0  0  0  0  0  0  0  0
    7.0523  -13.7229   19.5473 C   0  0  0  0  0  0  0  0  0  0  0  0
    7.4165  -13.8695   21.0029 C   0  0  0  0  0  0  0  0  0  0  0  0
    7.2689  -15.3055   21.4010 C   0  0  2  0  0  0  0  0  0  0  0  0
    5.9156  -15.7451   21.1399 N   0  0  0  0  0  0  0  0  0  0  0  0
    7.6186  -15.5047   22.8523 C   0  0  0  0  0  0  0  0  0  0  0  0
    6.7062  -15.4182   23.6968 O   0  0  0  0  0  0  0  0  0  0  0  0
    6.8443  -13.9562   14.8454 N   0  0  0  0  0  0  0  0  0  0  0  0
    8.9290  -15.7802   23.2530 C   0  0  1  0  0  0  0  0  0  0  0  0
    9.3258  -16.0545   24.6194 C   0  0  0  0  0  0  0  0  0  0  0  0
    8.1009  -16.5792   25.3322 C   0  0  0  0  0  0  0  0  0  0  0  0
    7.2844  -15.4444   25.7814 C   0  0  0  0  0  0  0  0  0  0  0  0
    5.9108  -15.3269   25.8194 N   0  0  0  0  0  0  0  0  0  0  0  0
    5.5725  -14.1259   26.2960 C   0  0  0  0  0  0  0  0  0  0  0  0
    6.6969  -13.4415   26.5760 C   0  0  0  0  0  0  0  0  0  0  0  0
    6.9630  -12.1918   27.0768 C   0  0  0  0  0  0  0  0  0  0  0  0
    8.2553  -11.7326   27.2695 C   0  0  0  0  0  0  0  0  0  0  0  0
    9.3317  -12.5310   26.9583 C   0  0  0  0  0  0  0  0  0  0  0  0
    9.0838  -13.7863   26.4553 C   0  0  0  0  0  0  0  0  0  0  0  0
    7.7816  -14.2552   26.2587 C   0  0  0  0  0  0  0  0  0  0  0  0
   10.4644  -17.0273   24.6691 O   0  0  0  0  0  0  0  0  0  0  0  0
   10.2801  -18.2482   24.4640 N   0  0  0  0  0  0  0  0  0  0  0  0
   11.7839  -16.6344   24.9444 C   0  0  1  0  0  0  0  0  0  0  0  0
   12.9670  -17.3349   25.1265 C   0  0  0  0  0  0  0  0  0  0  0  0
   14.2917  -16.8445   24.6743 C   0  0  0  0  0  0  0  0  0  0  0  0
   14.3273  -16.2275   23.3090 C   0  0  0  0  0  0  0  0  0  0  0  0
   15.7046  -15.6519   23.0762 O   0  0  0  0  0  0  0  0  0  0  0  0
   16.5248  -15.6224   24.0270 C   0  0  0  0  0  0  0  0  0  0  0  0
   13.0616  -17.9304   26.4544 O   0  0  0  0  0  0  0  0  0  0  0  0
   12.2536  -17.6144   27.3525 O   0  0  0  0  0  0  0  0  0  0  0  0
   16.0905  -15.1590   21.8577 O   0  0  0  0  0  0  0  0  0  0  0  0
  2  1  1  0
  2  3  2  0
  4  2  1  0
  5  6  1  0
  5  4  1  0
  7  6  1  0
  8  7  1  0
  8  9  1  1
 10  8  1  0
 10 12  1  0
 11 10  2  0
 13 12  1  0
 13 14  1  6
 14 15  1  0
 15 16  2  0
 17 16  1  0
 18 17  1  0
 19 18  2  0
 20 19  1  0
 21 22  1  0
 21 20  2  0
 22 23  2  0
 23 18  1  0
 23 15  1  0
 24 13  1  0
 24 25  2  0
 26 24  1  0
 27 26  1  0
 27 32  1  0
 27 28  1  1
 29 28  1  0
 30 29  1  0
 31 30  2  0
 32 33  2  0
 32 35  1  0
 34 30  1  0
M  END
$$$$
