RWE.pdb
     RDKit          3D

 35 36  0  0  1  0  0  0  0  0999 V2000
    7.9486  -12.1591   15.6346 N   0  0  0  0  0  0  0  0  0  0  0  0
    7.8994  -13.5517   15.3334 C   0  0  0  0  0  0  0  0  0  0  0  0
    7.9158  -13.9159   14.1090 N   0  0  0  0  0  0  0  0  0  0  0  0
    7.8340  -14.5226   16.3640 N   0  0  0  0  0  0  0  0  0  0  0  0
    7.9855  -14.0603   17.7446 C   0  0  0  0  0  0  0  0  0  0  0  0
    7.8342  -15.2787   18.6198 C   0  0  0  0  0  0  0  0  0  0  0  0
    8.0055  -14.9581   20.0829 C   0  0  0  0  0  0  0  0  0  0  0  0
    8.6510  -16.1239   20.7659 C   0  0  2  0  0  0  0  0  0  0  0  0
    7.6554  -17.1362   21.0437 N   0  0  0  0  0  0  0  0  0  0  0  0
    9.3382  -15.6960   22.0359 C   0  0  0  0  0  0  0  0  0  0  0  0
   10.2219  -14.8204   21.9630 O   0  0  0  0  0  0  0  0  0  0  0  0
    7.9917  -14.8709   13.7429 N   0  0  0  0  0  0  0  0  0  0  0  0
    9.0013  -16.2594   23.2699 C   0  0  1  0  0  0  0  0  0  0  0  0
    9.6973  -15.9860   24.5112 C   0  0  0  0  0  0  0  0  0  0  0  0
    8.7512  -16.3520   25.6313 C   0  0  0  0  0  0  0  0  0  0  0  0
    7.5823  -15.4646   25.5812 C   0  0  0  0  0  0  0  0  0  0  0  0
    6.2707  -15.7755   25.2895 N   0  0  0  0  0  0  0  0  0  0  0  0
    5.5199  -14.6726   25.3511 C   0  0  0  0  0  0  0  0  0  0  0  0
    6.3087  -13.6325   25.6788 C   0  0  0  0  0  0  0  0  0  0  0  0
    6.0981  -12.2916   25.8811 C   0  0  0  0  0  0  0  0  0  0  0  0
    7.1237  -11.4256   26.2217 C   0  0  0  0  0  0  0  0  0  0  0  0
    8.4094  -11.8927   26.3701 C   0  0  0  0  0  0  0  0  0  0  0  0
    8.6388  -13.2337   26.1711 C   0  0  0  0  0  0  0  0  0  0  0  0
    7.6075  -14.1126   25.8272 C   0  0  0  0  0  0  0  0  0  0  0  0
   10.9844  -16.7489   24.5912 O   0  0  0  0  0  0  0  0  0  0  0  0
   11.3000  -17.5775   23.7079 N   0  0  0  0  0  0  0  0  0  0  0  0
   11.8981  -16.5830   25.6443 C   0  0  2  0  0  0  0  0  0  0  0  0
   12.3281  -17.4111   26.6704 C   0  0  0  0  0  0  0  0  0  0  0  0
   11.7908  -17.3568   28.0518 C   0  0  0  0  0  0  0  0  0  0  0  0
   12.3518  -18.3635   29.0097 C   0  0  0  0  0  0  0  0  0  0  0  0
   11.7961  -18.0810   30.3859 O   0  0  0  0  0  0  0  0  0  0  0  0
   10.9965  -17.1245   30.5389 C   0  0  0  0  0  0  0  0  0  0  0  0
   12.4979  -18.7927   26.2354 O   0  0  0  0  0  0  0  0  0  0  0  0
   11.5213  -19.4567   25.8297 O   0  0  0  0  0  0  0  0  0  0  0  0
   12.1363  -18.8363   31.4768 O   0  0  0  0  0  0  0  0  0  0  0  0
  2  1  1  0
  2  3  2  0
  4  2  1  0
  5  6  1  0
  5  4  1  0
  7  6  1  0
  8  7  1  0
  8  9  1  1
 10  8  1  0
 10 12  1  0
 11 10  2  0
 13 12  1  0
 13 14  1  6
 14 15  1  0
 15 16  2  0
 17 16  1  0
 18 17  1  0
 19 18  2  0
 20 19  1  0
 21 22  1  0
 21 20  2  0
 22 23  2  0
 23 18  1  0
 23 15  1  0
 24 13  1  0
 24 25  2  0
 26 24  1  0
 27 26  1  0
 27 32  1  0
 27 28  1  6
 29 28  1  0
 30 29  1  0
 31 30  2  0
 32 33  2  0
 32 35  1  0
 34 30  1  0
M  END
$$$$
