RWE.pdb
     RDKit          3D

 35 36  0  0  1  0  0  0  0  0999 V2000
   11.5648  -21.0459   17.3249 N   0  0  0  0  0  0  0  0  0  0  0  0
   10.9088  -20.7423   16.0962 C   0  0  0  0  0  0  0  0  0  0  0  0
   10.4613  -21.7048   15.3851 N   0  0  0  0  0  0  0  0  0  0  0  0
   10.7498  -19.4025   15.6617 N   0  0  0  0  0  0  0  0  0  0  0  0
   11.1538  -18.3371   16.5805 C   0  0  0  0  0  0  0  0  0  0  0  0
   10.2649  -18.4610   17.7921 C   0  0  0  0  0  0  0  0  0  0  0  0
   10.5584  -17.4062   18.8283 C   0  0  0  0  0  0  0  0  0  0  0  0
    9.2919  -16.6774   19.1556 C   0  0  2  0  0  0  0  0  0  0  0  0
    9.0168  -15.6965   18.1284 N   0  0  0  0  0  0  0  0  0  0  0  0
    9.3793  -16.0176   20.5066 C   0  0  0  0  0  0  0  0  0  0  0  0
   10.4388  -15.4372   20.8129 O   0  0  0  0  0  0  0  0  0  0  0  0
    9.9715  -21.6414   14.4863 N   0  0  0  0  0  0  0  0  0  0  0  0
    8.3061  -16.0488   21.4015 C   0  0  2  0  0  0  0  0  0  0  0  0
    8.3777  -15.6079   22.7801 C   0  0  0  0  0  0  0  0  0  0  0  0
    6.9543  -15.4255   23.2539 C   0  0  0  0  0  0  0  0  0  0  0  0
    6.9676  -14.9900   24.6562 C   0  0  0  0  0  0  0  0  0  0  0  0
    6.7932  -15.7427   25.7986 N   0  0  0  0  0  0  0  0  0  0  0  0
    6.8768  -14.9568   26.8753 C   0  0  0  0  0  0  0  0  0  0  0  0
    7.1039  -13.6938   26.4699 C   0  0  0  0  0  0  0  0  0  0  0  0
    7.2761  -12.4933   27.1122 C   0  0  0  0  0  0  0  0  0  0  0  0
    7.5031  -11.3129   26.4244 C   0  0  0  0  0  0  0  0  0  0  0  0
    7.5637  -11.3084   25.0499 C   0  0  0  0  0  0  0  0  0  0  0  0
    7.3933  -12.5023   24.3896 C   0  0  0  0  0  0  0  0  0  0  0  0
    7.1640  -13.6969   25.0785 C   0  0  0  0  0  0  0  0  0  0  0  0
    9.1296  -16.5901   23.6258 O   0  0  0  0  0  0  0  0  0  0  0  0
    8.8735  -17.8142   23.5762 N   0  0  0  0  0  0  0  0  0  0  0  0
   10.1492  -16.2026   24.5098 C   0  0  1  0  0  0  0  0  0  0  0  0
   11.0329  -16.9095   25.3118 C   0  0  0  0  0  0  0  0  0  0  0  0
   12.5003  -16.9330   25.0974 C   0  0  0  0  0  0  0  0  0  0  0  0
   13.0139  -16.0453   24.0046 C   0  0  0  0  0  0  0  0  0  0  0  0
   14.3181  -16.6132   23.4956 O   0  0  0  0  0  0  0  0  0  0  0  0
   15.3783  -16.3707   24.1238 C   0  0  0  0  0  0  0  0  0  0  0  0
   10.7194  -16.7826   26.7303 O   0  0  0  0  0  0  0  0  0  0  0  0
    9.8532  -15.9722   27.1206 O   0  0  0  0  0  0  0  0  0  0  0  0
   14.3832  -17.3870   22.3671 O   0  0  0  0  0  0  0  0  0  0  0  0
  2  1  1  0
  2  3  2  0
  4  2  1  0
  5  6  1  0
  5  4  1  0
  7  6  1  0
  8  7  1  0
  8  9  1  6
 10  8  1  0
 10 12  1  0
 11 10  2  0
 13 12  1  0
 13 14  1  6
 14 15  1  0
 15 16  2  0
 17 16  1  0
 18 17  1  0
 19 18  2  0
 20 19  1  0
 21 22  1  0
 21 20  2  0
 22 23  2  0
 23 18  1  0
 23 15  1  0
 24 13  1  0
 24 25  2  0
 26 24  1  0
 27 26  1  0
 27 32  1  0
 27 28  1  1
 29 28  1  0
 30 29  1  0
 31 30  2  0
 32 33  2  0
 32 35  1  0
 34 30  1  0
M  END
$$$$
