RWE.pdb
     RDKit          3D

 35 36  0  0  1  0  0  0  0  0999 V2000
    6.7418  -14.4497   17.2888 N   0  0  0  0  0  0  0  0  0  0  0  0
    7.8396  -13.5432   17.3632 C   0  0  0  0  0  0  0  0  0  0  0  0
    7.6032  -12.3116   17.6066 N   0  0  0  0  0  0  0  0  0  0  0  0
    9.1718  -13.9884   17.1731 N   0  0  0  0  0  0  0  0  0  0  0  0
    9.3740  -15.2275   16.4207 C   0  0  0  0  0  0  0  0  0  0  0  0
    9.3708  -16.3448   17.4332 C   0  0  0  0  0  0  0  0  0  0  0  0
   10.3085  -16.0787   18.5832 C   0  0  0  0  0  0  0  0  0  0  0  0
   10.0843  -17.1106   19.6450 C   0  0  2  0  0  0  0  0  0  0  0  0
    8.9112  -17.8930   19.3217 N   0  0  0  0  0  0  0  0  0  0  0  0
    9.9360  -16.4709   21.0003 C   0  0  0  0  0  0  0  0  0  0  0  0
   10.9097  -15.8515   21.4708 O   0  0  0  0  0  0  0  0  0  0  0  0
    8.2856  -11.5514   17.6981 N   0  0  0  0  0  0  0  0  0  0  0  0
    8.7417  -16.5630   21.7206 C   0  0  1  0  0  0  0  0  0  0  0  0
    8.5799  -16.1315   23.0945 C   0  0  0  0  0  0  0  0  0  0  0  0
    7.1608  -15.6298   23.2297 C   0  0  0  0  0  0  0  0  0  0  0  0
    6.9078  -15.2787   24.6329 C   0  0  0  0  0  0  0  0  0  0  0  0
    6.4081  -16.0689   25.6468 N   0  0  0  0  0  0  0  0  0  0  0  0
    6.3313  -15.3603   26.7764 C   0  0  0  0  0  0  0  0  0  0  0  0
    6.7712  -14.1120   26.5325 C   0  0  0  0  0  0  0  0  0  0  0  0
    6.9192  -12.9785   27.2918 C   0  0  0  0  0  0  0  0  0  0  0  0
    7.4129  -11.7961   26.7662 C   0  0  0  0  0  0  0  0  0  0  0  0
    7.7768  -11.7212   25.4414 C   0  0  0  0  0  0  0  0  0  0  0  0
    7.6352  -12.8475   24.6656 C   0  0  0  0  0  0  0  0  0  0  0  0
    7.1374  -14.0437   25.1906 C   0  0  0  0  0  0  0  0  0  0  0  0
    8.8752  -17.2458   24.0518 O   0  0  0  0  0  0  0  0  0  0  0  0
    8.3377  -18.3685   23.9216 N   0  0  0  0  0  0  0  0  0  0  0  0
    9.7576  -17.0996   25.1341 C   0  0  1  0  0  0  0  0  0  0  0  0
   10.2606  -17.9829   26.0777 C   0  0  0  0  0  0  0  0  0  0  0  0
   11.5306  -17.7666   26.8128 C   0  0  0  0  0  0  0  0  0  0  0  0
   11.4039  -17.1106   28.1542 C   0  0  0  0  0  0  0  0  0  0  0  0
   12.7899  -16.8666   28.7039 O   0  0  0  0  0  0  0  0  0  0  0  0
   13.6218  -16.2330   28.0083 C   0  0  0  0  0  0  0  0  0  0  0  0
    9.2257  -18.4904   26.9712 O   0  0  0  0  0  0  0  0  0  0  0  0
    8.0911  -17.9694   26.9916 O   0  0  0  0  0  0  0  0  0  0  0  0
   13.1710  -17.3150   29.9409 O   0  0  0  0  0  0  0  0  0  0  0  0
  2  1  1  0
  2  3  2  0
  4  2  1  0
  5  6  1  0
  5  4  1  0
  7  6  1  0
  8  7  1  0
  8  9  1  6
 10  8  1  0
 10 12  1  0
 11 10  2  0
 13 12  1  0
 13 14  1  1
 14 15  1  0
 15 16  2  0
 17 16  1  0
 18 17  1  0
 19 18  2  0
 20 19  1  0
 21 22  1  0
 21 20  2  0
 22 23  2  0
 23 18  1  0
 23 15  1  0
 24 13  1  0
 24 25  2  0
 26 24  1  0
 27 26  1  0
 27 32  1  0
 27 28  1  1
 29 28  1  0
 30 29  1  0
 31 30  2  0
 32 33  2  0
 32 35  1  0
 34 30  1  0
M  END
$$$$
