RWE.pdb
     RDKit          3D

 35 36  0  0  1  0  0  0  0  0999 V2000
    8.4668  -13.3140   14.4613 N   0  0  0  0  0  0  0  0  0  0  0  0
    8.1029  -13.3287   15.8396 C   0  0  0  0  0  0  0  0  0  0  0  0
    8.2953  -12.2754   16.5365 N   0  0  0  0  0  0  0  0  0  0  0  0
    7.5374  -14.4835   16.4361 N   0  0  0  0  0  0  0  0  0  0  0  0
    7.8874  -15.7849   15.8646 C   0  0  0  0  0  0  0  0  0  0  0  0
    8.5254  -16.5793   16.9760 C   0  0  0  0  0  0  0  0  0  0  0  0
    8.5979  -15.8034   18.2665 C   0  0  0  0  0  0  0  0  0  0  0  0
    9.2684  -16.6467   19.3065 C   0  0  2  0  0  0  0  0  0  0  0  0
    8.5991  -17.9259   19.3998 N   0  0  0  0  0  0  0  0  0  0  0  0
    9.2750  -15.9550   20.6442 C   0  0  0  0  0  0  0  0  0  0  0  0
    9.9267  -14.8990   20.7597 O   0  0  0  0  0  0  0  0  0  0  0  0
    8.1468  -12.1583   17.5444 N   0  0  0  0  0  0  0  0  0  0  0  0
    8.5719  -16.4747   21.7347 C   0  0  1  0  0  0  0  0  0  0  0  0
    8.5759  -15.8939   23.0623 C   0  0  0  0  0  0  0  0  0  0  0  0
    7.1552  -15.4721   23.3579 C   0  0  0  0  0  0  0  0  0  0  0  0
    7.0443  -15.1235   24.7801 C   0  0  0  0  0  0  0  0  0  0  0  0
    6.7374  -15.9377   25.8500 N   0  0  0  0  0  0  0  0  0  0  0  0
    6.7384  -15.2223   26.9779 C   0  0  0  0  0  0  0  0  0  0  0  0
    7.0407  -13.9457   26.6777 C   0  0  0  0  0  0  0  0  0  0  0  0
    7.1843  -12.7933   27.4091 C   0  0  0  0  0  0  0  0  0  0  0  0
    7.5116  -11.5820   26.8231 C   0  0  0  0  0  0  0  0  0  0  0  0
    7.7061  -11.4959   25.4637 C   0  0  0  0  0  0  0  0  0  0  0  0
    7.5663  -12.6407   24.7151 C   0  0  0  0  0  0  0  0  0  0  0  0
    7.2361  -13.8662   25.3011 C   0  0  0  0  0  0  0  0  0  0  0  0
    9.0963  -16.8649   24.0780 O   0  0  0  0  0  0  0  0  0  0  0  0
    8.4875  -17.9304   24.3241 N   0  0  0  0  0  0  0  0  0  0  0  0
   10.2780  -16.6413   24.8025 C   0  0  1  0  0  0  0  0  0  0  0  0
   11.1695  -17.4821   25.4520 C   0  0  0  0  0  0  0  0  0  0  0  0
   12.5854  -17.6532   25.0445 C   0  0  0  0  0  0  0  0  0  0  0  0
   13.2786  -16.4158   24.5606 C   0  0  0  0  0  0  0  0  0  0  0  0
   14.6165  -16.8092   23.9795 O   0  0  0  0  0  0  0  0  0  0  0  0
   14.9267  -18.0250   23.9246 C   0  0  0  0  0  0  0  0  0  0  0  0
   11.0555  -17.3986   26.9035 O   0  0  0  0  0  0  0  0  0  0  0  0
   10.3589  -16.5102   27.4370 O   0  0  0  0  0  0  0  0  0  0  0  0
   15.5063  -15.8803   23.5083 O   0  0  0  0  0  0  0  0  0  0  0  0
  2  1  1  0
  2  3  2  0
  4  2  1  0
  5  6  1  0
  5  4  1  0
  7  6  1  0
  8  7  1  0
  8  9  1  1
 10  8  1  0
 10 12  1  0
 11 10  2  0
 13 12  1  0
 13 14  1  1
 14 15  1  0
 15 16  2  0
 17 16  1  0
 18 17  1  0
 19 18  2  0
 20 19  1  0
 21 22  1  0
 21 20  2  0
 22 23  2  0
 23 18  1  0
 23 15  1  0
 24 13  1  0
 24 25  2  0
 26 24  1  0
 27 26  1  0
 27 32  1  0
 27 28  1  1
 29 28  1  0
 30 29  1  0
 31 30  2  0
 32 33  2  0
 32 35  1  0
 34 30  1  0
M  END
$$$$
