RWE.pdb
     RDKit          3D

 35 36  0  0  1  0  0  0  0  0999 V2000
    7.9735  -12.3968   17.1946 N   0  0  0  0  0  0  0  0  0  0  0  0
    7.5551  -13.4453   16.3240 C   0  0  0  0  0  0  0  0  0  0  0  0
    7.6951  -13.2894   15.0638 N   0  0  0  0  0  0  0  0  0  0  0  0
    6.9936  -14.6422   16.8351 N   0  0  0  0  0  0  0  0  0  0  0  0
    6.8837  -14.7753   18.2887 C   0  0  0  0  0  0  0  0  0  0  0  0
    8.1203  -14.1367   18.8687 C   0  0  0  0  0  0  0  0  0  0  0  0
    8.1500  -14.2084   20.3742 C   0  0  0  0  0  0  0  0  0  0  0  0
    8.8705  -15.4536   20.7897 C   0  0  2  0  0  0  0  0  0  0  0  0
    8.0020  -16.5977   20.6173 N   0  0  0  0  0  0  0  0  0  0  0  0
    9.3408  -15.3574   22.2172 C   0  0  0  0  0  0  0  0  0  0  0  0
   10.0822  -14.4065   22.5319 O   0  0  0  0  0  0  0  0  0  0  0  0
    7.4792  -13.9655   14.3235 N   0  0  0  0  0  0  0  0  0  0  0  0
    8.9615  -16.3044   23.1727 C   0  0  1  0  0  0  0  0  0  0  0  0
    9.3331  -16.2483   24.5722 C   0  0  0  0  0  0  0  0  0  0  0  0
    8.0888  -16.5708   25.3670 C   0  0  0  0  0  0  0  0  0  0  0  0
    7.1643  -15.4322   25.2937 C   0  0  0  0  0  0  0  0  0  0  0  0
    5.9198  -15.3636   24.7034 N   0  0  0  0  0  0  0  0  0  0  0  0
    5.4110  -14.1389   24.8614 C   0  0  0  0  0  0  0  0  0  0  0  0
    6.2951  -13.3905   25.5467 C   0  0  0  0  0  0  0  0  0  0  0  0
    6.3162  -12.0923   25.9914 C   0  0  0  0  0  0  0  0  0  0  0  0
    7.3881  -11.5696   26.6954 C   0  0  0  0  0  0  0  0  0  0  0  0
    8.4852  -12.3513   26.9754 C   0  0  0  0  0  0  0  0  0  0  0  0
    8.4814  -13.6546   26.5374 C   0  0  0  0  0  0  0  0  0  0  0  0
    7.4022  -14.1877   25.8264 C   0  0  0  0  0  0  0  0  0  0  0  0
   10.4539  -17.1956   24.8747 O   0  0  0  0  0  0  0  0  0  0  0  0
   10.2263  -18.3823   25.2009 N   0  0  0  0  0  0  0  0  0  0  0  0
   11.8039  -16.8151   24.8116 C   0  0  1  0  0  0  0  0  0  0  0  0
   12.9941  -17.4883   25.0441 C   0  0  0  0  0  0  0  0  0  0  0  0
   14.3281  -16.9506   24.6816 C   0  0  0  0  0  0  0  0  0  0  0  0
   15.0989  -17.7453   23.6715 C   0  0  0  0  0  0  0  0  0  0  0  0
   16.3180  -16.9520   23.2630 O   0  0  0  0  0  0  0  0  0  0  0  0
   16.2199  -15.7079   23.1212 C   0  0  0  0  0  0  0  0  0  0  0  0
   13.0297  -18.1163   26.3598 O   0  0  0  0  0  0  0  0  0  0  0  0
   13.8631  -19.0102   26.6159 O   0  0  0  0  0  0  0  0  0  0  0  0
   17.5320  -17.5467   23.0414 O   0  0  0  0  0  0  0  0  0  0  0  0
  2  1  1  0
  2  3  2  0
  4  2  1  0
  5  6  1  0
  5  4  1  0
  7  6  1  0
  8  7  1  0
  8  9  1  1
 10  8  1  0
 10 12  1  0
 11 10  2  0
 13 12  1  0
 13 14  1  1
 14 15  1  0
 15 16  2  0
 17 16  1  0
 18 17  1  0
 19 18  2  0
 20 19  1  0
 21 22  1  0
 21 20  2  0
 22 23  2  0
 23 18  1  0
 23 15  1  0
 24 13  1  0
 24 25  2  0
 26 24  1  0
 27 26  1  0
 27 32  1  0
 27 28  1  1
 29 28  1  0
 30 29  1  0
 31 30  2  0
 32 33  2  0
 32 35  1  0
 34 30  1  0
M  END
$$$$
