RWE.pdb
     RDKit          3D

 35 36  0  0  1  0  0  0  0  0999 V2000
   10.0624  -14.6038   16.5429 N   0  0  0  0  0  0  0  0  0  0  0  0
    8.8159  -14.3250   15.9097 C   0  0  0  0  0  0  0  0  0  0  0  0
    8.8229  -13.8182   14.7371 N   0  0  0  0  0  0  0  0  0  0  0  0
    7.5863  -14.6009   16.5586 N   0  0  0  0  0  0  0  0  0  0  0  0
    7.3275  -13.9358   17.8366 C   0  0  0  0  0  0  0  0  0  0  0  0
    8.4164  -14.3853   18.7778 C   0  0  0  0  0  0  0  0  0  0  0  0
    8.2204  -13.8555   20.1755 C   0  0  0  0  0  0  0  0  0  0  0  0
    7.6454  -14.9403   21.0328 C   0  0  2  0  0  0  0  0  0  0  0  0
    6.2018  -14.8464   21.0315 N   0  0  0  0  0  0  0  0  0  0  0  0
    8.1790  -14.8607   22.4389 C   0  0  0  0  0  0  0  0  0  0  0  0
    8.3186  -13.7348   22.9547 O   0  0  0  0  0  0  0  0  0  0  0  0
    8.0127  -13.5856   14.1529 N   0  0  0  0  0  0  0  0  0  0  0  0
    8.5119  -16.0131   23.1563 C   0  0  1  0  0  0  0  0  0  0  0  0
    9.2160  -16.0132   24.4228 C   0  0  0  0  0  0  0  0  0  0  0  0
    8.2042  -16.3789   25.4842 C   0  0  0  0  0  0  0  0  0  0  0  0
    7.2015  -15.3104   25.5795 C   0  0  0  0  0  0  0  0  0  0  0  0
    5.8924  -15.3099   25.1456 N   0  0  0  0  0  0  0  0  0  0  0  0
    5.3236  -14.1342   25.4252 C   0  0  0  0  0  0  0  0  0  0  0  0
    6.2312  -13.3517   26.0379 C   0  0  0  0  0  0  0  0  0  0  0  0
    6.2170  -12.0756   26.5425 C   0  0  0  0  0  0  0  0  0  0  0  0
    7.3283  -11.5047   27.1399 C   0  0  0  0  0  0  0  0  0  0  0  0
    8.5027  -12.2135   27.2472 C   0  0  0  0  0  0  0  0  0  0  0  0
    8.5351  -13.4938   26.7468 C   0  0  0  0  0  0  0  0  0  0  0  0
    7.4164  -14.0753   26.1429 C   0  0  0  0  0  0  0  0  0  0  0  0
   10.3744  -16.9634   24.3999 O   0  0  0  0  0  0  0  0  0  0  0  0
   10.1993  -18.1978   24.5095 N   0  0  0  0  0  0  0  0  0  0  0  0
   11.7031  -16.5332   24.2568 C   0  0  1  0  0  0  0  0  0  0  0  0
   12.9220  -17.1951   24.2489 C   0  0  0  0  0  0  0  0  0  0  0  0
   14.2042  -16.5539   23.8684 C   0  0  0  0  0  0  0  0  0  0  0  0
   15.4332  -17.3900   24.0596 C   0  0  0  0  0  0  0  0  0  0  0  0
   16.6347  -16.5885   23.6163 O   0  0  0  0  0  0  0  0  0  0  0  0
   17.7526  -17.1552   23.5344 C   0  0  0  0  0  0  0  0  0  0  0  0
   13.0978  -18.0499   25.4173 O   0  0  0  0  0  0  0  0  0  0  0  0
   13.4245  -19.2479   25.2859 O   0  0  0  0  0  0  0  0  0  0  0  0
   16.5453  -15.2589   23.2992 O   0  0  0  0  0  0  0  0  0  0  0  0
  2  1  1  0
  2  3  2  0
  4  2  1  0
  5  6  1  0
  5  4  1  0
  7  6  1  0
  8  7  1  0
  8  9  1  1
 10  8  1  0
 10 12  1  0
 11 10  2  0
 13 12  1  0
 13 14  1  1
 14 15  1  0
 15 16  2  0
 17 16  1  0
 18 17  1  0
 19 18  2  0
 20 19  1  0
 21 22  1  0
 21 20  2  0
 22 23  2  0
 23 18  1  0
 23 15  1  0
 24 13  1  0
 24 25  2  0
 26 24  1  0
 27 26  1  0
 27 32  1  0
 27 28  1  1
 29 28  1  0
 30 29  1  0
 31 30  2  0
 32 33  2  0
 32 35  1  0
 34 30  1  0
M  END
$$$$
