RWE.pdb
     RDKit          3D

 35 36  0  0  1  0  0  0  0  0999 V2000
    7.7287  -12.3745   19.3462 N   0  0  0  0  0  0  0  0  0  0  0  0
    8.0398  -13.4175   18.4255 C   0  0  0  0  0  0  0  0  0  0  0  0
    8.3895  -13.1036   17.2375 N   0  0  0  0  0  0  0  0  0  0  0  0
    7.9666  -14.7800   18.8094 N   0  0  0  0  0  0  0  0  0  0  0  0
    7.5798  -15.0780   20.1893 C   0  0  0  0  0  0  0  0  0  0  0  0
    8.4491  -16.2261   20.6359 C   0  0  0  0  0  0  0  0  0  0  0  0
    9.6420  -15.7650   21.4340 C   0  0  0  0  0  0  0  0  0  0  0  0
   10.0822  -16.8738   22.3391 C   0  0  2  0  0  0  0  0  0  0  0  0
    9.1362  -17.9658   22.2649 N   0  0  0  0  0  0  0  0  0  0  0  0
   10.2224  -16.3916   23.7590 C   0  0  0  0  0  0  0  0  0  0  0  0
   11.0530  -15.4940   23.9986 O   0  0  0  0  0  0  0  0  0  0  0  0
    8.5088  -13.7317   16.4356 N   0  0  0  0  0  0  0  0  0  0  0  0
    9.4459  -16.9295   24.7893 C   0  0  1  0  0  0  0  0  0  0  0  0
    9.5717  -16.5623   26.1854 C   0  0  0  0  0  0  0  0  0  0  0  0
    8.1697  -16.4879   26.7446 C   0  0  0  0  0  0  0  0  0  0  0  0
    7.4131  -15.4672   26.0083 C   0  0  0  0  0  0  0  0  0  0  0  0
    6.5048  -15.6334   24.9839 N   0  0  0  0  0  0  0  0  0  0  0  0
    6.0444  -14.4431   24.5901 C   0  0  0  0  0  0  0  0  0  0  0  0
    6.6302  -13.4871   25.3344 C   0  0  0  0  0  0  0  0  0  0  0  0
    6.5484  -12.1179   25.3799 C   0  0  0  0  0  0  0  0  0  0  0  0
    7.2868  -11.3627   26.2756 C   0  0  0  0  0  0  0  0  0  0  0  0
    8.1411  -11.9744   27.1639 C   0  0  0  0  0  0  0  0  0  0  0  0
    8.2358  -13.3457   27.1325 C   0  0  0  0  0  0  0  0  0  0  0  0
    7.4929  -14.1132   26.2305 C   0  0  0  0  0  0  0  0  0  0  0  0
   10.4222  -17.5452   26.9308 O   0  0  0  0  0  0  0  0  0  0  0  0
   10.5820  -17.4527   28.1687 N   0  0  0  0  0  0  0  0  0  0  0  0
   11.0802  -18.6107   26.2959 C   0  0  1  0  0  0  0  0  0  0  0  0
   11.8824  -19.6439   26.7570 C   0  0  0  0  0  0  0  0  0  0  0  0
   11.9691  -20.9728   26.1039 C   0  0  0  0  0  0  0  0  0  0  0  0
   10.8207  -21.3374   25.2127 C   0  0  0  0  0  0  0  0  0  0  0  0
   11.1101  -22.6776   24.5780 O   0  0  0  0  0  0  0  0  0  0  0  0
   10.1516  -23.4228   24.2566 C   0  0  0  0  0  0  0  0  0  0  0  0
   13.2036  -19.1815   27.1662 O   0  0  0  0  0  0  0  0  0  0  0  0
   13.5676  -18.0097   26.9348 O   0  0  0  0  0  0  0  0  0  0  0  0
   12.3884  -23.1088   24.3403 O   0  0  0  0  0  0  0  0  0  0  0  0
  2  1  1  0
  2  3  2  0
  4  2  1  0
  5  6  1  0
  5  4  1  0
  7  6  1  0
  8  7  1  0
  8  9  1  1
 10  8  1  0
 10 12  1  0
 11 10  2  0
 13 12  1  0
 13 14  1  1
 14 15  1  0
 15 16  2  0
 17 16  1  0
 18 17  1  0
 19 18  2  0
 20 19  1  0
 21 22  1  0
 21 20  2  0
 22 23  2  0
 23 18  1  0
 23 15  1  0
 24 13  1  0
 24 25  2  0
 26 24  1  0
 27 26  1  0
 27 32  1  0
 27 28  1  1
 29 28  1  0
 30 29  1  0
 31 30  2  0
 32 33  2  0
 32 35  1  0
 34 30  1  0
M  END
$$$$
