RWE.pdb
     RDKit          3D

 35 36  0  0  1  0  0  0  0  0999 V2000
   10.3210  -15.9222   16.6399 N   0  0  0  0  0  0  0  0  0  0  0  0
    9.0515  -16.3681   16.1688 C   0  0  0  0  0  0  0  0  0  0  0  0
    9.0125  -17.3178   15.3152 N   0  0  0  0  0  0  0  0  0  0  0  0
    7.8491  -15.7772   16.6316 N   0  0  0  0  0  0  0  0  0  0  0  0
    7.2768  -16.2870   17.8786 C   0  0  0  0  0  0  0  0  0  0  0  0
    8.4420  -16.6326   18.7710 C   0  0  0  0  0  0  0  0  0  0  0  0
    8.0082  -17.3277   20.0364 C   0  0  0  0  0  0  0  0  0  0  0  0
    7.3053  -16.3426   20.9184 C   0  0  2  0  0  0  0  0  0  0  0  0
    6.8658  -15.2121   20.1299 N   0  0  0  0  0  0  0  0  0  0  0  0
    8.1981  -15.8876   22.0427 C   0  0  0  0  0  0  0  0  0  0  0  0
    9.0707  -15.0330   21.7949 O   0  0  0  0  0  0  0  0  0  0  0  0
    8.1825  -17.7207   14.8674 N   0  0  0  0  0  0  0  0  0  0  0  0
    8.0603  -16.4034   23.3344 C   0  0  1  0  0  0  0  0  0  0  0  0
    8.9649  -16.1178   24.4299 C   0  0  0  0  0  0  0  0  0  0  0  0
    8.1847  -16.3312   25.7065 C   0  0  0  0  0  0  0  0  0  0  0  0
    7.1251  -15.3184   25.7960 C   0  0  0  0  0  0  0  0  0  0  0  0
    5.7605  -15.4799   25.6787 N   0  0  0  0  0  0  0  0  0  0  0  0
    5.1513  -14.3001   25.8229 C   0  0  0  0  0  0  0  0  0  0  0  0
    6.0865  -13.3556   26.0342 C   0  0  0  0  0  0  0  0  0  0  0  0
    6.0543  -12.0000   26.2458 C   0  0  0  0  0  0  0  0  0  0  0  0
    7.2051  -11.2550   26.4415 C   0  0  0  0  0  0  0  0  0  0  0  0
    8.4391  -11.8634   26.4294 C   0  0  0  0  0  0  0  0  0  0  0  0
    8.4904  -13.2212   26.2187 C   0  0  0  0  0  0  0  0  0  0  0  0
    7.3320  -13.9783   26.0205 C   0  0  0  0  0  0  0  0  0  0  0  0
   10.1855  -16.9845   24.3661 O   0  0  0  0  0  0  0  0  0  0  0  0
   10.1179  -18.1661   23.9589 N   0  0  0  0  0  0  0  0  0  0  0  0
   11.4566  -16.5309   24.7530 C   0  0  1  0  0  0  0  0  0  0  0  0
   12.7199  -17.1028   24.7260 C   0  0  0  0  0  0  0  0  0  0  0  0
   13.9256  -16.4110   24.2088 C   0  0  0  0  0  0  0  0  0  0  0  0
   15.2094  -17.1781   24.3056 C   0  0  0  0  0  0  0  0  0  0  0  0
   16.2170  -16.5509   23.3709 O   0  0  0  0  0  0  0  0  0  0  0  0
   15.9155  -15.4920   22.7665 C   0  0  0  0  0  0  0  0  0  0  0  0
   13.0269  -17.8302   25.9522 O   0  0  0  0  0  0  0  0  0  0  0  0
   12.2882  -17.7294   26.9538 O   0  0  0  0  0  0  0  0  0  0  0  0
   17.4538  -17.1007   23.1597 O   0  0  0  0  0  0  0  0  0  0  0  0
  2  1  1  0
  2  3  2  0
  4  2  1  0
  5  6  1  0
  5  4  1  0
  7  6  1  0
  8  7  1  0
  8  9  1  6
 10  8  1  0
 10 12  1  0
 11 10  2  0
 13 12  1  0
 13 14  1  6
 14 15  1  0
 15 16  2  0
 17 16  1  0
 18 17  1  0
 19 18  2  0
 20 19  1  0
 21 22  1  0
 21 20  2  0
 22 23  2  0
 23 18  1  0
 23 15  1  0
 24 13  1  0
 24 25  2  0
 26 24  1  0
 27 26  1  0
 27 32  1  0
 27 28  1  1
 29 28  1  0
 30 29  1  0
 31 30  2  0
 32 33  2  0
 32 35  1  0
 34 30  1  0
M  END
$$$$
