RWE.pdb
     RDKit          3D

 35 36  0  0  1  0  0  0  0  0999 V2000
    9.5529  -14.4743   17.7217 N   0  0  0  0  0  0  0  0  0  0  0  0
    8.6037  -14.1482   16.7093 C   0  0  0  0  0  0  0  0  0  0  0  0
    8.8796  -14.4321   15.4947 N   0  0  0  0  0  0  0  0  0  0  0  0
    7.3740  -13.5213   17.0321 N   0  0  0  0  0  0  0  0  0  0  0  0
    7.2059  -13.0150   18.3951 C   0  0  0  0  0  0  0  0  0  0  0  0
    7.9414  -13.9728   19.2980 C   0  0  0  0  0  0  0  0  0  0  0  0
    7.7132  -13.6740   20.7579 C   0  0  0  0  0  0  0  0  0  0  0  0
    7.5193  -14.9627   21.4956 C   0  0  2  0  0  0  0  0  0  0  0  0
    6.1053  -15.2185   21.6627 N   0  0  0  0  0  0  0  0  0  0  0  0
    8.2125  -14.9320   22.8323 C   0  0  0  0  0  0  0  0  0  0  0  0
    8.5295  -13.8246   23.3079 O   0  0  0  0  0  0  0  0  0  0  0  0
    8.3341  -14.1957   14.6591 N   0  0  0  0  0  0  0  0  0  0  0  0
    8.4975  -16.1090   23.5303 C   0  0  1  0  0  0  0  0  0  0  0  0
    9.3415  -16.1784   24.7062 C   0  0  0  0  0  0  0  0  0  0  0  0
    8.4396  -16.5168   25.8707 C   0  0  0  0  0  0  0  0  0  0  0  0
    7.3984  -15.4877   25.9858 C   0  0  0  0  0  0  0  0  0  0  0  0
    6.0574  -15.5740   25.6756 N   0  0  0  0  0  0  0  0  0  0  0  0
    5.4590  -14.4065   25.9265 C   0  0  0  0  0  0  0  0  0  0  0  0
    6.3782  -13.5443   26.3985 C   0  0  0  0  0  0  0  0  0  0  0  0
    6.3468  -12.2370   26.8149 C   0  0  0  0  0  0  0  0  0  0  0  0
    7.4777  -11.5780   27.2672 C   0  0  0  0  0  0  0  0  0  0  0  0
    8.6902  -12.2268   27.3133 C   0  0  0  0  0  0  0  0  0  0  0  0
    8.7404  -13.5370   26.8997 C   0  0  0  0  0  0  0  0  0  0  0  0
    7.6021  -14.2074   26.4422 C   0  0  0  0  0  0  0  0  0  0  0  0
   10.4348  -17.1879   24.5308 O   0  0  0  0  0  0  0  0  0  0  0  0
   10.1735  -18.3866   24.2835 N   0  0  0  0  0  0  0  0  0  0  0  0
   11.7951  -16.8552   24.6319 C   0  0  1  0  0  0  0  0  0  0  0  0
   12.9627  -17.6030   24.5979 C   0  0  0  0  0  0  0  0  0  0  0  0
   14.2730  -17.0636   24.1598 C   0  0  0  0  0  0  0  0  0  0  0  0
   14.2181  -15.9575   23.1501 C   0  0  0  0  0  0  0  0  0  0  0  0
   15.6315  -15.5609   22.7928 O   0  0  0  0  0  0  0  0  0  0  0  0
   16.0298  -15.7120   21.6113 C   0  0  0  0  0  0  0  0  0  0  0  0
   13.1184  -18.4444   25.7789 O   0  0  0  0  0  0  0  0  0  0  0  0
   12.3391  -18.3314   26.7479 O   0  0  0  0  0  0  0  0  0  0  0  0
   16.4965  -15.0395   23.7182 O   0  0  0  0  0  0  0  0  0  0  0  0
  2  1  1  0
  2  3  2  0
  4  2  1  0
  5  6  1  0
  5  4  1  0
  7  6  1  0
  8  7  1  0
  8  9  1  1
 10  8  1  0
 10 12  1  0
 11 10  2  0
 13 12  1  0
 13 14  1  1
 14 15  1  0
 15 16  2  0
 17 16  1  0
 18 17  1  0
 19 18  2  0
 20 19  1  0
 21 22  1  0
 21 20  2  0
 22 23  2  0
 23 18  1  0
 23 15  1  0
 24 13  1  0
 24 25  2  0
 26 24  1  0
 27 26  1  0
 27 32  1  0
 27 28  1  1
 29 28  1  0
 30 29  1  0
 31 30  2  0
 32 33  2  0
 32 35  1  0
 34 30  1  0
M  END
$$$$
