RWE.pdb
     RDKit          3D

 35 36  0  0  1  0  0  0  0  0999 V2000
    8.2672  -14.3323   16.0907 N   0  0  0  0  0  0  0  0  0  0  0  0
    8.2224  -13.4795   17.2322 C   0  0  0  0  0  0  0  0  0  0  0  0
    8.9101  -12.4029   17.2216 N   0  0  0  0  0  0  0  0  0  0  0  0
    7.4333  -13.8089   18.3627 N   0  0  0  0  0  0  0  0  0  0  0  0
    7.2820  -15.2259   18.6970 C   0  0  0  0  0  0  0  0  0  0  0  0
    6.3617  -15.2853   19.8898 C   0  0  0  0  0  0  0  0  0  0  0  0
    7.0797  -14.9928   21.1827 C   0  0  0  0  0  0  0  0  0  0  0  0
    7.8936  -16.1885   21.5707 C   0  0  2  0  0  0  0  0  0  0  0  0
    7.0136  -17.2858   21.9091 N   0  0  0  0  0  0  0  0  0  0  0  0
    8.8092  -15.8705   22.7233 C   0  0  0  0  0  0  0  0  0  0  0  0
    9.6719  -14.9851   22.5654 O   0  0  0  0  0  0  0  0  0  0  0  0
    9.0194  -11.7246   17.9830 N   0  0  0  0  0  0  0  0  0  0  0  0
    8.7032  -16.5446   23.9432 C   0  0  1  0  0  0  0  0  0  0  0  0
    9.5762  -16.3235   25.0784 C   0  0  0  0  0  0  0  0  0  0  0  0
    8.7052  -16.3646   26.3127 C   0  0  0  0  0  0  0  0  0  0  0  0
    7.5820  -15.4348   26.1384 C   0  0  0  0  0  0  0  0  0  0  0  0
    6.2742  -15.7105   25.7984 N   0  0  0  0  0  0  0  0  0  0  0  0
    5.5723  -14.5755   25.7431 C   0  0  0  0  0  0  0  0  0  0  0  0
    6.3900  -13.5487   26.0405 C   0  0  0  0  0  0  0  0  0  0  0  0
    6.2307  -12.1891   26.1382 C   0  0  0  0  0  0  0  0  0  0  0  0
    7.2760  -11.3447   26.4732 C   0  0  0  0  0  0  0  0  0  0  0  0
    8.5298  -11.8536   26.7227 C   0  0  0  0  0  0  0  0  0  0  0  0
    8.7077  -13.2138   26.6293 C   0  0  0  0  0  0  0  0  0  0  0  0
    7.6563  -14.0710   26.2916 C   0  0  0  0  0  0  0  0  0  0  0  0
   10.6705  -17.3458   25.1289 O   0  0  0  0  0  0  0  0  0  0  0  0
   10.4145  -18.5694   25.0664 N   0  0  0  0  0  0  0  0  0  0  0  0
   12.0256  -16.9984   25.2475 C   0  0  1  0  0  0  0  0  0  0  0  0
   13.1900  -17.7402   25.3812 C   0  0  0  0  0  0  0  0  0  0  0  0
   14.4915  -17.3421   24.7919 C   0  0  0  0  0  0  0  0  0  0  0  0
   14.5841  -17.4262   23.2984 C   0  0  0  0  0  0  0  0  0  0  0  0
   15.3385  -16.2185   22.7937 O   0  0  0  0  0  0  0  0  0  0  0  0
   15.8253  -15.4101   23.6225 C   0  0  0  0  0  0  0  0  0  0  0  0
   13.3701  -18.2528   26.7346 O   0  0  0  0  0  0  0  0  0  0  0  0
   12.5837  -17.9273   27.6482 O   0  0  0  0  0  0  0  0  0  0  0  0
   15.5101  -15.9747   21.4567 O   0  0  0  0  0  0  0  0  0  0  0  0
  2  1  1  0
  2  3  2  0
  4  2  1  0
  5  6  1  0
  5  4  1  0
  7  6  1  0
  8  7  1  0
  8  9  1  1
 10  8  1  0
 10 12  1  0
 11 10  2  0
 13 12  1  0
 13 14  1  1
 14 15  1  0
 15 16  2  0
 17 16  1  0
 18 17  1  0
 19 18  2  0
 20 19  1  0
 21 22  1  0
 21 20  2  0
 22 23  2  0
 23 18  1  0
 23 15  1  0
 24 13  1  0
 24 25  2  0
 26 24  1  0
 27 26  1  0
 27 32  1  0
 27 28  1  1
 29 28  1  0
 30 29  1  0
 31 30  2  0
 32 33  2  0
 32 35  1  0
 34 30  1  0
M  END
$$$$
