RWE.pdb
     RDKit          3D

 35 36  0  0  1  0  0  0  0  0999 V2000
   10.9126  -17.3179   15.3010 N   0  0  0  0  0  0  0  0  0  0  0  0
   10.5981  -18.5736   15.8980 C   0  0  0  0  0  0  0  0  0  0  0  0
    9.8472  -19.3862   15.2592 N   0  0  0  0  0  0  0  0  0  0  0  0
   11.1031  -18.9252   17.1749 N   0  0  0  0  0  0  0  0  0  0  0  0
   11.3318  -17.8457   18.1367 C   0  0  0  0  0  0  0  0  0  0  0  0
   10.7754  -18.3248   19.4536 C   0  0  0  0  0  0  0  0  0  0  0  0
   10.8812  -17.2795   20.5347 C   0  0  0  0  0  0  0  0  0  0  0  0
    9.5593  -17.1579   21.2276 C   0  0  2  0  0  0  0  0  0  0  0  0
    8.7195  -16.2230   20.5108 N   0  0  0  0  0  0  0  0  0  0  0  0
    9.7348  -16.7213   22.6582 C   0  0  0  0  0  0  0  0  0  0  0  0
   10.7415  -16.0474   22.9506 O   0  0  0  0  0  0  0  0  0  0  0  0
    9.4725  -20.2815   15.5904 N   0  0  0  0  0  0  0  0  0  0  0  0
    8.7992  -17.0572   23.6407 C   0  0  1  0  0  0  0  0  0  0  0  0
    9.0547  -17.0033   25.0660 C   0  0  0  0  0  0  0  0  0  0  0  0
    7.7084  -16.9182   25.7474 C   0  0  0  0  0  0  0  0  0  0  0  0
    7.0521  -15.6637   25.3579 C   0  0  0  0  0  0  0  0  0  0  0  0
    5.9850  -15.4728   24.5055 N   0  0  0  0  0  0  0  0  0  0  0  0
    5.6993  -14.1707   24.4228 C   0  0  0  0  0  0  0  0  0  0  0  0
    6.5577  -13.4910   25.2054 C   0  0  0  0  0  0  0  0  0  0  0  0
    6.7390  -12.1651   25.5095 C   0  0  0  0  0  0  0  0  0  0  0  0
    7.7311  -11.7343   26.3744 C   0  0  0  0  0  0  0  0  0  0  0  0
    8.5811  -12.6402   26.9659 C   0  0  0  0  0  0  0  0  0  0  0  0
    8.4139  -13.9730   26.6726 C   0  0  0  0  0  0  0  0  0  0  0  0
    7.4143  -14.4138   25.8004 C   0  0  0  0  0  0  0  0  0  0  0  0
    9.8407  -18.1946   25.5221 O   0  0  0  0  0  0  0  0  0  0  0  0
    9.9333  -19.2189   24.8088 N   0  0  0  0  0  0  0  0  0  0  0  0
   10.5090  -18.2327   26.7563 C   0  0  1  0  0  0  0  0  0  0  0  0
   11.8441  -18.3539   27.1121 C   0  0  0  0  0  0  0  0  0  0  0  0
   12.9473  -17.6409   26.4234 C   0  0  0  0  0  0  0  0  0  0  0  0
   14.3318  -17.9782   26.8877 C   0  0  0  0  0  0  0  0  0  0  0  0
   15.2768  -17.8532   25.7155 O   0  0  0  0  0  0  0  0  0  0  0  0
   15.6848  -18.8946   25.1441 C   0  0  0  0  0  0  0  0  0  0  0  0
   12.0381  -18.3341   28.5573 O   0  0  0  0  0  0  0  0  0  0  0  0
   11.5833  -17.3983   29.2477 O   0  0  0  0  0  0  0  0  0  0  0  0
   15.7051  -16.6370   25.2532 O   0  0  0  0  0  0  0  0  0  0  0  0
  2  1  1  0
  2  3  2  0
  4  2  1  0
  5  6  1  0
  5  4  1  0
  7  6  1  0
  8  7  1  0
  8  9  1  6
 10  8  1  0
 10 12  1  0
 11 10  2  0
 13 12  1  0
 13 14  1  6
 14 15  1  0
 15 16  2  0
 17 16  1  0
 18 17  1  0
 19 18  2  0
 20 19  1  0
 21 22  1  0
 21 20  2  0
 22 23  2  0
 23 18  1  0
 23 15  1  0
 24 13  1  0
 24 25  2  0
 26 24  1  0
 27 26  1  0
 27 32  1  0
 27 28  1  1
 29 28  1  0
 30 29  1  0
 31 30  2  0
 32 33  2  0
 32 35  1  0
 34 30  1  0
M  END
$$$$
