RWE.pdb
     RDKit          3D

 35 36  0  0  1  0  0  0  0  0999 V2000
   11.5174  -17.4916   15.3021 N   0  0  0  0  0  0  0  0  0  0  0  0
   11.7364  -18.8685   15.5997 C   0  0  0  0  0  0  0  0  0  0  0  0
   12.7627  -19.4475   15.1061 N   0  0  0  0  0  0  0  0  0  0  0  0
   10.8401  -19.5913   16.4263 N   0  0  0  0  0  0  0  0  0  0  0  0
    9.6812  -18.8753   16.9619 C   0  0  0  0  0  0  0  0  0  0  0  0
   10.1613  -18.1510   18.1940 C   0  0  0  0  0  0  0  0  0  0  0  0
    9.0809  -17.3058   18.8194 C   0  0  0  0  0  0  0  0  0  0  0  0
    8.6450  -17.9418   20.1031 C   0  0  2  0  0  0  0  0  0  0  0  0
    7.2020  -18.0415   20.1303 N   0  0  0  0  0  0  0  0  0  0  0  0
    9.1434  -17.1620   21.2913 C   0  0  0  0  0  0  0  0  0  0  0  0
   10.3738  -17.0229   21.4325 O   0  0  0  0  0  0  0  0  0  0  0  0
   13.0798  -20.4077   15.2767 N   0  0  0  0  0  0  0  0  0  0  0  0
    8.2579  -16.6042   22.2179 C   0  0  1  0  0  0  0  0  0  0  0  0
    8.6635  -15.9538   23.4476 C   0  0  0  0  0  0  0  0  0  0  0  0
    7.6062  -14.9213   23.7639 C   0  0  0  0  0  0  0  0  0  0  0  0
    7.8962  -14.3233   25.0734 C   0  0  0  0  0  0  0  0  0  0  0  0
    8.8513  -14.6872   25.9993 N   0  0  0  0  0  0  0  0  0  0  0  0
    8.7797  -13.8827   27.0631 C   0  0  0  0  0  0  0  0  0  0  0  0
    7.7936  -12.9893   26.8617 C   0  0  0  0  0  0  0  0  0  0  0  0
    7.2759  -11.9473   27.5894 C   0  0  0  0  0  0  0  0  0  0  0  0
    6.2290  -11.1692   27.1243 C   0  0  0  0  0  0  0  0  0  0  0  0
    5.6655  -11.4227   25.8949 C   0  0  0  0  0  0  0  0  0  0  0  0
    6.1715  -12.4631   25.1521 C   0  0  0  0  0  0  0  0  0  0  0  0
    7.2282  -13.2519   25.6163 C   0  0  0  0  0  0  0  0  0  0  0  0
    8.8291  -16.9464   24.5578 O   0  0  0  0  0  0  0  0  0  0  0  0
    7.8614  -17.6284   24.9640 N   0  0  0  0  0  0  0  0  0  0  0  0
   10.0589  -17.1670   25.1982 C   0  0  1  0  0  0  0  0  0  0  0  0
   10.5070  -18.1276   26.0928 C   0  0  0  0  0  0  0  0  0  0  0  0
   11.7034  -18.9732   25.8614 C   0  0  0  0  0  0  0  0  0  0  0  0
   11.8701  -19.4998   24.4682 C   0  0  0  0  0  0  0  0  0  0  0  0
   13.1490  -20.3018   24.4062 O   0  0  0  0  0  0  0  0  0  0  0  0
   14.2494  -19.7112   24.5396 C   0  0  0  0  0  0  0  0  0  0  0  0
   10.4601  -17.6648   27.4749 O   0  0  0  0  0  0  0  0  0  0  0  0
   10.2280  -16.4662   27.7372 O   0  0  0  0  0  0  0  0  0  0  0  0
   13.1485  -21.6573   24.2088 O   0  0  0  0  0  0  0  0  0  0  0  0
  2  1  1  0
  2  3  2  0
  4  2  1  0
  5  6  1  0
  5  4  1  0
  7  6  1  0
  8  7  1  0
  8  9  1  6
 10  8  1  0
 10 12  1  0
 11 10  2  0
 13 12  1  0
 13 14  1  1
 14 15  1  0
 15 16  2  0
 17 16  1  0
 18 17  1  0
 19 18  2  0
 20 19  1  0
 21 22  1  0
 21 20  2  0
 22 23  2  0
 23 18  1  0
 23 15  1  0
 24 13  1  0
 24 25  2  0
 26 24  1  0
 27 26  1  0
 27 32  1  0
 27 28  1  1
 29 28  1  0
 30 29  1  0
 31 30  2  0
 32 33  2  0
 32 35  1  0
 34 30  1  0
M  END
$$$$
