RWE.pdb
     RDKit          3D

 35 36  0  0  1  0  0  0  0  0999 V2000
    8.5781  -12.9335   17.0716 N   0  0  0  0  0  0  0  0  0  0  0  0
    8.2899  -14.1119   16.3228 C   0  0  0  0  0  0  0  0  0  0  0  0
    7.6907  -13.9949   15.2006 N   0  0  0  0  0  0  0  0  0  0  0  0
    8.6566  -15.3939   16.8037 N   0  0  0  0  0  0  0  0  0  0  0  0
    9.3908  -15.4616   18.0681 C   0  0  0  0  0  0  0  0  0  0  0  0
    8.3911  -15.1622   19.1565 C   0  0  0  0  0  0  0  0  0  0  0  0
    8.5892  -16.0323   20.3716 C   0  0  0  0  0  0  0  0  0  0  0  0
    7.6138  -15.6213   21.4308 C   0  0  2  0  0  0  0  0  0  0  0  0
    7.0328  -14.3421   21.0859 N   0  0  0  0  0  0  0  0  0  0  0  0
    8.2763  -15.5538   22.7816 C   0  0  0  0  0  0  0  0  0  0  0  0
    9.0545  -14.6078   23.0111 O   0  0  0  0  0  0  0  0  0  0  0  0
    7.4323  -14.7443   14.5499 N   0  0  0  0  0  0  0  0  0  0  0  0
    8.0320  -16.5215   23.7601 C   0  0  1  0  0  0  0  0  0  0  0  0
    8.7333  -16.6001   25.0258 C   0  0  0  0  0  0  0  0  0  0  0  0
    7.6833  -16.5347   26.1108 C   0  0  0  0  0  0  0  0  0  0  0  0
    6.9711  -15.2543   26.0125 C   0  0  0  0  0  0  0  0  0  0  0  0
    5.6838  -15.0100   25.5821 N   0  0  0  0  0  0  0  0  0  0  0  0
    5.4257  -13.7011   25.6474 C   0  0  0  0  0  0  0  0  0  0  0  0
    6.5187  -13.0695   26.1139 C   0  0  0  0  0  0  0  0  0  0  0  0
    6.8319  -11.7609   26.3842 C   0  0  0  0  0  0  0  0  0  0  0  0
    8.0711  -11.3835   26.8737 C   0  0  0  0  0  0  0  0  0  0  0  0
    9.0444  -12.3274   27.1080 C   0  0  0  0  0  0  0  0  0  0  0  0
    8.7481  -13.6436   26.8427 C   0  0  0  0  0  0  0  0  0  0  0  0
    7.4989  -14.0305   26.3485 C   0  0  0  0  0  0  0  0  0  0  0  0
    9.5553  -17.8497   25.1143 O   0  0  0  0  0  0  0  0  0  0  0  0
    9.4312  -18.7655   24.2703 N   0  0  0  0  0  0  0  0  0  0  0  0
   10.4981  -18.0646   26.1323 C   0  0  1  0  0  0  0  0  0  0  0  0
   11.8410  -18.4115   26.1279 C   0  0  0  0  0  0  0  0  0  0  0  0
   12.8307  -17.8583   25.1717 C   0  0  0  0  0  0  0  0  0  0  0  0
   12.9324  -18.5675   23.8553 C   0  0  0  0  0  0  0  0  0  0  0  0
   13.7242  -17.7030   22.9023 O   0  0  0  0  0  0  0  0  0  0  0  0
   14.9748  -17.6603   23.0093 C   0  0  0  0  0  0  0  0  0  0  0  0
   12.4021  -18.4785   27.4723 O   0  0  0  0  0  0  0  0  0  0  0  0
   11.7460  -18.0782   28.4564 O   0  0  0  0  0  0  0  0  0  0  0  0
   13.1211  -16.9612   21.9212 O   0  0  0  0  0  0  0  0  0  0  0  0
  2  1  1  0
  2  3  2  0
  4  2  1  0
  5  6  1  0
  5  4  1  0
  7  6  1  0
  8  7  1  0
  8  9  1  6
 10  8  1  0
 10 12  1  0
 11 10  2  0
 13 12  1  0
 13 14  1  6
 14 15  1  0
 15 16  2  0
 17 16  1  0
 18 17  1  0
 19 18  2  0
 20 19  1  0
 21 22  1  0
 21 20  2  0
 22 23  2  0
 23 18  1  0
 23 15  1  0
 24 13  1  0
 24 25  2  0
 26 24  1  0
 27 26  1  0
 27 32  1  0
 27 28  1  1
 29 28  1  0
 30 29  1  0
 31 30  2  0
 32 33  2  0
 32 35  1  0
 34 30  1  0
M  END
$$$$
