RWE.pdb
     RDKit          3D

 35 36  0  0  1  0  0  0  0  0999 V2000
   13.8266  -13.1556   18.4448 N   0  0  0  0  0  0  0  0  0  0  0  0
   13.9956  -14.4340   19.0525 C   0  0  0  0  0  0  0  0  0  0  0  0
   14.9267  -14.5859   19.9140 N   0  0  0  0  0  0  0  0  0  0  0  0
   13.1528  -15.5228   18.7158 N   0  0  0  0  0  0  0  0  0  0  0  0
   12.0314  -15.2608   17.8123 C   0  0  0  0  0  0  0  0  0  0  0  0
   10.9517  -14.6225   18.6491 C   0  0  0  0  0  0  0  0  0  0  0  0
    9.6173  -15.3033   18.4792 C   0  0  0  0  0  0  0  0  0  0  0  0
    8.5968  -14.5926   19.3133 C   0  0  2  0  0  0  0  0  0  0  0  0
    8.4137  -13.2470   18.8145 N   0  0  0  0  0  0  0  0  0  0  0  0
    9.0031  -14.5680   20.7633 C   0  0  0  0  0  0  0  0  0  0  0  0
    9.7694  -13.6630   21.1466 O   0  0  0  0  0  0  0  0  0  0  0  0
   15.2286  -15.4591   20.3592 N   0  0  0  0  0  0  0  0  0  0  0  0
    8.5387  -15.5300   21.6647 C   0  0  1  0  0  0  0  0  0  0  0  0
    8.8704  -15.5569   23.0750 C   0  0  0  0  0  0  0  0  0  0  0  0
    7.5643  -15.6618   23.8281 C   0  0  0  0  0  0  0  0  0  0  0  0
    7.0146  -14.3144   24.0250 C   0  0  0  0  0  0  0  0  0  0  0  0
    6.2003  -13.5804   23.1883 N   0  0  0  0  0  0  0  0  0  0  0  0
    5.9293  -12.3968   23.7447 C   0  0  0  0  0  0  0  0  0  0  0  0
    6.5490  -12.3298   24.9375 C   0  0  0  0  0  0  0  0  0  0  0  0
    6.6295  -11.3834   25.9281 C   0  0  0  0  0  0  0  0  0  0  0  0
    7.3604  -11.5866   27.0867 C   0  0  0  0  0  0  0  0  0  0  0  0
    8.0409  -12.7662   27.2830 C   0  0  0  0  0  0  0  0  0  0  0  0
    7.9714  -13.7258   26.3008 C   0  0  0  0  0  0  0  0  0  0  0  0
    7.2353  -13.5264   25.1292 C   0  0  0  0  0  0  0  0  0  0  0  0
    9.7951  -16.6921   23.3936 O   0  0  0  0  0  0  0  0  0  0  0  0
    9.4842  -17.8738   23.1227 N   0  0  0  0  0  0  0  0  0  0  0  0
   11.0445  -16.5014   24.0050 C   0  0  1  0  0  0  0  0  0  0  0  0
   12.0310  -17.3712   24.4456 C   0  0  0  0  0  0  0  0  0  0  0  0
   13.4811  -17.0638   24.3962 C   0  0  0  0  0  0  0  0  0  0  0  0
   14.0674  -16.9038   23.0263 C   0  0  0  0  0  0  0  0  0  0  0  0
   15.1111  -15.8124   23.0734 O   0  0  0  0  0  0  0  0  0  0  0  0
   16.2398  -16.0652   23.5628 C   0  0  0  0  0  0  0  0  0  0  0  0
   11.6814  -18.0153   25.7065 O   0  0  0  0  0  0  0  0  0  0  0  0
   10.6547  -17.6762   26.3310 O   0  0  0  0  0  0  0  0  0  0  0  0
   14.8665  -14.5512   22.5982 O   0  0  0  0  0  0  0  0  0  0  0  0
  2  1  1  0
  2  3  2  0
  4  2  1  0
  5  6  1  0
  5  4  1  0
  7  6  1  0
  8  7  1  0
  8  9  1  6
 10  8  1  0
 10 12  1  0
 11 10  2  0
 13 12  1  0
 13 14  1  1
 14 15  1  0
 15 16  2  0
 17 16  1  0
 18 17  1  0
 19 18  2  0
 20 19  1  0
 21 22  1  0
 21 20  2  0
 22 23  2  0
 23 18  1  0
 23 15  1  0
 24 13  1  0
 24 25  2  0
 26 24  1  0
 27 26  1  0
 27 32  1  0
 27 28  1  1
 29 28  1  0
 30 29  1  0
 31 30  2  0
 32 33  2  0
 32 35  1  0
 34 30  1  0
M  END
$$$$
