HIS.pdb
     RDKit          3D

 25 25  0  0  1  0  0  0  0  0999 V2000
   18.8464  -10.6891  -18.0040 N   0  0  0  0  0  0  0  0  0  0  0  0
   18.6531   -9.8856  -16.8369 C   0  0  1  0  0  0  0  0  0  0  0  0
   19.1610  -10.5966  -15.6256 C   0  0  0  0  0  0  0  0  0  0  0  0
   18.3651  -11.8324  -15.4274 C   0  0  0  0  0  0  0  0  0  0  0  0
   18.6977  -13.1561  -15.6193 C   0  0  0  0  0  0  0  0  0  0  0  0
   17.6668  -13.9674  -15.3111 N   0  0  0  0  0  0  0  0  0  0  0  0
   16.6753  -13.1533  -14.9217 C   0  0  0  0  0  0  0  0  0  0  0  0
   17.0741  -11.8745  -14.9846 N   0  0  0  0  0  0  0  0  0  0  0  0
   19.1667   -8.5151  -16.9750 C   0  0  0  0  0  0  0  0  0  0  0  0
   20.3668   -8.3166  -17.2940 O   0  0  0  0  0  0  0  0  0  0  0  0
   16.4214   -5.5914  -19.6293 C   0  0  0  0  0  0  0  0  0  0  0  0
   17.8401   -5.5044  -19.1982 C   0  0  0  0  0  0  0  0  0  0  0  0
   18.1010   -5.0901  -17.8020 C   0  0  2  0  0  0  0  0  0  0  0  0
   18.7835   -3.7196  -17.7310 C   0  0  0  0  0  0  0  0  0  0  0  0
   18.8941   -6.0050  -16.9422 C   0  0  2  0  0  0  0  0  0  0  0  0
   18.3701   -7.3288  -16.7651 N   0  0  0  0  0  0  0  0  0  0  0  0
   19.2815   -5.3810  -15.6402 C   0  0  0  0  0  0  0  0  0  0  0  0
   18.4325   -5.1854  -14.7217 O   0  0  0  0  0  0  0  0  0  0  0  0
   22.4150   -6.0921  -13.3166 O   0  0  0  0  0  0  0  0  0  0  0  0
   22.3564   -4.7654  -13.7052 C   0  0  0  0  0  0  0  0  0  0  0  0
   20.9675   -4.3247  -14.0993 C   0  0  2  0  0  0  0  0  0  0  0  0
   20.6148   -4.9778  -15.3677 N   0  0  0  0  0  0  0  0  0  0  0  0
   21.0329   -2.8675  -14.3853 C   0  0  0  0  0  0  0  0  0  0  0  0
   21.0256   -1.8868  -13.4209 O   0  0  0  0  0  0  0  0  0  0  0  0
   21.0991   -2.5186  -15.5920 O   0  0  0  0  0  0  0  0  0  0  0  0
  2  9  1  0
  2  1  1  6
  3  2  1  0
  4  3  1  0
  5  4  2  0
  6  5  1  0
  7  6  1  0
  7  8  2  0
  8  4  1  0
  9 10  2  0
 11 12  1  0
 12 13  1  0
 13 15  1  0
 13 14  1  6
 15 16  1  1
 16  9  1  0
 17 22  1  0
 17 15  1  0
 18 17  2  0
 20 19  1  0
 21 22  1  0
 21 20  1  6
 23 21  1  0
 24 23  1  0
 25 23  2  0
M  END
$$$$
