HIS.pdb
     RDKit          3D

 25 25  0  0  1  0  0  0  0  0999 V2000
   19.8865  -12.4412  -18.6903 N   0  0  0  0  0  0  0  0  0  0  0  0
   20.2042  -11.0512  -18.7999 C   0  0  1  0  0  0  0  0  0  0  0  0
   19.1236  -10.3265  -19.5331 C   0  0  0  0  0  0  0  0  0  0  0  0
   19.1059  -10.7919  -20.9413 C   0  0  0  0  0  0  0  0  0  0  0  0
   19.7490  -10.3025  -22.0578 C   0  0  0  0  0  0  0  0  0  0  0  0
   19.4560  -11.0358  -23.1498 N   0  0  0  0  0  0  0  0  0  0  0  0
   18.6226  -11.9953  -22.7230 C   0  0  0  0  0  0  0  0  0  0  0  0
   18.4020  -11.8655  -21.4066 N   0  0  0  0  0  0  0  0  0  0  0  0
   20.5675  -10.4285  -17.5187 C   0  0  0  0  0  0  0  0  0  0  0  0
   19.8177  -10.5544  -16.5170 O   0  0  0  0  0  0  0  0  0  0  0  0
   24.7874  -11.6850  -14.8494 C   0  0  0  0  0  0  0  0  0  0  0  0
   23.4853  -11.1422  -15.3139 C   0  0  0  0  0  0  0  0  0  0  0  0
   23.3565   -9.6710  -15.4038 C   0  0  2  0  0  0  0  0  0  0  0  0
   23.4921   -9.0010  -14.0320 C   0  0  0  0  0  0  0  0  0  0  0  0
   22.1277   -9.1177  -16.0275 C   0  0  2  0  0  0  0  0  0  0  0  0
   21.7668   -9.6513  -17.3094 N   0  0  0  0  0  0  0  0  0  0  0  0
   22.1000   -7.6231  -16.0192 C   0  0  0  0  0  0  0  0  0  0  0  0
   22.7619   -6.9443  -16.8582 O   0  0  0  0  0  0  0  0  0  0  0  0
   19.7400   -3.6146  -14.6606 O   0  0  0  0  0  0  0  0  0  0  0  0
   19.9088   -4.9877  -14.6407 C   0  0  0  0  0  0  0  0  0  0  0  0
   21.2727   -5.4235  -15.1189 C   0  0  2  0  0  0  0  0  0  0  0  0
   21.3337   -6.8913  -15.0748 N   0  0  0  0  0  0  0  0  0  0  0  0
   22.2641   -4.9355  -14.1248 C   0  0  0  0  0  0  0  0  0  0  0  0
   23.0361   -3.8089  -14.2882 O   0  0  0  0  0  0  0  0  0  0  0  0
   22.3986   -5.6039  -13.0678 O   0  0  0  0  0  0  0  0  0  0  0  0
  2  9  1  0
  2  1  1  1
  3  2  1  0
  4  3  1  0
  5  4  2  0
  6  5  1  0
  7  6  1  0
  7  8  2  0
  8  4  1  0
  9 10  2  0
 11 12  1  0
 12 13  1  0
 13 15  1  0
 13 14  1  1
 15 16  1  6
 16  9  1  0
 17 22  1  0
 17 15  1  0
 18 17  2  0
 20 19  1  0
 21 22  1  0
 21 20  1  1
 23 21  1  0
 24 23  1  0
 25 23  2  0
M  END
$$$$
