HIS.pdb
     RDKit          3D

 25 25  0  0  1  0  0  0  0  0999 V2000
   19.0041  -24.2378   -8.0048 N   0  0  0  0  0  0  0  0  0  0  0  0
   17.8696  -24.9632   -7.5235 C   0  0  1  0  0  0  0  0  0  0  0  0
   17.6365  -26.1790   -8.3591 C   0  0  0  0  0  0  0  0  0  0  0  0
   17.1304  -25.7565   -9.6877 C   0  0  0  0  0  0  0  0  0  0  0  0
   15.8713  -25.3619  -10.0860 C   0  0  0  0  0  0  0  0  0  0  0  0
   15.8488  -25.0554  -11.3980 N   0  0  0  0  0  0  0  0  0  0  0  0
   17.1006  -25.2568  -11.8337 C   0  0  0  0  0  0  0  0  0  0  0  0
   17.8801  -25.6757  -10.8261 N   0  0  0  0  0  0  0  0  0  0  0  0
   17.9177  -25.2397   -6.0805 C   0  0  0  0  0  0  0  0  0  0  0  0
   19.0193  -25.4480   -5.5108 O   0  0  0  0  0  0  0  0  0  0  0  0
   14.1315  -22.9776   -2.7475 C   0  0  0  0  0  0  0  0  0  0  0  0
   15.4681  -23.4619   -3.1776 C   0  0  0  0  0  0  0  0  0  0  0  0
   15.7626  -24.8994   -2.9874 C   0  0  2  0  0  0  0  0  0  0  0  0
   16.0931  -25.2262   -1.5269 C   0  0  0  0  0  0  0  0  0  0  0  0
   16.8397  -25.5032   -3.8123 C   0  0  2  0  0  0  0  0  0  0  0  0
   16.7524  -25.2935   -5.2289 N   0  0  0  0  0  0  0  0  0  0  0  0
   17.0867  -26.9388   -3.4764 C   0  0  0  0  0  0  0  0  0  0  0  0
   16.4021  -27.8675   -3.9976 O   0  0  0  0  0  0  0  0  0  0  0  0
   20.0699  -27.9126   -0.7984 O   0  0  0  0  0  0  0  0  0  0  0  0
   19.7844  -28.8665   -1.7591 C   0  0  0  0  0  0  0  0  0  0  0  0
   18.3831  -28.7523   -2.3088 C   0  0  2  0  0  0  0  0  0  0  0  0
   18.0967  -27.3329   -2.5604 N   0  0  0  0  0  0  0  0  0  0  0  0
   17.4520  -29.1805   -1.2323 C   0  0  0  0  0  0  0  0  0  0  0  0
   17.1394  -30.4906   -0.9530 O   0  0  0  0  0  0  0  0  0  0  0  0
   16.9199  -28.2778   -0.5365 O   0  0  0  0  0  0  0  0  0  0  0  0
  2  9  1  0
  2  1  1  6
  3  2  1  0
  4  3  1  0
  5  4  2  0
  6  5  1  0
  7  6  1  0
  7  8  2  0
  8  4  1  0
  9 10  2  0
 11 12  1  0
 12 13  1  0
 13 15  1  0
 13 14  1  1
 15 16  1  6
 16  9  1  0
 17 22  1  0
 17 15  1  0
 18 17  2  0
 20 19  1  0
 21 22  1  0
 21 20  1  1
 23 21  1  0
 24 23  1  0
 25 23  2  0
M  END
$$$$
