HIS.pdb
     RDKit          3D

 25 25  0  0  1  0  0  0  0  0999 V2000
   18.3924  -27.8522  -12.0860 N   0  0  0  0  0  0  0  0  0  0  0  0
   17.3192  -27.4440  -11.2336 C   0  0  1  0  0  0  0  0  0  0  0  0
   16.2054  -28.4376  -11.2869 C   0  0  0  0  0  0  0  0  0  0  0  0
   15.6144  -28.4213  -12.6471 C   0  0  0  0  0  0  0  0  0  0  0  0
   14.9629  -27.4183  -13.3321 C   0  0  0  0  0  0  0  0  0  0  0  0
   14.5870  -27.8303  -14.5588 N   0  0  0  0  0  0  0  0  0  0  0  0
   15.0025  -29.1015  -14.6519 C   0  0  0  0  0  0  0  0  0  0  0  0
   15.6183  -29.4718  -13.5196 N   0  0  0  0  0  0  0  0  0  0  0  0
   17.7477  -27.1111   -9.8673 C   0  0  0  0  0  0  0  0  0  0  0  0
   18.5952  -27.8278   -9.2760 O   0  0  0  0  0  0  0  0  0  0  0  0
   19.9497  -22.6601   -9.2143 C   0  0  0  0  0  0  0  0  0  0  0  0
   19.6015  -24.0632   -8.8738 C   0  0  0  0  0  0  0  0  0  0  0  0
   18.5437  -24.2733   -7.8608 C   0  0  2  0  0  0  0  0  0  0  0  0
   19.0692  -24.0697   -6.4356 C   0  0  0  0  0  0  0  0  0  0  0  0
   17.8237  -25.5721   -7.8669 C   0  0  2  0  0  0  0  0  0  0  0  0
   17.2528  -25.9796   -9.1184 N   0  0  0  0  0  0  0  0  0  0  0  0
   16.8455  -25.6941   -6.7431 C   0  0  0  0  0  0  0  0  0  0  0  0
   15.6158  -25.4408   -6.9059 O   0  0  0  0  0  0  0  0  0  0  0  0
   17.4879  -28.2112   -3.6093 O   0  0  0  0  0  0  0  0  0  0  0  0
   16.9213  -27.0086   -3.2259 C   0  0  0  0  0  0  0  0  0  0  0  0
   16.2568  -26.2768   -4.3668 C   0  0  2  0  0  0  0  0  0  0  0  0
   17.2428  -26.0982   -5.4419 N   0  0  0  0  0  0  0  0  0  0  0  0
   15.9212  -24.9134   -3.8790 C   0  0  0  0  0  0  0  0  0  0  0  0
   14.7541  -24.5881   -3.2279 O   0  0  0  0  0  0  0  0  0  0  0  0
   16.7670  -24.0042   -4.0797 O   0  0  0  0  0  0  0  0  0  0  0  0
  2  9  1  0
  2  1  1  6
  3  2  1  0
  4  3  1  0
  5  4  2  0
  6  5  1  0
  7  6  1  0
  7  8  2  0
  8  4  1  0
  9 10  2  0
 11 12  1  0
 12 13  1  0
 13 15  1  0
 13 14  1  1
 15 16  1  6
 16  9  1  0
 17 22  1  0
 17 15  1  0
 18 17  2  0
 20 19  1  0
 21 22  1  0
 21 20  1  1
 23 21  1  0
 24 23  1  0
 25 23  2  0
M  END
$$$$
