HIS.pdb
     RDKit          3D

 25 25  0  0  1  0  0  0  0  0999 V2000
   25.6166  -20.0667  -16.9003 N   0  0  0  0  0  0  0  0  0  0  0  0
   24.5639  -19.4184  -16.1817 C   0  0  1  0  0  0  0  0  0  0  0  0
   23.5850  -18.8081  -17.1305 C   0  0  0  0  0  0  0  0  0  0  0  0
   24.2775  -17.7669  -17.9280 C   0  0  0  0  0  0  0  0  0  0  0  0
   24.6523  -17.7516  -19.2543 C   0  0  0  0  0  0  0  0  0  0  0  0
   25.2607  -16.5930  -19.5757 N   0  0  0  0  0  0  0  0  0  0  0  0
   25.2714  -15.8698  -18.4469 C   0  0  0  0  0  0  0  0  0  0  0  0
   24.6885  -16.5547  -17.4522 N   0  0  0  0  0  0  0  0  0  0  0  0
   23.9406  -20.2691  -15.1575 C   0  0  0  0  0  0  0  0  0  0  0  0
   23.4099  -21.3631  -15.4786 O   0  0  0  0  0  0  0  0  0  0  0  0
   25.9038  -20.6451   -9.9127 C   0  0  0  0  0  0  0  0  0  0  0  0
   25.2973  -21.0068  -11.2194 C   0  0  0  0  0  0  0  0  0  0  0  0
   23.8564  -20.7238  -11.4003 C   0  0  2  0  0  0  0  0  0  0  0  0
   22.9827  -21.6235  -10.5193 C   0  0  0  0  0  0  0  0  0  0  0  0
   23.2995  -20.8045  -12.7746 C   0  0  2  0  0  0  0  0  0  0  0  0
   23.8867  -19.9353  -13.7533 N   0  0  0  0  0  0  0  0  0  0  0  0
   21.8062  -20.7384  -12.7961 C   0  0  0  0  0  0  0  0  0  0  0  0
   21.1882  -19.6588  -12.5608 O   0  0  0  0  0  0  0  0  0  0  0  0
   17.6949  -22.9085  -14.2642 O   0  0  0  0  0  0  0  0  0  0  0  0
   19.0714  -22.8736  -14.1287 C   0  0  0  0  0  0  0  0  0  0  0  0
   19.5490  -21.7673  -13.2194 C   0  0  2  0  0  0  0  0  0  0  0  0
   21.0079  -21.8771  -13.0802 N   0  0  0  0  0  0  0  0  0  0  0  0
   18.9811  -22.0301  -11.8711 C   0  0  0  0  0  0  0  0  0  0  0  0
   17.8367  -21.4429  -11.3837 O   0  0  0  0  0  0  0  0  0  0  0  0
   19.5951  -22.8446  -11.1350 O   0  0  0  0  0  0  0  0  0  0  0  0
  2  9  1  0
  2  1  1  6
  3  2  1  0
  4  3  1  0
  5  4  2  0
  6  5  1  0
  7  6  1  0
  7  8  2  0
  8  4  1  0
  9 10  2  0
 11 12  1  0
 12 13  1  0
 13 15  1  0
 13 14  1  1
 15 16  1  6
 16  9  1  0
 17 22  1  0
 17 15  1  0
 18 17  2  0
 20 19  1  0
 21 22  1  0
 21 20  1  6
 23 21  1  0
 24 23  1  0
 25 23  2  0
M  END
$$$$
