HIS.pdb
     RDKit          3D

 25 25  0  0  1  0  0  0  0  0999 V2000
   28.2398  -21.3892  -15.7852 N   0  0  0  0  0  0  0  0  0  0  0  0
   27.2010  -20.4447  -15.5140 C   0  0  1  0  0  0  0  0  0  0  0  0
   26.7326  -19.8080  -16.7813 C   0  0  0  0  0  0  0  0  0  0  0  0
   27.8426  -19.0074  -17.3530 C   0  0  0  0  0  0  0  0  0  0  0  0
   28.3722  -17.7968  -16.9613 C   0  0  0  0  0  0  0  0  0  0  0  0
   29.3874  -17.4255  -17.7661 N   0  0  0  0  0  0  0  0  0  0  0  0
   29.5017  -18.4062  -18.6729 C   0  0  0  0  0  0  0  0  0  0  0  0
   28.5873  -19.3597  -18.4420 N   0  0  0  0  0  0  0  0  0  0  0  0
   26.1120  -20.9890  -14.6900 C   0  0  0  0  0  0  0  0  0  0  0  0
   25.7033  -22.1639  -14.8746 O   0  0  0  0  0  0  0  0  0  0  0  0
   26.2552  -20.4551   -9.3664 C   0  0  0  0  0  0  0  0  0  0  0  0
   25.9185  -21.0367  -10.6909 C   0  0  0  0  0  0  0  0  0  0  0  0
   24.6494  -20.6067  -11.3182 C   0  0  2  0  0  0  0  0  0  0  0  0
   23.4307  -21.2210  -10.6206 C   0  0  0  0  0  0  0  0  0  0  0  0
   24.4749  -20.8516  -12.7724 C   0  0  2  0  0  0  0  0  0  0  0  0
   25.4460  -20.2518  -13.6417 N   0  0  0  0  0  0  0  0  0  0  0  0
   23.0777  -20.5933  -13.2368 C   0  0  0  0  0  0  0  0  0  0  0  0
   22.6253  -19.4165  -13.3512 O   0  0  0  0  0  0  0  0  0  0  0  0
   21.0189  -22.9514  -15.8610 O   0  0  0  0  0  0  0  0  0  0  0  0
   20.2991  -22.6115  -14.7293 C   0  0  0  0  0  0  0  0  0  0  0  0
   20.8252  -21.3747  -14.0422 C   0  0  2  0  0  0  0  0  0  0  0  0
   22.1903  -21.6491  -13.5720 N   0  0  0  0  0  0  0  0  0  0  0  0
   19.9999  -21.1634  -12.8242 C   0  0  0  0  0  0  0  0  0  0  0  0
   18.9349  -20.2961  -12.7499 O   0  0  0  0  0  0  0  0  0  0  0  0
   20.3036  -21.8260  -11.7991 O   0  0  0  0  0  0  0  0  0  0  0  0
  2  9  1  0
  2  1  1  6
  3  2  1  0
  4  3  1  0
  5  4  2  0
  6  5  1  0
  7  6  1  0
  7  8  2  0
  8  4  1  0
  9 10  2  0
 11 12  1  0
 12 13  1  0
 13 15  1  0
 13 14  1  1
 15 16  1  6
 16  9  1  0
 17 22  1  0
 17 15  1  0
 18 17  2  0
 20 19  1  0
 21 22  1  0
 21 20  1  1
 23 21  1  0
 24 23  1  0
 25 23  2  0
M  END
$$$$
