HIS.pdb
     RDKit          3D

 25 25  0  0  1  0  0  0  0  0999 V2000
   21.5372  -11.7196  -18.9550 N   0  0  0  0  0  0  0  0  0  0  0  0
   22.1245  -10.4193  -18.8591 C   0  0  1  0  0  0  0  0  0  0  0  0
   22.1928   -9.7784  -20.2065 C   0  0  0  0  0  0  0  0  0  0  0  0
   23.0926  -10.5792  -21.0720 C   0  0  0  0  0  0  0  0  0  0  0  0
   24.4615  -10.5380  -21.2273 C   0  0  0  0  0  0  0  0  0  0  0  0
   24.8781  -11.4535  -22.1242 N   0  0  0  0  0  0  0  0  0  0  0  0
   23.7671  -12.0783  -22.5396 C   0  0  0  0  0  0  0  0  0  0  0  0
   22.6909  -11.5695  -21.9220 N   0  0  0  0  0  0  0  0  0  0  0  0
   21.5052   -9.5688  -17.8323 C   0  0  0  0  0  0  0  0  0  0  0  0
   20.2758   -9.6652  -17.5858 O   0  0  0  0  0  0  0  0  0  0  0  0
   22.6905   -9.9362  -12.8992 C   0  0  0  0  0  0  0  0  0  0  0  0
   22.0438   -9.5962  -14.1924 C   0  0  0  0  0  0  0  0  0  0  0  0
   22.0654   -8.1768  -14.6095 C   0  0  2  0  0  0  0  0  0  0  0  0
   21.2534   -7.2899  -13.6591 C   0  0  0  0  0  0  0  0  0  0  0  0
   21.6138   -7.8499  -15.9858 C   0  0  2  0  0  0  0  0  0  0  0  0
   22.2257   -8.5907  -17.0512 N   0  0  0  0  0  0  0  0  0  0  0  0
   21.6137   -6.3801  -16.2585 C   0  0  0  0  0  0  0  0  0  0  0  0
   22.6910   -5.7414  -16.4435 O   0  0  0  0  0  0  0  0  0  0  0  0
   18.9696   -4.6032  -18.5801 O   0  0  0  0  0  0  0  0  0  0  0  0
   19.1324   -3.8870  -17.4075 C   0  0  0  0  0  0  0  0  0  0  0  0
   20.4235   -4.2059  -16.6933 C   0  0  2  0  0  0  0  0  0  0  0  0
   20.4116   -5.6283  -16.3240 N   0  0  0  0  0  0  0  0  0  0  0  0
   20.4199   -3.4443  -15.4169 C   0  0  0  0  0  0  0  0  0  0  0  0
   20.8066   -2.1297  -15.2970 O   0  0  0  0  0  0  0  0  0  0  0  0
   20.0363   -4.0509  -14.3839 O   0  0  0  0  0  0  0  0  0  0  0  0
  2  9  1  0
  2  1  1  6
  3  2  1  0
  4  3  1  0
  5  4  2  0
  6  5  1  0
  7  6  1  0
  7  8  2  0
  8  4  1  0
  9 10  2  0
 11 12  1  0
 12 13  1  0
 13 15  1  0
 13 14  1  1
 15 16  1  6
 16  9  1  0
 17 22  1  0
 17 15  1  0
 18 17  2  0
 20 19  1  0
 21 22  1  0
 21 20  1  6
 23 21  1  0
 24 23  1  0
 25 23  2  0
M  END
$$$$
