HIS.pdb
     RDKit          3D

 25 25  0  0  1  0  0  0  0  0999 V2000
   22.4743  -15.0375  -18.4846 N   0  0  0  0  0  0  0  0  0  0  0  0
   22.6348  -13.6769  -18.8944 C   0  0  1  0  0  0  0  0  0  0  0  0
   21.5119  -13.2671  -19.7898 C   0  0  0  0  0  0  0  0  0  0  0  0
   21.5414  -14.1094  -21.0103 C   0  0  0  0  0  0  0  0  0  0  0  0
   22.4052  -14.1057  -22.0843 C   0  0  0  0  0  0  0  0  0  0  0  0
   22.0691  -15.0513  -22.9835 N   0  0  0  0  0  0  0  0  0  0  0  0
   20.9862  -15.6577  -22.4767 C   0  0  0  0  0  0  0  0  0  0  0  0
   20.6564  -15.1085  -21.2985 N   0  0  0  0  0  0  0  0  0  0  0  0
   22.8667  -12.7499  -17.7773 C   0  0  0  0  0  0  0  0  0  0  0  0
   22.1820  -12.8393  -16.7262 O   0  0  0  0  0  0  0  0  0  0  0  0
   27.5822  -12.0496  -15.4262 C   0  0  0  0  0  0  0  0  0  0  0  0
   26.1631  -12.1006  -15.8616 C   0  0  0  0  0  0  0  0  0  0  0  0
   25.4943  -10.8123  -16.1483 C   0  0  2  0  0  0  0  0  0  0  0  0
   25.4871   -9.8882  -14.9256 C   0  0  0  0  0  0  0  0  0  0  0  0
   24.1008  -10.8513  -16.6599 C   0  0  2  0  0  0  0  0  0  0  0  0
   23.8595  -11.7010  -17.7905 N   0  0  0  0  0  0  0  0  0  0  0  0
   23.5199   -9.4878  -16.8546 C   0  0  0  0  0  0  0  0  0  0  0  0
   24.0287   -8.6619  -17.6681 O   0  0  0  0  0  0  0  0  0  0  0  0
   19.6605   -8.8408  -15.8928 O   0  0  0  0  0  0  0  0  0  0  0  0
   20.2980   -7.9863  -16.7748 C   0  0  0  0  0  0  0  0  0  0  0  0
   21.7484   -7.7520  -16.4283 C   0  0  2  0  0  0  0  0  0  0  0  0
   22.3735   -9.0507  -16.1410 N   0  0  0  0  0  0  0  0  0  0  0  0
   21.7783   -6.9850  -15.1554 C   0  0  0  0  0  0  0  0  0  0  0  0
   22.2235   -7.4899  -13.9560 O   0  0  0  0  0  0  0  0  0  0  0  0
   21.3672   -5.7966  -15.1879 O   0  0  0  0  0  0  0  0  0  0  0  0
  2  9  1  0
  2  1  1  1
  3  2  1  0
  4  3  1  0
  5  4  2  0
  6  5  1  0
  7  6  1  0
  7  8  2  0
  8  4  1  0
  9 10  2  0
 11 12  1  0
 12 13  1  0
 13 15  1  0
 13 14  1  1
 15 16  1  6
 16  9  1  0
 17 22  1  0
 17 15  1  0
 18 17  2  0
 20 19  1  0
 21 22  1  0
 21 20  1  1
 23 21  1  0
 24 23  1  0
 25 23  2  0
M  END
$$$$
