HIS.pdb
     RDKit          3D

 25 25  0  0  1  0  0  0  0  0999 V2000
   21.7170  -14.1860  -18.4774 N   0  0  0  0  0  0  0  0  0  0  0  0
   21.7358  -12.7957  -18.8116 C   0  0  1  0  0  0  0  0  0  0  0  0
   20.4780  -12.4139  -19.5208 C   0  0  0  0  0  0  0  0  0  0  0  0
   20.3742  -13.2058  -20.7705 C   0  0  0  0  0  0  0  0  0  0  0  0
   19.4071  -14.0907  -21.1962 C   0  0  0  0  0  0  0  0  0  0  0  0
   19.7052  -14.5912  -22.4114 N   0  0  0  0  0  0  0  0  0  0  0  0
   20.8677  -14.0204  -22.7577 C   0  0  0  0  0  0  0  0  0  0  0  0
   21.2826  -13.1899  -21.7900 N   0  0  0  0  0  0  0  0  0  0  0  0
   22.0602  -11.9221  -17.6746 C   0  0  0  0  0  0  0  0  0  0  0  0
   21.4855  -12.0821  -16.5675 O   0  0  0  0  0  0  0  0  0  0  0  0
   26.8420  -11.2293  -15.5243 C   0  0  0  0  0  0  0  0  0  0  0  0
   25.4102  -11.2743  -15.9167 C   0  0  0  0  0  0  0  0  0  0  0  0
   24.7283   -9.9813  -16.1456 C   0  0  2  0  0  0  0  0  0  0  0  0
   24.7688   -9.0864  -14.9020 C   0  0  0  0  0  0  0  0  0  0  0  0
   23.3154  -10.0119  -16.6014 C   0  0  2  0  0  0  0  0  0  0  0  0
   23.0266  -10.8501  -17.7294 N   0  0  0  0  0  0  0  0  0  0  0  0
   22.7312   -8.6451  -16.7599 C   0  0  0  0  0  0  0  0  0  0  0  0
   23.0464   -7.8996  -17.7334 O   0  0  0  0  0  0  0  0  0  0  0  0
   19.3022   -5.4803  -15.3098 O   0  0  0  0  0  0  0  0  0  0  0  0
   19.9017   -6.7265  -15.2653 C   0  0  0  0  0  0  0  0  0  0  0  0
   21.2048   -6.7841  -16.0252 C   0  0  2  0  0  0  0  0  0  0  0  0
   21.7974   -8.1150  -15.8317 N   0  0  0  0  0  0  0  0  0  0  0  0
   22.1326   -5.8177  -15.3813 C   0  0  0  0  0  0  0  0  0  0  0  0
   22.3993   -4.5582  -15.8657 O   0  0  0  0  0  0  0  0  0  0  0  0
   22.7069   -6.1854  -14.3244 O   0  0  0  0  0  0  0  0  0  0  0  0
  2  9  1  0
  2  1  1  1
  3  2  1  0
  4  3  1  0
  5  4  2  0
  6  5  1  0
  7  6  1  0
  7  8  2  0
  8  4  1  0
  9 10  2  0
 11 12  1  0
 12 13  1  0
 13 15  1  0
 13 14  1  1
 15 16  1  6
 16  9  1  0
 17 22  1  0
 17 15  1  0
 18 17  2  0
 20 19  1  0
 21 22  1  0
 21 20  1  1
 23 21  1  0
 24 23  1  0
 25 23  2  0
M  END
$$$$
