HIS.pdb
     RDKit          3D

 25 25  0  0  1  0  0  0  0  0999 V2000
   20.0132  -20.6521  -12.9678 N   0  0  0  0  0  0  0  0  0  0  0  0
   21.0185  -21.5729  -13.3996 C   0  0  1  0  0  0  0  0  0  0  0  0
   20.6535  -22.1585  -14.7242 C   0  0  0  0  0  0  0  0  0  0  0  0
   19.4103  -22.9525  -14.5700 C   0  0  0  0  0  0  0  0  0  0  0  0
   18.1151  -22.6781  -14.9530 C   0  0  0  0  0  0  0  0  0  0  0  0
   17.2844  -23.6854  -14.6198 N   0  0  0  0  0  0  0  0  0  0  0  0
   18.0573  -24.6034  -14.0222 C   0  0  0  0  0  0  0  0  0  0  0  0
   19.3302  -24.1830  -13.9833 N   0  0  0  0  0  0  0  0  0  0  0  0
   22.3801  -21.0206  -13.3540 C   0  0  0  0  0  0  0  0  0  0  0  0
   22.5750  -19.7955  -13.5607 O   0  0  0  0  0  0  0  0  0  0  0  0
   25.4654  -20.9530   -9.1648 C   0  0  0  0  0  0  0  0  0  0  0  0
   24.7985  -20.8253  -10.4857 C   0  0  0  0  0  0  0  0  0  0  0  0
   25.5428  -21.3052  -11.6710 C   0  0  2  0  0  0  0  0  0  0  0  0
   26.8938  -20.5973  -11.8220 C   0  0  0  0  0  0  0  0  0  0  0  0
   24.8709  -21.2252  -12.9928 C   0  0  2  0  0  0  0  0  0  0  0  0
   23.5614  -21.8050  -13.0793 N   0  0  0  0  0  0  0  0  0  0  0  0
   25.7520  -21.6710  -14.1151 C   0  0  0  0  0  0  0  0  0  0  0  0
   26.3716  -22.7742  -14.0718 O   0  0  0  0  0  0  0  0  0  0  0  0
   25.7371  -19.4972  -17.5786 O   0  0  0  0  0  0  0  0  0  0  0  0
   26.0727  -20.8345  -17.6946 C   0  0  0  0  0  0  0  0  0  0  0  0
   26.6846  -21.4026  -16.4370 C   0  0  2  0  0  0  0  0  0  0  0  0
   25.9385  -20.8844  -15.2817 N   0  0  0  0  0  0  0  0  0  0  0  0
   28.0594  -20.8482  -16.3274 C   0  0  0  0  0  0  0  0  0  0  0  0
   29.1591  -21.3693  -16.9687 O   0  0  0  0  0  0  0  0  0  0  0  0
   28.2171  -19.8358  -15.5978 O   0  0  0  0  0  0  0  0  0  0  0  0
  2  9  1  0
  2  1  1  6
  3  2  1  0
  4  3  1  0
  5  4  2  0
  6  5  1  0
  7  6  1  0
  7  8  2  0
  8  4  1  0
  9 10  2  0
 11 12  1  0
 12 13  1  0
 13 15  1  0
 13 14  1  6
 15 16  1  1
 16  9  1  0
 17 22  1  0
 17 15  1  0
 18 17  2  0
 20 19  1  0
 21 22  1  0
 21 20  1  6
 23 21  1  0
 24 23  1  0
 25 23  2  0
M  END
$$$$
