HIS.pdb
     RDKit          3D

 25 25  0  0  1  0  0  0  0  0999 V2000
   21.6600  -13.9688  -18.5979 N   0  0  0  0  0  0  0  0  0  0  0  0
   21.8092  -12.5909  -18.9502 C   0  0  1  0  0  0  0  0  0  0  0  0
   20.7245  -12.1730  -19.8880 C   0  0  0  0  0  0  0  0  0  0  0  0
   20.8631  -12.9381  -21.1510 C   0  0  0  0  0  0  0  0  0  0  0  0
   21.8453  -12.9073  -22.1174 C   0  0  0  0  0  0  0  0  0  0  0  0
   21.5796  -13.7786  -23.1104 N   0  0  0  0  0  0  0  0  0  0  0  0
   20.4226  -14.3649  -22.7716 C   0  0  0  0  0  0  0  0  0  0  0  0
   19.9796  -13.8755  -21.6042 N   0  0  0  0  0  0  0  0  0  0  0  0
   21.9613  -11.7008  -17.7902 C   0  0  0  0  0  0  0  0  0  0  0  0
   21.2066  -11.8251  -16.7919 O   0  0  0  0  0  0  0  0  0  0  0  0
   26.5217  -10.9181  -15.1236 C   0  0  0  0  0  0  0  0  0  0  0  0
   25.1345  -11.0080  -15.6466 C   0  0  0  0  0  0  0  0  0  0  0  0
   24.4342   -9.7370  -15.9352 C   0  0  2  0  0  0  0  0  0  0  0  0
   24.3033   -8.8605  -14.6847 C   0  0  0  0  0  0  0  0  0  0  0  0
   23.0826   -9.8113  -16.5457 C   0  0  2  0  0  0  0  0  0  0  0  0
   22.9494  -10.6510  -17.7012 N   0  0  0  0  0  0  0  0  0  0  0  0
   22.4741   -8.4635  -16.7642 C   0  0  0  0  0  0  0  0  0  0  0  0
   22.8460   -7.7160  -17.7159 O   0  0  0  0  0  0  0  0  0  0  0  0
   18.6785   -7.6505  -16.5535 O   0  0  0  0  0  0  0  0  0  0  0  0
   19.3780   -6.7197  -15.8060 C   0  0  0  0  0  0  0  0  0  0  0  0
   20.8400   -6.6430  -16.1737 C   0  0  2  0  0  0  0  0  0  0  0  0
   21.4527   -7.9546  -15.9202 N   0  0  0  0  0  0  0  0  0  0  0  0
   21.4824   -5.6935  -15.2275 C   0  0  0  0  0  0  0  0  0  0  0  0
   21.2914   -4.3315  -15.2463 O   0  0  0  0  0  0  0  0  0  0  0  0
   22.2494   -6.1774  -14.3559 O   0  0  0  0  0  0  0  0  0  0  0  0
  2  9  1  0
  2  1  1  1
  3  2  1  0
  4  3  1  0
  5  4  2  0
  6  5  1  0
  7  6  1  0
  7  8  2  0
  8  4  1  0
  9 10  2  0
 11 12  1  0
 12 13  1  0
 13 15  1  0
 13 14  1  1
 15 16  1  6
 16  9  1  0
 17 22  1  0
 17 15  1  0
 18 17  2  0
 20 19  1  0
 21 22  1  0
 21 20  1  1
 23 21  1  0
 24 23  1  0
 25 23  2  0
M  END
$$$$
