HIS.pdb
     RDKit          3D

 25 25  0  0  1  0  0  0  0  0999 V2000
   23.8656  -20.2172  -16.2530 N   0  0  0  0  0  0  0  0  0  0  0  0
   23.2260  -19.5109  -15.1868 C   0  0  1  0  0  0  0  0  0  0  0  0
   22.0440  -18.7548  -15.6986 C   0  0  0  0  0  0  0  0  0  0  0  0
   22.5163  -17.7041  -16.6328 C   0  0  0  0  0  0  0  0  0  0  0  0
   22.3418  -16.3371  -16.6106 C   0  0  0  0  0  0  0  0  0  0  0  0
   22.9484  -15.7511  -17.6616 N   0  0  0  0  0  0  0  0  0  0  0  0
   23.5105  -16.7522  -18.3538 C   0  0  0  0  0  0  0  0  0  0  0  0
   23.2630  -17.9261  -17.7544 N   0  0  0  0  0  0  0  0  0  0  0  0
   22.9269  -20.3534  -14.0197 C   0  0  0  0  0  0  0  0  0  0  0  0
   22.4278  -21.4973  -14.1743 O   0  0  0  0  0  0  0  0  0  0  0  0
   25.7925  -20.1792   -9.1725 C   0  0  0  0  0  0  0  0  0  0  0  0
   25.0195  -20.6830  -10.3364 C   0  0  0  0  0  0  0  0  0  0  0  0
   23.5461  -20.5633  -10.2758 C   0  0  2  0  0  0  0  0  0  0  0  0
   22.9383  -21.5116   -9.2364 C   0  0  0  0  0  0  0  0  0  0  0  0
   22.7802  -20.7628  -11.5324 C   0  0  2  0  0  0  0  0  0  0  0  0
   23.1707  -19.9561  -12.6527 N   0  0  0  0  0  0  0  0  0  0  0  0
   21.3013  -20.7365  -11.3163 C   0  0  0  0  0  0  0  0  0  0  0  0
   20.6739  -19.6473  -11.1656 O   0  0  0  0  0  0  0  0  0  0  0  0
   17.7005  -23.7353  -11.7838 O   0  0  0  0  0  0  0  0  0  0  0  0
   18.4138  -22.6279  -12.2074 C   0  0  0  0  0  0  0  0  0  0  0  0
   19.0719  -21.8785  -11.0743 C   0  0  2  0  0  0  0  0  0  0  0  0
   20.5278  -21.9257  -11.2693 N   0  0  0  0  0  0  0  0  0  0  0  0
   18.7943  -22.6361   -9.8259 C   0  0  0  0  0  0  0  0  0  0  0  0
   17.6030  -22.5906   -9.1399 O   0  0  0  0  0  0  0  0  0  0  0  0
   19.7160  -23.3638   -9.3753 O   0  0  0  0  0  0  0  0  0  0  0  0
  2  9  1  0
  2  1  1  6
  3  2  1  0
  4  3  1  0
  5  4  2  0
  6  5  1  0
  7  6  1  0
  7  8  2  0
  8  4  1  0
  9 10  2  0
 11 12  1  0
 12 13  1  0
 13 15  1  0
 13 14  1  1
 15 16  1  6
 16  9  1  0
 17 22  1  0
 17 15  1  0
 18 17  2  0
 20 19  1  0
 21 22  1  0
 21 20  1  6
 23 21  1  0
 24 23  1  0
 25 23  2  0
M  END
$$$$
