HIS.pdb
     RDKit          3D

 25 25  0  0  1  0  0  0  0  0999 V2000
   23.3647  -13.3710  -19.0813 N   0  0  0  0  0  0  0  0  0  0  0  0
   22.4178  -12.3951  -18.6388 C   0  0  1  0  0  0  0  0  0  0  0  0
   21.3120  -13.0503  -17.8781 C   0  0  0  0  0  0  0  0  0  0  0  0
   20.5993  -13.9863  -18.7812 C   0  0  0  0  0  0  0  0  0  0  0  0
   19.7891  -13.7436  -19.8695 C   0  0  0  0  0  0  0  0  0  0  0  0
   19.3451  -14.8941  -20.4129 N   0  0  0  0  0  0  0  0  0  0  0  0
   19.8767  -15.8713  -19.6649 C   0  0  0  0  0  0  0  0  0  0  0  0
   20.6289  -15.3482  -18.6855 N   0  0  0  0  0  0  0  0  0  0  0  0
   23.0295  -11.2612  -17.9308 C   0  0  0  0  0  0  0  0  0  0  0  0
   23.8149  -11.4627  -16.9695 O   0  0  0  0  0  0  0  0  0  0  0  0
   25.9249   -5.9702  -18.4794 C   0  0  0  0  0  0  0  0  0  0  0  0
   24.9977   -6.8062  -17.6747 C   0  0  0  0  0  0  0  0  0  0  0  0
   24.3808   -7.9724  -18.3443 C   0  0  2  0  0  0  0  0  0  0  0  0
   23.6669   -7.5746  -19.6410 C   0  0  0  0  0  0  0  0  0  0  0  0
   23.4198   -8.7934  -17.5648 C   0  0  2  0  0  0  0  0  0  0  0  0
   22.7909   -9.8764  -18.2648 N   0  0  0  0  0  0  0  0  0  0  0  0
   22.4270   -7.9634  -16.8165 C   0  0  0  0  0  0  0  0  0  0  0  0
   21.3234   -7.6237  -17.3357 O   0  0  0  0  0  0  0  0  0  0  0  0
   20.4967   -6.8109  -12.6226 O   0  0  0  0  0  0  0  0  0  0  0  0
   21.4732   -7.4166  -13.3934 C   0  0  0  0  0  0  0  0  0  0  0  0
   21.6494   -6.7661  -14.7442 C   0  0  2  0  0  0  0  0  0  0  0  0
   22.6690   -7.5154  -15.4916 N   0  0  0  0  0  0  0  0  0  0  0  0
   22.2161   -5.4121  -14.5099 C   0  0  0  0  0  0  0  0  0  0  0  0
   21.4691   -4.2588  -14.4477 O   0  0  0  0  0  0  0  0  0  0  0  0
   23.4620   -5.3260  -14.3598 O   0  0  0  0  0  0  0  0  0  0  0  0
  2  9  1  0
  2  1  1  1
  3  2  1  0
  4  3  1  0
  5  4  2  0
  6  5  1  0
  7  6  1  0
  7  8  2  0
  8  4  1  0
  9 10  2  0
 11 12  1  0
 12 13  1  0
 13 15  1  0
 13 14  1  6
 15 16  1  6
 16  9  1  0
 17 22  1  0
 17 15  1  0
 18 17  2  0
 20 19  1  0
 21 22  1  0
 21 20  1  1
 23 21  1  0
 24 23  1  0
 25 23  2  0
M  END
$$$$
