QDQ.pdb
     RDKit          3D

 27 26  0  0  1  0  0  0  0  0999 V2000
   11.2787  -10.7736   -8.3815 N   0  0  0  0  0  0  0  0  0  0  0  0
   11.2648  -11.4181   -9.6358 C   0  0  0  0  0  0  0  0  0  0  0  0
   10.4488  -12.3436   -9.8358 O   0  0  0  0  0  0  0  0  0  0  0  0
   12.1906  -11.0224  -10.7106 C   0  0  0  0  0  0  0  0  0  0  0  0
   13.1130   -9.9444  -10.2051 C   0  0  0  0  0  0  0  0  0  0  0  0
   14.0820   -9.4846  -11.2765 C   0  0  2  0  0  0  0  0  0  0  0  0
   14.8434  -10.6043  -11.7939 N   0  0  0  0  0  0  0  0  0  0  0  0
   15.0083   -8.4585  -10.8016 C   0  0  0  0  0  0  0  0  0  0  0  0
   14.7081   -7.7188   -9.8307 O   0  0  0  0  0  0  0  0  0  0  0  0
   16.2994   -8.2281  -11.3978 N   0  0  0  0  0  0  0  0  0  0  0  0
   17.1802   -7.1899  -10.9018 C   0  0  1  0  0  0  0  0  0  0  0  0
   18.5238   -7.3903  -11.5644 C   0  0  0  0  0  0  0  0  0  0  0  0
   19.1910   -8.5815  -11.0147 C   0  0  0  0  0  0  0  0  0  0  0  0
   20.2611   -8.9812  -11.5947 O   0  0  0  0  0  0  0  0  0  0  0  0
   16.7028   -5.8381  -11.3049 C   0  0  0  0  0  0  0  0  0  0  0  0
   16.2579   -5.5824  -12.4529 O   0  0  0  0  0  0  0  0  0  0  0  0
   18.7958   -9.3272   -9.9375 O   0  0  0  0  0  0  0  0  0  0  0  0
   13.1890   -3.4215  -13.3281 N   0  0  0  0  0  0  0  0  0  0  0  0
   12.8295   -2.6276  -12.1663 C   0  0  0  0  0  0  0  0  0  0  0  0
   11.9265   -1.7770  -12.2893 O   0  0  0  0  0  0  0  0  0  0  0  0
   13.5228   -2.8335  -10.8895 C   0  0  0  0  0  0  0  0  0  0  0  0
   14.5481   -3.8840  -10.8601 C   0  0  0  0  0  0  0  0  0  0  0  0
   15.9359   -3.5526  -10.4859 C   0  0  2  0  0  0  0  0  0  0  0  0
   16.7428   -4.7769  -10.3679 N   0  0  0  0  0  0  0  0  0  0  0  0
   16.1962   -2.5766   -9.4512 C   0  0  0  0  0  0  0  0  0  0  0  0
   16.0933   -1.2175   -9.5447 O   0  0  0  0  0  0  0  0  0  0  0  0
   16.5670   -3.0413   -8.3127 O   0  0  0  0  0  0  0  0  0  0  0  0
  2  1  1  0
  3  2  2  0
  4  2  1  0
  5  4  1  0
  6  5  1  0
  6  7  1  1
  8  6  1  0
  8  9  2  0
 10 11  1  0
 10  8  1  0
 11 12  1  6
 12 13  1  0
 13 17  1  0
 14 13  2  0
 15 11  1  0
 16 15  2  0
 19 18  1  0
 19 21  1  0
 20 19  2  0
 22 21  1  0
 23 22  1  1
 23 24  1  0
 24 15  1  0
 25 26  1  0
 25 23  1  0
 27 25  2  0
M  END
$$$$
