QDQ.pdb
     RDKit          3D

 27 26  0  0  1  0  0  0  0  0999 V2000
   13.0714  -11.8660  -15.9717 N   0  0  0  0  0  0  0  0  0  0  0  0
   12.9519  -13.2496  -15.7267 C   0  0  0  0  0  0  0  0  0  0  0  0
   12.1138  -13.9127  -16.3750 O   0  0  0  0  0  0  0  0  0  0  0  0
   13.7933  -13.9255  -14.7246 C   0  0  0  0  0  0  0  0  0  0  0  0
   14.6655  -12.9090  -14.0357 C   0  0  0  0  0  0  0  0  0  0  0  0
   15.8083  -12.4547  -14.9222 C   0  0  2  0  0  0  0  0  0  0  0  0
   16.6992  -13.5595  -15.2168 N   0  0  0  0  0  0  0  0  0  0  0  0
   16.5827  -11.3629  -14.3351 C   0  0  0  0  0  0  0  0  0  0  0  0
   16.8019  -11.3208  -13.0981 O   0  0  0  0  0  0  0  0  0  0  0  0
   17.1363  -10.2844  -15.1134 N   0  0  0  0  0  0  0  0  0  0  0  0
   17.8792   -9.2105  -14.4854 C   0  0  1  0  0  0  0  0  0  0  0  0
   18.7908   -8.6231  -15.5382 C   0  0  0  0  0  0  0  0  0  0  0  0
   19.7241   -7.6632  -14.9267 C   0  0  0  0  0  0  0  0  0  0  0  0
   19.6870   -7.5311  -13.6529 O   0  0  0  0  0  0  0  0  0  0  0  0
   16.9741   -8.1133  -14.0441 C   0  0  0  0  0  0  0  0  0  0  0  0
   16.0468   -7.6593  -14.7618 O   0  0  0  0  0  0  0  0  0  0  0  0
   20.6436   -6.8799  -15.5697 O   0  0  0  0  0  0  0  0  0  0  0  0
   15.7618   -7.0525   -7.9843 N   0  0  0  0  0  0  0  0  0  0  0  0
   15.1466   -5.8882   -8.5970 C   0  0  0  0  0  0  0  0  0  0  0  0
   14.4986   -5.1112   -7.8687 O   0  0  0  0  0  0  0  0  0  0  0  0
   15.2926   -5.6495  -10.0375 C   0  0  0  0  0  0  0  0  0  0  0  0
   16.0375   -6.6596  -10.7991 C   0  0  0  0  0  0  0  0  0  0  0  0
   16.3125   -6.4504  -12.2332 C   0  0  2  0  0  0  0  0  0  0  0  0
   17.1480   -7.5401  -12.7607 N   0  0  0  0  0  0  0  0  0  0  0  0
   16.6832   -5.1396  -12.7183 C   0  0  0  0  0  0  0  0  0  0  0  0
   17.8872   -4.5098  -12.5760 O   0  0  0  0  0  0  0  0  0  0  0  0
   15.7757   -4.4928  -13.3567 O   0  0  0  0  0  0  0  0  0  0  0  0
  2  1  1  0
  3  2  2  0
  4  2  1  0
  5  4  1  0
  6  5  1  0
  6  7  1  1
  8  6  1  0
  8  9  2  0
 10 11  1  0
 10  8  1  0
 11 12  1  6
 12 13  1  0
 13 17  1  0
 14 13  2  0
 15 11  1  0
 16 15  2  0
 19 18  1  0
 19 21  1  0
 20 19  2  0
 22 21  1  0
 23 22  1  1
 23 24  1  0
 24 15  1  0
 25 26  1  0
 25 23  1  0
 27 25  2  0
M  END
$$$$
