QDQ.pdb
     RDKit          3D

 27 26  0  0  1  0  0  0  0  0999 V2000
   15.9730  -13.8098  -15.7405 N   0  0  0  0  0  0  0  0  0  0  0  0
   17.1697  -13.6204  -16.4622 C   0  0  0  0  0  0  0  0  0  0  0  0
   17.2655  -14.0901  -17.6166 O   0  0  0  0  0  0  0  0  0  0  0  0
   18.3047  -12.8820  -15.8831 C   0  0  0  0  0  0  0  0  0  0  0  0
   17.8914  -12.2824  -14.5646 C   0  0  0  0  0  0  0  0  0  0  0  0
   17.5108  -10.8217  -14.7053 C   0  0  2  0  0  0  0  0  0  0  0  0
   17.8952  -10.3148  -16.0078 N   0  0  0  0  0  0  0  0  0  0  0  0
   18.1071   -9.9776  -13.6716 C   0  0  0  0  0  0  0  0  0  0  0  0
   17.9860  -10.2667  -12.4543 O   0  0  0  0  0  0  0  0  0  0  0  0
   18.8577   -8.7840  -13.9674 N   0  0  0  0  0  0  0  0  0  0  0  0
   19.3397   -7.9195  -12.9092 C   0  0  1  0  0  0  0  0  0  0  0  0
   20.2183   -6.8721  -13.5538 C   0  0  0  0  0  0  0  0  0  0  0  0
   20.8743   -6.0519  -12.5228 C   0  0  0  0  0  0  0  0  0  0  0  0
   20.7089   -6.3951  -11.2996 O   0  0  0  0  0  0  0  0  0  0  0  0
   18.2183   -7.1912  -12.2535 C   0  0  0  0  0  0  0  0  0  0  0  0
   17.2725   -6.6678  -12.8957 O   0  0  0  0  0  0  0  0  0  0  0  0
   21.6541   -4.9447  -12.7195 O   0  0  0  0  0  0  0  0  0  0  0  0
   13.7950   -9.3450  -10.1332 N   0  0  0  0  0  0  0  0  0  0  0  0
   13.6374   -8.1271   -9.3577 C   0  0  0  0  0  0  0  0  0  0  0  0
   12.5767   -7.9645   -8.7234 O   0  0  0  0  0  0  0  0  0  0  0  0
   14.7085   -7.1242   -9.3345 C   0  0  0  0  0  0  0  0  0  0  0  0
   15.9527   -7.4749  -10.0303 C   0  0  0  0  0  0  0  0  0  0  0  0
   17.0652   -6.5080  -10.0888 C   0  0  2  0  0  0  0  0  0  0  0  0
   18.1961   -7.0706  -10.8425 N   0  0  0  0  0  0  0  0  0  0  0  0
   17.4557   -5.7772   -8.9037 C   0  0  0  0  0  0  0  0  0  0  0  0
   16.7383   -4.8213   -8.2418 O   0  0  0  0  0  0  0  0  0  0  0  0
   18.6104   -6.0593   -8.4174 O   0  0  0  0  0  0  0  0  0  0  0  0
  2  1  1  0
  3  2  2  0
  4  2  1  0
  5  4  1  0
  6  5  1  0
  6  7  1  6
  8  6  1  0
  8  9  2  0
 10 11  1  0
 10  8  1  0
 11 12  1  6
 12 13  1  0
 13 17  1  0
 14 13  2  0
 15 11  1  0
 16 15  2  0
 19 18  1  0
 19 21  1  0
 20 19  2  0
 22 21  1  0
 23 22  1  1
 23 24  1  0
 24 15  1  0
 25 26  1  0
 25 23  1  0
 27 25  2  0
M  END
$$$$
