QDQ.pdb
     RDKit          3D

 27 26  0  0  1  0  0  0  0  0999 V2000
   34.1101  -32.9502   -8.0840 N   0  0  0  0  0  0  0  0  0  0  0  0
   33.9868  -34.1867   -7.4171 C   0  0  0  0  0  0  0  0  0  0  0  0
   34.8615  -35.0625   -7.5914 O   0  0  0  0  0  0  0  0  0  0  0  0
   32.8506  -34.4643   -6.5222 C   0  0  0  0  0  0  0  0  0  0  0  0
   33.2645  -34.2152   -5.0956 C   0  0  0  0  0  0  0  0  0  0  0  0
   32.0794  -34.2533   -4.1509 C   0  0  2  0  0  0  0  0  0  0  0  0
   31.4961  -32.9341   -4.0066 N   0  0  0  0  0  0  0  0  0  0  0  0
   32.4250  -34.7678   -2.8272 C   0  0  0  0  0  0  0  0  0  0  0  0
   32.8573  -35.9393   -2.6838 O   0  0  0  0  0  0  0  0  0  0  0  0
   32.2979  -33.9878   -1.6226 N   0  0  0  0  0  0  0  0  0  0  0  0
   32.6648  -34.5353   -0.3322 C   0  0  1  0  0  0  0  0  0  0  0  0
   33.0439  -33.3718    0.5549 C   0  0  0  0  0  0  0  0  0  0  0  0
   34.3233  -32.7915    0.1160 C   0  0  0  0  0  0  0  0  0  0  0  0
   34.3664  -31.5244   -0.0682 O   0  0  0  0  0  0  0  0  0  0  0  0
   31.5065  -35.2084    0.3183 C   0  0  0  0  0  0  0  0  0  0  0  0
   30.3895  -35.3449   -0.2427 O   0  0  0  0  0  0  0  0  0  0  0  0
   35.4942  -33.4578   -0.1241 O   0  0  0  0  0  0  0  0  0  0  0  0
   26.6899  -39.2272    1.2225 N   0  0  0  0  0  0  0  0  0  0  0  0
   27.6893  -38.1756    1.2913 C   0  0  0  0  0  0  0  0  0  0  0  0
   27.3908  -37.0481    0.8515 O   0  0  0  0  0  0  0  0  0  0  0  0
   29.0115  -38.4517    1.8649 C   0  0  0  0  0  0  0  0  0  0  0  0
   30.1126  -37.5858    1.4255 C   0  0  0  0  0  0  0  0  0  0  0  0
   30.6108  -36.5162    2.3108 C   0  0  2  0  0  0  0  0  0  0  0  0
   31.6474  -35.7259    1.6291 N   0  0  0  0  0  0  0  0  0  0  0  0
   30.9066  -36.7996    3.6976 C   0  0  0  0  0  0  0  0  0  0  0  0
   30.0168  -36.9637    4.7212 O   0  0  0  0  0  0  0  0  0  0  0  0
   32.1494  -36.9098    4.0021 O   0  0  0  0  0  0  0  0  0  0  0  0
  2  1  1  0
  3  2  2  0
  4  2  1  0
  5  4  1  0
  6  5  1  0
  6  7  1  1
  8  6  1  0
  8  9  2  0
 10 11  1  0
 10  8  1  0
 11 12  1  1
 12 13  1  0
 13 17  1  0
 14 13  2  0
 15 11  1  0
 16 15  2  0
 19 18  1  0
 19 21  1  0
 20 19  2  0
 22 21  1  0
 23 22  1  6
 23 24  1  0
 24 15  1  0
 25 26  1  0
 25 23  1  0
 27 25  2  0
M  END
$$$$
