QDQ.pdb
     RDKit          3D

 27 26  0  0  1  0  0  0  0  0999 V2000
   17.8399  -16.7471  -14.8309 N   0  0  0  0  0  0  0  0  0  0  0  0
   16.5129  -16.6117  -15.2887 C   0  0  0  0  0  0  0  0  0  0  0  0
   15.8650  -17.6373  -15.5900 O   0  0  0  0  0  0  0  0  0  0  0  0
   15.8784  -15.2889  -15.4178 C   0  0  0  0  0  0  0  0  0  0  0  0
   16.8318  -14.2272  -14.9357 C   0  0  0  0  0  0  0  0  0  0  0  0
   16.2671  -12.8337  -15.1294 C   0  0  2  0  0  0  0  0  0  0  0  0
   15.9318  -12.6052  -16.5210 N   0  0  0  0  0  0  0  0  0  0  0  0
   17.1804  -11.7839  -14.6819 C   0  0  0  0  0  0  0  0  0  0  0  0
   17.5491  -11.7189  -13.4819 O   0  0  0  0  0  0  0  0  0  0  0  0
   17.7098  -10.7742  -15.5626 N   0  0  0  0  0  0  0  0  0  0  0  0
   18.5671   -9.7180  -15.0635 C   0  0  1  0  0  0  0  0  0  0  0  0
   19.3763   -9.2092  -16.2343 C   0  0  0  0  0  0  0  0  0  0  0  0
   20.3012   -8.1523  -15.7940 C   0  0  0  0  0  0  0  0  0  0  0  0
   20.0615   -6.9558  -16.1843 O   0  0  0  0  0  0  0  0  0  0  0  0
   17.7685   -8.5649  -14.5631 C   0  0  0  0  0  0  0  0  0  0  0  0
   16.7709   -8.1051  -15.1750 O   0  0  0  0  0  0  0  0  0  0  0  0
   21.4081   -8.2991  -15.0031 O   0  0  0  0  0  0  0  0  0  0  0  0
   15.0088   -6.2730   -8.4303 N   0  0  0  0  0  0  0  0  0  0  0  0
   16.3128   -6.3755   -9.0616 C   0  0  0  0  0  0  0  0  0  0  0  0
   17.2818   -6.7268   -8.3605 O   0  0  0  0  0  0  0  0  0  0  0  0
   16.4674   -6.0678  -10.4880 C   0  0  0  0  0  0  0  0  0  0  0  0
   17.2039   -7.0477  -11.2959 C   0  0  0  0  0  0  0  0  0  0  0  0
   17.3854   -6.8264  -12.7429 C   0  0  2  0  0  0  0  0  0  0  0  0
   18.1319   -7.9423  -13.3440 N   0  0  0  0  0  0  0  0  0  0  0  0
   17.7788   -5.5249  -13.2352 C   0  0  0  0  0  0  0  0  0  0  0  0
   17.0687   -4.3598  -13.1660 O   0  0  0  0  0  0  0  0  0  0  0  0
   18.9287   -5.4565  -13.8032 O   0  0  0  0  0  0  0  0  0  0  0  0
  2  1  1  0
  3  2  2  0
  4  2  1  0
  5  4  1  0
  6  5  1  0
  6  7  1  6
  8  6  1  0
  8  9  2  0
 10 11  1  0
 10  8  1  0
 11 12  1  6
 12 13  1  0
 13 17  1  0
 14 13  2  0
 15 11  1  0
 16 15  2  0
 19 18  1  0
 19 21  1  0
 20 19  2  0
 22 21  1  0
 23 22  1  1
 23 24  1  0
 24 15  1  0
 25 26  1  0
 25 23  1  0
 27 25  2  0
M  END
$$$$
