QDQ.pdb
     RDKit          3D

 27 26  0  0  1  0  0  0  0  0999 V2000
   13.9962  -13.7073  -11.3012 N   0  0  0  0  0  0  0  0  0  0  0  0
   12.7673  -13.4349  -10.6653 C   0  0  0  0  0  0  0  0  0  0  0  0
   11.7615  -14.1124  -10.9683 O   0  0  0  0  0  0  0  0  0  0  0  0
   12.6473  -12.3708   -9.6543 C   0  0  0  0  0  0  0  0  0  0  0  0
   13.2637  -11.1035  -10.1860 C   0  0  0  0  0  0  0  0  0  0  0  0
   13.2646   -9.9992   -9.1472 C   0  0  2  0  0  0  0  0  0  0  0  0
   11.9110   -9.6736   -8.7438 N   0  0  0  0  0  0  0  0  0  0  0  0
   13.9277   -8.7826   -9.6128 C   0  0  0  0  0  0  0  0  0  0  0  0
   13.4182   -8.0780  -10.5205 O   0  0  0  0  0  0  0  0  0  0  0  0
   15.1811   -8.3161   -9.0772 N   0  0  0  0  0  0  0  0  0  0  0  0
   15.8422   -7.1483   -9.6238 C   0  0  1  0  0  0  0  0  0  0  0  0
   16.1283   -6.2160   -8.4691 C   0  0  0  0  0  0  0  0  0  0  0  0
   16.7443   -4.9721   -8.9585 C   0  0  0  0  0  0  0  0  0  0  0  0
   17.8487   -4.6073   -8.4212 O   0  0  0  0  0  0  0  0  0  0  0  0
   17.1588   -7.5032  -10.2222 C   0  0  0  0  0  0  0  0  0  0  0  0
   18.0661   -8.0930   -9.5819 O   0  0  0  0  0  0  0  0  0  0  0  0
   16.2679   -4.1430   -9.9373 O   0  0  0  0  0  0  0  0  0  0  0  0
   18.2198  -10.3988  -15.2613 N   0  0  0  0  0  0  0  0  0  0  0  0
   18.2718  -10.8196  -13.8722 C   0  0  0  0  0  0  0  0  0  0  0  0
   18.0963  -12.0265  -13.6142 O   0  0  0  0  0  0  0  0  0  0  0  0
   18.5237   -9.8359  -12.8128 C   0  0  0  0  0  0  0  0  0  0  0  0
   18.6489   -8.4348  -13.2330 C   0  0  0  0  0  0  0  0  0  0  0  0
   18.7288   -7.3637  -12.2218 C   0  0  2  0  0  0  0  0  0  0  0  0
   17.4226   -7.1705  -11.5734 N   0  0  0  0  0  0  0  0  0  0  0  0
   19.4224   -6.1310  -12.5223 C   0  0  0  0  0  0  0  0  0  0  0  0
   20.7686   -5.9478  -12.6664 O   0  0  0  0  0  0  0  0  0  0  0  0
   18.6880   -5.0879  -12.6708 O   0  0  0  0  0  0  0  0  0  0  0  0
  2  1  1  0
  3  2  2  0
  4  2  1  0
  5  4  1  0
  6  5  1  0
  6  7  1  6
  8  6  1  0
  8  9  2  0
 10 11  1  0
 10  8  1  0
 11 12  1  1
 12 13  1  0
 13 17  1  0
 14 13  2  0
 15 11  1  0
 16 15  2  0
 19 18  1  0
 19 21  1  0
 20 19  2  0
 22 21  1  0
 23 22  1  6
 23 24  1  0
 24 15  1  0
 25 26  1  0
 25 23  1  0
 27 25  2  0
M  END
$$$$
