QDQ.pdb
     RDKit          3D

 27 26  0  0  1  0  0  0  0  0999 V2000
   25.0011  -29.6558   -2.5392 N   0  0  0  0  0  0  0  0  0  0  0  0
   24.3880  -30.7047   -1.8231 C   0  0  0  0  0  0  0  0  0  0  0  0
   23.5056  -30.4325   -0.9805 O   0  0  0  0  0  0  0  0  0  0  0  0
   24.7666  -32.1099   -2.0487 C   0  0  0  0  0  0  0  0  0  0  0  0
   25.8506  -32.1748   -3.0924 C   0  0  0  0  0  0  0  0  0  0  0  0
   26.3692  -33.5872   -3.2782 C   0  0  2  0  0  0  0  0  0  0  0  0
   25.3915  -34.4058   -3.9677 N   0  0  0  0  0  0  0  0  0  0  0  0
   26.7239  -34.2324   -2.0155 C   0  0  0  0  0  0  0  0  0  0  0  0
   25.8449  -34.7778   -1.3012 O   0  0  0  0  0  0  0  0  0  0  0  0
   28.0727  -34.2879   -1.5126 N   0  0  0  0  0  0  0  0  0  0  0  0
   28.3697  -34.8853   -0.2263 C   0  0  1  0  0  0  0  0  0  0  0  0
   29.8307  -35.2724   -0.2406 C   0  0  0  0  0  0  0  0  0  0  0  0
   30.1483  -36.1080    0.9287 C   0  0  0  0  0  0  0  0  0  0  0  0
   29.1791  -36.4468    1.6949 O   0  0  0  0  0  0  0  0  0  0  0  0
   28.1996  -33.9014    0.8786 C   0  0  0  0  0  0  0  0  0  0  0  0
   28.5140  -32.6888    0.7711 O   0  0  0  0  0  0  0  0  0  0  0  0
   31.3796  -36.5739    1.3019 O   0  0  0  0  0  0  0  0  0  0  0  0
   23.9787  -30.9456    2.2868 N   0  0  0  0  0  0  0  0  0  0  0  0
   24.6772  -30.6981    3.5358 C   0  0  0  0  0  0  0  0  0  0  0  0
   24.2605  -29.7841    4.2740 O   0  0  0  0  0  0  0  0  0  0  0  0
   25.8425  -31.5113    3.9024 C   0  0  0  0  0  0  0  0  0  0  0  0
   26.2691  -32.5249    2.9297 C   0  0  0  0  0  0  0  0  0  0  0  0
   27.3924  -33.4271    3.2463 C   0  0  2  0  0  0  0  0  0  0  0  0
   27.6608  -34.3298    2.1164 N   0  0  0  0  0  0  0  0  0  0  0  0
   27.4667  -34.0686    4.5401 C   0  0  0  0  0  0  0  0  0  0  0  0
   27.4179  -35.4072    4.8088 O   0  0  0  0  0  0  0  0  0  0  0  0
   27.5932  -33.2899    5.5536 O   0  0  0  0  0  0  0  0  0  0  0  0
  2  1  1  0
  3  2  2  0
  4  2  1  0
  5  4  1  0
  6  5  1  0
  6  7  1  1
  8  6  1  0
  8  9  2  0
 10 11  1  0
 10  8  1  0
 11 12  1  6
 12 13  1  0
 13 17  1  0
 14 13  2  0
 15 11  1  0
 16 15  2  0
 19 18  1  0
 19 21  1  0
 20 19  2  0
 22 21  1  0
 23 22  1  6
 23 24  1  0
 24 15  1  0
 25 26  1  0
 25 23  1  0
 27 25  2  0
M  END
$$$$
