QDQ.pdb
     RDKit          3D

 27 26  0  0  1  0  0  0  0  0999 V2000
   22.5129  -13.9667  -17.6333 N   0  0  0  0  0  0  0  0  0  0  0  0
   21.1218  -14.1615  -17.5075 C   0  0  0  0  0  0  0  0  0  0  0  0
   20.6220  -15.2437  -17.8837 O   0  0  0  0  0  0  0  0  0  0  0  0
   20.2501  -13.1173  -16.9431 C   0  0  0  0  0  0  0  0  0  0  0  0
   21.0789  -11.9101  -16.5904 C   0  0  0  0  0  0  0  0  0  0  0  0
   20.8719  -10.7776  -17.5767 C   0  0  2  0  0  0  0  0  0  0  0  0
   21.3986  -11.1303  -18.8804 N   0  0  0  0  0  0  0  0  0  0  0  0
   21.4848   -9.5248  -17.1394 C   0  0  0  0  0  0  0  0  0  0  0  0
   21.1113   -8.9598  -16.0804 O   0  0  0  0  0  0  0  0  0  0  0  0
   22.5348   -8.8651  -17.8727 N   0  0  0  0  0  0  0  0  0  0  0  0
   23.1269   -7.6335  -17.3908 C   0  0  1  0  0  0  0  0  0  0  0  0
   24.5790   -7.6423  -17.8100 C   0  0  0  0  0  0  0  0  0  0  0  0
   25.3261   -8.6495  -17.0395 C   0  0  0  0  0  0  0  0  0  0  0  0
   24.7371   -9.1823  -16.0342 O   0  0  0  0  0  0  0  0  0  0  0  0
   22.5033   -6.4453  -18.0367 C   0  0  0  0  0  0  0  0  0  0  0  0
   22.2786   -6.3755  -19.2718 O   0  0  0  0  0  0  0  0  0  0  0  0
   26.5995   -9.0921  -17.2737 O   0  0  0  0  0  0  0  0  0  0  0  0
   17.0584   -3.2763  -18.1062 N   0  0  0  0  0  0  0  0  0  0  0  0
   17.9392   -3.8156  -19.1274 C   0  0  0  0  0  0  0  0  0  0  0  0
   17.4428   -4.5403  -20.0120 O   0  0  0  0  0  0  0  0  0  0  0  0
   19.3735   -3.5067  -19.1020 C   0  0  0  0  0  0  0  0  0  0  0  0
   20.2576   -4.5347  -18.5392 C   0  0  0  0  0  0  0  0  0  0  0  0
   21.4526   -4.1416  -17.7691 C   0  0  2  0  0  0  0  0  0  0  0  0
   22.1388   -5.3311  -17.2419 N   0  0  0  0  0  0  0  0  0  0  0  0
   21.3846   -3.0410  -16.8336 C   0  0  0  0  0  0  0  0  0  0  0  0
   21.1477   -1.7249  -17.1133 O   0  0  0  0  0  0  0  0  0  0  0  0
   21.5680   -3.3348  -15.5968 O   0  0  0  0  0  0  0  0  0  0  0  0
  2  1  1  0
  3  2  2  0
  4  2  1  0
  5  4  1  0
  6  5  1  0
  6  7  1  6
  8  6  1  0
  8  9  2  0
 10 11  1  0
 10  8  1  0
 11 12  1  6
 12 13  1  0
 13 17  1  0
 14 13  2  0
 15 11  1  0
 16 15  2  0
 19 18  1  0
 19 21  1  0
 20 19  2  0
 22 21  1  0
 23 22  1  1
 23 24  1  0
 24 15  1  0
 25 26  1  0
 25 23  1  0
 27 25  2  0
M  END
$$$$
