QDQ.pdb
     RDKit          3D

 27 26  0  0  1  0  0  0  0  0999 V2000
   17.2731  -13.4755  -19.1952 N   0  0  0  0  0  0  0  0  0  0  0  0
   16.9657  -14.1391  -17.9894 C   0  0  0  0  0  0  0  0  0  0  0  0
   16.3974  -15.2516  -18.0343 O   0  0  0  0  0  0  0  0  0  0  0  0
   17.3007  -13.5480  -16.6829 C   0  0  0  0  0  0  0  0  0  0  0  0
   17.8676  -12.1677  -16.8885 C   0  0  0  0  0  0  0  0  0  0  0  0
   18.1715  -11.4821  -15.5710 C   0  0  2  0  0  0  0  0  0  0  0  0
   17.0413  -11.5811  -14.6687 N   0  0  0  0  0  0  0  0  0  0  0  0
   18.5287  -10.0740  -15.7330 C   0  0  0  0  0  0  0  0  0  0  0  0
   19.4904   -9.7334  -16.4673 O   0  0  0  0  0  0  0  0  0  0  0  0
   17.8211   -9.0030  -15.0789 N   0  0  0  0  0  0  0  0  0  0  0  0
   18.1388   -7.6162  -15.3537 C   0  0  1  0  0  0  0  0  0  0  0  0
   17.1540   -6.7708  -14.5791 C   0  0  0  0  0  0  0  0  0  0  0  0
   15.8384   -6.7873  -15.2386 C   0  0  0  0  0  0  0  0  0  0  0  0
   15.8148   -6.9580  -16.5081 O   0  0  0  0  0  0  0  0  0  0  0  0
   19.4946   -7.2623  -14.8493 C   0  0  0  0  0  0  0  0  0  0  0  0
   19.8809   -7.5226  -13.6814 O   0  0  0  0  0  0  0  0  0  0  0  0
   14.6143   -6.6383  -14.6455 O   0  0  0  0  0  0  0  0  0  0  0  0
   24.4920   -7.7212  -18.3691 N   0  0  0  0  0  0  0  0  0  0  0  0
   25.0545   -7.0087  -17.2354 C   0  0  0  0  0  0  0  0  0  0  0  0
   26.2901   -6.8490  -17.1928 O   0  0  0  0  0  0  0  0  0  0  0  0
   24.1765   -6.4987  -16.1760 C   0  0  0  0  0  0  0  0  0  0  0  0
   22.7407   -6.7651  -16.3270 C   0  0  0  0  0  0  0  0  0  0  0  0
   21.7848   -6.2569  -15.3250 C   0  0  2  0  0  0  0  0  0  0  0  0
   20.4070   -6.6017  -15.7077 N   0  0  0  0  0  0  0  0  0  0  0  0
   21.9291   -4.9187  -14.7963 C   0  0  0  0  0  0  0  0  0  0  0  0
   21.3110   -3.7809  -15.2321 O   0  0  0  0  0  0  0  0  0  0  0  0
   22.7311   -4.7844  -13.8022 O   0  0  0  0  0  0  0  0  0  0  0  0
  2  1  1  0
  3  2  2  0
  4  2  1  0
  5  4  1  0
  6  5  1  0
  6  7  1  1
  8  6  1  0
  8  9  2  0
 10 11  1  0
 10  8  1  0
 11 12  1  1
 12 13  1  0
 13 17  1  0
 14 13  2  0
 15 11  1  0
 16 15  2  0
 19 18  1  0
 19 21  1  0
 20 19  2  0
 22 21  1  0
 23 22  1  6
 23 24  1  0
 24 15  1  0
 25 26  1  0
 25 23  1  0
 27 25  2  0
M  END
$$$$
