QDQ.pdb
     RDKit          3D

 27 26  0  0  1  0  0  0  0  0999 V2000
   13.7657  -13.8819  -14.8552 N   0  0  0  0  0  0  0  0  0  0  0  0
   14.1699  -13.7008  -13.5162 C   0  0  0  0  0  0  0  0  0  0  0  0
   13.3699  -13.9763  -12.5961 O   0  0  0  0  0  0  0  0  0  0  0  0
   15.5122  -13.1949  -13.1831 C   0  0  0  0  0  0  0  0  0  0  0  0
   15.4925  -11.6889  -13.1779 C   0  0  0  0  0  0  0  0  0  0  0  0
   15.0585  -11.1363  -11.8345 C   0  0  2  0  0  0  0  0  0  0  0  0
   13.6426  -11.3612  -11.6208 N   0  0  0  0  0  0  0  0  0  0  0  0
   15.3404   -9.7094  -11.6898 C   0  0  0  0  0  0  0  0  0  0  0  0
   15.0056   -8.8923  -12.5844 O   0  0  0  0  0  0  0  0  0  0  0  0
   16.0055   -9.1520  -10.5398 N   0  0  0  0  0  0  0  0  0  0  0  0
   16.1836   -7.7211  -10.3966 C   0  0  1  0  0  0  0  0  0  0  0  0
   16.0770   -7.4033   -8.9228 C   0  0  0  0  0  0  0  0  0  0  0  0
   16.0852   -5.9464   -8.7134 C   0  0  0  0  0  0  0  0  0  0  0  0
   15.9968   -5.5212   -7.5081 O   0  0  0  0  0  0  0  0  0  0  0  0
   17.5459   -7.3005  -10.8266 C   0  0  0  0  0  0  0  0  0  0  0  0
   18.5938   -7.8878  -10.4552 O   0  0  0  0  0  0  0  0  0  0  0  0
   16.1769   -4.9739   -9.6717 O   0  0  0  0  0  0  0  0  0  0  0  0
   20.5770   -9.4535  -14.1473 N   0  0  0  0  0  0  0  0  0  0  0  0
   21.3005   -8.2084  -14.3361 C   0  0  0  0  0  0  0  0  0  0  0  0
   22.3619   -8.2358  -14.9892 O   0  0  0  0  0  0  0  0  0  0  0  0
   20.7818   -6.9605  -13.7642 C   0  0  0  0  0  0  0  0  0  0  0  0
   19.5651   -7.0664  -12.9495 C   0  0  0  0  0  0  0  0  0  0  0  0
   18.9448   -5.8528  -12.3854 C   0  0  2  0  0  0  0  0  0  0  0  0
   17.6912   -6.1901  -11.6938 N   0  0  0  0  0  0  0  0  0  0  0  0
   18.8734   -4.6409  -13.1710 C   0  0  0  0  0  0  0  0  0  0  0  0
   17.7537   -3.9389  -13.5176 O   0  0  0  0  0  0  0  0  0  0  0  0
   19.9919   -4.1701  -13.5916 O   0  0  0  0  0  0  0  0  0  0  0  0
  2  1  1  0
  3  2  2  0
  4  2  1  0
  5  4  1  0
  6  5  1  0
  6  7  1  6
  8  6  1  0
  8  9  2  0
 10 11  1  0
 10  8  1  0
 11 12  1  1
 12 13  1  0
 13 17  1  0
 14 13  2  0
 15 11  1  0
 16 15  2  0
 19 18  1  0
 19 21  1  0
 20 19  2  0
 22 21  1  0
 23 22  1  6
 23 24  1  0
 24 15  1  0
 25 26  1  0
 25 23  1  0
 27 25  2  0
M  END
$$$$
