QDQ.pdb
     RDKit          3D

 27 26  0  0  1  0  0  0  0  0999 V2000
   24.2400  -14.1765  -22.5062 N   0  0  0  0  0  0  0  0  0  0  0  0
   25.1962  -14.4856  -21.5167 C   0  0  0  0  0  0  0  0  0  0  0  0
   26.2997  -13.8987  -21.5319 O   0  0  0  0  0  0  0  0  0  0  0  0
   24.9196  -15.4836  -20.4696 C   0  0  0  0  0  0  0  0  0  0  0  0
   23.6103  -16.1677  -20.7634 C   0  0  0  0  0  0  0  0  0  0  0  0
   22.4926  -15.6465  -19.8817 C   0  0  2  0  0  0  0  0  0  0  0  0
   22.9735  -14.5875  -19.0165 N   0  0  0  0  0  0  0  0  0  0  0  0
   21.8831  -16.6911  -19.0609 C   0  0  0  0  0  0  0  0  0  0  0  0
   22.5124  -17.7438  -18.7857 O   0  0  0  0  0  0  0  0  0  0  0  0
   20.5507  -16.5906  -18.5223 N   0  0  0  0  0  0  0  0  0  0  0  0
   19.9985  -17.6376  -17.6866 C   0  0  1  0  0  0  0  0  0  0  0  0
   20.8038  -17.6593  -16.4077 C   0  0  0  0  0  0  0  0  0  0  0  0
   20.3020  -18.7095  -15.5069 C   0  0  0  0  0  0  0  0  0  0  0  0
   20.2213  -19.9002  -15.9729 O   0  0  0  0  0  0  0  0  0  0  0  0
   18.5922  -17.3356  -17.3005 C   0  0  0  0  0  0  0  0  0  0  0  0
   18.2412  -16.2406  -16.7918 O   0  0  0  0  0  0  0  0  0  0  0  0
   19.9033  -18.5620  -14.2062 O   0  0  0  0  0  0  0  0  0  0  0  0
   13.0056  -21.4230  -15.2127 N   0  0  0  0  0  0  0  0  0  0  0  0
   14.1203  -20.5623  -14.8573 C   0  0  0  0  0  0  0  0  0  0  0  0
   14.7895  -20.8508  -13.8460 O   0  0  0  0  0  0  0  0  0  0  0  0
   14.4348  -19.3869  -15.6777 C   0  0  0  0  0  0  0  0  0  0  0  0
   15.7897  -19.3205  -16.2390 C   0  0  0  0  0  0  0  0  0  0  0  0
   16.1962  -18.1608  -17.0550 C   0  0  2  0  0  0  0  0  0  0  0  0
   17.5878  -18.3125  -17.5068 N   0  0  0  0  0  0  0  0  0  0  0  0
   15.8604  -16.8200  -16.6301 C   0  0  0  0  0  0  0  0  0  0  0  0
   16.5304  -16.0400  -15.7306 O   0  0  0  0  0  0  0  0  0  0  0  0
   14.8109  -16.3026  -17.1598 O   0  0  0  0  0  0  0  0  0  0  0  0
  2  1  1  0
  3  2  2  0
  4  2  1  0
  5  4  1  0
  6  5  1  0
  6  7  1  1
  8  6  1  0
  8  9  2  0
 10 11  1  0
 10  8  1  0
 11 12  1  1
 12 13  1  0
 13 17  1  0
 14 13  2  0
 15 11  1  0
 16 15  2  0
 19 18  1  0
 19 21  1  0
 20 19  2  0
 22 21  1  0
 23 22  1  1
 23 24  1  0
 24 15  1  0
 25 26  1  0
 25 23  1  0
 27 25  2  0
M  END
$$$$
