QDQ.pdb
     RDKit          3D

 27 26  0  0  1  0  0  0  0  0999 V2000
   17.4831  -11.1061  -23.0520 N   0  0  0  0  0  0  0  0  0  0  0  0
   17.7261  -11.7384  -21.8151 C   0  0  0  0  0  0  0  0  0  0  0  0
   17.4493  -12.9505  -21.6861 O   0  0  0  0  0  0  0  0  0  0  0  0
   18.2980  -10.9998  -20.6766 C   0  0  0  0  0  0  0  0  0  0  0  0
   19.5780  -10.3318  -21.1054 C   0  0  0  0  0  0  0  0  0  0  0  0
   20.5791  -10.2519  -19.9697 C   0  0  2  0  0  0  0  0  0  0  0  0
   20.7645  -11.5526  -19.3573 N   0  0  0  0  0  0  0  0  0  0  0  0
   20.1919   -9.2915  -18.9382 C   0  0  0  0  0  0  0  0  0  0  0  0
   19.9998   -8.0823  -19.2229 O   0  0  0  0  0  0  0  0  0  0  0  0
   20.0073   -9.6537  -17.5561 N   0  0  0  0  0  0  0  0  0  0  0  0
   19.7712   -8.6462  -16.5417 C   0  0  1  0  0  0  0  0  0  0  0  0
   19.0867   -9.3324  -15.3819 C   0  0  0  0  0  0  0  0  0  0  0  0
   17.6596   -9.5351  -15.6795 C   0  0  0  0  0  0  0  0  0  0  0  0
   16.9705   -8.5049  -16.0041 O   0  0  0  0  0  0  0  0  0  0  0  0
   21.0521   -8.0971  -16.0170 C   0  0  0  0  0  0  0  0  0  0  0  0
   22.1727   -8.6056  -16.2750 O   0  0  0  0  0  0  0  0  0  0  0  0
   16.9683  -10.7156  -15.6494 O   0  0  0  0  0  0  0  0  0  0  0  0
   25.0294   -3.9103  -15.9443 N   0  0  0  0  0  0  0  0  0  0  0  0
   23.9424   -3.9708  -16.9055 C   0  0  0  0  0  0  0  0  0  0  0  0
   23.8519   -3.0603  -17.7522 O   0  0  0  0  0  0  0  0  0  0  0  0
   22.9836   -5.0810  -16.8652 C   0  0  0  0  0  0  0  0  0  0  0  0
   23.2031   -6.1020  -15.8334 C   0  0  0  0  0  0  0  0  0  0  0  0
   22.2408   -6.2527  -14.7256 C   0  0  2  0  0  0  0  0  0  0  0  0
   21.0304   -6.9496  -15.1871 N   0  0  0  0  0  0  0  0  0  0  0  0
   21.9759   -5.1429  -13.8372 C   0  0  0  0  0  0  0  0  0  0  0  0
   20.8034   -4.4573  -13.6893 O   0  0  0  0  0  0  0  0  0  0  0  0
   22.9561   -4.7571  -13.1025 O   0  0  0  0  0  0  0  0  0  0  0  0
  2  1  1  0
  3  2  2  0
  4  2  1  0
  5  4  1  0
  6  5  1  0
  6  7  1  1
  8  6  1  0
  8  9  2  0
 10 11  1  0
 10  8  1  0
 11 12  1  1
 12 13  1  0
 13 17  1  0
 14 13  2  0
 15 11  1  0
 16 15  2  0
 19 18  1  0
 19 21  1  0
 20 19  2  0
 22 21  1  0
 23 22  1  6
 23 24  1  0
 24 15  1  0
 25 26  1  0
 25 23  1  0
 27 25  2  0
M  END
$$$$
