QDQ.pdb
     RDKit          3D

 27 26  0  0  1  0  0  0  0  0999 V2000
   19.3771  -18.9035  -18.2074 N   0  0  0  0  0  0  0  0  0  0  0  0
   19.0770  -19.7974  -17.1587 C   0  0  0  0  0  0  0  0  0  0  0  0
   18.5491  -20.8978  -17.4289 O   0  0  0  0  0  0  0  0  0  0  0  0
   19.3728  -19.4597  -15.7562 C   0  0  0  0  0  0  0  0  0  0  0  0
   19.9262  -18.0607  -15.6841 C   0  0  0  0  0  0  0  0  0  0  0  0
   21.4134  -18.0280  -15.9765 C   0  0  2  0  0  0  0  0  0  0  0  0
   22.1424  -18.8341  -15.0174 N   0  0  0  0  0  0  0  0  0  0  0  0
   21.9627  -16.6735  -15.9742 C   0  0  0  0  0  0  0  0  0  0  0  0
   22.0512  -16.0157  -14.9067 O   0  0  0  0  0  0  0  0  0  0  0  0
   22.4303  -16.0126  -17.1659 N   0  0  0  0  0  0  0  0  0  0  0  0
   22.8755  -14.6340  -17.1335 C   0  0  1  0  0  0  0  0  0  0  0  0
   23.9519  -14.4878  -18.1845 C   0  0  0  0  0  0  0  0  0  0  0  0
   25.1859  -15.1606  -17.7477 C   0  0  0  0  0  0  0  0  0  0  0  0
   25.7125  -14.7739  -16.6456 O   0  0  0  0  0  0  0  0  0  0  0  0
   21.7777  -13.7026  -17.5143 C   0  0  0  0  0  0  0  0  0  0  0  0
   20.6753  -14.0944  -17.9749 O   0  0  0  0  0  0  0  0  0  0  0  0
   25.8504  -16.1686  -18.3918 O   0  0  0  0  0  0  0  0  0  0  0  0
   17.3387  -12.6837  -15.4859 N   0  0  0  0  0  0  0  0  0  0  0  0
   17.3657  -11.3169  -15.9764 C   0  0  0  0  0  0  0  0  0  0  0  0
   16.3778  -10.5902  -15.7532 O   0  0  0  0  0  0  0  0  0  0  0  0
   18.5329  -10.8218  -16.7153 C   0  0  0  0  0  0  0  0  0  0  0  0
   19.6602  -11.7507  -16.8627 C   0  0  0  0  0  0  0  0  0  0  0  0
   20.8923  -11.3157  -17.5473 C   0  0  2  0  0  0  0  0  0  0  0  0
   21.9625  -12.3070  -17.3588 N   0  0  0  0  0  0  0  0  0  0  0  0
   21.3377   -9.9442  -17.4399 C   0  0  0  0  0  0  0  0  0  0  0  0
   22.5727   -9.4977  -17.0631 O   0  0  0  0  0  0  0  0  0  0  0  0
   20.4722   -9.0415  -17.7324 O   0  0  0  0  0  0  0  0  0  0  0  0
  2  1  1  0
  3  2  2  0
  4  2  1  0
  5  4  1  0
  6  5  1  0
  6  7  1  1
  8  6  1  0
  8  9  2  0
 10 11  1  0
 10  8  1  0
 11 12  1  6
 12 13  1  0
 13 17  1  0
 14 13  2  0
 15 11  1  0
 16 15  2  0
 19 18  1  0
 19 21  1  0
 20 19  2  0
 22 21  1  0
 23 22  1  1
 23 24  1  0
 24 15  1  0
 25 26  1  0
 25 23  1  0
 27 25  2  0
M  END
$$$$
