DGC.pdb
     RDKit          3D

 19 18  0  0  1  0  0  0  0  0999 V2000
   19.2360  -12.8551  -16.2173 N   0  0  0  0  0  0  0  0  0  0  0  0
   18.2083  -11.8542  -16.5596 C   0  0  1  0  0  0  0  0  0  0  0  0
   16.9248  -12.4463  -16.0236 C   0  0  0  0  0  0  0  0  0  0  0  0
   16.3303  -13.4927  -16.8604 C   0  0  0  0  0  0  0  0  0  0  0  0
   15.0953  -13.7247  -16.8395 O   0  0  0  0  0  0  0  0  0  0  0  0
   18.5926  -10.6021  -15.8622 C   0  0  0  0  0  0  0  0  0  0  0  0
   17.9782   -9.5061  -16.0735 O   0  0  0  0  0  0  0  0  0  0  0  0
   17.1076  -14.2676  -17.7078 O   0  0  0  0  0  0  0  0  0  0  0  0
   19.6624  -10.5295  -14.9140 N   0  0  0  0  0  0  0  0  0  0  0  0
   19.9734   -9.3049  -14.2154 C   0  0  0  0  0  0  0  0  0  0  0  0
   20.7468   -8.3277  -14.9614 C   0  0  0  0  0  0  0  0  0  0  0  0
   21.4477   -8.7318  -15.9167 O   0  0  0  0  0  0  0  0  0  0  0  0
   20.7386   -6.9699  -14.6523 N   0  0  0  0  0  0  0  0  0  0  0  0
   21.5279   -5.9785  -15.3703 C   0  0  1  0  0  0  0  0  0  0  0  0
   20.6055   -4.9571  -16.0425 C   0  0  0  0  0  0  0  0  0  0  0  0
   21.6159   -3.5796  -16.6874 S   0  0  0  0  0  0  0  0  0  0  0  0
   22.3935   -5.2672  -14.4089 C   0  0  0  0  0  0  0  0  0  0  0  0
   23.5342   -4.8639  -14.7367 O   0  0  0  0  0  0  0  0  0  0  0  0
   21.9364   -5.0417  -13.1219 O   0  0  0  0  0  0  0  0  0  0  0  0
  2  3  1  0
  2  1  1  1
  3  4  1  0
  4  8  1  0
  4  5  2  0
  6  2  1  0
  7  6  2  0
  9  6  1  0
 10 11  1  0
 10  9  1  0
 11 12  2  0
 13 14  1  0
 13 11  1  0
 14 15  1  1
 16 15  1  0
 17 19  1  0
 17 14  1  0
 18 17  2  0
M  END
$$$$
