DGC.pdb
     RDKit          3D

 19 18  0  0  1  0  0  0  0  0999 V2000
   14.9832   -9.5467  -14.9470 N   0  0  0  0  0  0  0  0  0  0  0  0
   14.9678   -9.3184  -16.4039 C   0  0  1  0  0  0  0  0  0  0  0  0
   13.8047   -8.3764  -16.6167 C   0  0  0  0  0  0  0  0  0  0  0  0
   12.4806   -8.9798  -16.4402 C   0  0  0  0  0  0  0  0  0  0  0  0
   11.7433   -8.6688  -15.4711 O   0  0  0  0  0  0  0  0  0  0  0  0
   16.2721   -8.6989  -16.7459 C   0  0  0  0  0  0  0  0  0  0  0  0
   16.5888   -8.4349  -17.9515 O   0  0  0  0  0  0  0  0  0  0  0  0
   11.9896   -9.9177  -17.3360 O   0  0  0  0  0  0  0  0  0  0  0  0
   17.2572   -8.3545  -15.7663 N   0  0  0  0  0  0  0  0  0  0  0  0
   18.5019   -7.7219  -16.1338 C   0  0  0  0  0  0  0  0  0  0  0  0
   19.4064   -7.4175  -15.0390 C   0  0  0  0  0  0  0  0  0  0  0  0
   18.9660   -7.4905  -13.8694 O   0  0  0  0  0  0  0  0  0  0  0  0
   20.7334   -7.0473  -15.2427 N   0  0  0  0  0  0  0  0  0  0  0  0
   21.6808   -6.8275  -14.1585 C   0  0  1  0  0  0  0  0  0  0  0  0
   23.0093   -7.5231  -14.4707 C   0  0  0  0  0  0  0  0  0  0  0  0
   23.0979   -9.0834  -13.5264 S   0  0  0  0  0  0  0  0  0  0  0  0
   21.9301   -5.3783  -14.0264 C   0  0  0  0  0  0  0  0  0  0  0  0
   22.3636   -4.8886  -12.9570 O   0  0  0  0  0  0  0  0  0  0  0  0
   21.6803   -4.5457  -15.1037 O   0  0  0  0  0  0  0  0  0  0  0  0
  2  3  1  0
  2  1  1  1
  3  4  1  0
  4  8  1  0
  4  5  2  0
  6  2  1  0
  7  6  2  0
  9  6  1  0
 10 11  1  0
 10  9  1  0
 11 12  2  0
 13 14  1  0
 13 11  1  0
 14 15  1  6
 16 15  1  0
 17 19  1  0
 17 14  1  0
 18 17  2  0
M  END
$$$$
