DGC.pdb
     RDKit          3D

 19 18  0  0  1  0  0  0  0  0999 V2000
   19.0960   -8.0605  -13.5463 N   0  0  0  0  0  0  0  0  0  0  0  0
   17.9256   -8.9466  -13.4047 C   0  0  1  0  0  0  0  0  0  0  0  0
   18.4640  -10.3219  -13.7269 C   0  0  0  0  0  0  0  0  0  0  0  0
   18.4889  -10.6570  -15.1537 C   0  0  0  0  0  0  0  0  0  0  0  0
   18.7486  -11.8216  -15.5482 O   0  0  0  0  0  0  0  0  0  0  0  0
   17.4761   -8.8268  -11.9955 C   0  0  0  0  0  0  0  0  0  0  0  0
   16.4926   -9.5033  -11.5500 O   0  0  0  0  0  0  0  0  0  0  0  0
   18.2269   -9.7016  -16.1241 O   0  0  0  0  0  0  0  0  0  0  0  0
   18.1017   -7.9596  -11.0441 N   0  0  0  0  0  0  0  0  0  0  0  0
   17.5574   -7.7690   -9.7206 C   0  0  0  0  0  0  0  0  0  0  0  0
   16.3213   -7.0100   -9.6461 C   0  0  0  0  0  0  0  0  0  0  0  0
   15.9378   -6.4012  -10.6706 O   0  0  0  0  0  0  0  0  0  0  0  0
   15.5564   -6.9336   -8.4849 N   0  0  0  0  0  0  0  0  0  0  0  0
   14.2888   -6.2207   -8.4043 C   0  0  1  0  0  0  0  0  0  0  0  0
   13.2680   -7.0485   -7.6176 C   0  0  0  0  0  0  0  0  0  0  0  0
   13.1445   -8.7080   -8.3694 S   0  0  0  0  0  0  0  0  0  0  0  0
   14.5017   -4.9429   -7.6962 C   0  0  0  0  0  0  0  0  0  0  0  0
   15.5773   -4.7025   -7.0990 O   0  0  0  0  0  0  0  0  0  0  0  0
   13.4946   -3.9931   -7.6922 O   0  0  0  0  0  0  0  0  0  0  0  0
  2  3  1  0
  2  1  1  1
  3  4  1  0
  4  8  1  0
  4  5  2  0
  6  2  1  0
  7  6  2  0
  9  6  1  0
 10 11  1  0
 10  9  1  0
 11 12  2  0
 13 14  1  0
 13 11  1  0
 14 15  1  1
 16 15  1  0
 17 19  1  0
 17 14  1  0
 18 17  2  0
M  END
$$$$
