DGC.pdb
     RDKit          3D

 19 18  0  0  1  0  0  0  0  0999 V2000
   17.8426  -12.8348  -16.1426 N   0  0  0  0  0  0  0  0  0  0  0  0
   17.1804  -12.3263  -17.3582 C   0  0  1  0  0  0  0  0  0  0  0  0
   15.7093  -12.3424  -17.0102 C   0  0  0  0  0  0  0  0  0  0  0  0
   15.1151  -13.6778  -16.8997 C   0  0  0  0  0  0  0  0  0  0  0  0
   14.6706  -14.1081  -15.8058 O   0  0  0  0  0  0  0  0  0  0  0  0
   17.6990  -10.9531  -17.5761 C   0  0  0  0  0  0  0  0  0  0  0  0
   17.4840  -10.3243  -18.6632 O   0  0  0  0  0  0  0  0  0  0  0  0
   15.0202  -14.5186  -17.9983 O   0  0  0  0  0  0  0  0  0  0  0  0
   18.4653  -10.2405  -16.5996 N   0  0  0  0  0  0  0  0  0  0  0  0
   18.9638   -8.9093  -16.8522 C   0  0  0  0  0  0  0  0  0  0  0  0
   19.6391   -8.2631  -15.7406 C   0  0  0  0  0  0  0  0  0  0  0  0
   18.9852   -8.0481  -14.6948 O   0  0  0  0  0  0  0  0  0  0  0  0
   20.9753   -7.8747  -15.7975 N   0  0  0  0  0  0  0  0  0  0  0  0
   21.6959   -7.3098  -14.6648 C   0  0  1  0  0  0  0  0  0  0  0  0
   23.1560   -7.7720  -14.6859 C   0  0  0  0  0  0  0  0  0  0  0  0
   23.2027   -9.5945  -14.5833 S   0  0  0  0  0  0  0  0  0  0  0  0
   21.6687   -5.8371  -14.7657 C   0  0  0  0  0  0  0  0  0  0  0  0
   21.4178   -5.2649  -15.8524 O   0  0  0  0  0  0  0  0  0  0  0  0
   21.9253   -5.0748  -13.6390 O   0  0  0  0  0  0  0  0  0  0  0  0
  2  3  1  0
  2  1  1  1
  3  4  1  0
  4  8  1  0
  4  5  2  0
  6  2  1  0
  7  6  2  0
  9  6  1  0
 10 11  1  0
 10  9  1  0
 11 12  2  0
 13 14  1  0
 13 11  1  0
 14 15  1  6
 16 15  1  0
 17 19  1  0
 17 14  1  0
 18 17  2  0
M  END
$$$$
