DGC.pdb
     RDKit          3D

 19 18  0  0  1  0  0  0  0  0999 V2000
   15.4072  -12.7275  -17.9113 N   0  0  0  0  0  0  0  0  0  0  0  0
   16.5749  -13.1206  -17.1008 C   0  0  1  0  0  0  0  0  0  0  0  0
   16.9513  -14.4840  -17.6346 C   0  0  0  0  0  0  0  0  0  0  0  0
   15.9862  -15.5487  -17.3456 C   0  0  0  0  0  0  0  0  0  0  0  0
   14.9134  -15.3119  -16.7353 O   0  0  0  0  0  0  0  0  0  0  0  0
   17.6234  -12.1012  -17.3525 C   0  0  0  0  0  0  0  0  0  0  0  0
   17.8748  -11.6800  -18.5284 O   0  0  0  0  0  0  0  0  0  0  0  0
   16.2193  -16.8592  -17.7345 O   0  0  0  0  0  0  0  0  0  0  0  0
   18.4183  -11.5210  -16.3131 N   0  0  0  0  0  0  0  0  0  0  0  0
   19.4480  -10.5505  -16.5994 C   0  0  0  0  0  0  0  0  0  0  0  0
   19.4991   -9.3998  -15.7147 C   0  0  0  0  0  0  0  0  0  0  0  0
   18.4774   -9.1203  -15.0474 O   0  0  0  0  0  0  0  0  0  0  0  0
   20.6330   -8.6016  -15.5862 N   0  0  0  0  0  0  0  0  0  0  0  0
   20.7253   -7.4815  -14.6598 C   0  0  1  0  0  0  0  0  0  0  0  0
   22.1640   -7.3316  -14.1562 C   0  0  0  0  0  0  0  0  0  0  0  0
   22.6942   -8.9060  -13.3985 S   0  0  0  0  0  0  0  0  0  0  0  0
   20.3444   -6.2425  -15.3665 C   0  0  0  0  0  0  0  0  0  0  0  0
   20.2874   -6.1997  -16.6180 O   0  0  0  0  0  0  0  0  0  0  0  0
   20.0449   -5.1073  -14.6329 O   0  0  0  0  0  0  0  0  0  0  0  0
  2  3  1  0
  2  1  1  6
  3  4  1  0
  4  8  1  0
  4  5  2  0
  6  2  1  0
  7  6  2  0
  9  6  1  0
 10 11  1  0
 10  9  1  0
 11 12  2  0
 13 14  1  0
 13 11  1  0
 14 15  1  6
 16 15  1  0
 17 19  1  0
 17 14  1  0
 18 17  2  0
M  END
$$$$
