DGC.pdb
     RDKit          3D

 19 18  0  0  1  0  0  0  0  0999 V2000
   17.8309  -12.6898  -14.9345 N   0  0  0  0  0  0  0  0  0  0  0  0
   16.7293  -11.8096  -14.5024 C   0  0  1  0  0  0  0  0  0  0  0  0
   15.5632  -12.7506  -14.3020 C   0  0  0  0  0  0  0  0  0  0  0  0
   15.0468  -13.3645  -15.5288 C   0  0  0  0  0  0  0  0  0  0  0  0
   14.9069  -14.6094  -15.6292 O   0  0  0  0  0  0  0  0  0  0  0  0
   17.1715  -11.1734  -13.2369 C   0  0  0  0  0  0  0  0  0  0  0  0
   18.2075  -11.5769  -12.6146 O   0  0  0  0  0  0  0  0  0  0  0  0
   14.6923  -12.5953  -16.6269 O   0  0  0  0  0  0  0  0  0  0  0  0
   16.4826  -10.0760  -12.6287 N   0  0  0  0  0  0  0  0  0  0  0  0
   16.9821   -9.4364  -11.4347 C   0  0  0  0  0  0  0  0  0  0  0  0
   16.2854   -8.2307  -11.0219 C   0  0  0  0  0  0  0  0  0  0  0  0
   15.5773   -7.6374  -11.8668 O   0  0  0  0  0  0  0  0  0  0  0  0
   16.3792   -7.7140   -9.7320 N   0  0  0  0  0  0  0  0  0  0  0  0
   15.7134   -6.4903   -9.3072 C   0  0  1  0  0  0  0  0  0  0  0  0
   15.8435   -6.3190   -7.7907 C   0  0  0  0  0  0  0  0  0  0  0  0
   15.0266   -4.7623   -7.2974 S   0  0  0  0  0  0  0  0  0  0  0  0
   16.3608   -5.3388   -9.9664 C   0  0  0  0  0  0  0  0  0  0  0  0
   15.6861   -4.3785  -10.4066 O   0  0  0  0  0  0  0  0  0  0  0  0
   17.7385   -5.3200  -10.1006 O   0  0  0  0  0  0  0  0  0  0  0  0
  2  3  1  0
  2  1  1  1
  3  4  1  0
  4  8  1  0
  4  5  2  0
  6  2  1  0
  7  6  2  0
  9  6  1  0
 10 11  1  0
 10  9  1  0
 11 12  2  0
 13 14  1  0
 13 11  1  0
 14 15  1  1
 16 15  1  0
 17 19  1  0
 17 14  1  0
 18 17  2  0
M  END
$$$$
