DGC.pdb
     RDKit          3D

 19 18  0  0  1  0  0  0  0  0999 V2000
   18.4763  -12.1746  -15.6907 N   0  0  0  0  0  0  0  0  0  0  0  0
   18.3373  -11.6293  -17.0538 C   0  0  1  0  0  0  0  0  0  0  0  0
   16.9367  -12.0215  -17.4661 C   0  0  0  0  0  0  0  0  0  0  0  0
   16.8064  -13.3829  -17.9937 C   0  0  0  0  0  0  0  0  0  0  0  0
   17.8048  -14.1364  -18.1149 O   0  0  0  0  0  0  0  0  0  0  0  0
   18.5061  -10.1596  -16.9377 C   0  0  0  0  0  0  0  0  0  0  0  0
   18.9471   -9.4607  -17.9074 O   0  0  0  0  0  0  0  0  0  0  0  0
   15.5758  -13.8926  -18.3797 O   0  0  0  0  0  0  0  0  0  0  0  0
   18.1908   -9.4258  -15.7499 N   0  0  0  0  0  0  0  0  0  0  0  0
   18.4025   -8.0004  -15.6617 C   0  0  0  0  0  0  0  0  0  0  0  0
   19.4282   -7.5677  -14.7289 C   0  0  0  0  0  0  0  0  0  0  0  0
   19.2873   -7.8554  -13.5187 O   0  0  0  0  0  0  0  0  0  0  0  0
   20.5511   -6.8477  -15.1291 N   0  0  0  0  0  0  0  0  0  0  0  0
   21.6469   -6.5058  -14.2325 C   0  0  1  0  0  0  0  0  0  0  0  0
   22.9746   -7.0078  -14.8081 C   0  0  0  0  0  0  0  0  0  0  0  0
   23.0083   -8.8313  -14.7182 S   0  0  0  0  0  0  0  0  0  0  0  0
   21.7182   -5.0371  -14.1013 C   0  0  0  0  0  0  0  0  0  0  0  0
   21.2346   -4.2823  -14.9774 O   0  0  0  0  0  0  0  0  0  0  0  0
   22.3307   -4.4839  -12.9898 O   0  0  0  0  0  0  0  0  0  0  0  0
  2  3  1  0
  2  1  1  1
  3  4  1  0
  4  8  1  0
  4  5  2  0
  6  2  1  0
  7  6  2  0
  9  6  1  0
 10 11  1  0
 10  9  1  0
 11 12  2  0
 13 14  1  0
 13 11  1  0
 14 15  1  6
 16 15  1  0
 17 19  1  0
 17 14  1  0
 18 17  2  0
M  END
$$$$
