DGC.pdb
     RDKit          3D

 19 18  0  0  1  0  0  0  0  0999 V2000
   19.0047  -10.5588  -16.5111 N   0  0  0  0  0  0  0  0  0  0  0  0
   18.2071  -10.0214  -17.6291 C   0  0  1  0  0  0  0  0  0  0  0  0
   16.9982  -10.9272  -17.6877 C   0  0  0  0  0  0  0  0  0  0  0  0
   17.2572  -12.2700  -18.2154 C   0  0  0  0  0  0  0  0  0  0  0  0
   16.6937  -12.6826  -19.2602 O   0  0  0  0  0  0  0  0  0  0  0  0
   17.8564   -8.6268  -17.2629 C   0  0  0  0  0  0  0  0  0  0  0  0
   17.2210   -7.8670  -18.0643 O   0  0  0  0  0  0  0  0  0  0  0  0
   18.1342  -13.1375  -17.5822 O   0  0  0  0  0  0  0  0  0  0  0  0
   18.1968   -8.0378  -16.0035 N   0  0  0  0  0  0  0  0  0  0  0  0
   17.8961   -6.6572  -15.7071 C   0  0  0  0  0  0  0  0  0  0  0  0
   18.7681   -6.0109  -14.7421 C   0  0  0  0  0  0  0  0  0  0  0  0
   18.5071   -4.8343  -14.4034 O   0  0  0  0  0  0  0  0  0  0  0  0
   19.8761   -6.6469  -14.1877 N   0  0  0  0  0  0  0  0  0  0  0  0
   20.7270   -6.0386  -13.1742 C   0  0  1  0  0  0  0  0  0  0  0  0
   21.3982   -7.1252  -12.3287 C   0  0  0  0  0  0  0  0  0  0  0  0
   20.1064   -8.1711  -11.5728 S   0  0  0  0  0  0  0  0  0  0  0  0
   21.7792   -5.2482  -13.8432 C   0  0  0  0  0  0  0  0  0  0  0  0
   22.5779   -4.5409  -13.1850 O   0  0  0  0  0  0  0  0  0  0  0  0
   21.8853   -5.2895  -15.2228 O   0  0  0  0  0  0  0  0  0  0  0  0
  2  3  1  0
  2  1  1  1
  3  4  1  0
  4  8  1  0
  4  5  2  0
  6  2  1  0
  7  6  2  0
  9  6  1  0
 10 11  1  0
 10  9  1  0
 11 12  2  0
 13 14  1  0
 13 11  1  0
 14 15  1  6
 16 15  1  0
 17 19  1  0
 17 14  1  0
 18 17  2  0
M  END
$$$$
