DGC.pdb
     RDKit          3D

 19 18  0  0  1  0  0  0  0  0999 V2000
   18.1667  -15.5463  -16.9537 N   0  0  0  0  0  0  0  0  0  0  0  0
   17.6402  -14.1726  -16.8499 C   0  0  1  0  0  0  0  0  0  0  0  0
   16.9212  -14.1534  -15.5202 C   0  0  0  0  0  0  0  0  0  0  0  0
   15.8426  -15.1370  -15.3868 C   0  0  0  0  0  0  0  0  0  0  0  0
   14.8369  -15.1119  -16.1402 O   0  0  0  0  0  0  0  0  0  0  0  0
   18.8169  -13.2688  -16.8740 C   0  0  0  0  0  0  0  0  0  0  0  0
   19.9685  -13.6638  -16.4981 O   0  0  0  0  0  0  0  0  0  0  0  0
   15.8898  -16.1338  -14.4240 O   0  0  0  0  0  0  0  0  0  0  0  0
   18.7516  -11.9086  -17.3148 N   0  0  0  0  0  0  0  0  0  0  0  0
   19.9276  -11.0729  -17.3693 C   0  0  0  0  0  0  0  0  0  0  0  0
   20.3091  -10.4322  -16.1229 C   0  0  0  0  0  0  0  0  0  0  0  0
   19.4818  -10.4257  -15.1832 O   0  0  0  0  0  0  0  0  0  0  0  0
   21.5501   -9.8276  -15.9389 N   0  0  0  0  0  0  0  0  0  0  0  0
   21.9259   -9.1205  -14.7223 C   0  0  1  0  0  0  0  0  0  0  0  0
   23.4372   -8.8719  -14.7030 C   0  0  0  0  0  0  0  0  0  0  0  0
   24.3028  -10.4796  -14.7120 S   0  0  0  0  0  0  0  0  0  0  0  0
   21.2357   -7.8157  -14.6936 C   0  0  0  0  0  0  0  0  0  0  0  0
   20.7449   -7.3175  -15.7338 O   0  0  0  0  0  0  0  0  0  0  0  0
   21.1291   -7.1304  -13.4956 O   0  0  0  0  0  0  0  0  0  0  0  0
  2  3  1  0
  2  1  1  1
  3  4  1  0
  4  8  1  0
  4  5  2  0
  6  2  1  0
  7  6  2  0
  9  6  1  0
 10 11  1  0
 10  9  1  0
 11 12  2  0
 13 14  1  0
 13 11  1  0
 14 15  1  6
 16 15  1  0
 17 19  1  0
 17 14  1  0
 18 17  2  0
M  END
$$$$
