DGC.pdb
     RDKit          3D

 19 18  0  0  1  0  0  0  0  0999 V2000
   26.3364  -21.2269  -17.9764 N   0  0  0  0  0  0  0  0  0  0  0  0
   27.4060  -22.0518  -17.3845 C   0  0  1  0  0  0  0  0  0  0  0  0
   28.6228  -21.7341  -18.2234 C   0  0  0  0  0  0  0  0  0  0  0  0
   28.6835  -22.4296  -19.5123 C   0  0  0  0  0  0  0  0  0  0  0  0
   27.7188  -23.1178  -19.9308 O   0  0  0  0  0  0  0  0  0  0  0  0
   27.5519  -21.6041  -15.9773 C   0  0  0  0  0  0  0  0  0  0  0  0
   28.1756  -22.3059  -15.1159 O   0  0  0  0  0  0  0  0  0  0  0  0
   29.8081  -22.3553  -20.3203 O   0  0  0  0  0  0  0  0  0  0  0  0
   27.0149  -20.3711  -15.4873 N   0  0  0  0  0  0  0  0  0  0  0  0
   27.1717  -19.9715  -14.1089 C   0  0  0  0  0  0  0  0  0  0  0  0
   26.3205  -20.6534  -13.1498 C   0  0  0  0  0  0  0  0  0  0  0  0
   25.4450  -21.4348  -13.5859 O   0  0  0  0  0  0  0  0  0  0  0  0
   26.4405  -20.4678  -11.7748 N   0  0  0  0  0  0  0  0  0  0  0  0
   25.5187  -21.0415  -10.8040 C   0  0  1  0  0  0  0  0  0  0  0  0
   25.8589  -20.5431   -9.3962 C   0  0  0  0  0  0  0  0  0  0  0  0
   24.6760  -21.2674   -8.2086 S   0  0  0  0  0  0  0  0  0  0  0  0
   24.1456  -20.6114  -11.1345 C   0  0  0  0  0  0  0  0  0  0  0  0
   23.9127  -19.4591  -11.5694 O   0  0  0  0  0  0  0  0  0  0  0  0
   23.0964  -21.4977  -10.9607 O   0  0  0  0  0  0  0  0  0  0  0  0
  2  3  1  0
  2  1  1  6
  3  4  1  0
  4  8  1  0
  4  5  2  0
  6  2  1  0
  7  6  2  0
  9  6  1  0
 10 11  1  0
 10  9  1  0
 11 12  2  0
 13 14  1  0
 13 11  1  0
 14 15  1  1
 16 15  1  0
 17 19  1  0
 17 14  1  0
 18 17  2  0
M  END
$$$$
