PSF.pdb
     RDKit          3D

 25 26  0  0  1  0  0  0  0  0999 V2000
   26.7024  -18.5549  -16.1298 N   0  0  0  0  0  0  0  0  0  0  0  0
   26.7670  -17.1366  -15.9434 C   0  0  0  0  0  0  0  0  0  0  0  0
   28.2738  -16.9455  -15.7140 C   0  0  0  0  0  0  0  0  0  0  0  0
   28.5063  -18.0838  -14.7104 C   0  0  0  0  0  0  0  0  0  0  0  0
   27.4136  -19.0866  -15.0139 C   0  0  1  0  0  0  0  0  0  0  0  0
   26.5740  -19.2797  -13.8154 C   0  0  0  0  0  0  0  0  0  0  0  0
   25.8425  -18.3244  -13.4307 O   0  0  0  0  0  0  0  0  0  0  0  0
   25.5494  -22.9341  -12.5414 O   0  0  0  0  0  0  0  0  0  0  0  0
   24.7591  -21.8803  -12.1016 C   0  0  0  0  0  0  0  0  0  0  0  0
   25.5923  -20.6236  -11.9364 C   0  0  2  0  0  0  0  0  0  0  0  0
   26.5187  -20.4705  -13.0449 N   0  0  0  0  0  0  0  0  0  0  0  0
   26.3987  -20.7136  -10.6900 C   0  0  0  0  0  0  0  0  0  0  0  0
   27.5661  -21.2243  -10.7465 O   0  0  0  0  0  0  0  0  0  0  0  0
   25.9430  -20.2622   -9.4390 N   0  0  0  0  0  0  0  0  0  0  0  0
   26.7058  -20.5616   -8.2382 C   0  0  1  0  0  0  0  0  0  0  0  0
   27.5624  -19.3725   -7.8880 C   0  0  0  0  0  0  0  0  0  0  0  0
   28.1120  -19.5292   -6.5249 C   0  0  0  0  0  0  0  0  0  0  0  0
   29.0628  -20.4999   -6.2891 C   0  0  0  0  0  0  0  0  0  0  0  0
   29.5892  -20.6412   -5.0190 C   0  0  0  0  0  0  0  0  0  0  0  0
   29.1929  -19.8395   -3.9750 C   0  0  0  0  0  0  0  0  0  0  0  0
   28.2457  -18.8727   -4.2111 C   0  0  0  0  0  0  0  0  0  0  0  0
   27.7159  -18.7302   -5.4889 C   0  0  0  0  0  0  0  0  0  0  0  0
   25.7917  -20.9852   -7.1532 C   0  0  0  0  0  0  0  0  0  0  0  0
   24.4168  -20.6701   -7.2095 O   0  0  0  0  0  0  0  0  0  0  0  0
   26.1430  -21.6317   -6.1356 O   0  0  0  0  0  0  0  0  0  0  0  0
  1  2  1  0
  3  2  1  0
  4  3  1  0
  5  4  1  0
  5  6  1  1
  5  1  1  0
  6  7  2  0
  9  8  1  0
 10  9  1  6
 10 12  1  0
 11 10  1  0
 11  6  1  0
 12 14  1  0
 13 12  2  0
 14 15  1  0
 15 16  1  1
 16 17  1  0
 17 22  1  0
 17 18  2  0
 18 19  1  0
 19 20  2  0
 21 20  1  0
 22 21  2  0
 23 24  1  0
 23 15  1  0
 25 23  2  0
M  END
$$$$
