PSF.pdb
     RDKit          3D

 25 26  0  0  1  0  0  0  0  0999 V2000
   20.5826  -13.0068  -16.1624 N   0  0  0  0  0  0  0  0  0  0  0  0
   19.2865  -13.5219  -16.4866 C   0  0  0  0  0  0  0  0  0  0  0  0
   19.5264  -14.0220  -17.9191 C   0  0  0  0  0  0  0  0  0  0  0  0
   20.2691  -12.7989  -18.4751 C   0  0  0  0  0  0  0  0  0  0  0  0
   20.9056  -12.1568  -17.2609 C   0  0  1  0  0  0  0  0  0  0  0  0
   20.4007  -10.7781  -17.1098 C   0  0  0  0  0  0  0  0  0  0  0  0
   20.5512   -9.9715  -18.0704 O   0  0  0  0  0  0  0  0  0  0  0  0
   18.8600   -9.2807  -13.5495 O   0  0  0  0  0  0  0  0  0  0  0  0
   18.3522   -8.7033  -14.7059 C   0  0  0  0  0  0  0  0  0  0  0  0
   19.3176   -8.8892  -15.8611 C   0  0  2  0  0  0  0  0  0  0  0  0
   19.7485  -10.2733  -15.9546 N   0  0  0  0  0  0  0  0  0  0  0  0
   20.5312   -8.0577  -15.6428 C   0  0  0  0  0  0  0  0  0  0  0  0
   21.5257   -8.5679  -15.0285 O   0  0  0  0  0  0  0  0  0  0  0  0
   20.6464   -6.7266  -16.0802 N   0  0  0  0  0  0  0  0  0  0  0  0
   21.8813   -5.9935  -15.8544 C   0  0  1  0  0  0  0  0  0  0  0  0
   22.5837   -5.7915  -17.1721 C   0  0  0  0  0  0  0  0  0  0  0  0
   23.7166   -4.8573  -17.0032 C   0  0  0  0  0  0  0  0  0  0  0  0
   23.6003   -3.5654  -17.4714 C   0  0  0  0  0  0  0  0  0  0  0  0
   24.6521   -2.6845  -17.3039 C   0  0  0  0  0  0  0  0  0  0  0  0
   25.8195   -3.0571  -16.6809 C   0  0  0  0  0  0  0  0  0  0  0  0
   25.9341   -4.3444  -16.2147 C   0  0  0  0  0  0  0  0  0  0  0  0
   24.8761   -5.2309  -16.3831 C   0  0  0  0  0  0  0  0  0  0  0  0
   21.5950   -4.7365  -15.1262 C   0  0  0  0  0  0  0  0  0  0  0  0
   20.4027   -4.0214  -15.3706 O   0  0  0  0  0  0  0  0  0  0  0  0
   22.3524   -4.2206  -14.2676 O   0  0  0  0  0  0  0  0  0  0  0  0
  1  2  1  0
  3  2  1  0
  4  3  1  0
  5  4  1  0
  5  6  1  1
  5  1  1  0
  6  7  2  0
  9  8  1  0
 10  9  1  1
 10 12  1  0
 11 10  1  0
 11  6  1  0
 12 14  1  0
 13 12  2  0
 14 15  1  0
 15 16  1  6
 16 17  1  0
 17 22  1  0
 17 18  2  0
 18 19  1  0
 19 20  2  0
 21 20  1  0
 22 21  2  0
 23 24  1  0
 23 15  1  0
 25 23  2  0
M  END
$$$$
