PSF.pdb
     RDKit          3D

 25 26  0  0  1  0  0  0  0  0999 V2000
   28.3257  -17.8459  -14.6290 N   0  0  0  0  0  0  0  0  0  0  0  0
   27.8930  -18.3561  -15.8951 C   0  0  0  0  0  0  0  0  0  0  0  0
   27.1268  -17.1441  -16.4463 C   0  0  0  0  0  0  0  0  0  0  0  0
   26.3114  -16.7907  -15.1945 C   0  0  0  0  0  0  0  0  0  0  0  0
   27.1388  -17.3172  -14.0412 C   0  0  1  0  0  0  0  0  0  0  0  0
   26.3563  -18.3169  -13.2882 C   0  0  0  0  0  0  0  0  0  0  0  0
   25.1906  -18.0106  -12.9097 O   0  0  0  0  0  0  0  0  0  0  0  0
   27.2991  -22.2985  -13.1590 O   0  0  0  0  0  0  0  0  0  0  0  0
   25.9987  -21.9201  -12.8519 C   0  0  0  0  0  0  0  0  0  0  0  0
   25.9831  -20.5492  -12.2028 C   0  0  2  0  0  0  0  0  0  0  0  0
   26.8121  -19.6173  -12.9475 N   0  0  0  0  0  0  0  0  0  0  0  0
   26.5373  -20.6372  -10.8254 C   0  0  0  0  0  0  0  0  0  0  0  0
   27.7998  -20.5585  -10.6627 O   0  0  0  0  0  0  0  0  0  0  0  0
   25.7400  -20.8034   -9.6795 N   0  0  0  0  0  0  0  0  0  0  0  0
   26.3640  -20.9030   -8.3702 C   0  0  1  0  0  0  0  0  0  0  0  0
   27.1399  -19.6410   -8.0956 C   0  0  0  0  0  0  0  0  0  0  0  0
   27.6659  -19.6612   -6.7145 C   0  0  0  0  0  0  0  0  0  0  0  0
   29.0264  -19.7629   -6.5130 C   0  0  0  0  0  0  0  0  0  0  0  0
   29.5238  -19.7688   -5.2235 C   0  0  0  0  0  0  0  0  0  0  0  0
   28.7002  -19.6759   -4.1267 C   0  0  0  0  0  0  0  0  0  0  0  0
   27.3451  -19.5745   -4.3287 C   0  0  0  0  0  0  0  0  0  0  0  0
   26.8443  -19.5684   -5.6260 C   0  0  0  0  0  0  0  0  0  0  0  0
   25.3404  -21.2148   -7.3468 C   0  0  0  0  0  0  0  0  0  0  0  0
   25.6334  -22.0975   -6.2847 O   0  0  0  0  0  0  0  0  0  0  0  0
   24.1766  -20.7435   -7.3344 O   0  0  0  0  0  0  0  0  0  0  0  0
  1  2  1  0
  3  2  1  0
  4  3  1  0
  5  4  1  0
  5  6  1  6
  5  1  1  0
  6  7  2  0
  9  8  1  0
 10  9  1  6
 10 12  1  0
 11 10  1  0
 11  6  1  0
 12 14  1  0
 13 12  2  0
 14 15  1  0
 15 16  1  1
 16 17  1  0
 17 22  1  0
 17 18  2  0
 18 19  1  0
 19 20  2  0
 21 20  1  0
 22 21  2  0
 23 24  1  0
 23 15  1  0
 25 23  2  0
M  END
$$$$
