PSF.pdb
     RDKit          3D

 25 26  0  0  1  0  0  0  0  0999 V2000
   25.1974  -12.5588  -20.4147 N   0  0  0  0  0  0  0  0  0  0  0  0
   25.1146  -12.4867  -21.8424 C   0  0  0  0  0  0  0  0  0  0  0  0
   26.5959  -12.3070  -22.2072 C   0  0  0  0  0  0  0  0  0  0  0  0
   26.9613  -11.2220  -21.1844 C   0  0  0  0  0  0  0  0  0  0  0  0
   25.9764  -11.4206  -20.0520 C   0  0  1  0  0  0  0  0  0  0  0  0
   25.1788  -10.1920  -19.8704 C   0  0  0  0  0  0  0  0  0  0  0  0
   25.7762   -9.1267  -19.5478 O   0  0  0  0  0  0  0  0  0  0  0  0
   21.0165   -9.9975  -20.3458 O   0  0  0  0  0  0  0  0  0  0  0  0
   21.7640   -8.8822  -20.7004 C   0  0  0  0  0  0  0  0  0  0  0  0
   23.0631   -8.8422  -19.9183 C   0  0  2  0  0  0  0  0  0  0  0  0
   23.7711  -10.1057  -20.0306 N   0  0  0  0  0  0  0  0  0  0  0  0
   22.7767   -8.6176  -18.4763 C   0  0  0  0  0  0  0  0  0  0  0  0
   22.2264   -9.5516  -17.8043 O   0  0  0  0  0  0  0  0  0  0  0  0
   23.0818   -7.4214  -17.8037 N   0  0  0  0  0  0  0  0  0  0  0  0
   22.7256   -7.2661  -16.4028 C   0  0  1  0  0  0  0  0  0  0  0  0
   23.9781   -7.0375  -15.5971 C   0  0  0  0  0  0  0  0  0  0  0  0
   24.8002   -8.2658  -15.5809 C   0  0  0  0  0  0  0  0  0  0  0  0
   25.8742   -8.3693  -16.4397 C   0  0  0  0  0  0  0  0  0  0  0  0
   26.6536   -9.5105  -16.4187 C   0  0  0  0  0  0  0  0  0  0  0  0
   26.3910  -10.5539  -15.5630 C   0  0  0  0  0  0  0  0  0  0  0  0
   25.3208  -10.4496  -14.7078 C   0  0  0  0  0  0  0  0  0  0  0  0
   24.5365   -9.3015  -14.7287 C   0  0  0  0  0  0  0  0  0  0  0  0
   21.7122   -6.1966  -16.2562 C   0  0  0  0  0  0  0  0  0  0  0  0
   21.2714   -5.4668  -17.3813 O   0  0  0  0  0  0  0  0  0  0  0  0
   21.1810   -5.8606  -15.1691 O   0  0  0  0  0  0  0  0  0  0  0  0
  1  2  1  0
  3  2  1  0
  4  3  1  0
  5  4  1  0
  5  6  1  6
  5  1  1  0
  6  7  2  0
  9  8  1  0
 10  9  1  6
 10 12  1  0
 11 10  1  0
 11  6  1  0
 12 14  1  0
 13 12  2  0
 14 15  1  0
 15 16  1  1
 16 17  1  0
 17 22  1  0
 17 18  2  0
 18 19  1  0
 19 20  2  0
 21 20  1  0
 22 21  2  0
 23 24  1  0
 23 15  1  0
 25 23  2  0
M  END
$$$$
