PSF.pdb
     RDKit          3D

 25 26  0  0  1  0  0  0  0  0999 V2000
   27.5329  -21.6770  -15.3662 N   0  0  0  0  0  0  0  0  0  0  0  0
   26.4869  -21.4590  -16.3195 C   0  0  0  0  0  0  0  0  0  0  0  0
   27.1327  -20.3909  -17.2150 C   0  0  0  0  0  0  0  0  0  0  0  0
   27.6785  -19.4633  -16.1203 C   0  0  0  0  0  0  0  0  0  0  0  0
   27.8799  -20.3668  -14.9225 C   0  0  1  0  0  0  0  0  0  0  0  0
   27.0545  -19.8860  -13.7972 C   0  0  0  0  0  0  0  0  0  0  0  0
   26.9969  -18.6431  -13.5788 O   0  0  0  0  0  0  0  0  0  0  0  0
   24.1074  -22.1195  -12.1419 O   0  0  0  0  0  0  0  0  0  0  0  0
   24.0592  -20.7431  -11.9636 C   0  0  0  0  0  0  0  0  0  0  0  0
   25.4604  -20.1684  -11.8790 C   0  0  2  0  0  0  0  0  0  0  0  0
   26.3066  -20.7184  -12.9239 N   0  0  0  0  0  0  0  0  0  0  0  0
   26.0743  -20.5270  -10.5726 C   0  0  0  0  0  0  0  0  0  0  0  0
   26.5959  -21.6824  -10.4330 O   0  0  0  0  0  0  0  0  0  0  0  0
   26.1134  -19.6550   -9.4706 N   0  0  0  0  0  0  0  0  0  0  0  0
   26.6829  -20.1041   -8.2106 C   0  0  1  0  0  0  0  0  0  0  0  0
   27.1242  -18.9045   -7.4127 C   0  0  0  0  0  0  0  0  0  0  0  0
   27.9180  -19.3388   -6.2439 C   0  0  0  0  0  0  0  0  0  0  0  0
   29.1075  -18.7003   -5.9625 C   0  0  0  0  0  0  0  0  0  0  0  0
   29.8466  -19.0942   -4.8630 C   0  0  0  0  0  0  0  0  0  0  0  0
   29.4314  -20.1095   -4.0344 C   0  0  0  0  0  0  0  0  0  0  0  0
   28.2461  -20.7447   -4.3158 C   0  0  0  0  0  0  0  0  0  0  0  0
   27.5023  -20.3486   -5.4218 C   0  0  0  0  0  0  0  0  0  0  0  0
   25.7169  -20.9751   -7.5031 C   0  0  0  0  0  0  0  0  0  0  0  0
   26.1689  -22.0541   -6.7129 O   0  0  0  0  0  0  0  0  0  0  0  0
   24.4694  -20.8369   -7.5423 O   0  0  0  0  0  0  0  0  0  0  0  0
  1  2  1  0
  3  2  1  0
  4  3  1  0
  5  4  1  0
  5  6  1  1
  5  1  1  0
  6  7  2  0
  9  8  1  0
 10  9  1  1
 10 12  1  0
 11 10  1  0
 11  6  1  0
 12 14  1  0
 13 12  2  0
 14 15  1  0
 15 16  1  1
 16 17  1  0
 17 22  1  0
 17 18  2  0
 18 19  1  0
 19 20  2  0
 21 20  1  0
 22 21  2  0
 23 24  1  0
 23 15  1  0
 25 23  2  0
M  END
$$$$
