PSF.pdb
     RDKit          3D

 25 26  0  0  1  0  0  0  0  0999 V2000
   22.8262  -19.1992  -14.7892 N   0  0  0  0  0  0  0  0  0  0  0  0
   22.7066  -20.2413  -15.7640 C   0  0  0  0  0  0  0  0  0  0  0  0
   21.1809  -20.4116  -15.8165 C   0  0  0  0  0  0  0  0  0  0  0  0
   20.8936  -20.4339  -14.3086 C   0  0  0  0  0  0  0  0  0  0  0  0
   22.0356  -19.6539  -13.6929 C   0  0  1  0  0  0  0  0  0  0  0  0
   22.7730  -20.5189  -12.7512 C   0  0  0  0  0  0  0  0  0  0  0  0
   22.2911  -21.6519  -12.4684 O   0  0  0  0  0  0  0  0  0  0  0  0
   27.0415  -22.0352  -12.4155 O   0  0  0  0  0  0  0  0  0  0  0  0
   25.7501  -21.7333  -12.8274 C   0  0  0  0  0  0  0  0  0  0  0  0
   24.9351  -21.1919  -11.6683 C   0  0  2  0  0  0  0  0  0  0  0  0
   24.0005  -20.1780  -12.1252 N   0  0  0  0  0  0  0  0  0  0  0  0
   25.8367  -20.5521  -10.6735 C   0  0  0  0  0  0  0  0  0  0  0  0
   26.2865  -19.3826  -10.9116 O   0  0  0  0  0  0  0  0  0  0  0  0
   26.2253  -21.1694   -9.4717 N   0  0  0  0  0  0  0  0  0  0  0  0
   27.0852  -20.4610   -8.5377 C   0  0  1  0  0  0  0  0  0  0  0  0
   26.6182  -20.7346   -7.1315 C   0  0  0  0  0  0  0  0  0  0  0  0
   27.4441  -19.9769   -6.1679 C   0  0  0  0  0  0  0  0  0  0  0  0
   28.3038  -20.6603   -5.3338 C   0  0  0  0  0  0  0  0  0  0  0  0
   29.0878  -19.9550   -4.4404 C   0  0  0  0  0  0  0  0  0  0  0  0
   29.0382  -18.5837   -4.3555 C   0  0  0  0  0  0  0  0  0  0  0  0
   28.1814  -17.9041   -5.1871 C   0  0  0  0  0  0  0  0  0  0  0  0
   27.3926  -18.6134   -6.0862 C   0  0  0  0  0  0  0  0  0  0  0  0
   28.5002  -20.8215   -8.7827 C   0  0  0  0  0  0  0  0  0  0  0  0
   28.8578  -22.1504   -9.0972 O   0  0  0  0  0  0  0  0  0  0  0  0
   29.4611  -20.0146   -8.7345 O   0  0  0  0  0  0  0  0  0  0  0  0
  1  2  1  0
  3  2  1  0
  4  3  1  0
  5  4  1  0
  5  6  1  1
  5  1  1  0
  6  7  2  0
  9  8  1  0
 10  9  1  6
 10 12  1  0
 11 10  1  0
 11  6  1  0
 12 14  1  0
 13 12  2  0
 14 15  1  0
 15 16  1  1
 16 17  1  0
 17 22  1  0
 17 18  2  0
 18 19  1  0
 19 20  2  0
 21 20  1  0
 22 21  2  0
 23 24  1  0
 23 15  1  0
 25 23  2  0
M  END
$$$$
