PSF.pdb
     RDKit          3D

 25 26  0  0  1  0  0  0  0  0999 V2000
   21.4844  -13.1223  -18.0865 N   0  0  0  0  0  0  0  0  0  0  0  0
   20.1773  -13.7069  -18.0978 C   0  0  0  0  0  0  0  0  0  0  0  0
   20.0836  -14.1723  -19.5587 C   0  0  0  0  0  0  0  0  0  0  0  0
   20.6012  -12.9006  -20.2455 C   0  0  0  0  0  0  0  0  0  0  0  0
   21.4821  -12.2397  -19.2067 C   0  0  1  0  0  0  0  0  0  0  0  0
   20.9579  -10.8948  -18.8984 C   0  0  0  0  0  0  0  0  0  0  0  0
   20.9414  -10.0282  -19.8174 O   0  0  0  0  0  0  0  0  0  0  0  0
   18.3648   -9.6814  -15.7185 O   0  0  0  0  0  0  0  0  0  0  0  0
   18.5094   -9.1605  -16.9976 C   0  0  0  0  0  0  0  0  0  0  0  0
   19.9715   -9.1386  -17.4007 C   0  0  2  0  0  0  0  0  0  0  0  0
   20.4620  -10.4861  -17.6328 N   0  0  0  0  0  0  0  0  0  0  0  0
   20.7875   -8.5489  -16.3060 C   0  0  0  0  0  0  0  0  0  0  0  0
   21.2302   -9.3138  -15.3864 O   0  0  0  0  0  0  0  0  0  0  0  0
   21.1029   -7.1812  -16.2263 N   0  0  0  0  0  0  0  0  0  0  0  0
   21.9129   -6.6869  -15.1249 C   0  0  1  0  0  0  0  0  0  0  0  0
   23.3355   -6.5218  -15.5934 C   0  0  0  0  0  0  0  0  0  0  0  0
   23.3944   -5.5364  -16.6935 C   0  0  0  0  0  0  0  0  0  0  0  0
   23.3339   -5.9787  -17.9983 C   0  0  0  0  0  0  0  0  0  0  0  0
   23.3753   -5.0599  -19.0299 C   0  0  0  0  0  0  0  0  0  0  0  0
   23.4756   -3.7089  -18.7960 C   0  0  0  0  0  0  0  0  0  0  0  0
   23.5357   -3.2695  -17.4956 C   0  0  0  0  0  0  0  0  0  0  0  0
   23.4940   -4.1937  -16.4575 C   0  0  0  0  0  0  0  0  0  0  0  0
   21.3135   -5.4502  -14.5741 C   0  0  0  0  0  0  0  0  0  0  0  0
   20.1406   -4.9070  -15.1416 O   0  0  0  0  0  0  0  0  0  0  0  0
   21.7743   -4.8062  -13.5995 O   0  0  0  0  0  0  0  0  0  0  0  0
  1  2  1  0
  3  2  1  0
  4  3  1  0
  5  4  1  0
  5  6  1  1
  5  1  1  0
  6  7  2  0
  9  8  1  0
 10  9  1  1
 10 12  1  0
 11 10  1  0
 11  6  1  0
 12 14  1  0
 13 12  2  0
 14 15  1  0
 15 16  1  6
 16 17  1  0
 17 22  1  0
 17 18  2  0
 18 19  1  0
 19 20  2  0
 21 20  1  0
 22 21  2  0
 23 24  1  0
 23 15  1  0
 25 23  2  0
M  END
$$$$
