PSF.pdb
     RDKit          3D

 25 26  0  0  1  0  0  0  0  0999 V2000
   21.0037  -11.9448  -16.9768 N   0  0  0  0  0  0  0  0  0  0  0  0
   19.7932  -12.4865  -17.5167 C   0  0  0  0  0  0  0  0  0  0  0  0
   20.0778  -12.3805  -19.0225 C   0  0  0  0  0  0  0  0  0  0  0  0
   20.6186  -10.9441  -19.0602 C   0  0  0  0  0  0  0  0  0  0  0  0
   21.1751  -10.7113  -17.6718 C   0  0  1  0  0  0  0  0  0  0  0  0
   20.4728   -9.5759  -17.0425 C   0  0  0  0  0  0  0  0  0  0  0  0
   19.5446   -9.0091  -17.6852 O   0  0  0  0  0  0  0  0  0  0  0  0
   21.3988   -8.0622  -13.2471 O   0  0  0  0  0  0  0  0  0  0  0  0
   20.1006   -7.8892  -13.7088 C   0  0  0  0  0  0  0  0  0  0  0  0
   20.0707   -7.8915  -15.2253 C   0  0  2  0  0  0  0  0  0  0  0  0
   20.7582   -9.0578  -15.7521 N   0  0  0  0  0  0  0  0  0  0  0  0
   20.7718   -6.6874  -15.7453 C   0  0  0  0  0  0  0  0  0  0  0  0
   21.9340   -6.8220  -16.2532 O   0  0  0  0  0  0  0  0  0  0  0  0
   20.2204   -5.3947  -15.7091 N   0  0  0  0  0  0  0  0  0  0  0  0
   20.9444   -4.2808  -16.2993 C   0  0  1  0  0  0  0  0  0  0  0  0
   21.1431   -4.5443  -17.7695 C   0  0  0  0  0  0  0  0  0  0  0  0
   19.8901   -4.2742  -18.5055 C   0  0  0  0  0  0  0  0  0  0  0  0
   19.5961   -2.9810  -18.8835 C   0  0  0  0  0  0  0  0  0  0  0  0
   18.4320   -2.7256  -19.5835 C   0  0  0  0  0  0  0  0  0  0  0  0
   17.5508   -3.7265  -19.9177 C   0  0  0  0  0  0  0  0  0  0  0  0
   17.8449   -5.0145  -19.5406 C   0  0  0  0  0  0  0  0  0  0  0  0
   19.0161   -5.2717  -18.8365 C   0  0  0  0  0  0  0  0  0  0  0  0
   20.2421   -3.0110  -16.0052 C   0  0  0  0  0  0  0  0  0  0  0  0
   20.8440   -1.7709  -16.3099 O   0  0  0  0  0  0  0  0  0  0  0  0
   19.1028   -2.9296  -15.4833 O   0  0  0  0  0  0  0  0  0  0  0  0
  1  2  1  0
  3  2  1  0
  4  3  1  0
  5  4  1  0
  5  6  1  1
  5  1  1  0
  6  7  2  0
  9  8  1  0
 10  9  1  1
 10 12  1  0
 11 10  1  0
 11  6  1  0
 12 14  1  0
 13 12  2  0
 14 15  1  0
 15 16  1  6
 16 17  1  0
 17 22  1  0
 17 18  2  0
 18 19  1  0
 19 20  2  0
 21 20  1  0
 22 21  2  0
 23 24  1  0
 23 15  1  0
 25 23  2  0
M  END
$$$$
