PSF.pdb
     RDKit          3D

 25 26  0  0  1  0  0  0  0  0999 V2000
   27.9560  -22.2168  -15.1710 N   0  0  0  0  0  0  0  0  0  0  0  0
   26.8350  -22.7938  -15.8499 C   0  0  0  0  0  0  0  0  0  0  0  0
   26.8946  -22.0452  -17.1900 C   0  0  0  0  0  0  0  0  0  0  0  0
   27.0977  -20.6203  -16.6559 C   0  0  0  0  0  0  0  0  0  0  0  0
   27.7623  -20.8107  -15.3092 C   0  0  1  0  0  0  0  0  0  0  0  0
   26.9143  -20.2243  -14.2529 C   0  0  0  0  0  0  0  0  0  0  0  0
   26.5319  -19.0272  -14.3810 O   0  0  0  0  0  0  0  0  0  0  0  0
   23.2992  -20.2706  -11.3931 O   0  0  0  0  0  0  0  0  0  0  0  0
   24.1577  -20.8085  -12.3429 C   0  0  0  0  0  0  0  0  0  0  0  0
   25.5698  -20.2954  -12.1345 C   0  0  2  0  0  0  0  0  0  0  0  0
   26.4847  -20.9053  -13.0839 N   0  0  0  0  0  0  0  0  0  0  0  0
   26.0397  -20.6526  -10.7694 C   0  0  0  0  0  0  0  0  0  0  0  0
   26.3514  -21.8644  -10.5220 O   0  0  0  0  0  0  0  0  0  0  0  0
   26.1620  -19.7202   -9.7243 N   0  0  0  0  0  0  0  0  0  0  0  0
   26.4482  -20.1776   -8.3743 C   0  0  1  0  0  0  0  0  0  0  0  0
   26.8939  -19.0050   -7.5397 C   0  0  0  0  0  0  0  0  0  0  0  0
   27.8482  -19.4548   -6.5045 C   0  0  0  0  0  0  0  0  0  0  0  0
   27.7052  -18.9967   -5.2116 C   0  0  0  0  0  0  0  0  0  0  0  0
   28.5872  -19.4251   -4.2375 C   0  0  0  0  0  0  0  0  0  0  0  0
   29.6103  -20.2996   -4.5175 C   0  0  0  0  0  0  0  0  0  0  0  0
   29.7516  -20.7553   -5.8059 C   0  0  0  0  0  0  0  0  0  0  0  0
   28.8643  -20.3246   -6.7862 C   0  0  0  0  0  0  0  0  0  0  0  0
   25.2747  -20.8950   -7.8261 C   0  0  0  0  0  0  0  0  0  0  0  0
   25.4437  -21.9304   -6.8816 O   0  0  0  0  0  0  0  0  0  0  0  0
   24.0821  -20.6563   -8.1387 O   0  0  0  0  0  0  0  0  0  0  0  0
  1  2  1  0
  3  2  1  0
  4  3  1  0
  5  4  1  0
  5  6  1  1
  5  1  1  0
  6  7  2  0
  9  8  1  0
 10  9  1  6
 10 12  1  0
 11 10  1  0
 11  6  1  0
 12 14  1  0
 13 12  2  0
 14 15  1  0
 15 16  1  1
 16 17  1  0
 17 22  1  0
 17 18  2  0
 18 19  1  0
 19 20  2  0
 21 20  1  0
 22 21  2  0
 23 24  1  0
 23 15  1  0
 25 23  2  0
M  END
$$$$
