PSF.pdb
     RDKit          3D

 25 26  0  0  1  0  0  0  0  0999 V2000
   43.4548  -13.4832  -10.0685 N   0  0  0  0  0  0  0  0  0  0  0  0
   44.4939  -13.7171   -9.1113 C   0  0  0  0  0  0  0  0  0  0  0  0
   44.0300  -15.0496   -8.5039 C   0  0  0  0  0  0  0  0  0  0  0  0
   42.5489  -14.7080   -8.2882 C   0  0  0  0  0  0  0  0  0  0  0  0
   42.2500  -13.6439   -9.3225 C   0  0  1  0  0  0  0  0  0  0  0  0
   41.8044  -12.4097   -8.6465 C   0  0  0  0  0  0  0  0  0  0  0  0
   40.8623  -12.4871   -7.8085 O   0  0  0  0  0  0  0  0  0  0  0  0
   43.3614   -8.6484   -9.4783 O   0  0  0  0  0  0  0  0  0  0  0  0
   42.9662   -8.8589   -8.1638 C   0  0  0  0  0  0  0  0  0  0  0  0
   41.9311   -9.9653   -8.0904 C   0  0  2  0  0  0  0  0  0  0  0  0
   42.3557  -11.1198   -8.8632 N   0  0  0  0  0  0  0  0  0  0  0  0
   40.6446   -9.4912   -8.6665 C   0  0  0  0  0  0  0  0  0  0  0  0
   40.4153   -9.6855   -9.9060 O   0  0  0  0  0  0  0  0  0  0  0  0
   39.6552   -8.8341   -7.9143 N   0  0  0  0  0  0  0  0  0  0  0  0
   38.4354   -8.3790   -8.5612 C   0  0  1  0  0  0  0  0  0  0  0  0
   37.2477   -8.8469   -7.7607 C   0  0  0  0  0  0  0  0  0  0  0  0
   37.1322  -10.3183   -7.8404 C   0  0  0  0  0  0  0  0  0  0  0  0
   36.8952  -10.9104   -9.0632 C   0  0  0  0  0  0  0  0  0  0  0  0
   36.7997  -12.2867   -9.1446 C   0  0  0  0  0  0  0  0  0  0  0  0
   36.9342  -13.0911   -8.0379 C   0  0  0  0  0  0  0  0  0  0  0  0
   37.1704  -12.5001   -6.8203 C   0  0  0  0  0  0  0  0  0  0  0  0
   37.2666  -11.1153   -6.7381 C   0  0  0  0  0  0  0  0  0  0  0  0
   38.4873   -6.9126   -8.7596 C   0  0  0  0  0  0  0  0  0  0  0  0
   37.5601   -6.2701   -9.6082 O   0  0  0  0  0  0  0  0  0  0  0  0
   39.3217   -6.1478   -8.2157 O   0  0  0  0  0  0  0  0  0  0  0  0
  1  2  1  0
  3  2  1  0
  4  3  1  0
  5  4  1  0
  5  6  1  1
  5  1  1  0
  6  7  2  0
  9  8  1  0
 10  9  1  6
 10 12  1  0
 11 10  1  0
 11  6  1  0
 12 14  1  0
 13 12  2  0
 14 15  1  0
 15 16  1  1
 16 17  1  0
 17 22  1  0
 17 18  2  0
 18 19  1  0
 19 20  2  0
 21 20  1  0
 22 21  2  0
 23 24  1  0
 23 15  1  0
 25 23  2  0
M  END
$$$$
