PSF.pdb
     RDKit          3D

 25 26  0  0  1  0  0  0  0  0999 V2000
   17.2043  -15.1474  -18.0762 N   0  0  0  0  0  0  0  0  0  0  0  0
   18.1300  -15.5554  -17.0628 C   0  0  0  0  0  0  0  0  0  0  0  0
   17.1957  -15.6668  -15.8486 C   0  0  0  0  0  0  0  0  0  0  0  0
   16.4343  -14.3440  -16.0142 C   0  0  0  0  0  0  0  0  0  0  0  0
   16.5151  -14.0423  -17.4954 C   0  0  1  0  0  0  0  0  0  0  0  0
   17.1953  -12.7483  -17.6992 C   0  0  0  0  0  0  0  0  0  0  0  0
   18.4577  -12.7302  -17.7421 O   0  0  0  0  0  0  0  0  0  0  0  0
   15.1971   -9.1221  -17.9054 O   0  0  0  0  0  0  0  0  0  0  0  0
   16.3273   -9.2190  -18.7065 C   0  0  0  0  0  0  0  0  0  0  0  0
   17.2665  -10.2846  -18.1743 C   0  0  2  0  0  0  0  0  0  0  0  0
   16.5379  -11.4998  -17.8539 N   0  0  0  0  0  0  0  0  0  0  0  0
   17.9122   -9.8079  -16.9222 C   0  0  0  0  0  0  0  0  0  0  0  0
   17.4342  -10.1828  -15.8007 O   0  0  0  0  0  0  0  0  0  0  0  0
   19.0324   -8.9587  -16.9039 N   0  0  0  0  0  0  0  0  0  0  0  0
   19.5505   -8.4692  -15.6368 C   0  0  1  0  0  0  0  0  0  0  0  0
   21.0561   -8.4489  -15.6936 C   0  0  0  0  0  0  0  0  0  0  0  0
   21.5980   -7.7664  -14.4998 C   0  0  0  0  0  0  0  0  0  0  0  0
   21.8842   -8.5069  -13.3721 C   0  0  0  0  0  0  0  0  0  0  0  0
   22.4036   -7.8750  -12.2580 C   0  0  0  0  0  0  0  0  0  0  0  0
   22.6459   -6.5219  -12.2371 C   0  0  0  0  0  0  0  0  0  0  0  0
   22.3604   -5.7854  -13.3612 C   0  0  0  0  0  0  0  0  0  0  0  0
   21.8380   -6.4209  -14.4823 C   0  0  0  0  0  0  0  0  0  0  0  0
   18.9427   -7.1575  -15.3170 C   0  0  0  0  0  0  0  0  0  0  0  0
   18.6981   -6.7878  -13.9767 O   0  0  0  0  0  0  0  0  0  0  0  0
   18.6072   -6.2992  -16.1700 O   0  0  0  0  0  0  0  0  0  0  0  0
  1  2  1  0
  3  2  1  0
  4  3  1  0
  5  4  1  0
  5  6  1  1
  5  1  1  0
  6  7  2  0
  9  8  1  0
 10  9  1  1
 10 12  1  0
 11 10  1  0
 11  6  1  0
 12 14  1  0
 13 12  2  0
 14 15  1  0
 15 16  1  6
 16 17  1  0
 17 22  1  0
 17 18  2  0
 18 19  1  0
 19 20  2  0
 21 20  1  0
 22 21  2  0
 23 24  1  0
 23 15  1  0
 25 23  2  0
M  END
$$$$
