PSF.pdb
     RDKit          3D

 25 26  0  0  1  0  0  0  0  0999 V2000
   26.7350  -18.4446  -16.1524 N   0  0  0  0  0  0  0  0  0  0  0  0
   25.9871  -17.2458  -16.3845 C   0  0  0  0  0  0  0  0  0  0  0  0
   27.0432  -16.1801  -16.0547 C   0  0  0  0  0  0  0  0  0  0  0  0
   27.5747  -16.7725  -14.7419 C   0  0  0  0  0  0  0  0  0  0  0  0
   27.3026  -18.2572  -14.8576 C   0  0  1  0  0  0  0  0  0  0  0  0
   26.4170  -18.6840  -13.7567 C   0  0  0  0  0  0  0  0  0  0  0  0
   25.3979  -17.9845  -13.4960 O   0  0  0  0  0  0  0  0  0  0  0  0
   26.0102  -22.4922  -12.5355 O   0  0  0  0  0  0  0  0  0  0  0  0
   25.0417  -21.5510  -12.2126 C   0  0  0  0  0  0  0  0  0  0  0  0
   25.6836  -20.2115  -11.9048 C   0  0  2  0  0  0  0  0  0  0  0  0
   26.6180  -19.8357  -12.9516 N   0  0  0  0  0  0  0  0  0  0  0  0
   26.4497  -20.2999  -10.6331 C   0  0  0  0  0  0  0  0  0  0  0  0
   27.6542  -20.7180  -10.6669 O   0  0  0  0  0  0  0  0  0  0  0  0
   25.9164  -19.9442   -9.3820 N   0  0  0  0  0  0  0  0  0  0  0  0
   26.6351  -20.2833   -8.1645 C   0  0  1  0  0  0  0  0  0  0  0  0
   27.1304  -19.0173   -7.5147 C   0  0  0  0  0  0  0  0  0  0  0  0
   27.8020  -19.3343   -6.2367 C   0  0  0  0  0  0  0  0  0  0  0  0
   29.0972  -19.8075   -6.2554 C   0  0  0  0  0  0  0  0  0  0  0  0
   29.7337  -20.0926   -5.0622 C   0  0  0  0  0  0  0  0  0  0  0  0
   29.1131  -19.9186   -3.8479 C   0  0  0  0  0  0  0  0  0  0  0  0
   27.8228  -19.4471   -3.8307 C   0  0  0  0  0  0  0  0  0  0  0  0
   27.1821  -19.1600   -5.0310 C   0  0  0  0  0  0  0  0  0  0  0  0
   25.7780  -21.1139   -7.2883 C   0  0  0  0  0  0  0  0  0  0  0  0
   26.3540  -21.9846   -6.3380 O   0  0  0  0  0  0  0  0  0  0  0  0
   24.5225  -21.1166   -7.3127 O   0  0  0  0  0  0  0  0  0  0  0  0
  1  2  1  0
  3  2  1  0
  4  3  1  0
  5  4  1  0
  5  6  1  1
  5  1  1  0
  6  7  2  0
  9  8  1  0
 10  9  1  6
 10 12  1  0
 11 10  1  0
 11  6  1  0
 12 14  1  0
 13 12  2  0
 14 15  1  0
 15 16  1  1
 16 17  1  0
 17 22  1  0
 17 18  2  0
 18 19  1  0
 19 20  2  0
 21 20  1  0
 22 21  2  0
 23 24  1  0
 23 15  1  0
 25 23  2  0
M  END
$$$$
