FVA.pdb
     RDKit          3D

 24 24  0  0  1  0  0  0  0  0999 V2000
   26.4675  -22.3991  -11.7642 N   0  0  0  0  0  0  0  0  0  0  0  0
   25.3721  -21.7205  -12.4260 C   0  0  1  0  0  0  0  0  0  0  0  0
   25.2073  -20.3794  -11.7414 C   0  0  0  0  0  0  0  0  0  0  0  0
   24.6026  -20.5657  -10.4085 C   0  0  0  0  0  0  0  0  0  0  0  0
   23.2956  -20.9715  -10.2918 C   0  0  0  0  0  0  0  0  0  0  0  0
   22.6988  -21.1553   -9.0431 C   0  0  0  0  0  0  0  0  0  0  0  0
   23.4156  -20.9313   -7.8817 C   0  0  0  0  0  0  0  0  0  0  0  0
   24.7234  -20.5253   -7.9999 C   0  0  0  0  0  0  0  0  0  0  0  0
   25.2980  -20.3484   -9.2408 C   0  0  0  0  0  0  0  0  0  0  0  0
   25.7169  -21.5711  -13.8582 C   0  0  0  0  0  0  0  0  0  0  0  0
   26.7790  -20.9887  -14.1882 O   0  0  0  0  0  0  0  0  0  0  0  0
   24.4063  -24.3701  -16.3740 C   0  0  0  0  0  0  0  0  0  0  0  0
   25.5524  -23.4547  -16.7166 C   0  0  2  0  0  0  0  0  0  0  0  0
   26.8204  -23.8973  -16.0498 C   0  0  0  0  0  0  0  0  0  0  0  0
   25.2671  -22.0183  -16.3120 C   0  0  2  0  0  0  0  0  0  0  0  0
   24.9045  -22.0558  -14.9127 N   0  0  0  0  0  0  0  0  0  0  0  0
   24.1752  -21.4783  -17.1550 C   0  0  0  0  0  0  0  0  0  0  0  0
   23.0190  -21.9624  -17.0676 O   0  0  0  0  0  0  0  0  0  0  0  0
   23.8815  -18.7977  -19.8188 C   0  0  0  0  0  0  0  0  0  0  0  0
   23.3056  -19.9203  -18.9452 C   0  0  2  0  0  0  0  0  0  0  0  0
   24.3590  -20.4169  -18.0827 N   0  0  0  0  0  0  0  0  0  0  0  0
   22.7340  -20.9537  -19.8080 C   0  0  0  0  0  0  0  0  0  0  0  0
   21.5201  -20.8971  -20.1148 O   0  0  0  0  0  0  0  0  0  0  0  0
   23.4638  -22.0113  -20.3170 O   0  0  0  0  0  0  0  0  0  0  0  0
  2  1  1  1
  3  2  1  0
  4  5  2  0
  4  3  1  0
  6  5  1  0
  7  6  2  0
  8  7  1  0
  8  9  2  0
  9  4  1  0
 10  2  1  0
 10 11  2  0
 13 12  1  1
 13 14  1  0
 15 16  1  1
 15 13  1  0
 16 10  1  0
 17 15  1  0
 18 17  2  0
 20 19  1  6
 20 21  1  0
 21 17  1  0
 22 20  1  0
 22 24  1  0
 23 22  2  0
M  END
$$$$
