FVA.pdb
     RDKit          3D

 24 24  0  0  1  0  0  0  0  0999 V2000
   19.6752   -6.2778  -16.7098 N   0  0  0  0  0  0  0  0  0  0  0  0
   19.5897   -7.5081  -15.9498 C   0  0  1  0  0  0  0  0  0  0  0  0
   19.1529   -7.1306  -14.5493 C   0  0  0  0  0  0  0  0  0  0  0  0
   20.2855   -6.5404  -13.8107 C   0  0  0  0  0  0  0  0  0  0  0  0
   20.9446   -7.2723  -12.8534 C   0  0  0  0  0  0  0  0  0  0  0  0
   22.0192   -6.7381  -12.1400 C   0  0  0  0  0  0  0  0  0  0  0  0
   22.4508   -5.4465  -12.3815 C   0  0  0  0  0  0  0  0  0  0  0  0
   21.7903   -4.7152  -13.3397 C   0  0  0  0  0  0  0  0  0  0  0  0
   20.7308   -5.2575  -14.0357 C   0  0  0  0  0  0  0  0  0  0  0  0
   18.6088   -8.3962  -16.6141 C   0  0  0  0  0  0  0  0  0  0  0  0
   17.5504   -7.9151  -17.0881 O   0  0  0  0  0  0  0  0  0  0  0  0
   18.0371  -12.7043  -18.8666 C   0  0  0  0  0  0  0  0  0  0  0  0
   18.6012  -11.3463  -18.5398 C   0  0  2  0  0  0  0  0  0  0  0  0
   20.0515  -11.4342  -18.1695 C   0  0  0  0  0  0  0  0  0  0  0  0
   17.8483  -10.6828  -17.3991 C   0  0  2  0  0  0  0  0  0  0  0  0
   18.7896   -9.7941  -16.7549 N   0  0  0  0  0  0  0  0  0  0  0  0
   17.3429  -11.7231  -16.4735 C   0  0  0  0  0  0  0  0  0  0  0  0
   18.1412  -12.3257  -15.7130 O   0  0  0  0  0  0  0  0  0  0  0  0
   13.9496  -13.1899  -15.6367 C   0  0  0  0  0  0  0  0  0  0  0  0
   15.4734  -13.1019  -15.4773 C   0  0  2  0  0  0  0  0  0  0  0  0
   15.9727  -12.0927  -16.3896 N   0  0  0  0  0  0  0  0  0  0  0  0
   16.0565  -14.4234  -15.7069 C   0  0  0  0  0  0  0  0  0  0  0  0
   16.3273  -14.7817  -16.8770 O   0  0  0  0  0  0  0  0  0  0  0  0
   16.3335  -15.3210  -14.6931 O   0  0  0  0  0  0  0  0  0  0  0  0
  2  1  1  6
  3  2  1  0
  4  5  2  0
  4  3  1  0
  6  5  1  0
  7  6  2  0
  8  7  1  0
  8  9  2  0
  9  4  1  0
 10  2  1  0
 10 11  2  0
 13 12  1  1
 13 14  1  0
 15 16  1  1
 15 13  1  0
 16 10  1  0
 17 15  1  0
 18 17  2  0
 20 19  1  6
 20 21  1  0
 21 17  1  0
 22 20  1  0
 22 24  1  0
 23 22  2  0
M  END
$$$$
