FVA.pdb
     RDKit          3D

 24 24  0  0  1  0  0  0  0  0999 V2000
   40.6428   -5.5552   -4.3084 N   0  0  0  0  0  0  0  0  0  0  0  0
   39.4560   -5.7608   -5.1132 C   0  0  1  0  0  0  0  0  0  0  0  0
   38.7648   -4.4179   -5.2289 C   0  0  0  0  0  0  0  0  0  0  0  0
   38.0831   -4.0919   -3.9618 C   0  0  0  0  0  0  0  0  0  0  0  0
   38.4636   -2.9909   -3.2341 C   0  0  0  0  0  0  0  0  0  0  0  0
   37.8355   -2.6598   -2.0321 C   0  0  0  0  0  0  0  0  0  0  0  0
   36.8048   -3.4394   -1.5394 C   0  0  0  0  0  0  0  0  0  0  0  0
   36.4250   -4.5409   -2.2686 C   0  0  0  0  0  0  0  0  0  0  0  0
   37.0556   -4.8542   -3.4540 C   0  0  0  0  0  0  0  0  0  0  0  0
   39.8761   -6.2818   -6.4340 C   0  0  0  0  0  0  0  0  0  0  0  0
   40.9741   -5.9242   -6.9268 O   0  0  0  0  0  0  0  0  0  0  0  0
   37.5512   -9.2615   -8.7661 C   0  0  0  0  0  0  0  0  0  0  0  0
   39.0399   -9.0933   -8.6091 C   0  0  2  0  0  0  0  0  0  0  0  0
   39.5391   -9.7874   -7.3773 C   0  0  0  0  0  0  0  0  0  0  0  0
   39.4370   -7.6286   -8.5355 C   0  0  2  0  0  0  0  0  0  0  0  0
   39.0990   -7.1835   -7.2020 N   0  0  0  0  0  0  0  0  0  0  0  0
   38.7072   -6.8690   -9.5770 C   0  0  0  0  0  0  0  0  0  0  0  0
   37.4805   -6.6354   -9.4374 O   0  0  0  0  0  0  0  0  0  0  0  0
   39.6519   -4.8941  -12.6464 C   0  0  0  0  0  0  0  0  0  0  0  0
   38.6186   -5.6136  -11.7690 C   0  0  2  0  0  0  0  0  0  0  0  0
   39.3252   -6.3739  -10.7577 N   0  0  0  0  0  0  0  0  0  0  0  0
   37.7629   -6.4422  -12.6177 C   0  0  0  0  0  0  0  0  0  0  0  0
   38.0315   -7.6579  -12.7621 O   0  0  0  0  0  0  0  0  0  0  0  0
   36.6532   -5.9586  -13.2847 O   0  0  0  0  0  0  0  0  0  0  0  0
  2  1  1  1
  3  2  1  0
  4  5  2  0
  4  3  1  0
  6  5  1  0
  7  6  2  0
  8  7  1  0
  8  9  2  0
  9  4  1  0
 10  2  1  0
 10 11  2  0
 13 12  1  1
 13 14  1  0
 15 16  1  1
 15 13  1  0
 16 10  1  0
 17 15  1  0
 18 17  2  0
 20 19  1  6
 20 21  1  0
 21 17  1  0
 22 20  1  0
 22 24  1  0
 23 22  2  0
M  END
$$$$
