FVA.pdb
     RDKit          3D

 24 24  0  0  1  0  0  0  0  0999 V2000
   28.3851  -21.1275   -9.0785 N   0  0  0  0  0  0  0  0  0  0  0  0
   27.0276  -20.6289   -8.9941 C   0  0  1  0  0  0  0  0  0  0  0  0
   27.0812  -19.3386   -8.2026 C   0  0  0  0  0  0  0  0  0  0  0  0
   27.5953  -19.6019   -6.8449 C   0  0  0  0  0  0  0  0  0  0  0  0
   28.7516  -18.9992   -6.4134 C   0  0  0  0  0  0  0  0  0  0  0  0
   29.2600  -19.2310   -5.1340 C   0  0  0  0  0  0  0  0  0  0  0  0
   28.6058  -20.0812   -4.2610 C   0  0  0  0  0  0  0  0  0  0  0  0
   27.4488  -20.6836   -4.6941 C   0  0  0  0  0  0  0  0  0  0  0  0
   26.9599  -20.4441   -5.9609 C   0  0  0  0  0  0  0  0  0  0  0  0
   26.5269  -20.4125  -10.3706 C   0  0  0  0  0  0  0  0  0  0  0  0
   27.1571  -19.6607  -11.1542 O   0  0  0  0  0  0  0  0  0  0  0  0
   24.6476  -22.0939  -14.3800 C   0  0  0  0  0  0  0  0  0  0  0  0
   25.0268  -22.1720  -12.9242 C   0  0  2  0  0  0  0  0  0  0  0  0
   24.2102  -23.2027  -12.2037 C   0  0  0  0  0  0  0  0  0  0  0  0
   24.8499  -20.8357  -12.2231 C   0  0  2  0  0  0  0  0  0  0  0  0
   25.3492  -21.0146  -10.8780 N   0  0  0  0  0  0  0  0  0  0  0  0
   23.4175  -20.4587  -12.2390 C   0  0  0  0  0  0  0  0  0  0  0  0
   22.6332  -20.9428  -11.3850 O   0  0  0  0  0  0  0  0  0  0  0  0
   21.2449  -18.1516  -14.3183 C   0  0  0  0  0  0  0  0  0  0  0  0
   21.4618  -19.1735  -13.1941 C   0  0  2  0  0  0  0  0  0  0  0  0
   22.8589  -19.5581  -13.1867 N   0  0  0  0  0  0  0  0  0  0  0  0
   20.5553  -20.3041  -13.3926 C   0  0  0  0  0  0  0  0  0  0  0  0
   20.9037  -21.2483  -14.1396 O   0  0  0  0  0  0  0  0  0  0  0  0
   19.3125  -20.3986  -12.7955 O   0  0  0  0  0  0  0  0  0  0  0  0
  2  1  1  6
  3  2  1  0
  4  5  2  0
  4  3  1  0
  6  5  1  0
  7  6  2  0
  8  7  1  0
  8  9  2  0
  9  4  1  0
 10  2  1  0
 10 11  2  0
 13 12  1  6
 13 14  1  0
 15 16  1  1
 15 13  1  0
 16 10  1  0
 17 15  1  0
 18 17  2  0
 20 19  1  6
 20 21  1  0
 21 17  1  0
 22 20  1  0
 22 24  1  0
 23 22  2  0
M  END
$$$$
