FVA.pdb
     RDKit          3D

 24 24  0  0  1  0  0  0  0  0999 V2000
   27.3497  -17.7710  -16.5768 N   0  0  0  0  0  0  0  0  0  0  0  0
   26.6157  -17.5711  -15.3440 C   0  0  1  0  0  0  0  0  0  0  0  0
   25.5484  -16.5351  -15.6304 C   0  0  0  0  0  0  0  0  0  0  0  0
   26.1719  -15.2142  -15.8382 C   0  0  0  0  0  0  0  0  0  0  0  0
   25.9379  -14.5124  -16.9954 C   0  0  0  0  0  0  0  0  0  0  0  0
   26.5152  -13.2608  -17.2175 C   0  0  0  0  0  0  0  0  0  0  0  0
   27.3449  -12.6911  -16.2689 C   0  0  0  0  0  0  0  0  0  0  0  0
   27.5782  -13.3944  -15.1113 C   0  0  0  0  0  0  0  0  0  0  0  0
   27.0003  -14.6296  -14.9073 C   0  0  0  0  0  0  0  0  0  0  0  0
   26.0310  -18.8690  -14.9369 C   0  0  0  0  0  0  0  0  0  0  0  0
   25.5307  -19.6284  -15.8025 O   0  0  0  0  0  0  0  0  0  0  0  0
   25.4181  -22.1800  -11.2619 C   0  0  0  0  0  0  0  0  0  0  0  0
   25.9771  -20.8965  -11.8181 C   0  0  2  0  0  0  0  0  0  0  0  0
   25.7540  -19.7521  -10.8753 C   0  0  0  0  0  0  0  0  0  0  0  0
   25.3578  -20.5470  -13.1607 C   0  0  2  0  0  0  0  0  0  0  0  0
   25.9971  -19.3253  -13.5962 N   0  0  0  0  0  0  0  0  0  0  0  0
   23.8947  -20.3816  -12.9986 C   0  0  0  0  0  0  0  0  0  0  0  0
   23.4313  -19.2961  -12.5677 O   0  0  0  0  0  0  0  0  0  0  0  0
   20.9333  -20.6725  -14.4223 C   0  0  0  0  0  0  0  0  0  0  0  0
   21.5255  -21.2523  -13.1306 C   0  0  2  0  0  0  0  0  0  0  0  0
   22.9557  -21.4030  -13.3087 N   0  0  0  0  0  0  0  0  0  0  0  0
   20.8495  -22.5106  -12.8161 C   0  0  0  0  0  0  0  0  0  0  0  0
   21.4479  -23.5951  -13.0076 O   0  0  0  0  0  0  0  0  0  0  0  0
   19.5652  -22.5804  -12.3103 O   0  0  0  0  0  0  0  0  0  0  0  0
  2  1  1  6
  3  2  1  0
  4  5  2  0
  4  3  1  0
  6  5  1  0
  7  6  2  0
  8  7  1  0
  8  9  2  0
  9  4  1  0
 10  2  1  0
 10 11  2  0
 13 12  1  1
 13 14  1  0
 15 16  1  1
 15 13  1  0
 16 10  1  0
 17 15  1  0
 18 17  2  0
 20 19  1  6
 20 21  1  0
 21 17  1  0
 22 20  1  0
 22 24  1  0
 23 22  2  0
M  END
$$$$
