FVA.pdb
     RDKit          3D

 24 24  0  0  1  0  0  0  0  0999 V2000
   28.3153  -19.6494  -15.8466 N   0  0  0  0  0  0  0  0  0  0  0  0
   27.2834  -19.1194  -14.9789 C   0  0  1  0  0  0  0  0  0  0  0  0
   26.3485  -18.3082  -15.8520 C   0  0  0  0  0  0  0  0  0  0  0  0
   26.8995  -16.9552  -16.0582 C   0  0  0  0  0  0  0  0  0  0  0  0
   26.8386  -16.0220  -15.0522 C   0  0  0  0  0  0  0  0  0  0  0  0
   27.3522  -14.7348  -15.2208 C   0  0  0  0  0  0  0  0  0  0  0  0
   27.9405  -14.3637  -16.4162 C   0  0  0  0  0  0  0  0  0  0  0  0
   28.0008  -15.2985  -17.4221 C   0  0  0  0  0  0  0  0  0  0  0  0
   27.4888  -16.5657  -17.2395 C   0  0  0  0  0  0  0  0  0  0  0  0
   26.5896  -20.2577  -14.3347 C   0  0  0  0  0  0  0  0  0  0  0  0
   26.4603  -21.3424  -14.9535 O   0  0  0  0  0  0  0  0  0  0  0  0
   25.0918  -20.0793  -10.2250 C   0  0  0  0  0  0  0  0  0  0  0  0
   25.5216  -21.3029  -10.9913 C   0  0  2  0  0  0  0  0  0  0  0  0
   26.9994  -21.5279  -10.8727 C   0  0  0  0  0  0  0  0  0  0  0  0
   25.1630  -21.2006  -12.4641 C   0  0  2  0  0  0  0  0  0  0  0  0
   26.0455  -20.2035  -13.0279 N   0  0  0  0  0  0  0  0  0  0  0  0
   23.7374  -20.8204  -12.5971 C   0  0  0  0  0  0  0  0  0  0  0  0
   23.3206  -19.7592  -12.0689 O   0  0  0  0  0  0  0  0  0  0  0  0
   20.9317  -21.4004  -14.8504 C   0  0  0  0  0  0  0  0  0  0  0  0
   21.3783  -21.2640  -13.3885 C   0  0  2  0  0  0  0  0  0  0  0  0
   22.7847  -21.6032  -13.3048 N   0  0  0  0  0  0  0  0  0  0  0  0
   20.5319  -22.1102  -12.5479 C   0  0  0  0  0  0  0  0  0  0  0  0
   20.9969  -23.1774  -12.0833 O   0  0  0  0  0  0  0  0  0  0  0  0
   19.2238  -21.8005  -12.2268 O   0  0  0  0  0  0  0  0  0  0  0  0
  2  1  1  6
  3  2  1  0
  4  5  2  0
  4  3  1  0
  6  5  1  0
  7  6  2  0
  8  7  1  0
  8  9  2  0
  9  4  1  0
 10  2  1  0
 10 11  2  0
 13 12  1  1
 13 14  1  0
 15 16  1  1
 15 13  1  0
 16 10  1  0
 17 15  1  0
 18 17  2  0
 20 19  1  6
 20 21  1  0
 21 17  1  0
 22 20  1  0
 22 24  1  0
 23 22  2  0
M  END
$$$$
