FVA.pdb
     RDKit          3D

 24 24  0  0  1  0  0  0  0  0999 V2000
   28.1681  -21.8791  -11.1034 N   0  0  0  0  0  0  0  0  0  0  0  0
   27.0004  -21.0224  -11.0710 C   0  0  1  0  0  0  0  0  0  0  0  0
   27.4643  -19.6646  -10.5857 C   0  0  0  0  0  0  0  0  0  0  0  0
   27.4566  -19.6276   -9.1108 C   0  0  0  0  0  0  0  0  0  0  0  0
   26.2770  -19.7657   -8.4209 C   0  0  0  0  0  0  0  0  0  0  0  0
   26.2415  -19.7343   -7.0256 C   0  0  0  0  0  0  0  0  0  0  0  0
   27.4041  -19.5618   -6.2965 C   0  0  0  0  0  0  0  0  0  0  0  0
   28.5838  -19.4238   -6.9882 C   0  0  0  0  0  0  0  0  0  0  0  0
   28.6018  -19.4570   -8.3665 C   0  0  0  0  0  0  0  0  0  0  0  0
   26.4351  -20.9573  -12.4379 C   0  0  0  0  0  0  0  0  0  0  0  0
   27.1766  -20.6648  -13.4079 O   0  0  0  0  0  0  0  0  0  0  0  0
   23.0464  -23.0464  -13.3888 C   0  0  0  0  0  0  0  0  0  0  0  0
   24.0050  -22.5006  -14.4145 C   0  0  2  0  0  0  0  0  0  0  0  0
   25.1995  -23.3931  -14.5723 C   0  0  0  0  0  0  0  0  0  0  0  0
   24.4859  -21.1060  -14.0509 C   0  0  2  0  0  0  0  0  0  0  0  0
   25.0730  -21.2103  -12.7336 N   0  0  0  0  0  0  0  0  0  0  0  0
   23.3389  -20.1690  -14.0758 C   0  0  0  0  0  0  0  0  0  0  0  0
   22.5638  -20.1019  -13.0892 O   0  0  0  0  0  0  0  0  0  0  0  0
   22.1510  -17.4275  -16.3945 C   0  0  0  0  0  0  0  0  0  0  0  0
   21.9819  -18.3399  -15.1721 C   0  0  2  0  0  0  0  0  0  0  0  0
   23.0522  -19.3169  -15.1772 N   0  0  0  0  0  0  0  0  0  0  0  0
   20.6509  -18.9452  -15.2063 C   0  0  0  0  0  0  0  0  0  0  0  0
   20.5063  -20.0861  -15.7046 O   0  0  0  0  0  0  0  0  0  0  0  0
   19.5185  -18.3249  -14.7132 O   0  0  0  0  0  0  0  0  0  0  0  0
  2  1  1  6
  3  2  1  0
  4  5  2  0
  4  3  1  0
  6  5  1  0
  7  6  2  0
  8  7  1  0
  8  9  2  0
  9  4  1  0
 10  2  1  0
 10 11  2  0
 13 12  1  1
 13 14  1  0
 15 16  1  1
 15 13  1  0
 16 10  1  0
 17 15  1  0
 18 17  2  0
 20 19  1  6
 20 21  1  0
 21 17  1  0
 22 20  1  0
 22 24  1  0
 23 22  2  0
M  END
$$$$
