FVA.pdb
     RDKit          3D

 24 24  0  0  1  0  0  0  0  0999 V2000
   28.1603  -20.5034   -8.6058 N   0  0  0  0  0  0  0  0  0  0  0  0
   26.7270  -20.4653   -8.3993 C   0  0  1  0  0  0  0  0  0  0  0  0
   26.4682  -19.4621   -7.2943 C   0  0  0  0  0  0  0  0  0  0  0  0
   27.4191  -19.6769   -6.1868 C   0  0  0  0  0  0  0  0  0  0  0  0
   27.2981  -20.7775   -5.3740 C   0  0  0  0  0  0  0  0  0  0  0  0
   28.1840  -21.0047   -4.3191 C   0  0  0  0  0  0  0  0  0  0  0  0
   29.2151  -20.1189   -4.0639 C   0  0  0  0  0  0  0  0  0  0  0  0
   29.3350  -19.0180   -4.8780 C   0  0  0  0  0  0  0  0  0  0  0  0
   28.4517  -18.8081   -5.9158 C   0  0  0  0  0  0  0  0  0  0  0  0
   26.0858  -20.0632   -9.6719 C   0  0  0  0  0  0  0  0  0  0  0  0
   26.1692  -18.8739  -10.0657 O   0  0  0  0  0  0  0  0  0  0  0  0
   25.3121  -22.8428  -12.6689 C   0  0  0  0  0  0  0  0  0  0  0  0
   25.4542  -21.3527  -12.8378 C   0  0  2  0  0  0  0  0  0  0  0  0
   26.8955  -20.9393  -12.8315 C   0  0  0  0  0  0  0  0  0  0  0  0
   24.7256  -20.5894  -11.7447 C   0  0  2  0  0  0  0  0  0  0  0  0
   25.3630  -20.9570  -10.4999 N   0  0  0  0  0  0  0  0  0  0  0  0
   23.2902  -20.9550  -11.7636 C   0  0  0  0  0  0  0  0  0  0  0  0
   22.9248  -22.0788  -11.3366 O   0  0  0  0  0  0  0  0  0  0  0  0
   20.0593  -19.1951  -12.6589 C   0  0  0  0  0  0  0  0  0  0  0  0
   20.8642  -20.4346  -12.2456 C   0  0  2  0  0  0  0  0  0  0  0  0
   22.2717  -20.0896  -12.2482 N   0  0  0  0  0  0  0  0  0  0  0  0
   20.5414  -21.5388  -13.1488 C   0  0  0  0  0  0  0  0  0  0  0  0
   21.3198  -21.8091  -14.0932 O   0  0  0  0  0  0  0  0  0  0  0  0
   19.4078  -22.3195  -13.0235 O   0  0  0  0  0  0  0  0  0  0  0  0
  2  1  1  6
  3  2  1  0
  4  5  2  0
  4  3  1  0
  6  5  1  0
  7  6  2  0
  8  7  1  0
  8  9  2  0
  9  4  1  0
 10  2  1  0
 10 11  2  0
 13 12  1  1
 13 14  1  0
 15 16  1  1
 15 13  1  0
 16 10  1  0
 17 15  1  0
 18 17  2  0
 20 19  1  6
 20 21  1  0
 21 17  1  0
 22 20  1  0
 22 24  1  0
 23 22  2  0
M  END
$$$$
