FVA.pdb
     RDKit          3D

 24 24  0  0  1  0  0  0  0  0999 V2000
   13.9303  -13.9929  -13.9671 N   0  0  0  0  0  0  0  0  0  0  0  0
   14.7742  -12.9232  -13.4751 C   0  0  1  0  0  0  0  0  0  0  0  0
   15.8398  -12.6852  -14.5251 C   0  0  0  0  0  0  0  0  0  0  0  0
   16.7080  -13.8726  -14.6392 C   0  0  0  0  0  0  0  0  0  0  0  0
   17.6209  -14.1601  -13.6541 C   0  0  0  0  0  0  0  0  0  0  0  0
   18.4545  -15.2769  -13.7372 C   0  0  0  0  0  0  0  0  0  0  0  0
   18.3812  -16.1296  -14.8237 C   0  0  0  0  0  0  0  0  0  0  0  0
   17.4672  -15.8407  -15.8088 C   0  0  0  0  0  0  0  0  0  0  0  0
   16.6511  -14.7335  -15.7116 C   0  0  0  0  0  0  0  0  0  0  0  0
   13.9291  -11.7259  -13.2641 C   0  0  0  0  0  0  0  0  0  0  0  0
   13.0147  -11.4541  -14.0803 O   0  0  0  0  0  0  0  0  0  0  0  0
   13.9152   -9.9379   -9.5357 C   0  0  0  0  0  0  0  0  0  0  0  0
   12.7812   -9.7582  -10.5108 C   0  0  2  0  0  0  0  0  0  0  0  0
   11.8001  -10.8884  -10.4188 C   0  0  0  0  0  0  0  0  0  0  0  0
   13.2789   -9.6630  -11.9431 C   0  0  2  0  0  0  0  0  0  0  0  0
   14.0878  -10.8398  -12.1702 N   0  0  0  0  0  0  0  0  0  0  0  0
   14.0563   -8.4132  -12.1107 C   0  0  0  0  0  0  0  0  0  0  0  0
   15.1271   -8.2517  -11.4735 O   0  0  0  0  0  0  0  0  0  0  0  0
   14.0847   -5.5948  -14.5780 C   0  0  0  0  0  0  0  0  0  0  0  0
   14.4550   -6.1694  -13.2040 C   0  0  2  0  0  0  0  0  0  0  0  0
   13.6552   -7.3553  -12.9717 N   0  0  0  0  0  0  0  0  0  0  0  0
   14.2625   -5.1377  -12.1853 C   0  0  0  0  0  0  0  0  0  0  0  0
   13.1971   -5.1155  -11.5255 O   0  0  0  0  0  0  0  0  0  0  0  0
   15.2016   -4.1650  -11.8985 O   0  0  0  0  0  0  0  0  0  0  0  0
  2  1  1  6
  3  2  1  0
  4  5  2  0
  4  3  1  0
  6  5  1  0
  7  6  2  0
  8  7  1  0
  8  9  2  0
  9  4  1  0
 10  2  1  0
 10 11  2  0
 13 12  1  1
 13 14  1  0
 15 16  1  1
 15 13  1  0
 16 10  1  0
 17 15  1  0
 18 17  2  0
 20 19  1  6
 20 21  1  0
 21 17  1  0
 22 20  1  0
 22 24  1  0
 23 22  2  0
M  END
$$$$
