FVA.pdb
     RDKit          3D

 24 24  0  0  1  0  0  0  0  0999 V2000
   21.1061  -13.4343  -18.2658 N   0  0  0  0  0  0  0  0  0  0  0  0
   21.5523  -12.0820  -18.5315 C   0  0  1  0  0  0  0  0  0  0  0  0
   20.5146  -11.4454  -19.4328 C   0  0  0  0  0  0  0  0  0  0  0  0
   20.5740  -12.0526  -20.7761 C   0  0  0  0  0  0  0  0  0  0  0  0
   21.6391  -11.7971  -21.6049 C   0  0  0  0  0  0  0  0  0  0  0  0
   21.7202  -12.3585  -22.8805 C   0  0  0  0  0  0  0  0  0  0  0  0
   20.7209  -13.1938  -23.3459 C   0  0  0  0  0  0  0  0  0  0  0  0
   19.6557  -13.4486  -22.5155 C   0  0  0  0  0  0  0  0  0  0  0  0
   19.5906  -12.8862  -21.2582 C   0  0  0  0  0  0  0  0  0  0  0  0
   21.6722  -11.3708  -17.2384 C   0  0  0  0  0  0  0  0  0  0  0  0
   20.7510  -11.4569  -16.3897 O   0  0  0  0  0  0  0  0  0  0  0  0
   25.3240   -9.1669  -15.3728 C   0  0  0  0  0  0  0  0  0  0  0  0
   24.3104  -10.2453  -15.0923 C   0  0  2  0  0  0  0  0  0  0  0  0
   24.7257  -11.5531  -15.6968 C   0  0  0  0  0  0  0  0  0  0  0  0
   22.9356   -9.8791  -15.6253 C   0  0  2  0  0  0  0  0  0  0  0  0
   22.7900  -10.5760  -16.8839 N   0  0  0  0  0  0  0  0  0  0  0  0
   22.8482   -8.4096  -15.7900 C   0  0  0  0  0  0  0  0  0  0  0  0
   23.5119   -7.8402  -16.6923 O   0  0  0  0  0  0  0  0  0  0  0  0
   20.4334   -5.7793  -15.1881 C   0  0  0  0  0  0  0  0  0  0  0  0
   21.9229   -6.1466  -15.1485 C   0  0  2  0  0  0  0  0  0  0  0  0
   22.0375   -7.5799  -14.9681 N   0  0  0  0  0  0  0  0  0  0  0  0
   22.5777   -5.3797  -14.0890 C   0  0  0  0  0  0  0  0  0  0  0  0
   22.7767   -5.9163  -12.9740 O   0  0  0  0  0  0  0  0  0  0  0  0
   22.9998   -4.0728  -14.2436 O   0  0  0  0  0  0  0  0  0  0  0  0
  2  1  1  1
  3  2  1  0
  4  5  2  0
  4  3  1  0
  6  5  1  0
  7  6  2  0
  8  7  1  0
  8  9  2  0
  9  4  1  0
 10  2  1  0
 10 11  2  0
 13 12  1  6
 13 14  1  0
 15 16  1  6
 15 13  1  0
 16 10  1  0
 17 15  1  0
 18 17  2  0
 20 19  1  1
 20 21  1  0
 21 17  1  0
 22 20  1  0
 22 24  1  0
 23 22  2  0
M  END
$$$$
