FVA.pdb
     RDKit          3D

 24 24  0  0  1  0  0  0  0  0999 V2000
   18.2893  -10.9405  -18.2145 N   0  0  0  0  0  0  0  0  0  0  0  0
   18.3454  -10.2976  -16.9176 C   0  0  1  0  0  0  0  0  0  0  0  0
   19.1272  -11.2183  -16.0035 C   0  0  0  0  0  0  0  0  0  0  0  0
   18.3650  -12.4595  -15.7679 C   0  0  0  0  0  0  0  0  0  0  0  0
   18.7896  -13.6467  -16.3127 C   0  0  0  0  0  0  0  0  0  0  0  0
   18.0874  -14.8354  -16.1055 C   0  0  0  0  0  0  0  0  0  0  0  0
   16.9358  -14.8472  -15.3395 C   0  0  0  0  0  0  0  0  0  0  0  0
   16.5121  -13.6585  -14.7950 C   0  0  0  0  0  0  0  0  0  0  0  0
   17.2172  -12.4931  -15.0091 C   0  0  0  0  0  0  0  0  0  0  0  0
   19.0103   -8.9846  -17.0795 C   0  0  0  0  0  0  0  0  0  0  0  0
   20.0652   -8.8969  -17.7546 O   0  0  0  0  0  0  0  0  0  0  0  0
   16.9225   -6.2861  -17.7570 C   0  0  0  0  0  0  0  0  0  0  0  0
   18.0853   -5.5435  -17.1526 C   0  0  2  0  0  0  0  0  0  0  0  0
   18.7083   -4.6076  -18.1448 C   0  0  0  0  0  0  0  0  0  0  0  0
   19.1562   -6.4925  -16.6418 C   0  0  2  0  0  0  0  0  0  0  0  0
   18.5216   -7.7847  -16.5066 N   0  0  0  0  0  0  0  0  0  0  0  0
   19.6799   -5.9922  -15.3496 C   0  0  0  0  0  0  0  0  0  0  0  0
   18.8840   -5.7039  -14.4210 O   0  0  0  0  0  0  0  0  0  0  0  0
   23.0543   -5.5949  -13.7229 C   0  0  0  0  0  0  0  0  0  0  0  0
   21.5756   -5.2122  -13.8708 C   0  0  2  0  0  0  0  0  0  0  0  0
   21.0656   -5.8127  -15.0871 N   0  0  0  0  0  0  0  0  0  0  0  0
   21.4537   -3.7547  -13.8545 C   0  0  0  0  0  0  0  0  0  0  0  0
   21.4016   -3.1294  -14.9394 O   0  0  0  0  0  0  0  0  0  0  0  0
   21.3910   -3.0080  -12.6932 O   0  0  0  0  0  0  0  0  0  0  0  0
  2  1  1  6
  3  2  1  0
  4  5  2  0
  4  3  1  0
  6  5  1  0
  7  6  2  0
  8  7  1  0
  8  9  2  0
  9  4  1  0
 10  2  1  0
 10 11  2  0
 13 12  1  6
 13 14  1  0
 15 16  1  1
 15 13  1  0
 16 10  1  0
 17 15  1  0
 18 17  2  0
 20 19  1  6
 20 21  1  0
 21 17  1  0
 22 20  1  0
 22 24  1  0
 23 22  2  0
M  END
$$$$
