FVA.pdb
     RDKit          3D

 24 24  0  0  1  0  0  0  0  0999 V2000
   24.8020  -20.2639   -7.7254 N   0  0  0  0  0  0  0  0  0  0  0  0
   26.0351  -20.0495   -8.4548 C   0  0  1  0  0  0  0  0  0  0  0  0
   27.0837  -20.9369   -7.8165 C   0  0  0  0  0  0  0  0  0  0  0  0
   27.6699  -20.2599   -6.6439 C   0  0  0  0  0  0  0  0  0  0  0  0
   28.4590  -19.1479   -6.8092 C   0  0  0  0  0  0  0  0  0  0  0  0
   29.0260  -18.4884   -5.7171 C   0  0  0  0  0  0  0  0  0  0  0  0
   28.8051  -18.9426   -4.4295 C   0  0  0  0  0  0  0  0  0  0  0  0
   28.0152  -20.0555   -4.2656 C   0  0  0  0  0  0  0  0  0  0  0  0
   27.4626  -20.6954   -5.3548 C   0  0  0  0  0  0  0  0  0  0  0  0
   25.8017  -20.4025   -9.8737 C   0  0  0  0  0  0  0  0  0  0  0  0
   24.7719  -21.0436  -10.1973 O   0  0  0  0  0  0  0  0  0  0  0  0
   27.5640  -20.3975  -14.2989 C   0  0  0  0  0  0  0  0  0  0  0  0
   27.5545  -19.5293  -13.0679 C   0  0  2  0  0  0  0  0  0  0  0  0
   28.7251  -19.8305  -12.1806 C   0  0  0  0  0  0  0  0  0  0  0  0
   26.2777  -19.7057  -12.2635 C   0  0  2  0  0  0  0  0  0  0  0  0
   26.6889  -20.0551  -10.9219 N   0  0  0  0  0  0  0  0  0  0  0  0
   25.4485  -20.7646  -12.8843 C   0  0  0  0  0  0  0  0  0  0  0  0
   25.8373  -21.9591  -12.8601 O   0  0  0  0  0  0  0  0  0  0  0  0
   21.9571  -21.0748  -14.2212 C   0  0  0  0  0  0  0  0  0  0  0  0
   23.4225  -21.5294  -14.1878 C   0  0  2  0  0  0  0  0  0  0  0  0
   24.2053  -20.5064  -13.5239 N   0  0  0  0  0  0  0  0  0  0  0  0
   23.8713  -21.8010  -15.5531 C   0  0  0  0  0  0  0  0  0  0  0  0
   24.4876  -20.9123  -16.1866 O   0  0  0  0  0  0  0  0  0  0  0  0
   23.6538  -23.0015  -16.2024 O   0  0  0  0  0  0  0  0  0  0  0  0
  2  1  1  1
  3  2  1  0
  4  5  2  0
  4  3  1  0
  6  5  1  0
  7  6  2  0
  8  7  1  0
  8  9  2  0
  9  4  1  0
 10  2  1  0
 10 11  2  0
 13 12  1  6
 13 14  1  0
 15 16  1  1
 15 13  1  0
 16 10  1  0
 17 15  1  0
 18 17  2  0
 20 19  1  6
 20 21  1  0
 21 17  1  0
 22 20  1  0
 22 24  1  0
 23 22  2  0
M  END
$$$$
