KSR.pdb
     RDKit          3D

 27 26  0  0  1  0  0  0  0  0999 V2000
   36.5955  -26.5335  -17.2282 N   0  0  0  0  0  0  0  0  0  0  0  0
   37.3450  -27.7673  -17.2088 C   0  0  1  0  0  0  0  0  0  0  0  0
   38.7303  -27.5831  -16.7141 C   0  0  0  0  0  0  0  0  0  0  0  0
   39.5798  -26.8397  -17.6827 C   0  0  0  0  0  0  0  0  0  0  0  0
   40.8722  -27.4572  -18.0763 C   0  0  0  0  0  0  0  0  0  0  0  0
   41.6047  -26.4923  -19.0422 C   0  0  0  0  0  0  0  0  0  0  0  0
   42.9168  -26.9662  -19.3402 N   0  0  0  0  0  0  0  0  0  0  0  0
   36.5680  -28.7363  -16.3588 C   0  0  0  0  0  0  0  0  0  0  0  0
   36.8264  -28.8750  -15.1434 O   0  0  0  0  0  0  0  0  0  0  0  0
   34.1419  -31.4697  -18.3130 O   0  0  0  0  0  0  0  0  0  0  0  0
   33.6281  -31.0237  -17.0901 C   0  0  0  0  0  0  0  0  0  0  0  0
   34.7498  -30.4750  -16.2004 C   0  0  2  0  0  0  0  0  0  0  0  0
   35.5235  -29.5103  -16.9337 N   0  0  0  0  0  0  0  0  0  0  0  0
   35.6201  -31.6224  -15.8567 C   0  0  0  0  0  0  0  0  0  0  0  0
   36.6676  -31.7962  -16.5395 O   0  0  0  0  0  0  0  0  0  0  0  0
   35.1985  -36.3364   -8.8415 N   0  0  0  0  0  0  0  0  0  0  0  0
   35.0305  -35.1002   -9.4910 C   0  0  0  0  0  0  0  0  0  0  0  0
   34.3248  -34.1887   -8.9439 N   0  0  0  0  0  0  0  0  0  0  0  0
   35.6492  -34.8757  -10.7534 N   0  0  0  0  0  0  0  0  0  0  0  0
   36.3761  -35.8990  -11.4514 C   0  0  0  0  0  0  0  0  0  0  0  0
   36.8867  -35.2760  -12.7443 C   0  0  0  0  0  0  0  0  0  0  0  0
   35.9449  -34.2174  -13.2052 C   0  0  0  0  0  0  0  0  0  0  0  0
   36.2919  -33.5934  -14.5251 C   0  0  2  0  0  0  0  0  0  0  0  0
   35.3464  -32.5341  -14.8089 N   0  0  0  0  0  0  0  0  0  0  0  0
   36.3790  -34.5628  -15.6365 C   0  0  0  0  0  0  0  0  0  0  0  0
   35.4014  -34.9387  -16.3254 O   0  0  0  0  0  0  0  0  0  0  0  0
   37.6167  -35.1342  -15.9897 O   0  0  0  0  0  0  0  0  0  0  0  0
  2  1  1  1
  2  3  1  0
  3  4  1  0
  4  5  1  0
  5  6  1  0
  6  7  1  0
  8  2  1  0
  8  9  2  0
 11 10  1  0
 12 11  1  6
 12 13  1  0
 13  8  1  0
 14 12  1  0
 15 14  2  0
 17 16  1  0
 18 17  2  0
 19 17  1  0
 20 19  1  0
 21 22  1  0
 21 20  1  0
 23 24  1  0
 23 22  1  1
 24 14  1  0
 25 23  1  0
 26 25  2  0
 27 25  1  0
M  END
$$$$
