KSR.pdb
     RDKit          3D

 27 26  0  0  1  0  0  0  0  0999 V2000
   22.2438  -24.8566  -17.0770 N   0  0  0  0  0  0  0  0  0  0  0  0
   21.6102  -25.5348  -15.9711 C   0  0  1  0  0  0  0  0  0  0  0  0
   22.4144  -26.6734  -15.4666 C   0  0  0  0  0  0  0  0  0  0  0  0
   22.4862  -27.7900  -16.4467 C   0  0  0  0  0  0  0  0  0  0  0  0
   23.1346  -29.0509  -16.0036 C   0  0  0  0  0  0  0  0  0  0  0  0
   23.0678  -30.0734  -17.1657 C   0  0  0  0  0  0  0  0  0  0  0  0
   23.7564  -31.2762  -16.8283 N   0  0  0  0  0  0  0  0  0  0  0  0
   21.3690  -24.5001  -14.9051 C   0  0  0  0  0  0  0  0  0  0  0  0
   22.1323  -23.5179  -14.7790 O   0  0  0  0  0  0  0  0  0  0  0  0
   19.8764  -21.3710  -13.7694 O   0  0  0  0  0  0  0  0  0  0  0  0
   19.1026  -22.5290  -13.6334 C   0  0  0  0  0  0  0  0  0  0  0  0
   19.9292  -23.6617  -13.0135 C   0  0  2  0  0  0  0  0  0  0  0  0
   20.2615  -24.6295  -14.0234 N   0  0  0  0  0  0  0  0  0  0  0  0
   19.0690  -24.3092  -11.9972 C   0  0  0  0  0  0  0  0  0  0  0  0
   18.0818  -24.9847  -12.4008 O   0  0  0  0  0  0  0  0  0  0  0  0
   15.9083  -25.6922   -4.7528 N   0  0  0  0  0  0  0  0  0  0  0  0
   17.0744  -26.4654   -4.6098 C   0  0  0  0  0  0  0  0  0  0  0  0
   17.0199  -27.5863   -4.0024 N   0  0  0  0  0  0  0  0  0  0  0  0
   18.3061  -25.9915   -5.1438 N   0  0  0  0  0  0  0  0  0  0  0  0
   18.4151  -24.7443   -5.8475 C   0  0  0  0  0  0  0  0  0  0  0  0
   17.8052  -24.9592   -7.2268 C   0  0  0  0  0  0  0  0  0  0  0  0
   18.7779  -24.5568   -8.2812 C   0  0  0  0  0  0  0  0  0  0  0  0
   18.2989  -24.7495   -9.6902 C   0  0  2  0  0  0  0  0  0  0  0  0
   19.2888  -24.2153  -10.6019 N   0  0  0  0  0  0  0  0  0  0  0  0
   16.9577  -24.1847   -9.9447 C   0  0  0  0  0  0  0  0  0  0  0  0
   15.9170  -24.8694  -10.0847 O   0  0  0  0  0  0  0  0  0  0  0  0
   16.7774  -22.7917  -10.0461 O   0  0  0  0  0  0  0  0  0  0  0  0
  2  1  1  6
  2  3  1  0
  3  4  1  0
  4  5  1  0
  5  6  1  0
  6  7  1  0
  8  2  1  0
  8  9  2  0
 11 10  1  0
 12 11  1  6
 12 13  1  0
 13  8  1  0
 14 12  1  0
 15 14  2  0
 17 16  1  0
 18 17  2  0
 19 17  1  0
 20 19  1  0
 21 22  1  0
 21 20  1  0
 23 24  1  0
 23 22  1  1
 24 14  1  0
 25 23  1  0
 26 25  2  0
 27 25  1  0
M  END
$$$$
