KSR.pdb
     RDKit          3D

 27 26  0  0  1  0  0  0  0  0999 V2000
   21.3156  -26.7197  -13.4342 N   0  0  0  0  0  0  0  0  0  0  0  0
   20.1013  -27.0945  -12.7490 C   0  0  1  0  0  0  0  0  0  0  0  0
   20.0515  -28.5415  -12.4309 C   0  0  0  0  0  0  0  0  0  0  0  0
   19.9941  -29.3853  -13.6545 C   0  0  0  0  0  0  0  0  0  0  0  0
   19.8134  -30.8482  -13.4711 C   0  0  0  0  0  0  0  0  0  0  0  0
   19.8676  -31.5291  -14.8617 C   0  0  0  0  0  0  0  0  0  0  0  0
   19.6250  -32.9307  -14.7543 N   0  0  0  0  0  0  0  0  0  0  0  0
   20.0186  -26.2429  -11.5108 C   0  0  0  0  0  0  0  0  0  0  0  0
   21.0209  -26.0660  -10.7847 O   0  0  0  0  0  0  0  0  0  0  0  0
   18.5193  -22.5590  -11.1064 O   0  0  0  0  0  0  0  0  0  0  0  0
   17.7624  -23.5369  -10.4511 C   0  0  0  0  0  0  0  0  0  0  0  0
   18.6465  -24.7210  -10.0426 C   0  0  2  0  0  0  0  0  0  0  0  0
   18.7897  -25.6254  -11.1510 N   0  0  0  0  0  0  0  0  0  0  0  0
   17.9408  -25.4201   -8.9448 C   0  0  0  0  0  0  0  0  0  0  0  0
   17.0502  -26.2598   -9.2537 O   0  0  0  0  0  0  0  0  0  0  0  0
   19.6908  -27.6555   -0.5071 N   0  0  0  0  0  0  0  0  0  0  0  0
   18.3485  -27.9873   -0.7644 C   0  0  0  0  0  0  0  0  0  0  0  0
   17.6661  -28.5982    0.1240 N   0  0  0  0  0  0  0  0  0  0  0  0
   17.7619  -27.6390   -2.0139 N   0  0  0  0  0  0  0  0  0  0  0  0
   18.4694  -26.8988   -3.0211 C   0  0  0  0  0  0  0  0  0  0  0  0
   17.5595  -26.8293   -4.2409 C   0  0  0  0  0  0  0  0  0  0  0  0
   18.2415  -26.0937   -5.3426 C   0  0  0  0  0  0  0  0  0  0  0  0
   17.4122  -25.8930   -6.5770 C   0  0  2  0  0  0  0  0  0  0  0  0
   18.2064  -25.2024   -7.5714 N   0  0  0  0  0  0  0  0  0  0  0  0
   16.1289  -25.2053   -6.3260 C   0  0  0  0  0  0  0  0  0  0  0  0
   15.9635  -23.9653   -6.4067 O   0  0  0  0  0  0  0  0  0  0  0  0
   14.9826  -25.9414   -5.9694 O   0  0  0  0  0  0  0  0  0  0  0  0
  2  1  1  1
  2  3  1  0
  3  4  1  0
  4  5  1  0
  5  6  1  0
  6  7  1  0
  8  2  1  0
  8  9  2  0
 11 10  1  0
 12 11  1  6
 12 13  1  0
 13  8  1  0
 14 12  1  0
 15 14  2  0
 17 16  1  0
 18 17  2  0
 19 17  1  0
 20 19  1  0
 21 22  1  0
 21 20  1  0
 23 24  1  0
 23 22  1  1
 24 14  1  0
 25 23  1  0
 26 25  2  0
 27 25  1  0
M  END
$$$$
