KSR.pdb
     RDKit          3D

 27 26  0  0  1  0  0  0  0  0999 V2000
   18.1310  -20.3319  -15.4017 N   0  0  0  0  0  0  0  0  0  0  0  0
   19.0436  -19.5406  -14.6108 C   0  0  1  0  0  0  0  0  0  0  0  0
   18.4013  -18.9704  -13.4026 C   0  0  0  0  0  0  0  0  0  0  0  0
   17.2226  -19.7643  -12.9637 C   0  0  0  0  0  0  0  0  0  0  0  0
   17.4486  -20.8224  -11.9460 C   0  0  0  0  0  0  0  0  0  0  0  0
   16.0796  -21.4405  -11.5661 C   0  0  0  0  0  0  0  0  0  0  0  0
   16.0131  -22.8118  -11.9530 N   0  0  0  0  0  0  0  0  0  0  0  0
   20.2054  -20.4320  -14.2632 C   0  0  0  0  0  0  0  0  0  0  0  0
   20.2112  -21.0958  -13.2037 O   0  0  0  0  0  0  0  0  0  0  0  0
   24.1924  -22.6054  -16.0530 O   0  0  0  0  0  0  0  0  0  0  0  0
   23.0985  -21.7558  -16.2530 C   0  0  0  0  0  0  0  0  0  0  0  0
   22.4409  -21.3973  -14.9152 C   0  0  2  0  0  0  0  0  0  0  0  0
   21.3175  -20.5296  -15.1433 N   0  0  0  0  0  0  0  0  0  0  0  0
   23.4562  -20.6651  -14.1246 C   0  0  0  0  0  0  0  0  0  0  0  0
   23.6702  -19.4547  -14.4120 O   0  0  0  0  0  0  0  0  0  0  0  0
   29.5989  -20.6674   -7.6591 N   0  0  0  0  0  0  0  0  0  0  0  0
   28.3429  -20.1147   -7.3509 C   0  0  0  0  0  0  0  0  0  0  0  0
   28.2217  -19.3421   -6.3426 N   0  0  0  0  0  0  0  0  0  0  0  0
   27.2168  -20.4214   -8.1662 N   0  0  0  0  0  0  0  0  0  0  0  0
   27.3153  -21.2313   -9.3482 C   0  0  0  0  0  0  0  0  0  0  0  0
   26.8218  -20.3798  -10.5109 C   0  0  0  0  0  0  0  0  0  0  0  0
   25.6739  -21.0520  -11.1821 C   0  0  0  0  0  0  0  0  0  0  0  0
   25.3706  -20.5548  -12.5651 C   0  0  2  0  0  0  0  0  0  0  0  0
   24.1994  -21.2424  -13.0670 N   0  0  0  0  0  0  0  0  0  0  0  0
   26.5108  -20.6610  -13.4985 C   0  0  0  0  0  0  0  0  0  0  0  0
   26.7221  -21.6435  -14.2479 O   0  0  0  0  0  0  0  0  0  0  0  0
   27.4538  -19.6195  -13.5947 O   0  0  0  0  0  0  0  0  0  0  0  0
  2  1  1  1
  2  3  1  0
  3  4  1  0
  4  5  1  0
  5  6  1  0
  6  7  1  0
  8  2  1  0
  8  9  2  0
 11 10  1  0
 12 11  1  6
 12 13  1  0
 13  8  1  0
 14 12  1  0
 15 14  2  0
 17 16  1  0
 18 17  2  0
 19 17  1  0
 20 19  1  0
 21 22  1  0
 21 20  1  0
 23 24  1  0
 23 22  1  1
 24 14  1  0
 25 23  1  0
 26 25  2  0
 27 25  1  0
M  END
$$$$
