KSR.pdb
     RDKit          3D

 27 26  0  0  1  0  0  0  0  0999 V2000
   26.6130  -17.2133  -18.5289 N   0  0  0  0  0  0  0  0  0  0  0  0
   27.3162  -17.3751  -17.2783 C   0  0  1  0  0  0  0  0  0  0  0  0
   27.1094  -16.2316  -16.3579 C   0  0  0  0  0  0  0  0  0  0  0  0
   25.7566  -15.6302  -16.5021 C   0  0  0  0  0  0  0  0  0  0  0  0
   25.6623  -14.1478  -16.5105 C   0  0  0  0  0  0  0  0  0  0  0  0
   25.2114  -13.6754  -15.1055 C   0  0  0  0  0  0  0  0  0  0  0  0
   25.0446  -12.2591  -15.0718 N   0  0  0  0  0  0  0  0  0  0  0  0
   26.8461  -18.6728  -16.6782 C   0  0  0  0  0  0  0  0  0  0  0  0
   25.9477  -19.3465  -17.2279 O   0  0  0  0  0  0  0  0  0  0  0  0
   28.7100  -20.0836  -13.1076 O   0  0  0  0  0  0  0  0  0  0  0  0
   28.4086  -20.9488  -14.1654 C   0  0  0  0  0  0  0  0  0  0  0  0
   27.1728  -20.4585  -14.9293 C   0  0  2  0  0  0  0  0  0  0  0  0
   27.4236  -19.1502  -15.4702 N   0  0  0  0  0  0  0  0  0  0  0  0
   26.0727  -20.3638  -13.9429 C   0  0  0  0  0  0  0  0  0  0  0  0
   25.8764  -19.2510  -13.3801 O   0  0  0  0  0  0  0  0  0  0  0  0
   18.7777  -20.7399  -12.8634 N   0  0  0  0  0  0  0  0  0  0  0  0
   18.6747  -21.6044  -11.7588 C   0  0  0  0  0  0  0  0  0  0  0  0
   17.7420  -21.4322  -10.9052 N   0  0  0  0  0  0  0  0  0  0  0  0
   19.6117  -22.6647  -11.6020 N   0  0  0  0  0  0  0  0  0  0  0  0
   20.7077  -22.8687  -12.5074 C   0  0  0  0  0  0  0  0  0  0  0  0
   21.8289  -21.9384  -12.0625 C   0  0  0  0  0  0  0  0  0  0  0  0
   23.0012  -22.0845  -12.9704 C   0  0  0  0  0  0  0  0  0  0  0  0
   24.1923  -21.2483  -12.6046 C   0  0  2  0  0  0  0  0  0  0  0  0
   25.2297  -21.4466  -13.5951 N   0  0  0  0  0  0  0  0  0  0  0  0
   24.6895  -21.4887  -11.2343 C   0  0  0  0  0  0  0  0  0  0  0  0
   25.5047  -22.3896  -10.9257 O   0  0  0  0  0  0  0  0  0  0  0  0
   24.2528  -20.6830  -10.1651 O   0  0  0  0  0  0  0  0  0  0  0  0
  2  1  1  6
  2  3  1  0
  3  4  1  0
  4  5  1  0
  5  6  1  0
  6  7  1  0
  8  2  1  0
  8  9  2  0
 11 10  1  0
 12 11  1  1
 12 13  1  0
 13  8  1  0
 14 12  1  0
 15 14  2  0
 17 16  1  0
 18 17  2  0
 19 17  1  0
 20 19  1  0
 21 22  1  0
 21 20  1  0
 23 24  1  0
 23 22  1  6
 24 14  1  0
 25 23  1  0
 26 25  2  0
 27 25  1  0
M  END
$$$$
