KSR.pdb
     RDKit          3D

 27 26  0  0  1  0  0  0  0  0999 V2000
   19.4069  -24.5506  -14.6721 N   0  0  0  0  0  0  0  0  0  0  0  0
   18.5747  -23.7280  -13.8264 C   0  0  1  0  0  0  0  0  0  0  0  0
   17.1441  -24.1113  -13.8909 C   0  0  0  0  0  0  0  0  0  0  0  0
   16.4926  -23.6460  -15.1445 C   0  0  0  0  0  0  0  0  0  0  0  0
   15.0200  -23.8073  -15.2529 C   0  0  0  0  0  0  0  0  0  0  0  0
   14.5699  -23.2963  -16.6446 C   0  0  0  0  0  0  0  0  0  0  0  0
   13.2047  -23.6267  -16.8932 N   0  0  0  0  0  0  0  0  0  0  0  0
   19.1252  -23.8409  -12.4302 C   0  0  0  0  0  0  0  0  0  0  0  0
   19.7078  -24.8803  -12.0515 O   0  0  0  0  0  0  0  0  0  0  0  0
   18.0962  -20.8405   -9.7543 O   0  0  0  0  0  0  0  0  0  0  0  0
   19.3631  -21.3958   -9.5421 C   0  0  0  0  0  0  0  0  0  0  0  0
   19.4491  -22.7969  -10.1587 C   0  0  2  0  0  0  0  0  0  0  0  0
   18.9876  -22.7578  -11.5198 N   0  0  0  0  0  0  0  0  0  0  0  0
   18.5426  -23.6642   -9.3726 C   0  0  0  0  0  0  0  0  0  0  0  0
   17.2995  -23.5408   -9.5550 O   0  0  0  0  0  0  0  0  0  0  0  0
   19.8708  -31.1209   -9.7956 N   0  0  0  0  0  0  0  0  0  0  0  0
   20.5448  -29.8902   -9.8909 C   0  0  0  0  0  0  0  0  0  0  0  0
   21.7888  -29.8701  -10.1740 N   0  0  0  0  0  0  0  0  0  0  0  0
   19.8337  -28.6766   -9.6707 N   0  0  0  0  0  0  0  0  0  0  0  0
   18.4050  -28.6318   -9.5304 C   0  0  0  0  0  0  0  0  0  0  0  0
   18.0240  -27.1686   -9.3443 C   0  0  0  0  0  0  0  0  0  0  0  0
   18.1193  -26.7976   -7.9044 C   0  0  0  0  0  0  0  0  0  0  0  0
   18.0153  -25.3275   -7.6219 C   0  0  2  0  0  0  0  0  0  0  0  0
   18.9878  -24.6222   -8.4302 N   0  0  0  0  0  0  0  0  0  0  0  0
   18.1420  -24.9867   -6.1900 C   0  0  0  0  0  0  0  0  0  0  0  0
   19.0945  -24.3358   -5.6995 O   0  0  0  0  0  0  0  0  0  0  0  0
   17.1570  -25.3940   -5.2697 O   0  0  0  0  0  0  0  0  0  0  0  0
  2  1  1  6
  2  3  1  0
  3  4  1  0
  4  5  1  0
  5  6  1  0
  6  7  1  0
  8  2  1  0
  8  9  2  0
 11 10  1  0
 12 11  1  1
 12 13  1  0
 13  8  1  0
 14 12  1  0
 15 14  2  0
 17 16  1  0
 18 17  2  0
 19 17  1  0
 20 19  1  0
 21 22  1  0
 21 20  1  0
 23 24  1  0
 23 22  1  1
 24 14  1  0
 25 23  1  0
 26 25  2  0
 27 25  1  0
M  END
$$$$
