KSR.pdb
     RDKit          3D

 27 26  0  0  1  0  0  0  0  0999 V2000
   23.4249  -12.7253  -16.2943 N   0  0  0  0  0  0  0  0  0  0  0  0
   22.5861  -11.7793  -16.9915 C   0  0  1  0  0  0  0  0  0  0  0  0
   21.5935  -12.4406  -17.8718 C   0  0  0  0  0  0  0  0  0  0  0  0
   22.2302  -13.3851  -18.8284 C   0  0  0  0  0  0  0  0  0  0  0  0
   21.3529  -14.0400  -19.8323 C   0  0  0  0  0  0  0  0  0  0  0  0
   22.2386  -14.8793  -20.7871 C   0  0  0  0  0  0  0  0  0  0  0  0
   21.4441  -15.5506  -21.7632 N   0  0  0  0  0  0  0  0  0  0  0  0
   21.9270  -10.9248  -15.9424 C   0  0  0  0  0  0  0  0  0  0  0  0
   21.3395  -11.4430  -14.9680 O   0  0  0  0  0  0  0  0  0  0  0  0
   21.7598   -6.7273  -13.6768 O   0  0  0  0  0  0  0  0  0  0  0  0
   22.3519   -7.5914  -14.6049 C   0  0  0  0  0  0  0  0  0  0  0  0
   21.3340   -8.6200  -15.1116 C   0  0  2  0  0  0  0  0  0  0  0  0
   21.9661   -9.5078  -16.0492 N   0  0  0  0  0  0  0  0  0  0  0  0
   20.2749   -7.8603  -15.8139 C   0  0  0  0  0  0  0  0  0  0  0  0
   20.4934   -7.5031  -17.0048 O   0  0  0  0  0  0  0  0  0  0  0  0
   11.7896   -8.9647  -17.1091 N   0  0  0  0  0  0  0  0  0  0  0  0
   12.1261   -7.7551  -17.7428 C   0  0  0  0  0  0  0  0  0  0  0  0
   11.2700   -7.1710  -18.4873 N   0  0  0  0  0  0  0  0  0  0  0  0
   13.4191   -7.1917  -17.5485 N   0  0  0  0  0  0  0  0  0  0  0  0
   14.4069   -7.7969  -16.6995 C   0  0  0  0  0  0  0  0  0  0  0  0
   15.6659   -6.9464  -16.8088 C   0  0  0  0  0  0  0  0  0  0  0  0
   16.7677   -7.5653  -16.0195 C   0  0  0  0  0  0  0  0  0  0  0  0
   18.0546   -6.7934  -16.0170 C   0  0  2  0  0  0  0  0  0  0  0  0
   19.0338   -7.5119  -15.2287 N   0  0  0  0  0  0  0  0  0  0  0  0
   17.9077   -5.3942  -15.5662 C   0  0  0  0  0  0  0  0  0  0  0  0
   18.1961   -4.9878  -14.4159 O   0  0  0  0  0  0  0  0  0  0  0  0
   17.4164   -4.4092  -16.4446 O   0  0  0  0  0  0  0  0  0  0  0  0
  2  1  1  1
  2  3  1  0
  3  4  1  0
  4  5  1  0
  5  6  1  0
  6  7  1  0
  8  2  1  0
  8  9  2  0
 11 10  1  0
 12 11  1  6
 12 13  1  0
 13  8  1  0
 14 12  1  0
 15 14  2  0
 17 16  1  0
 18 17  2  0
 19 17  1  0
 20 19  1  0
 21 22  1  0
 21 20  1  0
 23 24  1  0
 23 22  1  1
 24 14  1  0
 25 23  1  0
 26 25  2  0
 27 25  1  0
M  END
$$$$
