KSR.pdb
     RDKit          3D

 27 26  0  0  1  0  0  0  0  0999 V2000
   24.2530  -13.2266  -20.0278 N   0  0  0  0  0  0  0  0  0  0  0  0
   23.3507  -12.1055  -20.1450 C   0  0  1  0  0  0  0  0  0  0  0  0
   21.9519  -12.5257  -20.3983 C   0  0  0  0  0  0  0  0  0  0  0  0
   21.8003  -13.2194  -21.7053 C   0  0  0  0  0  0  0  0  0  0  0  0
   20.4215  -13.5385  -22.1566 C   0  0  0  0  0  0  0  0  0  0  0  0
   20.5086  -14.3089  -23.4979 C   0  0  0  0  0  0  0  0  0  0  0  0
   19.2102  -14.6725  -23.9636 N   0  0  0  0  0  0  0  0  0  0  0  0
   23.4778  -11.3086  -18.8745 C   0  0  0  0  0  0  0  0  0  0  0  0
   23.1023  -11.7812  -17.7796 O   0  0  0  0  0  0  0  0  0  0  0  0
   24.3735   -7.2488  -19.1954 O   0  0  0  0  0  0  0  0  0  0  0  0
   24.9617   -7.9016  -18.1063 C   0  0  0  0  0  0  0  0  0  0  0  0
   24.1733   -9.1657  -17.7438 C   0  0  2  0  0  0  0  0  0  0  0  0
   24.0310   -9.9995  -18.9064 N   0  0  0  0  0  0  0  0  0  0  0  0
   22.8300   -8.7196  -17.3097 C   0  0  0  0  0  0  0  0  0  0  0  0
   21.9543   -8.5272  -18.1983 O   0  0  0  0  0  0  0  0  0  0  0  0
   16.4789  -12.7364  -14.9137 N   0  0  0  0  0  0  0  0  0  0  0  0
   16.2829  -11.8623  -15.9979 C   0  0  0  0  0  0  0  0  0  0  0  0
   15.3023  -12.0497  -16.7926 N   0  0  0  0  0  0  0  0  0  0  0  0
   17.1799  -10.7754  -16.2002 N   0  0  0  0  0  0  0  0  0  0  0  0
   18.2870  -10.5129  -15.3238 C   0  0  0  0  0  0  0  0  0  0  0  0
   19.0453   -9.3290  -15.9105 C   0  0  0  0  0  0  0  0  0  0  0  0
   20.2958   -9.0919  -15.1359 C   0  0  0  0  0  0  0  0  0  0  0  0
   21.1561   -7.9752  -15.6504 C   0  0  2  0  0  0  0  0  0  0  0  0
   22.4712   -8.4968  -15.9585 N   0  0  0  0  0  0  0  0  0  0  0  0
   21.2265   -6.8120  -14.7423 C   0  0  0  0  0  0  0  0  0  0  0  0
   22.2263   -6.5184  -14.0453 O   0  0  0  0  0  0  0  0  0  0  0  0
   20.1275   -5.9413  -14.6114 O   0  0  0  0  0  0  0  0  0  0  0  0
  2  1  1  1
  2  3  1  0
  3  4  1  0
  4  5  1  0
  5  6  1  0
  6  7  1  0
  8  2  1  0
  8  9  2  0
 11 10  1  0
 12 11  1  6
 12 13  1  0
 13  8  1  0
 14 12  1  0
 15 14  2  0
 17 16  1  0
 18 17  2  0
 19 17  1  0
 20 19  1  0
 21 22  1  0
 21 20  1  0
 23 24  1  0
 23 22  1  1
 24 14  1  0
 25 23  1  0
 26 25  2  0
 27 25  1  0
M  END
$$$$
