KSR.pdb
     RDKit          3D

 27 26  0  0  1  0  0  0  0  0999 V2000
   19.9055  -14.9054  -16.4489 N   0  0  0  0  0  0  0  0  0  0  0  0
   19.9197  -13.6035  -17.0730 C   0  0  1  0  0  0  0  0  0  0  0  0
   18.6298  -13.2710  -17.7236 C   0  0  0  0  0  0  0  0  0  0  0  0
   18.2297  -14.2875  -18.7330 C   0  0  0  0  0  0  0  0  0  0  0  0
   16.9845  -14.0365  -19.5029 C   0  0  0  0  0  0  0  0  0  0  0  0
   16.7909  -15.1924  -20.5163 C   0  0  0  0  0  0  0  0  0  0  0  0
   15.6093  -14.9996  -21.2918 N   0  0  0  0  0  0  0  0  0  0  0  0
   20.2826  -12.6103  -16.0021 C   0  0  0  0  0  0  0  0  0  0  0  0
   19.6200  -12.5352  -14.9445 O   0  0  0  0  0  0  0  0  0  0  0  0
   23.7769  -10.3801  -16.5126 O   0  0  0  0  0  0  0  0  0  0  0  0
   23.2468  -10.4972  -15.2228 C   0  0  0  0  0  0  0  0  0  0  0  0
   21.7247  -10.6737  -15.2780 C   0  0  2  0  0  0  0  0  0  0  0  0
   21.3919  -11.7400  -16.1832 N   0  0  0  0  0  0  0  0  0  0  0  0
   21.1685   -9.4078  -15.8074 C   0  0  0  0  0  0  0  0  0  0  0  0
   21.0899   -9.2739  -17.0602 O   0  0  0  0  0  0  0  0  0  0  0  0
   13.8552   -5.5415  -15.6241 N   0  0  0  0  0  0  0  0  0  0  0  0
   14.5955   -6.1870  -16.6307 C   0  0  0  0  0  0  0  0  0  0  0  0
   13.9874   -6.7539  -17.5987 N   0  0  0  0  0  0  0  0  0  0  0  0
   16.0174   -6.2027  -16.5617 N   0  0  0  0  0  0  0  0  0  0  0  0
   16.7468   -5.5816  -15.4916 C   0  0  0  0  0  0  0  0  0  0  0  0
   18.2236   -5.6623  -15.8569 C   0  0  0  0  0  0  0  0  0  0  0  0
   18.8141   -6.9173  -15.3125 C   0  0  0  0  0  0  0  0  0  0  0  0
   20.2711   -7.1130  -15.6136 C   0  0  2  0  0  0  0  0  0  0  0  0
   20.7203   -8.3410  -14.9919 N   0  0  0  0  0  0  0  0  0  0  0  0
   21.1169   -5.9636  -15.2312 C   0  0  0  0  0  0  0  0  0  0  0  0
   21.9634   -5.9851  -14.3068 O   0  0  0  0  0  0  0  0  0  0  0  0
   21.0077   -4.7380  -15.9161 O   0  0  0  0  0  0  0  0  0  0  0  0
  2  1  1  1
  2  3  1  0
  3  4  1  0
  4  5  1  0
  5  6  1  0
  6  7  1  0
  8  2  1  0
  8  9  2  0
 11 10  1  0
 12 11  1  6
 12 13  1  0
 13  8  1  0
 14 12  1  0
 15 14  2  0
 17 16  1  0
 18 17  2  0
 19 17  1  0
 20 19  1  0
 21 22  1  0
 21 20  1  0
 23 24  1  0
 23 22  1  1
 24 14  1  0
 25 23  1  0
 26 25  2  0
 27 25  1  0
M  END
$$$$
