KSR.pdb
     RDKit          3D

 27 26  0  0  1  0  0  0  0  0999 V2000
   27.5072  -21.9667  -16.3838 N   0  0  0  0  0  0  0  0  0  0  0  0
   27.1274  -20.8701  -15.5247 C   0  0  1  0  0  0  0  0  0  0  0  0
   26.4950  -19.7562  -16.2708 C   0  0  0  0  0  0  0  0  0  0  0  0
   27.3659  -19.2436  -17.3623 C   0  0  0  0  0  0  0  0  0  0  0  0
   28.8061  -19.0475  -17.0559 C   0  0  0  0  0  0  0  0  0  0  0  0
   29.4833  -18.3808  -18.2795 C   0  0  0  0  0  0  0  0  0  0  0  0
   30.8901  -18.2551  -18.0795 N   0  0  0  0  0  0  0  0  0  0  0  0
   26.2102  -21.4364  -14.4744 C   0  0  0  0  0  0  0  0  0  0  0  0
   25.4264  -22.3727  -14.7431 O   0  0  0  0  0  0  0  0  0  0  0  0
   24.6741  -20.8580   -9.8396 O   0  0  0  0  0  0  0  0  0  0  0  0
   25.6285  -20.5730  -10.8226 C   0  0  0  0  0  0  0  0  0  0  0  0
   25.2617  -21.2550  -12.1459 C   0  0  2  0  0  0  0  0  0  0  0  0
   26.2257  -20.9084  -13.1546 N   0  0  0  0  0  0  0  0  0  0  0  0
   23.9396  -20.7226  -12.5468 C   0  0  0  0  0  0  0  0  0  0  0  0
   23.9040  -19.6028  -13.1285 O   0  0  0  0  0  0  0  0  0  0  0  0
   23.7062  -17.8833  -17.9168 N   0  0  0  0  0  0  0  0  0  0  0  0
   22.4196  -17.4272  -17.5783 C   0  0  0  0  0  0  0  0  0  0  0  0
   21.9593  -16.3693  -18.1236 N   0  0  0  0  0  0  0  0  0  0  0  0
   21.6410  -18.1492  -16.6301 N   0  0  0  0  0  0  0  0  0  0  0  0
   22.1247  -19.3299  -15.9706 C   0  0  0  0  0  0  0  0  0  0  0  0
   20.9863  -19.8499  -15.1021 C   0  0  0  0  0  0  0  0  0  0  0  0
   21.4432  -21.0328  -14.3198 C   0  0  0  0  0  0  0  0  0  0  0  0
   21.4870  -20.8296  -12.8337 C   0  0  2  0  0  0  0  0  0  0  0  0
   22.7154  -21.3951  -12.3164 N   0  0  0  0  0  0  0  0  0  0  0  0
   20.3010  -21.3552  -12.1265 C   0  0  0  0  0  0  0  0  0  0  0  0
   20.2357  -22.4928  -11.6040 O   0  0  0  0  0  0  0  0  0  0  0  0
   19.1391  -20.5697  -12.0005 O   0  0  0  0  0  0  0  0  0  0  0  0
  2  1  1  6
  2  3  1  0
  3  4  1  0
  4  5  1  0
  5  6  1  0
  6  7  1  0
  8  2  1  0
  8  9  2  0
 11 10  1  0
 12 11  1  1
 12 13  1  0
 13  8  1  0
 14 12  1  0
 15 14  2  0
 17 16  1  0
 18 17  2  0
 19 17  1  0
 20 19  1  0
 21 22  1  0
 21 20  1  0
 23 24  1  0
 23 22  1  6
 24 14  1  0
 25 23  1  0
 26 25  2  0
 27 25  1  0
M  END
$$$$
