KSR.pdb
     RDKit          3D

 27 26  0  0  1  0  0  0  0  0999 V2000
   28.4365  -22.0366  -15.8846 N   0  0  0  0  0  0  0  0  0  0  0  0
   28.0209  -20.9710  -15.0035 C   0  0  1  0  0  0  0  0  0  0  0  0
   27.6390  -19.7418  -15.7389 C   0  0  0  0  0  0  0  0  0  0  0  0
   28.6398  -19.3719  -16.7753 C   0  0  0  0  0  0  0  0  0  0  0  0
   28.4172  -18.1082  -17.5236 C   0  0  0  0  0  0  0  0  0  0  0  0
   29.5862  -17.9149  -18.5219 C   0  0  0  0  0  0  0  0  0  0  0  0
   29.4461  -16.6916  -19.2421 N   0  0  0  0  0  0  0  0  0  0  0  0
   26.8842  -21.5077  -14.1758 C   0  0  0  0  0  0  0  0  0  0  0  0
   26.0329  -22.2754  -14.6748 O   0  0  0  0  0  0  0  0  0  0  0  0
   24.8031  -21.3375   -9.7250 O   0  0  0  0  0  0  0  0  0  0  0  0
   25.9204  -21.0840  -10.5286 C   0  0  0  0  0  0  0  0  0  0  0  0
   25.6600  -21.5296  -11.9724 C   0  0  2  0  0  0  0  0  0  0  0  0
   26.7659  -21.1447  -12.8065 N   0  0  0  0  0  0  0  0  0  0  0  0
   24.4474  -20.8119  -12.4270 C   0  0  0  0  0  0  0  0  0  0  0  0
   24.5670  -19.6005  -12.7616 O   0  0  0  0  0  0  0  0  0  0  0  0
   18.0003  -23.4002  -12.0760 N   0  0  0  0  0  0  0  0  0  0  0  0
   17.4397  -23.0050  -13.3039 C   0  0  0  0  0  0  0  0  0  0  0  0
   16.1988  -22.7148  -13.3688 N   0  0  0  0  0  0  0  0  0  0  0  0
   18.2611  -22.9318  -14.4644 N   0  0  0  0  0  0  0  0  0  0  0  0
   19.6908  -22.8155  -14.3940 C   0  0  0  0  0  0  0  0  0  0  0  0
   20.0065  -21.3362  -14.2131 C   0  0  0  0  0  0  0  0  0  0  0  0
   21.4820  -21.1292  -14.1990 C   0  0  0  0  0  0  0  0  0  0  0  0
   22.0332  -20.5941  -12.9100 C   0  0  2  0  0  0  0  0  0  0  0  0
   23.1642  -21.4041  -12.5084 N   0  0  0  0  0  0  0  0  0  0  0  0
   21.0275  -20.4845  -11.8333 C   0  0  0  0  0  0  0  0  0  0  0  0
   21.0348  -21.1734  -10.7859 O   0  0  0  0  0  0  0  0  0  0  0  0
   19.9687  -19.5618  -11.9369 O   0  0  0  0  0  0  0  0  0  0  0  0
  2  1  1  6
  2  3  1  0
  3  4  1  0
  4  5  1  0
  5  6  1  0
  6  7  1  0
  8  2  1  0
  8  9  2  0
 11 10  1  0
 12 11  1  1
 12 13  1  0
 13  8  1  0
 14 12  1  0
 15 14  2  0
 17 16  1  0
 18 17  2  0
 19 17  1  0
 20 19  1  0
 21 22  1  0
 21 20  1  0
 23 24  1  0
 23 22  1  6
 24 14  1  0
 25 23  1  0
 26 25  2  0
 27 25  1  0
M  END
$$$$
