KSR.pdb
     RDKit          3D

 27 26  0  0  1  0  0  0  0  0999 V2000
   16.2790  -12.2668  -18.7978 N   0  0  0  0  0  0  0  0  0  0  0  0
   16.9682  -12.1115  -17.5386 C   0  0  1  0  0  0  0  0  0  0  0  0
   18.1632  -12.9824  -17.4336 C   0  0  0  0  0  0  0  0  0  0  0  0
   17.8025  -14.4173  -17.2809 C   0  0  0  0  0  0  0  0  0  0  0  0
   18.9087  -15.3821  -17.0528 C   0  0  0  0  0  0  0  0  0  0  0  0
   18.2990  -16.7930  -16.8577 C   0  0  0  0  0  0  0  0  0  0  0  0
   19.3221  -17.7751  -16.7046 N   0  0  0  0  0  0  0  0  0  0  0  0
   17.3210  -10.6540  -17.4113 C   0  0  0  0  0  0  0  0  0  0  0  0
   17.6015   -9.9705  -18.4199 O   0  0  0  0  0  0  0  0  0  0  0  0
   16.3746   -8.8269  -13.8782 O   0  0  0  0  0  0  0  0  0  0  0  0
   16.5886   -8.0182  -15.0001 C   0  0  0  0  0  0  0  0  0  0  0  0
   17.6400   -8.6435  -15.9245 C   0  0  2  0  0  0  0  0  0  0  0  0
   17.3388  -10.0339  -16.1322 N   0  0  0  0  0  0  0  0  0  0  0  0
   18.9399   -8.5367  -15.2240 C   0  0  0  0  0  0  0  0  0  0  0  0
   19.3192   -9.5186  -14.5270 O   0  0  0  0  0  0  0  0  0  0  0  0
   25.6314  -11.6561  -16.5655 N   0  0  0  0  0  0  0  0  0  0  0  0
   24.5643  -11.8139  -15.6630 C   0  0  0  0  0  0  0  0  0  0  0  0
   24.1846  -12.9860  -15.3308 N   0  0  0  0  0  0  0  0  0  0  0  0
   23.9165  -10.6650  -15.1271 N   0  0  0  0  0  0  0  0  0  0  0  0
   24.2377   -9.3296  -15.5471 C   0  0  0  0  0  0  0  0  0  0  0  0
   23.3679   -8.3860  -14.7263 C   0  0  0  0  0  0  0  0  0  0  0  0
   22.0031   -8.3078  -15.3188 C   0  0  0  0  0  0  0  0  0  0  0  0
   21.0468   -7.4117  -14.5878 C   0  0  2  0  0  0  0  0  0  0  0  0
   19.7809   -7.3999  -15.2905 N   0  0  0  0  0  0  0  0  0  0  0  0
   21.5635   -6.0456  -14.3659 C   0  0  0  0  0  0  0  0  0  0  0  0
   22.6124   -5.7804  -13.7326 O   0  0  0  0  0  0  0  0  0  0  0  0
   20.8732   -4.9297  -14.8770 O   0  0  0  0  0  0  0  0  0  0  0  0
  2  1  1  6
  2  3  1  0
  3  4  1  0
  4  5  1  0
  5  6  1  0
  6  7  1  0
  8  2  1  0
  8  9  2  0
 11 10  1  0
 12 11  1  1
 12 13  1  0
 13  8  1  0
 14 12  1  0
 15 14  2  0
 17 16  1  0
 18 17  2  0
 19 17  1  0
 20 19  1  0
 21 22  1  0
 21 20  1  0
 23 24  1  0
 23 22  1  6
 24 14  1  0
 25 23  1  0
 26 25  2  0
 27 25  1  0
M  END
$$$$
