DPM.pdb
     RDKit          3D

 24 24  0  0  1  0  0  0  0  0999 V2000
    8.4620  -19.2202   20.1728 N   0  0  0  0  0  0  0  0  0  0  0  0
    7.5890  -18.4720   21.0556 C   0  0  1  0  0  0  0  0  0  0  0  0
    7.2222  -19.4323   22.1786 C   0  0  0  0  0  0  0  0  0  0  0  0
    6.2502  -18.7535   23.0647 C   0  0  0  0  0  0  0  0  0  0  0  0
    5.3211  -18.0728   22.5838 O   0  0  0  0  0  0  0  0  0  0  0  0
    8.2889  -17.2649   21.6330 C   0  0  0  0  0  0  0  0  0  0  0  0
    8.9729  -17.5251   22.6555 O   0  0  0  0  0  0  0  0  0  0  0  0
    6.3468  -18.8563   24.4443 O   0  0  0  0  0  0  0  0  0  0  0  0
    8.1589  -16.0030   21.0530 N   0  0  0  0  0  0  0  0  0  0  0  0
    7.5643  -15.8214   19.6998 C   0  0  0  0  0  0  0  0  0  0  0  0
    6.5764  -14.7394   19.9863 C   0  0  0  0  0  0  0  0  0  0  0  0
    7.0809  -14.0118   21.2248 C   0  0  0  0  0  0  0  0  0  0  0  0
    8.4537  -14.6689   21.4165 C   0  0  1  0  0  0  0  0  0  0  0  0
    9.0241  -14.3658   22.7086 C   0  0  0  0  0  0  0  0  0  0  0  0
    9.5012  -13.2557   22.9970 O   0  0  0  0  0  0  0  0  0  0  0  0
    6.3835  -11.0469   27.9577 C   0  0  0  0  0  0  0  0  0  0  0  0
    6.1926  -12.3883   26.7509 S   0  0  0  0  0  0  0  0  0  0  0  0
    7.7443  -13.2688   26.4761 C   0  0  0  0  0  0  0  0  0  0  0  0
    7.6178  -14.3348   25.4266 C   0  0  0  0  0  0  0  0  0  0  0  0
    8.9120  -15.0037   25.1629 C   0  0  2  0  0  0  0  0  0  0  0  0
    9.0766  -15.3451   23.7586 N   0  0  0  0  0  0  0  0  0  0  0  0
    9.1308  -16.1507   26.0398 C   0  0  0  0  0  0  0  0  0  0  0  0
    8.8759  -17.3083   25.5345 O   0  0  0  0  0  0  0  0  0  0  0  0
    9.5752  -16.1596   27.3313 O   0  0  0  0  0  0  0  0  0  0  0  0
  2  1  1  6
  2  3  1  0
  3  4  1  0
  4  8  1  0
  5  4  2  0
  6  7  2  0
  6  2  1  0
  9  6  1  0
 10  9  1  0
 11 10  1  0
 12 11  1  0
 12 13  1  0
 13 14  1  1
 13  9  1  0
 14 21  1  0
 15 14  2  0
 17 16  1  0
 17 18  1  0
 19 18  1  0
 20 19  1  6
 21 20  1  0
 22 24  1  0
 22 20  1  0
 23 22  2  0
M  END
$$$$
