DPM.pdb
     RDKit          3D

 24 24  0  0  1  0  0  0  0  0999 V2000
   12.8602  -14.0085   19.2515 N   0  0  0  0  0  0  0  0  0  0  0  0
   11.5009  -14.5094   19.2000 C   0  0  1  0  0  0  0  0  0  0  0  0
   11.6256  -16.0073   18.9582 C   0  0  0  0  0  0  0  0  0  0  0  0
   12.2952  -16.2081   17.6536 C   0  0  0  0  0  0  0  0  0  0  0  0
   11.6595  -16.0779   16.5874 O   0  0  0  0  0  0  0  0  0  0  0  0
   10.7726  -14.2675   20.5006 C   0  0  0  0  0  0  0  0  0  0  0  0
   11.4723  -14.5074   21.5175 O   0  0  0  0  0  0  0  0  0  0  0  0
   13.6389  -16.5441   17.5833 O   0  0  0  0  0  0  0  0  0  0  0  0
    9.4513  -13.8211   20.5214 N   0  0  0  0  0  0  0  0  0  0  0  0
    8.9219  -12.8947   19.4825 C   0  0  0  0  0  0  0  0  0  0  0  0
    7.6691  -13.6111   19.1006 C   0  0  0  0  0  0  0  0  0  0  0  0
    7.2915  -14.4833   20.2898 C   0  0  0  0  0  0  0  0  0  0  0  0
    8.3123  -14.0172   21.3357 C   0  0  1  0  0  0  0  0  0  0  0  0
    8.3646  -14.9038   22.4751 C   0  0  0  0  0  0  0  0  0  0  0  0
    8.9321  -16.0085   22.4506 O   0  0  0  0  0  0  0  0  0  0  0  0
    6.5511  -10.5248   26.7384 C   0  0  0  0  0  0  0  0  0  0  0  0
    6.2259  -12.3079   26.8229 S   0  0  0  0  0  0  0  0  0  0  0  0
    7.5823  -13.2707   26.1216 C   0  0  0  0  0  0  0  0  0  0  0  0
    7.2920  -14.7436   26.1127 C   0  0  0  0  0  0  0  0  0  0  0  0
    7.8414  -15.4054   24.9077 C   0  0  2  0  0  0  0  0  0  0  0  0
    7.7535  -14.5581   23.7286 N   0  0  0  0  0  0  0  0  0  0  0  0
    7.2555  -16.7244   24.6853 C   0  0  0  0  0  0  0  0  0  0  0  0
    6.4306  -16.8203   23.7000 O   0  0  0  0  0  0  0  0  0  0  0  0
    7.4692  -17.8775   25.3854 O   0  0  0  0  0  0  0  0  0  0  0  0
  2  1  1  1
  2  3  1  0
  3  4  1  0
  4  8  1  0
  5  4  2  0
  6  7  2  0
  6  2  1  0
  9  6  1  0
 10  9  1  0
 11 10  1  0
 12 11  1  0
 12 13  1  0
 13 14  1  1
 13  9  1  0
 14 21  1  0
 15 14  2  0
 17 16  1  0
 17 18  1  0
 19 18  1  0
 20 19  1  1
 21 20  1  0
 22 24  1  0
 22 20  1  0
 23 22  2  0
M  END
$$$$
