DPM.pdb
     RDKit          3D

 24 24  0  0  1  0  0  0  0  0999 V2000
   12.0868  -13.8989   18.6620 N   0  0  0  0  0  0  0  0  0  0  0  0
   11.6014  -15.1875   19.1150 C   0  0  1  0  0  0  0  0  0  0  0  0
   12.8447  -16.0359   19.3432 C   0  0  0  0  0  0  0  0  0  0  0  0
   13.5791  -16.1290   18.0615 C   0  0  0  0  0  0  0  0  0  0  0  0
   13.1245  -15.5940   17.0295 O   0  0  0  0  0  0  0  0  0  0  0  0
   10.8305  -15.0649   20.4078 C   0  0  0  0  0  0  0  0  0  0  0  0
   11.4732  -14.4852   21.3200 O   0  0  0  0  0  0  0  0  0  0  0  0
   14.7844  -16.8095   17.9753 O   0  0  0  0  0  0  0  0  0  0  0  0
    9.5331  -15.5622   20.5302 N   0  0  0  0  0  0  0  0  0  0  0  0
    8.5916  -15.5843   19.3766 C   0  0  0  0  0  0  0  0  0  0  0  0
    8.1169  -16.9980   19.4475 C   0  0  0  0  0  0  0  0  0  0  0  0
    8.3226  -17.4502   20.8866 C   0  0  0  0  0  0  0  0  0  0  0  0
    8.7435  -16.1346   21.5538 C   0  0  1  0  0  0  0  0  0  0  0  0
    9.2895  -16.3468   22.8743 C   0  0  0  0  0  0  0  0  0  0  0  0
   10.2958  -17.0426   23.0895 O   0  0  0  0  0  0  0  0  0  0  0  0
   10.7778  -13.7573   29.9377 C   0  0  0  0  0  0  0  0  0  0  0  0
    9.5879  -13.5681   28.5811 S   0  0  0  0  0  0  0  0  0  0  0  0
    9.3199  -15.1222   27.7027 C   0  0  0  0  0  0  0  0  0  0  0  0
    8.7669  -14.9103   26.3232 C   0  0  0  0  0  0  0  0  0  0  0  0
    9.2189  -15.9600   25.3820 C   0  0  2  0  0  0  0  0  0  0  0  0
    8.6933  -15.7571   24.0409 N   0  0  0  0  0  0  0  0  0  0  0  0
    8.9507  -17.3051   25.8830 C   0  0  0  0  0  0  0  0  0  0  0  0
    7.8559  -17.8530   25.4805 O   0  0  0  0  0  0  0  0  0  0  0  0
    9.7120  -18.0654   26.7244 O   0  0  0  0  0  0  0  0  0  0  0  0
  2  1  1  1
  2  3  1  0
  3  4  1  0
  4  8  1  0
  5  4  2  0
  6  7  2  0
  6  2  1  0
  9  6  1  0
 10  9  1  0
 11 10  1  0
 12 11  1  0
 12 13  1  0
 13 14  1  1
 13  9  1  0
 14 21  1  0
 15 14  2  0
 17 16  1  0
 17 18  1  0
 19 18  1  0
 20 19  1  1
 21 20  1  0
 22 24  1  0
 22 20  1  0
 23 22  2  0
M  END
$$$$
