DPM.pdb
     RDKit          3D

 24 24  0  0  1  0  0  0  0  0999 V2000
    8.0429  -18.6479   20.4851 N   0  0  0  0  0  0  0  0  0  0  0  0
    9.4719  -18.4932   20.6732 C   0  0  1  0  0  0  0  0  0  0  0  0
   10.0736  -18.5170   19.2750 C   0  0  0  0  0  0  0  0  0  0  0  0
   11.5457  -18.4386   19.4067 C   0  0  0  0  0  0  0  0  0  0  0  0
   12.1355  -19.0602   20.3142 O   0  0  0  0  0  0  0  0  0  0  0  0
    9.8028  -17.1803   21.3422 C   0  0  0  0  0  0  0  0  0  0  0  0
   10.8612  -17.2175   22.0202 O   0  0  0  0  0  0  0  0  0  0  0  0
   12.3029  -17.6766   18.5297 O   0  0  0  0  0  0  0  0  0  0  0  0
    8.9830  -16.0618   21.1930 N   0  0  0  0  0  0  0  0  0  0  0  0
    8.1412  -15.8648   19.9805 C   0  0  0  0  0  0  0  0  0  0  0  0
    6.8261  -15.5570   20.6166 C   0  0  0  0  0  0  0  0  0  0  0  0
    7.1348  -15.0251   22.0092 C   0  0  0  0  0  0  0  0  0  0  0  0
    8.6636  -14.9124   21.9518 C   0  0  1  0  0  0  0  0  0  0  0  0
    9.2417  -14.7086   23.2599 C   0  0  0  0  0  0  0  0  0  0  0  0
    9.6834  -13.6130   23.6441 O   0  0  0  0  0  0  0  0  0  0  0  0
    6.1449  -11.0889   26.6966 C   0  0  0  0  0  0  0  0  0  0  0  0
    6.0752  -12.8741   26.3797 S   0  0  0  0  0  0  0  0  0  0  0  0
    7.7157  -13.5673   26.0850 C   0  0  0  0  0  0  0  0  0  0  0  0
    7.6731  -15.0457   25.8277 C   0  0  0  0  0  0  0  0  0  0  0  0
    9.0274  -15.6080   25.6238 C   0  0  2  0  0  0  0  0  0  0  0  0
    9.3441  -15.7776   24.2143 N   0  0  0  0  0  0  0  0  0  0  0  0
    9.2385  -16.8336   26.3891 C   0  0  0  0  0  0  0  0  0  0  0  0
    9.2697  -16.7042   27.6708 O   0  0  0  0  0  0  0  0  0  0  0  0
    9.4055  -18.1070   25.9242 O   0  0  0  0  0  0  0  0  0  0  0  0
  2  1  1  6
  2  3  1  0
  3  4  1  0
  4  8  1  0
  5  4  2  0
  6  7  2  0
  6  2  1  0
  9  6  1  0
 10  9  1  0
 11 10  1  0
 12 11  1  0
 12 13  1  0
 13 14  1  1
 13  9  1  0
 14 21  1  0
 15 14  2  0
 17 16  1  0
 17 18  1  0
 19 18  1  0
 20 19  1  6
 21 20  1  0
 22 24  1  0
 22 20  1  0
 23 22  2  0
M  END
$$$$
