DPM.pdb
     RDKit          3D

 24 24  0  0  1  0  0  0  0  0999 V2000
   12.3297  -17.4959   19.0670 N   0  0  0  0  0  0  0  0  0  0  0  0
   11.2601  -17.9505   19.9334 C   0  0  1  0  0  0  0  0  0  0  0  0
   11.9425  -18.7147   21.0594 C   0  0  0  0  0  0  0  0  0  0  0  0
   12.7976  -19.7598   20.4534 C   0  0  0  0  0  0  0  0  0  0  0  0
   12.2944  -20.8111   20.0067 O   0  0  0  0  0  0  0  0  0  0  0  0
   10.4839  -16.7903   20.5095 C   0  0  0  0  0  0  0  0  0  0  0  0
   11.2005  -15.9764   21.1460 O   0  0  0  0  0  0  0  0  0  0  0  0
   14.1722  -19.5982   20.3670 O   0  0  0  0  0  0  0  0  0  0  0  0
    9.1059  -16.6756   20.3267 N   0  0  0  0  0  0  0  0  0  0  0  0
    8.4574  -17.0173   19.0304 C   0  0  0  0  0  0  0  0  0  0  0  0
    7.3567  -17.9049   19.5091 C   0  0  0  0  0  0  0  0  0  0  0  0
    7.0982  -17.5264   20.9609 C   0  0  0  0  0  0  0  0  0  0  0  0
    7.9934  -16.2895   21.1091 C   0  0  1  0  0  0  0  0  0  0  0  0
    8.1622  -15.9048   22.4913 C   0  0  0  0  0  0  0  0  0  0  0  0
    8.5948  -16.6767   23.3631 O   0  0  0  0  0  0  0  0  0  0  0  0
    6.3497  -10.7011   28.2083 C   0  0  0  0  0  0  0  0  0  0  0  0
    6.2196  -11.1601   26.4577 S   0  0  0  0  0  0  0  0  0  0  0  0
    6.9182  -12.7939   26.1392 C   0  0  0  0  0  0  0  0  0  0  0  0
    6.8923  -13.1516   24.6815 C   0  0  0  0  0  0  0  0  0  0  0  0
    7.8791  -14.2062   24.3560 C   0  0  2  0  0  0  0  0  0  0  0  0
    7.8351  -14.5839   22.9521 N   0  0  0  0  0  0  0  0  0  0  0  0
    7.7675  -15.3610   25.2428 C   0  0  0  0  0  0  0  0  0  0  0  0
    8.6221  -15.4222   26.2054 O   0  0  0  0  0  0  0  0  0  0  0  0
    6.8705  -16.3896   25.1888 O   0  0  0  0  0  0  0  0  0  0  0  0
  2  1  1  6
  2  3  1  0
  3  4  1  0
  4  8  1  0
  5  4  2  0
  6  7  2  0
  6  2  1  0
  9  6  1  0
 10  9  1  0
 11 10  1  0
 12 11  1  0
 12 13  1  0
 13 14  1  1
 13  9  1  0
 14 21  1  0
 15 14  2  0
 17 16  1  0
 17 18  1  0
 19 18  1  0
 20 19  1  1
 21 20  1  0
 22 24  1  0
 22 20  1  0
 23 22  2  0
M  END
$$$$
