DPM.pdb
     RDKit          3D

 24 24  0  0  1  0  0  0  0  0999 V2000
   12.6518  -14.0424   18.5547 N   0  0  0  0  0  0  0  0  0  0  0  0
   11.3928  -14.7605   18.5319 C   0  0  1  0  0  0  0  0  0  0  0  0
   11.7485  -16.1989   18.1821 C   0  0  0  0  0  0  0  0  0  0  0  0
   10.4915  -16.9758   18.0983 C   0  0  0  0  0  0  0  0  0  0  0  0
   10.1450  -17.7249   19.0347 O   0  0  0  0  0  0  0  0  0  0  0  0
   10.7102  -14.7232   19.8784 C   0  0  0  0  0  0  0  0  0  0  0  0
   11.2504  -15.4702   20.7336 O   0  0  0  0  0  0  0  0  0  0  0  0
    9.6713  -16.8916   16.9833 O   0  0  0  0  0  0  0  0  0  0  0  0
    9.5912  -13.9216   20.1038 N   0  0  0  0  0  0  0  0  0  0  0  0
    9.2254  -12.8113   19.1813 C   0  0  0  0  0  0  0  0  0  0  0  0
    7.7795  -13.1122   18.9629 C   0  0  0  0  0  0  0  0  0  0  0  0
    7.3212  -13.9232   20.1670 C   0  0  0  0  0  0  0  0  0  0  0  0
    8.5601  -13.8427   21.0680 C   0  0  1  0  0  0  0  0  0  0  0  0
    8.4985  -14.7863   22.1601 C   0  0  0  0  0  0  0  0  0  0  0  0
    8.6585  -16.0091   22.0111 O   0  0  0  0  0  0  0  0  0  0  0  0
    6.1127  -11.3410   27.0169 C   0  0  0  0  0  0  0  0  0  0  0  0
    6.4180  -13.0506   27.5426 S   0  0  0  0  0  0  0  0  0  0  0  0
    6.6013  -14.1629   26.1326 C   0  0  0  0  0  0  0  0  0  0  0  0
    8.0251  -14.5906   25.9242 C   0  0  0  0  0  0  0  0  0  0  0  0
    8.2064  -15.2884   24.6310 C   0  0  2  0  0  0  0  0  0  0  0  0
    8.2440  -14.3631   23.5093 N   0  0  0  0  0  0  0  0  0  0  0  0
    7.2276  -16.3543   24.4356 C   0  0  0  0  0  0  0  0  0  0  0  0
    6.2564  -16.0925   23.6301 O   0  0  0  0  0  0  0  0  0  0  0  0
    7.2063  -17.6005   24.9944 O   0  0  0  0  0  0  0  0  0  0  0  0
  2  1  1  1
  2  3  1  0
  3  4  1  0
  4  8  1  0
  5  4  2  0
  6  7  2  0
  6  2  1  0
  9  6  1  0
 10  9  1  0
 11 10  1  0
 12 11  1  0
 12 13  1  0
 13 14  1  1
 13  9  1  0
 14 21  1  0
 15 14  2  0
 17 16  1  0
 17 18  1  0
 19 18  1  0
 20 19  1  1
 21 20  1  0
 22 24  1  0
 22 20  1  0
 23 22  2  0
M  END
$$$$
