DPM.pdb
     RDKit          3D

 24 24  0  0  1  0  0  0  0  0999 V2000
   12.9303  -13.9886   18.9443 N   0  0  0  0  0  0  0  0  0  0  0  0
   11.5471  -14.4119   18.8495 C   0  0  1  0  0  0  0  0  0  0  0  0
   11.5954  -15.8939   18.5048 C   0  0  0  0  0  0  0  0  0  0  0  0
   12.9321  -16.4091   18.8772 C   0  0  0  0  0  0  0  0  0  0  0  0
   13.0662  -17.5732   19.3072 O   0  0  0  0  0  0  0  0  0  0  0  0
   10.8197  -14.2223   20.1593 C   0  0  0  0  0  0  0  0  0  0  0  0
   11.4882  -14.5872   21.1598 O   0  0  0  0  0  0  0  0  0  0  0  0
   14.0632  -15.6156   18.7583 O   0  0  0  0  0  0  0  0  0  0  0  0
    9.5313  -13.6899   20.2045 N   0  0  0  0  0  0  0  0  0  0  0  0
    9.0475  -12.7238   19.1796 C   0  0  0  0  0  0  0  0  0  0  0  0
    7.7441  -13.3535   18.8145 C   0  0  0  0  0  0  0  0  0  0  0  0
    7.3291  -14.2069   20.0050 C   0  0  0  0  0  0  0  0  0  0  0  0
    8.3951  -13.8160   21.0364 C   0  0  1  0  0  0  0  0  0  0  0  0
    8.4072  -14.7116   22.1698 C   0  0  0  0  0  0  0  0  0  0  0  0
    8.6860  -15.9187   22.0787 O   0  0  0  0  0  0  0  0  0  0  0  0
    5.6899  -11.3015   27.7105 C   0  0  0  0  0  0  0  0  0  0  0  0
    6.9736  -12.5821   27.6441 S   0  0  0  0  0  0  0  0  0  0  0  0
    7.0430  -13.3787   26.0257 C   0  0  0  0  0  0  0  0  0  0  0  0
    8.1622  -14.3742   25.9268 C   0  0  0  0  0  0  0  0  0  0  0  0
    8.1140  -15.1320   24.6558 C   0  0  2  0  0  0  0  0  0  0  0  0
    8.0923  -14.2554   23.4953 N   0  0  0  0  0  0  0  0  0  0  0  0
    7.0261  -16.1059   24.6333 C   0  0  0  0  0  0  0  0  0  0  0  0
    6.0723  -15.8721   23.7989 O   0  0  0  0  0  0  0  0  0  0  0  0
    6.8858  -17.2398   25.3815 O   0  0  0  0  0  0  0  0  0  0  0  0
  2  1  1  1
  2  3  1  0
  3  4  1  0
  4  8  1  0
  5  4  2  0
  6  7  2  0
  6  2  1  0
  9  6  1  0
 10  9  1  0
 11 10  1  0
 12 11  1  0
 12 13  1  0
 13 14  1  1
 13  9  1  0
 14 21  1  0
 15 14  2  0
 17 16  1  0
 17 18  1  0
 19 18  1  0
 20 19  1  1
 21 20  1  0
 22 24  1  0
 22 20  1  0
 23 22  2  0
M  END
$$$$
