DPM.pdb
     RDKit          3D

 24 24  0  0  1  0  0  0  0  0999 V2000
   10.6116  -17.8978   18.9718 N   0  0  0  0  0  0  0  0  0  0  0  0
    9.3526  -17.5555   19.6035 C   0  0  1  0  0  0  0  0  0  0  0  0
    8.8085  -18.8615   20.1656 C   0  0  0  0  0  0  0  0  0  0  0  0
    8.7280  -19.8403   19.0584 C   0  0  0  0  0  0  0  0  0  0  0  0
    8.4308  -19.4696   17.9042 O   0  0  0  0  0  0  0  0  0  0  0  0
    9.5486  -16.5657   20.7271 C   0  0  0  0  0  0  0  0  0  0  0  0
   10.5161  -16.8481   21.4789 O   0  0  0  0  0  0  0  0  0  0  0  0
    8.9795  -21.1870   19.2743 O   0  0  0  0  0  0  0  0  0  0  0  0
    8.7113  -15.4601   20.8758 N   0  0  0  0  0  0  0  0  0  0  0  0
    8.2821  -14.6410   19.7085 C   0  0  0  0  0  0  0  0  0  0  0  0
    6.8095  -14.5876   19.9479 C   0  0  0  0  0  0  0  0  0  0  0  0
    6.6063  -14.8206   21.4386 C   0  0  0  0  0  0  0  0  0  0  0  0
    8.0552  -14.8030   21.9420 C   0  0  1  0  0  0  0  0  0  0  0  0
    8.1657  -15.3003   23.2938 C   0  0  0  0  0  0  0  0  0  0  0  0
    7.4940  -16.2524   23.7242 O   0  0  0  0  0  0  0  0  0  0  0  0
    6.2392  -10.5040   26.9702 C   0  0  0  0  0  0  0  0  0  0  0  0
    6.2604  -12.3180   27.0009 S   0  0  0  0  0  0  0  0  0  0  0  0
    7.7739  -12.9832   26.2758 C   0  0  0  0  0  0  0  0  0  0  0  0
    7.8126  -14.4834   26.3112 C   0  0  0  0  0  0  0  0  0  0  0  0
    9.0316  -15.0180   25.6630 C   0  0  2  0  0  0  0  0  0  0  0  0
    9.0740  -14.7154   24.2409 N   0  0  0  0  0  0  0  0  0  0  0  0
    9.2224  -16.4407   25.9313 C   0  0  0  0  0  0  0  0  0  0  0  0
    9.3106  -16.7775   27.1721 O   0  0  0  0  0  0  0  0  0  0  0  0
    9.3174  -17.4683   25.0367 O   0  0  0  0  0  0  0  0  0  0  0  0
  2  1  1  1
  2  3  1  0
  3  4  1  0
  4  8  1  0
  5  4  2  0
  6  7  2  0
  6  2  1  0
  9  6  1  0
 10  9  1  0
 11 10  1  0
 12 11  1  0
 12 13  1  0
 13 14  1  1
 13  9  1  0
 14 21  1  0
 15 14  2  0
 17 16  1  0
 17 18  1  0
 19 18  1  0
 20 19  1  6
 21 20  1  0
 22 24  1  0
 22 20  1  0
 23 22  2  0
M  END
$$$$
