DPM.pdb
     RDKit          3D

 24 24  0  0  1  0  0  0  0  0999 V2000
   11.0955  -16.0462   18.5780 N   0  0  0  0  0  0  0  0  0  0  0  0
   10.8554  -16.9546   19.6818 C   0  0  1  0  0  0  0  0  0  0  0  0
   12.2329  -17.3255   20.2134 C   0  0  0  0  0  0  0  0  0  0  0  0
   13.0183  -17.8964   19.0964 C   0  0  0  0  0  0  0  0  0  0  0  0
   12.5039  -18.7251   18.3176 O   0  0  0  0  0  0  0  0  0  0  0  0
   10.0533  -16.2939   20.7775 C   0  0  0  0  0  0  0  0  0  0  0  0
   10.6851  -15.3929   21.3858 O   0  0  0  0  0  0  0  0  0  0  0  0
   14.3386  -17.5269   18.8878 O   0  0  0  0  0  0  0  0  0  0  0  0
    8.7412  -16.6801   21.0513 N   0  0  0  0  0  0  0  0  0  0  0  0
    7.7963  -17.0649   19.9665 C   0  0  0  0  0  0  0  0  0  0  0  0
    7.2776  -18.3548   20.5104 C   0  0  0  0  0  0  0  0  0  0  0  0
    7.4729  -18.2961   22.0191 C   0  0  0  0  0  0  0  0  0  0  0  0
    7.9368  -16.8455   22.2022 C   0  0  1  0  0  0  0  0  0  0  0  0
    8.4795  -16.6120   23.5205 C   0  0  0  0  0  0  0  0  0  0  0  0
    9.6197  -16.9703   23.8588 O   0  0  0  0  0  0  0  0  0  0  0  0
    6.5899  -10.5805   25.7302 C   0  0  0  0  0  0  0  0  0  0  0  0
    6.3548  -12.2100   26.4930 S   0  0  0  0  0  0  0  0  0  0  0  0
    7.6403  -13.3753   25.9947 C   0  0  0  0  0  0  0  0  0  0  0  0
    7.4684  -14.7227   26.6339 C   0  0  0  0  0  0  0  0  0  0  0  0
    8.2061  -15.7772   25.9019 C   0  0  2  0  0  0  0  0  0  0  0  0
    7.7223  -15.9399   24.5398 N   0  0  0  0  0  0  0  0  0  0  0  0
    8.2351  -17.0410   26.6328 C   0  0  0  0  0  0  0  0  0  0  0  0
    7.3891  -17.9358   26.2531 O   0  0  0  0  0  0  0  0  0  0  0  0
    9.0466  -17.4039   27.6698 O   0  0  0  0  0  0  0  0  0  0  0  0
  2  1  1  6
  2  3  1  0
  3  4  1  0
  4  8  1  0
  5  4  2  0
  6  7  2  0
  6  2  1  0
  9  6  1  0
 10  9  1  0
 11 10  1  0
 12 11  1  0
 12 13  1  0
 13 14  1  1
 13  9  1  0
 14 21  1  0
 15 14  2  0
 17 16  1  0
 17 18  1  0
 19 18  1  0
 20 19  1  1
 21 20  1  0
 22 24  1  0
 22 20  1  0
 23 22  2  0
M  END
$$$$
