DPM.pdb
     RDKit          3D

 24 24  0  0  1  0  0  0  0  0999 V2000
   11.9240  -17.3729   19.3372 N   0  0  0  0  0  0  0  0  0  0  0  0
   10.5638  -17.6353   19.7641 C   0  0  1  0  0  0  0  0  0  0  0  0
   10.6409  -18.8843   20.6312 C   0  0  0  0  0  0  0  0  0  0  0  0
   11.3017  -19.9498   19.8446 C   0  0  0  0  0  0  0  0  0  0  0  0
   10.9988  -20.1357   18.6481 O   0  0  0  0  0  0  0  0  0  0  0  0
   10.0087  -16.4904   20.5774 C   0  0  0  0  0  0  0  0  0  0  0  0
   10.8432  -15.9938   21.3762 O   0  0  0  0  0  0  0  0  0  0  0  0
   12.2690  -20.7642   20.4142 O   0  0  0  0  0  0  0  0  0  0  0  0
    8.6908  -16.0608   20.4224 N   0  0  0  0  0  0  0  0  0  0  0  0
    8.0499  -15.9704   19.0812 C   0  0  0  0  0  0  0  0  0  0  0  0
    6.7740  -16.6988   19.3462 C   0  0  0  0  0  0  0  0  0  0  0  0
    6.5268  -16.6039   20.8454 C   0  0  0  0  0  0  0  0  0  0  0  0
    7.6406  -15.6381   21.2693 C   0  0  1  0  0  0  0  0  0  0  0  0
    7.8162  -15.6087   22.7029 C   0  0  0  0  0  0  0  0  0  0  0  0
    8.3376  -16.5373   23.3424 O   0  0  0  0  0  0  0  0  0  0  0  0
    6.8829  -11.5087   29.5015 C   0  0  0  0  0  0  0  0  0  0  0  0
    6.5554  -11.6002   27.7191 S   0  0  0  0  0  0  0  0  0  0  0  0
    7.1432  -13.1521   27.0083 C   0  0  0  0  0  0  0  0  0  0  0  0
    7.0348  -13.1714   25.5112 C   0  0  0  0  0  0  0  0  0  0  0  0
    7.4932  -14.4594   24.9429 C   0  0  2  0  0  0  0  0  0  0  0  0
    7.3920  -14.4856   23.4921 N   0  0  0  0  0  0  0  0  0  0  0  0
    6.8327  -15.6044   25.5637 C   0  0  0  0  0  0  0  0  0  0  0  0
    5.7551  -16.0175   24.9905 O   0  0  0  0  0  0  0  0  0  0  0  0
    7.2093  -16.3014   26.6763 O   0  0  0  0  0  0  0  0  0  0  0  0
  2  1  1  1
  2  3  1  0
  3  4  1  0
  4  8  1  0
  5  4  2  0
  6  7  2  0
  6  2  1  0
  9  6  1  0
 10  9  1  0
 11 10  1  0
 12 11  1  0
 12 13  1  0
 13 14  1  1
 13  9  1  0
 14 21  1  0
 15 14  2  0
 17 16  1  0
 17 18  1  0
 19 18  1  0
 20 19  1  1
 21 20  1  0
 22 24  1  0
 22 20  1  0
 23 22  2  0
M  END
$$$$
