DPM.pdb
     RDKit          3D

 24 24  0  0  1  0  0  0  0  0999 V2000
   13.0136  -14.0858   18.5800 N   0  0  0  0  0  0  0  0  0  0  0  0
   11.6369  -14.5378   18.6188 C   0  0  1  0  0  0  0  0  0  0  0  0
   11.6999  -16.0532   18.4877 C   0  0  0  0  0  0  0  0  0  0  0  0
   12.4616  -16.3771   17.2606 C   0  0  0  0  0  0  0  0  0  0  0  0
   12.1706  -15.8388   16.1727 O   0  0  0  0  0  0  0  0  0  0  0  0
   10.9711  -14.1720   19.9240 C   0  0  0  0  0  0  0  0  0  0  0  0
   11.7132  -14.3335   20.9262 O   0  0  0  0  0  0  0  0  0  0  0  0
   13.5122  -17.2819   17.2885 O   0  0  0  0  0  0  0  0  0  0  0  0
    9.6576  -13.7044   19.9637 N   0  0  0  0  0  0  0  0  0  0  0  0
    9.1044  -12.8332   18.8902 C   0  0  0  0  0  0  0  0  0  0  0  0
    7.8292  -13.5513   18.5953 C   0  0  0  0  0  0  0  0  0  0  0  0
    7.4822  -14.3453   19.8471 C   0  0  0  0  0  0  0  0  0  0  0  0
    8.5456  -13.8339   20.8272 C   0  0  1  0  0  0  0  0  0  0  0  0
    8.6262  -14.6520   22.0152 C   0  0  0  0  0  0  0  0  0  0  0  0
    9.2845  -15.7039   22.0721 O   0  0  0  0  0  0  0  0  0  0  0  0
    9.6487  -14.2296   29.6986 C   0  0  0  0  0  0  0  0  0  0  0  0
    8.8172  -13.4805   28.2704 S   0  0  0  0  0  0  0  0  0  0  0  0
    8.6279  -14.6550   26.9127 C   0  0  0  0  0  0  0  0  0  0  0  0
    8.3231  -13.9763   25.6089 C   0  0  0  0  0  0  0  0  0  0  0  0
    8.1961  -14.9480   24.4992 C   0  0  2  0  0  0  0  0  0  0  0  0
    7.9389  -14.2949   23.2252 N   0  0  0  0  0  0  0  0  0  0  0  0
    7.2212  -15.9956   24.7900 C   0  0  0  0  0  0  0  0  0  0  0  0
    7.4796  -16.7454   25.8056 O   0  0  0  0  0  0  0  0  0  0  0  0
    6.0634  -16.2861   24.1261 O   0  0  0  0  0  0  0  0  0  0  0  0
  2  1  1  1
  2  3  1  0
  3  4  1  0
  4  8  1  0
  5  4  2  0
  6  7  2  0
  6  2  1  0
  9  6  1  0
 10  9  1  0
 11 10  1  0
 12 11  1  0
 12 13  1  0
 13 14  1  1
 13  9  1  0
 14 21  1  0
 15 14  2  0
 17 16  1  0
 17 18  1  0
 19 18  1  0
 20 19  1  1
 21 20  1  0
 22 24  1  0
 22 20  1  0
 23 22  2  0
M  END
$$$$
