DPM.pdb
     RDKit          3D

 24 24  0  0  1  0  0  0  0  0999 V2000
    7.6743  -17.2649   18.4829 N   0  0  0  0  0  0  0  0  0  0  0  0
    7.7844  -17.6429   19.8780 C   0  0  1  0  0  0  0  0  0  0  0  0
    8.7576  -18.8131   19.9092 C   0  0  0  0  0  0  0  0  0  0  0  0
    8.1836  -19.9101   19.0981 C   0  0  0  0  0  0  0  0  0  0  0  0
    7.6169  -20.8765   19.6484 O   0  0  0  0  0  0  0  0  0  0  0  0
    8.3295  -16.5113   20.7164 C   0  0  0  0  0  0  0  0  0  0  0  0
    8.5747  -16.8425   21.9044 O   0  0  0  0  0  0  0  0  0  0  0  0
    8.2606  -19.8919   17.7136 O   0  0  0  0  0  0  0  0  0  0  0  0
    8.5248  -15.2385   20.1804 N   0  0  0  0  0  0  0  0  0  0  0  0
    8.5219  -14.9997   18.7105 C   0  0  0  0  0  0  0  0  0  0  0  0
    7.5783  -13.8456   18.6302 C   0  0  0  0  0  0  0  0  0  0  0  0
    7.6064  -13.1701   19.9942 C   0  0  0  0  0  0  0  0  0  0  0  0
    8.7453  -13.9347   20.6807 C   0  0  1  0  0  0  0  0  0  0  0  0
    8.7835  -13.6880   22.1036 C   0  0  0  0  0  0  0  0  0  0  0  0
    8.6700  -12.5548   22.5998 O   0  0  0  0  0  0  0  0  0  0  0  0
    6.5621  -11.2199   27.7181 C   0  0  0  0  0  0  0  0  0  0  0  0
    6.0269  -12.6777   26.7796 S   0  0  0  0  0  0  0  0  0  0  0  0
    7.4190  -13.7380   26.3364 C   0  0  0  0  0  0  0  0  0  0  0  0
    7.5493  -13.9184   24.8518 C   0  0  0  0  0  0  0  0  0  0  0  0
    8.8312  -14.5624   24.4861 C   0  0  2  0  0  0  0  0  0  0  0  0
    8.9581  -14.7549   23.0499 N   0  0  0  0  0  0  0  0  0  0  0  0
    9.0630  -15.7964   25.2317 C   0  0  0  0  0  0  0  0  0  0  0  0
    8.9748  -16.8915   24.5583 O   0  0  0  0  0  0  0  0  0  0  0  0
    9.3655  -15.9448   26.5553 O   0  0  0  0  0  0  0  0  0  0  0  0
  2  1  1  6
  2  3  1  0
  3  4  1  0
  4  8  1  0
  5  4  2  0
  6  7  2  0
  6  2  1  0
  9  6  1  0
 10  9  1  0
 11 10  1  0
 12 11  1  0
 12 13  1  0
 13 14  1  1
 13  9  1  0
 14 21  1  0
 15 14  2  0
 17 16  1  0
 17 18  1  0
 19 18  1  0
 20 19  1  6
 21 20  1  0
 22 24  1  0
 22 20  1  0
 23 22  2  0
M  END
$$$$
