KYA.pdb
     RDKit          3D

 27 27  0  0  1  0  0  0  0  0999 V2000
    9.1123  -18.4737   20.8411 N   0  0  0  0  0  0  0  0  0  0  0  0
   10.2553  -17.6098   20.9315 C   0  0  1  0  0  0  0  0  0  0  0  0
   10.7062  -17.0694   19.6291 C   0  0  0  0  0  0  0  0  0  0  0  0
   10.8917  -18.0668   18.5368 C   0  0  0  0  0  0  0  0  0  0  0  0
   12.2735  -18.0642   17.9587 C   0  0  0  0  0  0  0  0  0  0  0  0
   12.3825  -19.0832   16.8155 C   0  0  0  0  0  0  0  0  0  0  0  0
   13.7554  -19.1562   16.3640 N   0  0  0  0  0  0  0  0  0  0  0  0
   10.0850  -16.5599   21.9742 C   0  0  0  0  0  0  0  0  0  0  0  0
   11.0129  -15.7415   22.2517 O   0  0  0  0  0  0  0  0  0  0  0  0
    6.5196  -10.9413   27.6573 O   0  0  0  0  0  0  0  0  0  0  0  0
    6.7408  -11.8971   26.6876 C   0  0  0  0  0  0  0  0  0  0  0  0
    7.6548  -11.6855   25.6966 C   0  0  0  0  0  0  0  0  0  0  0  0
    7.8659  -12.6340   24.7448 C   0  0  0  0  0  0  0  0  0  0  0  0
    7.1547  -13.8076   24.7850 C   0  0  0  0  0  0  0  0  0  0  0  0
    7.3340  -14.8654   23.7914 C   0  0  0  0  0  0  0  0  0  0  0  0
    8.7172  -15.4075   23.7709 C   0  0  2  0  0  0  0  0  0  0  0  0
    8.8817  -16.4126   22.7159 N   0  0  0  0  0  0  0  0  0  0  0  0
    9.1238  -15.9047   25.0727 C   0  0  0  0  0  0  0  0  0  0  0  0
    9.1288  -15.1628   26.0749 O   0  0  0  0  0  0  0  0  0  0  0  0
    6.2187  -14.0404   25.7883 C   0  0  0  0  0  0  0  0  0  0  0  0
    6.0229  -13.0692   26.7373 C   0  0  0  0  0  0  0  0  0  0  0  0
    9.9381  -19.3840   26.2071 C   0  0  0  0  0  0  0  0  0  0  0  0
    9.8399  -17.8777   26.4782 C   0  0  2  0  0  0  0  0  0  0  0  0
    9.5264  -17.2505   25.2371 N   0  0  0  0  0  0  0  0  0  0  0  0
   11.1159  -17.4646   27.0634 C   0  0  0  0  0  0  0  0  0  0  0  0
   11.8629  -16.6757   26.4500 O   0  0  0  0  0  0  0  0  0  0  0  0
   11.5110  -17.9379   28.2953 O   0  0  0  0  0  0  0  0  0  0  0  0
  2  3  1  0
  2  1  1  6
  4  3  1  0
  5  6  1  0
  5  4  1  0
  6  7  1  0
  8  2  1  0
  8  9  2  0
 10 11  1  0
 11 12  2  0
 12 13  1  0
 14 13  2  0
 14 15  1  0
 16 15  1  1
 16 17  1  0
 17  8  1  0
 18 16  1  0
 19 18  2  0
 20 14  1  0
 21 11  1  0
 21 20  2  0
 23 22  1  6
 23 25  1  0
 23 24  1  0
 24 18  1  0
 25 27  1  0
 26 25  2  0
M  END
$$$$
