KYA.pdb
     RDKit          3D

 27 27  0  0  1  0  0  0  0  0999 V2000
    7.6894  -16.8182   19.0908 N   0  0  0  0  0  0  0  0  0  0  0  0
    8.7143  -15.8177   19.1885 C   0  0  1  0  0  0  0  0  0  0  0  0
    8.5276  -14.6725   18.2690 C   0  0  0  0  0  0  0  0  0  0  0  0
    7.9799  -14.9992   16.9215 C   0  0  0  0  0  0  0  0  0  0  0  0
    8.2667  -13.9485   15.8933 C   0  0  0  0  0  0  0  0  0  0  0  0
    7.7133  -14.3677   14.5240 C   0  0  0  0  0  0  0  0  0  0  0  0
    7.9985  -13.3345   13.5518 N   0  0  0  0  0  0  0  0  0  0  0  0
    8.9627  -15.4033   20.5975 C   0  0  0  0  0  0  0  0  0  0  0  0
   10.1010  -14.9967   20.9803 O   0  0  0  0  0  0  0  0  0  0  0  0
    7.6541  -12.2426   28.6235 O   0  0  0  0  0  0  0  0  0  0  0  0
    7.4945  -12.7173   27.3382 C   0  0  0  0  0  0  0  0  0  0  0  0
    7.9427  -11.9973   26.2691 C   0  0  0  0  0  0  0  0  0  0  0  0
    7.7808  -12.4737   25.0054 C   0  0  0  0  0  0  0  0  0  0  0  0
    7.1634  -13.6841   24.8090 C   0  0  0  0  0  0  0  0  0  0  0  0
    6.9577  -14.2502   23.4766 C   0  0  0  0  0  0  0  0  0  0  0  0
    8.1581  -14.9570   22.9598 C   0  0  2  0  0  0  0  0  0  0  0  0
    7.9468  -15.4383   21.5908 N   0  0  0  0  0  0  0  0  0  0  0  0
    8.5911  -16.0151   23.8544 C   0  0  0  0  0  0  0  0  0  0  0  0
    7.8299  -16.9540   24.1607 O   0  0  0  0  0  0  0  0  0  0  0  0
    6.7001  -14.4317   25.8875 C   0  0  0  0  0  0  0  0  0  0  0  0
    6.8746  -13.9310   27.1528 C   0  0  0  0  0  0  0  0  0  0  0  0
   11.9577  -17.1130   24.8293 C   0  0  0  0  0  0  0  0  0  0  0  0
   10.4694  -17.0449   25.1931 C   0  0  2  0  0  0  0  0  0  0  0  0
    9.8944  -16.0066   24.4036 N   0  0  0  0  0  0  0  0  0  0  0  0
   10.3921  -16.8246   26.6377 C   0  0  0  0  0  0  0  0  0  0  0  0
   10.8440  -17.6769   27.4288 O   0  0  0  0  0  0  0  0  0  0  0  0
    9.8217  -15.6778   27.1450 O   0  0  0  0  0  0  0  0  0  0  0  0
  2  3  1  0
  2  1  1  1
  4  3  1  0
  5  6  1  0
  5  4  1  0
  6  7  1  0
  8  2  1  0
  8  9  2  0
 10 11  1  0
 11 12  2  0
 12 13  1  0
 14 13  2  0
 14 15  1  0
 16 15  1  1
 16 17  1  0
 17  8  1  0
 18 16  1  0
 19 18  2  0
 20 14  1  0
 21 11  1  0
 21 20  2  0
 23 22  1  6
 23 25  1  0
 23 24  1  0
 24 18  1  0
 25 27  1  0
 26 25  2  0
M  END
$$$$
