KYA.pdb
     RDKit          3D

 27 27  0  0  1  0  0  0  0  0999 V2000
   10.2889  -16.3350   19.4445 N   0  0  0  0  0  0  0  0  0  0  0  0
    9.4053  -16.6108   20.5419 C   0  0  1  0  0  0  0  0  0  0  0  0
    8.7807  -17.9520   20.4897 C   0  0  0  0  0  0  0  0  0  0  0  0
    8.2700  -18.3835   19.1572 C   0  0  0  0  0  0  0  0  0  0  0  0
    6.9572  -17.7602   18.7942 C   0  0  0  0  0  0  0  0  0  0  0  0
    6.4907  -18.2483   17.4154 C   0  0  0  0  0  0  0  0  0  0  0  0
    5.8949  -19.5607   17.5447 N   0  0  0  0  0  0  0  0  0  0  0  0
   10.0324  -16.3073   21.8583 C   0  0  0  0  0  0  0  0  0  0  0  0
   11.2438  -16.5937   22.0996 O   0  0  0  0  0  0  0  0  0  0  0  0
   10.4592  -14.9547   30.5217 O   0  0  0  0  0  0  0  0  0  0  0  0
   10.0635  -14.9490   29.2003 C   0  0  0  0  0  0  0  0  0  0  0  0
    9.2177  -15.9074   28.7223 C   0  0  0  0  0  0  0  0  0  0  0  0
    8.8331  -15.8934   27.4177 C   0  0  0  0  0  0  0  0  0  0  0  0
    9.2999  -14.9095   26.5818 C   0  0  0  0  0  0  0  0  0  0  0  0
    8.9255  -14.8397   25.1700 C   0  0  0  0  0  0  0  0  0  0  0  0
    9.7969  -15.6727   24.3014 C   0  0  2  0  0  0  0  0  0  0  0  0
    9.3169  -15.6832   22.9158 N   0  0  0  0  0  0  0  0  0  0  0  0
    9.9711  -17.0120   24.8336 C   0  0  0  0  0  0  0  0  0  0  0  0
    9.0030  -17.7872   24.9619 O   0  0  0  0  0  0  0  0  0  0  0  0
   10.1630  -13.9241   27.0521 C   0  0  0  0  0  0  0  0  0  0  0  0
   10.5370  -13.9587   28.3716 C   0  0  0  0  0  0  0  0  0  0  0  0
   12.6487  -19.3576   24.8282 C   0  0  0  0  0  0  0  0  0  0  0  0
   11.5480  -18.7739   25.7224 C   0  0  2  0  0  0  0  0  0  0  0  0
   11.2507  -17.4727   25.2219 N   0  0  0  0  0  0  0  0  0  0  0  0
   12.0552  -18.7967   27.0948 C   0  0  0  0  0  0  0  0  0  0  0  0
   12.2579  -19.8838   27.6723 O   0  0  0  0  0  0  0  0  0  0  0  0
   12.3158  -17.6234   27.7681 O   0  0  0  0  0  0  0  0  0  0  0  0
  2  3  1  0
  2  1  1  6
  4  3  1  0
  5  6  1  0
  5  4  1  0
  6  7  1  0
  8  2  1  0
  8  9  2  0
 10 11  1  0
 11 12  2  0
 12 13  1  0
 14 13  2  0
 14 15  1  0
 16 15  1  1
 16 17  1  0
 17  8  1  0
 18 16  1  0
 19 18  2  0
 20 14  1  0
 21 11  1  0
 21 20  2  0
 23 22  1  6
 23 25  1  0
 23 24  1  0
 24 18  1  0
 25 27  1  0
 26 25  2  0
M  END
$$$$
