KYA.pdb
     RDKit          3D

 27 27  0  0  1  0  0  0  0  0999 V2000
    9.4974  -18.5378   20.2199 N   0  0  0  0  0  0  0  0  0  0  0  0
   10.7118  -17.7778   20.3127 C   0  0  1  0  0  0  0  0  0  0  0  0
   11.1775  -17.2263   19.0202 C   0  0  0  0  0  0  0  0  0  0  0  0
   10.8219  -18.0161   17.8068 C   0  0  0  0  0  0  0  0  0  0  0  0
   11.3362  -17.4146   16.5351 C   0  0  0  0  0  0  0  0  0  0  0  0
   10.7933  -18.1778   15.3186 C   0  0  0  0  0  0  0  0  0  0  0  0
   11.3572  -17.6199   14.1084 N   0  0  0  0  0  0  0  0  0  0  0  0
   10.6557  -16.7594   21.3982 C   0  0  0  0  0  0  0  0  0  0  0  0
   11.6803  -16.0957   21.7410 O   0  0  0  0  0  0  0  0  0  0  0  0
    7.4265  -13.0654   17.5782 O   0  0  0  0  0  0  0  0  0  0  0  0
    7.6272  -13.4179   18.8966 C   0  0  0  0  0  0  0  0  0  0  0  0
    8.5869  -12.7999   19.6445 C   0  0  0  0  0  0  0  0  0  0  0  0
    8.7774  -13.1544   20.9438 C   0  0  0  0  0  0  0  0  0  0  0  0
    7.9988  -14.1383   21.5013 C   0  0  0  0  0  0  0  0  0  0  0  0
    8.1546  -14.5658   22.8909 C   0  0  0  0  0  0  0  0  0  0  0  0
    9.3666  -15.3982   23.1047 C   0  0  2  0  0  0  0  0  0  0  0  0
    9.4599  -16.4718   22.1102 N   0  0  0  0  0  0  0  0  0  0  0  0
    9.4468  -15.8994   24.4647 C   0  0  0  0  0  0  0  0  0  0  0  0
    9.3149  -15.1375   25.4429 O   0  0  0  0  0  0  0  0  0  0  0  0
    7.0154  -14.7791   20.7534 C   0  0  0  0  0  0  0  0  0  0  0  0
    6.8417  -14.4047   19.4451 C   0  0  0  0  0  0  0  0  0  0  0  0
    9.1897  -19.2797   25.8956 C   0  0  0  0  0  0  0  0  0  0  0  0
    9.7928  -17.8736   26.0021 C   0  0  2  0  0  0  0  0  0  0  0  0
    9.6776  -17.2722   24.7149 N   0  0  0  0  0  0  0  0  0  0  0  0
   11.1672  -18.0330   26.4785 C   0  0  0  0  0  0  0  0  0  0  0  0
   12.1269  -17.7167   25.7467 O   0  0  0  0  0  0  0  0  0  0  0  0
   11.4223  -18.5325   27.7367 O   0  0  0  0  0  0  0  0  0  0  0  0
  2  3  1  0
  2  1  1  6
  4  3  1  0
  5  6  1  0
  5  4  1  0
  6  7  1  0
  8  2  1  0
  8  9  2  0
 10 11  1  0
 11 12  2  0
 12 13  1  0
 14 13  2  0
 14 15  1  0
 16 15  1  1
 16 17  1  0
 17  8  1  0
 18 16  1  0
 19 18  2  0
 20 14  1  0
 21 11  1  0
 21 20  2  0
 23 22  1  6
 23 25  1  0
 23 24  1  0
 24 18  1  0
 25 27  1  0
 26 25  2  0
M  END
$$$$
