KYA.pdb
     RDKit          3D

 27 27  0  0  1  0  0  0  0  0999 V2000
    7.4237  -15.8131   20.8951 N   0  0  0  0  0  0  0  0  0  0  0  0
    8.4981  -14.8727   21.0453 C   0  0  1  0  0  0  0  0  0  0  0  0
    8.2008  -13.5273   20.5039 C   0  0  0  0  0  0  0  0  0  0  0  0
    7.5782  -13.4909   19.1498 C   0  0  0  0  0  0  0  0  0  0  0  0
    8.5656  -13.6672   18.0374 C   0  0  0  0  0  0  0  0  0  0  0  0
    7.8672  -13.5633   16.6740 C   0  0  0  0  0  0  0  0  0  0  0  0
    8.8417  -13.7376   15.6186 N   0  0  0  0  0  0  0  0  0  0  0  0
    9.0261  -14.8405   22.4377 C   0  0  0  0  0  0  0  0  0  0  0  0
    9.9999  -14.0963   22.7625 O   0  0  0  0  0  0  0  0  0  0  0  0
    5.8629  -10.6022   26.7427 O   0  0  0  0  0  0  0  0  0  0  0  0
    6.3576  -11.8699   26.5170 C   0  0  0  0  0  0  0  0  0  0  0  0
    5.5337  -12.8752   26.1012 C   0  0  0  0  0  0  0  0  0  0  0  0
    6.0307  -14.1221   25.8813 C   0  0  0  0  0  0  0  0  0  0  0  0
    7.3671  -14.3661   26.0795 C   0  0  0  0  0  0  0  0  0  0  0  0
    7.9624  -15.6838   25.8622 C   0  0  0  0  0  0  0  0  0  0  0  0
    9.0346  -15.6687   24.8337 C   0  0  2  0  0  0  0  0  0  0  0  0
    8.4749  -15.6356   23.4787 N   0  0  0  0  0  0  0  0  0  0  0  0
    9.9743  -16.7603   25.0144 C   0  0  0  0  0  0  0  0  0  0  0  0
   10.4965  -16.9862   26.1239 O   0  0  0  0  0  0  0  0  0  0  0  0
    8.2219  -13.3528   26.5033 C   0  0  0  0  0  0  0  0  0  0  0  0
    7.6979  -12.1034   26.7187 C   0  0  0  0  0  0  0  0  0  0  0  0
   11.0615  -19.4934   22.6943 C   0  0  0  0  0  0  0  0  0  0  0  0
   11.2487  -18.6813   23.9817 C   0  0  2  0  0  0  0  0  0  0  0  0
   10.3225  -17.5990   23.9301 N   0  0  0  0  0  0  0  0  0  0  0  0
   12.6543  -18.2774   24.0318 C   0  0  0  0  0  0  0  0  0  0  0  0
   13.5458  -19.1268   24.2324 O   0  0  0  0  0  0  0  0  0  0  0  0
   13.0140  -16.9588   23.8591 O   0  0  0  0  0  0  0  0  0  0  0  0
  2  3  1  0
  2  1  1  1
  4  3  1  0
  5  6  1  0
  5  4  1  0
  6  7  1  0
  8  2  1  0
  8  9  2  0
 10 11  1  0
 11 12  2  0
 12 13  1  0
 14 13  2  0
 14 15  1  0
 16 15  1  1
 16 17  1  0
 17  8  1  0
 18 16  1  0
 19 18  2  0
 20 14  1  0
 21 11  1  0
 21 20  2  0
 23 22  1  6
 23 25  1  0
 23 24  1  0
 24 18  1  0
 25 27  1  0
 26 25  2  0
M  END
$$$$
