KYA.pdb
     RDKit          3D

 27 27  0  0  1  0  0  0  0  0999 V2000
    8.3803  -18.8090   19.9261 N   0  0  0  0  0  0  0  0  0  0  0  0
    9.6774  -18.1958   19.8761 C   0  0  1  0  0  0  0  0  0  0  0  0
   10.0010  -17.5769   18.5707 C   0  0  0  0  0  0  0  0  0  0  0  0
   10.2685  -18.5210   17.4484 C   0  0  0  0  0  0  0  0  0  0  0  0
   11.2466  -17.9899   16.4461 C   0  0  0  0  0  0  0  0  0  0  0  0
   11.4208  -18.9792   15.2850 C   0  0  0  0  0  0  0  0  0  0  0  0
   12.2756  -18.3923   14.2756 N   0  0  0  0  0  0  0  0  0  0  0  0
    9.9133  -17.2851   21.0309 C   0  0  0  0  0  0  0  0  0  0  0  0
   11.0537  -16.7787   21.2563 O   0  0  0  0  0  0  0  0  0  0  0  0
    7.6138  -12.2589   18.3693 O   0  0  0  0  0  0  0  0  0  0  0  0
    7.7161  -12.9449   19.5616 C   0  0  0  0  0  0  0  0  0  0  0  0
    6.7043  -13.7553   19.9880 C   0  0  0  0  0  0  0  0  0  0  0  0
    6.8144  -14.4277   21.1653 C   0  0  0  0  0  0  0  0  0  0  0  0
    7.9496  -14.2878   21.9245 C   0  0  0  0  0  0  0  0  0  0  0  0
    8.1287  -14.9817   23.1991 C   0  0  0  0  0  0  0  0  0  0  0  0
    9.1185  -16.0870   23.1188 C   0  0  2  0  0  0  0  0  0  0  0  0
    8.8827  -16.9312   21.9432 N   0  0  0  0  0  0  0  0  0  0  0  0
    9.1713  -16.8574   24.3480 C   0  0  0  0  0  0  0  0  0  0  0  0
    8.1344  -17.1307   24.9842 O   0  0  0  0  0  0  0  0  0  0  0  0
    8.9914  -13.4657   21.5051 C   0  0  0  0  0  0  0  0  0  0  0  0
    8.8577  -12.7976   20.3144 C   0  0  0  0  0  0  0  0  0  0  0  0
   11.3617  -19.3887   25.5426 C   0  0  0  0  0  0  0  0  0  0  0  0
   10.5746  -18.1545   26.0000 C   0  0  2  0  0  0  0  0  0  0  0  0
   10.4074  -17.3196   24.8568 N   0  0  0  0  0  0  0  0  0  0  0  0
   11.3329  -17.5448   27.0930 C   0  0  0  0  0  0  0  0  0  0  0  0
   11.4542  -18.1401   28.1827 O   0  0  0  0  0  0  0  0  0  0  0  0
   11.9223  -16.3095   26.9370 O   0  0  0  0  0  0  0  0  0  0  0  0
  2  3  1  0
  2  1  1  6
  4  3  1  0
  5  6  1  0
  5  4  1  0
  6  7  1  0
  8  2  1  0
  8  9  2  0
 10 11  1  0
 11 12  2  0
 12 13  1  0
 14 13  2  0
 14 15  1  0
 16 15  1  1
 16 17  1  0
 17  8  1  0
 18 16  1  0
 19 18  2  0
 20 14  1  0
 21 11  1  0
 21 20  2  0
 23 22  1  6
 23 25  1  0
 23 24  1  0
 24 18  1  0
 25 27  1  0
 26 25  2  0
M  END
$$$$
