KYA.pdb
     RDKit          3D

 27 27  0  0  1  0  0  0  0  0999 V2000
    7.9169  -15.8806   19.0473 N   0  0  0  0  0  0  0  0  0  0  0  0
    8.8182  -14.7774   19.2255 C   0  0  1  0  0  0  0  0  0  0  0  0
    8.5173  -13.6092   18.3675 C   0  0  0  0  0  0  0  0  0  0  0  0
    7.7497  -13.8940   17.1217 C   0  0  0  0  0  0  0  0  0  0  0  0
    8.5969  -14.4412   16.0143 C   0  0  0  0  0  0  0  0  0  0  0  0
    7.7452  -14.7108   14.7657 C   0  0  0  0  0  0  0  0  0  0  0  0
    8.5968  -15.1768   13.6926 N   0  0  0  0  0  0  0  0  0  0  0  0
    8.9927  -14.4207   20.6611 C   0  0  0  0  0  0  0  0  0  0  0  0
    9.8394  -13.5530   21.0325 O   0  0  0  0  0  0  0  0  0  0  0  0
    7.0337  -11.9270   28.6777 O   0  0  0  0  0  0  0  0  0  0  0  0
    7.0262  -12.4451   27.3993 C   0  0  0  0  0  0  0  0  0  0  0  0
    7.5969  -11.7596   26.3666 C   0  0  0  0  0  0  0  0  0  0  0  0
    7.5846  -12.2787   25.1094 C   0  0  0  0  0  0  0  0  0  0  0  0
    6.9945  -13.4974   24.8828 C   0  0  0  0  0  0  0  0  0  0  0  0
    6.9468  -14.1088   23.5554 C   0  0  0  0  0  0  0  0  0  0  0  0
    8.2778  -14.5758   23.0884 C   0  0  2  0  0  0  0  0  0  0  0  0
    8.2269  -15.0263   21.6939 N   0  0  0  0  0  0  0  0  0  0  0  0
    8.8397  -15.5815   23.9715 C   0  0  0  0  0  0  0  0  0  0  0  0
    8.8010  -15.4476   25.2106 O   0  0  0  0  0  0  0  0  0  0  0  0
    6.4077  -14.2104   25.9241 C   0  0  0  0  0  0  0  0  0  0  0  0
    6.4324  -13.6668   27.1835 C   0  0  0  0  0  0  0  0  0  0  0  0
   10.1860  -18.9991   23.2572 C   0  0  0  0  0  0  0  0  0  0  0  0
    9.9989  -17.8130   24.2113 C   0  0  2  0  0  0  0  0  0  0  0  0
    9.4483  -16.7446   23.4450 N   0  0  0  0  0  0  0  0  0  0  0  0
   11.3077  -17.5277   24.8004 C   0  0  0  0  0  0  0  0  0  0  0  0
   11.8887  -16.4523   24.5507 O   0  0  0  0  0  0  0  0  0  0  0  0
   11.9164  -18.4379   25.6364 O   0  0  0  0  0  0  0  0  0  0  0  0
  2  3  1  0
  2  1  1  1
  4  3  1  0
  5  6  1  0
  5  4  1  0
  6  7  1  0
  8  2  1  0
  8  9  2  0
 10 11  1  0
 11 12  2  0
 12 13  1  0
 14 13  2  0
 14 15  1  0
 16 15  1  1
 16 17  1  0
 17  8  1  0
 18 16  1  0
 19 18  2  0
 20 14  1  0
 21 11  1  0
 21 20  2  0
 23 22  1  6
 23 25  1  0
 23 24  1  0
 24 18  1  0
 25 27  1  0
 26 25  2  0
M  END
$$$$
