KYA.pdb
     RDKit          3D

 27 27  0  0  1  0  0  0  0  0999 V2000
    9.8731  -19.1251   19.0863 N   0  0  0  0  0  0  0  0  0  0  0  0
   10.6496  -17.9402   18.8536 C   0  0  1  0  0  0  0  0  0  0  0  0
   10.1949  -17.1403   17.6938 C   0  0  0  0  0  0  0  0  0  0  0  0
   11.0287  -17.2428   16.4622 C   0  0  0  0  0  0  0  0  0  0  0  0
   10.2960  -17.8325   15.2965 C   0  0  0  0  0  0  0  0  0  0  0  0
   11.2344  -17.9872   14.0913 C   0  0  0  0  0  0  0  0  0  0  0  0
   10.4788  -18.4538   12.9487 N   0  0  0  0  0  0  0  0  0  0  0  0
   10.8240  -17.1305   20.0915 C   0  0  0  0  0  0  0  0  0  0  0  0
   11.8100  -16.3475   20.2406 O   0  0  0  0  0  0  0  0  0  0  0  0
    7.2394  -12.3925   18.4216 O   0  0  0  0  0  0  0  0  0  0  0  0
    7.6064  -13.2074   19.4723 C   0  0  0  0  0  0  0  0  0  0  0  0
    6.8596  -14.3020   19.7986 C   0  0  0  0  0  0  0  0  0  0  0  0
    7.2294  -15.0996   20.8365 C   0  0  0  0  0  0  0  0  0  0  0  0
    8.3593  -14.7988   21.5561 C   0  0  0  0  0  0  0  0  0  0  0  0
    8.8094  -15.6147   22.6829 C   0  0  0  0  0  0  0  0  0  0  0  0
   10.0514  -16.3736   22.3844 C   0  0  2  0  0  0  0  0  0  0  0  0
    9.9031  -17.1859   21.1726 N   0  0  0  0  0  0  0  0  0  0  0  0
   10.4936  -17.1587   23.5225 C   0  0  0  0  0  0  0  0  0  0  0  0
    9.8654  -18.1700   23.8929 O   0  0  0  0  0  0  0  0  0  0  0  0
    9.1328  -13.6865   21.2374 C   0  0  0  0  0  0  0  0  0  0  0  0
    8.7400  -12.8968   20.1866 C   0  0  0  0  0  0  0  0  0  0  0  0
   13.5365  -16.8433   25.6983 C   0  0  0  0  0  0  0  0  0  0  0  0
   12.1810  -17.4831   25.3741 C   0  0  2  0  0  0  0  0  0  0  0  0
   11.6544  -16.7933   24.2432 N   0  0  0  0  0  0  0  0  0  0  0  0
   11.3618  -17.3847   26.5825 C   0  0  0  0  0  0  0  0  0  0  0  0
   10.3453  -16.6614   26.5959 O   0  0  0  0  0  0  0  0  0  0  0  0
   11.6982  -18.0859   27.7196 O   0  0  0  0  0  0  0  0  0  0  0  0
  2  3  1  0
  2  1  1  1
  4  3  1  0
  5  6  1  0
  5  4  1  0
  6  7  1  0
  8  2  1  0
  8  9  2  0
 10 11  1  0
 11 12  2  0
 12 13  1  0
 14 13  2  0
 14 15  1  0
 16 15  1  1
 16 17  1  0
 17  8  1  0
 18 16  1  0
 19 18  2  0
 20 14  1  0
 21 11  1  0
 21 20  2  0
 23 22  1  1
 23 25  1  0
 23 24  1  0
 24 18  1  0
 25 27  1  0
 26 25  2  0
M  END
$$$$
