KYA.pdb
     RDKit          3D

 27 27  0  0  1  0  0  0  0  0999 V2000
    6.6859  -15.3096   20.6770 N   0  0  0  0  0  0  0  0  0  0  0  0
    7.9971  -14.7453   20.5240 C   0  0  1  0  0  0  0  0  0  0  0  0
    8.0130  -13.4391   19.8274 C   0  0  0  0  0  0  0  0  0  0  0  0
    7.3063  -13.3895   18.5158 C   0  0  0  0  0  0  0  0  0  0  0  0
    8.1198  -13.9337   17.3820 C   0  0  0  0  0  0  0  0  0  0  0  0
    7.3137  -13.9034   16.0757 C   0  0  0  0  0  0  0  0  0  0  0  0
    8.1008  -14.4850   15.0097 N   0  0  0  0  0  0  0  0  0  0  0  0
    8.7576  -14.7358   21.8046 C   0  0  0  0  0  0  0  0  0  0  0  0
   10.0014  -14.4917   21.8376 O   0  0  0  0  0  0  0  0  0  0  0  0
   10.9233  -14.8729   30.2655 O   0  0  0  0  0  0  0  0  0  0  0  0
   10.2135  -14.8653   29.0828 C   0  0  0  0  0  0  0  0  0  0  0  0
    9.6592  -16.0133   28.5958 C   0  0  0  0  0  0  0  0  0  0  0  0
    8.9610  -15.9959   27.4286 C   0  0  0  0  0  0  0  0  0  0  0  0
    8.8156  -14.8166   26.7408 C   0  0  0  0  0  0  0  0  0  0  0  0
    8.0786  -14.7316   25.4808 C   0  0  0  0  0  0  0  0  0  0  0  0
    8.8997  -15.1230   24.3060 C   0  0  2  0  0  0  0  0  0  0  0  0
    8.1404  -14.9978   23.0577 N   0  0  0  0  0  0  0  0  0  0  0  0
    9.4806  -16.4436   24.4666 C   0  0  0  0  0  0  0  0  0  0  0  0
    8.7623  -17.4507   24.6231 O   0  0  0  0  0  0  0  0  0  0  0  0
    9.3741  -13.6364   27.2227 C   0  0  0  0  0  0  0  0  0  0  0  0
   10.0739  -13.6785   28.4019 C   0  0  0  0  0  0  0  0  0  0  0  0
   12.6457  -17.7962   23.3648 C   0  0  0  0  0  0  0  0  0  0  0  0
   11.5619  -17.8749   24.4470 C   0  0  2  0  0  0  0  0  0  0  0  0
   10.8837  -16.6211   24.4494 N   0  0  0  0  0  0  0  0  0  0  0  0
   12.2355  -18.2047   25.7034 C   0  0  0  0  0  0  0  0  0  0  0  0
   12.8691  -19.2736   25.8154 O   0  0  0  0  0  0  0  0  0  0  0  0
   12.1812  -17.3442   26.7779 O   0  0  0  0  0  0  0  0  0  0  0  0
  2  3  1  0
  2  1  1  1
  4  3  1  0
  5  6  1  0
  5  4  1  0
  6  7  1  0
  8  2  1  0
  8  9  2  0
 10 11  1  0
 11 12  2  0
 12 13  1  0
 14 13  2  0
 14 15  1  0
 16 15  1  1
 16 17  1  0
 17  8  1  0
 18 16  1  0
 19 18  2  0
 20 14  1  0
 21 11  1  0
 21 20  2  0
 23 22  1  6
 23 25  1  0
 23 24  1  0
 24 18  1  0
 25 27  1  0
 26 25  2  0
M  END
$$$$
