KYA.pdb
     RDKit          3D

 27 27  0  0  1  0  0  0  0  0999 V2000
    9.2541  -15.5363   19.2186 N   0  0  0  0  0  0  0  0  0  0  0  0
    8.4399  -15.8356   20.3625 C   0  0  1  0  0  0  0  0  0  0  0  0
    7.7569  -17.1469   20.2891 C   0  0  0  0  0  0  0  0  0  0  0  0
    6.8481  -17.3459   19.1242 C   0  0  0  0  0  0  0  0  0  0  0  0
    6.1964  -18.6944   19.1031 C   0  0  0  0  0  0  0  0  0  0  0  0
    5.3647  -18.9122   20.3751 C   0  0  0  0  0  0  0  0  0  0  0  0
    4.6981  -20.1944   20.3016 N   0  0  0  0  0  0  0  0  0  0  0  0
    9.1715  -15.6268   21.6430 C   0  0  0  0  0  0  0  0  0  0  0  0
   10.4130  -15.8631   21.7457 O   0  0  0  0  0  0  0  0  0  0  0  0
   10.4077  -14.9152   30.3024 O   0  0  0  0  0  0  0  0  0  0  0  0
    9.9206  -14.7698   29.0201 C   0  0  0  0  0  0  0  0  0  0  0  0
   10.3007  -13.7118   28.2465 C   0  0  0  0  0  0  0  0  0  0  0  0
    9.8149  -13.5769   26.9831 C   0  0  0  0  0  0  0  0  0  0  0  0
    8.9389  -14.5110   26.4882 C   0  0  0  0  0  0  0  0  0  0  0  0
    8.3802  -14.4223   25.1399 C   0  0  0  0  0  0  0  0  0  0  0  0
    9.1555  -15.2048   24.1427 C   0  0  2  0  0  0  0  0  0  0  0  0
    8.5277  -15.1540   22.8185 N   0  0  0  0  0  0  0  0  0  0  0  0
    9.3923  -16.5661   24.5876 C   0  0  0  0  0  0  0  0  0  0  0  0
    8.4457  -17.3443   24.8182 O   0  0  0  0  0  0  0  0  0  0  0  0
    8.5405  -15.5962   27.2631 C   0  0  0  0  0  0  0  0  0  0  0  0
    9.0436  -15.7113   28.5342 C   0  0  0  0  0  0  0  0  0  0  0  0
   12.1754  -18.8301   24.1968 C   0  0  0  0  0  0  0  0  0  0  0  0
   11.0651  -18.3731   25.1509 C   0  0  2  0  0  0  0  0  0  0  0  0
   10.7101  -17.0456   24.7715 N   0  0  0  0  0  0  0  0  0  0  0  0
   11.5919  -18.4971   26.5104 C   0  0  0  0  0  0  0  0  0  0  0  0
   11.8851  -19.6188   26.9713 O   0  0  0  0  0  0  0  0  0  0  0  0
   11.7716  -17.3824   27.2997 O   0  0  0  0  0  0  0  0  0  0  0  0
  2  3  1  0
  2  1  1  6
  4  3  1  0
  5  6  1  0
  5  4  1  0
  6  7  1  0
  8  2  1  0
  8  9  2  0
 10 11  1  0
 11 12  2  0
 12 13  1  0
 14 13  2  0
 14 15  1  0
 16 15  1  1
 16 17  1  0
 17  8  1  0
 18 16  1  0
 19 18  2  0
 20 14  1  0
 21 11  1  0
 21 20  2  0
 23 22  1  6
 23 25  1  0
 23 24  1  0
 24 18  1  0
 25 27  1  0
 26 25  2  0
M  END
$$$$
