KYA.pdb
     RDKit          3D

 27 27  0  0  1  0  0  0  0  0999 V2000
   11.5344  -16.9209   20.1028 N   0  0  0  0  0  0  0  0  0  0  0  0
   10.2400  -17.1209   20.6907 C   0  0  1  0  0  0  0  0  0  0  0  0
    9.9006  -18.5418   20.9308 C   0  0  0  0  0  0  0  0  0  0  0  0
   10.5689  -19.5326   20.0397 C   0  0  0  0  0  0  0  0  0  0  0  0
   10.1041  -20.9391   20.2618 C   0  0  0  0  0  0  0  0  0  0  0  0
    8.8448  -21.2289   19.4327 C   0  0  0  0  0  0  0  0  0  0  0  0
    8.4643  -22.6147   19.6022 N   0  0  0  0  0  0  0  0  0  0  0  0
   10.0260  -16.2574   21.8854 C   0  0  0  0  0  0  0  0  0  0  0  0
   10.9964  -15.7215   22.5010 O   0  0  0  0  0  0  0  0  0  0  0  0
    6.0785  -11.1901   27.8371 O   0  0  0  0  0  0  0  0  0  0  0  0
    6.3313  -12.0103   26.7573 C   0  0  0  0  0  0  0  0  0  0  0  0
    5.7472  -13.2402   26.6651 C   0  0  0  0  0  0  0  0  0  0  0  0
    6.0025  -14.0420   25.5964 C   0  0  0  0  0  0  0  0  0  0  0  0
    6.8520  -13.6084   24.6087 C   0  0  0  0  0  0  0  0  0  0  0  0
    7.1684  -14.4225   23.4361 C   0  0  0  0  0  0  0  0  0  0  0  0
    8.5031  -15.0690   23.5271 C   0  0  2  0  0  0  0  0  0  0  0  0
    8.7314  -15.9838   22.4040 N   0  0  0  0  0  0  0  0  0  0  0  0
    8.7067  -15.7132   24.8119 C   0  0  0  0  0  0  0  0  0  0  0  0
    8.5640  -15.0850   25.8794 O   0  0  0  0  0  0  0  0  0  0  0  0
    7.4564  -12.3572   24.6864 C   0  0  0  0  0  0  0  0  0  0  0  0
    7.1838  -11.5662   25.7736 C   0  0  0  0  0  0  0  0  0  0  0  0
    9.1906  -19.2800   25.7766 C   0  0  0  0  0  0  0  0  0  0  0  0
    9.3899  -17.7895   26.0780 C   0  0  2  0  0  0  0  0  0  0  0  0
    9.0740  -17.0772   24.8844 N   0  0  0  0  0  0  0  0  0  0  0  0
   10.7699  -17.6268   26.5365 C   0  0  0  0  0  0  0  0  0  0  0  0
   11.5779  -16.9484   25.8706 O   0  0  0  0  0  0  0  0  0  0  0  0
   11.1972  -18.2175   27.7055 O   0  0  0  0  0  0  0  0  0  0  0  0
  2  3  1  0
  2  1  1  1
  4  3  1  0
  5  6  1  0
  5  4  1  0
  6  7  1  0
  8  2  1  0
  8  9  2  0
 10 11  1  0
 11 12  2  0
 12 13  1  0
 14 13  2  0
 14 15  1  0
 16 15  1  1
 16 17  1  0
 17  8  1  0
 18 16  1  0
 19 18  2  0
 20 14  1  0
 21 11  1  0
 21 20  2  0
 23 22  1  6
 23 25  1  0
 23 24  1  0
 24 18  1  0
 25 27  1  0
 26 25  2  0
M  END
$$$$
