YEK.pdb
     RDKit          3D

 31 31  0  0  1  0  0  0  0  0999 V2000
    7.1178  -13.1030   15.4653 O   0  0  0  0  0  0  0  0  0  0  0  0
    7.2743  -13.5875   16.7588 C   0  0  0  0  0  0  0  0  0  0  0  0
    7.6908  -12.7668   17.7971 C   0  0  0  0  0  0  0  0  0  0  0  0
    7.8429  -13.2584   19.0789 C   0  0  0  0  0  0  0  0  0  0  0  0
    7.5888  -14.5804   19.3822 C   0  0  0  0  0  0  0  0  0  0  0  0
    7.7483  -15.1279   20.7585 C   0  0  0  0  0  0  0  0  0  0  0  0
    9.2125  -15.2972   21.0626 C   0  0  2  0  0  0  0  0  0  0  0  0
    9.8885  -16.0981   20.0709 N   0  0  0  0  0  0  0  0  0  0  0  0
    9.3237  -15.9547   22.4272 C   0  0  0  0  0  0  0  0  0  0  0  0
    8.7696  -15.4331   23.4187 O   0  0  0  0  0  0  0  0  0  0  0  0
    7.1732  -15.3974   18.3441 C   0  0  0  0  0  0  0  0  0  0  0  0
    7.0205  -14.9074   17.0616 C   0  0  0  0  0  0  0  0  0  0  0  0
   10.0527  -17.1539   22.5718 N   0  0  0  0  0  0  0  0  0  0  0  0
   10.3756  -17.7826   23.8029 C   0  0  1  0  0  0  0  0  0  0  0  0
   11.2028  -19.0432   23.7160 C   0  0  0  0  0  0  0  0  0  0  0  0
   12.4732  -18.9115   22.9513 C   0  0  0  0  0  0  0  0  0  0  0  0
   13.5367  -19.8410   23.4482 C   0  0  0  0  0  0  0  0  0  0  0  0
   14.1807  -19.6145   24.4967 O   0  0  0  0  0  0  0  0  0  0  0  0
   10.7741  -16.8582   24.8767 C   0  0  0  0  0  0  0  0  0  0  0  0
   11.7708  -16.0780   24.7608 O   0  0  0  0  0  0  0  0  0  0  0  0
   13.8422  -20.9953   22.7506 O   0  0  0  0  0  0  0  0  0  0  0  0
   10.0891  -16.7589   26.1165 N   0  0  0  0  0  0  0  0  0  0  0  0
   10.0796  -15.5275   26.8986 C   0  0  1  0  0  0  0  0  0  0  0  0
    8.7970  -14.8108   26.5719 C   0  0  0  0  0  0  0  0  0  0  0  0
    8.5853  -13.5160   27.2692 C   0  0  0  0  0  0  0  0  0  0  0  0
    7.2354  -12.8948   26.8668 C   0  0  0  0  0  0  0  0  0  0  0  0
    7.0993  -11.6137   27.6505 C   0  0  0  0  0  0  0  0  0  0  0  0
    5.7730  -11.0670   27.3395 N   0  0  0  0  0  0  0  0  0  0  0  0
   10.1084  -15.8489   28.3326 C   0  0  0  0  0  0  0  0  0  0  0  0
   10.2357  -14.9284   29.1799 O   0  0  0  0  0  0  0  0  0  0  0  0
    9.9920  -17.1830   28.7166 O   0  0  0  0  0  0  0  0  0  0  0  0
  2  1  1  0
  3  2  2  0
  4  3  1  0
  5 11  1  0
  5  4  2  0
  6  5  1  0
  7  6  1  0
  7  8  1  6
  9  7  1  0
  9 10  2  0
 11 12  2  0
 12  2  1  0
 13  9  1  0
 14 13  1  0
 14 15  1  6
 15 16  1  0
 17 21  1  0
 17 16  1  0
 18 17  2  0
 19 14  1  0
 20 19  2  0
 22 19  1  0
 23 22  1  0
 23 24  1  1
 25 24  1  0
 26 27  1  0
 26 25  1  0
 28 27  1  0
 29 23  1  0
 29 31  1  0
 30 29  2  0
M  END
$$$$
