YEK.pdb
     RDKit          3D

 31 31  0  0  1  0  0  0  0  0999 V2000
    6.9266  -11.4295   18.6424 O   0  0  0  0  0  0  0  0  0  0  0  0
    7.4712  -12.4397   19.4268 C   0  0  0  0  0  0  0  0  0  0  0  0
    6.6897  -13.1844   20.2986 C   0  0  0  0  0  0  0  0  0  0  0  0
    7.2410  -14.1861   21.0736 C   0  0  0  0  0  0  0  0  0  0  0  0
    8.5859  -14.4892   21.0156 C   0  0  0  0  0  0  0  0  0  0  0  0
    9.1975  -15.5654   21.8445 C   0  0  0  0  0  0  0  0  0  0  0  0
    9.3273  -16.8182   21.0208 C   0  0  2  0  0  0  0  0  0  0  0  0
    8.0594  -17.4787   20.8255 N   0  0  0  0  0  0  0  0  0  0  0  0
   10.2908  -17.7436   21.7433 C   0  0  0  0  0  0  0  0  0  0  0  0
    9.8982  -18.4116   22.7239 O   0  0  0  0  0  0  0  0  0  0  0  0
    9.3636  -13.7444   20.1446 C   0  0  0  0  0  0  0  0  0  0  0  0
    8.8140  -12.7423   19.3688 C   0  0  0  0  0  0  0  0  0  0  0  0
   11.6277  -17.8469   21.3045 N   0  0  0  0  0  0  0  0  0  0  0  0
   12.6345  -18.6501   21.9014 C   0  0  1  0  0  0  0  0  0  0  0  0
   13.9021  -18.8405   21.1028 C   0  0  0  0  0  0  0  0  0  0  0  0
   13.8597  -19.9470   20.1079 C   0  0  0  0  0  0  0  0  0  0  0  0
   14.6390  -19.6302   18.8692 C   0  0  0  0  0  0  0  0  0  0  0  0
   15.8899  -19.6097   18.8578 O   0  0  0  0  0  0  0  0  0  0  0  0
   12.8434  -18.4039   23.3374 C   0  0  0  0  0  0  0  0  0  0  0  0
   13.0134  -17.2340   23.8042 O   0  0  0  0  0  0  0  0  0  0  0  0
   13.9871  -19.3465   17.6831 O   0  0  0  0  0  0  0  0  0  0  0  0
   12.8718  -19.4368   24.3113 N   0  0  0  0  0  0  0  0  0  0  0  0
   13.1253  -19.1635   25.7217 C   0  0  1  0  0  0  0  0  0  0  0  0
   12.3781  -20.2047   26.5110 C   0  0  0  0  0  0  0  0  0  0  0  0
   12.5902  -20.1756   27.9813 C   0  0  0  0  0  0  0  0  0  0  0  0
   11.8835  -21.3645   28.6573 C   0  0  0  0  0  0  0  0  0  0  0  0
   12.1876  -21.2659   30.1310 C   0  0  0  0  0  0  0  0  0  0  0  0
   11.5123  -22.3971   30.7784 N   0  0  0  0  0  0  0  0  0  0  0  0
   14.5640  -19.2784   25.9998 C   0  0  0  0  0  0  0  0  0  0  0  0
   15.2485  -20.1563   25.4148 O   0  0  0  0  0  0  0  0  0  0  0  0
   15.1354  -18.3987   26.9167 O   0  0  0  0  0  0  0  0  0  0  0  0
  2  1  1  0
  3  2  2  0
  4  3  1  0
  5 11  1  0
  5  4  2  0
  6  5  1  0
  7  6  1  0
  7  8  1  1
  9  7  1  0
  9 10  2  0
 11 12  2  0
 12  2  1  0
 13  9  1  0
 14 13  1  0
 14 15  1  6
 15 16  1  0
 17 21  1  0
 17 16  1  0
 18 17  2  0
 19 14  1  0
 20 19  2  0
 22 19  1  0
 23 22  1  0
 23 24  1  1
 25 24  1  0
 26 27  1  0
 26 25  1  0
 28 27  1  0
 29 23  1  0
 29 31  1  0
 30 29  2  0
M  END
$$$$
