YEK.pdb
     RDKit          3D

 31 31  0  0  1  0  0  0  0  0999 V2000
   77.8797  -83.3934   62.0586 O   0  0  0  0  0  0  0  0  0  0  0  0
   77.1358  -83.8532   63.1391 C   0  0  0  0  0  0  0  0  0  0  0  0
   76.6042  -82.9820   64.0792 C   0  0  0  0  0  0  0  0  0  0  0  0
   75.8663  -83.4493   65.1492 C   0  0  0  0  0  0  0  0  0  0  0  0
   75.6261  -84.7962   65.3298 C   0  0  0  0  0  0  0  0  0  0  0  0
   74.8334  -85.3180   66.4781 C   0  0  0  0  0  0  0  0  0  0  0  0
   74.2536  -86.6591   66.1170 C   0  0  2  0  0  0  0  0  0  0  0  0
   74.7227  -87.7104   66.9867 N   0  0  0  0  0  0  0  0  0  0  0  0
   74.6477  -86.9566   64.6807 C   0  0  0  0  0  0  0  0  0  0  0  0
   75.0559  -86.0351   63.9414 O   0  0  0  0  0  0  0  0  0  0  0  0
   76.1577  -85.6636   64.3901 C   0  0  0  0  0  0  0  0  0  0  0  0
   76.8959  -85.1979   63.3194 C   0  0  0  0  0  0  0  0  0  0  0  0
   74.5523  -88.2739   64.1846 N   0  0  0  0  0  0  0  0  0  0  0  0
   75.3180  -88.8138   63.1181 C   0  0  1  0  0  0  0  0  0  0  0  0
   76.7782  -88.4302   63.0791 C   0  0  0  0  0  0  0  0  0  0  0  0
   77.0492  -87.0222   62.6790 C   0  0  0  0  0  0  0  0  0  0  0  0
   78.4940  -86.6566   62.8231 C   0  0  0  0  0  0  0  0  0  0  0  0
   79.3233  -87.4231   63.3616 O   0  0  0  0  0  0  0  0  0  0  0  0
   75.0460  -90.2302   62.8244 C   0  0  0  0  0  0  0  0  0  0  0  0
   74.6626  -90.6204   61.6772 O   0  0  0  0  0  0  0  0  0  0  0  0
   78.9603  -85.4408   62.3573 O   0  0  0  0  0  0  0  0  0  0  0  0
   75.1871  -91.2680   63.7832 N   0  0  0  0  0  0  0  0  0  0  0  0
   74.9535  -92.6683   63.4474 C   0  0  1  0  0  0  0  0  0  0  0  0
   75.6133  -93.4921   64.5204 C   0  0  0  0  0  0  0  0  0  0  0  0
   77.0662  -93.2513   64.7174 C   0  0  0  0  0  0  0  0  0  0  0  0
   77.3878  -93.0505   66.2094 C   0  0  0  0  0  0  0  0  0  0  0  0
   78.8899  -93.0925   66.3364 C   0  0  0  0  0  0  0  0  0  0  0  0
   79.3432  -91.7009   66.4500 N   0  0  0  0  0  0  0  0  0  0  0  0
   73.5096  -92.9434   63.4383 C   0  0  0  0  0  0  0  0  0  0  0  0
   72.8098  -92.6584   64.4434 O   0  0  0  0  0  0  0  0  0  0  0  0
   72.9508  -93.5203   62.2999 O   0  0  0  0  0  0  0  0  0  0  0  0
  2  1  1  0
  3  2  2  0
  4  3  1  0
  5 11  1  0
  5  4  2  0
  6  5  1  0
  7  6  1  0
  7  8  1  1
  9  7  1  0
  9 10  2  0
 11 12  2  0
 12  2  1  0
 13  9  1  0
 14 13  1  0
 14 15  1  1
 15 16  1  0
 17 21  1  0
 17 16  1  0
 18 17  2  0
 19 14  1  0
 20 19  2  0
 22 19  1  0
 23 22  1  0
 23 24  1  1
 25 24  1  0
 26 27  1  0
 26 25  1  0
 28 27  1  0
 29 23  1  0
 29 31  1  0
 30 29  2  0
M  END
$$$$
