YEK.pdb
     RDKit          3D

 31 31  0  0  1  0  0  0  0  0999 V2000
    8.1354  -12.3078   28.1586 O   0  0  0  0  0  0  0  0  0  0  0  0
    7.7306  -12.9620   27.0008 C   0  0  0  0  0  0  0  0  0  0  0  0
    6.4744  -13.5417   26.8947 C   0  0  0  0  0  0  0  0  0  0  0  0
    6.0821  -14.1894   25.7395 C   0  0  0  0  0  0  0  0  0  0  0  0
    6.9174  -14.2882   24.6455 C   0  0  0  0  0  0  0  0  0  0  0  0
    6.5113  -14.9836   23.3922 C   0  0  0  0  0  0  0  0  0  0  0  0
    6.4974  -16.4701   23.6271 C   0  0  2  0  0  0  0  0  0  0  0  0
    5.7696  -16.8289   24.8202 N   0  0  0  0  0  0  0  0  0  0  0  0
    7.9407  -16.9294   23.7396 C   0  0  0  0  0  0  0  0  0  0  0  0
    8.3307  -17.5163   24.7718 O   0  0  0  0  0  0  0  0  0  0  0  0
    8.1705  -13.7087   24.7541 C   0  0  0  0  0  0  0  0  0  0  0  0
    8.5645  -13.0606   25.9085 C   0  0  0  0  0  0  0  0  0  0  0  0
    8.8380  -16.6923   22.6770 N   0  0  0  0  0  0  0  0  0  0  0  0
   10.1575  -17.2063   22.5781 C   0  0  1  0  0  0  0  0  0  0  0  0
   10.8561  -17.0113   21.2534 C   0  0  0  0  0  0  0  0  0  0  0  0
   12.1463  -17.7396   21.1084 C   0  0  0  0  0  0  0  0  0  0  0  0
   12.7595  -17.5493   19.7558 C   0  0  0  0  0  0  0  0  0  0  0  0
   13.9646  -17.2465   19.6088 O   0  0  0  0  0  0  0  0  0  0  0  0
   11.0003  -16.9618   23.7598 C   0  0  0  0  0  0  0  0  0  0  0  0
   11.1506  -15.8002   24.2534 O   0  0  0  0  0  0  0  0  0  0  0  0
   11.9986  -17.7054   18.6117 O   0  0  0  0  0  0  0  0  0  0  0  0
   11.7073  -17.9875   24.4411 N   0  0  0  0  0  0  0  0  0  0  0  0
   12.4528  -17.7295   25.6682 C   0  0  1  0  0  0  0  0  0  0  0  0
   11.8150  -18.5581   26.7508 C   0  0  0  0  0  0  0  0  0  0  0  0
   12.4877  -18.5185   28.0750 C   0  0  0  0  0  0  0  0  0  0  0  0
   11.7920  -19.4670   29.0681 C   0  0  0  0  0  0  0  0  0  0  0  0
   12.5521  -19.3652   30.3665 C   0  0  0  0  0  0  0  0  0  0  0  0
   11.8103  -20.1590   31.3537 N   0  0  0  0  0  0  0  0  0  0  0  0
   13.8526  -18.1438   25.4962 C   0  0  0  0  0  0  0  0  0  0  0  0
   14.1702  -18.9037   24.5460 O   0  0  0  0  0  0  0  0  0  0  0  0
   14.7999  -17.6756   26.4041 O   0  0  0  0  0  0  0  0  0  0  0  0
  2  1  1  0
  3  2  2  0
  4  3  1  0
  5 11  1  0
  5  4  2  0
  6  5  1  0
  7  6  1  0
  7  8  1  1
  9  7  1  0
  9 10  2  0
 11 12  2  0
 12  2  1  0
 13  9  1  0
 14 13  1  0
 14 15  1  6
 15 16  1  0
 17 21  1  0
 17 16  1  0
 18 17  2  0
 19 14  1  0
 20 19  2  0
 22 19  1  0
 23 22  1  0
 23 24  1  1
 25 24  1  0
 26 27  1  0
 26 25  1  0
 28 27  1  0
 29 23  1  0
 29 31  1  0
 30 29  2  0
M  END
$$$$
