YEK.pdb
     RDKit          3D

 31 31  0  0  1  0  0  0  0  0999 V2000
    7.1670  -12.0078   17.0966 O   0  0  0  0  0  0  0  0  0  0  0  0
    7.5608  -12.7630   18.1953 C   0  0  0  0  0  0  0  0  0  0  0  0
    6.6407  -13.4571   18.9678 C   0  0  0  0  0  0  0  0  0  0  0  0
    7.0428  -14.2047   20.0575 C   0  0  0  0  0  0  0  0  0  0  0  0
    8.3701  -14.2939   20.4243 C   0  0  0  0  0  0  0  0  0  0  0  0
    8.8215  -15.0946   21.5967 C   0  0  0  0  0  0  0  0  0  0  0  0
    9.3392  -16.4261   21.1233 C   0  0  2  0  0  0  0  0  0  0  0  0
    8.3200  -17.2071   20.4652 N   0  0  0  0  0  0  0  0  0  0  0  0
    9.8634  -17.1718   22.3382 C   0  0  0  0  0  0  0  0  0  0  0  0
    9.0803  -17.8405   23.0464 O   0  0  0  0  0  0  0  0  0  0  0  0
    9.2863  -13.6002   19.6515 C   0  0  0  0  0  0  0  0  0  0  0  0
    8.8860  -12.8521   18.5614 C   0  0  0  0  0  0  0  0  0  0  0  0
   11.2347  -17.1077   22.6639 N   0  0  0  0  0  0  0  0  0  0  0  0
   11.8008  -17.4247   23.9265 C   0  0  1  0  0  0  0  0  0  0  0  0
   13.2013  -17.9896   23.9111 C   0  0  0  0  0  0  0  0  0  0  0  0
   13.4906  -18.9260   22.7907 C   0  0  0  0  0  0  0  0  0  0  0  0
   14.9289  -19.3403   22.7509 C   0  0  0  0  0  0  0  0  0  0  0  0
   15.2758  -20.5420   22.7840 O   0  0  0  0  0  0  0  0  0  0  0  0
   11.5524  -16.4247   24.9776 C   0  0  0  0  0  0  0  0  0  0  0  0
   12.3993  -15.5213   25.2639 O   0  0  0  0  0  0  0  0  0  0  0  0
   15.9312  -18.3906   22.6750 O   0  0  0  0  0  0  0  0  0  0  0  0
   10.3622  -16.3831   25.7509 N   0  0  0  0  0  0  0  0  0  0  0  0
   10.1308  -15.3552   26.7599 C   0  0  1  0  0  0  0  0  0  0  0  0
    8.8792  -14.6216   26.3588 C   0  0  0  0  0  0  0  0  0  0  0  0
    8.4532  -13.5267   27.2683 C   0  0  0  0  0  0  0  0  0  0  0  0
    7.1655  -12.8594   26.7519 C   0  0  0  0  0  0  0  0  0  0  0  0
    6.9092  -11.6697   27.6423 C   0  0  0  0  0  0  0  0  0  0  0  0
    5.6193  -11.1033   27.2298 N   0  0  0  0  0  0  0  0  0  0  0  0
    9.9294  -15.9837   28.0732 C   0  0  0  0  0  0  0  0  0  0  0  0
    9.7961  -15.2676   29.0982 O   0  0  0  0  0  0  0  0  0  0  0  0
    9.8916  -17.3745   28.1449 O   0  0  0  0  0  0  0  0  0  0  0  0
  2  1  1  0
  3  2  2  0
  4  3  1  0
  5 11  1  0
  5  4  2  0
  6  5  1  0
  7  6  1  0
  7  8  1  1
  9  7  1  0
  9 10  2  0
 11 12  2  0
 12  2  1  0
 13  9  1  0
 14 13  1  0
 14 15  1  6
 15 16  1  0
 17 21  1  0
 17 16  1  0
 18 17  2  0
 19 14  1  0
 20 19  2  0
 22 19  1  0
 23 22  1  0
 23 24  1  6
 25 24  1  0
 26 27  1  0
 26 25  1  0
 28 27  1  0
 29 23  1  0
 29 31  1  0
 30 29  2  0
M  END
$$$$
