YEK.pdb
     RDKit          3D

 31 31  0  0  1  0  0  0  0  0999 V2000
    8.3078  -12.2803   27.2112 O   0  0  0  0  0  0  0  0  0  0  0  0
    7.8480  -13.0431   26.1440 C   0  0  0  0  0  0  0  0  0  0  0  0
    7.5642  -14.3939   26.2849 C   0  0  0  0  0  0  0  0  0  0  0  0
    7.1075  -15.1428   25.2178 C   0  0  0  0  0  0  0  0  0  0  0  0
    6.9144  -14.5839   23.9710 C   0  0  0  0  0  0  0  0  0  0  0  0
    6.4235  -15.3764   22.8090 C   0  0  0  0  0  0  0  0  0  0  0  0
    6.3953  -16.8359   23.1754 C   0  0  2  0  0  0  0  0  0  0  0  0
    5.8188  -17.0620   24.4786 N   0  0  0  0  0  0  0  0  0  0  0  0
    7.8263  -17.3438   23.1435 C   0  0  0  0  0  0  0  0  0  0  0  0
    8.3041  -17.9275   24.1401 O   0  0  0  0  0  0  0  0  0  0  0  0
    7.1984  -13.2354   23.8331 C   0  0  0  0  0  0  0  0  0  0  0  0
    7.6551  -12.4850   24.8991 C   0  0  0  0  0  0  0  0  0  0  0  0
    8.6128  -17.1554   21.9875 N   0  0  0  0  0  0  0  0  0  0  0  0
    9.9401  -17.6244   21.8045 C   0  0  1  0  0  0  0  0  0  0  0  0
   10.5339  -17.4382   20.4284 C   0  0  0  0  0  0  0  0  0  0  0  0
   11.8584  -18.0851   20.2210 C   0  0  0  0  0  0  0  0  0  0  0  0
   12.3826  -17.8788   18.8337 C   0  0  0  0  0  0  0  0  0  0  0  0
   13.4043  -17.1941   18.6041 O   0  0  0  0  0  0  0  0  0  0  0  0
   10.8560  -17.3204   22.9159 C   0  0  0  0  0  0  0  0  0  0  0  0
   11.1635  -16.1280   23.2306 O   0  0  0  0  0  0  0  0  0  0  0  0
   11.7417  -18.4488   17.7490 O   0  0  0  0  0  0  0  0  0  0  0  0
   11.4655  -18.3183   23.7214 N   0  0  0  0  0  0  0  0  0  0  0  0
   12.3203  -17.9821   24.8547 C   0  0  1  0  0  0  0  0  0  0  0  0
   12.1518  -19.0793   25.8713 C   0  0  0  0  0  0  0  0  0  0  0  0
   13.0404  -19.0006   27.0594 C   0  0  0  0  0  0  0  0  0  0  0  0
   12.6937  -20.1060   28.0732 C   0  0  0  0  0  0  0  0  0  0  0  0
   13.6667  -19.9634   29.2165 C   0  0  0  0  0  0  0  0  0  0  0  0
   13.2225  -20.8875   30.2671 N   0  0  0  0  0  0  0  0  0  0  0  0
   13.7237  -17.9292   24.4208 C   0  0  0  0  0  0  0  0  0  0  0  0
   14.5355  -17.1721   25.0116 O   0  0  0  0  0  0  0  0  0  0  0  0
   14.1189  -18.7310   23.3522 O   0  0  0  0  0  0  0  0  0  0  0  0
  2  1  1  0
  3  2  2  0
  4  3  1  0
  5 11  1  0
  5  4  2  0
  6  5  1  0
  7  6  1  0
  7  8  1  1
  9  7  1  0
  9 10  2  0
 11 12  2  0
 12  2  1  0
 13  9  1  0
 14 13  1  0
 14 15  1  6
 15 16  1  0
 17 21  1  0
 17 16  1  0
 18 17  2  0
 19 14  1  0
 20 19  2  0
 22 19  1  0
 23 22  1  0
 23 24  1  1
 25 24  1  0
 26 27  1  0
 26 25  1  0
 28 27  1  0
 29 23  1  0
 29 31  1  0
 30 29  2  0
M  END
$$$$
