YEK.pdb
     RDKit          3D

 31 31  0  0  1  0  0  0  0  0999 V2000
    8.5066  -12.0732   27.6542 O   0  0  0  0  0  0  0  0  0  0  0  0
    8.0228  -12.8003   26.5726 C   0  0  0  0  0  0  0  0  0  0  0  0
    6.7437  -13.3382   26.5720 C   0  0  0  0  0  0  0  0  0  0  0  0
    6.2727  -14.0590   25.4920 C   0  0  0  0  0  0  0  0  0  0  0  0
    7.0489  -14.2750   24.3717 C   0  0  0  0  0  0  0  0  0  0  0  0
    6.5576  -15.0505   23.1984 C   0  0  0  0  0  0  0  0  0  0  0  0
    6.6393  -16.5223   23.5022 C   0  0  2  0  0  0  0  0  0  0  0  0
    6.0777  -16.8472   24.7910 N   0  0  0  0  0  0  0  0  0  0  0  0
    8.1048  -16.9184   23.4578 C   0  0  0  0  0  0  0  0  0  0  0  0
    8.6366  -17.4569   24.4524 O   0  0  0  0  0  0  0  0  0  0  0  0
    8.3250  -13.7371   24.3749 C   0  0  0  0  0  0  0  0  0  0  0  0
    8.7978  -13.0160   25.4541 C   0  0  0  0  0  0  0  0  0  0  0  0
    8.8625  -16.6775   22.2923 N   0  0  0  0  0  0  0  0  0  0  0  0
   10.1979  -17.1049   22.0705 C   0  0  1  0  0  0  0  0  0  0  0  0
   10.7216  -16.9660   20.6608 C   0  0  0  0  0  0  0  0  0  0  0  0
   10.1146  -17.8954   19.6689 C   0  0  0  0  0  0  0  0  0  0  0  0
   10.8156  -17.8550   18.3465 C   0  0  0  0  0  0  0  0  0  0  0  0
   10.4341  -18.5388   17.3706 O   0  0  0  0  0  0  0  0  0  0  0  0
   11.1497  -16.7111   23.1219 C   0  0  0  0  0  0  0  0  0  0  0  0
   11.2703  -15.5057   23.5065 O   0  0  0  0  0  0  0  0  0  0  0  0
   11.9230  -17.0473   18.1633 O   0  0  0  0  0  0  0  0  0  0  0  0
   12.0024  -17.6304   23.7881 N   0  0  0  0  0  0  0  0  0  0  0  0
   12.9064  -17.2137   24.8547 C   0  0  1  0  0  0  0  0  0  0  0  0
   12.9177  -18.3191   25.8762 C   0  0  0  0  0  0  0  0  0  0  0  0
   12.3275  -17.9831   27.1976 C   0  0  0  0  0  0  0  0  0  0  0  0
   12.2898  -19.2234   28.1088 C   0  0  0  0  0  0  0  0  0  0  0  0
   11.7104  -18.7733   29.4263 C   0  0  0  0  0  0  0  0  0  0  0  0
   10.4405  -19.4900   29.5962 N   0  0  0  0  0  0  0  0  0  0  0  0
   14.2617  -17.0325   24.3155 C   0  0  0  0  0  0  0  0  0  0  0  0
   14.6112  -17.6471   23.2756 O   0  0  0  0  0  0  0  0  0  0  0  0
   15.1319  -16.1725   24.9820 O   0  0  0  0  0  0  0  0  0  0  0  0
  2  1  1  0
  3  2  2  0
  4  3  1  0
  5 11  1  0
  5  4  2  0
  6  5  1  0
  7  6  1  0
  7  8  1  1
  9  7  1  0
  9 10  2  0
 11 12  2  0
 12  2  1  0
 13  9  1  0
 14 13  1  0
 14 15  1  6
 15 16  1  0
 17 21  1  0
 17 16  1  0
 18 17  2  0
 19 14  1  0
 20 19  2  0
 22 19  1  0
 23 22  1  0
 23 24  1  1
 25 24  1  0
 26 27  1  0
 26 25  1  0
 28 27  1  0
 29 23  1  0
 29 31  1  0
 30 29  2  0
M  END
$$$$
