YEK.pdb
     RDKit          3D

 31 31  0  0  1  0  0  0  0  0999 V2000
    4.9428  -10.4589   27.1763 O   0  0  0  0  0  0  0  0  0  0  0  0
    5.7662  -11.4800   26.7161 C   0  0  0  0  0  0  0  0  0  0  0  0
    6.3773  -12.3698   27.5879 C   0  0  0  0  0  0  0  0  0  0  0  0
    7.1936  -13.3810   27.1201 C   0  0  0  0  0  0  0  0  0  0  0  0
    7.4365  -13.5504   25.7723 C   0  0  0  0  0  0  0  0  0  0  0  0
    8.3147  -14.6346   25.2501 C   0  0  0  0  0  0  0  0  0  0  0  0
    7.5024  -15.5655   24.3906 C   0  0  2  0  0  0  0  0  0  0  0  0
    6.5119  -16.2883   25.1511 N   0  0  0  0  0  0  0  0  0  0  0  0
    8.4653  -16.5380   23.7320 C   0  0  0  0  0  0  0  0  0  0  0  0
    8.6890  -17.6489   24.2593 O   0  0  0  0  0  0  0  0  0  0  0  0
    6.8254  -12.6609   24.9043 C   0  0  0  0  0  0  0  0  0  0  0  0
    6.0087  -11.6490   25.3704 C   0  0  0  0  0  0  0  0  0  0  0  0
    9.1050  -16.1843   22.5253 N   0  0  0  0  0  0  0  0  0  0  0  0
   10.2927  -16.7714   22.0156 C   0  0  1  0  0  0  0  0  0  0  0  0
   10.5997  -16.5092   20.5603 C   0  0  0  0  0  0  0  0  0  0  0  0
    9.5424  -16.9411   19.6057 C   0  0  0  0  0  0  0  0  0  0  0  0
   10.0709  -17.1329   18.2179 C   0  0  0  0  0  0  0  0  0  0  0  0
   11.2866  -17.0136   17.9471 O   0  0  0  0  0  0  0  0  0  0  0  0
   11.4545  -16.6830   22.9150 C   0  0  0  0  0  0  0  0  0  0  0  0
   11.6418  -15.6856   23.6802 O   0  0  0  0  0  0  0  0  0  0  0  0
    9.2160  -17.4525   17.1790 O   0  0  0  0  0  0  0  0  0  0  0  0
   12.4514  -17.6901   23.0048 N   0  0  0  0  0  0  0  0  0  0  0  0
   13.2820  -17.8525   24.1931 C   0  0  1  0  0  0  0  0  0  0  0  0
   12.4914  -18.6802   25.1705 C   0  0  0  0  0  0  0  0  0  0  0  0
   13.1931  -19.0361   26.4309 C   0  0  0  0  0  0  0  0  0  0  0  0
   12.2640  -19.8314   27.3659 C   0  0  0  0  0  0  0  0  0  0  0  0
   13.0820  -20.1955   28.5793 C   0  0  0  0  0  0  0  0  0  0  0  0
   12.1512  -20.7659   29.5606 N   0  0  0  0  0  0  0  0  0  0  0  0
   14.5203  -18.5620   23.8412 C   0  0  0  0  0  0  0  0  0  0  0  0
   14.5414  -19.8192   23.8274 O   0  0  0  0  0  0  0  0  0  0  0  0
   15.6506  -17.8098   23.5288 O   0  0  0  0  0  0  0  0  0  0  0  0
  2  1  1  0
  3  2  2  0
  4  3  1  0
  5 11  1  0
  5  4  2  0
  6  5  1  0
  7  6  1  0
  7  8  1  1
  9  7  1  0
  9 10  2  0
 11 12  2  0
 12  2  1  0
 13  9  1  0
 14 13  1  0
 14 15  1  6
 15 16  1  0
 17 21  1  0
 17 16  1  0
 18 17  2  0
 19 14  1  0
 20 19  2  0
 22 19  1  0
 23 22  1  0
 23 24  1  1
 25 24  1  0
 26 27  1  0
 26 25  1  0
 28 27  1  0
 29 23  1  0
 29 31  1  0
 30 29  2  0
M  END
$$$$
