YEK.pdb
     RDKit          3D

 31 31  0  0  1  0  0  0  0  0999 V2000
    5.8285   -9.9289   26.0675 O   0  0  0  0  0  0  0  0  0  0  0  0
    6.3867  -11.2019   26.0462 C   0  0  0  0  0  0  0  0  0  0  0  0
    7.5604  -11.4696   25.3563 C   0  0  0  0  0  0  0  0  0  0  0  0
    8.1067  -12.7382   25.3417 C   0  0  0  0  0  0  0  0  0  0  0  0
    7.5127  -13.7899   26.0090 C   0  0  0  0  0  0  0  0  0  0  0  0
    8.0873  -15.1644   26.0034 C   0  0  0  0  0  0  0  0  0  0  0  0
    7.4606  -15.9637   24.8929 C   0  0  2  0  0  0  0  0  0  0  0  0
    6.1308  -16.4140   25.2256 N   0  0  0  0  0  0  0  0  0  0  0  0
    8.3616  -17.1560   24.6220 C   0  0  0  0  0  0  0  0  0  0  0  0
    8.1531  -18.2417   25.2049 O   0  0  0  0  0  0  0  0  0  0  0  0
    6.3414  -13.5200   26.6969 C   0  0  0  0  0  0  0  0  0  0  0  0
    5.7937  -12.2520   26.7125 C   0  0  0  0  0  0  0  0  0  0  0  0
    9.4325  -17.0344   23.7115 N   0  0  0  0  0  0  0  0  0  0  0  0
   10.5189  -17.9396   23.5865 C   0  0  1  0  0  0  0  0  0  0  0  0
   11.3733  -17.7956   22.3495 C   0  0  0  0  0  0  0  0  0  0  0  0
   12.4380  -18.8246   22.1961 C   0  0  0  0  0  0  0  0  0  0  0  0
   13.2684  -18.6072   20.9692 C   0  0  0  0  0  0  0  0  0  0  0  0
   12.9630  -19.1051   19.8628 O   0  0  0  0  0  0  0  0  0  0  0  0
   11.2714  -18.1689   24.8305 C   0  0  0  0  0  0  0  0  0  0  0  0
   11.8494  -17.2242   25.4540 O   0  0  0  0  0  0  0  0  0  0  0  0
   14.4157  -17.8371   21.0254 O   0  0  0  0  0  0  0  0  0  0  0  0
   11.4139  -19.4466   25.4332 N   0  0  0  0  0  0  0  0  0  0  0  0
   12.0791  -19.6255   26.7192 C   0  0  1  0  0  0  0  0  0  0  0  0
   11.4114  -20.7903   27.3996 C   0  0  0  0  0  0  0  0  0  0  0  0
   11.9549  -21.1574   28.7328 C   0  0  0  0  0  0  0  0  0  0  0  0
   11.2967  -22.4482   29.2529 C   0  0  0  0  0  0  0  0  0  0  0  0
   11.9137  -22.7349   30.5987 C   0  0  0  0  0  0  0  0  0  0  0  0
   11.3531  -24.0119   31.0570 N   0  0  0  0  0  0  0  0  0  0  0  0
   13.5004  -19.9335   26.5054 C   0  0  0  0  0  0  0  0  0  0  0  0
   13.8879  -20.3685   25.3910 O   0  0  0  0  0  0  0  0  0  0  0  0
   14.3893  -19.7315   27.5590 O   0  0  0  0  0  0  0  0  0  0  0  0
  2  1  1  0
  3  2  2  0
  4  3  1  0
  5 11  1  0
  5  4  2  0
  6  5  1  0
  7  6  1  0
  7  8  1  1
  9  7  1  0
  9 10  2  0
 11 12  2  0
 12  2  1  0
 13  9  1  0
 14 13  1  0
 14 15  1  6
 15 16  1  0
 17 21  1  0
 17 16  1  0
 18 17  2  0
 19 14  1  0
 20 19  2  0
 22 19  1  0
 23 22  1  0
 23 24  1  6
 25 24  1  0
 26 27  1  0
 26 25  1  0
 28 27  1  0
 29 23  1  0
 29 31  1  0
 30 29  2  0
M  END
$$$$
