YEK.pdb
     RDKit          3D

 31 31  0  0  1  0  0  0  0  0999 V2000
    5.3126  -10.2272   26.7123 O   0  0  0  0  0  0  0  0  0  0  0  0
    6.0838  -11.3296   26.3626 C   0  0  0  0  0  0  0  0  0  0  0  0
    6.1534  -12.4544   27.1720 C   0  0  0  0  0  0  0  0  0  0  0  0
    6.9228  -13.5446   26.8150 C   0  0  0  0  0  0  0  0  0  0  0  0
    7.6525  -13.5634   25.6439 C   0  0  0  0  0  0  0  0  0  0  0  0
    8.4882  -14.7299   25.2435 C   0  0  0  0  0  0  0  0  0  0  0  0
    7.7245  -15.5791   24.2633 C   0  0  2  0  0  0  0  0  0  0  0  0
    6.6269  -16.2797   24.8849 N   0  0  0  0  0  0  0  0  0  0  0  0
    8.7017  -16.5728   23.6597 C   0  0  0  0  0  0  0  0  0  0  0  0
    8.8613  -17.6929   24.1907 O   0  0  0  0  0  0  0  0  0  0  0  0
    7.5812  -12.4396   24.8378 C   0  0  0  0  0  0  0  0  0  0  0  0
    6.8123  -11.3484   25.1933 C   0  0  0  0  0  0  0  0  0  0  0  0
    9.4270  -16.2284   22.4996 N   0  0  0  0  0  0  0  0  0  0  0  0
   10.5690  -16.9111   22.0048 C   0  0  1  0  0  0  0  0  0  0  0  0
   11.0116  -16.5522   20.6061 C   0  0  0  0  0  0  0  0  0  0  0  0
    9.9920  -16.7781   19.5453 C   0  0  0  0  0  0  0  0  0  0  0  0
   10.5688  -17.4385   18.3316 C   0  0  0  0  0  0  0  0  0  0  0  0
    9.8982  -18.2149   17.6152 O   0  0  0  0  0  0  0  0  0  0  0  0
   11.6637  -17.0587   22.9775 C   0  0  0  0  0  0  0  0  0  0  0  0
   12.4141  -16.0856   23.3025 O   0  0  0  0  0  0  0  0  0  0  0  0
   11.8808  -17.2052   17.9620 O   0  0  0  0  0  0  0  0  0  0  0  0
   11.9712  -18.2828   23.6280 N   0  0  0  0  0  0  0  0  0  0  0  0
   12.8406  -18.3399   24.7981 C   0  0  1  0  0  0  0  0  0  0  0  0
   12.2568  -19.3698   25.7277 C   0  0  0  0  0  0  0  0  0  0  0  0
   13.0421  -19.6479   26.9580 C   0  0  0  0  0  0  0  0  0  0  0  0
   12.4074  -20.7977   27.7612 C   0  0  0  0  0  0  0  0  0  0  0  0
   13.2062  -20.9274   29.0336 C   0  0  0  0  0  0  0  0  0  0  0  0
   12.5774  -21.9955   29.8202 N   0  0  0  0  0  0  0  0  0  0  0  0
   14.1914  -18.7555   24.3944 C   0  0  0  0  0  0  0  0  0  0  0  0
   15.1832  -18.4366   25.0986 O   0  0  0  0  0  0  0  0  0  0  0  0
   14.3353  -19.5014   23.2265 O   0  0  0  0  0  0  0  0  0  0  0  0
  2  1  1  0
  3  2  2  0
  4  3  1  0
  5 11  1  0
  5  4  2  0
  6  5  1  0
  7  6  1  0
  7  8  1  1
  9  7  1  0
  9 10  2  0
 11 12  2  0
 12  2  1  0
 13  9  1  0
 14 13  1  0
 14 15  1  6
 15 16  1  0
 17 21  1  0
 17 16  1  0
 18 17  2  0
 19 14  1  0
 20 19  2  0
 22 19  1  0
 23 22  1  0
 23 24  1  1
 25 24  1  0
 26 27  1  0
 26 25  1  0
 28 27  1  0
 29 23  1  0
 29 31  1  0
 30 29  2  0
M  END
$$$$
