YEK.pdb
     RDKit          3D

 31 31  0  0  1  0  0  0  0  0999 V2000
    7.1131  -13.1053   15.3194 O   0  0  0  0  0  0  0  0  0  0  0  0
    7.2064  -13.5932   16.6178 C   0  0  0  0  0  0  0  0  0  0  0  0
    7.6515  -12.7971   17.6634 C   0  0  0  0  0  0  0  0  0  0  0  0
    7.7404  -13.2919   18.9499 C   0  0  0  0  0  0  0  0  0  0  0  0
    7.3924  -14.5928   19.2509 C   0  0  0  0  0  0  0  0  0  0  0  0
    7.4827  -15.1434   20.6322 C   0  0  0  0  0  0  0  0  0  0  0  0
    8.9055  -15.0528   21.1145 C   0  0  2  0  0  0  0  0  0  0  0  0
    9.8511  -15.0120   20.0254 N   0  0  0  0  0  0  0  0  0  0  0  0
    9.1706  -16.2658   21.9893 C   0  0  0  0  0  0  0  0  0  0  0  0
    8.3924  -16.5410   22.9278 O   0  0  0  0  0  0  0  0  0  0  0  0
    6.9484  -15.3853   18.2055 C   0  0  0  0  0  0  0  0  0  0  0  0
    6.8589  -14.8921   16.9183 C   0  0  0  0  0  0  0  0  0  0  0  0
   10.2956  -17.0797   21.7393 N   0  0  0  0  0  0  0  0  0  0  0  0
   10.7233  -18.1692   22.5425 C   0  0  1  0  0  0  0  0  0  0  0  0
   11.4350  -19.2922   21.8260 C   0  0  0  0  0  0  0  0  0  0  0  0
   11.1025  -19.4285   20.3814 C   0  0  0  0  0  0  0  0  0  0  0  0
   11.8913  -20.5125   19.7146 C   0  0  0  0  0  0  0  0  0  0  0  0
   13.1382  -20.5744   19.7973 O   0  0  0  0  0  0  0  0  0  0  0  0
   11.3233  -17.7830   23.8298 C   0  0  0  0  0  0  0  0  0  0  0  0
   12.2436  -16.9100   23.9109 O   0  0  0  0  0  0  0  0  0  0  0  0
   11.2532  -21.4923   18.9762 O   0  0  0  0  0  0  0  0  0  0  0  0
   10.9312  -18.3433   25.0741 N   0  0  0  0  0  0  0  0  0  0  0  0
   11.3159  -17.7447   26.3476 C   0  0  1  0  0  0  0  0  0  0  0  0
   10.4055  -16.5670   26.5708 C   0  0  0  0  0  0  0  0  0  0  0  0
   10.6312  -15.8054   27.8265 C   0  0  0  0  0  0  0  0  0  0  0  0
    9.6995  -14.5818   27.8965 C   0  0  0  0  0  0  0  0  0  0  0  0
    9.9890  -13.8937   29.2067 C   0  0  0  0  0  0  0  0  0  0  0  0
    9.1261  -12.7073   29.2604 N   0  0  0  0  0  0  0  0  0  0  0  0
   11.1291  -18.7192   27.4319 C   0  0  0  0  0  0  0  0  0  0  0  0
   10.4064  -19.7318   27.2485 O   0  0  0  0  0  0  0  0  0  0  0  0
   11.7675  -18.4892   28.6487 O   0  0  0  0  0  0  0  0  0  0  0  0
  2  1  1  0
  3  2  2  0
  4  3  1  0
  5 11  1  0
  5  4  2  0
  6  5  1  0
  7  6  1  0
  7  8  1  6
  9  7  1  0
  9 10  2  0
 11 12  2  0
 12  2  1  0
 13  9  1  0
 14 13  1  0
 14 15  1  6
 15 16  1  0
 17 21  1  0
 17 16  1  0
 18 17  2  0
 19 14  1  0
 20 19  2  0
 22 19  1  0
 23 22  1  0
 23 24  1  1
 25 24  1  0
 26 27  1  0
 26 25  1  0
 28 27  1  0
 29 23  1  0
 29 31  1  0
 30 29  2  0
M  END
$$$$
