NLH.pdb
     RDKit          3D

 27 27  0  0  1  0  0  0  0  0999 V2000
   20.9951  -30.0687  -18.8939 N   0  0  0  0  0  0  0  0  0  0  0  0
   21.6783  -28.8434  -18.7080 C   0  0  0  0  0  0  0  0  0  0  0  0
   20.9928  -27.8171  -18.5523 O   0  0  0  0  0  0  0  0  0  0  0  0
   23.1403  -28.8453  -18.7083 C   0  0  0  0  0  0  0  0  0  0  0  0
   23.8096  -27.8420  -19.6006 C   0  0  2  0  0  0  0  0  0  0  0  0
   23.4725  -28.2692  -20.9761 N   0  0  0  0  0  0  0  0  0  0  0  0
   25.2733  -27.8904  -19.3978 C   0  0  0  0  0  0  0  0  0  0  0  0
   26.0823  -27.4438  -20.2176 O   0  0  0  0  0  0  0  0  0  0  0  0
   27.1973  -24.6629  -18.4217 C   0  0  0  0  0  0  0  0  0  0  0  0
   26.8727  -25.9073  -17.6387 C   0  0  2  0  0  0  0  0  0  0  0  0
   26.6040  -25.6101  -16.1826 C   0  0  0  0  0  0  0  0  0  0  0  0
   27.7911  -27.0469  -17.8634 C   0  0  0  0  0  0  0  0  0  0  0  0
   27.2256  -28.4148  -17.8610 C   0  0  2  0  0  0  0  0  0  0  0  0
   25.8274  -28.4820  -18.1918 N   0  0  0  0  0  0  0  0  0  0  0  0
   27.5741  -29.2318  -16.6747 C   0  0  0  0  0  0  0  0  0  0  0  0
   26.7061  -29.3970  -15.7909 O   0  0  0  0  0  0  0  0  0  0  0  0
   28.8404  -29.8097  -16.5346 N   0  0  0  0  0  0  0  0  0  0  0  0
   28.9606  -31.0573  -15.7817 C   0  0  1  0  0  0  0  0  0  0  0  0
   27.8289  -31.9807  -16.2043 C   0  0  0  0  0  0  0  0  0  0  0  0
   27.8992  -33.2545  -15.4786 C   0  0  0  0  0  0  0  0  0  0  0  0
   28.6846  -33.4956  -14.3748 C   0  0  0  0  0  0  0  0  0  0  0  0
   28.4872  -34.7574  -13.9908 N   0  0  0  0  0  0  0  0  0  0  0  0
   27.5897  -35.3077  -14.8394 C   0  0  0  0  0  0  0  0  0  0  0  0
   27.2439  -34.3745  -15.7390 N   0  0  0  0  0  0  0  0  0  0  0  0
   30.2801  -31.6425  -16.0979 C   0  0  0  0  0  0  0  0  0  0  0  0
   30.9925  -31.1344  -16.9857 O   0  0  0  0  0  0  0  0  0  0  0  0
   30.7280  -32.7512  -15.4122 O   0  0  0  0  0  0  0  0  0  0  0  0
  1  2  1  0
  2  3  2  0
  4  2  1  0
  5  7  1  0
  5  4  1  0
  5  6  1  6
  7  8  2  0
 10  9  1  1
 10 11  1  0
 13 12  1  1
 12 10  1  0
 14 13  1  0
 14  7  1  0
 15 16  2  0
 15 13  1  0
 17 15  1  0
 18 25  1  0
 18 17  1  0
 18 19  1  6
 20 19  1  0
 21 20  2  0
 22 23  1  0
 22 21  1  0
 23 24  2  0
 24 20  1  0
 25 27  1  0
 26 25  2  0
M  END
$$$$
