NLH.pdb
     RDKit          3D

 27 27  0  0  1  0  0  0  0  0999 V2000
   27.9389  -18.1234  -16.7369 N   0  0  0  0  0  0  0  0  0  0  0  0
   26.7965  -18.6063  -17.4186 C   0  0  0  0  0  0  0  0  0  0  0  0
   26.4439  -18.0088  -18.4510 O   0  0  0  0  0  0  0  0  0  0  0  0
   26.0957  -19.7712  -16.8806 C   0  0  0  0  0  0  0  0  0  0  0  0
   26.6405  -20.3500  -15.6083 C   0  0  2  0  0  0  0  0  0  0  0  0
   27.4900  -21.4825  -16.0368 N   0  0  0  0  0  0  0  0  0  0  0  0
   25.5288  -20.8392  -14.7652 C   0  0  0  0  0  0  0  0  0  0  0  0
   24.7726  -21.7529  -15.1108 O   0  0  0  0  0  0  0  0  0  0  0  0
   25.7997  -22.4209  -10.6773 C   0  0  0  0  0  0  0  0  0  0  0  0
   25.6182  -20.9323  -10.5421 C   0  0  2  0  0  0  0  0  0  0  0  0
   25.8389  -20.4581   -9.1254 C   0  0  0  0  0  0  0  0  0  0  0  0
   24.3959  -20.3894  -11.1776 C   0  0  0  0  0  0  0  0  0  0  0  0
   24.1835  -20.6426  -12.6204 C   0  0  2  0  0  0  0  0  0  0  0  0
   25.2797  -20.2451  -13.4627 N   0  0  0  0  0  0  0  0  0  0  0  0
   22.8691  -20.2022  -13.1443 C   0  0  0  0  0  0  0  0  0  0  0  0
   22.7717  -19.0468  -13.6105 O   0  0  0  0  0  0  0  0  0  0  0  0
   21.7556  -21.0491  -13.1231 N   0  0  0  0  0  0  0  0  0  0  0  0
   20.5687  -20.6631  -13.8848 C   0  0  1  0  0  0  0  0  0  0  0  0
   20.8206  -20.9751  -15.3515 C   0  0  0  0  0  0  0  0  0  0  0  0
   19.6522  -20.6209  -16.1661 C   0  0  0  0  0  0  0  0  0  0  0  0
   18.4946  -20.0523  -15.6866 C   0  0  0  0  0  0  0  0  0  0  0  0
   17.6613  -19.8755  -16.7128 N   0  0  0  0  0  0  0  0  0  0  0  0
   18.2824  -20.3257  -17.8263 C   0  0  0  0  0  0  0  0  0  0  0  0
   19.4951  -20.7761  -17.4710 N   0  0  0  0  0  0  0  0  0  0  0  0
   19.4287  -21.4408  -13.3565 C   0  0  0  0  0  0  0  0  0  0  0  0
   18.3286  -20.8864  -13.1663 O   0  0  0  0  0  0  0  0  0  0  0  0
   19.5775  -22.7814  -13.0728 O   0  0  0  0  0  0  0  0  0  0  0  0
  1  2  1  0
  2  3  2  0
  4  2  1  0
  5  7  1  0
  5  4  1  0
  5  6  1  6
  7  8  2  0
 10  9  1  1
 10 11  1  0
 13 12  1  1
 12 10  1  0
 14 13  1  0
 14  7  1  0
 15 16  2  0
 15 13  1  0
 17 15  1  0
 18 25  1  0
 18 17  1  0
 18 19  1  6
 20 19  1  0
 21 20  2  0
 22 23  1  0
 22 21  1  0
 23 24  2  0
 24 20  1  0
 25 27  1  0
 26 25  2  0
M  END
$$$$
