NLH.pdb
     RDKit          3D

 27 27  0  0  1  0  0  0  0  0999 V2000
   17.1923  -13.1256  -19.1360 N   0  0  0  0  0  0  0  0  0  0  0  0
   16.8607  -12.3674  -17.9880 C   0  0  0  0  0  0  0  0  0  0  0  0
   15.6621  -12.0891  -17.8053 O   0  0  0  0  0  0  0  0  0  0  0  0
   17.9324  -11.9535  -17.0838 C   0  0  0  0  0  0  0  0  0  0  0  0
   19.3307  -12.3020  -17.5012 C   0  0  2  0  0  0  0  0  0  0  0  0
   19.4125  -13.7732  -17.3720 N   0  0  0  0  0  0  0  0  0  0  0  0
   20.2999  -11.6571  -16.5899 C   0  0  0  0  0  0  0  0  0  0  0  0
   20.4436  -11.9950  -15.4104 O   0  0  0  0  0  0  0  0  0  0  0  0
   25.3157   -8.0417  -16.7976 C   0  0  0  0  0  0  0  0  0  0  0  0
   24.3918   -8.9004  -15.9753 C   0  0  2  0  0  0  0  0  0  0  0  0
   25.1348   -9.6966  -14.9291 C   0  0  0  0  0  0  0  0  0  0  0  0
   23.4122   -9.6918  -16.7542 C   0  0  0  0  0  0  0  0  0  0  0  0
   22.0470   -9.8547  -16.2058 C   0  0  2  0  0  0  0  0  0  0  0  0
   21.1421  -10.5718  -17.0636 N   0  0  0  0  0  0  0  0  0  0  0  0
   21.4486   -8.6204  -15.6451 C   0  0  0  0  0  0  0  0  0  0  0  0
   20.8751   -7.8302  -16.4252 O   0  0  0  0  0  0  0  0  0  0  0  0
   21.5170   -8.3339  -14.2774 N   0  0  0  0  0  0  0  0  0  0  0  0
   20.8242   -7.1482  -13.7755 C   0  0  1  0  0  0  0  0  0  0  0  0
   20.4512   -7.3927  -12.3220 C   0  0  0  0  0  0  0  0  0  0  0  0
   19.2197   -8.1857  -12.2279 C   0  0  0  0  0  0  0  0  0  0  0  0
   18.4321   -8.5560  -13.2936 C   0  0  0  0  0  0  0  0  0  0  0  0
   17.4041   -9.2648  -12.8252 N   0  0  0  0  0  0  0  0  0  0  0  0
   17.5388   -9.3424  -11.4820 C   0  0  0  0  0  0  0  0  0  0  0  0
   18.6523   -8.6778  -11.1381 N   0  0  0  0  0  0  0  0  0  0  0  0
   21.7483   -6.0029  -13.9094 C   0  0  0  0  0  0  0  0  0  0  0  0
   21.2998   -4.8412  -13.9659 O   0  0  0  0  0  0  0  0  0  0  0  0
   23.1088   -6.2149  -13.9717 O   0  0  0  0  0  0  0  0  0  0  0  0
  1  2  1  0
  2  3  2  0
  4  2  1  0
  5  7  1  0
  5  4  1  0
  5  6  1  1
  7  8  2  0
 10  9  1  6
 10 11  1  0
 13 12  1  6
 12 10  1  0
 14 13  1  0
 14  7  1  0
 15 16  2  0
 15 13  1  0
 17 15  1  0
 18 25  1  0
 18 17  1  0
 18 19  1  1
 20 19  1  0
 21 20  2  0
 22 23  1  0
 22 21  1  0
 23 24  2  0
 24 20  1  0
 25 27  1  0
 26 25  2  0
M  END
$$$$
