NLH.pdb
     RDKit          3D

 27 27  0  0  1  0  0  0  0  0999 V2000
   21.6819  -16.3034  -19.2828 N   0  0  0  0  0  0  0  0  0  0  0  0
   21.1194  -15.0222  -19.4945 C   0  0  0  0  0  0  0  0  0  0  0  0
   20.5845  -14.8004  -20.5954 O   0  0  0  0  0  0  0  0  0  0  0  0
   21.1944  -14.0339  -18.4198 C   0  0  0  0  0  0  0  0  0  0  0  0
   21.2656  -12.5951  -18.8389 C   0  0  2  0  0  0  0  0  0  0  0  0
   22.5959  -12.4459  -19.4681 N   0  0  0  0  0  0  0  0  0  0  0  0
   21.1653  -11.7224  -17.6496 C   0  0  0  0  0  0  0  0  0  0  0  0
   20.2128  -11.7610  -16.8639 O   0  0  0  0  0  0  0  0  0  0  0  0
   23.9392  -11.3044  -14.1769 C   0  0  0  0  0  0  0  0  0  0  0  0
   24.4305  -10.4131  -15.2865 C   0  0  2  0  0  0  0  0  0  0  0  0
   25.8136   -9.8723  -15.0124 C   0  0  0  0  0  0  0  0  0  0  0  0
   23.4621   -9.3913  -15.7454 C   0  0  0  0  0  0  0  0  0  0  0  0
   22.1459   -9.8468  -16.2464 C   0  0  2  0  0  0  0  0  0  0  0  0
   22.2142  -10.7609  -17.3549 N   0  0  0  0  0  0  0  0  0  0  0  0
   21.1498   -8.7691  -16.4525 C   0  0  0  0  0  0  0  0  0  0  0  0
   21.2797   -8.0215  -17.4455 O   0  0  0  0  0  0  0  0  0  0  0  0
   20.0850   -8.5817  -15.5646 N   0  0  0  0  0  0  0  0  0  0  0  0
   19.1700   -7.4648  -15.7955 C   0  0  1  0  0  0  0  0  0  0  0  0
   17.7703   -7.9041  -15.3958 C   0  0  0  0  0  0  0  0  0  0  0  0
   16.8372   -6.7720  -15.4429 C   0  0  0  0  0  0  0  0  0  0  0  0
   16.2882   -6.2446  -16.5890 C   0  0  0  0  0  0  0  0  0  0  0  0
   15.4933   -5.2316  -16.2420 N   0  0  0  0  0  0  0  0  0  0  0  0
   15.5383   -5.1190  -14.8952 C   0  0  0  0  0  0  0  0  0  0  0  0
   16.3635   -6.0677  -14.4275 N   0  0  0  0  0  0  0  0  0  0  0  0
   19.6351   -6.3307  -14.9702 C   0  0  0  0  0  0  0  0  0  0  0  0
   19.2699   -5.1700  -15.2404 O   0  0  0  0  0  0  0  0  0  0  0  0
   20.4735   -6.5523  -13.8988 O   0  0  0  0  0  0  0  0  0  0  0  0
  1  2  1  0
  2  3  2  0
  4  2  1  0
  5  7  1  0
  5  4  1  0
  5  6  1  1
  7  8  2  0
 10  9  1  1
 10 11  1  0
 13 12  1  6
 12 10  1  0
 14 13  1  0
 14  7  1  0
 15 16  2  0
 15 13  1  0
 17 15  1  0
 18 25  1  0
 18 17  1  0
 18 19  1  1
 20 19  1  0
 21 20  2  0
 22 23  1  0
 22 21  1  0
 23 24  2  0
 24 20  1  0
 25 27  1  0
 26 25  2  0
M  END
$$$$
