NLH.pdb
     RDKit          3D

 27 27  0  0  1  0  0  0  0  0999 V2000
   25.2865  -25.8628  -17.4574 N   0  0  0  0  0  0  0  0  0  0  0  0
   24.4266  -24.7535  -17.6390 C   0  0  0  0  0  0  0  0  0  0  0  0
   24.1503  -24.4211  -18.8054 O   0  0  0  0  0  0  0  0  0  0  0  0
   23.9117  -24.0612  -16.4587 C   0  0  0  0  0  0  0  0  0  0  0  0
   24.3511  -24.5940  -15.1269 C   0  0  2  0  0  0  0  0  0  0  0  0
   23.5310  -25.8058  -14.9108 N   0  0  0  0  0  0  0  0  0  0  0  0
   24.0712  -23.5963  -14.0723 C   0  0  0  0  0  0  0  0  0  0  0  0
   23.1885  -23.7452  -13.2210 O   0  0  0  0  0  0  0  0  0  0  0  0
   26.7656  -21.8678  -10.8857 C   0  0  0  0  0  0  0  0  0  0  0  0
   26.9636  -21.1162  -12.1753 C   0  0  2  0  0  0  0  0  0  0  0  0
   28.1681  -20.2067  -12.1250 C   0  0  0  0  0  0  0  0  0  0  0  0
   25.7453  -20.4760  -12.7214 C   0  0  0  0  0  0  0  0  0  0  0  0
   24.5815  -21.3353  -13.0351 C   0  0  2  0  0  0  0  0  0  0  0  0
   24.8475  -22.3701  -13.9980 N   0  0  0  0  0  0  0  0  0  0  0  0
   23.3228  -20.6040  -13.3122 C   0  0  0  0  0  0  0  0  0  0  0  0
   22.9567  -19.7233  -12.5047 O   0  0  0  0  0  0  0  0  0  0  0  0
   22.5528  -20.8830  -14.4465 N   0  0  0  0  0  0  0  0  0  0  0  0
   21.3659  -20.0687  -14.7038 C   0  0  1  0  0  0  0  0  0  0  0  0
   21.1961  -19.9348  -16.2088 C   0  0  0  0  0  0  0  0  0  0  0  0
   22.0665  -18.8780  -16.7379 C   0  0  0  0  0  0  0  0  0  0  0  0
   22.8397  -18.0326  -15.9759 C   0  0  0  0  0  0  0  0  0  0  0  0
   23.4907  -17.2089  -16.7984 N   0  0  0  0  0  0  0  0  0  0  0  0
   23.1348  -17.5282  -18.0632 C   0  0  0  0  0  0  0  0  0  0  0  0
   22.2656  -18.5484  -18.0041 N   0  0  0  0  0  0  0  0  0  0  0  0
   20.2118  -20.7582  -14.0906 C   0  0  0  0  0  0  0  0  0  0  0  0
   20.2862  -21.9699  -13.8072 O   0  0  0  0  0  0  0  0  0  0  0  0
   19.0499  -20.0644  -13.8292 O   0  0  0  0  0  0  0  0  0  0  0  0
  1  2  1  0
  2  3  2  0
  4  2  1  0
  5  7  1  0
  5  4  1  0
  5  6  1  1
  7  8  2  0
 10  9  1  1
 10 11  1  0
 13 12  1  6
 12 10  1  0
 14 13  1  0
 14  7  1  0
 15 16  2  0
 15 13  1  0
 17 15  1  0
 18 25  1  0
 18 17  1  0
 18 19  1  6
 20 19  1  0
 21 20  2  0
 22 23  1  0
 22 21  1  0
 23 24  2  0
 24 20  1  0
 25 27  1  0
 26 25  2  0
M  END
$$$$
