NLH.pdb
     RDKit          3D

 27 27  0  0  1  0  0  0  0  0999 V2000
   16.7542  -12.5732  -18.4779 N   0  0  0  0  0  0  0  0  0  0  0  0
   17.2442  -13.2106  -17.3132 C   0  0  0  0  0  0  0  0  0  0  0  0
   16.6109  -14.1897  -16.8801 O   0  0  0  0  0  0  0  0  0  0  0  0
   18.4577  -12.6916  -16.6842 C   0  0  0  0  0  0  0  0  0  0  0  0
   19.0337  -11.4391  -17.2758 C   0  0  2  0  0  0  0  0  0  0  0  0
   19.7598  -11.8864  -18.4844 N   0  0  0  0  0  0  0  0  0  0  0  0
   19.9745  -10.8203  -16.3177 C   0  0  0  0  0  0  0  0  0  0  0  0
   19.6163  -10.3341  -15.2401 O   0  0  0  0  0  0  0  0  0  0  0  0
   23.1476  -12.7044  -14.0852 C   0  0  0  0  0  0  0  0  0  0  0  0
   23.6899  -12.2917  -15.4278 C   0  0  2  0  0  0  0  0  0  0  0  0
   25.0123  -12.9530  -15.7356 C   0  0  0  0  0  0  0  0  0  0  0  0
   23.6665  -10.8351  -15.6927 C   0  0  0  0  0  0  0  0  0  0  0  0
   22.3546  -10.1511  -15.7381 C   0  0  2  0  0  0  0  0  0  0  0  0
   21.3949  -10.7611  -16.6189 N   0  0  0  0  0  0  0  0  0  0  0  0
   22.4235   -8.6793  -15.8962 C   0  0  0  0  0  0  0  0  0  0  0  0
   22.7812   -8.2161  -17.0004 O   0  0  0  0  0  0  0  0  0  0  0  0
   22.0993   -7.8174  -14.8429 N   0  0  0  0  0  0  0  0  0  0  0  0
   22.3398   -6.3851  -15.0118 C   0  0  1  0  0  0  0  0  0  0  0  0
   21.4749   -5.8879  -16.1591 C   0  0  0  0  0  0  0  0  0  0  0  0
   20.0667   -5.8108  -15.7526 C   0  0  0  0  0  0  0  0  0  0  0  0
   19.1010   -6.7416  -16.0597 C   0  0  0  0  0  0  0  0  0  0  0  0
   17.9482   -6.3378  -15.5245 N   0  0  0  0  0  0  0  0  0  0  0  0
   18.1804   -5.1678  -14.8876 C   0  0  0  0  0  0  0  0  0  0  0  0
   19.4783   -4.8642  -15.0389 N   0  0  0  0  0  0  0  0  0  0  0  0
   21.9829   -5.7212  -13.7408 C   0  0  0  0  0  0  0  0  0  0  0  0
   21.4560   -6.3759  -12.8202 O   0  0  0  0  0  0  0  0  0  0  0  0
   22.2316   -4.3764  -13.5686 O   0  0  0  0  0  0  0  0  0  0  0  0
  1  2  1  0
  2  3  2  0
  4  2  1  0
  5  7  1  0
  5  4  1  0
  5  6  1  6
  7  8  2  0
 10  9  1  1
 10 11  1  0
 13 12  1  6
 12 10  1  0
 14 13  1  0
 14  7  1  0
 15 16  2  0
 15 13  1  0
 17 15  1  0
 18 25  1  0
 18 17  1  0
 18 19  1  6
 20 19  1  0
 21 20  2  0
 22 23  1  0
 22 21  1  0
 23 24  2  0
 24 20  1  0
 25 27  1  0
 26 25  2  0
M  END
$$$$
