NLH.pdb
     RDKit          3D

 27 27  0  0  1  0  0  0  0  0999 V2000
   27.6629  -19.8412  -19.5782 N   0  0  0  0  0  0  0  0  0  0  0  0
   27.5841  -19.4996  -18.2071 C   0  0  0  0  0  0  0  0  0  0  0  0
   28.3907  -18.6576  -17.7737 O   0  0  0  0  0  0  0  0  0  0  0  0
   26.5691  -20.1470  -17.3775 C   0  0  0  0  0  0  0  0  0  0  0  0
   26.9272  -20.3730  -15.9382 C   0  0  2  0  0  0  0  0  0  0  0  0
   27.9410  -21.4498  -15.9613 N   0  0  0  0  0  0  0  0  0  0  0  0
   25.7320  -20.8163  -15.1893 C   0  0  0  0  0  0  0  0  0  0  0  0
   24.9560  -21.6809  -15.6093 O   0  0  0  0  0  0  0  0  0  0  0  0
   25.8392  -22.5331  -11.1919 C   0  0  0  0  0  0  0  0  0  0  0  0
   25.6652  -21.0565  -10.9538 C   0  0  2  0  0  0  0  0  0  0  0  0
   25.7882  -20.6970   -9.4922 C   0  0  0  0  0  0  0  0  0  0  0  0
   24.4984  -20.4456  -11.6304 C   0  0  0  0  0  0  0  0  0  0  0  0
   24.3233  -20.6850  -13.0805 C   0  0  2  0  0  0  0  0  0  0  0  0
   25.4193  -20.2336  -13.8954 N   0  0  0  0  0  0  0  0  0  0  0  0
   23.0032  -20.2872  -13.6236 C   0  0  0  0  0  0  0  0  0  0  0  0
   22.6493  -19.0939  -13.5115 O   0  0  0  0  0  0  0  0  0  0  0  0
   22.1631  -21.2149  -14.2488 N   0  0  0  0  0  0  0  0  0  0  0  0
   20.8683  -20.7583  -14.7518 C   0  0  1  0  0  0  0  0  0  0  0  0
   20.3758  -21.7619  -15.7823 C   0  0  0  0  0  0  0  0  0  0  0  0
   19.1038  -21.3229  -16.3685 C   0  0  0  0  0  0  0  0  0  0  0  0
   18.7433  -20.0136  -16.5902 C   0  0  0  0  0  0  0  0  0  0  0  0
   17.5247  -20.0032  -17.1321 N   0  0  0  0  0  0  0  0  0  0  0  0
   17.1193  -21.2876  -17.2518 C   0  0  0  0  0  0  0  0  0  0  0  0
   18.0968  -22.0764  -16.7805 N   0  0  0  0  0  0  0  0  0  0  0  0
   19.9478  -20.6739  -13.5990 C   0  0  0  0  0  0  0  0  0  0  0  0
   20.0760  -21.4577  -12.6382 O   0  0  0  0  0  0  0  0  0  0  0  0
   18.9450  -19.7284  -13.5816 O   0  0  0  0  0  0  0  0  0  0  0  0
  1  2  1  0
  2  3  2  0
  4  2  1  0
  5  7  1  0
  5  4  1  0
  5  6  1  6
  7  8  2  0
 10  9  1  1
 10 11  1  0
 13 12  1  1
 12 10  1  0
 14 13  1  0
 14  7  1  0
 15 16  2  0
 15 13  1  0
 17 15  1  0
 18 25  1  0
 18 17  1  0
 18 19  1  6
 20 19  1  0
 21 20  2  0
 22 23  1  0
 22 21  1  0
 23 24  2  0
 24 20  1  0
 25 27  1  0
 26 25  2  0
M  END
$$$$
