NLH.pdb
     RDKit          3D

 27 27  0  0  1  0  0  0  0  0999 V2000
   22.9753  -12.9237  -21.8121 N   0  0  0  0  0  0  0  0  0  0  0  0
   22.2747  -11.6945  -21.7779 C   0  0  0  0  0  0  0  0  0  0  0  0
   21.9154  -11.2036  -22.8630 O   0  0  0  0  0  0  0  0  0  0  0  0
   22.0111  -11.0701  -20.4825 C   0  0  0  0  0  0  0  0  0  0  0  0
   22.5374  -11.7883  -19.2751 C   0  0  2  0  0  0  0  0  0  0  0  0
   21.5417  -12.8458  -18.9955 N   0  0  0  0  0  0  0  0  0  0  0  0
   22.6194  -10.8528  -18.1332 C   0  0  0  0  0  0  0  0  0  0  0  0
   21.6508  -10.5752  -17.4186 O   0  0  0  0  0  0  0  0  0  0  0  0
   27.3074  -10.6078  -15.5146 C   0  0  0  0  0  0  0  0  0  0  0  0
   25.9231  -10.0870  -15.2324 C   0  0  2  0  0  0  0  0  0  0  0  0
   24.9556  -11.1959  -14.8937 C   0  0  0  0  0  0  0  0  0  0  0  0
   25.4054   -9.1145  -16.2217 C   0  0  0  0  0  0  0  0  0  0  0  0
   24.0184   -9.2818  -16.7107 C   0  0  2  0  0  0  0  0  0  0  0  0
   23.8792  -10.2086  -17.8018 N   0  0  0  0  0  0  0  0  0  0  0  0
   23.2790   -8.0173  -16.9346 C   0  0  0  0  0  0  0  0  0  0  0  0
   23.4511   -7.4111  -18.0138 O   0  0  0  0  0  0  0  0  0  0  0  0
   22.4066   -7.5027  -15.9695 N   0  0  0  0  0  0  0  0  0  0  0  0
   21.6325   -6.3054  -16.2936 C   0  0  1  0  0  0  0  0  0  0  0  0
   20.6178   -6.6688  -17.3660 C   0  0  0  0  0  0  0  0  0  0  0  0
   19.7752   -5.5134  -17.6970 C   0  0  0  0  0  0  0  0  0  0  0  0
   18.4460   -5.3814  -17.3670 C   0  0  0  0  0  0  0  0  0  0  0  0
   18.0164   -4.2072  -17.8311 N   0  0  0  0  0  0  0  0  0  0  0  0
   19.0587   -3.6043  -18.4463 C   0  0  0  0  0  0  0  0  0  0  0  0
   20.1216   -4.4175  -18.3532 N   0  0  0  0  0  0  0  0  0  0  0  0
   20.9677   -5.8561  -15.0528 C   0  0  0  0  0  0  0  0  0  0  0  0
   20.7887   -6.6569  -14.1144 O   0  0  0  0  0  0  0  0  0  0  0  0
   20.5438   -4.5504  -14.9283 O   0  0  0  0  0  0  0  0  0  0  0  0
  1  2  1  0
  2  3  2  0
  4  2  1  0
  5  7  1  0
  5  4  1  0
  5  6  1  1
  7  8  2  0
 10  9  1  6
 10 11  1  0
 13 12  1  6
 12 10  1  0
 14 13  1  0
 14  7  1  0
 15 16  2  0
 15 13  1  0
 17 15  1  0
 18 25  1  0
 18 17  1  0
 18 19  1  6
 20 19  1  0
 21 20  2  0
 22 23  1  0
 22 21  1  0
 23 24  2  0
 24 20  1  0
 25 27  1  0
 26 25  2  0
M  END
$$$$
