NLH.pdb
     RDKit          3D

 27 27  0  0  1  0  0  0  0  0999 V2000
   16.8810  -23.4806  -10.1394 N   0  0  0  0  0  0  0  0  0  0  0  0
   17.0964  -22.9903  -11.4494 C   0  0  0  0  0  0  0  0  0  0  0  0
   16.3480  -23.4051  -12.3523 O   0  0  0  0  0  0  0  0  0  0  0  0
   18.1767  -22.0310  -11.6733 C   0  0  0  0  0  0  0  0  0  0  0  0
   18.9384  -21.5870  -10.4594 C   0  0  2  0  0  0  0  0  0  0  0  0
   18.0250  -20.6634   -9.7520 N   0  0  0  0  0  0  0  0  0  0  0  0
   20.1647  -20.8718  -10.8725 C   0  0  0  0  0  0  0  0  0  0  0  0
   20.2089  -19.6479  -11.0340 O   0  0  0  0  0  0  0  0  0  0  0  0
   26.3197  -22.0316  -11.6241 C   0  0  0  0  0  0  0  0  0  0  0  0
   25.1379  -21.0986  -11.6352 C   0  0  2  0  0  0  0  0  0  0  0  0
   25.4196  -19.8139  -10.8929 C   0  0  0  0  0  0  0  0  0  0  0  0
   23.8414  -21.7247  -11.2893 C   0  0  0  0  0  0  0  0  0  0  0  0
   22.5994  -20.9765  -11.5866 C   0  0  2  0  0  0  0  0  0  0  0  0
   21.3967  -21.6050  -11.1096 N   0  0  0  0  0  0  0  0  0  0  0  0
   22.4798  -20.4956  -12.9832 C   0  0  0  0  0  0  0  0  0  0  0  0
   23.3172  -19.6671  -13.4004 O   0  0  0  0  0  0  0  0  0  0  0  0
   21.4588  -20.9495  -13.8250 N   0  0  0  0  0  0  0  0  0  0  0  0
   21.4094  -20.4484  -15.1978 C   0  0  1  0  0  0  0  0  0  0  0  0
   20.6505  -21.4560  -16.0466 C   0  0  0  0  0  0  0  0  0  0  0  0
   20.5729  -21.0063  -17.4417 C   0  0  0  0  0  0  0  0  0  0  0  0
   21.6453  -20.6118  -18.2081 C   0  0  0  0  0  0  0  0  0  0  0  0
   21.1920  -20.2731  -19.4157 N   0  0  0  0  0  0  0  0  0  0  0  0
   19.8516  -20.4506  -19.4141 C   0  0  0  0  0  0  0  0  0  0  0  0
   19.4942  -20.8981  -18.2009 N   0  0  0  0  0  0  0  0  0  0  0  0
   20.7216  -19.1409  -15.1696 C   0  0  0  0  0  0  0  0  0  0  0  0
   19.7796  -18.9472  -14.3766 O   0  0  0  0  0  0  0  0  0  0  0  0
   21.1194  -18.1310  -16.0193 O   0  0  0  0  0  0  0  0  0  0  0  0
  1  2  1  0
  2  3  2  0
  4  2  1  0
  5  7  1  0
  5  4  1  0
  5  6  1  1
  7  8  2  0
 10  9  1  1
 10 11  1  0
 13 12  1  6
 12 10  1  0
 14 13  1  0
 14  7  1  0
 15 16  2  0
 15 13  1  0
 17 15  1  0
 18 25  1  0
 18 17  1  0
 18 19  1  6
 20 19  1  0
 21 20  2  0
 22 23  1  0
 22 21  1  0
 23 24  2  0
 24 20  1  0
 25 27  1  0
 26 25  2  0
M  END
$$$$
