NLH.pdb
     RDKit          3D

 27 27  0  0  1  0  0  0  0  0999 V2000
   16.8088  -22.4839  -12.9643 N   0  0  0  0  0  0  0  0  0  0  0  0
   17.1677  -21.9991  -11.6841 C   0  0  0  0  0  0  0  0  0  0  0  0
   16.3629  -22.1761  -10.7523 O   0  0  0  0  0  0  0  0  0  0  0  0
   18.4532  -21.3216  -11.5227 C   0  0  0  0  0  0  0  0  0  0  0  0
   19.3238  -21.2413  -12.7419 C   0  0  2  0  0  0  0  0  0  0  0  0
   19.6061  -22.6477  -13.1030 N   0  0  0  0  0  0  0  0  0  0  0  0
   20.5824  -20.5390  -12.4121 C   0  0  0  0  0  0  0  0  0  0  0  0
   20.6318  -19.3333  -12.1475 O   0  0  0  0  0  0  0  0  0  0  0  0
   26.5355  -21.7487  -11.2680 C   0  0  0  0  0  0  0  0  0  0  0  0
   25.3477  -20.8855  -10.9346 C   0  0  2  0  0  0  0  0  0  0  0  0
   25.4150  -20.3435   -9.5266 C   0  0  0  0  0  0  0  0  0  0  0  0
   24.0327  -21.4606  -11.2986 C   0  0  0  0  0  0  0  0  0  0  0  0
   23.1001  -20.6311  -12.0944 C   0  0  2  0  0  0  0  0  0  0  0  0
   21.8417  -21.2635  -12.3868 N   0  0  0  0  0  0  0  0  0  0  0  0
   23.7027  -19.9780  -13.2802 C   0  0  0  0  0  0  0  0  0  0  0  0
   24.7979  -19.3916  -13.1437 O   0  0  0  0  0  0  0  0  0  0  0  0
   23.0715  -20.0088  -14.5284 N   0  0  0  0  0  0  0  0  0  0  0  0
   23.8392  -19.6197  -15.7104 C   0  0  1  0  0  0  0  0  0  0  0  0
   24.3053  -20.8842  -16.4143 C   0  0  0  0  0  0  0  0  0  0  0  0
   24.9186  -20.5625  -17.7084 C   0  0  0  0  0  0  0  0  0  0  0  0
   25.0726  -19.2942  -18.2190 C   0  0  0  0  0  0  0  0  0  0  0  0
   25.6665  -19.3936  -19.4090 N   0  0  0  0  0  0  0  0  0  0  0  0
   25.8854  -20.7062  -19.6486 C   0  0  0  0  0  0  0  0  0  0  0  0
   25.4220  -21.4019  -18.5993 N   0  0  0  0  0  0  0  0  0  0  0  0
   22.9486  -18.8185  -16.5754 C   0  0  0  0  0  0  0  0  0  0  0  0
   21.7148  -18.8482  -16.4002 O   0  0  0  0  0  0  0  0  0  0  0  0
   23.4787  -18.0353  -17.5783 O   0  0  0  0  0  0  0  0  0  0  0  0
  1  2  1  0
  2  3  2  0
  4  2  1  0
  5  7  1  0
  5  4  1  0
  5  6  1  1
  7  8  2  0
 10  9  1  1
 10 11  1  0
 13 12  1  6
 12 10  1  0
 14 13  1  0
 14  7  1  0
 15 16  2  0
 15 13  1  0
 17 15  1  0
 18 25  1  0
 18 17  1  0
 18 19  1  6
 20 19  1  0
 21 20  2  0
 22 23  1  0
 22 21  1  0
 23 24  2  0
 24 20  1  0
 25 27  1  0
 26 25  2  0
M  END
$$$$
