NLH.pdb
     RDKit          3D

 27 27  0  0  1  0  0  0  0  0999 V2000
   18.5098  -23.4656  -12.3772 N   0  0  0  0  0  0  0  0  0  0  0  0
   18.7708  -22.8036  -13.6005 C   0  0  0  0  0  0  0  0  0  0  0  0
   18.1123  -23.1501  -14.5973 O   0  0  0  0  0  0  0  0  0  0  0  0
   19.7907  -21.7565  -13.6307 C   0  0  0  0  0  0  0  0  0  0  0  0
   20.5801  -21.5561  -12.3708 C   0  0  2  0  0  0  0  0  0  0  0  0
   19.7368  -20.6820  -11.5266 N   0  0  0  0  0  0  0  0  0  0  0  0
   21.8579  -20.8813  -12.6834 C   0  0  0  0  0  0  0  0  0  0  0  0
   21.9344  -19.6816  -12.9679 O   0  0  0  0  0  0  0  0  0  0  0  0
   27.2647  -21.6838  -10.4998 C   0  0  0  0  0  0  0  0  0  0  0  0
   26.0740  -21.0007  -11.1184 C   0  0  2  0  0  0  0  0  0  0  0  0
   25.0238  -20.6469  -10.0924 C   0  0  0  0  0  0  0  0  0  0  0  0
   25.5361  -21.6556  -12.3325 C   0  0  0  0  0  0  0  0  0  0  0  0
   24.3719  -21.0375  -13.0060 C   0  0  2  0  0  0  0  0  0  0  0  0
   23.1048  -21.6274  -12.6662 N   0  0  0  0  0  0  0  0  0  0  0  0
   24.5337  -20.8271  -14.4639 C   0  0  0  0  0  0  0  0  0  0  0  0
   24.3112  -21.7878  -15.2316 O   0  0  0  0  0  0  0  0  0  0  0  0
   24.9261  -19.5881  -14.9820 N   0  0  0  0  0  0  0  0  0  0  0  0
   25.1464  -19.4704  -16.4226 C   0  0  1  0  0  0  0  0  0  0  0  0
   24.4384  -18.2174  -16.9129 C   0  0  0  0  0  0  0  0  0  0  0  0
   23.0065  -18.4731  -17.1099 C   0  0  0  0  0  0  0  0  0  0  0  0
   22.3856  -19.6871  -16.9260 C   0  0  0  0  0  0  0  0  0  0  0  0
   21.0887  -19.5370  -17.1982 N   0  0  0  0  0  0  0  0  0  0  0  0
   20.8911  -18.2463  -17.5494 C   0  0  0  0  0  0  0  0  0  0  0  0
   22.0732  -17.6148  -17.4892 N   0  0  0  0  0  0  0  0  0  0  0  0
   26.6050  -19.3869  -16.6443 C   0  0  0  0  0  0  0  0  0  0  0  0
   27.0626  -19.3985  -17.8038 O   0  0  0  0  0  0  0  0  0  0  0  0
   27.4642  -19.2952  -15.5705 O   0  0  0  0  0  0  0  0  0  0  0  0
  1  2  1  0
  2  3  2  0
  4  2  1  0
  5  7  1  0
  5  4  1  0
  5  6  1  1
  7  8  2  0
 10  9  1  1
 10 11  1  0
 13 12  1  6
 12 10  1  0
 14 13  1  0
 14  7  1  0
 15 16  2  0
 15 13  1  0
 17 15  1  0
 18 25  1  0
 18 17  1  0
 18 19  1  1
 20 19  1  0
 21 20  2  0
 22 23  1  0
 22 21  1  0
 23 24  2  0
 24 20  1  0
 25 27  1  0
 26 25  2  0
M  END
$$$$
