NLH.pdb
     RDKit          3D

 27 27  0  0  1  0  0  0  0  0999 V2000
   23.4664  -21.6761  -21.7848 N   0  0  0  0  0  0  0  0  0  0  0  0
   24.8109  -21.7679  -21.3526 C   0  0  0  0  0  0  0  0  0  0  0  0
   25.6350  -22.2789  -22.1318 O   0  0  0  0  0  0  0  0  0  0  0  0
   25.1600  -21.2630  -20.0257 C   0  0  0  0  0  0  0  0  0  0  0  0
   24.0232  -20.7798  -19.1743 C   0  0  2  0  0  0  0  0  0  0  0  0
   23.8354  -19.3631  -19.5559 N   0  0  0  0  0  0  0  0  0  0  0  0
   24.3921  -20.8766  -17.7459 C   0  0  0  0  0  0  0  0  0  0  0  0
   24.6134  -21.9514  -17.1785 O   0  0  0  0  0  0  0  0  0  0  0  0
   27.9388  -19.9413  -15.6083 C   0  0  0  0  0  0  0  0  0  0  0  0
   27.1598  -18.6608  -15.7522 C   0  0  2  0  0  0  0  0  0  0  0  0
   27.9929  -17.4467  -15.4167 C   0  0  0  0  0  0  0  0  0  0  0  0
   25.8201  -18.6676  -15.1215 C   0  0  0  0  0  0  0  0  0  0  0  0
   24.8531  -19.7075  -15.5393 C   0  0  2  0  0  0  0  0  0  0  0  0
   24.5108  -19.6760  -16.9359 N   0  0  0  0  0  0  0  0  0  0  0  0
   23.6673  -19.8455  -14.6613 C   0  0  0  0  0  0  0  0  0  0  0  0
   22.9508  -18.8401  -14.4675 O   0  0  0  0  0  0  0  0  0  0  0  0
   23.3463  -21.0658  -14.0571 N   0  0  0  0  0  0  0  0  0  0  0  0
   22.2747  -21.0935  -13.0626 C   0  0  1  0  0  0  0  0  0  0  0  0
   22.6006  -20.0753  -11.9815 C   0  0  0  0  0  0  0  0  0  0  0  0
   23.8498  -20.4271  -11.2960 C   0  0  0  0  0  0  0  0  0  0  0  0
   24.6356  -21.5175  -11.5905 C   0  0  0  0  0  0  0  0  0  0  0  0
   25.6825  -21.5117  -10.7643 N   0  0  0  0  0  0  0  0  0  0  0  0
   25.5614  -20.4330   -9.9580 C   0  0  0  0  0  0  0  0  0  0  0  0
   24.4372  -19.7851  -10.2987 N   0  0  0  0  0  0  0  0  0  0  0  0
   21.0144  -20.7575  -13.7571 C   0  0  0  0  0  0  0  0  0  0  0  0
   21.0263  -20.4731  -14.9707 O   0  0  0  0  0  0  0  0  0  0  0  0
   19.8219  -20.7580  -13.0660 O   0  0  0  0  0  0  0  0  0  0  0  0
  1  2  1  0
  2  3  2  0
  4  2  1  0
  5  7  1  0
  5  4  1  0
  5  6  1  6
  7  8  2  0
 10  9  1  1
 10 11  1  0
 13 12  1  1
 12 10  1  0
 14 13  1  0
 14  7  1  0
 15 16  2  0
 15 13  1  0
 17 15  1  0
 18 25  1  0
 18 17  1  0
 18 19  1  1
 20 19  1  0
 21 20  2  0
 22 23  1  0
 22 21  1  0
 23 24  2  0
 24 20  1  0
 25 27  1  0
 26 25  2  0
M  END
$$$$
