NLH.pdb
     RDKit          3D

 27 27  0  0  1  0  0  0  0  0999 V2000
   33.0975  -27.9153  -18.9101 N   0  0  0  0  0  0  0  0  0  0  0  0
   32.7378  -26.5482  -18.9774 C   0  0  0  0  0  0  0  0  0  0  0  0
   33.4617  -25.7923  -19.6497 O   0  0  0  0  0  0  0  0  0  0  0  0
   31.5458  -26.0977  -18.2607 C   0  0  0  0  0  0  0  0  0  0  0  0
   31.6111  -24.7293  -17.6491 C   0  0  2  0  0  0  0  0  0  0  0  0
   32.5510  -24.8623  -16.5147 N   0  0  0  0  0  0  0  0  0  0  0  0
   30.2732  -24.3371  -17.1573 C   0  0  0  0  0  0  0  0  0  0  0  0
   29.7721  -24.7986  -16.1267 O   0  0  0  0  0  0  0  0  0  0  0  0
   28.7416  -20.4637  -15.5511 C   0  0  0  0  0  0  0  0  0  0  0  0
   28.7725  -20.4248  -17.0560 C   0  0  2  0  0  0  0  0  0  0  0  0
   28.5719  -19.0280  -17.5938 C   0  0  0  0  0  0  0  0  0  0  0  0
   27.9472  -21.4550  -17.7269 C   0  0  0  0  0  0  0  0  0  0  0  0
   28.2110  -22.8778  -17.4154 C   0  0  2  0  0  0  0  0  0  0  0  0
   29.4777  -23.3666  -17.8902 N   0  0  0  0  0  0  0  0  0  0  0  0
   27.0911  -23.8004  -17.7166 C   0  0  0  0  0  0  0  0  0  0  0  0
   26.9283  -24.1718  -18.8987 O   0  0  0  0  0  0  0  0  0  0  0  0
   26.2291  -24.2523  -16.7116 N   0  0  0  0  0  0  0  0  0  0  0  0
   25.1748  -25.2005  -17.0685 C   0  0  1  0  0  0  0  0  0  0  0  0
   25.1732  -26.3214  -16.0411 C   0  0  0  0  0  0  0  0  0  0  0  0
   24.0688  -27.2549  -16.2924 C   0  0  0  0  0  0  0  0  0  0  0  0
   23.2099  -27.1960  -17.3657 C   0  0  0  0  0  0  0  0  0  0  0  0
   22.3407  -28.2019  -17.2592 N   0  0  0  0  0  0  0  0  0  0  0  0
   22.6449  -28.8880  -16.1344 C   0  0  0  0  0  0  0  0  0  0  0  0
   23.7016  -28.2941  -15.5597 N   0  0  0  0  0  0  0  0  0  0  0  0
   23.8939  -24.4638  -17.0643 C   0  0  0  0  0  0  0  0  0  0  0  0
   23.7425  -23.4778  -16.3169 O   0  0  0  0  0  0  0  0  0  0  0  0
   22.8627  -24.8637  -17.8869 O   0  0  0  0  0  0  0  0  0  0  0  0
  1  2  1  0
  2  3  2  0
  4  2  1  0
  5  7  1  0
  5  4  1  0
  5  6  1  1
  7  8  2  0
 10  9  1  1
 10 11  1  0
 13 12  1  6
 12 10  1  0
 14 13  1  0
 14  7  1  0
 15 16  2  0
 15 13  1  0
 17 15  1  0
 18 25  1  0
 18 17  1  0
 18 19  1  1
 20 19  1  0
 21 20  2  0
 22 23  1  0
 22 21  1  0
 23 24  2  0
 24 20  1  0
 25 27  1  0
 26 25  2  0
M  END
$$$$
