IGW.pdb
     RDKit          3D

 27 28  0  0  1  0  0  0  0  0999 V2000
    8.0697  -12.0193   20.8467 C   0  0  0  0  0  0  0  0  0  0  0  0
    8.1691  -13.4919   21.1570 C   0  0  0  0  0  0  0  0  0  0  0  0
    7.9115  -14.3533   19.9247 C   0  0  2  0  0  0  0  0  0  0  0  0
    6.4800  -14.2273   19.5375 C   0  0  0  0  0  0  0  0  0  0  0  0
    8.3788  -15.7447   20.2407 C   0  0  2  0  0  0  0  0  0  0  0  0
    7.3534  -16.3059   21.1388 N   0  0  0  0  0  0  0  0  0  0  0  0
    9.6858  -15.8324   20.8904 C   0  0  0  0  0  0  0  0  0  0  0  0
   10.7034  -15.3307   20.3013 O   0  0  0  0  0  0  0  0  0  0  0  0
    9.9492  -16.4344   22.1452 N   0  0  0  0  0  0  0  0  0  0  0  0
   11.2604  -16.4303   22.7644 C   0  0  0  0  0  0  0  0  0  0  0  0
   11.1725  -16.3999   24.2455 C   0  0  0  0  0  0  0  0  0  0  0  0
   12.1702  -16.1612   24.9709 O   0  0  0  0  0  0  0  0  0  0  0  0
    9.9171  -16.6496   24.8578 N   0  0  0  0  0  0  0  0  0  0  0  0
    9.7208  -16.8242   26.2616 C   0  0  1  0  0  0  0  0  0  0  0  0
    8.2612  -16.9101   26.6448 C   0  0  0  0  0  0  0  0  0  0  0  0
    7.4901  -15.8445   25.9579 C   0  0  0  0  0  0  0  0  0  0  0  0
    6.5593  -15.9696   24.9421 C   0  0  0  0  0  0  0  0  0  0  0  0
    6.0940  -14.7514   24.6028 N   0  0  0  0  0  0  0  0  0  0  0  0
    6.6859  -13.8286   25.3598 C   0  0  0  0  0  0  0  0  0  0  0  0
    6.6238  -12.4547   25.4743 C   0  0  0  0  0  0  0  0  0  0  0  0
    7.3833  -11.7500   26.3825 C   0  0  0  0  0  0  0  0  0  0  0  0
    8.2430  -12.3946   27.2205 C   0  0  0  0  0  0  0  0  0  0  0  0
    8.3215  -13.7832   27.1219 C   0  0  0  0  0  0  0  0  0  0  0  0
    7.5674  -14.4899   26.2192 C   0  0  0  0  0  0  0  0  0  0  0  0
   10.5032  -17.9611   26.7786 C   0  0  0  0  0  0  0  0  0  0  0  0
   10.7231  -18.0353   28.1505 O   0  0  0  0  0  0  0  0  0  0  0  0
   10.9516  -18.8311   25.9835 O   0  0  0  0  0  0  0  0  0  0  0  0
  2  1  1  0
  3  2  1  0
  3  5  1  0
  3  4  1  1
  5  6  1  1
  7  5  1  0
  7  9  1  0
  8  7  2  0
 10  9  1  0
 11 10  1  0
 12 11  2  0
 13 11  1  0
 14 25  1  0
 14 13  1  0
 14 15  1  6
 16 15  1  0
 17 16  2  0
 18 19  1  0
 18 17  1  0
 19 24  2  0
 20 19  1  0
 20 21  2  0
 21 22  1  0
 22 23  2  0
 24 16  1  0
 24 23  1  0
 25 26  1  0
 27 25  2  0
M  END
$$$$
