IGW.pdb
     RDKit          3D

 27 28  0  0  1  0  0  0  0  0999 V2000
    6.6279  -12.1742   20.4943 C   0  0  0  0  0  0  0  0  0  0  0  0
    6.7214  -13.6792   20.5254 C   0  0  0  0  0  0  0  0  0  0  0  0
    8.1566  -14.1577   20.7216 C   0  0  2  0  0  0  0  0  0  0  0  0
    9.0005  -13.6189   19.6205 C   0  0  0  0  0  0  0  0  0  0  0  0
    8.1213  -15.6540   20.8402 C   0  0  2  0  0  0  0  0  0  0  0  0
    7.0787  -15.9413   21.8419 N   0  0  0  0  0  0  0  0  0  0  0  0
    9.3755  -16.2771   21.2607 C   0  0  0  0  0  0  0  0  0  0  0  0
   10.1499  -16.7687   20.3703 O   0  0  0  0  0  0  0  0  0  0  0  0
    9.8359  -16.3956   22.5950 N   0  0  0  0  0  0  0  0  0  0  0  0
   11.1403  -16.9290   22.9368 C   0  0  0  0  0  0  0  0  0  0  0  0
   11.4125  -16.8338   24.3925 C   0  0  0  0  0  0  0  0  0  0  0  0
   12.5349  -17.1124   24.8836 O   0  0  0  0  0  0  0  0  0  0  0  0
   10.3664  -16.4137   25.2543 N   0  0  0  0  0  0  0  0  0  0  0  0
   10.3957  -16.5246   26.6778 C   0  0  1  0  0  0  0  0  0  0  0  0
    9.6544  -15.4037   27.3699 C   0  0  0  0  0  0  0  0  0  0  0  0
    8.3351  -15.1903   26.7251 C   0  0  0  0  0  0  0  0  0  0  0  0
    7.3940  -16.1326   26.3505 C   0  0  0  0  0  0  0  0  0  0  0  0
    6.3322  -15.5154   25.7961 N   0  0  0  0  0  0  0  0  0  0  0  0
    6.5414  -14.1996   25.7926 C   0  0  0  0  0  0  0  0  0  0  0  0
    5.8406  -13.0878   25.3716 C   0  0  0  0  0  0  0  0  0  0  0  0
    6.3304  -11.8069   25.5044 C   0  0  0  0  0  0  0  0  0  0  0  0
    7.5506  -11.5826   26.0681 C   0  0  0  0  0  0  0  0  0  0  0  0
    8.2758  -12.6921   26.5007 C   0  0  0  0  0  0  0  0  0  0  0  0
    7.7928  -13.9699   26.3708 C   0  0  0  0  0  0  0  0  0  0  0  0
    9.9441  -17.8542   27.1249 C   0  0  0  0  0  0  0  0  0  0  0  0
   10.2488  -18.2469   28.4245 O   0  0  0  0  0  0  0  0  0  0  0  0
    9.3012  -18.5995   26.3366 O   0  0  0  0  0  0  0  0  0  0  0  0
  2  1  1  0
  3  2  1  0
  3  5  1  0
  3  4  1  6
  5  6  1  1
  7  5  1  0
  7  9  1  0
  8  7  2  0
 10  9  1  0
 11 10  1  0
 12 11  2  0
 13 11  1  0
 14 25  1  0
 14 13  1  0
 14 15  1  1
 16 15  1  0
 17 16  2  0
 18 19  1  0
 18 17  1  0
 19 24  2  0
 20 19  1  0
 20 21  2  0
 21 22  1  0
 22 23  2  0
 24 16  1  0
 24 23  1  0
 25 26  1  0
 27 25  2  0
M  END
$$$$
