IGW.pdb
     RDKit          3D

 27 28  0  0  1  0  0  0  0  0999 V2000
    7.8712  -12.0740   20.7942 C   0  0  0  0  0  0  0  0  0  0  0  0
    7.6347  -13.5608   20.7039 C   0  0  0  0  0  0  0  0  0  0  0  0
    8.1674  -14.1451   19.3993 C   0  0  2  0  0  0  0  0  0  0  0  0
    7.5818  -13.3912   18.2574 C   0  0  0  0  0  0  0  0  0  0  0  0
    7.8857  -15.6196   19.4167 C   0  0  2  0  0  0  0  0  0  0  0  0
    6.4161  -15.7359   19.4178 N   0  0  0  0  0  0  0  0  0  0  0  0
    8.4254  -16.3454   20.5656 C   0  0  0  0  0  0  0  0  0  0  0  0
    7.6728  -16.5445   21.5796 O   0  0  0  0  0  0  0  0  0  0  0  0
    9.7375  -16.8675   20.6745 N   0  0  0  0  0  0  0  0  0  0  0  0
   10.2020  -17.6030   21.8347 C   0  0  0  0  0  0  0  0  0  0  0  0
   10.5138  -16.7024   22.9722 C   0  0  0  0  0  0  0  0  0  0  0  0
   11.3355  -15.7572   22.8724 O   0  0  0  0  0  0  0  0  0  0  0  0
    9.8591  -16.9208   24.2120 N   0  0  0  0  0  0  0  0  0  0  0  0
   10.3179  -16.4222   25.4692 C   0  0  1  0  0  0  0  0  0  0  0  0
    9.9188  -14.9847   25.7124 C   0  0  0  0  0  0  0  0  0  0  0  0
    8.4533  -14.8914   25.9255 C   0  0  0  0  0  0  0  0  0  0  0  0
    7.5017  -15.8916   25.8359 C   0  0  0  0  0  0  0  0  0  0  0  0
    6.2836  -15.3822   26.1052 N   0  0  0  0  0  0  0  0  0  0  0  0
    6.4001  -14.0815   26.3690 C   0  0  0  0  0  0  0  0  0  0  0  0
    5.5356  -13.0587   26.7023 C   0  0  0  0  0  0  0  0  0  0  0  0
    5.9628  -11.7676   26.9232 C   0  0  0  0  0  0  0  0  0  0  0  0
    7.2821  -11.4429   26.8193 C   0  0  0  0  0  0  0  0  0  0  0  0
    8.1733  -12.4614   26.4837 C   0  0  0  0  0  0  0  0  0  0  0  0
    7.7532  -13.7489   26.2626 C   0  0  0  0  0  0  0  0  0  0  0  0
    9.9219  -17.3083   26.5782 C   0  0  0  0  0  0  0  0  0  0  0  0
   10.5067  -17.1008   27.8236 O   0  0  0  0  0  0  0  0  0  0  0  0
    9.0757  -18.2226   26.3830 O   0  0  0  0  0  0  0  0  0  0  0  0
  2  1  1  0
  3  2  1  0
  3  5  1  0
  3  4  1  6
  5  6  1  1
  7  5  1  0
  7  9  1  0
  8  7  2  0
 10  9  1  0
 11 10  1  0
 12 11  2  0
 13 11  1  0
 14 25  1  0
 14 13  1  0
 14 15  1  1
 16 15  1  0
 17 16  2  0
 18 19  1  0
 18 17  1  0
 19 24  2  0
 20 19  1  0
 20 21  2  0
 21 22  1  0
 22 23  2  0
 24 16  1  0
 24 23  1  0
 25 26  1  0
 27 25  2  0
M  END
$$$$
