IGW.pdb
     RDKit          3D

 27 28  0  0  1  0  0  0  0  0999 V2000
    7.0459  -11.7476   19.2101 C   0  0  0  0  0  0  0  0  0  0  0  0
    7.6075  -13.1176   18.9236 C   0  0  0  0  0  0  0  0  0  0  0  0
    8.0018  -13.8514   20.2016 C   0  0  2  0  0  0  0  0  0  0  0  0
    9.0062  -13.0356   20.9369 C   0  0  0  0  0  0  0  0  0  0  0  0
    8.4461  -15.2313   19.8112 C   0  0  2  0  0  0  0  0  0  0  0  0
    7.3729  -15.7568   18.9479 N   0  0  0  0  0  0  0  0  0  0  0  0
    8.6635  -16.1557   20.9231 C   0  0  0  0  0  0  0  0  0  0  0  0
    7.6524  -16.5806   21.5799 O   0  0  0  0  0  0  0  0  0  0  0  0
    9.9184  -16.6449   21.3613 N   0  0  0  0  0  0  0  0  0  0  0  0
   10.0810  -17.4414   22.5620 C   0  0  0  0  0  0  0  0  0  0  0  0
   10.4148  -16.6036   23.7406 C   0  0  0  0  0  0  0  0  0  0  0  0
   11.3508  -15.7658   23.7233 O   0  0  0  0  0  0  0  0  0  0  0  0
    9.6478  -16.7583   24.9243 N   0  0  0  0  0  0  0  0  0  0  0  0
   10.1187  -16.4610   26.2394 C   0  0  1  0  0  0  0  0  0  0  0  0
    8.9983  -16.2742   27.2366 C   0  0  0  0  0  0  0  0  0  0  0  0
    7.8700  -15.5457   26.6055 C   0  0  0  0  0  0  0  0  0  0  0  0
    6.7054  -16.0592   26.0634 C   0  0  0  0  0  0  0  0  0  0  0  0
    5.9439  -15.0523   25.5921 N   0  0  0  0  0  0  0  0  0  0  0  0
    6.5665  -13.8939   25.8051 C   0  0  0  0  0  0  0  0  0  0  0  0
    6.2955  -12.5644   25.5532 C   0  0  0  0  0  0  0  0  0  0  0  0
    7.1615  -11.5509   25.9013 C   0  0  0  0  0  0  0  0  0  0  0  0
    8.3436  -11.8267   26.5206 C   0  0  0  0  0  0  0  0  0  0  0  0
    8.6376  -13.1638   26.7850 C   0  0  0  0  0  0  0  0  0  0  0  0
    7.7787  -14.1770   26.4404 C   0  0  0  0  0  0  0  0  0  0  0  0
   11.1128  -17.4499   26.6930 C   0  0  0  0  0  0  0  0  0  0  0  0
   11.8335  -17.1711   27.8501 O   0  0  0  0  0  0  0  0  0  0  0  0
   11.2899  -18.5120   26.0369 O   0  0  0  0  0  0  0  0  0  0  0  0
  2  1  1  0
  3  2  1  0
  3  5  1  0
  3  4  1  6
  5  6  1  6
  7  5  1  0
  7  9  1  0
  8  7  2  0
 10  9  1  0
 11 10  1  0
 12 11  2  0
 13 11  1  0
 14 25  1  0
 14 13  1  0
 14 15  1  1
 16 15  1  0
 17 16  2  0
 18 19  1  0
 18 17  1  0
 19 24  2  0
 20 19  1  0
 20 21  2  0
 21 22  1  0
 22 23  2  0
 24 16  1  0
 24 23  1  0
 25 26  1  0
 27 25  2  0
M  END
$$$$
