IGW.pdb
     RDKit          3D

 27 28  0  0  1  0  0  0  0  0999 V2000
    8.4602  -12.1115   21.8095 C   0  0  0  0  0  0  0  0  0  0  0  0
    8.2226  -13.6009   21.8018 C   0  0  0  0  0  0  0  0  0  0  0  0
    8.1503  -14.1598   20.3842 C   0  0  2  0  0  0  0  0  0  0  0  0
    6.9288  -13.6314   19.7181 C   0  0  0  0  0  0  0  0  0  0  0  0
    8.2407  -15.6551   20.4833 C   0  0  2  0  0  0  0  0  0  0  0  0
    7.0025  -16.0765   21.1630 N   0  0  0  0  0  0  0  0  0  0  0  0
    9.3929  -16.1635   21.2262 C   0  0  0  0  0  0  0  0  0  0  0  0
   10.5665  -15.9571   20.7632 O   0  0  0  0  0  0  0  0  0  0  0  0
    9.3416  -16.8835   22.4449 N   0  0  0  0  0  0  0  0  0  0  0  0
   10.5274  -17.2881   23.1748 C   0  0  0  0  0  0  0  0  0  0  0  0
   10.6812  -16.5324   24.4427 C   0  0  0  0  0  0  0  0  0  0  0  0
   11.3898  -15.4981   24.5243 O   0  0  0  0  0  0  0  0  0  0  0  0
   10.0032  -16.9982   25.5989 N   0  0  0  0  0  0  0  0  0  0  0  0
   10.2141  -16.4962   26.9191 C   0  0  1  0  0  0  0  0  0  0  0  0
    8.9241  -16.2551   27.6692 C   0  0  0  0  0  0  0  0  0  0  0  0
    7.9173  -15.6415   26.7683 C   0  0  0  0  0  0  0  0  0  0  0  0
    6.9757  -16.2675   25.9712 C   0  0  0  0  0  0  0  0  0  0  0  0
    6.2565  -15.3406   25.3083 N   0  0  0  0  0  0  0  0  0  0  0  0
    6.6918  -14.1263   25.6411 C   0  0  0  0  0  0  0  0  0  0  0  0
    6.3610  -12.8299   25.3028 C   0  0  0  0  0  0  0  0  0  0  0  0
    7.0126  -11.7358   25.8287 C   0  0  0  0  0  0  0  0  0  0  0  0
    8.0298  -11.8935   26.7216 C   0  0  0  0  0  0  0  0  0  0  0  0
    8.3805  -13.1952   27.0777 C   0  0  0  0  0  0  0  0  0  0  0  0
    7.7349  -14.2883   26.5569 C   0  0  0  0  0  0  0  0  0  0  0  0
   11.1515  -17.3449   27.6759 C   0  0  0  0  0  0  0  0  0  0  0  0
   11.6227  -16.8732   28.8972 O   0  0  0  0  0  0  0  0  0  0  0  0
   11.5041  -18.4633   27.2122 O   0  0  0  0  0  0  0  0  0  0  0  0
  2  1  1  0
  3  2  1  0
  3  5  1  0
  3  4  1  1
  5  6  1  1
  7  5  1  0
  7  9  1  0
  8  7  2  0
 10  9  1  0
 11 10  1  0
 12 11  2  0
 13 11  1  0
 14 25  1  0
 14 13  1  0
 14 15  1  1
 16 15  1  0
 17 16  2  0
 18 19  1  0
 18 17  1  0
 19 24  2  0
 20 19  1  0
 20 21  2  0
 21 22  1  0
 22 23  2  0
 24 16  1  0
 24 23  1  0
 25 26  1  0
 27 25  2  0
M  END
$$$$
