IGW.pdb
     RDKit          3D

 27 28  0  0  1  0  0  0  0  0999 V2000
    7.7040  -11.6447   19.3039 C   0  0  0  0  0  0  0  0  0  0  0  0
    7.6094  -13.1454   19.1878 C   0  0  0  0  0  0  0  0  0  0  0  0
    8.1331  -13.8484   20.4363 C   0  0  2  0  0  0  0  0  0  0  0  0
    9.5622  -13.4823   20.6334 C   0  0  0  0  0  0  0  0  0  0  0  0
    7.8541  -15.3152   20.2791 C   0  0  2  0  0  0  0  0  0  0  0  0
    6.4440  -15.4010   19.8583 N   0  0  0  0  0  0  0  0  0  0  0  0
    8.0451  -16.1202   21.4847 C   0  0  0  0  0  0  0  0  0  0  0  0
    7.2108  -16.0005   22.4459 O   0  0  0  0  0  0  0  0  0  0  0  0
    9.0918  -17.0488   21.7044 N   0  0  0  0  0  0  0  0  0  0  0  0
    9.2726  -17.7543   22.9583 C   0  0  0  0  0  0  0  0  0  0  0  0
    9.8790  -16.8869   23.9986 C   0  0  0  0  0  0  0  0  0  0  0  0
   10.7694  -16.0419   23.7306 O   0  0  0  0  0  0  0  0  0  0  0  0
    9.4347  -17.0206   25.3396 N   0  0  0  0  0  0  0  0  0  0  0  0
   10.2118  -16.6797   26.4883 C   0  0  1  0  0  0  0  0  0  0  0  0
    9.5162  -15.6917   27.3963 C   0  0  0  0  0  0  0  0  0  0  0  0
    8.2208  -15.2778   26.8025 C   0  0  0  0  0  0  0  0  0  0  0  0
    7.1743  -16.0735   26.3719 C   0  0  0  0  0  0  0  0  0  0  0  0
    6.1816  -15.2963   25.8961 N   0  0  0  0  0  0  0  0  0  0  0  0
    6.5381  -14.0167   25.9985 C   0  0  0  0  0  0  0  0  0  0  0  0
    5.9617  -12.8016   25.6889 C   0  0  0  0  0  0  0  0  0  0  0  0
    6.5949  -11.5995   25.9177 C   0  0  0  0  0  0  0  0  0  0  0  0
    7.8401  -11.5620   26.4698 C   0  0  0  0  0  0  0  0  0  0  0  0
    8.4411  -12.7785   26.7906 C   0  0  0  0  0  0  0  0  0  0  0  0
    7.8151  -13.9785   26.5649 C   0  0  0  0  0  0  0  0  0  0  0  0
   10.6632  -17.8823   27.2108 C   0  0  0  0  0  0  0  0  0  0  0  0
   11.6192  -17.7263   28.2097 O   0  0  0  0  0  0  0  0  0  0  0  0
   10.1843  -19.0110   26.9166 O   0  0  0  0  0  0  0  0  0  0  0  0
  2  1  1  0
  3  2  1  0
  3  5  1  0
  3  4  1  6
  5  6  1  1
  7  5  1  0
  7  9  1  0
  8  7  2  0
 10  9  1  0
 11 10  1  0
 12 11  2  0
 13 11  1  0
 14 25  1  0
 14 13  1  0
 14 15  1  1
 16 15  1  0
 17 16  2  0
 18 19  1  0
 18 17  1  0
 19 24  2  0
 20 19  1  0
 20 21  2  0
 21 22  1  0
 22 23  2  0
 24 16  1  0
 24 23  1  0
 25 26  1  0
 27 25  2  0
M  END
$$$$
