IGW.pdb
     RDKit          3D

 27 28  0  0  1  0  0  0  0  0999 V2000
    7.6074  -11.6271   19.5272 C   0  0  0  0  0  0  0  0  0  0  0  0
    7.5910  -13.1101   19.2529 C   0  0  0  0  0  0  0  0  0  0  0  0
    8.3212  -13.8986   20.3357 C   0  0  2  0  0  0  0  0  0  0  0  0
    9.7810  -13.6300   20.2279 C   0  0  0  0  0  0  0  0  0  0  0  0
    7.9136  -15.3371   20.1990 C   0  0  2  0  0  0  0  0  0  0  0  0
    6.4433  -15.3177   20.0951 N   0  0  0  0  0  0  0  0  0  0  0  0
    8.3049  -16.2055   21.3085 C   0  0  0  0  0  0  0  0  0  0  0  0
    7.5823  -16.2242   22.3628 O   0  0  0  0  0  0  0  0  0  0  0  0
    9.4376  -17.0555   21.3364 N   0  0  0  0  0  0  0  0  0  0  0  0
    9.8139  -17.8333   22.5009 C   0  0  0  0  0  0  0  0  0  0  0  0
   10.3945  -16.9833   23.5698 C   0  0  0  0  0  0  0  0  0  0  0  0
   11.4456  -16.3167   23.3986 O   0  0  0  0  0  0  0  0  0  0  0  0
    9.7365  -16.9254   24.8257 N   0  0  0  0  0  0  0  0  0  0  0  0
   10.3712  -16.5802   26.0576 C   0  0  1  0  0  0  0  0  0  0  0  0
    9.9797  -15.2080   26.5560 C   0  0  0  0  0  0  0  0  0  0  0  0
    8.5165  -15.0099   26.4079 C   0  0  0  0  0  0  0  0  0  0  0  0
    7.5284  -15.9632   26.2385 C   0  0  0  0  0  0  0  0  0  0  0  0
    6.3280  -15.3581   26.1446 N   0  0  0  0  0  0  0  0  0  0  0  0
    6.4914  -14.0398   26.2462 C   0  0  0  0  0  0  0  0  0  0  0  0
    5.6634  -12.9360   26.2251 C   0  0  0  0  0  0  0  0  0  0  0  0
    6.1375  -11.6493   26.3589 C   0  0  0  0  0  0  0  0  0  0  0  0
    7.4693  -11.4108   26.5207 C   0  0  0  0  0  0  0  0  0  0  0  0
    8.3242  -12.5121   26.5450 C   0  0  0  0  0  0  0  0  0  0  0  0
    7.8574  -13.7956   26.4122 C   0  0  0  0  0  0  0  0  0  0  0  0
   10.1721  -17.6244   27.0784 C   0  0  0  0  0  0  0  0  0  0  0  0
    9.2933  -18.6638   26.7898 O   0  0  0  0  0  0  0  0  0  0  0  0
   10.7903  -17.5592   28.1755 O   0  0  0  0  0  0  0  0  0  0  0  0
  2  1  1  0
  3  2  1  0
  3  5  1  0
  3  4  1  6
  5  6  1  1
  7  5  1  0
  7  9  1  0
  8  7  2  0
 10  9  1  0
 11 10  1  0
 12 11  2  0
 13 11  1  0
 14 25  1  0
 14 13  1  0
 14 15  1  1
 16 15  1  0
 17 16  2  0
 18 19  1  0
 18 17  1  0
 19 24  2  0
 20 19  1  0
 20 21  2  0
 21 22  1  0
 22 23  2  0
 24 16  1  0
 24 23  1  0
 25 26  1  0
 27 25  2  0
M  END
$$$$
