IGW.pdb
     RDKit          3D

 27 28  0  0  1  0  0  0  0  0999 V2000
    6.9651  -12.6398   17.0435 C   0  0  0  0  0  0  0  0  0  0  0  0
    8.1657  -13.1872   17.7740 C   0  0  0  0  0  0  0  0  0  0  0  0
    7.7687  -13.9405   19.0398 C   0  0  2  0  0  0  0  0  0  0  0  0
    7.0765  -13.0015   19.9640 C   0  0  0  0  0  0  0  0  0  0  0  0
    9.0066  -14.5928   19.5839 C   0  0  2  0  0  0  0  0  0  0  0  0
    9.4496  -15.5266   18.5327 N   0  0  0  0  0  0  0  0  0  0  0  0
    8.8270  -15.3285   20.8347 C   0  0  0  0  0  0  0  0  0  0  0  0
    8.6171  -14.6732   21.9121 O   0  0  0  0  0  0  0  0  0  0  0  0
    8.8620  -16.7370   20.9806 N   0  0  0  0  0  0  0  0  0  0  0  0
    8.6902  -17.4042   22.2564 C   0  0  0  0  0  0  0  0  0  0  0  0
    9.5508  -16.8123   23.3106 C   0  0  0  0  0  0  0  0  0  0  0  0
   10.5732  -16.1348   23.0384 O   0  0  0  0  0  0  0  0  0  0  0  0
    9.2027  -17.0220   24.6702 N   0  0  0  0  0  0  0  0  0  0  0  0
   10.0270  -16.6678   25.7813 C   0  0  1  0  0  0  0  0  0  0  0  0
    9.2296  -16.3187   27.0170 C   0  0  0  0  0  0  0  0  0  0  0  0
    7.9879  -15.6008   26.6366 C   0  0  0  0  0  0  0  0  0  0  0  0
    6.8029  -16.1226   26.1494 C   0  0  0  0  0  0  0  0  0  0  0  0
    5.9253  -15.1238   25.9305 N   0  0  0  0  0  0  0  0  0  0  0  0
    6.4912  -13.9626   26.2566 C   0  0  0  0  0  0  0  0  0  0  0  0
    6.1045  -12.6378   26.2509 C   0  0  0  0  0  0  0  0  0  0  0  0
    6.9373  -11.6193   26.6601 C   0  0  0  0  0  0  0  0  0  0  0  0
    8.2010  -11.8850   27.0952 C   0  0  0  0  0  0  0  0  0  0  0  0
    8.6124  -13.2172   27.1093 C   0  0  0  0  0  0  0  0  0  0  0  0
    7.7871  -14.2354   26.7029 C   0  0  0  0  0  0  0  0  0  0  0  0
   11.0475  -17.6976   26.0461 C   0  0  0  0  0  0  0  0  0  0  0  0
   11.0055  -18.8695   25.2972 O   0  0  0  0  0  0  0  0  0  0  0  0
   11.9250  -17.5025   26.9304 O   0  0  0  0  0  0  0  0  0  0  0  0
  2  1  1  0
  3  2  1  0
  3  5  1  0
  3  4  1  1
  5  6  1  6
  7  5  1  0
  7  9  1  0
  8  7  2  0
 10  9  1  0
 11 10  1  0
 12 11  2  0
 13 11  1  0
 14 25  1  0
 14 13  1  0
 14 15  1  1
 16 15  1  0
 17 16  2  0
 18 19  1  0
 18 17  1  0
 19 24  2  0
 20 19  1  0
 20 21  2  0
 21 22  1  0
 22 23  2  0
 24 16  1  0
 24 23  1  0
 25 26  1  0
 27 25  2  0
M  END
$$$$
