IGW.pdb
     RDKit          3D

 27 28  0  0  1  0  0  0  0  0999 V2000
    6.5129  -12.7146   20.1678 C   0  0  0  0  0  0  0  0  0  0  0  0
    6.9343  -14.1276   20.4850 C   0  0  0  0  0  0  0  0  0  0  0  0
    8.3962  -14.2043   20.9140 C   0  0  2  0  0  0  0  0  0  0  0  0
    9.2472  -13.6332   19.8348 C   0  0  0  0  0  0  0  0  0  0  0  0
    8.6845  -15.6310   21.2819 C   0  0  2  0  0  0  0  0  0  0  0  0
    7.7093  -15.9667   22.3352 N   0  0  0  0  0  0  0  0  0  0  0  0
   10.0354  -15.8873   21.7792 C   0  0  0  0  0  0  0  0  0  0  0  0
   11.0073  -15.8997   20.9489 O   0  0  0  0  0  0  0  0  0  0  0  0
   10.3898  -16.1305   23.1288 N   0  0  0  0  0  0  0  0  0  0  0  0
   11.7594  -16.3244   23.5641 C   0  0  0  0  0  0  0  0  0  0  0  0
   11.8556  -16.4744   25.0373 C   0  0  0  0  0  0  0  0  0  0  0  0
   12.9456  -16.7076   25.6170 O   0  0  0  0  0  0  0  0  0  0  0  0
   10.6737  -16.3496   25.8125 N   0  0  0  0  0  0  0  0  0  0  0  0
   10.6082  -16.5407   27.2263 C   0  0  1  0  0  0  0  0  0  0  0  0
    9.6962  -15.5492   27.9117 C   0  0  0  0  0  0  0  0  0  0  0  0
    8.4944  -15.3005   27.0775 C   0  0  0  0  0  0  0  0  0  0  0  0
    7.5705  -16.2126   26.5998 C   0  0  0  0  0  0  0  0  0  0  0  0
    6.6306  -15.5691   25.8799 N   0  0  0  0  0  0  0  0  0  0  0  0
    6.9035  -14.2651   25.8671 C   0  0  0  0  0  0  0  0  0  0  0  0
    6.3261  -13.1391   25.3163 C   0  0  0  0  0  0  0  0  0  0  0  0
    6.8552  -11.8776   25.4798 C   0  0  0  0  0  0  0  0  0  0  0  0
    7.9923  -11.6878   26.2063 C   0  0  0  0  0  0  0  0  0  0  0  0
    8.5923  -12.8121   26.7720 C   0  0  0  0  0  0  0  0  0  0  0  0
    8.0696  -14.0708   26.6123 C   0  0  0  0  0  0  0  0  0  0  0  0
   10.2762  -17.9354   27.5676 C   0  0  0  0  0  0  0  0  0  0  0  0
   10.4759  -18.3543   28.8793 O   0  0  0  0  0  0  0  0  0  0  0  0
    9.8252  -18.7108   26.6814 O   0  0  0  0  0  0  0  0  0  0  0  0
  2  1  1  0
  3  2  1  0
  3  5  1  0
  3  4  1  6
  5  6  1  1
  7  5  1  0
  7  9  1  0
  8  7  2  0
 10  9  1  0
 11 10  1  0
 12 11  2  0
 13 11  1  0
 14 25  1  0
 14 13  1  0
 14 15  1  6
 16 15  1  0
 17 16  2  0
 18 19  1  0
 18 17  1  0
 19 24  2  0
 20 19  1  0
 20 21  2  0
 21 22  1  0
 22 23  2  0
 24 16  1  0
 24 23  1  0
 25 26  1  0
 27 25  2  0
M  END
$$$$
