GWG.pdb
     RDKit          3D

 23 24  0  0  1  0  0  0  0  0999 V2000
    5.2247  -19.8787   23.0515 N   0  0  0  0  0  0  0  0  0  0  0  0
    6.2156  -19.4177   23.9769 C   0  0  0  0  0  0  0  0  0  0  0  0
    6.9855  -18.2475   23.4144 C   0  0  0  0  0  0  0  0  0  0  0  0
    6.7313  -17.8763   22.2630 O   0  0  0  0  0  0  0  0  0  0  0  0
    7.9733  -17.5764   24.1592 N   0  0  0  0  0  0  0  0  0  0  0  0
    8.8595  -16.5553   23.7498 C   0  0  1  0  0  0  0  0  0  0  0  0
    8.7952  -15.2283   24.4264 C   0  0  0  0  0  0  0  0  0  0  0  0
    7.5690  -14.8834   25.1413 C   0  0  0  0  0  0  0  0  0  0  0  0
    6.4790  -15.5654   25.5723 C   0  0  0  0  0  0  0  0  0  0  0  0
    5.6381  -14.7293   26.1912 N   0  0  0  0  0  0  0  0  0  0  0  0
    6.1503  -13.4859   26.1840 C   0  0  0  0  0  0  0  0  0  0  0  0
    5.7121  -12.2706   26.6794 C   0  0  0  0  0  0  0  0  0  0  0  0
    6.4624  -11.1277   26.5350 C   0  0  0  0  0  0  0  0  0  0  0  0
    7.6790  -11.1706   25.8868 C   0  0  0  0  0  0  0  0  0  0  0  0
    8.0963  -12.3879   25.4016 C   0  0  0  0  0  0  0  0  0  0  0  0
    7.3586  -13.5413   25.5363 C   0  0  0  0  0  0  0  0  0  0  0  0
   10.2821  -16.9268   23.6352 C   0  0  0  0  0  0  0  0  0  0  0  0
   10.9201  -17.2070   24.6904 O   0  0  0  0  0  0  0  0  0  0  0  0
   10.9681  -16.9838   22.3872 N   0  0  0  0  0  0  0  0  0  0  0  0
   12.3124  -17.4763   22.3714 C   0  0  0  0  0  0  0  0  0  0  0  0
   13.3106  -16.4065   22.1713 C   0  0  0  0  0  0  0  0  0  0  0  0
   14.0643  -15.8629   23.1930 O   0  0  0  0  0  0  0  0  0  0  0  0
   13.4794  -15.9705   21.0034 O   0  0  0  0  0  0  0  0  0  0  0  0
  1  2  1  0
  3  4  2  0
  3  2  1  0
  5  3  1  0
  6  5  1  0
  6 17  1  0
  6  7  1  1
  8  7  1  0
  9  8  2  0
 10 11  1  0
 10  9  1  0
 11 16  2  0
 12 11  1  0
 12 13  2  0
 13 14  1  0
 14 15  2  0
 16  8  1  0
 16 15  1  0
 17 19  1  0
 17 18  2  0
 19 20  1  0
 20 21  1  0
 21 23  2  0
 21 22  1  0
M  END
$$$$
