GWG.pdb
     RDKit          3D

 23 24  0  0  1  0  0  0  0  0999 V2000
    6.7989  -16.7805   20.0695 N   0  0  0  0  0  0  0  0  0  0  0  0
    7.1725  -17.2144   21.3821 C   0  0  0  0  0  0  0  0  0  0  0  0
    8.1983  -16.2898   21.9913 C   0  0  0  0  0  0  0  0  0  0  0  0
    8.5409  -15.2894   21.3510 O   0  0  0  0  0  0  0  0  0  0  0  0
    8.7674  -16.5349   23.2550 N   0  0  0  0  0  0  0  0  0  0  0  0
    9.7327  -15.7822   23.9602 C   0  0  1  0  0  0  0  0  0  0  0  0
    9.3384  -15.1117   25.2321 C   0  0  0  0  0  0  0  0  0  0  0  0
    7.9144  -14.9061   25.4844 C   0  0  0  0  0  0  0  0  0  0  0  0
    6.8046  -15.6841   25.4409 C   0  0  0  0  0  0  0  0  0  0  0  0
    5.7319  -14.9608   25.7807 N   0  0  0  0  0  0  0  0  0  0  0  0
    6.1064  -13.6987   26.0553 C   0  0  0  0  0  0  0  0  0  0  0  0
    5.4203  -12.5654   26.4544 C   0  0  0  0  0  0  0  0  0  0  0  0
    6.0735  -11.3767   26.6788 C   0  0  0  0  0  0  0  0  0  0  0  0
    7.4394  -11.2898   26.5089 C   0  0  0  0  0  0  0  0  0  0  0  0
    8.1025  -12.4273   26.1116 C   0  0  0  0  0  0  0  0  0  0  0  0
    7.4654  -13.6248   25.8817 C   0  0  0  0  0  0  0  0  0  0  0  0
   11.0364  -16.4333   24.1869 C   0  0  0  0  0  0  0  0  0  0  0  0
   11.2015  -17.1014   25.2478 O   0  0  0  0  0  0  0  0  0  0  0  0
   12.1173  -16.3422   23.2624 N   0  0  0  0  0  0  0  0  0  0  0  0
   13.3002  -17.1063   23.5210 C   0  0  0  0  0  0  0  0  0  0  0  0
   14.3664  -16.8621   22.5288 C   0  0  0  0  0  0  0  0  0  0  0  0
   15.6848  -16.6258   22.8654 O   0  0  0  0  0  0  0  0  0  0  0  0
   14.0502  -16.8712   21.3112 O   0  0  0  0  0  0  0  0  0  0  0  0
  1  2  1  0
  3  4  2  0
  3  2  1  0
  5  3  1  0
  6  5  1  0
  6 17  1  0
  6  7  1  1
  8  7  1  0
  9  8  2  0
 10 11  1  0
 10  9  1  0
 11 16  2  0
 12 11  1  0
 12 13  2  0
 13 14  1  0
 14 15  2  0
 16  8  1  0
 16 15  1  0
 17 19  1  0
 17 18  2  0
 19 20  1  0
 20 21  1  0
 21 23  2  0
 21 22  1  0
M  END
$$$$
