GWG.pdb
     RDKit          3D

 23 24  0  0  1  0  0  0  0  0999 V2000
    6.7996  -20.2894   22.4636 N   0  0  0  0  0  0  0  0  0  0  0  0
    7.3231  -19.3642   23.4230 C   0  0  0  0  0  0  0  0  0  0  0  0
    7.8614  -18.1253   22.7493 C   0  0  0  0  0  0  0  0  0  0  0  0
    7.8273  -18.0663   21.5150 O   0  0  0  0  0  0  0  0  0  0  0  0
    8.3943  -17.0485   23.4824 N   0  0  0  0  0  0  0  0  0  0  0  0
    8.9948  -15.8593   23.0124 C   0  0  1  0  0  0  0  0  0  0  0  0
    8.6624  -14.5688   23.6809 C   0  0  0  0  0  0  0  0  0  0  0  0
    7.5423  -14.5522   24.6183 C   0  0  0  0  0  0  0  0  0  0  0  0
    6.6647  -15.4723   25.0894 C   0  0  0  0  0  0  0  0  0  0  0  0
    5.8258  -14.8945   25.9565 N   0  0  0  0  0  0  0  0  0  0  0  0
    6.1289  -13.5899   26.0774 C   0  0  0  0  0  0  0  0  0  0  0  0
    5.6008  -12.5532   26.8263 C   0  0  0  0  0  0  0  0  0  0  0  0
    6.1269  -11.2847   26.7613 C   0  0  0  0  0  0  0  0  0  0  0  0
    7.2024  -11.0181   25.9401 C   0  0  0  0  0  0  0  0  0  0  0  0
    7.7123  -12.0619   25.2041 C   0  0  0  0  0  0  0  0  0  0  0  0
    7.1983  -13.3371   25.2559 C   0  0  0  0  0  0  0  0  0  0  0  0
   10.4559  -15.8943   22.8157 C   0  0  0  0  0  0  0  0  0  0  0  0
   11.0107  -14.9176   22.2351 O   0  0  0  0  0  0  0  0  0  0  0  0
   11.2689  -16.9807   23.2518 N   0  0  0  0  0  0  0  0  0  0  0  0
   12.6836  -16.8966   23.0480 C   0  0  0  0  0  0  0  0  0  0  0  0
   13.4028  -18.0919   23.5328 C   0  0  0  0  0  0  0  0  0  0  0  0
   14.7256  -18.3596   23.2399 O   0  0  0  0  0  0  0  0  0  0  0  0
   12.7703  -18.9075   24.2520 O   0  0  0  0  0  0  0  0  0  0  0  0
  1  2  1  0
  3  4  2  0
  3  2  1  0
  5  3  1  0
  6  5  1  0
  6 17  1  0
  6  7  1  1
  8  7  1  0
  9  8  2  0
 10 11  1  0
 10  9  1  0
 11 16  2  0
 12 11  1  0
 12 13  2  0
 13 14  1  0
 14 15  2  0
 16  8  1  0
 16 15  1  0
 17 19  1  0
 17 18  2  0
 19 20  1  0
 20 21  1  0
 21 23  2  0
 21 22  1  0
M  END
$$$$
