GWG.pdb
     RDKit          3D

 23 24  0  0  1  0  0  0  0  0999 V2000
    6.7517  -18.6668   20.7812 N   0  0  0  0  0  0  0  0  0  0  0  0
    7.1381  -18.5562   22.1556 C   0  0  0  0  0  0  0  0  0  0  0  0
    8.0992  -17.4107   22.3621 C   0  0  0  0  0  0  0  0  0  0  0  0
    8.5080  -16.8008   21.3675 O   0  0  0  0  0  0  0  0  0  0  0  0
    8.5359  -17.0241   23.6429 N   0  0  0  0  0  0  0  0  0  0  0  0
    9.4187  -15.9835   24.0083 C   0  0  1  0  0  0  0  0  0  0  0  0
    9.1769  -15.2439   25.2801 C   0  0  0  0  0  0  0  0  0  0  0  0
    7.8004  -14.8859   25.6124 C   0  0  0  0  0  0  0  0  0  0  0  0
    6.6291  -15.5595   25.7275 C   0  0  0  0  0  0  0  0  0  0  0  0
    5.6520  -14.7123   26.0694 N   0  0  0  0  0  0  0  0  0  0  0  0
    6.1524  -13.4697   26.1879 C   0  0  0  0  0  0  0  0  0  0  0  0
    5.5986  -12.2458   26.5195 C   0  0  0  0  0  0  0  0  0  0  0  0
    6.3655  -11.1062   26.5756 C   0  0  0  0  0  0  0  0  0  0  0  0
    7.7157  -11.1612   26.2998 C   0  0  0  0  0  0  0  0  0  0  0  0
    8.2465  -12.3869   25.9721 C   0  0  0  0  0  0  0  0  0  0  0  0
    7.4943  -13.5372   25.9103 C   0  0  0  0  0  0  0  0  0  0  0  0
   10.8597  -16.2898   23.9397 C   0  0  0  0  0  0  0  0  0  0  0  0
   11.6825  -15.3296   23.9519 O   0  0  0  0  0  0  0  0  0  0  0  0
   11.3643  -17.6203   23.8604 N   0  0  0  0  0  0  0  0  0  0  0  0
   12.7698  -17.8042   23.6583 C   0  0  0  0  0  0  0  0  0  0  0  0
   13.1751  -19.2229   23.7196 C   0  0  0  0  0  0  0  0  0  0  0  0
   14.4891  -19.6456   23.6726 O   0  0  0  0  0  0  0  0  0  0  0  0
   12.2691  -20.0897   23.8204 O   0  0  0  0  0  0  0  0  0  0  0  0
  1  2  1  0
  3  4  2  0
  3  2  1  0
  5  3  1  0
  6  5  1  0
  6 17  1  0
  6  7  1  1
  8  7  1  0
  9  8  2  0
 10 11  1  0
 10  9  1  0
 11 16  2  0
 12 11  1  0
 12 13  2  0
 13 14  1  0
 14 15  2  0
 16  8  1  0
 16 15  1  0
 17 19  1  0
 17 18  2  0
 19 20  1  0
 20 21  1  0
 21 23  2  0
 21 22  1  0
M  END
$$$$
