GWG.pdb
     RDKit          3D

 23 24  0  0  1  0  0  0  0  0999 V2000
    7.4026  -17.5579   20.2010 N   0  0  0  0  0  0  0  0  0  0  0  0
    7.5062  -17.7238   21.6196 C   0  0  0  0  0  0  0  0  0  0  0  0
    8.4337  -16.6971   22.2230 C   0  0  0  0  0  0  0  0  0  0  0  0
    8.9622  -15.8697   21.4717 O   0  0  0  0  0  0  0  0  0  0  0  0
    8.7084  -16.6585   23.6028 N   0  0  0  0  0  0  0  0  0  0  0  0
    9.6081  -15.8309   24.3107 C   0  0  1  0  0  0  0  0  0  0  0  0
    9.1696  -15.2231   25.5996 C   0  0  0  0  0  0  0  0  0  0  0  0
    7.7584  -14.8768   25.7478 C   0  0  0  0  0  0  0  0  0  0  0  0
    6.5888  -15.5625   25.7226 C   0  0  0  0  0  0  0  0  0  0  0  0
    5.5676  -14.7223   25.9237 N   0  0  0  0  0  0  0  0  0  0  0  0
    6.0363  -13.4722   26.0862 C   0  0  0  0  0  0  0  0  0  0  0  0
    5.4325  -12.2505   26.3256 C   0  0  0  0  0  0  0  0  0  0  0  0
    6.1746  -11.1013   26.4618 C   0  0  0  0  0  0  0  0  0  0  0  0
    7.5494  -11.1441   26.3616 C   0  0  0  0  0  0  0  0  0  0  0  0
    8.1299  -12.3679   26.1232 C   0  0  0  0  0  0  0  0  0  0  0  0
    7.4033  -13.5278   25.9834 C   0  0  0  0  0  0  0  0  0  0  0  0
   10.9701  -16.3603   24.5099 C   0  0  0  0  0  0  0  0  0  0  0  0
   11.8142  -15.6421   25.1188 O   0  0  0  0  0  0  0  0  0  0  0  0
   11.3754  -17.6456   24.0462 N   0  0  0  0  0  0  0  0  0  0  0  0
   12.7324  -18.0493   24.2597 C   0  0  0  0  0  0  0  0  0  0  0  0
   13.0481  -19.3474   23.6302 C   0  0  0  0  0  0  0  0  0  0  0  0
   12.9960  -19.5695   22.2681 O   0  0  0  0  0  0  0  0  0  0  0  0
   13.3826  -20.2994   24.3813 O   0  0  0  0  0  0  0  0  0  0  0  0
  1  2  1  0
  3  4  2  0
  3  2  1  0
  5  3  1  0
  6  5  1  0
  6 17  1  0
  6  7  1  1
  8  7  1  0
  9  8  2  0
 10 11  1  0
 10  9  1  0
 11 16  2  0
 12 11  1  0
 12 13  2  0
 13 14  1  0
 14 15  2  0
 16  8  1  0
 16 15  1  0
 17 19  1  0
 17 18  2  0
 19 20  1  0
 20 21  1  0
 21 23  2  0
 21 22  1  0
M  END
$$$$
