GWG.pdb
     RDKit          3D

 23 24  0  0  1  0  0  0  0  0999 V2000
    5.3936  -20.1480   23.6358 N   0  0  0  0  0  0  0  0  0  0  0  0
    6.4294  -19.5315   24.4090 C   0  0  0  0  0  0  0  0  0  0  0  0
    7.1295  -18.4511   23.6209 C   0  0  0  0  0  0  0  0  0  0  0  0
    7.0219  -18.4594   22.3894 O   0  0  0  0  0  0  0  0  0  0  0  0
    7.8921  -17.4466   24.2455 N   0  0  0  0  0  0  0  0  0  0  0  0
    8.6505  -16.4082   23.6603 C   0  0  1  0  0  0  0  0  0  0  0  0
    8.1397  -15.0096   23.7354 C   0  0  0  0  0  0  0  0  0  0  0  0
    7.1233  -14.7052   24.7394 C   0  0  0  0  0  0  0  0  0  0  0  0
    6.1507  -15.4076   25.3715 C   0  0  0  0  0  0  0  0  0  0  0  0
    5.4967  -14.6091   26.2224 N   0  0  0  0  0  0  0  0  0  0  0  0
    6.0195  -13.3710   26.1726 C   0  0  0  0  0  0  0  0  0  0  0  0
    5.7360  -12.1884   26.8327 C   0  0  0  0  0  0  0  0  0  0  0  0
    6.4557  -11.0431   26.5874 C   0  0  0  0  0  0  0  0  0  0  0  0
    7.4849  -11.0505   25.6694 C   0  0  0  0  0  0  0  0  0  0  0  0
    7.7504  -12.2356   25.0241 C   0  0  0  0  0  0  0  0  0  0  0  0
    7.0404  -13.3909   25.2562 C   0  0  0  0  0  0  0  0  0  0  0  0
   10.0866  -16.3752   23.9938 C   0  0  0  0  0  0  0  0  0  0  0  0
   10.4312  -15.9686   25.1405 O   0  0  0  0  0  0  0  0  0  0  0  0
   11.1021  -16.7817   23.0800 N   0  0  0  0  0  0  0  0  0  0  0  0
   12.4668  -16.7227   23.5090 C   0  0  0  0  0  0  0  0  0  0  0  0
   13.3528  -16.0908   22.5106 C   0  0  0  0  0  0  0  0  0  0  0  0
   14.6794  -15.7889   22.7477 O   0  0  0  0  0  0  0  0  0  0  0  0
   12.8665  -15.8148   21.3837 O   0  0  0  0  0  0  0  0  0  0  0  0
  1  2  1  0
  3  4  2  0
  3  2  1  0
  5  3  1  0
  6  5  1  0
  6 17  1  0
  6  7  1  1
  8  7  1  0
  9  8  2  0
 10 11  1  0
 10  9  1  0
 11 16  2  0
 12 11  1  0
 12 13  2  0
 13 14  1  0
 14 15  2  0
 16  8  1  0
 16 15  1  0
 17 19  1  0
 17 18  2  0
 19 20  1  0
 20 21  1  0
 21 23  2  0
 21 22  1  0
M  END
$$$$
