GWG.pdb
     RDKit          3D

 23 24  0  0  1  0  0  0  0  0999 V2000
    6.2889  -19.5760   24.8334 N   0  0  0  0  0  0  0  0  0  0  0  0
    7.3803  -19.5463   23.9067 C   0  0  0  0  0  0  0  0  0  0  0  0
    7.5586  -18.1682   23.3172 C   0  0  0  0  0  0  0  0  0  0  0  0
    6.9271  -17.8811   22.2940 O   0  0  0  0  0  0  0  0  0  0  0  0
    8.4152  -17.2135   23.8965 N   0  0  0  0  0  0  0  0  0  0  0  0
    8.8286  -15.9614   23.3895 C   0  0  1  0  0  0  0  0  0  0  0  0
    8.6689  -14.7483   24.2415 C   0  0  0  0  0  0  0  0  0  0  0  0
    7.4395  -14.6151   25.0189 C   0  0  0  0  0  0  0  0  0  0  0  0
    6.4468  -15.4540   25.4058 C   0  0  0  0  0  0  0  0  0  0  0  0
    5.5432  -14.7825   26.1282 N   0  0  0  0  0  0  0  0  0  0  0  0
    5.9165  -13.4949   26.2349 C   0  0  0  0  0  0  0  0  0  0  0  0
    5.3671  -12.3912   26.8629 C   0  0  0  0  0  0  0  0  0  0  0  0
    5.9828  -11.1628   26.8168 C   0  0  0  0  0  0  0  0  0  0  0  0
    7.1722  -11.0051   26.1368 C   0  0  0  0  0  0  0  0  0  0  0  0
    7.7014  -12.1142   25.5192 C   0  0  0  0  0  0  0  0  0  0  0  0
    7.0990  -13.3506   25.5542 C   0  0  0  0  0  0  0  0  0  0  0  0
   10.1741  -15.9077   22.7881 C   0  0  0  0  0  0  0  0  0  0  0  0
   10.5208  -14.8567   22.1764 O   0  0  0  0  0  0  0  0  0  0  0  0
   11.0997  -16.9886   22.8669 N   0  0  0  0  0  0  0  0  0  0  0  0
   12.3236  -16.8915   22.1303 C   0  0  0  0  0  0  0  0  0  0  0  0
   13.4679  -16.4911   22.9737 C   0  0  0  0  0  0  0  0  0  0  0  0
   14.7171  -16.1829   22.4717 O   0  0  0  0  0  0  0  0  0  0  0  0
   13.2887  -16.4289   24.2173 O   0  0  0  0  0  0  0  0  0  0  0  0
  1  2  1  0
  3  4  2  0
  3  2  1  0
  5  3  1  0
  6  5  1  0
  6 17  1  0
  6  7  1  1
  8  7  1  0
  9  8  2  0
 10 11  1  0
 10  9  1  0
 11 16  2  0
 12 11  1  0
 12 13  2  0
 13 14  1  0
 14 15  2  0
 16  8  1  0
 16 15  1  0
 17 19  1  0
 17 18  2  0
 19 20  1  0
 20 21  1  0
 21 23  2  0
 21 22  1  0
M  END
$$$$
