GWG.pdb
     RDKit          3D

 23 24  0  0  1  0  0  0  0  0999 V2000
    7.2221  -20.5315   24.7318 N   0  0  0  0  0  0  0  0  0  0  0  0
    7.8009  -19.3057   25.1936 C   0  0  0  0  0  0  0  0  0  0  0  0
    7.8278  -18.2679   24.0980 C   0  0  0  0  0  0  0  0  0  0  0  0
    7.0606  -18.4067   23.1387 O   0  0  0  0  0  0  0  0  0  0  0  0
    8.6939  -17.1593   24.1408 N   0  0  0  0  0  0  0  0  0  0  0  0
    8.8725  -16.1292   23.1907 C   0  0  1  0  0  0  0  0  0  0  0  0
    8.1428  -14.8421   23.3743 C   0  0  0  0  0  0  0  0  0  0  0  0
    7.1882  -14.7477   24.4759 C   0  0  0  0  0  0  0  0  0  0  0  0
    6.3400  -15.6065   25.0939 C   0  0  0  0  0  0  0  0  0  0  0  0
    5.6867  -14.9707   26.0728 N   0  0  0  0  0  0  0  0  0  0  0  0
    6.0865  -13.6877   26.1238 C   0  0  0  0  0  0  0  0  0  0  0  0
    5.7496  -12.6147   26.9297 C   0  0  0  0  0  0  0  0  0  0  0  0
    6.3375  -11.3832   26.7625 C   0  0  0  0  0  0  0  0  0  0  0  0
    7.2843  -11.1914   25.7782 C   0  0  0  0  0  0  0  0  0  0  0  0
    7.6048  -12.2703   24.9879 C   0  0  0  0  0  0  0  0  0  0  0  0
    7.0264  -13.5092   25.1402 C   0  0  0  0  0  0  0  0  0  0  0  0
   10.2645  -15.8029   22.8292 C   0  0  0  0  0  0  0  0  0  0  0  0
   10.4682  -15.0060   21.8687 O   0  0  0  0  0  0  0  0  0  0  0  0
   11.3892  -16.3467   23.5153 N   0  0  0  0  0  0  0  0  0  0  0  0
   12.6958  -16.0952   22.9865 C   0  0  0  0  0  0  0  0  0  0  0  0
   13.7722  -16.6299   23.8447 C   0  0  0  0  0  0  0  0  0  0  0  0
   15.1159  -16.4129   23.6106 O   0  0  0  0  0  0  0  0  0  0  0  0
   13.4406  -17.3201   24.8427 O   0  0  0  0  0  0  0  0  0  0  0  0
  1  2  1  0
  3  4  2  0
  3  2  1  0
  5  3  1  0
  6  5  1  0
  6 17  1  0
  6  7  1  1
  8  7  1  0
  9  8  2  0
 10 11  1  0
 10  9  1  0
 11 16  2  0
 12 11  1  0
 12 13  2  0
 13 14  1  0
 14 15  2  0
 16  8  1  0
 16 15  1  0
 17 19  1  0
 17 18  2  0
 19 20  1  0
 20 21  1  0
 21 23  2  0
 21 22  1  0
M  END
$$$$
