QQQ.pdb
     RDKit          3D

 28 27  0  0  1  0  0  0  0  0999 V2000
   14.9665  -18.8445   17.5844 N   0  0  0  0  0  0  0  0  0  0  0  0
   13.7814  -18.2278   18.0410 C   0  0  0  0  0  0  0  0  0  0  0  0
   12.8601  -17.9895   17.2545 O   0  0  0  0  0  0  0  0  0  0  0  0
   13.6721  -17.8740   19.4888 C   0  0  0  0  0  0  0  0  0  0  0  0
   12.3606  -17.1794   19.7361 C   0  0  0  0  0  0  0  0  0  0  0  0
   11.8902  -17.2789   21.1626 C   0  0  2  0  0  0  0  0  0  0  0  0
   11.0069  -18.4382   21.2945 N   0  0  0  0  0  0  0  0  0  0  0  0
   11.1831  -16.0381   21.5371 C   0  0  0  0  0  0  0  0  0  0  0  0
   11.8335  -14.9650   21.5725 O   0  0  0  0  0  0  0  0  0  0  0  0
    6.1071  -13.0870   19.9552 N   0  0  0  0  0  0  0  0  0  0  0  0
    7.3232  -13.5164   19.3421 C   0  0  0  0  0  0  0  0  0  0  0  0
    7.4143  -13.4165   18.1201 O   0  0  0  0  0  0  0  0  0  0  0  0
    8.3592  -14.0384   20.2030 C   0  0  0  0  0  0  0  0  0  0  0  0
    8.1039  -14.2657   21.6328 C   0  0  0  0  0  0  0  0  0  0  0  0
    9.1807  -14.8598   22.4717 C   0  0  2  0  0  0  0  0  0  0  0  0
    9.8057  -15.9977   21.8589 N   0  0  0  0  0  0  0  0  0  0  0  0
    8.8749  -15.0068   23.9044 C   0  0  0  0  0  0  0  0  0  0  0  0
    7.8212  -14.4583   24.3461 O   0  0  0  0  0  0  0  0  0  0  0  0
    6.9498  -19.8479   24.1775 N   0  0  0  0  0  0  0  0  0  0  0  0
    6.9411  -19.7476   25.5903 C   0  0  0  0  0  0  0  0  0  0  0  0
    6.3400  -20.5957   26.2549 O   0  0  0  0  0  0  0  0  0  0  0  0
    7.6658  -18.6105   26.1986 C   0  0  0  0  0  0  0  0  0  0  0  0
    8.2393  -17.6377   25.2299 C   0  0  0  0  0  0  0  0  0  0  0  0
    9.0328  -16.5519   25.8948 C   0  0  2  0  0  0  0  0  0  0  0  0
    9.6624  -15.7151   24.8489 N   0  0  0  0  0  0  0  0  0  0  0  0
   10.0690  -17.0922   26.7985 C   0  0  0  0  0  0  0  0  0  0  0  0
    9.8747  -17.5370   27.9492 O   0  0  0  0  0  0  0  0  0  0  0  0
   11.3880  -17.1190   26.3509 O   0  0  0  0  0  0  0  0  0  0  0  0
  2  1  1  0
  2  3  2  0
  4  2  1  0
  5  4  1  0
  6  7  1  6
  6  5  1  0
  8  6  1  0
  9  8  2  0
 11 10  1  0
 11 12  2  0
 13 14  1  0
 13 11  1  0
 15 14  1  6
 15 16  1  0
 16  8  1  0
 17 15  1  0
 17 18  2  0
 19 20  1  0
 20 22  1  0
 20 21  2  0
 22 23  1  0
 24 23  1  6
 24 25  1  0
 25 17  1  0
 26 24  1  0
 27 26  2  0
 28 26  1  0
M  END
$$$$
