QQQ.pdb
     RDKit          3D

 28 27  0  0  1  0  0  0  0  0999 V2000
    6.7612  -12.5064   17.5123 N   0  0  0  0  0  0  0  0  0  0  0  0
    7.4443  -13.7133   17.2482 C   0  0  0  0  0  0  0  0  0  0  0  0
    7.1100  -14.4228   16.2947 O   0  0  0  0  0  0  0  0  0  0  0  0
    8.5731  -14.1064   18.1451 C   0  0  0  0  0  0  0  0  0  0  0  0
    8.7562  -13.0569   19.2076 C   0  0  0  0  0  0  0  0  0  0  0  0
    9.8410  -13.3896   20.1969 C   0  0  2  0  0  0  0  0  0  0  0  0
   10.9771  -13.9725   19.4819 N   0  0  0  0  0  0  0  0  0  0  0  0
    9.3179  -14.3336   21.2045 C   0  0  0  0  0  0  0  0  0  0  0  0
    8.2267  -14.0678   21.7651 O   0  0  0  0  0  0  0  0  0  0  0  0
   11.6553  -20.2685   21.6096 N   0  0  0  0  0  0  0  0  0  0  0  0
   10.8907  -19.5296   20.6564 C   0  0  0  0  0  0  0  0  0  0  0  0
   10.5802  -20.0951   19.6098 O   0  0  0  0  0  0  0  0  0  0  0  0
   10.5377  -18.1693   20.9910 C   0  0  0  0  0  0  0  0  0  0  0  0
    9.7883  -17.8682   22.2194 C   0  0  0  0  0  0  0  0  0  0  0  0
    9.4606  -16.4506   22.5345 C   0  0  2  0  0  0  0  0  0  0  0  0
    9.9865  -15.5258   21.5707 N   0  0  0  0  0  0  0  0  0  0  0  0
    9.6202  -16.0495   23.9422 C   0  0  0  0  0  0  0  0  0  0  0  0
   10.7974  -15.9383   24.3982 O   0  0  0  0  0  0  0  0  0  0  0  0
    5.7556  -12.5981   27.1438 N   0  0  0  0  0  0  0  0  0  0  0  0
    6.6945  -12.2226   26.1520 C   0  0  0  0  0  0  0  0  0  0  0  0
    6.5557  -11.1485   25.5609 O   0  0  0  0  0  0  0  0  0  0  0  0
    7.8071  -13.1576   25.8763 C   0  0  0  0  0  0  0  0  0  0  0  0
    7.8030  -14.4010   26.6933 C   0  0  0  0  0  0  0  0  0  0  0  0
    8.8383  -15.3926   26.2510 C   0  0  2  0  0  0  0  0  0  0  0  0
    8.5629  -15.7729   24.8474 N   0  0  0  0  0  0  0  0  0  0  0  0
    8.8561  -16.5981   27.1048 C   0  0  0  0  0  0  0  0  0  0  0  0
    8.5191  -17.7477   26.7522 O   0  0  0  0  0  0  0  0  0  0  0  0
    9.2828  -16.4673   28.4245 O   0  0  0  0  0  0  0  0  0  0  0  0
  2  1  1  0
  2  3  2  0
  4  2  1  0
  5  4  1  0
  6  7  1  6
  6  5  1  0
  8  6  1  0
  9  8  2  0
 11 10  1  0
 11 12  2  0
 13 14  1  0
 13 11  1  0
 15 14  1  1
 15 16  1  0
 16  8  1  0
 17 15  1  0
 17 18  2  0
 19 20  1  0
 20 22  1  0
 20 21  2  0
 22 23  1  0
 24 23  1  1
 24 25  1  0
 25 17  1  0
 26 24  1  0
 27 26  2  0
 28 26  1  0
M  END
$$$$
