QQQ.pdb
     RDKit          3D

 28 27  0  0  1  0  0  0  0  0999 V2000
   15.6528  -12.7650   17.9824 N   0  0  0  0  0  0  0  0  0  0  0  0
   15.9775  -14.0004   17.3812 C   0  0  0  0  0  0  0  0  0  0  0  0
   16.8118  -14.0509   16.4725 O   0  0  0  0  0  0  0  0  0  0  0  0
   15.2911  -15.2348   17.8692 C   0  0  0  0  0  0  0  0  0  0  0  0
   14.4252  -14.8914   19.0507 C   0  0  0  0  0  0  0  0  0  0  0  0
   13.1208  -15.6426   19.0753 C   0  0  2  0  0  0  0  0  0  0  0  0
   12.4678  -15.5085   17.7724 N   0  0  0  0  0  0  0  0  0  0  0  0
   12.2611  -15.1045   20.1483 C   0  0  0  0  0  0  0  0  0  0  0  0
   12.7455  -14.2542   20.9345 O   0  0  0  0  0  0  0  0  0  0  0  0
    6.1197  -14.0603   19.9195 N   0  0  0  0  0  0  0  0  0  0  0  0
    7.2397  -13.7419   19.0927 C   0  0  0  0  0  0  0  0  0  0  0  0
    7.0144  -13.2532   17.9873 O   0  0  0  0  0  0  0  0  0  0  0  0
    8.5578  -14.0179   19.6156 C   0  0  0  0  0  0  0  0  0  0  0  0
    8.7274  -14.6147   20.9483 C   0  0  0  0  0  0  0  0  0  0  0  0
   10.0944  -14.9949   21.3991 C   0  0  2  0  0  0  0  0  0  0  0  0
   10.9154  -15.5001   20.3353 N   0  0  0  0  0  0  0  0  0  0  0  0
   10.1708  -15.7466   22.6628 C   0  0  0  0  0  0  0  0  0  0  0  0
   10.2731  -17.0082   22.5981 O   0  0  0  0  0  0  0  0  0  0  0  0
   10.1844  -13.5012   28.5961 N   0  0  0  0  0  0  0  0  0  0  0  0
    9.0637  -13.3885   27.7374 C   0  0  0  0  0  0  0  0  0  0  0  0
    8.1917  -12.5513   27.9846 O   0  0  0  0  0  0  0  0  0  0  0  0
    9.0017  -14.2985   26.5727 C   0  0  0  0  0  0  0  0  0  0  0  0
   10.1966  -15.1648   26.3853 C   0  0  0  0  0  0  0  0  0  0  0  0
   10.0984  -16.0383   25.1695 C   0  0  2  0  0  0  0  0  0  0  0  0
   10.1394  -15.1807   23.9638 N   0  0  0  0  0  0  0  0  0  0  0  0
    8.8658  -16.8526   25.1662 C   0  0  0  0  0  0  0  0  0  0  0  0
    7.8454  -16.6302   24.4815 O   0  0  0  0  0  0  0  0  0  0  0  0
    8.8118  -17.9736   25.9917 O   0  0  0  0  0  0  0  0  0  0  0  0
  2  1  1  0
  2  3  2  0
  4  2  1  0
  5  4  1  0
  6  7  1  6
  6  5  1  0
  8  6  1  0
  9  8  2  0
 11 10  1  0
 11 12  2  0
 13 14  1  0
 13 11  1  0
 15 14  1  6
 15 16  1  0
 16  8  1  0
 17 15  1  0
 17 18  2  0
 19 20  1  0
 20 22  1  0
 20 21  2  0
 22 23  1  0
 24 23  1  1
 24 25  1  0
 25 17  1  0
 26 24  1  0
 27 26  2  0
 28 26  1  0
M  END
$$$$
