QQQ.pdb
     RDKit          3D

 28 27  0  0  1  0  0  0  0  0999 V2000
    8.6706  -12.6343   17.1388 N   0  0  0  0  0  0  0  0  0  0  0  0
    8.0339  -13.7600   16.5727 C   0  0  0  0  0  0  0  0  0  0  0  0
    7.8654  -13.8322   15.3517 O   0  0  0  0  0  0  0  0  0  0  0  0
    7.5731  -14.8528   17.4820 C   0  0  0  0  0  0  0  0  0  0  0  0
    7.8462  -14.4637   18.9095 C   0  0  0  0  0  0  0  0  0  0  0  0
    8.6408  -15.4926   19.6687 C   0  0  2  0  0  0  0  0  0  0  0  0
    8.1682  -16.8279   19.3006 N   0  0  0  0  0  0  0  0  0  0  0  0
    8.4854  -15.2649   21.1192 C   0  0  0  0  0  0  0  0  0  0  0  0
    7.8525  -14.2507   21.5022 O   0  0  0  0  0  0  0  0  0  0  0  0
    6.6085  -13.0639   25.3804 N   0  0  0  0  0  0  0  0  0  0  0  0
    6.4997  -14.4722   25.5905 C   0  0  0  0  0  0  0  0  0  0  0  0
    5.6450  -14.8686   26.3804 O   0  0  0  0  0  0  0  0  0  0  0  0
    7.4035  -15.3300   24.8594 C   0  0  0  0  0  0  0  0  0  0  0  0
    8.4867  -14.7599   24.0453 C   0  0  0  0  0  0  0  0  0  0  0  0
    9.4564  -15.6800   23.3899 C   0  0  2  0  0  0  0  0  0  0  0  0
    9.0153  -16.1346   22.1016 N   0  0  0  0  0  0  0  0  0  0  0  0
   10.0469  -16.7161   24.2534 C   0  0  0  0  0  0  0  0  0  0  0  0
    9.4738  -17.8454   24.3029 O   0  0  0  0  0  0  0  0  0  0  0  0
    9.2159  -13.4680   28.6757 N   0  0  0  0  0  0  0  0  0  0  0  0
   10.1428  -14.3342   29.3055 C   0  0  0  0  0  0  0  0  0  0  0  0
   10.6329  -14.0123   30.3911 O   0  0  0  0  0  0  0  0  0  0  0  0
   10.4767  -15.5975   28.6121 C   0  0  0  0  0  0  0  0  0  0  0  0
   10.6731  -15.4771   27.1423 C   0  0  0  0  0  0  0  0  0  0  0  0
   11.1694  -16.7461   26.5145 C   0  0  2  0  0  0  0  0  0  0  0  0
   11.2139  -16.5641   25.0464 N   0  0  0  0  0  0  0  0  0  0  0  0
   10.3181  -17.9052   26.8525 C   0  0  0  0  0  0  0  0  0  0  0  0
    9.0742  -17.9515   26.7523 O   0  0  0  0  0  0  0  0  0  0  0  0
   10.9335  -19.0614   27.3271 O   0  0  0  0  0  0  0  0  0  0  0  0
  2  1  1  0
  2  3  2  0
  4  2  1  0
  5  4  1  0
  6  7  1  1
  6  5  1  0
  8  6  1  0
  9  8  2  0
 11 10  1  0
 11 12  2  0
 13 14  1  0
 13 11  1  0
 15 14  1  1
 15 16  1  0
 16  8  1  0
 17 15  1  0
 17 18  2  0
 19 20  1  0
 20 22  1  0
 20 21  2  0
 22 23  1  0
 24 23  1  1
 24 25  1  0
 25 17  1  0
 26 24  1  0
 27 26  2  0
 28 26  1  0
M  END
$$$$
