QQQ.pdb
     RDKit          3D

 28 27  0  0  1  0  0  0  0  0999 V2000
    7.6703  -12.1697   18.0960 N   0  0  0  0  0  0  0  0  0  0  0  0
    7.6914  -13.4182   17.4374 C   0  0  0  0  0  0  0  0  0  0  0  0
    7.3878  -13.4980   16.2433 O   0  0  0  0  0  0  0  0  0  0  0  0
    8.0874  -14.6304   18.2164 C   0  0  0  0  0  0  0  0  0  0  0  0
    8.2457  -14.2629   19.6668 C   0  0  0  0  0  0  0  0  0  0  0  0
    9.6503  -14.4387   20.1789 C   0  0  2  0  0  0  0  0  0  0  0  0
   10.5149  -14.8478   19.0712 N   0  0  0  0  0  0  0  0  0  0  0  0
    9.6614  -15.4526   21.2521 C   0  0  0  0  0  0  0  0  0  0  0  0
    8.8137  -15.3595   22.1733 O   0  0  0  0  0  0  0  0  0  0  0  0
   12.2214  -21.2887   20.9959 N   0  0  0  0  0  0  0  0  0  0  0  0
   11.2433  -20.6400   20.1826 C   0  0  0  0  0  0  0  0  0  0  0  0
   10.9078  -21.1953   19.1383 O   0  0  0  0  0  0  0  0  0  0  0  0
   10.7186  -19.3762   20.6460 C   0  0  0  0  0  0  0  0  0  0  0  0
   11.1490  -18.8109   21.9331 C   0  0  0  0  0  0  0  0  0  0  0  0
   10.6070  -17.4910   22.3577 C   0  0  2  0  0  0  0  0  0  0  0  0
   10.5818  -16.5266   21.2946 N   0  0  0  0  0  0  0  0  0  0  0  0
   11.0863  -16.9841   23.6544 C   0  0  0  0  0  0  0  0  0  0  0  0
   12.2141  -16.4070   23.6862 O   0  0  0  0  0  0  0  0  0  0  0  0
    8.8019  -13.3342   27.7838 N   0  0  0  0  0  0  0  0  0  0  0  0
    9.8536  -13.8618   28.5723 C   0  0  0  0  0  0  0  0  0  0  0  0
   10.0935  -13.3635   29.6753 O   0  0  0  0  0  0  0  0  0  0  0  0
   10.6183  -14.9999   28.0174 C   0  0  0  0  0  0  0  0  0  0  0  0
   10.1700  -15.4675   26.6780 C   0  0  0  0  0  0  0  0  0  0  0  0
   10.9994  -16.5997   26.1481 C   0  0  2  0  0  0  0  0  0  0  0  0
   10.3923  -17.0843   24.8882 N   0  0  0  0  0  0  0  0  0  0  0  0
   11.1076  -17.7115   27.1148 C   0  0  0  0  0  0  0  0  0  0  0  0
   10.4491  -18.7722   27.0846 O   0  0  0  0  0  0  0  0  0  0  0  0
   12.0179  -17.5905   28.1624 O   0  0  0  0  0  0  0  0  0  0  0  0
  2  1  1  0
  2  3  2  0
  4  2  1  0
  5  4  1  0
  6  7  1  6
  6  5  1  0
  8  6  1  0
  9  8  2  0
 11 10  1  0
 11 12  2  0
 13 14  1  0
 13 11  1  0
 15 14  1  6
 15 16  1  0
 16  8  1  0
 17 15  1  0
 17 18  2  0
 19 20  1  0
 20 22  1  0
 20 21  2  0
 22 23  1  0
 24 23  1  1
 24 25  1  0
 25 17  1  0
 26 24  1  0
 27 26  2  0
 28 26  1  0
M  END
$$$$
