QQQ.pdb
     RDKit          3D

 28 27  0  0  1  0  0  0  0  0999 V2000
   18.1748  -20.3437   14.3317 N   0  0  0  0  0  0  0  0  0  0  0  0
   17.6774  -20.0000   13.0560 C   0  0  0  0  0  0  0  0  0  0  0  0
   18.2530  -20.3918   12.0364 O   0  0  0  0  0  0  0  0  0  0  0  0
   16.4464  -19.1569   12.9724 C   0  0  0  0  0  0  0  0  0  0  0  0
   15.9408  -18.8715   14.3604 C   0  0  0  0  0  0  0  0  0  0  0  0
   14.4729  -19.1572   14.5333 C   0  0  2  0  0  0  0  0  0  0  0  0
   13.7054  -18.2430   13.6866 N   0  0  0  0  0  0  0  0  0  0  0  0
   14.1012  -18.9911   15.9525 C   0  0  0  0  0  0  0  0  0  0  0  0
   13.6335  -17.8871   16.3242 O   0  0  0  0  0  0  0  0  0  0  0  0
   10.3387  -22.1073   19.4505 N   0  0  0  0  0  0  0  0  0  0  0  0
   11.0234  -21.3601   20.4566 C   0  0  0  0  0  0  0  0  0  0  0  0
   10.5787  -21.4013   21.6021 O   0  0  0  0  0  0  0  0  0  0  0  0
   12.1898  -20.6084   20.0549 C   0  0  0  0  0  0  0  0  0  0  0  0
   12.6741  -20.6577   18.6677 C   0  0  0  0  0  0  0  0  0  0  0  0
   13.8688  -19.8525   18.2924 C   0  0  2  0  0  0  0  0  0  0  0  0
   14.2460  -20.0163   16.9170 N   0  0  0  0  0  0  0  0  0  0  0  0
   14.9828  -19.8645   19.2551 C   0  0  0  0  0  0  0  0  0  0  0  0
   15.8758  -20.7535   19.1189 O   0  0  0  0  0  0  0  0  0  0  0  0
   15.1190  -23.0395   23.2039 N   0  0  0  0  0  0  0  0  0  0  0  0
   16.1901  -22.3150   23.7820 C   0  0  0  0  0  0  0  0  0  0  0  0
   16.8224  -22.8110   24.7181 O   0  0  0  0  0  0  0  0  0  0  0  0
   16.4937  -20.9807   23.2202 C   0  0  0  0  0  0  0  0  0  0  0  0
   15.6049  -20.5476   22.1084 C   0  0  0  0  0  0  0  0  0  0  0  0
   16.0607  -19.2737   21.4603 C   0  0  2  0  0  0  0  0  0  0  0  0
   15.1503  -18.9605   20.3360 N   0  0  0  0  0  0  0  0  0  0  0  0
   17.4518  -19.3637   20.9713 C   0  0  0  0  0  0  0  0  0  0  0  0
   18.3263  -18.4801   21.0904 O   0  0  0  0  0  0  0  0  0  0  0  0
   17.8483  -20.5273   20.3158 O   0  0  0  0  0  0  0  0  0  0  0  0
  2  1  1  0
  2  3  2  0
  4  2  1  0
  5  4  1  0
  6  7  1  6
  6  5  1  0
  8  6  1  0
  9  8  2  0
 11 10  1  0
 11 12  2  0
 13 14  1  0
 13 11  1  0
 15 14  1  1
 15 16  1  0
 16  8  1  0
 17 15  1  0
 17 18  2  0
 19 20  1  0
 20 22  1  0
 20 21  2  0
 22 23  1  0
 24 23  1  6
 24 25  1  0
 25 17  1  0
 26 24  1  0
 27 26  2  0
 28 26  1  0
M  END
$$$$
