QQQ.pdb
     RDKit          3D

 28 27  0  0  1  0  0  0  0  0999 V2000
   15.0988  -19.7228   16.7618 N   0  0  0  0  0  0  0  0  0  0  0  0
   14.3793  -20.1300   15.6175 C   0  0  0  0  0  0  0  0  0  0  0  0
   14.8427  -20.9914   14.8640 O   0  0  0  0  0  0  0  0  0  0  0  0
   13.0536  -19.4968   15.3441 C   0  0  0  0  0  0  0  0  0  0  0  0
   12.9040  -18.2638   16.1934 C   0  0  0  0  0  0  0  0  0  0  0  0
   11.4767  -17.8087   16.3415 C   0  0  2  0  0  0  0  0  0  0  0  0
   10.9937  -17.3225   15.0484 N   0  0  0  0  0  0  0  0  0  0  0  0
   11.4012  -16.7437   17.3613 C   0  0  0  0  0  0  0  0  0  0  0  0
   12.3256  -15.8960   17.4120 O   0  0  0  0  0  0  0  0  0  0  0  0
    6.5402  -13.4582   19.5554 N   0  0  0  0  0  0  0  0  0  0  0  0
    7.5113  -13.2431   20.5800 C   0  0  0  0  0  0  0  0  0  0  0  0
    7.2372  -12.4389   21.4687 O   0  0  0  0  0  0  0  0  0  0  0  0
    8.7474  -13.9864   20.4977 C   0  0  0  0  0  0  0  0  0  0  0  0
    8.9785  -14.9408   19.4037 C   0  0  0  0  0  0  0  0  0  0  0  0
   10.2971  -15.6257   19.3112 C   0  0  2  0  0  0  0  0  0  0  0  0
   10.3367  -16.6305   18.2867 N   0  0  0  0  0  0  0  0  0  0  0  0
   10.9157  -16.0090   20.5912 C   0  0  0  0  0  0  0  0  0  0  0  0
   10.6771  -17.1690   21.0423 O   0  0  0  0  0  0  0  0  0  0  0  0
    8.9015  -17.8366   24.4796 N   0  0  0  0  0  0  0  0  0  0  0  0
    9.8860  -17.3386   25.3680 C   0  0  0  0  0  0  0  0  0  0  0  0
    9.7523  -17.5144   26.5819 O   0  0  0  0  0  0  0  0  0  0  0  0
   11.0382  -16.6226   24.7783 C   0  0  0  0  0  0  0  0  0  0  0  0
   10.8029  -16.0587   23.4217 C   0  0  0  0  0  0  0  0  0  0  0  0
   12.0514  -15.5160   22.7914 C   0  0  2  0  0  0  0  0  0  0  0  0
   11.7654  -15.1876   21.3768 N   0  0  0  0  0  0  0  0  0  0  0  0
   13.1756  -16.4713   22.8689 C   0  0  0  0  0  0  0  0  0  0  0  0
   13.0785  -17.7162   22.8519 O   0  0  0  0  0  0  0  0  0  0  0  0
   14.4689  -15.9635   22.9706 O   0  0  0  0  0  0  0  0  0  0  0  0
  2  1  1  0
  2  3  2  0
  4  2  1  0
  5  4  1  0
  6  7  1  6
  6  5  1  0
  8  6  1  0
  9  8  2  0
 11 10  1  0
 11 12  2  0
 13 14  1  0
 13 11  1  0
 15 14  1  1
 15 16  1  0
 16  8  1  0
 17 15  1  0
 17 18  2  0
 19 20  1  0
 20 22  1  0
 20 21  2  0
 22 23  1  0
 24 23  1  6
 24 25  1  0
 25 17  1  0
 26 24  1  0
 27 26  2  0
 28 26  1  0
M  END
$$$$
