QQQ.pdb
     RDKit          3D

 28 27  0  0  1  0  0  0  0  0999 V2000
   13.3934  -15.2466   19.3429 N   0  0  0  0  0  0  0  0  0  0  0  0
   13.1269  -13.9682   18.8067 C   0  0  0  0  0  0  0  0  0  0  0  0
   14.0298  -13.3147   18.2754 O   0  0  0  0  0  0  0  0  0  0  0  0
   11.7355  -13.4309   18.8979 C   0  0  0  0  0  0  0  0  0  0  0  0
   10.7525  -14.5569   18.7255 C   0  0  0  0  0  0  0  0  0  0  0  0
    9.3170  -14.1244   18.8621 C   0  0  2  0  0  0  0  0  0  0  0  0
    9.2382  -12.6721   18.6995 N   0  0  0  0  0  0  0  0  0  0  0  0
    8.8026  -14.5306   20.1851 C   0  0  0  0  0  0  0  0  0  0  0  0
    8.6783  -13.6538   21.0747 O   0  0  0  0  0  0  0  0  0  0  0  0
    6.9118  -20.1571   22.5888 N   0  0  0  0  0  0  0  0  0  0  0  0
    7.2889  -19.9003   21.2357 C   0  0  0  0  0  0  0  0  0  0  0  0
    7.5401  -20.8666   20.5183 O   0  0  0  0  0  0  0  0  0  0  0  0
    7.3487  -18.5218   20.8075 C   0  0  0  0  0  0  0  0  0  0  0  0
    7.0493  -17.4302   21.7455 C   0  0  0  0  0  0  0  0  0  0  0  0
    7.9592  -16.2530   21.7955 C   0  0  2  0  0  0  0  0  0  0  0  0
    8.4419  -15.8619   20.5013 N   0  0  0  0  0  0  0  0  0  0  0  0
    8.9701  -16.2644   22.8659 C   0  0  0  0  0  0  0  0  0  0  0  0
   10.1660  -16.5411   22.5504 O   0  0  0  0  0  0  0  0  0  0  0  0
    9.3420  -13.3080   28.4936 N   0  0  0  0  0  0  0  0  0  0  0  0
   10.1124  -14.4781   28.7030 C   0  0  0  0  0  0  0  0  0  0  0  0
   10.4829  -14.7640   29.8446 O   0  0  0  0  0  0  0  0  0  0  0  0
   10.4348  -15.3043   27.5192 C   0  0  0  0  0  0  0  0  0  0  0  0
    9.5069  -15.1446   26.3672 C   0  0  0  0  0  0  0  0  0  0  0  0
    9.8077  -16.0890   25.2411 C   0  0  2  0  0  0  0  0  0  0  0  0
    8.7250  -15.9910   24.2367 N   0  0  0  0  0  0  0  0  0  0  0  0
    9.9392  -17.4855   25.7047 C   0  0  0  0  0  0  0  0  0  0  0  0
    9.0007  -18.2943   25.8615 O   0  0  0  0  0  0  0  0  0  0  0  0
   11.2127  -17.9671   25.9998 O   0  0  0  0  0  0  0  0  0  0  0  0
  2  1  1  0
  2  3  2  0
  4  2  1  0
  5  4  1  0
  6  7  1  1
  6  5  1  0
  8  6  1  0
  9  8  2  0
 11 10  1  0
 11 12  2  0
 13 14  1  0
 13 11  1  0
 15 14  1  6
 15 16  1  0
 16  8  1  0
 17 15  1  0
 17 18  2  0
 19 20  1  0
 20 22  1  0
 20 21  2  0
 22 23  1  0
 24 23  1  1
 24 25  1  0
 25 17  1  0
 26 24  1  0
 27 26  2  0
 28 26  1  0
M  END
$$$$
