QQQ.pdb
     RDKit          3D

 28 27  0  0  1  0  0  0  0  0999 V2000
    8.4462  -14.8398   14.9297 N   0  0  0  0  0  0  0  0  0  0  0  0
    9.1669  -15.5415   13.9391 C   0  0  0  0  0  0  0  0  0  0  0  0
    8.7250  -15.6258   12.7893 O   0  0  0  0  0  0  0  0  0  0  0  0
   10.4674  -16.1742   14.3152 C   0  0  0  0  0  0  0  0  0  0  0  0
   10.7188  -15.9653   15.7838 C   0  0  0  0  0  0  0  0  0  0  0  0
   12.1449  -15.6022   16.1012 C   0  0  2  0  0  0  0  0  0  0  0  0
   12.8175  -16.7674   16.6772 N   0  0  0  0  0  0  0  0  0  0  0  0
   12.1672  -14.4668   17.0447 C   0  0  0  0  0  0  0  0  0  0  0  0
   11.9919  -13.3088   16.5931 O   0  0  0  0  0  0  0  0  0  0  0  0
    8.0686  -12.8830   18.2862 N   0  0  0  0  0  0  0  0  0  0  0  0
    7.8849  -13.5807   19.5185 C   0  0  0  0  0  0  0  0  0  0  0  0
    6.9089  -13.2835   20.2045 O   0  0  0  0  0  0  0  0  0  0  0  0
    8.8608  -14.5861   19.8706 C   0  0  0  0  0  0  0  0  0  0  0  0
   10.0152  -14.8500   18.9994 C   0  0  0  0  0  0  0  0  0  0  0  0
   11.3573  -14.3550   19.4117 C   0  0  2  0  0  0  0  0  0  0  0  0
   12.3766  -14.6189   18.4359 N   0  0  0  0  0  0  0  0  0  0  0  0
   11.7411  -14.6197   20.8083 C   0  0  0  0  0  0  0  0  0  0  0  0
   10.8687  -14.4356   21.7091 O   0  0  0  0  0  0  0  0  0  0  0  0
   11.6710  -16.5724   26.0553 N   0  0  0  0  0  0  0  0  0  0  0  0
   11.0317  -17.3055   25.0257 C   0  0  0  0  0  0  0  0  0  0  0  0
    9.8722  -17.6947   25.1883 O   0  0  0  0  0  0  0  0  0  0  0  0
   11.8055  -17.5677   23.7926 C   0  0  0  0  0  0  0  0  0  0  0  0
   11.7843  -16.4692   22.7894 C   0  0  0  0  0  0  0  0  0  0  0  0
   13.1436  -16.1592   22.2355 C   0  0  2  0  0  0  0  0  0  0  0  0
   13.0152  -15.0675   21.2443 N   0  0  0  0  0  0  0  0  0  0  0  0
   13.7714  -17.3392   21.6061 C   0  0  0  0  0  0  0  0  0  0  0  0
   14.1599  -18.3651   22.2028 O   0  0  0  0  0  0  0  0  0  0  0  0
   13.9577  -17.3313   20.2255 O   0  0  0  0  0  0  0  0  0  0  0  0
  2  1  1  0
  2  3  2  0
  4  2  1  0
  5  4  1  0
  6  7  1  1
  6  5  1  0
  8  6  1  0
  9  8  2  0
 11 10  1  0
 11 12  2  0
 13 14  1  0
 13 11  1  0
 15 14  1  6
 15 16  1  0
 16  8  1  0
 17 15  1  0
 17 18  2  0
 19 20  1  0
 20 22  1  0
 20 21  2  0
 22 23  1  0
 24 23  1  6
 24 25  1  0
 25 17  1  0
 26 24  1  0
 27 26  2  0
 28 26  1  0
M  END
$$$$
