KFY.pdb
     RDKit          3D

 33 34  0  0  1  0  0  0  0  0999 V2000
   10.0015  -16.2256   18.6132 N   0  0  0  0  0  0  0  0  0  0  0  0
    9.0487  -16.6576   19.6029 C   0  0  1  0  0  0  0  0  0  0  0  0
    9.0744  -18.1683   19.7898 C   0  0  0  0  0  0  0  0  0  0  0  0
    8.2630  -18.8227   18.7433 C   0  0  0  0  0  0  0  0  0  0  0  0
    8.1791  -20.3031   18.7846 C   0  0  0  0  0  0  0  0  0  0  0  0
    7.4354  -20.9549   17.6723 C   0  0  0  0  0  0  0  0  0  0  0  0
    7.3532  -22.3971   17.8064 N   0  0  0  0  0  0  0  0  0  0  0  0
    9.2831  -15.9382   20.8642 C   0  0  0  0  0  0  0  0  0  0  0  0
   10.4559  -15.6222   21.2079 O   0  0  0  0  0  0  0  0  0  0  0  0
    8.2420  -15.5671   21.7436 N   0  0  0  0  0  0  0  0  0  0  0  0
    8.4945  -14.7601   22.9581 C   0  0  1  0  0  0  0  0  0  0  0  0
    7.2039  -14.0977   23.2550 C   0  0  0  0  0  0  0  0  0  0  0  0
    7.0728  -13.3228   24.4696 C   0  0  0  0  0  0  0  0  0  0  0  0
    7.7184  -12.1150   24.7001 C   0  0  0  0  0  0  0  0  0  0  0  0
    7.5686  -11.3919   25.8424 C   0  0  0  0  0  0  0  0  0  0  0  0
    6.7533  -11.8402   26.8351 C   0  0  0  0  0  0  0  0  0  0  0  0
    6.0861  -13.0347   26.6608 C   0  0  0  0  0  0  0  0  0  0  0  0
    6.2479  -13.7703   25.4810 C   0  0  0  0  0  0  0  0  0  0  0  0
    9.0068  -15.6853   23.9806 C   0  0  0  0  0  0  0  0  0  0  0  0
    8.6031  -16.8883   23.9791 O   0  0  0  0  0  0  0  0  0  0  0  0
   12.6488  -18.5161   31.5156 O   0  0  0  0  0  0  0  0  0  0  0  0
   12.3289  -17.7727   30.3681 C   0  0  0  0  0  0  0  0  0  0  0  0
   11.0185  -17.5043   30.0803 C   0  0  0  0  0  0  0  0  0  0  0  0
   10.7142  -16.7659   28.9394 C   0  0  0  0  0  0  0  0  0  0  0  0
   11.7107  -16.3064   28.1042 C   0  0  0  0  0  0  0  0  0  0  0  0
   11.3508  -15.5311   26.9115 C   0  0  0  0  0  0  0  0  0  0  0  0
   10.3355  -16.2810   26.0367 C   0  0  2  0  0  0  0  0  0  0  0  0
    9.9443  -15.3449   25.0005 N   0  0  0  0  0  0  0  0  0  0  0  0
    9.2089  -16.7478   26.8699 C   0  0  0  0  0  0  0  0  0  0  0  0
    9.2385  -18.0505   27.3370 O   0  0  0  0  0  0  0  0  0  0  0  0
   13.0337  -16.5711   28.3849 C   0  0  0  0  0  0  0  0  0  0  0  0
   13.3112  -17.3063   29.5235 C   0  0  0  0  0  0  0  0  0  0  0  0
    8.2335  -16.0211   27.1709 O   0  0  0  0  0  0  0  0  0  0  0  0
  2  1  1  6
  3  2  1  0
  3  4  1  0
  5  4  1  0
  5  6  1  0
  7  6  1  0
  8  2  1  0
  8  9  2  0
 10  8  1  0
 11 10  1  0
 11 12  1  1
 13 12  1  0
 13 14  2  0
 15 14  1  0
 16 15  2  0
 17 18  2  0
 17 16  1  0
 18 13  1  0
 19 11  1  0
 20 19  2  0
 21 22  1  0
 22 23  2  0
 23 24  1  0
 25 24  2  0
 25 26  1  0
 27 28  1  0
 27 26  1  1
 28 19  1  0
 29 27  1  0
 30 29  1  0
 31 25  1  0
 32 22  1  0
 32 31  2  0
 33 29  2  0
M  END
$$$$
