KFY.pdb
     RDKit          3D

 33 34  0  0  1  0  0  0  0  0999 V2000
    7.8226  -17.5856   18.5237 N   0  0  0  0  0  0  0  0  0  0  0  0
    9.1979  -17.3682   18.8911 C   0  0  1  0  0  0  0  0  0  0  0  0
   10.0636  -17.0555   17.6785 C   0  0  0  0  0  0  0  0  0  0  0  0
    9.8436  -18.0662   16.6241 C   0  0  0  0  0  0  0  0  0  0  0  0
   10.5634  -17.8688   15.3422 C   0  0  0  0  0  0  0  0  0  0  0  0
   10.2191  -18.8062   14.2387 C   0  0  0  0  0  0  0  0  0  0  0  0
   10.7520  -18.3973   12.9529 N   0  0  0  0  0  0  0  0  0  0  0  0
    9.2772  -16.3160   19.9158 C   0  0  0  0  0  0  0  0  0  0  0  0
    9.9514  -15.2702   19.7029 O   0  0  0  0  0  0  0  0  0  0  0  0
    8.6237  -16.4068   21.1646 N   0  0  0  0  0  0  0  0  0  0  0  0
    8.7655  -15.3588   22.1997 C   0  0  1  0  0  0  0  0  0  0  0  0
    7.3793  -14.9676   22.5435 C   0  0  0  0  0  0  0  0  0  0  0  0
    7.1453  -14.1730   23.7296 C   0  0  0  0  0  0  0  0  0  0  0  0
    7.4259  -12.8167   23.8302 C   0  0  0  0  0  0  0  0  0  0  0  0
    7.1822  -12.0826   24.9490 C   0  0  0  0  0  0  0  0  0  0  0  0
    6.6360  -12.6696   26.0482 C   0  0  0  0  0  0  0  0  0  0  0  0
    6.3365  -14.0153   26.0053 C   0  0  0  0  0  0  0  0  0  0  0  0
    6.5916  -14.7608   24.8485 C   0  0  0  0  0  0  0  0  0  0  0  0
    9.5698  -15.9427   23.2841 C   0  0  0  0  0  0  0  0  0  0  0  0
    9.3418  -17.1379   23.6438 O   0  0  0  0  0  0  0  0  0  0  0  0
   10.6322  -15.9992   31.7065 O   0  0  0  0  0  0  0  0  0  0  0  0
   10.4462  -15.7308   30.3408 C   0  0  0  0  0  0  0  0  0  0  0  0
   10.7207  -14.4819   29.8541 C   0  0  0  0  0  0  0  0  0  0  0  0
   10.5322  -14.2283   28.4977 C   0  0  0  0  0  0  0  0  0  0  0  0
   10.0760  -15.2137   27.6477 C   0  0  0  0  0  0  0  0  0  0  0  0
    9.8904  -14.9086   26.2245 C   0  0  0  0  0  0  0  0  0  0  0  0
   10.9578  -15.5923   25.3574 C   0  0  2  0  0  0  0  0  0  0  0  0
   10.6138  -15.2701   23.9860 N   0  0  0  0  0  0  0  0  0  0  0  0
   10.9749  -17.0419   25.6393 C   0  0  0  0  0  0  0  0  0  0  0  0
   12.1306  -17.5903   26.1685 O   0  0  0  0  0  0  0  0  0  0  0  0
    9.7967  -16.4750   28.1277 C   0  0  0  0  0  0  0  0  0  0  0  0
    9.9915  -16.7029   29.4782 C   0  0  0  0  0  0  0  0  0  0  0  0
    9.9957  -17.7928   25.4221 O   0  0  0  0  0  0  0  0  0  0  0  0
  2  1  1  6
  3  2  1  0
  3  4  1  0
  5  4  1  0
  5  6  1  0
  7  6  1  0
  8  2  1  0
  8  9  2  0
 10  8  1  0
 11 10  1  0
 11 12  1  1
 13 12  1  0
 13 14  2  0
 15 14  1  0
 16 15  2  0
 17 18  2  0
 17 16  1  0
 18 13  1  0
 19 11  1  0
 20 19  2  0
 21 22  1  0
 22 23  2  0
 23 24  1  0
 25 24  2  0
 25 26  1  0
 27 28  1  0
 27 26  1  1
 28 19  1  0
 29 27  1  0
 30 29  1  0
 31 25  1  0
 32 22  1  0
 32 31  2  0
 33 29  2  0
M  END
$$$$
