KFY.pdb
     RDKit          3D

 33 34  0  0  1  0  0  0  0  0999 V2000
    8.8078  -17.2054   18.2871 N   0  0  0  0  0  0  0  0  0  0  0  0
    8.8660  -17.6955   19.6399 C   0  0  1  0  0  0  0  0  0  0  0  0
    9.9084  -18.7937   19.7982 C   0  0  0  0  0  0  0  0  0  0  0  0
   10.0773  -19.5203   18.5233 C   0  0  0  0  0  0  0  0  0  0  0  0
    9.7925  -20.9761   18.5359 C   0  0  0  0  0  0  0  0  0  0  0  0
    9.9959  -21.7011   17.2521 C   0  0  0  0  0  0  0  0  0  0  0  0
    9.7571  -23.1283   17.3566 N   0  0  0  0  0  0  0  0  0  0  0  0
    9.0960  -16.5746   20.5641 C   0  0  0  0  0  0  0  0  0  0  0  0
   10.1588  -15.8973   20.4906 O   0  0  0  0  0  0  0  0  0  0  0  0
    8.1703  -16.1971   21.5617 N   0  0  0  0  0  0  0  0  0  0  0  0
    8.4828  -15.1549   22.5647 C   0  0  1  0  0  0  0  0  0  0  0  0
    7.1682  -14.7157   23.0856 C   0  0  0  0  0  0  0  0  0  0  0  0
    7.1201  -13.9043   24.2825 C   0  0  0  0  0  0  0  0  0  0  0  0
    6.7127  -14.3688   25.5262 C   0  0  0  0  0  0  0  0  0  0  0  0
    6.6912  -13.5945   26.6444 C   0  0  0  0  0  0  0  0  0  0  0  0
    7.0811  -12.2925   26.5837 C   0  0  0  0  0  0  0  0  0  0  0  0
    7.4959  -11.7769   25.3735 C   0  0  0  0  0  0  0  0  0  0  0  0
    7.5139  -12.5830   24.2295 C   0  0  0  0  0  0  0  0  0  0  0  0
    9.4018  -15.7669   23.5368 C   0  0  0  0  0  0  0  0  0  0  0  0
    9.1998  -16.9645   23.9044 O   0  0  0  0  0  0  0  0  0  0  0  0
    9.9050  -14.3465   31.0262 O   0  0  0  0  0  0  0  0  0  0  0  0
   10.0604  -14.9278   29.7575 C   0  0  0  0  0  0  0  0  0  0  0  0
    9.9459  -14.1488   28.6387 C   0  0  0  0  0  0  0  0  0  0  0  0
   10.1023  -14.7372   27.3860 C   0  0  0  0  0  0  0  0  0  0  0  0
   10.3689  -16.0845   27.2626 C   0  0  0  0  0  0  0  0  0  0  0  0
   10.5277  -16.6682   25.9258 C   0  0  0  0  0  0  0  0  0  0  0  0
   11.4275  -15.7996   25.0346 C   0  0  2  0  0  0  0  0  0  0  0  0
   10.5325  -15.1199   24.1181 N   0  0  0  0  0  0  0  0  0  0  0  0
   12.4315  -16.6488   24.3621 C   0  0  0  0  0  0  0  0  0  0  0  0
   12.0309  -17.8899   23.8978 O   0  0  0  0  0  0  0  0  0  0  0  0
   10.4862  -16.8781   28.3832 C   0  0  0  0  0  0  0  0  0  0  0  0
   10.3268  -16.2713   29.6161 C   0  0  0  0  0  0  0  0  0  0  0  0
   13.6225  -16.2978   24.1944 O   0  0  0  0  0  0  0  0  0  0  0  0
  2  1  1  6
  3  2  1  0
  3  4  1  0
  5  4  1  0
  5  6  1  0
  7  6  1  0
  8  2  1  0
  8  9  2  0
 10  8  1  0
 11 10  1  0
 11 12  1  1
 13 12  1  0
 13 14  2  0
 15 14  1  0
 16 15  2  0
 17 18  2  0
 17 16  1  0
 18 13  1  0
 19 11  1  0
 20 19  2  0
 21 22  1  0
 22 23  2  0
 23 24  1  0
 25 24  2  0
 25 26  1  0
 27 28  1  0
 27 26  1  1
 28 19  1  0
 29 27  1  0
 30 29  1  0
 31 25  1  0
 32 22  1  0
 32 31  2  0
 33 29  2  0
M  END
$$$$
