KFY.pdb
     RDKit          3D

 33 34  0  0  1  0  0  0  0  0999 V2000
    7.6260  -15.7397   19.1571 N   0  0  0  0  0  0  0  0  0  0  0  0
    8.7705  -14.8670   19.2051 C   0  0  1  0  0  0  0  0  0  0  0  0
    8.5053  -13.5482   18.4922 C   0  0  0  0  0  0  0  0  0  0  0  0
    8.4741  -13.7591   17.0306 C   0  0  0  0  0  0  0  0  0  0  0  0
    7.1412  -13.7606   16.3794 C   0  0  0  0  0  0  0  0  0  0  0  0
    7.1286  -13.9063   14.8983 C   0  0  0  0  0  0  0  0  0  0  0  0
    7.9046  -12.8877   14.2163 N   0  0  0  0  0  0  0  0  0  0  0  0
    9.1850  -14.6690   20.6024 C   0  0  0  0  0  0  0  0  0  0  0  0
   10.2028  -13.9723   20.8714 O   0  0  0  0  0  0  0  0  0  0  0  0
    8.4913  -15.2291   21.6978 N   0  0  0  0  0  0  0  0  0  0  0  0
    9.0766  -15.2691   23.0564 C   0  0  1  0  0  0  0  0  0  0  0  0
    7.9161  -15.2476   23.9760 C   0  0  0  0  0  0  0  0  0  0  0  0
    7.5756  -14.0144   24.6516 C   0  0  0  0  0  0  0  0  0  0  0  0
    8.2508  -12.8139   24.4752 C   0  0  0  0  0  0  0  0  0  0  0  0
    7.9043  -11.6600   25.1066 C   0  0  0  0  0  0  0  0  0  0  0  0
    6.8476  -11.6385   25.9633 C   0  0  0  0  0  0  0  0  0  0  0  0
    6.1396  -12.8028   26.1772 C   0  0  0  0  0  0  0  0  0  0  0  0
    6.5053  -13.9842   25.5219 C   0  0  0  0  0  0  0  0  0  0  0  0
    9.9344  -16.4629   23.1114 C   0  0  0  0  0  0  0  0  0  0  0  0
   10.8492  -16.6032   22.2434 O   0  0  0  0  0  0  0  0  0  0  0  0
   10.8162  -15.1263   31.3928 O   0  0  0  0  0  0  0  0  0  0  0  0
   10.5862  -15.3386   30.0239 C   0  0  0  0  0  0  0  0  0  0  0  0
    9.8260  -14.4451   29.3199 C   0  0  0  0  0  0  0  0  0  0  0  0
    9.6053  -14.6667   27.9628 C   0  0  0  0  0  0  0  0  0  0  0  0
   10.1400  -15.7672   27.3267 C   0  0  0  0  0  0  0  0  0  0  0  0
    9.8858  -15.9665   25.8954 C   0  0  0  0  0  0  0  0  0  0  0  0
   10.3364  -17.3594   25.4314 C   0  0  2  0  0  0  0  0  0  0  0  0
    9.8307  -17.5049   24.0801 N   0  0  0  0  0  0  0  0  0  0  0  0
    9.8305  -18.3840   26.3672 C   0  0  0  0  0  0  0  0  0  0  0  0
    8.4800  -18.6865   26.3360 O   0  0  0  0  0  0  0  0  0  0  0  0
   10.9072  -16.6733   28.0266 C   0  0  0  0  0  0  0  0  0  0  0  0
   11.1125  -16.4320   29.3733 C   0  0  0  0  0  0  0  0  0  0  0  0
   10.5651  -18.9879   27.1830 O   0  0  0  0  0  0  0  0  0  0  0  0
  2  1  1  1
  3  2  1  0
  3  4  1  0
  5  4  1  0
  5  6  1  0
  7  6  1  0
  8  2  1  0
  8  9  2  0
 10  8  1  0
 11 10  1  0
 11 12  1  1
 13 12  1  0
 13 14  2  0
 15 14  1  0
 16 15  2  0
 17 18  2  0
 17 16  1  0
 18 13  1  0
 19 11  1  0
 20 19  2  0
 21 22  1  0
 22 23  2  0
 23 24  1  0
 25 24  2  0
 25 26  1  0
 27 28  1  0
 27 26  1  1
 28 19  1  0
 29 27  1  0
 30 29  1  0
 31 25  1  0
 32 22  1  0
 32 31  2  0
 33 29  2  0
M  END
$$$$
