KFY.pdb
     RDKit          3D

 33 34  0  0  1  0  0  0  0  0999 V2000
    7.9736  -18.2656   19.0696 N   0  0  0  0  0  0  0  0  0  0  0  0
    8.8809  -17.1973   18.7389 C   0  0  1  0  0  0  0  0  0  0  0  0
    8.3781  -16.3737   17.5614 C   0  0  0  0  0  0  0  0  0  0  0  0
    9.2841  -16.5348   16.4060 C   0  0  0  0  0  0  0  0  0  0  0  0
    8.7718  -17.3151   15.2531 C   0  0  0  0  0  0  0  0  0  0  0  0
    9.6832  -17.4432   14.0835 C   0  0  0  0  0  0  0  0  0  0  0  0
    9.1526  -18.2937   13.0347 N   0  0  0  0  0  0  0  0  0  0  0  0
    9.1282  -16.3701   19.9296 C   0  0  0  0  0  0  0  0  0  0  0  0
   10.1681  -15.6584   20.0050 O   0  0  0  0  0  0  0  0  0  0  0  0
    8.2444  -16.3215   21.0302 N   0  0  0  0  0  0  0  0  0  0  0  0
    8.5557  -15.5429   22.2496 C   0  0  1  0  0  0  0  0  0  0  0  0
    7.2725  -14.9192   22.6458 C   0  0  0  0  0  0  0  0  0  0  0  0
    7.1869  -14.2288   23.9143 C   0  0  0  0  0  0  0  0  0  0  0  0
    6.6864  -14.7938   25.0799 C   0  0  0  0  0  0  0  0  0  0  0  0
    6.6305  -14.1339   26.2680 C   0  0  0  0  0  0  0  0  0  0  0  0
    7.0779  -12.8524   26.3616 C   0  0  0  0  0  0  0  0  0  0  0  0
    7.5860  -12.2401   25.2349 C   0  0  0  0  0  0  0  0  0  0  0  0
    7.6386  -12.9292   24.0177 C   0  0  0  0  0  0  0  0  0  0  0  0
    9.1515  -16.4839   23.2105 C   0  0  0  0  0  0  0  0  0  0  0  0
    8.4272  -17.4036   23.7002 O   0  0  0  0  0  0  0  0  0  0  0  0
   10.7632  -15.0779   31.2479 O   0  0  0  0  0  0  0  0  0  0  0  0
   10.6630  -15.0881   29.8474 C   0  0  0  0  0  0  0  0  0  0  0  0
   11.2762  -16.0811   29.1333 C   0  0  0  0  0  0  0  0  0  0  0  0
   11.1694  -16.0802   27.7447 C   0  0  0  0  0  0  0  0  0  0  0  0
   10.4584  -15.0981   27.0877 C   0  0  0  0  0  0  0  0  0  0  0  0
   10.3679  -15.1311   25.6235 C   0  0  0  0  0  0  0  0  0  0  0  0
   10.8645  -16.4697   25.0580 C   0  0  2  0  0  0  0  0  0  0  0  0
   10.5075  -16.4579   23.6525 N   0  0  0  0  0  0  0  0  0  0  0  0
   10.2594  -17.5850   25.8139 C   0  0  0  0  0  0  0  0  0  0  0  0
    8.8798  -17.6983   25.8176 O   0  0  0  0  0  0  0  0  0  0  0  0
    9.8370  -14.0934   27.7975 C   0  0  0  0  0  0  0  0  0  0  0  0
    9.9572  -14.1153   29.1755 C   0  0  0  0  0  0  0  0  0  0  0  0
   10.9355  -18.4280   26.4481 O   0  0  0  0  0  0  0  0  0  0  0  0
  2  1  1  1
  3  2  1  0
  3  4  1  0
  5  4  1  0
  5  6  1  0
  7  6  1  0
  8  2  1  0
  8  9  2  0
 10  8  1  0
 11 10  1  0
 11 12  1  1
 13 12  1  0
 13 14  2  0
 15 14  1  0
 16 15  2  0
 17 18  2  0
 17 16  1  0
 18 13  1  0
 19 11  1  0
 20 19  2  0
 21 22  1  0
 22 23  2  0
 23 24  1  0
 25 24  2  0
 25 26  1  0
 27 28  1  0
 27 26  1  1
 28 19  1  0
 29 27  1  0
 30 29  1  0
 31 25  1  0
 32 22  1  0
 32 31  2  0
 33 29  2  0
M  END
$$$$
