KFY.pdb
     RDKit          3D

 33 34  0  0  1  0  0  0  0  0999 V2000
    9.2156  -16.2588   18.6618 N   0  0  0  0  0  0  0  0  0  0  0  0
    9.5774  -17.0789   19.7888 C   0  0  1  0  0  0  0  0  0  0  0  0
   10.8312  -17.8971   19.5125 C   0  0  0  0  0  0  0  0  0  0  0  0
   10.5078  -19.0399   18.6343 C   0  0  0  0  0  0  0  0  0  0  0  0
   11.2282  -19.1188   17.3400 C   0  0  0  0  0  0  0  0  0  0  0  0
   10.9666  -20.3259   16.5097 C   0  0  0  0  0  0  0  0  0  0  0  0
    9.6600  -20.9106   16.7453 N   0  0  0  0  0  0  0  0  0  0  0  0
    9.7156  -16.2397   20.9888 C   0  0  0  0  0  0  0  0  0  0  0  0
   10.8572  -15.8606   21.3720 O   0  0  0  0  0  0  0  0  0  0  0  0
    8.6131  -15.8181   21.7644 N   0  0  0  0  0  0  0  0  0  0  0  0
    8.7698  -14.8920   22.9080 C   0  0  1  0  0  0  0  0  0  0  0  0
    7.4264  -14.3040   23.1137 C   0  0  0  0  0  0  0  0  0  0  0  0
    7.1925  -13.4699   24.2723 C   0  0  0  0  0  0  0  0  0  0  0  0
    7.6679  -12.1725   24.4107 C   0  0  0  0  0  0  0  0  0  0  0  0
    7.4224  -11.3972   25.5010 C   0  0  0  0  0  0  0  0  0  0  0  0
    6.6766  -11.8804   26.5313 C   0  0  0  0  0  0  0  0  0  0  0  0
    6.1780  -13.1638   26.4483 C   0  0  0  0  0  0  0  0  0  0  0  0
    6.4372  -13.9524   25.3213 C   0  0  0  0  0  0  0  0  0  0  0  0
    9.3160  -15.6839   24.0208 C   0  0  0  0  0  0  0  0  0  0  0  0
    8.8862  -16.8635   24.2051 O   0  0  0  0  0  0  0  0  0  0  0  0
   12.1593  -17.0493   32.2437 O   0  0  0  0  0  0  0  0  0  0  0  0
   11.9295  -16.5194   30.9638 C   0  0  0  0  0  0  0  0  0  0  0  0
   10.9903  -15.5387   30.7971 C   0  0  0  0  0  0  0  0  0  0  0  0
   10.7717  -15.0212   29.5227 C   0  0  0  0  0  0  0  0  0  0  0  0
   11.4855  -15.4827   28.4368 C   0  0  0  0  0  0  0  0  0  0  0  0
   11.2275  -14.9125   27.1097 C   0  0  0  0  0  0  0  0  0  0  0  0
   10.6269  -15.9550   26.1552 C   0  0  2  0  0  0  0  0  0  0  0  0
   10.3146  -15.2355   24.9355 N   0  0  0  0  0  0  0  0  0  0  0  0
    9.4521  -16.5898   26.7863 C   0  0  0  0  0  0  0  0  0  0  0  0
    8.2557  -15.8935   26.7869 O   0  0  0  0  0  0  0  0  0  0  0  0
   12.4339  -16.4702   28.5938 C   0  0  0  0  0  0  0  0  0  0  0  0
   12.6332  -16.9686   29.8688 C   0  0  0  0  0  0  0  0  0  0  0  0
    9.4903  -17.7238   27.3178 O   0  0  0  0  0  0  0  0  0  0  0  0
  2  1  1  6
  3  2  1  0
  3  4  1  0
  5  4  1  0
  5  6  1  0
  7  6  1  0
  8  2  1  0
  8  9  2  0
 10  8  1  0
 11 10  1  0
 11 12  1  1
 13 12  1  0
 13 14  2  0
 15 14  1  0
 16 15  2  0
 17 18  2  0
 17 16  1  0
 18 13  1  0
 19 11  1  0
 20 19  2  0
 21 22  1  0
 22 23  2  0
 23 24  1  0
 25 24  2  0
 25 26  1  0
 27 28  1  0
 27 26  1  1
 28 19  1  0
 29 27  1  0
 30 29  1  0
 31 25  1  0
 32 22  1  0
 32 31  2  0
 33 29  2  0
M  END
$$$$
