KFY.pdb
     RDKit          3D

 33 34  0  0  1  0  0  0  0  0999 V2000
    9.3447  -16.4158   18.0692 N   0  0  0  0  0  0  0  0  0  0  0  0
    9.3016  -17.1654   19.2980 C   0  0  1  0  0  0  0  0  0  0  0  0
   10.3684  -18.2510   19.3349 C   0  0  0  0  0  0  0  0  0  0  0  0
    9.7576  -19.5711   19.0779 C   0  0  0  0  0  0  0  0  0  0  0  0
   10.3914  -20.4139   18.0346 C   0  0  0  0  0  0  0  0  0  0  0  0
    9.8199  -21.7751   17.8463 C   0  0  0  0  0  0  0  0  0  0  0  0
   10.5274  -22.5606   16.8528 N   0  0  0  0  0  0  0  0  0  0  0  0
    9.4040  -16.2476   20.4428 C   0  0  0  0  0  0  0  0  0  0  0  0
   10.4616  -15.5856   20.6349 O   0  0  0  0  0  0  0  0  0  0  0  0
    8.3571  -16.0551   21.3711 N   0  0  0  0  0  0  0  0  0  0  0  0
    8.5010  -15.1548   22.5368 C   0  0  1  0  0  0  0  0  0  0  0  0
    7.1322  -14.6627   22.8140 C   0  0  0  0  0  0  0  0  0  0  0  0
    6.8971  -13.8642   23.9973 C   0  0  0  0  0  0  0  0  0  0  0  0
    7.3617  -12.5670   24.1704 C   0  0  0  0  0  0  0  0  0  0  0  0
    7.1151  -11.8255   25.2838 C   0  0  0  0  0  0  0  0  0  0  0  0
    6.3791  -12.3447   26.3035 C   0  0  0  0  0  0  0  0  0  0  0  0
    5.8914  -13.6296   26.1863 C   0  0  0  0  0  0  0  0  0  0  0  0
    6.1516  -14.3833   25.0359 C   0  0  0  0  0  0  0  0  0  0  0  0
    9.1427  -15.9418   23.6011 C   0  0  0  0  0  0  0  0  0  0  0  0
    8.8026  -17.1539   23.7598 O   0  0  0  0  0  0  0  0  0  0  0  0
   11.3201  -16.5010   32.0887 O   0  0  0  0  0  0  0  0  0  0  0  0
   11.1793  -16.0977   30.7511 C   0  0  0  0  0  0  0  0  0  0  0  0
   10.3035  -15.0949   30.4364 C   0  0  0  0  0  0  0  0  0  0  0  0
   10.1730  -14.7038   29.1060 C   0  0  0  0  0  0  0  0  0  0  0  0
   10.9106  -15.3111   28.1117 C   0  0  0  0  0  0  0  0  0  0  0  0
   10.7461  -14.8712   26.7215 C   0  0  0  0  0  0  0  0  0  0  0  0
   10.3660  -16.0406   25.8015 C   0  0  2  0  0  0  0  0  0  0  0  0
   10.1424  -15.4540   24.4943 N   0  0  0  0  0  0  0  0  0  0  0  0
    9.1853  -16.7403   26.3470 C   0  0  0  0  0  0  0  0  0  0  0  0
    9.3800  -17.9618   26.9686 O   0  0  0  0  0  0  0  0  0  0  0  0
   11.7957  -16.3221   28.4180 C   0  0  0  0  0  0  0  0  0  0  0  0
   11.9080  -16.6932   29.7460 C   0  0  0  0  0  0  0  0  0  0  0  0
    8.0223  -16.2800   26.2727 O   0  0  0  0  0  0  0  0  0  0  0  0
  2  1  1  6
  3  2  1  0
  3  4  1  0
  5  4  1  0
  5  6  1  0
  7  6  1  0
  8  2  1  0
  8  9  2  0
 10  8  1  0
 11 10  1  0
 11 12  1  1
 13 12  1  0
 13 14  2  0
 15 14  1  0
 16 15  2  0
 17 18  2  0
 17 16  1  0
 18 13  1  0
 19 11  1  0
 20 19  2  0
 21 22  1  0
 22 23  2  0
 23 24  1  0
 25 24  2  0
 25 26  1  0
 27 28  1  0
 27 26  1  1
 28 19  1  0
 29 27  1  0
 30 29  1  0
 31 25  1  0
 32 22  1  0
 32 31  2  0
 33 29  2  0
M  END
$$$$
