KFY.pdb
     RDKit          3D

 33 34  0  0  1  0  0  0  0  0999 V2000
    9.6557  -16.7937   17.9782 N   0  0  0  0  0  0  0  0  0  0  0  0
    9.0898  -17.3354   19.1866 C   0  0  1  0  0  0  0  0  0  0  0  0
    9.6746  -18.7005   19.5213 C   0  0  0  0  0  0  0  0  0  0  0  0
   10.0665  -19.4022   18.2820 C   0  0  0  0  0  0  0  0  0  0  0  0
   10.5327  -20.8036   18.4210 C   0  0  0  0  0  0  0  0  0  0  0  0
   10.8728  -21.5160   17.1593 C   0  0  0  0  0  0  0  0  0  0  0  0
   11.3361  -22.8736   17.3756 N   0  0  0  0  0  0  0  0  0  0  0  0
    9.2582  -16.3744   20.2873 C   0  0  0  0  0  0  0  0  0  0  0  0
   10.2881  -15.6467   20.3446 O   0  0  0  0  0  0  0  0  0  0  0  0
    8.3068  -16.2105   21.3182 N   0  0  0  0  0  0  0  0  0  0  0  0
    8.4898  -15.2183   22.4009 C   0  0  1  0  0  0  0  0  0  0  0  0
    7.1189  -14.8142   22.7881 C   0  0  0  0  0  0  0  0  0  0  0  0
    6.9308  -14.0086   23.9750 C   0  0  0  0  0  0  0  0  0  0  0  0
    6.4844  -14.5034   25.1933 C   0  0  0  0  0  0  0  0  0  0  0  0
    6.3306  -13.7328   26.3035 C   0  0  0  0  0  0  0  0  0  0  0  0
    6.6181  -12.4037   26.2601 C   0  0  0  0  0  0  0  0  0  0  0  0
    7.0657  -11.8572   25.0754 C   0  0  0  0  0  0  0  0  0  0  0  0
    7.2201  -12.6600   23.9393 C   0  0  0  0  0  0  0  0  0  0  0  0
    9.2986  -15.8728   23.4408 C   0  0  0  0  0  0  0  0  0  0  0  0
    8.9017  -16.9767   23.9245 O   0  0  0  0  0  0  0  0  0  0  0  0
   11.0159  -15.8959   31.6884 O   0  0  0  0  0  0  0  0  0  0  0  0
   10.7172  -15.7110   30.3289 C   0  0  0  0  0  0  0  0  0  0  0  0
   10.8270  -14.4642   29.7764 C   0  0  0  0  0  0  0  0  0  0  0  0
   10.5280  -14.2939   28.4268 C   0  0  0  0  0  0  0  0  0  0  0  0
   10.1261  -15.3590   27.6486 C   0  0  0  0  0  0  0  0  0  0  0  0
    9.8202  -15.1403   26.2302 C   0  0  0  0  0  0  0  0  0  0  0  0
   10.9551  -15.6414   25.3250 C   0  0  2  0  0  0  0  0  0  0  0  0
   10.5239  -15.3672   23.9679 N   0  0  0  0  0  0  0  0  0  0  0  0
   11.2077  -17.0725   25.5889 C   0  0  0  0  0  0  0  0  0  0  0  0
   12.4440  -17.4344   26.0956 O   0  0  0  0  0  0  0  0  0  0  0  0
   10.0123  -16.6189   28.1953 C   0  0  0  0  0  0  0  0  0  0  0  0
   10.3145  -16.7634   29.5375 C   0  0  0  0  0  0  0  0  0  0  0  0
   10.3576  -17.9680   25.3758 O   0  0  0  0  0  0  0  0  0  0  0  0
  2  1  1  6
  3  2  1  0
  3  4  1  0
  5  4  1  0
  5  6  1  0
  7  6  1  0
  8  2  1  0
  8  9  2  0
 10  8  1  0
 11 10  1  0
 11 12  1  1
 13 12  1  0
 13 14  2  0
 15 14  1  0
 16 15  2  0
 17 18  2  0
 17 16  1  0
 18 13  1  0
 19 11  1  0
 20 19  2  0
 21 22  1  0
 22 23  2  0
 23 24  1  0
 25 24  2  0
 25 26  1  0
 27 28  1  0
 27 26  1  1
 28 19  1  0
 29 27  1  0
 30 29  1  0
 31 25  1  0
 32 22  1  0
 32 31  2  0
 33 29  2  0
M  END
$$$$
