KFY.pdb
     RDKit          3D

 33 34  0  0  1  0  0  0  0  0999 V2000
    8.3330  -18.4510   19.8253 N   0  0  0  0  0  0  0  0  0  0  0  0
    9.5612  -17.7206   19.6464 C   0  0  1  0  0  0  0  0  0  0  0  0
    9.7719  -17.3176   18.1935 C   0  0  0  0  0  0  0  0  0  0  0  0
    9.8047  -18.5183   17.3338 C   0  0  0  0  0  0  0  0  0  0  0  0
   10.8069  -18.5356   16.2403 C   0  0  0  0  0  0  0  0  0  0  0  0
   10.3492  -19.0774   14.9318 C   0  0  0  0  0  0  0  0  0  0  0  0
   11.3532  -18.9797   13.8891 N   0  0  0  0  0  0  0  0  0  0  0  0
    9.5860  -16.5625   20.5527 C   0  0  0  0  0  0  0  0  0  0  0  0
   10.6123  -15.8307   20.6220 O   0  0  0  0  0  0  0  0  0  0  0  0
    8.4961  -16.2072   21.3778 N   0  0  0  0  0  0  0  0  0  0  0  0
    8.5705  -15.0746   22.3273 C   0  0  1  0  0  0  0  0  0  0  0  0
    7.2052  -14.9518   22.8873 C   0  0  0  0  0  0  0  0  0  0  0  0
    6.9429  -13.9409   23.8886 C   0  0  0  0  0  0  0  0  0  0  0  0
    7.1887  -12.5854   23.7143 C   0  0  0  0  0  0  0  0  0  0  0  0
    6.9188  -11.6475   24.6617 C   0  0  0  0  0  0  0  0  0  0  0  0
    6.3796  -12.0151   25.8556 C   0  0  0  0  0  0  0  0  0  0  0  0
    6.1141  -13.3492   26.0842 C   0  0  0  0  0  0  0  0  0  0  0  0
    6.3962  -14.3055   25.1018 C   0  0  0  0  0  0  0  0  0  0  0  0
    9.6440  -15.3933   23.2811 C   0  0  0  0  0  0  0  0  0  0  0  0
   10.7188  -14.7199   23.2447 O   0  0  0  0  0  0  0  0  0  0  0  0
   11.6022  -15.2888   31.6714 O   0  0  0  0  0  0  0  0  0  0  0  0
   11.0211  -15.4407   30.4022 C   0  0  0  0  0  0  0  0  0  0  0  0
   10.9531  -14.3669   29.5571 C   0  0  0  0  0  0  0  0  0  0  0  0
   10.3744  -14.5305   28.3009 C   0  0  0  0  0  0  0  0  0  0  0  0
    9.8738  -15.7524   27.9033 C   0  0  0  0  0  0  0  0  0  0  0  0
    9.2719  -15.8859   26.5718 C   0  0  0  0  0  0  0  0  0  0  0  0
   10.3078  -16.3243   25.5262 C   0  0  2  0  0  0  0  0  0  0  0  0
    9.5844  -16.4170   24.2728 N   0  0  0  0  0  0  0  0  0  0  0  0
   10.9318  -17.5955   25.9458 C   0  0  0  0  0  0  0  0  0  0  0  0
   10.2595  -18.7742   25.6722 O   0  0  0  0  0  0  0  0  0  0  0  0
    9.9374  -16.8404   28.7468 C   0  0  0  0  0  0  0  0  0  0  0  0
   10.5164  -16.6534   29.9892 C   0  0  0  0  0  0  0  0  0  0  0  0
   12.0361  -17.6539   26.5349 O   0  0  0  0  0  0  0  0  0  0  0  0
  2  1  1  6
  3  2  1  0
  3  4  1  0
  5  4  1  0
  5  6  1  0
  7  6  1  0
  8  2  1  0
  8  9  2  0
 10  8  1  0
 11 10  1  0
 11 12  1  1
 13 12  1  0
 13 14  2  0
 15 14  1  0
 16 15  2  0
 17 18  2  0
 17 16  1  0
 18 13  1  0
 19 11  1  0
 20 19  2  0
 21 22  1  0
 22 23  2  0
 23 24  1  0
 25 24  2  0
 25 26  1  0
 27 28  1  0
 27 26  1  1
 28 19  1  0
 29 27  1  0
 30 29  1  0
 31 25  1  0
 32 22  1  0
 32 31  2  0
 33 29  2  0
M  END
$$$$
