KFY.pdb
     RDKit          3D

 33 34  0  0  1  0  0  0  0  0999 V2000
    8.3073  -17.1926   19.4316 N   0  0  0  0  0  0  0  0  0  0  0  0
    9.5322  -16.4356   19.4476 C   0  0  1  0  0  0  0  0  0  0  0  0
    9.6799  -15.5742   18.2010 C   0  0  0  0  0  0  0  0  0  0  0  0
    8.9139  -16.1633   17.0838 C   0  0  0  0  0  0  0  0  0  0  0  0
    9.0598  -15.5201   15.7551 C   0  0  0  0  0  0  0  0  0  0  0  0
    8.2744  -16.1174   14.6410 C   0  0  0  0  0  0  0  0  0  0  0  0
    8.3024  -15.3204   13.4291 N   0  0  0  0  0  0  0  0  0  0  0  0
    9.6084  -15.6413   20.6832 C   0  0  0  0  0  0  0  0  0  0  0  0
   10.6024  -14.8936   20.8985 O   0  0  0  0  0  0  0  0  0  0  0  0
    8.6045  -15.6648   21.6764 N   0  0  0  0  0  0  0  0  0  0  0  0
    8.6970  -14.8400   22.9017 C   0  0  1  0  0  0  0  0  0  0  0  0
    7.3174  -14.3626   23.1492 C   0  0  0  0  0  0  0  0  0  0  0  0
    7.0440  -13.5843   24.3377 C   0  0  0  0  0  0  0  0  0  0  0  0
    7.4115  -12.2555   24.5040 C   0  0  0  0  0  0  0  0  0  0  0  0
    7.1297  -11.5350   25.6227 C   0  0  0  0  0  0  0  0  0  0  0  0
    6.4544  -12.1087   26.6552 C   0  0  0  0  0  0  0  0  0  0  0  0
    6.0641  -13.4271   26.5452 C   0  0  0  0  0  0  0  0  0  0  0  0
    6.3597  -14.1587   25.3891 C   0  0  0  0  0  0  0  0  0  0  0  0
    9.2915  -15.6942   23.9414 C   0  0  0  0  0  0  0  0  0  0  0  0
    9.0222  -16.9342   23.9467 O   0  0  0  0  0  0  0  0  0  0  0  0
   12.8030  -17.9189   31.7556 O   0  0  0  0  0  0  0  0  0  0  0  0
   12.4265  -17.2355   30.5881 C   0  0  0  0  0  0  0  0  0  0  0  0
   11.3286  -16.4193   30.6072 C   0  0  0  0  0  0  0  0  0  0  0  0
   10.9656  -15.7469   29.4428 C   0  0  0  0  0  0  0  0  0  0  0  0
   11.6944  -15.8937   28.2814 C   0  0  0  0  0  0  0  0  0  0  0  0
   11.2812  -15.1683   27.0747 C   0  0  0  0  0  0  0  0  0  0  0  0
   10.5626  -16.0919   26.0801 C   0  0  2  0  0  0  0  0  0  0  0  0
   10.1697  -15.2437   24.9714 N   0  0  0  0  0  0  0  0  0  0  0  0
    9.4263  -16.7568   26.7494 C   0  0  0  0  0  0  0  0  0  0  0  0
    9.5879  -18.0686   27.1609 O   0  0  0  0  0  0  0  0  0  0  0  0
   12.8020  -16.7132   28.2515 C   0  0  0  0  0  0  0  0  0  0  0  0
   13.1429  -17.3706   29.4200 C   0  0  0  0  0  0  0  0  0  0  0  0
    8.3291  -16.1896   26.9600 O   0  0  0  0  0  0  0  0  0  0  0  0
  2  1  1  6
  3  2  1  0
  3  4  1  0
  5  4  1  0
  5  6  1  0
  7  6  1  0
  8  2  1  0
  8  9  2  0
 10  8  1  0
 11 10  1  0
 11 12  1  1
 13 12  1  0
 13 14  2  0
 15 14  1  0
 16 15  2  0
 17 18  2  0
 17 16  1  0
 18 13  1  0
 19 11  1  0
 20 19  2  0
 21 22  1  0
 22 23  2  0
 23 24  1  0
 25 24  2  0
 25 26  1  0
 27 28  1  0
 27 26  1  1
 28 19  1  0
 29 27  1  0
 30 29  1  0
 31 25  1  0
 32 22  1  0
 32 31  2  0
 33 29  2  0
M  END
$$$$
