KFY.pdb
     RDKit          3D

 33 34  0  0  1  0  0  0  0  0999 V2000
    8.6062  -17.8654   20.9220 N   0  0  0  0  0  0  0  0  0  0  0  0
    9.9399  -17.3359   21.0428 C   0  0  1  0  0  0  0  0  0  0  0  0
   10.4560  -16.7976   19.7156 C   0  0  0  0  0  0  0  0  0  0  0  0
    9.8470  -17.5424   18.5948 C   0  0  0  0  0  0  0  0  0  0  0  0
   10.5618  -17.5058   17.2955 C   0  0  0  0  0  0  0  0  0  0  0  0
   10.0142  -18.3701   16.2146 C   0  0  0  0  0  0  0  0  0  0  0  0
   10.6576  -18.1589   14.9316 N   0  0  0  0  0  0  0  0  0  0  0  0
    9.9758  -16.3198   22.1055 C   0  0  0  0  0  0  0  0  0  0  0  0
   11.0327  -15.6650   22.3242 O   0  0  0  0  0  0  0  0  0  0  0  0
    8.8636  -16.0218   22.9235 N   0  0  0  0  0  0  0  0  0  0  0  0
    8.9442  -15.0366   24.0248 C   0  0  1  0  0  0  0  0  0  0  0  0
    7.6288  -14.3566   24.0297 C   0  0  0  0  0  0  0  0  0  0  0  0
    7.3066  -13.4537   25.1133 C   0  0  0  0  0  0  0  0  0  0  0  0
    7.8771  -12.1988   25.2813 C   0  0  0  0  0  0  0  0  0  0  0  0
    7.5479  -11.3566   26.2974 C   0  0  0  0  0  0  0  0  0  0  0  0
    6.6162  -11.7248   27.2179 C   0  0  0  0  0  0  0  0  0  0  0  0
    6.0162  -12.9612   27.1007 C   0  0  0  0  0  0  0  0  0  0  0  0
    6.3628  -13.8196   26.0508 C   0  0  0  0  0  0  0  0  0  0  0  0
    9.2979  -15.7884   25.2387 C   0  0  0  0  0  0  0  0  0  0  0  0
    8.8171  -16.9510   25.4039 O   0  0  0  0  0  0  0  0  0  0  0  0
   14.6330  -17.9699   22.7744 O   0  0  0  0  0  0  0  0  0  0  0  0
   14.0086  -17.4833   23.9342 C   0  0  0  0  0  0  0  0  0  0  0  0
   13.7602  -16.1434   24.0564 C   0  0  0  0  0  0  0  0  0  0  0  0
   13.1403  -15.6732   25.2115 C   0  0  0  0  0  0  0  0  0  0  0  0
   12.7773  -16.5360   26.2242 C   0  0  0  0  0  0  0  0  0  0  0  0
   12.1255  -16.0031   27.4260 C   0  0  0  0  0  0  0  0  0  0  0  0
   10.6003  -16.1705   27.3613 C   0  0  2  0  0  0  0  0  0  0  0  0
   10.1583  -15.3180   26.2747 N   0  0  0  0  0  0  0  0  0  0  0  0
   10.0052  -15.8224   28.6675 C   0  0  0  0  0  0  0  0  0  0  0  0
    9.3138  -14.6277   28.7722 O   0  0  0  0  0  0  0  0  0  0  0  0
   13.0229  -17.8873   26.1110 C   0  0  0  0  0  0  0  0  0  0  0  0
   13.6396  -18.3306   24.9548 C   0  0  0  0  0  0  0  0  0  0  0  0
   10.0978  -16.5563   29.6789 O   0  0  0  0  0  0  0  0  0  0  0  0
  2  1  1  6
  3  2  1  0
  3  4  1  0
  5  4  1  0
  5  6  1  0
  7  6  1  0
  8  2  1  0
  8  9  2  0
 10  8  1  0
 11 10  1  0
 11 12  1  1
 13 12  1  0
 13 14  2  0
 15 14  1  0
 16 15  2  0
 17 18  2  0
 17 16  1  0
 18 13  1  0
 19 11  1  0
 20 19  2  0
 21 22  1  0
 22 23  2  0
 23 24  1  0
 25 24  2  0
 25 26  1  0
 27 28  1  0
 27 26  1  1
 28 19  1  0
 29 27  1  0
 30 29  1  0
 31 25  1  0
 32 22  1  0
 32 31  2  0
 33 29  2  0
M  END
$$$$
