KFY.pdb
     RDKit          3D

 33 34  0  0  1  0  0  0  0  0999 V2000
    5.7205  -16.8589   20.1913 N   0  0  0  0  0  0  0  0  0  0  0  0
    6.9994  -17.2537   20.7227 C   0  0  1  0  0  0  0  0  0  0  0  0
    7.9732  -17.6437   19.6194 C   0  0  0  0  0  0  0  0  0  0  0  0
    7.3997  -18.7280   18.7966 C   0  0  0  0  0  0  0  0  0  0  0  0
    7.6494  -20.1189   19.2478 C   0  0  0  0  0  0  0  0  0  0  0  0
    7.1049  -21.2023   18.3847 C   0  0  0  0  0  0  0  0  0  0  0  0
    7.4373  -22.5328   18.8581 N   0  0  0  0  0  0  0  0  0  0  0  0
    7.5318  -16.1839   21.5803 C   0  0  0  0  0  0  0  0  0  0  0  0
    8.3376  -15.3334   21.1102 O   0  0  0  0  0  0  0  0  0  0  0  0
    7.1854  -16.0452   22.9425 N   0  0  0  0  0  0  0  0  0  0  0  0
    7.7375  -14.9598   23.7833 C   0  0  1  0  0  0  0  0  0  0  0  0
    6.6461  -14.6051   24.7192 C   0  0  0  0  0  0  0  0  0  0  0  0
    6.8443  -13.5178   25.6528 C   0  0  0  0  0  0  0  0  0  0  0  0
    8.0457  -13.2475   26.2947 C   0  0  0  0  0  0  0  0  0  0  0  0
    8.2173  -12.2091   27.1563 C   0  0  0  0  0  0  0  0  0  0  0  0
    7.1833  -11.3684   27.4305 C   0  0  0  0  0  0  0  0  0  0  0  0
    5.9657  -11.5889   26.8211 C   0  0  0  0  0  0  0  0  0  0  0  0
    5.8009  -12.6607   25.9361 C   0  0  0  0  0  0  0  0  0  0  0  0
    8.9744  -15.4804   24.3859 C   0  0  0  0  0  0  0  0  0  0  0  0
    9.6446  -14.7302   25.1594 O   0  0  0  0  0  0  0  0  0  0  0  0
    8.5549  -18.8081   30.4814 O   0  0  0  0  0  0  0  0  0  0  0  0
    9.0500  -18.7704   29.1679 C   0  0  0  0  0  0  0  0  0  0  0  0
   10.3799  -18.5313   28.9537 C   0  0  0  0  0  0  0  0  0  0  0  0
   10.8587  -18.4966   27.6463 C   0  0  0  0  0  0  0  0  0  0  0  0
   10.0142  -18.6988   26.5751 C   0  0  0  0  0  0  0  0  0  0  0  0
   10.5558  -18.6552   25.2121 C   0  0  0  0  0  0  0  0  0  0  0  0
   10.7716  -17.2108   24.7371 C   0  0  2  0  0  0  0  0  0  0  0  0
    9.5025  -16.7889   24.1765 N   0  0  0  0  0  0  0  0  0  0  0  0
   11.8898  -17.1652   23.7733 C   0  0  0  0  0  0  0  0  0  0  0  0
   11.6100  -16.8087   22.4653 O   0  0  0  0  0  0  0  0  0  0  0  0
    8.6729  -18.9405   26.7799 C   0  0  0  0  0  0  0  0  0  0  0  0
    8.2208  -18.9702   28.0870 C   0  0  0  0  0  0  0  0  0  0  0  0
   13.0734  -17.4332   24.0853 O   0  0  0  0  0  0  0  0  0  0  0  0
  2  1  1  6
  3  2  1  0
  3  4  1  0
  5  4  1  0
  5  6  1  0
  7  6  1  0
  8  2  1  0
  8  9  2  0
 10  8  1  0
 11 10  1  0
 11 12  1  1
 13 12  1  0
 13 14  2  0
 15 14  1  0
 16 15  2  0
 17 18  2  0
 17 16  1  0
 18 13  1  0
 19 11  1  0
 20 19  2  0
 21 22  1  0
 22 23  2  0
 23 24  1  0
 25 24  2  0
 25 26  1  0
 27 28  1  0
 27 26  1  6
 28 19  1  0
 29 27  1  0
 30 29  1  0
 31 25  1  0
 32 22  1  0
 32 31  2  0
 33 29  2  0
M  END
$$$$
