KFY.pdb
     RDKit          3D

 33 34  0  0  1  0  0  0  0  0999 V2000
    9.5277  -16.3003   17.9882 N   0  0  0  0  0  0  0  0  0  0  0  0
    9.0665  -17.0177   19.1486 C   0  0  1  0  0  0  0  0  0  0  0  0
    9.7203  -18.3879   19.2620 C   0  0  0  0  0  0  0  0  0  0  0  0
    9.6829  -19.0773   17.9561 C   0  0  0  0  0  0  0  0  0  0  0  0
    8.6350  -20.1107   17.7707 C   0  0  0  0  0  0  0  0  0  0  0  0
    8.6952  -20.8948   16.5071 C   0  0  0  0  0  0  0  0  0  0  0  0
    9.2330  -22.2301   16.6870 N   0  0  0  0  0  0  0  0  0  0  0  0
    9.2778  -16.2007   20.3532 C   0  0  0  0  0  0  0  0  0  0  0  0
   10.4408  -15.8290   20.6740 O   0  0  0  0  0  0  0  0  0  0  0  0
    8.2244  -15.7929   21.2012 N   0  0  0  0  0  0  0  0  0  0  0  0
    8.4624  -14.9511   22.3948 C   0  0  1  0  0  0  0  0  0  0  0  0
    7.1315  -14.4129   22.7575 C   0  0  0  0  0  0  0  0  0  0  0  0
    6.9945  -13.6275   23.9648 C   0  0  0  0  0  0  0  0  0  0  0  0
    7.4612  -12.3276   24.1092 C   0  0  0  0  0  0  0  0  0  0  0  0
    7.3071  -11.5987   25.2472 C   0  0  0  0  0  0  0  0  0  0  0  0
    6.6684  -12.1342   26.3226 C   0  0  0  0  0  0  0  0  0  0  0  0
    6.1836  -13.4226   26.2360 C   0  0  0  0  0  0  0  0  0  0  0  0
    6.3480  -14.1632   25.0597 C   0  0  0  0  0  0  0  0  0  0  0  0
    9.1163  -15.8105   23.3937 C   0  0  0  0  0  0  0  0  0  0  0  0
    8.6322  -16.9599   23.6273 O   0  0  0  0  0  0  0  0  0  0  0  0
   11.2952  -16.4644   31.7366 O   0  0  0  0  0  0  0  0  0  0  0  0
   11.2109  -16.0620   30.3939 C   0  0  0  0  0  0  0  0  0  0  0  0
   11.8482  -16.7924   29.4283 C   0  0  0  0  0  0  0  0  0  0  0  0
   11.7569  -16.3830   28.1003 C   0  0  0  0  0  0  0  0  0  0  0  0
   11.0375  -15.2594   27.7513 C   0  0  0  0  0  0  0  0  0  0  0  0
   10.9640  -14.8599   26.3414 C   0  0  0  0  0  0  0  0  0  0  0  0
   10.5666  -16.0390   25.4412 C   0  0  2  0  0  0  0  0  0  0  0  0
   10.2791  -15.4611   24.1427 N   0  0  0  0  0  0  0  0  0  0  0  0
    9.4217  -16.7568   26.0372 C   0  0  0  0  0  0  0  0  0  0  0  0
    9.6641  -17.9690   26.6604 O   0  0  0  0  0  0  0  0  0  0  0  0
   10.3919  -14.5168   28.7161 C   0  0  0  0  0  0  0  0  0  0  0  0
   10.4970  -14.9430   30.0280 C   0  0  0  0  0  0  0  0  0  0  0  0
    8.2478  -16.3199   26.0040 O   0  0  0  0  0  0  0  0  0  0  0  0
  2  1  1  6
  3  2  1  0
  3  4  1  0
  5  4  1  0
  5  6  1  0
  7  6  1  0
  8  2  1  0
  8  9  2  0
 10  8  1  0
 11 10  1  0
 11 12  1  1
 13 12  1  0
 13 14  2  0
 15 14  1  0
 16 15  2  0
 17 18  2  0
 17 16  1  0
 18 13  1  0
 19 11  1  0
 20 19  2  0
 21 22  1  0
 22 23  2  0
 23 24  1  0
 25 24  2  0
 25 26  1  0
 27 28  1  0
 27 26  1  1
 28 19  1  0
 29 27  1  0
 30 29  1  0
 31 25  1  0
 32 22  1  0
 32 31  2  0
 33 29  2  0
M  END
$$$$
