KFY.pdb
     RDKit          3D

 33 34  0  0  1  0  0  0  0  0999 V2000
    7.9359  -16.9409   18.7485 N   0  0  0  0  0  0  0  0  0  0  0  0
    9.1386  -16.1491   18.7256 C   0  0  1  0  0  0  0  0  0  0  0  0
    9.0956  -15.0885   17.6342 C   0  0  0  0  0  0  0  0  0  0  0  0
    7.8477  -15.2139   16.8540 C   0  0  0  0  0  0  0  0  0  0  0  0
    7.9680  -15.1456   15.3771 C   0  0  0  0  0  0  0  0  0  0  0  0
    8.3659  -13.8301   14.8058 C   0  0  0  0  0  0  0  0  0  0  0  0
    8.5139  -13.8539   13.3628 N   0  0  0  0  0  0  0  0  0  0  0  0
    9.3749  -15.5675   20.0557 C   0  0  0  0  0  0  0  0  0  0  0  0
   10.4221  -14.8994   20.2810 O   0  0  0  0  0  0  0  0  0  0  0  0
    8.4725  -15.7157   21.1320 N   0  0  0  0  0  0  0  0  0  0  0  0
    8.7090  -15.0750   22.4449 C   0  0  1  0  0  0  0  0  0  0  0  0
    7.3637  -14.7032   22.9394 C   0  0  0  0  0  0  0  0  0  0  0  0
    7.2475  -13.9684   24.1803 C   0  0  0  0  0  0  0  0  0  0  0  0
    7.5062  -12.6104   24.3120 C   0  0  0  0  0  0  0  0  0  0  0  0
    7.3743  -11.9333   25.4843 C   0  0  0  0  0  0  0  0  0  0  0  0
    6.9703  -12.5833   26.6092 C   0  0  0  0  0  0  0  0  0  0  0  0
    6.6991  -13.9338   26.5373 C   0  0  0  0  0  0  0  0  0  0  0  0
    6.8384  -14.6202   25.3255 C   0  0  0  0  0  0  0  0  0  0  0  0
    9.4617  -16.0430   23.2575 C   0  0  0  0  0  0  0  0  0  0  0  0
    9.3180  -17.2825   23.0272 O   0  0  0  0  0  0  0  0  0  0  0  0
    9.5824  -15.0271   30.8442 O   0  0  0  0  0  0  0  0  0  0  0  0
   10.2182  -15.2473   29.6117 C   0  0  0  0  0  0  0  0  0  0  0  0
   10.2107  -14.2625   28.6620 C   0  0  0  0  0  0  0  0  0  0  0  0
   10.8449  -14.4932   27.4437 C   0  0  0  0  0  0  0  0  0  0  0  0
   11.4746  -15.6928   27.1868 C   0  0  0  0  0  0  0  0  0  0  0  0
   12.1325  -15.8984   25.8914 C   0  0  0  0  0  0  0  0  0  0  0  0
   11.2382  -16.6873   24.9238 C   0  0  2  0  0  0  0  0  0  0  0  0
   10.3658  -15.7061   24.3082 N   0  0  0  0  0  0  0  0  0  0  0  0
   10.5154  -17.7429   25.6619 C   0  0  0  0  0  0  0  0  0  0  0  0
   11.2276  -18.8564   26.0729 O   0  0  0  0  0  0  0  0  0  0  0  0
   11.4881  -16.6912   28.1366 C   0  0  0  0  0  0  0  0  0  0  0  0
   10.8516  -16.4390   29.3387 C   0  0  0  0  0  0  0  0  0  0  0  0
    9.2935  -17.6753   25.9309 O   0  0  0  0  0  0  0  0  0  0  0  0
  2  1  1  1
  3  2  1  0
  3  4  1  0
  5  4  1  0
  5  6  1  0
  7  6  1  0
  8  2  1  0
  8  9  2  0
 10  8  1  0
 11 10  1  0
 11 12  1  1
 13 12  1  0
 13 14  2  0
 15 14  1  0
 16 15  2  0
 17 18  2  0
 17 16  1  0
 18 13  1  0
 19 11  1  0
 20 19  2  0
 21 22  1  0
 22 23  2  0
 23 24  1  0
 25 24  2  0
 25 26  1  0
 27 28  1  0
 27 26  1  1
 28 19  1  0
 29 27  1  0
 30 29  1  0
 31 25  1  0
 32 22  1  0
 32 31  2  0
 33 29  2  0
M  END
$$$$
