KFY.pdb
     RDKit          3D

 33 34  0  0  1  0  0  0  0  0999 V2000
    7.7094  -18.2492   19.4800 N   0  0  0  0  0  0  0  0  0  0  0  0
    8.9318  -17.5279   19.2365 C   0  0  1  0  0  0  0  0  0  0  0  0
    8.9694  -16.9378   17.8337 C   0  0  0  0  0  0  0  0  0  0  0  0
    8.9456  -18.0191   16.8277 C   0  0  0  0  0  0  0  0  0  0  0  0
    9.8237  -17.8556   15.6434 C   0  0  0  0  0  0  0  0  0  0  0  0
    9.7806  -18.9467   14.6321 C   0  0  0  0  0  0  0  0  0  0  0  0
   10.5053  -18.6291   13.4161 N   0  0  0  0  0  0  0  0  0  0  0  0
    9.1182  -16.5031   20.2749 C   0  0  0  0  0  0  0  0  0  0  0  0
   10.1373  -15.7583   20.2580 O   0  0  0  0  0  0  0  0  0  0  0  0
    8.1966  -16.2943   21.3246 N   0  0  0  0  0  0  0  0  0  0  0  0
    8.4485  -15.3125   22.4029 C   0  0  1  0  0  0  0  0  0  0  0  0
    7.1107  -14.9905   22.9500 C   0  0  0  0  0  0  0  0  0  0  0  0
    7.0090  -14.0890   24.0770 C   0  0  0  0  0  0  0  0  0  0  0  0
    6.6514  -14.4794   25.3608 C   0  0  0  0  0  0  0  0  0  0  0  0
    6.5784  -13.6193   26.4121 C   0  0  0  0  0  0  0  0  0  0  0  0
    6.8626  -12.3001   26.2390 C   0  0  0  0  0  0  0  0  0  0  0  0
    7.2239  -11.8555   24.9842 C   0  0  0  0  0  0  0  0  0  0  0  0
    7.2957  -12.7498   23.9099 C   0  0  0  0  0  0  0  0  0  0  0  0
    9.4024  -15.9398   23.3305 C   0  0  0  0  0  0  0  0  0  0  0  0
    9.2015  -17.1359   23.7034 O   0  0  0  0  0  0  0  0  0  0  0  0
   11.3417  -15.8466   31.5594 O   0  0  0  0  0  0  0  0  0  0  0  0
   11.0073  -15.6344   30.2122 C   0  0  0  0  0  0  0  0  0  0  0  0
   11.1288  -14.3821   29.6749 C   0  0  0  0  0  0  0  0  0  0  0  0
   10.7941  -14.1846   28.3375 C   0  0  0  0  0  0  0  0  0  0  0  0
   10.3457  -15.2285   27.5561 C   0  0  0  0  0  0  0  0  0  0  0  0
   10.0032  -14.9815   26.1508 C   0  0  0  0  0  0  0  0  0  0  0  0
   11.0512  -15.5807   25.2014 C   0  0  2  0  0  0  0  0  0  0  0  0
   10.5667  -15.3096   23.8617 N   0  0  0  0  0  0  0  0  0  0  0  0
   11.2208  -17.0190   25.4906 C   0  0  0  0  0  0  0  0  0  0  0  0
   10.1215  -17.8479   25.3465 O   0  0  0  0  0  0  0  0  0  0  0  0
   10.2198  -16.4939   28.0874 C   0  0  0  0  0  0  0  0  0  0  0  0
   10.5581  -16.6654   29.4178 C   0  0  0  0  0  0  0  0  0  0  0  0
   12.3092  -17.5192   25.8585 O   0  0  0  0  0  0  0  0  0  0  0  0
  2  1  1  1
  3  2  1  0
  3  4  1  0
  5  4  1  0
  5  6  1  0
  7  6  1  0
  8  2  1  0
  8  9  2  0
 10  8  1  0
 11 10  1  0
 11 12  1  1
 13 12  1  0
 13 14  2  0
 15 14  1  0
 16 15  2  0
 17 18  2  0
 17 16  1  0
 18 13  1  0
 19 11  1  0
 20 19  2  0
 21 22  1  0
 22 23  2  0
 23 24  1  0
 25 24  2  0
 25 26  1  0
 27 28  1  0
 27 26  1  1
 28 19  1  0
 29 27  1  0
 30 29  1  0
 31 25  1  0
 32 22  1  0
 32 31  2  0
 33 29  2  0
M  END
$$$$
