QPD.pdb
     RDKit          3D

 25 25  0  0  1  0  0  0  0  0999 V2000
    5.6286  -18.6212   23.0726 N   0  0  0  0  0  0  0  0  0  0  0  0
    5.4328  -17.9352   21.8492 C   0  0  0  0  0  0  0  0  0  0  0  0
    4.7505  -18.4768   20.9573 O   0  0  0  0  0  0  0  0  0  0  0  0
    6.0290  -16.6039   21.6445 C   0  0  0  0  0  0  0  0  0  0  0  0
    6.6977  -16.0051   22.8257 C   0  0  0  0  0  0  0  0  0  0  0  0
    7.2602  -14.6172   22.6136 C   0  0  2  0  0  0  0  0  0  0  0  0
    7.9419  -14.4880   21.3757 N   0  0  0  0  0  0  0  0  0  0  0  0
    8.0908  -14.2481   23.7677 C   0  0  0  0  0  0  0  0  0  0  0  0
    9.2806  -14.6597   23.7676 O   0  0  0  0  0  0  0  0  0  0  0  0
    7.6398  -13.4506   24.8935 N   0  0  0  0  0  0  0  0  0  0  0  0
    6.4558  -12.6625   24.9911 C   0  0  0  0  0  0  0  0  0  0  0  0
    6.1189  -12.6425   26.4672 C   0  0  0  0  0  0  0  0  0  0  0  0
    7.5125  -12.5760   27.0629 C   0  0  0  0  0  0  0  0  0  0  0  0
    8.3804  -13.3477   26.1268 C   0  0  1  0  0  0  0  0  0  0  0  0
    8.5990  -14.6964   26.7443 C   0  0  0  0  0  0  0  0  0  0  0  0
    7.6446  -15.5060   26.7046 O   0  0  0  0  0  0  0  0  0  0  0  0
    9.7976  -15.0874   27.3524 N   0  0  0  0  0  0  0  0  0  0  0  0
   10.0841  -16.4063   27.8766 C   0  0  1  0  0  0  0  0  0  0  0  0
   11.3296  -16.9168   27.2011 C   0  0  0  0  0  0  0  0  0  0  0  0
   11.8033  -18.2178   27.7229 C   0  0  0  0  0  0  0  0  0  0  0  0
   11.1511  -18.8406   28.5957 O   0  0  0  0  0  0  0  0  0  0  0  0
   10.2988  -16.3776   29.3442 C   0  0  0  0  0  0  0  0  0  0  0  0
   10.4927  -17.4567   29.9438 O   0  0  0  0  0  0  0  0  0  0  0  0
   12.9882  -18.7938   27.2626 O   0  0  0  0  0  0  0  0  0  0  0  0
   10.2914  -15.2018   30.0667 O   0  0  0  0  0  0  0  0  0  0  0  0
  2  4  1  0
  2  1  1  0
  3  2  2  0
  5  6  1  0
  5  4  1  0
  6  8  1  0
  6  7  1  6
  8 10  1  0
  9  8  2  0
 10 14  1  0
 10 11  1  0
 11 12  1  0
 13 12  1  0
 14 13  1  0
 14 15  1  1
 15 17  1  0
 16 15  2  0
 18 17  1  0
 18 22  1  0
 18 19  1  6
 20 19  1  0
 21 20  2  0
 22 23  2  0
 22 25  1  0
 24 20  1  0
M  END
$$$$
