QPD.pdb
     RDKit          3D

 25 25  0  0  1  0  0  0  0  0999 V2000
    7.2926  -18.3428   20.2552 N   0  0  0  0  0  0  0  0  0  0  0  0
    6.9641  -17.0902   19.6819 C   0  0  0  0  0  0  0  0  0  0  0  0
    7.2970  -16.8615   18.5024 O   0  0  0  0  0  0  0  0  0  0  0  0
    6.2401  -16.0816   20.4745 C   0  0  0  0  0  0  0  0  0  0  0  0
    6.8605  -15.7077   21.7692 C   0  0  0  0  0  0  0  0  0  0  0  0
    7.4050  -14.2983   21.8401 C   0  0  2  0  0  0  0  0  0  0  0  0
    8.1504  -13.9426   20.6862 N   0  0  0  0  0  0  0  0  0  0  0  0
    8.1636  -14.1329   23.0872 C   0  0  0  0  0  0  0  0  0  0  0  0
    9.3546  -14.5408   23.0874 O   0  0  0  0  0  0  0  0  0  0  0  0
    7.6410  -13.5379   24.3037 N   0  0  0  0  0  0  0  0  0  0  0  0
    6.4379  -12.7907   24.4673 C   0  0  0  0  0  0  0  0  0  0  0  0
    6.0274  -13.0191   25.9069 C   0  0  0  0  0  0  0  0  0  0  0  0
    7.3879  -13.0358   26.5778 C   0  0  0  0  0  0  0  0  0  0  0  0
    8.3169  -13.6318   25.5743 C   0  0  1  0  0  0  0  0  0  0  0  0
    8.5316  -15.0615   25.9720 C   0  0  0  0  0  0  0  0  0  0  0  0
    7.6683  -15.8927   25.6093 O   0  0  0  0  0  0  0  0  0  0  0  0
    9.6313  -15.5040   26.7163 N   0  0  0  0  0  0  0  0  0  0  0  0
    9.9659  -16.8875   26.9820 C   0  0  1  0  0  0  0  0  0  0  0  0
   11.0139  -17.3138   25.9879 C   0  0  0  0  0  0  0  0  0  0  0  0
   11.5348  -18.6797   26.2158 C   0  0  0  0  0  0  0  0  0  0  0  0
   11.0453  -19.4186   27.1045 O   0  0  0  0  0  0  0  0  0  0  0  0
   10.4915  -17.0694   28.3573 C   0  0  0  0  0  0  0  0  0  0  0  0
   10.4885  -18.2159   28.8543 O   0  0  0  0  0  0  0  0  0  0  0  0
   12.5851  -19.1903   25.4518 O   0  0  0  0  0  0  0  0  0  0  0  0
   10.9821  -16.0171   29.1033 O   0  0  0  0  0  0  0  0  0  0  0  0
  2  4  1  0
  2  1  1  0
  3  2  2  0
  5  6  1  0
  5  4  1  0
  6  8  1  0
  6  7  1  6
  8 10  1  0
  9  8  2  0
 10 14  1  0
 10 11  1  0
 11 12  1  0
 13 12  1  0
 14 13  1  0
 14 15  1  1
 15 17  1  0
 16 15  2  0
 18 17  1  0
 18 22  1  0
 18 19  1  6
 20 19  1  0
 21 20  2  0
 22 23  2  0
 22 25  1  0
 24 20  1  0
M  END
$$$$
