QPD.pdb
     RDKit          3D

 25 25  0  0  1  0  0  0  0  0999 V2000
    3.6126  -17.4003   21.2945 N   0  0  0  0  0  0  0  0  0  0  0  0
    4.6939  -17.2062   22.1882 C   0  0  0  0  0  0  0  0  0  0  0  0
    4.4604  -17.1398   23.4111 O   0  0  0  0  0  0  0  0  0  0  0  0
    6.0680  -17.0869   21.6712 C   0  0  0  0  0  0  0  0  0  0  0  0
    7.0812  -16.5885   22.6335 C   0  0  0  0  0  0  0  0  0  0  0  0
    7.4542  -15.1308   22.4800 C   0  0  2  0  0  0  0  0  0  0  0  0
    8.0275  -14.8447   21.2138 N   0  0  0  0  0  0  0  0  0  0  0  0
    8.3116  -14.7280   23.6028 C   0  0  0  0  0  0  0  0  0  0  0  0
    9.4843  -15.1860   23.6163 O   0  0  0  0  0  0  0  0  0  0  0  0
    7.9051  -13.8485   24.6836 N   0  0  0  0  0  0  0  0  0  0  0  0
    6.7187  -13.0632   24.7754 C   0  0  0  0  0  0  0  0  0  0  0  0
    6.4504  -12.9309   26.2598 C   0  0  0  0  0  0  0  0  0  0  0  0
    7.8694  -12.8089   26.7825 C   0  0  0  0  0  0  0  0  0  0  0  0
    8.7009  -13.6451   25.8691 C   0  0  1  0  0  0  0  0  0  0  0  0
    8.9618  -14.9403   26.5780 C   0  0  0  0  0  0  0  0  0  0  0  0
    8.0473  -15.7954   26.5637 O   0  0  0  0  0  0  0  0  0  0  0  0
   10.1576  -15.2344   27.2435 N   0  0  0  0  0  0  0  0  0  0  0  0
   10.4640  -16.4820   27.9114 C   0  0  1  0  0  0  0  0  0  0  0  0
   11.8886  -16.8476   27.5876 C   0  0  0  0  0  0  0  0  0  0  0  0
   12.1045  -17.2183   26.1715 C   0  0  0  0  0  0  0  0  0  0  0  0
   11.1353  -17.4552   25.4102 O   0  0  0  0  0  0  0  0  0  0  0  0
   10.3092  -16.3680   29.3824 C   0  0  0  0  0  0  0  0  0  0  0  0
   10.2356  -15.2293   29.8919 O   0  0  0  0  0  0  0  0  0  0  0  0
   13.3900  -17.3165   25.6372 O   0  0  0  0  0  0  0  0  0  0  0  0
   10.2440  -17.4749   30.2041 O   0  0  0  0  0  0  0  0  0  0  0  0
  2  4  1  0
  2  1  1  0
  3  2  2  0
  5  6  1  0
  5  4  1  0
  6  8  1  0
  6  7  1  6
  8 10  1  0
  9  8  2  0
 10 14  1  0
 10 11  1  0
 11 12  1  0
 13 12  1  0
 14 13  1  0
 14 15  1  1
 15 17  1  0
 16 15  2  0
 18 17  1  0
 18 22  1  0
 18 19  1  1
 20 19  1  0
 21 20  2  0
 22 23  2  0
 22 25  1  0
 24 20  1  0
M  END
$$$$
