QPD.pdb
     RDKit          3D

 25 25  0  0  1  0  0  0  0  0999 V2000
    5.8841  -18.5887   16.9115 N   0  0  0  0  0  0  0  0  0  0  0  0
    7.1472  -18.6892   17.5441 C   0  0  0  0  0  0  0  0  0  0  0  0
    7.3407  -19.6120   18.3598 O   0  0  0  0  0  0  0  0  0  0  0  0
    8.2081  -17.7151   17.2357 C   0  0  0  0  0  0  0  0  0  0  0  0
    7.8255  -16.6069   16.3266 C   0  0  0  0  0  0  0  0  0  0  0  0
    8.8491  -15.5016   16.1908 C   0  0  2  0  0  0  0  0  0  0  0  0
    9.8708  -15.8157   15.2574 N   0  0  0  0  0  0  0  0  0  0  0  0
    9.3716  -15.1576   17.5200 C   0  0  0  0  0  0  0  0  0  0  0  0
   10.3936  -15.7816   17.9088 O   0  0  0  0  0  0  0  0  0  0  0  0
    8.7983  -14.1595   18.4043 N   0  0  0  0  0  0  0  0  0  0  0  0
    7.5997  -13.4099   18.2198 C   0  0  0  0  0  0  0  0  0  0  0  0
    7.1152  -13.0950   19.6195 C   0  0  0  0  0  0  0  0  0  0  0  0
    8.4404  -12.8579   20.3187 C   0  0  0  0  0  0  0  0  0  0  0  0
    9.4089  -13.7769   19.6536 C   0  0  1  0  0  0  0  0  0  0  0  0
    9.5825  -14.9593   20.5591 C   0  0  0  0  0  0  0  0  0  0  0  0
    8.7856  -15.9141   20.4134 O   0  0  0  0  0  0  0  0  0  0  0  0
   10.5750  -15.0458   21.5422 N   0  0  0  0  0  0  0  0  0  0  0  0
   10.8843  -16.2245   22.3243 C   0  0  1  0  0  0  0  0  0  0  0  0
   11.3166  -17.3130   21.3775 C   0  0  0  0  0  0  0  0  0  0  0  0
   11.7425  -18.5590   22.0522 C   0  0  0  0  0  0  0  0  0  0  0  0
   11.3892  -18.8098   23.2301 O   0  0  0  0  0  0  0  0  0  0  0  0
   11.9702  -15.9642   23.3010 C   0  0  0  0  0  0  0  0  0  0  0  0
   12.9171  -15.2225   22.9624 O   0  0  0  0  0  0  0  0  0  0  0  0
   12.5492  -19.4943   21.4023 O   0  0  0  0  0  0  0  0  0  0  0  0
   11.9687  -16.5127   24.5674 O   0  0  0  0  0  0  0  0  0  0  0  0
  2  4  1  0
  2  1  1  0
  3  2  2  0
  5  6  1  0
  5  4  1  0
  6  8  1  0
  6  7  1  6
  8 10  1  0
  9  8  2  0
 10 14  1  0
 10 11  1  0
 11 12  1  0
 13 12  1  0
 14 13  1  0
 14 15  1  1
 15 17  1  0
 16 15  2  0
 18 17  1  0
 18 22  1  0
 18 19  1  6
 20 19  1  0
 21 20  2  0
 22 23  2  0
 22 25  1  0
 24 20  1  0
M  END
$$$$
