QPD.pdb
     RDKit          3D

 25 25  0  0  1  0  0  0  0  0999 V2000
    7.5178  -18.8938   17.1277 N   0  0  0  0  0  0  0  0  0  0  0  0
    8.9145  -18.9335   16.8970 C   0  0  0  0  0  0  0  0  0  0  0  0
    9.5166  -20.0171   17.0301 O   0  0  0  0  0  0  0  0  0  0  0  0
    9.6342  -17.7093   16.5058 C   0  0  0  0  0  0  0  0  0  0  0  0
    8.8106  -16.4800   16.3985 C   0  0  0  0  0  0  0  0  0  0  0  0
    9.5814  -15.1801   16.4596 C   0  0  2  0  0  0  0  0  0  0  0  0
   10.7318  -15.1882   15.6288 N   0  0  0  0  0  0  0  0  0  0  0  0
    9.8873  -14.8622   17.8608 C   0  0  0  0  0  0  0  0  0  0  0  0
   10.9776  -15.2952   18.3177 O   0  0  0  0  0  0  0  0  0  0  0  0
    9.0300  -14.0920   18.7433 N   0  0  0  0  0  0  0  0  0  0  0  0
    7.8085  -13.4310   18.4215 C   0  0  0  0  0  0  0  0  0  0  0  0
    7.0199  -13.4140   19.7141 C   0  0  0  0  0  0  0  0  0  0  0  0
    8.1396  -13.1880   20.7124 C   0  0  0  0  0  0  0  0  0  0  0  0
    9.3276  -13.8845   20.1392 C   0  0  1  0  0  0  0  0  0  0  0  0
    9.4631  -15.1887   20.8664 C   0  0  0  0  0  0  0  0  0  0  0  0
    9.2322  -16.2336   20.2162 O   0  0  0  0  0  0  0  0  0  0  0  0
    9.8288  -15.2928   22.2135 N   0  0  0  0  0  0  0  0  0  0  0  0
   10.9126  -16.1014   22.7311 C   0  0  1  0  0  0  0  0  0  0  0  0
   12.1871  -15.6574   22.0627 C   0  0  0  0  0  0  0  0  0  0  0  0
   13.3862  -16.4027   22.5050 C   0  0  0  0  0  0  0  0  0  0  0  0
   13.3526  -17.6475   22.6617 O   0  0  0  0  0  0  0  0  0  0  0  0
   11.0524  -15.9540   24.2006 C   0  0  0  0  0  0  0  0  0  0  0  0
   11.8849  -16.6683   24.7991 O   0  0  0  0  0  0  0  0  0  0  0  0
   14.5914  -15.7475   22.7620 O   0  0  0  0  0  0  0  0  0  0  0  0
   10.2954  -15.0566   24.9260 O   0  0  0  0  0  0  0  0  0  0  0  0
  2  4  1  0
  2  1  1  0
  3  2  2  0
  5  6  1  0
  5  4  1  0
  6  8  1  0
  6  7  1  6
  8 10  1  0
  9  8  2  0
 10 14  1  0
 10 11  1  0
 11 12  1  0
 13 12  1  0
 14 13  1  0
 14 15  1  1
 15 17  1  0
 16 15  2  0
 18 17  1  0
 18 22  1  0
 18 19  1  6
 20 19  1  0
 21 20  2  0
 22 23  2  0
 22 25  1  0
 24 20  1  0
M  END
$$$$
