QPD.pdb
     RDKit          3D

 25 25  0  0  1  0  0  0  0  0999 V2000
    6.1965  -18.7894   17.3467 N   0  0  0  0  0  0  0  0  0  0  0  0
    7.5279  -18.9040   16.8778 C   0  0  0  0  0  0  0  0  0  0  0  0
    8.1145  -19.9983   16.9910 O   0  0  0  0  0  0  0  0  0  0  0  0
    8.1991  -17.7436   16.2673 C   0  0  0  0  0  0  0  0  0  0  0  0
    7.4103  -16.4879   16.2242 C   0  0  0  0  0  0  0  0  0  0  0  0
    8.1486  -15.2807   15.6900 C   0  0  2  0  0  0  0  0  0  0  0  0
    8.7758  -15.5327   14.4422 N   0  0  0  0  0  0  0  0  0  0  0  0
    9.0818  -14.7902   16.7130 C   0  0  0  0  0  0  0  0  0  0  0  0
   10.2564  -15.2416   16.6753 O   0  0  0  0  0  0  0  0  0  0  0  0
    8.7470  -13.8319   17.7506 N   0  0  0  0  0  0  0  0  0  0  0  0
    7.5293  -13.1094   17.9166 C   0  0  0  0  0  0  0  0  0  0  0  0
    7.4298  -12.8456   19.4044 C   0  0  0  0  0  0  0  0  0  0  0  0
    8.8890  -12.5927   19.7335 C   0  0  0  0  0  0  0  0  0  0  0  0
    9.6617  -13.4674   18.8045 C   0  0  1  0  0  0  0  0  0  0  0  0
   10.0918  -14.6691   19.5914 C   0  0  0  0  0  0  0  0  0  0  0  0
    9.3793  -15.6951   19.5054 O   0  0  0  0  0  0  0  0  0  0  0  0
   11.2317  -14.6987   20.4032 N   0  0  0  0  0  0  0  0  0  0  0  0
   11.8405  -15.8906   20.9557 C   0  0  1  0  0  0  0  0  0  0  0  0
   12.2172  -16.7955   19.8123 C   0  0  0  0  0  0  0  0  0  0  0  0
   12.8735  -18.0525   20.2348 C   0  0  0  0  0  0  0  0  0  0  0  0
   13.0213  -18.3280   21.4503 O   0  0  0  0  0  0  0  0  0  0  0  0
   13.0534  -15.5694   21.7472 C   0  0  0  0  0  0  0  0  0  0  0  0
   13.8404  -14.7008   21.3139 O   0  0  0  0  0  0  0  0  0  0  0  0
   13.3485  -18.9711   19.2977 O   0  0  0  0  0  0  0  0  0  0  0  0
   13.3402  -16.1966   22.9426 O   0  0  0  0  0  0  0  0  0  0  0  0
  2  4  1  0
  2  1  1  0
  3  2  2  0
  5  6  1  0
  5  4  1  0
  6  8  1  0
  6  7  1  6
  8 10  1  0
  9  8  2  0
 10 14  1  0
 10 11  1  0
 11 12  1  0
 13 12  1  0
 14 13  1  0
 14 15  1  1
 15 17  1  0
 16 15  2  0
 18 17  1  0
 18 22  1  0
 18 19  1  6
 20 19  1  0
 21 20  2  0
 22 23  2  0
 22 25  1  0
 24 20  1  0
M  END
$$$$
