QPD.pdb
     RDKit          3D

 25 25  0  0  1  0  0  0  0  0999 V2000
    7.6155  -19.3695   17.3752 N   0  0  0  0  0  0  0  0  0  0  0  0
    7.3707  -18.5856   16.2215 C   0  0  0  0  0  0  0  0  0  0  0  0
    6.8057  -19.1132   15.2433 O   0  0  0  0  0  0  0  0  0  0  0  0
    7.7799  -17.1710   16.1884 C   0  0  0  0  0  0  0  0  0  0  0  0
    8.4839  -16.6720   17.3953 C   0  0  0  0  0  0  0  0  0  0  0  0
    8.7775  -15.1883   17.4032 C   0  0  2  0  0  0  0  0  0  0  0  0
    9.5956  -14.7881   16.3149 N   0  0  0  0  0  0  0  0  0  0  0  0
    9.3340  -14.8103   18.7091 C   0  0  0  0  0  0  0  0  0  0  0  0
   10.5255  -15.1457   18.9388 O   0  0  0  0  0  0  0  0  0  0  0  0
    8.6137  -14.0848   19.7396 N   0  0  0  0  0  0  0  0  0  0  0  0
    7.3137  -13.5053   19.6576 C   0  0  0  0  0  0  0  0  0  0  0  0
    6.7868  -13.5225   21.0771 C   0  0  0  0  0  0  0  0  0  0  0  0
    8.0598  -13.2151   21.8430 C   0  0  0  0  0  0  0  0  0  0  0  0
    9.1584  -13.8427   21.0529 C   0  0  1  0  0  0  0  0  0  0  0  0
    9.5128  -15.1273   21.7402 C   0  0  0  0  0  0  0  0  0  0  0  0
    8.7709  -16.1135   21.5290 O   0  0  0  0  0  0  0  0  0  0  0  0
   10.6139  -15.2746   22.5917 N   0  0  0  0  0  0  0  0  0  0  0  0
   11.0087  -16.5011   23.2523 C   0  0  1  0  0  0  0  0  0  0  0  0
   12.4705  -16.3954   23.5987 C   0  0  0  0  0  0  0  0  0  0  0  0
   13.3431  -16.1213   22.4358 C   0  0  0  0  0  0  0  0  0  0  0  0
   13.0762  -16.5897   21.3024 O   0  0  0  0  0  0  0  0  0  0  0  0
   10.2264  -16.7320   24.4914 C   0  0  0  0  0  0  0  0  0  0  0  0
   10.3651  -17.8170   25.0956 O   0  0  0  0  0  0  0  0  0  0  0  0
   14.4892  -15.3348   22.5606 O   0  0  0  0  0  0  0  0  0  0  0  0
    9.3531  -15.7906   24.9972 O   0  0  0  0  0  0  0  0  0  0  0  0
  2  4  1  0
  2  1  1  0
  3  2  2  0
  5  6  1  0
  5  4  1  0
  6  8  1  0
  6  7  1  6
  8 10  1  0
  9  8  2  0
 10 14  1  0
 10 11  1  0
 11 12  1  0
 13 12  1  0
 14 13  1  0
 14 15  1  1
 15 17  1  0
 16 15  2  0
 18 17  1  0
 18 22  1  0
 18 19  1  1
 20 19  1  0
 21 20  2  0
 22 23  2  0
 22 25  1  0
 24 20  1  0
M  END
$$$$
