QPD.pdb
     RDKit          3D

 25 25  0  0  1  0  0  0  0  0999 V2000
    6.5996  -20.7074   18.0933 N   0  0  0  0  0  0  0  0  0  0  0  0
    7.7703  -20.6111   18.8844 C   0  0  0  0  0  0  0  0  0  0  0  0
    8.4511  -21.6371   19.0803 O   0  0  0  0  0  0  0  0  0  0  0  0
    8.1686  -19.3155   19.4608 C   0  0  0  0  0  0  0  0  0  0  0  0
    7.3102  -18.1581   19.1076 C   0  0  0  0  0  0  0  0  0  0  0  0
    8.0521  -16.9137   18.6733 C   0  0  2  0  0  0  0  0  0  0  0  0
    8.8280  -17.1213   17.5034 N   0  0  0  0  0  0  0  0  0  0  0  0
    8.8404  -16.3998   19.8014 C   0  0  0  0  0  0  0  0  0  0  0  0
   10.0142  -16.8387   19.9224 O   0  0  0  0  0  0  0  0  0  0  0  0
    8.3653  -15.4319   20.7732 N   0  0  0  0  0  0  0  0  0  0  0  0
    7.0775  -14.8250   20.8483 C   0  0  0  0  0  0  0  0  0  0  0  0
    6.8805  -14.5037   22.3149 C   0  0  0  0  0  0  0  0  0  0  0  0
    8.2910  -14.0945   22.6950 C   0  0  0  0  0  0  0  0  0  0  0  0
    9.1882  -14.9314   21.8467 C   0  0  1  0  0  0  0  0  0  0  0  0
    9.6921  -16.0476   22.7118 C   0  0  0  0  0  0  0  0  0  0  0  0
    8.9470  -17.0440   22.8529 O   0  0  0  0  0  0  0  0  0  0  0  0
   10.9336  -16.0299   23.3580 N   0  0  0  0  0  0  0  0  0  0  0  0
   11.4855  -17.1091   24.1499 C   0  0  1  0  0  0  0  0  0  0  0  0
   12.9660  -16.8731   24.2937 C   0  0  0  0  0  0  0  0  0  0  0  0
   13.6449  -16.5375   23.0226 C   0  0  0  0  0  0  0  0  0  0  0  0
   13.4130  -17.1874   21.9744 O   0  0  0  0  0  0  0  0  0  0  0  0
   10.8660  -17.1726   25.4964 C   0  0  0  0  0  0  0  0  0  0  0  0
   11.1195  -18.1532   26.2283 O   0  0  0  0  0  0  0  0  0  0  0  0
   14.5635  -15.4894   22.9478 O   0  0  0  0  0  0  0  0  0  0  0  0
   10.0215  -16.1871   25.9656 O   0  0  0  0  0  0  0  0  0  0  0  0
  2  4  1  0
  2  1  1  0
  3  2  2  0
  5  6  1  0
  5  4  1  0
  6  8  1  0
  6  7  1  6
  8 10  1  0
  9  8  2  0
 10 14  1  0
 10 11  1  0
 11 12  1  0
 13 12  1  0
 14 13  1  0
 14 15  1  1
 15 17  1  0
 16 15  2  0
 18 17  1  0
 18 22  1  0
 18 19  1  1
 20 19  1  0
 21 20  2  0
 22 23  2  0
 22 25  1  0
 24 20  1  0
M  END
$$$$
