QPD.pdb
     RDKit          3D

 25 25  0  0  1  0  0  0  0  0999 V2000
    8.8515  -19.8444   16.0504 N   0  0  0  0  0  0  0  0  0  0  0  0
    7.9791  -18.7355   15.9281 C   0  0  0  0  0  0  0  0  0  0  0  0
    6.7841  -18.8699   16.2572 O   0  0  0  0  0  0  0  0  0  0  0  0
    8.4856  -17.4489   15.4203 C   0  0  0  0  0  0  0  0  0  0  0  0
    8.0290  -16.2400   16.1491 C   0  0  0  0  0  0  0  0  0  0  0  0
    9.0040  -15.0837   16.1546 C   0  0  2  0  0  0  0  0  0  0  0  0
   10.0760  -15.2696   15.2435 N   0  0  0  0  0  0  0  0  0  0  0  0
    9.4560  -14.8361   17.5302 C   0  0  0  0  0  0  0  0  0  0  0  0
   10.5340  -15.3828   17.8823 O   0  0  0  0  0  0  0  0  0  0  0  0
    8.7543  -14.0138   18.4989 N   0  0  0  0  0  0  0  0  0  0  0  0
    7.5731  -13.2406   18.3004 C   0  0  0  0  0  0  0  0  0  0  0  0
    6.9087  -13.1839   19.6599 C   0  0  0  0  0  0  0  0  0  0  0  0
    8.1295  -13.0803   20.5546 C   0  0  0  0  0  0  0  0  0  0  0  0
    9.1937  -13.8653   19.8646 C   0  0  1  0  0  0  0  0  0  0  0  0
    9.2765  -15.1928   20.5568 C   0  0  0  0  0  0  0  0  0  0  0  0
    8.9066  -16.1996   19.9109 O   0  0  0  0  0  0  0  0  0  0  0  0
    9.7392  -15.3579   21.8675 N   0  0  0  0  0  0  0  0  0  0  0  0
   10.5461  -16.4625   22.3421 C   0  0  1  0  0  0  0  0  0  0  0  0
   11.8078  -16.5059   21.5210 C   0  0  0  0  0  0  0  0  0  0  0  0
   12.7766  -17.5319   21.9658 C   0  0  0  0  0  0  0  0  0  0  0  0
   12.3975  -18.6864   22.2794 O   0  0  0  0  0  0  0  0  0  0  0  0
   10.8984  -16.3073   23.7748 C   0  0  0  0  0  0  0  0  0  0  0  0
   11.5081  -17.2359   24.3471 O   0  0  0  0  0  0  0  0  0  0  0  0
   14.1408  -17.2501   22.0510 O   0  0  0  0  0  0  0  0  0  0  0  0
   10.5759  -15.1745   24.4940 O   0  0  0  0  0  0  0  0  0  0  0  0
  2  4  1  0
  2  1  1  0
  3  2  2  0
  5  6  1  0
  5  4  1  0
  6  8  1  0
  6  7  1  6
  8 10  1  0
  9  8  2  0
 10 14  1  0
 10 11  1  0
 11 12  1  0
 13 12  1  0
 14 13  1  0
 14 15  1  1
 15 17  1  0
 16 15  2  0
 18 17  1  0
 18 22  1  0
 18 19  1  6
 20 19  1  0
 21 20  2  0
 22 23  2  0
 22 25  1  0
 24 20  1  0
M  END
$$$$
