QPD.pdb
     RDKit          3D

 25 25  0  0  1  0  0  0  0  0999 V2000
    3.9620  -19.5244   19.7465 N   0  0  0  0  0  0  0  0  0  0  0  0
    3.1554  -19.0570   20.8126 C   0  0  0  0  0  0  0  0  0  0  0  0
    1.9226  -19.2354   20.7585 O   0  0  0  0  0  0  0  0  0  0  0  0
    3.7727  -18.3735   21.9621 C   0  0  0  0  0  0  0  0  0  0  0  0
    5.2375  -18.1546   21.8752 C   0  0  0  0  0  0  0  0  0  0  0  0
    5.7525  -17.7741   20.5049 C   0  0  2  0  0  0  0  0  0  0  0  0
    5.7170  -18.8570   19.5885 N   0  0  0  0  0  0  0  0  0  0  0  0
    7.0881  -17.1769   20.6366 C   0  0  0  0  0  0  0  0  0  0  0  0
    8.0570  -17.9711   20.7610 O   0  0  0  0  0  0  0  0  0  0  0  0
    7.3641  -15.7518   20.6321 N   0  0  0  0  0  0  0  0  0  0  0  0
    6.4375  -14.6801   20.4733 C   0  0  0  0  0  0  0  0  0  0  0  0
    7.0569  -13.5136   21.2142 C   0  0  0  0  0  0  0  0  0  0  0  0
    8.5222  -13.7316   20.8875 C   0  0  0  0  0  0  0  0  0  0  0  0
    8.6912  -15.2107   20.7943 C   0  0  1  0  0  0  0  0  0  0  0  0
    9.3091  -15.6625   22.0835 C   0  0  0  0  0  0  0  0  0  0  0  0
    8.5314  -16.0253   22.9952 O   0  0  0  0  0  0  0  0  0  0  0  0
   10.6895  -15.6977   22.3131 N   0  0  0  0  0  0  0  0  0  0  0  0
   11.3342  -16.2600   23.4812 C   0  0  1  0  0  0  0  0  0  0  0  0
   10.9815  -17.7225   23.5508 C   0  0  0  0  0  0  0  0  0  0  0  0
   11.6590  -18.4503   24.6464 C   0  0  0  0  0  0  0  0  0  0  0  0
   12.4639  -19.3819   24.4031 O   0  0  0  0  0  0  0  0  0  0  0  0
   12.8091  -16.1137   23.4164 C   0  0  0  0  0  0  0  0  0  0  0  0
   13.4733  -16.2576   24.4650 O   0  0  0  0  0  0  0  0  0  0  0  0
   11.4258  -18.1254   25.9835 O   0  0  0  0  0  0  0  0  0  0  0  0
   13.4694  -15.8247   22.2395 O   0  0  0  0  0  0  0  0  0  0  0  0
  2  4  1  0
  2  1  1  0
  3  2  2  0
  5  6  1  0
  5  4  1  0
  6  8  1  0
  6  7  1  6
  8 10  1  0
  9  8  2  0
 10 14  1  0
 10 11  1  0
 11 12  1  0
 13 12  1  0
 14 13  1  0
 14 15  1  1
 15 17  1  0
 16 15  2  0
 18 17  1  0
 18 22  1  0
 18 19  1  6
 20 19  1  0
 21 20  2  0
 22 23  2  0
 22 25  1  0
 24 20  1  0
M  END
$$$$
