QPD.pdb
     RDKit          3D

 25 25  0  0  1  0  0  0  0  0999 V2000
    8.7420  -18.7677   17.2407 N   0  0  0  0  0  0  0  0  0  0  0  0
    8.3056  -18.6728   15.8968 C   0  0  0  0  0  0  0  0  0  0  0  0
    8.3540  -19.6879   15.1745 O   0  0  0  0  0  0  0  0  0  0  0  0
    7.8037  -17.3916   15.3711 C   0  0  0  0  0  0  0  0  0  0  0  0
    7.6828  -16.2898   16.3571 C   0  0  0  0  0  0  0  0  0  0  0  0
    8.7321  -15.2061   16.2450 C   0  0  2  0  0  0  0  0  0  0  0  0
    9.7028  -15.4875   15.2489 N   0  0  0  0  0  0  0  0  0  0  0  0
    9.3213  -14.9619   17.5683 C   0  0  0  0  0  0  0  0  0  0  0  0
   10.3665  -15.6034   17.8532 O   0  0  0  0  0  0  0  0  0  0  0  0
    8.7885  -14.0425   18.5572 N   0  0  0  0  0  0  0  0  0  0  0  0
    7.6700  -13.1680   18.4281 C   0  0  0  0  0  0  0  0  0  0  0  0
    7.1395  -12.9999   19.8363 C   0  0  0  0  0  0  0  0  0  0  0  0
    8.4406  -12.9811   20.6162 C   0  0  0  0  0  0  0  0  0  0  0  0
    9.3616  -13.8879   19.8717 C   0  0  1  0  0  0  0  0  0  0  0  0
    9.3846  -15.1917   20.6118 C   0  0  0  0  0  0  0  0  0  0  0  0
    8.7617  -16.1508   20.1021 O   0  0  0  0  0  0  0  0  0  0  0  0
   10.0573  -15.3850   21.8241 N   0  0  0  0  0  0  0  0  0  0  0  0
   10.6473  -16.6299   22.2698 C   0  0  1  0  0  0  0  0  0  0  0  0
   11.7668  -16.9807   21.3255 C   0  0  0  0  0  0  0  0  0  0  0  0
   12.4582  -18.2452   21.6601 C   0  0  0  0  0  0  0  0  0  0  0  0
   13.3464  -18.2818   22.5460 O   0  0  0  0  0  0  0  0  0  0  0  0
   11.1849  -16.5185   23.6480 C   0  0  0  0  0  0  0  0  0  0  0  0
   10.9305  -17.4274   24.4669 O   0  0  0  0  0  0  0  0  0  0  0  0
   12.1460  -19.4363   21.0031 O   0  0  0  0  0  0  0  0  0  0  0  0
   11.9544  -15.4472   24.0539 O   0  0  0  0  0  0  0  0  0  0  0  0
  2  4  1  0
  2  1  1  0
  3  2  2  0
  5  6  1  0
  5  4  1  0
  6  8  1  0
  6  7  1  6
  8 10  1  0
  9  8  2  0
 10 14  1  0
 10 11  1  0
 11 12  1  0
 13 12  1  0
 14 13  1  0
 14 15  1  1
 15 17  1  0
 16 15  2  0
 18 17  1  0
 18 22  1  0
 18 19  1  6
 20 19  1  0
 21 20  2  0
 22 23  2  0
 22 25  1  0
 24 20  1  0
M  END
$$$$
