QPD.pdb
     RDKit          3D

 25 25  0  0  1  0  0  0  0  0999 V2000
    5.5693  -18.3097   22.4182 N   0  0  0  0  0  0  0  0  0  0  0  0
    6.5667  -18.5786   21.4494 C   0  0  0  0  0  0  0  0  0  0  0  0
    6.9762  -19.7485   21.3149 O   0  0  0  0  0  0  0  0  0  0  0  0
    7.1041  -17.4871   20.6190 C   0  0  0  0  0  0  0  0  0  0  0  0
    6.5365  -16.1402   20.8732 C   0  0  0  0  0  0  0  0  0  0  0  0
    7.5342  -15.0038   20.8428 C   0  0  2  0  0  0  0  0  0  0  0  0
    8.3743  -15.0457   19.6998 N   0  0  0  0  0  0  0  0  0  0  0  0
    8.2839  -14.9818   22.1059 C   0  0  0  0  0  0  0  0  0  0  0  0
    9.4241  -15.5157   22.1005 O   0  0  0  0  0  0  0  0  0  0  0  0
    7.8068  -14.3931   23.3440 N   0  0  0  0  0  0  0  0  0  0  0  0
    6.5755  -13.7122   23.5733 C   0  0  0  0  0  0  0  0  0  0  0  0
    6.2720  -13.9346   25.0401 C   0  0  0  0  0  0  0  0  0  0  0  0
    7.6714  -13.8607   25.6212 C   0  0  0  0  0  0  0  0  0  0  0  0
    8.5671  -14.4231   24.5692 C   0  0  1  0  0  0  0  0  0  0  0  0
    8.8892  -15.8300   24.9754 C   0  0  0  0  0  0  0  0  0  0  0  0
    8.0368  -16.7101   24.7172 O   0  0  0  0  0  0  0  0  0  0  0  0
   10.0761  -16.2006   25.6181 N   0  0  0  0  0  0  0  0  0  0  0  0
   10.4620  -17.5543   25.9574 C   0  0  1  0  0  0  0  0  0  0  0  0
   11.8505  -17.7916   25.4245 C   0  0  0  0  0  0  0  0  0  0  0  0
   12.4038  -19.1207   25.7659 C   0  0  0  0  0  0  0  0  0  0  0  0
   12.6737  -19.4231   26.9536 O   0  0  0  0  0  0  0  0  0  0  0  0
   10.4556  -17.7741   27.4245 C   0  0  0  0  0  0  0  0  0  0  0  0
   10.3936  -16.7807   28.1801 O   0  0  0  0  0  0  0  0  0  0  0  0
   12.6431  -20.0796   24.7805 O   0  0  0  0  0  0  0  0  0  0  0  0
   10.5157  -19.0358   27.9804 O   0  0  0  0  0  0  0  0  0  0  0  0
  2  4  1  0
  2  1  1  0
  3  2  2  0
  5  6  1  0
  5  4  1  0
  6  8  1  0
  6  7  1  6
  8 10  1  0
  9  8  2  0
 10 14  1  0
 10 11  1  0
 11 12  1  0
 13 12  1  0
 14 13  1  0
 14 15  1  1
 15 17  1  0
 16 15  2  0
 18 17  1  0
 18 22  1  0
 18 19  1  1
 20 19  1  0
 21 20  2  0
 22 23  2  0
 22 25  1  0
 24 20  1  0
M  END
$$$$
