QPD.pdb
     RDKit          3D

 25 25  0  0  1  0  0  0  0  0999 V2000
    6.2375  -18.3322   15.9007 N   0  0  0  0  0  0  0  0  0  0  0  0
    7.6101  -18.6571   16.0274 C   0  0  0  0  0  0  0  0  0  0  0  0
    7.9387  -19.8556   16.1285 O   0  0  0  0  0  0  0  0  0  0  0  0
    8.6247  -17.5893   16.0377 C   0  0  0  0  0  0  0  0  0  0  0  0
    8.1124  -16.2075   15.8668 C   0  0  0  0  0  0  0  0  0  0  0  0
    9.1545  -15.1161   15.9702 C   0  0  2  0  0  0  0  0  0  0  0  0
   10.2674  -15.3419   15.1193 N   0  0  0  0  0  0  0  0  0  0  0  0
    9.5347  -14.9395   17.3782 C   0  0  0  0  0  0  0  0  0  0  0  0
   10.5378  -15.5842   17.7821 O   0  0  0  0  0  0  0  0  0  0  0  0
    8.8425  -14.0827   18.3235 N   0  0  0  0  0  0  0  0  0  0  0  0
    7.7056  -13.2555   18.0872 C   0  0  0  0  0  0  0  0  0  0  0  0
    7.0026  -13.1641   19.4252 C   0  0  0  0  0  0  0  0  0  0  0  0
    8.1984  -13.1155   20.3575 C   0  0  0  0  0  0  0  0  0  0  0  0
    9.2456  -13.9514   19.7020 C   0  0  1  0  0  0  0  0  0  0  0  0
    9.2443  -15.2794   20.3981 C   0  0  0  0  0  0  0  0  0  0  0  0
    8.8550  -16.2707   19.7398 O   0  0  0  0  0  0  0  0  0  0  0  0
    9.6503  -15.4612   21.7253 N   0  0  0  0  0  0  0  0  0  0  0  0
   10.5846  -16.4653   22.1894 C   0  0  1  0  0  0  0  0  0  0  0  0
   11.8744  -16.2887   21.4321 C   0  0  0  0  0  0  0  0  0  0  0  0
   12.9591  -17.1905   21.8786 C   0  0  0  0  0  0  0  0  0  0  0  0
   12.7844  -18.4318   21.9386 O   0  0  0  0  0  0  0  0  0  0  0  0
   10.8483  -16.3375   23.6437 C   0  0  0  0  0  0  0  0  0  0  0  0
   11.3150  -17.3205   24.2579 O   0  0  0  0  0  0  0  0  0  0  0  0
   14.2093  -16.6914   22.2468 O   0  0  0  0  0  0  0  0  0  0  0  0
   10.5956  -15.1720   24.3382 O   0  0  0  0  0  0  0  0  0  0  0  0
  2  4  1  0
  2  1  1  0
  3  2  2  0
  5  6  1  0
  5  4  1  0
  6  8  1  0
  6  7  1  6
  8 10  1  0
  9  8  2  0
 10 14  1  0
 10 11  1  0
 11 12  1  0
 13 12  1  0
 14 13  1  0
 14 15  1  1
 15 17  1  0
 16 15  2  0
 18 17  1  0
 18 22  1  0
 18 19  1  6
 20 19  1  0
 21 20  2  0
 22 23  2  0
 22 25  1  0
 24 20  1  0
M  END
$$$$
