IMI.pdb
     RDKit          3D

 25 24  0  0  1  0  0  0  0  0999 V2000
    7.6765  -12.8011   19.9609 C   0  0  0  0  0  0  0  0  0  0  0  0
    7.1155  -14.1990   20.1617 C   0  0  0  0  0  0  0  0  0  0  0  0
    8.1311  -15.2709   19.8314 C   0  0  2  0  0  0  0  0  0  0  0  0
    8.7783  -15.1349   18.5058 C   0  0  0  0  0  0  0  0  0  0  0  0
    7.4759  -16.6160   20.0983 C   0  0  2  0  0  0  0  0  0  0  0  0
    6.3228  -16.6347   19.1736 N   0  0  0  0  0  0  0  0  0  0  0  0
    6.9254  -16.6318   21.5002 C   0  0  0  0  0  0  0  0  0  0  0  0
    5.7780  -16.1955   21.6730 O   0  0  0  0  0  0  0  0  0  0  0  0
    8.7676  -20.4499   27.2784 C   0  0  0  0  0  0  0  0  0  0  0  0
    7.0744  -20.1846   26.7137 S   0  0  0  0  0  0  0  0  0  0  0  0
    6.8629  -18.5762   25.8991 C   0  0  0  0  0  0  0  0  0  0  0  0
    7.3300  -18.5612   24.4989 C   0  0  0  0  0  0  0  0  0  0  0  0
    7.2046  -17.1190   23.9525 C   0  0  2  0  0  0  0  0  0  0  0  0
    7.6981  -17.1305   22.5833 N   0  0  0  0  0  0  0  0  0  0  0  0
    7.9231  -16.1395   24.7431 C   0  0  0  0  0  0  0  0  0  0  0  0
    9.1508  -15.9275   24.4403 O   0  0  0  0  0  0  0  0  0  0  0  0
    5.7296  -11.5783   26.3342 C   0  0  0  0  0  0  0  0  0  0  0  0
    6.7344  -12.5809   25.8657 C   0  0  0  0  0  0  0  0  0  0  0  0
    7.4727  -13.2536   26.9947 C   0  0  2  0  0  0  0  0  0  0  0  0
    8.2970  -12.2417   27.7808 C   0  0  0  0  0  0  0  0  0  0  0  0
    8.3268  -14.3727   26.5031 C   0  0  2  0  0  0  0  0  0  0  0  0
    7.4624  -15.3651   25.8245 N   0  0  0  0  0  0  0  0  0  0  0  0
    9.1291  -15.0618   27.5445 C   0  0  0  0  0  0  0  0  0  0  0  0
    8.7824  -16.3185   27.9635 O   0  0  0  0  0  0  0  0  0  0  0  0
   10.1513  -14.5009   28.0689 O   0  0  0  0  0  0  0  0  0  0  0  0
  1  2  1  0
  3  2  1  0
  3  4  1  6
  5  3  1  0
  5  6  1  6
  7  8  2  0
  7  5  1  0
 10  9  1  0
 11 10  1  0
 12 11  1  0
 13 12  1  1
 13 14  1  0
 14  7  1  0
 15 13  1  0
 15 16  2  0
 18 17  1  0
 18 19  1  0
 19 20  1  6
 21 19  1  0
 21 22  1  1
 22 15  1  0
 23 21  1  0
 24 23  1  0
 25 23  2  0
M  END
$$$$
