IMI.pdb
     RDKit          3D

 25 24  0  0  1  0  0  0  0  0999 V2000
   12.3257  -20.1630   19.5489 C   0  0  0  0  0  0  0  0  0  0  0  0
   11.3852  -18.9712   19.4823 C   0  0  0  0  0  0  0  0  0  0  0  0
   11.2813  -18.2555   20.8114 C   0  0  2  0  0  0  0  0  0  0  0  0
   11.1393  -19.1403   21.9911 C   0  0  0  0  0  0  0  0  0  0  0  0
   10.2103  -17.1864   20.6698 C   0  0  2  0  0  0  0  0  0  0  0  0
   10.7004  -16.3433   19.5590 N   0  0  0  0  0  0  0  0  0  0  0  0
   10.1956  -16.3299   21.9086 C   0  0  0  0  0  0  0  0  0  0  0  0
   11.2646  -15.8125   22.2635 O   0  0  0  0  0  0  0  0  0  0  0  0
    5.7041  -11.9790   26.7281 C   0  0  0  0  0  0  0  0  0  0  0  0
    5.7337  -13.2064   25.4056 S   0  0  0  0  0  0  0  0  0  0  0  0
    7.3944  -13.8870   25.1333 C   0  0  0  0  0  0  0  0  0  0  0  0
    7.4824  -14.7651   23.9501 C   0  0  0  0  0  0  0  0  0  0  0  0
    8.9428  -15.2562   23.8078 C   0  0  2  0  0  0  0  0  0  0  0  0
    8.9955  -16.1252   22.6414 N   0  0  0  0  0  0  0  0  0  0  0  0
    9.4333  -15.9512   24.9814 C   0  0  0  0  0  0  0  0  0  0  0  0
    9.4328  -17.2328   24.9471 O   0  0  0  0  0  0  0  0  0  0  0  0
   10.9943  -13.1484   29.3905 C   0  0  0  0  0  0  0  0  0  0  0  0
   11.0805  -14.0698   28.2164 C   0  0  0  0  0  0  0  0  0  0  0  0
   10.5711  -15.4573   28.5122 C   0  0  2  0  0  0  0  0  0  0  0  0
   11.4567  -16.1511   29.5397 C   0  0  0  0  0  0  0  0  0  0  0  0
   10.4508  -16.2747   27.2709 C   0  0  2  0  0  0  0  0  0  0  0  0
    9.9227  -15.4149   26.1872 N   0  0  0  0  0  0  0  0  0  0  0  0
    9.5975  -17.4835   27.3887 C   0  0  0  0  0  0  0  0  0  0  0  0
   10.1632  -18.7061   27.6350 O   0  0  0  0  0  0  0  0  0  0  0  0
    8.3275  -17.4098   27.2624 O   0  0  0  0  0  0  0  0  0  0  0  0
  1  2  1  0
  3  2  1  0
  3  4  1  1
  5  3  1  0
  5  6  1  6
  7  8  2  0
  7  5  1  0
 10  9  1  0
 11 10  1  0
 12 11  1  0
 13 12  1  1
 13 14  1  0
 14  7  1  0
 15 13  1  0
 15 16  2  0
 18 17  1  0
 18 19  1  0
 19 20  1  1
 21 19  1  0
 21 22  1  6
 22 15  1  0
 23 21  1  0
 24 23  1  0
 25 23  2  0
M  END
$$$$
