IMI.pdb
     RDKit          3D

 25 24  0  0  1  0  0  0  0  0999 V2000
    6.6184  -22.6987   23.5048 C   0  0  0  0  0  0  0  0  0  0  0  0
    6.2637  -21.3436   22.9158 C   0  0  0  0  0  0  0  0  0  0  0  0
    6.9595  -20.2110   23.6386 C   0  0  2  0  0  0  0  0  0  0  0  0
    6.9265  -20.2961   25.1173 C   0  0  0  0  0  0  0  0  0  0  0  0
    6.4389  -18.9091   23.0521 C   0  0  2  0  0  0  0  0  0  0  0  0
    6.7413  -19.0278   21.6101 N   0  0  0  0  0  0  0  0  0  0  0  0
    7.2543  -17.7613   23.5871 C   0  0  0  0  0  0  0  0  0  0  0  0
    8.4410  -17.6857   23.2370 O   0  0  0  0  0  0  0  0  0  0  0  0
    7.0732  -10.6546   27.0665 C   0  0  0  0  0  0  0  0  0  0  0  0
    6.1226  -12.0936   26.5357 S   0  0  0  0  0  0  0  0  0  0  0  0
    7.1864  -13.4754   26.0316 C   0  0  0  0  0  0  0  0  0  0  0  0
    6.4357  -14.6351   25.5116 C   0  0  0  0  0  0  0  0  0  0  0  0
    7.4473  -15.6875   24.9983 C   0  0  2  0  0  0  0  0  0  0  0  0
    6.6786  -16.8011   24.4621 N   0  0  0  0  0  0  0  0  0  0  0  0
    8.3655  -16.1497   26.0202 C   0  0  0  0  0  0  0  0  0  0  0  0
    7.9271  -17.0212   26.8520 O   0  0  0  0  0  0  0  0  0  0  0  0
   13.0803  -18.7311   27.0238 C   0  0  0  0  0  0  0  0  0  0  0  0
   12.9700  -17.2809   27.3693 C   0  0  0  0  0  0  0  0  0  0  0  0
   11.9769  -16.5401   26.5106 C   0  0  2  0  0  0  0  0  0  0  0  0
   12.4361  -15.1082   26.2653 C   0  0  0  0  0  0  0  0  0  0  0  0
   10.6089  -16.5690   27.1032 C   0  0  2  0  0  0  0  0  0  0  0  0
    9.7034  -15.7736   26.2430 N   0  0  0  0  0  0  0  0  0  0  0  0
   10.5123  -16.0710   28.4981 C   0  0  0  0  0  0  0  0  0  0  0  0
   10.0746  -14.7975   28.7474 O   0  0  0  0  0  0  0  0  0  0  0  0
   10.8343  -16.8133   29.4878 O   0  0  0  0  0  0  0  0  0  0  0  0
  1  2  1  0
  3  2  1  0
  3  4  1  1
  5  3  1  0
  5  6  1  6
  7  8  2  0
  7  5  1  0
 10  9  1  0
 11 10  1  0
 12 11  1  0
 13 12  1  1
 13 14  1  0
 14  7  1  0
 15 13  1  0
 15 16  2  0
 18 17  1  0
 18 19  1  0
 19 20  1  1
 21 19  1  0
 21 22  1  6
 22 15  1  0
 23 21  1  0
 24 23  1  0
 25 23  2  0
M  END
$$$$
