IMI.pdb
     RDKit          3D

 25 24  0  0  1  0  0  0  0  0999 V2000
    7.9853  -12.6907   18.9241 C   0  0  0  0  0  0  0  0  0  0  0  0
    7.7752  -14.1775   19.1573 C   0  0  0  0  0  0  0  0  0  0  0  0
    7.4155  -14.4811   20.5953 C   0  0  2  0  0  0  0  0  0  0  0  0
    8.3024  -13.8624   21.6080 C   0  0  0  0  0  0  0  0  0  0  0  0
    7.2471  -15.9869   20.7139 C   0  0  2  0  0  0  0  0  0  0  0  0
    6.0980  -16.2823   19.8323 N   0  0  0  0  0  0  0  0  0  0  0  0
    6.8324  -16.3318   22.1202 C   0  0  0  0  0  0  0  0  0  0  0  0
    5.7116  -15.9600   22.4974 O   0  0  0  0  0  0  0  0  0  0  0  0
    5.9031  -21.6477   25.8582 C   0  0  0  0  0  0  0  0  0  0  0  0
    7.2846  -20.7464   26.5897 S   0  0  0  0  0  0  0  0  0  0  0  0
    7.2896  -18.9927   26.1212 C   0  0  0  0  0  0  0  0  0  0  0  0
    7.4937  -18.7715   24.6761 C   0  0  0  0  0  0  0  0  0  0  0  0
    7.3995  -17.2535   24.3914 C   0  0  2  0  0  0  0  0  0  0  0  0
    7.6990  -17.0584   22.9804 N   0  0  0  0  0  0  0  0  0  0  0  0
    8.2885  -16.4573   25.2139 C   0  0  0  0  0  0  0  0  0  0  0  0
    9.5322  -16.4567   24.9028 O   0  0  0  0  0  0  0  0  0  0  0  0
    6.7848  -11.8167   27.3808 C   0  0  0  0  0  0  0  0  0  0  0  0
    7.5596  -12.9204   26.7358 C   0  0  0  0  0  0  0  0  0  0  0  0
    8.3775  -13.7226   27.7155 C   0  0  2  0  0  0  0  0  0  0  0  0
    9.4150  -12.8430   28.4020 C   0  0  0  0  0  0  0  0  0  0  0  0
    9.0213  -14.8978   27.0613 C   0  0  2  0  0  0  0  0  0  0  0  0
    7.9825  -15.6634   26.3351 N   0  0  0  0  0  0  0  0  0  0  0  0
    9.7462  -15.8140   27.9768 C   0  0  0  0  0  0  0  0  0  0  0  0
   11.1079  -15.7332   28.0982 O   0  0  0  0  0  0  0  0  0  0  0  0
    9.1204  -16.6914   28.6644 O   0  0  0  0  0  0  0  0  0  0  0  0
  1  2  1  0
  3  2  1  0
  3  4  1  1
  5  3  1  0
  5  6  1  6
  7  8  2  0
  7  5  1  0
 10  9  1  0
 11 10  1  0
 12 11  1  0
 13 12  1  1
 13 14  1  0
 14  7  1  0
 15 13  1  0
 15 16  2  0
 18 17  1  0
 18 19  1  0
 19 20  1  6
 21 19  1  0
 21 22  1  1
 22 15  1  0
 23 21  1  0
 24 23  1  0
 25 23  2  0
M  END
$$$$
