IMI.pdb
     RDKit          3D

 25 24  0  0  1  0  0  0  0  0999 V2000
   11.4992  -19.9700   19.6967 C   0  0  0  0  0  0  0  0  0  0  0  0
   10.7114  -18.6724   19.6265 C   0  0  0  0  0  0  0  0  0  0  0  0
   10.6759  -17.9573   20.9595 C   0  0  2  0  0  0  0  0  0  0  0  0
   10.4092  -18.8251   22.1302 C   0  0  0  0  0  0  0  0  0  0  0  0
    9.7458  -16.7645   20.8111 C   0  0  2  0  0  0  0  0  0  0  0  0
   10.3776  -15.9568   19.7465 N   0  0  0  0  0  0  0  0  0  0  0  0
    9.7817  -15.9456   22.0747 C   0  0  0  0  0  0  0  0  0  0  0  0
   10.8599  -15.4221   22.3911 O   0  0  0  0  0  0  0  0  0  0  0  0
    5.5530  -11.3892   25.3166 C   0  0  0  0  0  0  0  0  0  0  0  0
    5.5980  -13.0360   26.0530 S   0  0  0  0  0  0  0  0  0  0  0  0
    7.1600  -13.8985   25.7191 C   0  0  0  0  0  0  0  0  0  0  0  0
    7.1901  -14.5718   24.4059 C   0  0  0  0  0  0  0  0  0  0  0  0
    8.6383  -15.0378   24.1236 C   0  0  2  0  0  0  0  0  0  0  0  0
    8.6174  -15.7816   22.8726 N   0  0  0  0  0  0  0  0  0  0  0  0
    9.2000  -15.8475   25.1865 C   0  0  0  0  0  0  0  0  0  0  0  0
    9.2302  -17.1161   25.0041 O   0  0  0  0  0  0  0  0  0  0  0  0
   11.3891  -13.3120   29.3134 C   0  0  0  0  0  0  0  0  0  0  0  0
   11.4910  -14.3127   28.2076 C   0  0  0  0  0  0  0  0  0  0  0  0
   10.8613  -15.6393   28.5477 C   0  0  2  0  0  0  0  0  0  0  0  0
   11.8033  -16.4832   29.3974 C   0  0  0  0  0  0  0  0  0  0  0  0
   10.4398  -16.3777   27.3227 C   0  0  2  0  0  0  0  0  0  0  0  0
    9.7311  -15.4382   26.4240 N   0  0  0  0  0  0  0  0  0  0  0  0
    9.5773  -17.5617   27.5622 C   0  0  0  0  0  0  0  0  0  0  0  0
   10.1367  -18.8006   27.7279 O   0  0  0  0  0  0  0  0  0  0  0  0
    8.3049  -17.4513   27.6169 O   0  0  0  0  0  0  0  0  0  0  0  0
  1  2  1  0
  3  2  1  0
  3  4  1  1
  5  3  1  0
  5  6  1  6
  7  8  2  0
  7  5  1  0
 10  9  1  0
 11 10  1  0
 12 11  1  0
 13 12  1  1
 13 14  1  0
 14  7  1  0
 15 13  1  0
 15 16  2  0
 18 17  1  0
 18 19  1  0
 19 20  1  6
 21 19  1  0
 21 22  1  6
 22 15  1  0
 23 21  1  0
 24 23  1  0
 25 23  2  0
M  END
$$$$
