IMI.pdb
     RDKit          3D

 25 24  0  0  1  0  0  0  0  0999 V2000
    9.6166  -21.6272   18.8927 C   0  0  0  0  0  0  0  0  0  0  0  0
    9.2831  -21.0084   20.2400 C   0  0  0  0  0  0  0  0  0  0  0  0
    9.8332  -19.6050   20.3715 C   0  0  2  0  0  0  0  0  0  0  0  0
   11.2506  -19.4465   19.9707 C   0  0  0  0  0  0  0  0  0  0  0  0
    9.4957  -19.1133   21.7695 C   0  0  2  0  0  0  0  0  0  0  0  0
    8.0181  -19.1394   21.8038 N   0  0  0  0  0  0  0  0  0  0  0  0
    9.9210  -17.6750   21.9072 C   0  0  0  0  0  0  0  0  0  0  0  0
   11.1365  -17.4321   21.9125 O   0  0  0  0  0  0  0  0  0  0  0  0
    6.9656  -12.0524   19.6031 C   0  0  0  0  0  0  0  0  0  0  0  0
    6.7544  -13.8297   19.3734 S   0  0  0  0  0  0  0  0  0  0  0  0
    8.0270  -14.7931   20.2381 C   0  0  0  0  0  0  0  0  0  0  0  0
    8.2469  -14.3584   21.6315 C   0  0  0  0  0  0  0  0  0  0  0  0
    9.3426  -15.2521   22.2599 C   0  0  2  0  0  0  0  0  0  0  0  0
    8.9585  -16.6365   22.0262 N   0  0  0  0  0  0  0  0  0  0  0  0
    9.5396  -15.0119   23.6756 C   0  0  0  0  0  0  0  0  0  0  0  0
   10.7188  -14.6831   24.0564 O   0  0  0  0  0  0  0  0  0  0  0  0
    6.1625  -12.1059   26.1787 C   0  0  0  0  0  0  0  0  0  0  0  0
    7.4456  -12.7635   25.7840 C   0  0  0  0  0  0  0  0  0  0  0  0
    7.8250  -13.9122   26.6834 C   0  0  2  0  0  0  0  0  0  0  0  0
    8.1625  -13.4146   28.0833 C   0  0  0  0  0  0  0  0  0  0  0  0
    8.9496  -14.7082   26.1132 C   0  0  2  0  0  0  0  0  0  0  0  0
    8.6041  -15.0887   24.7245 N   0  0  0  0  0  0  0  0  0  0  0  0
    9.3101  -15.9306   26.8742 C   0  0  0  0  0  0  0  0  0  0  0  0
    8.7452  -17.1357   26.5519 O   0  0  0  0  0  0  0  0  0  0  0  0
   10.1473  -15.8844   27.8392 O   0  0  0  0  0  0  0  0  0  0  0  0
  1  2  1  0
  3  2  1  0
  3  4  1  1
  5  3  1  0
  5  6  1  6
  7  8  2  0
  7  5  1  0
 10  9  1  0
 11 10  1  0
 12 11  1  0
 13 12  1  1
 13 14  1  0
 14  7  1  0
 15 13  1  0
 15 16  2  0
 18 17  1  0
 18 19  1  0
 19 20  1  1
 21 19  1  0
 21 22  1  6
 22 15  1  0
 23 21  1  0
 24 23  1  0
 25 23  2  0
M  END
$$$$
