IMI.pdb
     RDKit          3D

 25 24  0  0  1  0  0  0  0  0999 V2000
    7.2838  -19.1436   18.8260 C   0  0  0  0  0  0  0  0  0  0  0  0
    7.3198  -17.6377   19.0264 C   0  0  0  0  0  0  0  0  0  0  0  0
    7.8880  -17.2585   20.3766 C   0  0  2  0  0  0  0  0  0  0  0  0
    7.3918  -18.0657   21.5154 C   0  0  0  0  0  0  0  0  0  0  0  0
    7.7305  -15.7546   20.5302 C   0  0  2  0  0  0  0  0  0  0  0  0
    8.5294  -15.2022   19.4159 N   0  0  0  0  0  0  0  0  0  0  0  0
    8.3866  -15.3141   21.8124 C   0  0  0  0  0  0  0  0  0  0  0  0
    9.6201  -15.4095   21.8902 O   0  0  0  0  0  0  0  0  0  0  0  0
    6.4749  -10.7186   26.5891 C   0  0  0  0  0  0  0  0  0  0  0  0
    6.6564  -12.3471   27.3450 S   0  0  0  0  0  0  0  0  0  0  0  0
    7.6884  -13.4591   26.3481 C   0  0  0  0  0  0  0  0  0  0  0  0
    7.1682  -13.6777   24.9841 C   0  0  0  0  0  0  0  0  0  0  0  0
    8.2046  -14.5061   24.1879 C   0  0  2  0  0  0  0  0  0  0  0  0
    7.6142  -14.8075   22.8921 N   0  0  0  0  0  0  0  0  0  0  0  0
    8.6048  -15.7264   24.8598 C   0  0  0  0  0  0  0  0  0  0  0  0
    7.7224  -16.6493   24.9746 O   0  0  0  0  0  0  0  0  0  0  0  0
   12.5113  -18.5761   23.3266 C   0  0  0  0  0  0  0  0  0  0  0  0
   11.2467  -18.0940   23.9614 C   0  0  0  0  0  0  0  0  0  0  0  0
   11.3513  -17.9504   25.4584 C   0  0  2  0  0  0  0  0  0  0  0  0
   11.6974  -19.2850   26.1069 C   0  0  0  0  0  0  0  0  0  0  0  0
   10.1049  -17.3785   26.0439 C   0  0  2  0  0  0  0  0  0  0  0  0
    9.8517  -16.0589   25.4217 N   0  0  0  0  0  0  0  0  0  0  0  0
   10.1115  -17.2241   27.5201 C   0  0  0  0  0  0  0  0  0  0  0  0
    9.9109  -18.3112   28.3284 O   0  0  0  0  0  0  0  0  0  0  0  0
   10.3015  -16.0828   28.0636 O   0  0  0  0  0  0  0  0  0  0  0  0
  1  2  1  0
  3  2  1  0
  3  4  1  1
  5  3  1  0
  5  6  1  6
  7  8  2  0
  7  5  1  0
 10  9  1  0
 11 10  1  0
 12 11  1  0
 13 12  1  1
 13 14  1  0
 14  7  1  0
 15 13  1  0
 15 16  2  0
 18 17  1  0
 18 19  1  0
 19 20  1  1
 21 19  1  0
 21 22  1  6
 22 15  1  0
 23 21  1  0
 24 23  1  0
 25 23  2  0
M  END
$$$$
