IMI.pdb
     RDKit          3D

 25 24  0  0  1  0  0  0  0  0999 V2000
    7.3315  -13.3964   17.3214 C   0  0  0  0  0  0  0  0  0  0  0  0
    8.1619  -14.3433   18.1716 C   0  0  0  0  0  0  0  0  0  0  0  0
    8.1182  -13.9750   19.6386 C   0  0  2  0  0  0  0  0  0  0  0  0
    8.5531  -12.5939   19.9521 C   0  0  0  0  0  0  0  0  0  0  0  0
    8.8394  -15.0718   20.4047 C   0  0  2  0  0  0  0  0  0  0  0  0
    7.9978  -16.2666   20.1832 N   0  0  0  0  0  0  0  0  0  0  0  0
    8.7960  -14.7608   21.8777 C   0  0  0  0  0  0  0  0  0  0  0  0
    9.5600  -13.8823   22.3034 O   0  0  0  0  0  0  0  0  0  0  0  0
    6.6232  -12.2413   27.1109 C   0  0  0  0  0  0  0  0  0  0  0  0
    5.7064  -13.1693   25.8641 S   0  0  0  0  0  0  0  0  0  0  0  0
    6.0718  -14.9465   25.9199 C   0  0  0  0  0  0  0  0  0  0  0  0
    6.3493  -15.5309   24.5931 C   0  0  0  0  0  0  0  0  0  0  0  0
    7.7658  -15.0946   24.1485 C   0  0  2  0  0  0  0  0  0  0  0  0
    7.9084  -15.4528   22.7450 N   0  0  0  0  0  0  0  0  0  0  0  0
    8.8258  -15.6929   24.9355 C   0  0  0  0  0  0  0  0  0  0  0  0
    9.4501  -16.6868   24.4195 O   0  0  0  0  0  0  0  0  0  0  0  0
   10.3182  -13.4141   29.5913 C   0  0  0  0  0  0  0  0  0  0  0  0
   10.6672  -14.0327   28.2759 C   0  0  0  0  0  0  0  0  0  0  0  0
   10.5358  -15.5344   28.2727 C   0  0  2  0  0  0  0  0  0  0  0  0
   11.7190  -16.1823   28.9810 C   0  0  0  0  0  0  0  0  0  0  0  0
   10.3820  -16.0696   26.8895 C   0  0  2  0  0  0  0  0  0  0  0  0
    9.2847  -15.3368   26.2176 N   0  0  0  0  0  0  0  0  0  0  0  0
   10.1163  -17.5272   26.8002 C   0  0  0  0  0  0  0  0  0  0  0  0
    8.8535  -18.0125   27.0127 O   0  0  0  0  0  0  0  0  0  0  0  0
   11.0527  -18.3533   26.5270 O   0  0  0  0  0  0  0  0  0  0  0  0
  1  2  1  0
  3  2  1  0
  3  4  1  6
  5  3  1  0
  5  6  1  1
  7  8  2  0
  7  5  1  0
 10  9  1  0
 11 10  1  0
 12 11  1  0
 13 12  1  1
 13 14  1  0
 14  7  1  0
 15 13  1  0
 15 16  2  0
 18 17  1  0
 18 19  1  0
 19 20  1  6
 21 19  1  0
 21 22  1  1
 22 15  1  0
 23 21  1  0
 24 23  1  0
 25 23  2  0
M  END
$$$$
