IMI.pdb
     RDKit          3D

 25 24  0  0  1  0  0  0  0  0999 V2000
    8.0294  -13.1569   18.3046 C   0  0  0  0  0  0  0  0  0  0  0  0
    7.7171  -14.5873   18.7116 C   0  0  0  0  0  0  0  0  0  0  0  0
    7.4486  -14.7091   20.1957 C   0  0  2  0  0  0  0  0  0  0  0  0
    8.4336  -14.0302   21.0694 C   0  0  0  0  0  0  0  0  0  0  0  0
    7.2202  -16.1812   20.4973 C   0  0  2  0  0  0  0  0  0  0  0  0
    6.0678  -16.5398   19.6440 N   0  0  0  0  0  0  0  0  0  0  0  0
    6.7806  -16.3330   21.9299 C   0  0  0  0  0  0  0  0  0  0  0  0
    5.8069  -15.6651   22.3071 O   0  0  0  0  0  0  0  0  0  0  0  0
    9.3002  -20.7634   26.9156 C   0  0  0  0  0  0  0  0  0  0  0  0
    7.5403  -20.3648   26.9198 S   0  0  0  0  0  0  0  0  0  0  0  0
    7.1995  -18.7388   26.1881 C   0  0  0  0  0  0  0  0  0  0  0  0
    7.4897  -18.6731   24.7423 C   0  0  0  0  0  0  0  0  0  0  0  0
    7.1788  -17.2424   24.2415 C   0  0  2  0  0  0  0  0  0  0  0  0
    7.4614  -17.2127   22.8140 N   0  0  0  0  0  0  0  0  0  0  0  0
    7.9341  -16.2147   24.9301 C   0  0  0  0  0  0  0  0  0  0  0  0
    9.1549  -16.0475   24.5763 O   0  0  0  0  0  0  0  0  0  0  0  0
    5.8604  -11.5628   26.6570 C   0  0  0  0  0  0  0  0  0  0  0  0
    6.7822  -12.6012   26.1034 C   0  0  0  0  0  0  0  0  0  0  0  0
    7.6387  -13.2568   27.1565 C   0  0  2  0  0  0  0  0  0  0  0  0
    8.5379  -12.2323   27.8372 C   0  0  0  0  0  0  0  0  0  0  0  0
    8.4401  -14.3803   26.5918 C   0  0  2  0  0  0  0  0  0  0  0  0
    7.5165  -15.3492   25.9586 N   0  0  0  0  0  0  0  0  0  0  0  0
    9.3000  -15.0974   27.5662 C   0  0  0  0  0  0  0  0  0  0  0  0
   10.5993  -14.7089   27.7565 O   0  0  0  0  0  0  0  0  0  0  0  0
    8.8502  -16.0852   28.2416 O   0  0  0  0  0  0  0  0  0  0  0  0
  1  2  1  0
  3  2  1  0
  3  4  1  1
  5  3  1  0
  5  6  1  6
  7  8  2  0
  7  5  1  0
 10  9  1  0
 11 10  1  0
 12 11  1  0
 13 12  1  1
 13 14  1  0
 14  7  1  0
 15 13  1  0
 15 16  2  0
 18 17  1  0
 18 19  1  0
 19 20  1  6
 21 19  1  0
 21 22  1  1
 22 15  1  0
 23 21  1  0
 24 23  1  0
 25 23  2  0
M  END
$$$$
