IMI.pdb
     RDKit          3D

 25 24  0  0  1  0  0  0  0  0999 V2000
    7.8766  -11.9583   19.1515 C   0  0  0  0  0  0  0  0  0  0  0  0
    7.6025  -13.3249   19.7570 C   0  0  0  0  0  0  0  0  0  0  0  0
    8.8025  -14.2411   19.6563 C   0  0  2  0  0  0  0  0  0  0  0  0
    9.3316  -14.4337   18.2860 C   0  0  0  0  0  0  0  0  0  0  0  0
    8.4634  -15.5188   20.4062 C   0  0  2  0  0  0  0  0  0  0  0  0
    7.3022  -16.0609   19.6693 N   0  0  0  0  0  0  0  0  0  0  0  0
    7.9903  -15.1710   21.7931 C   0  0  0  0  0  0  0  0  0  0  0  0
    7.0000  -14.4324   21.8952 O   0  0  0  0  0  0  0  0  0  0  0  0
    5.8627  -12.6530   25.0127 C   0  0  0  0  0  0  0  0  0  0  0  0
    6.4794  -13.8281   26.2354 S   0  0  0  0  0  0  0  0  0  0  0  0
    6.2131  -15.5516   25.7313 C   0  0  0  0  0  0  0  0  0  0  0  0
    6.7216  -15.8531   24.3787 C   0  0  0  0  0  0  0  0  0  0  0  0
    8.1952  -15.3892   24.2911 C   0  0  2  0  0  0  0  0  0  0  0  0
    8.6590  -15.6746   22.9413 N   0  0  0  0  0  0  0  0  0  0  0  0
    9.0572  -16.0230   25.2688 C   0  0  0  0  0  0  0  0  0  0  0  0
    9.4572  -17.2141   25.0137 O   0  0  0  0  0  0  0  0  0  0  0  0
   10.4570  -13.9566   30.3634 C   0  0  0  0  0  0  0  0  0  0  0  0
   10.0060  -14.9245   29.3172 C   0  0  0  0  0  0  0  0  0  0  0  0
   11.0858  -15.2709   28.3241 C   0  0  2  0  0  0  0  0  0  0  0  0
   11.6748  -14.0100   27.7037 C   0  0  0  0  0  0  0  0  0  0  0  0
   10.5864  -16.2018   27.2717 C   0  0  2  0  0  0  0  0  0  0  0  0
    9.5335  -15.5129   26.4911 N   0  0  0  0  0  0  0  0  0  0  0  0
   10.0518  -17.4935   27.7706 C   0  0  0  0  0  0  0  0  0  0  0  0
   10.9033  -18.4559   28.2439 O   0  0  0  0  0  0  0  0  0  0  0  0
    8.7962  -17.7335   27.7675 O   0  0  0  0  0  0  0  0  0  0  0  0
  1  2  1  0
  3  2  1  0
  3  4  1  6
  5  3  1  0
  5  6  1  6
  7  8  2  0
  7  5  1  0
 10  9  1  0
 11 10  1  0
 12 11  1  0
 13 12  1  6
 13 14  1  0
 14  7  1  0
 15 13  1  0
 15 16  2  0
 18 17  1  0
 18 19  1  0
 19 20  1  6
 21 19  1  0
 21 22  1  1
 22 15  1  0
 23 21  1  0
 24 23  1  0
 25 23  2  0
M  END
$$$$
