IMI.pdb
     RDKit          3D

 25 24  0  0  1  0  0  0  0  0999 V2000
   10.7735  -20.0981   19.5145 C   0  0  0  0  0  0  0  0  0  0  0  0
   10.2036  -18.6925   19.4209 C   0  0  0  0  0  0  0  0  0  0  0  0
   10.1914  -17.9946   20.7634 C   0  0  2  0  0  0  0  0  0  0  0  0
    9.7643  -18.8370   21.9047 C   0  0  0  0  0  0  0  0  0  0  0  0
    9.4226  -16.6946   20.5933 C   0  0  2  0  0  0  0  0  0  0  0  0
   10.1738  -15.9774   19.5415 N   0  0  0  0  0  0  0  0  0  0  0  0
    9.5345  -15.8817   21.8563 C   0  0  0  0  0  0  0  0  0  0  0  0
   10.6442  -15.4071   22.1390 O   0  0  0  0  0  0  0  0  0  0  0  0
    5.6615  -11.2054   26.1376 C   0  0  0  0  0  0  0  0  0  0  0  0
    5.5335  -13.0043   26.0758 S   0  0  0  0  0  0  0  0  0  0  0  0
    7.1024  -13.7921   25.6143 C   0  0  0  0  0  0  0  0  0  0  0  0
    7.0676  -14.4369   24.2869 C   0  0  0  0  0  0  0  0  0  0  0  0
    8.4951  -14.9196   23.9356 C   0  0  2  0  0  0  0  0  0  0  0  0
    8.4045  -15.6689   22.6910 N   0  0  0  0  0  0  0  0  0  0  0  0
    9.1003  -15.7304   24.9734 C   0  0  0  0  0  0  0  0  0  0  0  0
    8.9529  -17.0009   24.8862 O   0  0  0  0  0  0  0  0  0  0  0  0
   11.1993  -13.2960   29.2360 C   0  0  0  0  0  0  0  0  0  0  0  0
   11.3222  -14.2115   28.0607 C   0  0  0  0  0  0  0  0  0  0  0  0
   10.7543  -15.5843   28.3157 C   0  0  2  0  0  0  0  0  0  0  0  0
   11.7010  -16.4096   29.1783 C   0  0  0  0  0  0  0  0  0  0  0  0
   10.4361  -16.2925   27.0427 C   0  0  2  0  0  0  0  0  0  0  0  0
    9.8457  -15.3202   26.0948 N   0  0  0  0  0  0  0  0  0  0  0  0
    9.5222  -17.4545   27.1757 C   0  0  0  0  0  0  0  0  0  0  0  0
   10.0061  -18.7301   27.0566 O   0  0  0  0  0  0  0  0  0  0  0  0
    8.2745  -17.2907   27.4008 O   0  0  0  0  0  0  0  0  0  0  0  0
  1  2  1  0
  3  2  1  0
  3  4  1  1
  5  3  1  0
  5  6  1  6
  7  8  2  0
  7  5  1  0
 10  9  1  0
 11 10  1  0
 12 11  1  0
 13 12  1  1
 13 14  1  0
 14  7  1  0
 15 13  1  0
 15 16  2  0
 18 17  1  0
 18 19  1  0
 19 20  1  6
 21 19  1  0
 21 22  1  6
 22 15  1  0
 23 21  1  0
 24 23  1  0
 25 23  2  0
M  END
$$$$
