IMI.pdb
     RDKit          3D

 25 24  0  0  1  0  0  0  0  0999 V2000
    5.5481  -11.8003   27.6990 C   0  0  0  0  0  0  0  0  0  0  0  0
    5.1495  -13.1312   27.0833 C   0  0  0  0  0  0  0  0  0  0  0  0
    6.2827  -13.7554   26.2986 C   0  0  2  0  0  0  0  0  0  0  0  0
    7.0215  -12.8240   25.4147 C   0  0  0  0  0  0  0  0  0  0  0  0
    5.7337  -14.9981   25.6173 C   0  0  2  0  0  0  0  0  0  0  0  0
    5.5153  -15.9429   26.7329 N   0  0  0  0  0  0  0  0  0  0  0  0
    6.7977  -15.5907   24.7310 C   0  0  0  0  0  0  0  0  0  0  0  0
    7.2005  -16.7318   24.9993 O   0  0  0  0  0  0  0  0  0  0  0  0
    9.7287  -12.1879   19.6177 C   0  0  0  0  0  0  0  0  0  0  0  0
    9.8071  -13.9382   19.1857 S   0  0  0  0  0  0  0  0  0  0  0  0
    9.4650  -15.0153   20.6062 C   0  0  0  0  0  0  0  0  0  0  0  0
    8.5460  -14.4131   21.5920 C   0  0  0  0  0  0  0  0  0  0  0  0
    8.3424  -15.4155   22.7531 C   0  0  2  0  0  0  0  0  0  0  0  0
    7.3181  -14.8629   23.6271 N   0  0  0  0  0  0  0  0  0  0  0  0
    9.5551  -15.6857   23.4995 C   0  0  0  0  0  0  0  0  0  0  0  0
   10.5616  -16.1314   22.8422 O   0  0  0  0  0  0  0  0  0  0  0  0
   10.3713  -14.5646   29.0201 C   0  0  0  0  0  0  0  0  0  0  0  0
   10.3574  -15.4188   27.7934 C   0  0  0  0  0  0  0  0  0  0  0  0
   11.2537  -14.8996   26.6983 C   0  0  2  0  0  0  0  0  0  0  0  0
   10.9558  -13.4346   26.4045 C   0  0  0  0  0  0  0  0  0  0  0  0
   11.1456  -15.7259   25.4618 C   0  0  2  0  0  0  0  0  0  0  0  0
    9.7998  -15.5287   24.8767 N   0  0  0  0  0  0  0  0  0  0  0  0
   11.3840  -17.1790   25.6482 C   0  0  0  0  0  0  0  0  0  0  0  0
   12.6149  -17.6313   26.0428 O   0  0  0  0  0  0  0  0  0  0  0  0
   10.4538  -18.0319   25.4445 O   0  0  0  0  0  0  0  0  0  0  0  0
  1  2  1  0
  3  2  1  0
  3  4  1  6
  5  3  1  0
  5  6  1  1
  7  8  2  0
  7  5  1  0
 10  9  1  0
 11 10  1  0
 12 11  1  0
 13 12  1  6
 13 14  1  0
 14  7  1  0
 15 13  1  0
 15 16  2  0
 18 17  1  0
 18 19  1  0
 19 20  1  6
 21 19  1  0
 21 22  1  1
 22 15  1  0
 23 21  1  0
 24 23  1  0
 25 23  2  0
M  END
$$$$
