VLP.pdb
     RDKit          3D

 23 23  0  0  1  0  0  0  0  0999 V2000
   24.8454  -16.9388  -16.5559 C   0  0  0  0  0  0  0  0  0  0  0  0
   25.6804  -16.3771  -15.4609 C   0  0  2  0  0  0  0  0  0  0  0  0
   26.1561  -14.9973  -15.9015 C   0  0  0  0  0  0  0  0  0  0  0  0
   26.8868  -17.1936  -15.1179 C   0  0  2  0  0  0  0  0  0  0  0  0
   27.8271  -17.3014  -16.2000 N   0  0  0  0  0  0  0  0  0  0  0  0
   26.5894  -18.5267  -14.5950 C   0  0  0  0  0  0  0  0  0  0  0  0
   26.5306  -19.5858  -15.2697 O   0  0  0  0  0  0  0  0  0  0  0  0
   25.4574  -20.5080   -8.7993 C   0  0  0  0  0  0  0  0  0  0  0  0
   25.5930  -20.8101  -10.2681 C   0  0  2  0  0  0  0  0  0  0  0  0
   26.7003  -21.8343  -10.4119 C   0  0  0  0  0  0  0  0  0  0  0  0
   25.9633  -19.6286  -11.0978 C   0  0  0  0  0  0  0  0  0  0  0  0
   25.8910  -19.9211  -12.6002 C   0  0  2  0  0  0  0  0  0  0  0  0
   26.3404  -18.6654  -13.2016 N   0  0  0  0  0  0  0  0  0  0  0  0
   24.4859  -20.2047  -12.9257 C   0  0  0  0  0  0  0  0  0  0  0  0
   23.6346  -19.3549  -12.5714 O   0  0  0  0  0  0  0  0  0  0  0  0
   24.0587  -21.3662  -13.6068 N   0  0  0  0  0  0  0  0  0  0  0  0
   24.8023  -22.5025  -14.1053 C   0  0  0  0  0  0  0  0  0  0  0  0
   23.8141  -23.6276  -13.8611 C   0  0  0  0  0  0  0  0  0  0  0  0
   22.5580  -22.9963  -14.4686 C   0  0  0  0  0  0  0  0  0  0  0  0
   22.6408  -21.6065  -13.9333 C   0  0  1  0  0  0  0  0  0  0  0  0
   21.9006  -21.5837  -12.6479 C   0  0  0  0  0  0  0  0  0  0  0  0
   20.5266  -21.5098  -12.5920 O   0  0  0  0  0  0  0  0  0  0  0  0
   22.5519  -21.6333  -11.5777 O   0  0  0  0  0  0  0  0  0  0  0  0
  2  1  1  6
  2  3  1  0
  4  2  1  0
  4  6  1  0
  4  5  1  6
  6  7  2  0
  9 11  1  0
  9  8  1  1
 10  9  1  0
 12 11  1  1
 12 14  1  0
 13  6  1  0
 13 12  1  0
 14 15  2  0
 16 17  1  0
 16 14  1  0
 18 17  1  0
 19 20  1  0
 19 18  1  0
 20 16  1  0
 21 22  1  0
 20 21  1  1
 23 21  2  0
M  END
$$$$
