VLP.pdb
     RDKit          3D

 23 23  0  0  1  0  0  0  0  0999 V2000
   17.5377   -9.6752  -14.7002 C   0  0  0  0  0  0  0  0  0  0  0  0
   16.5736  -10.7688  -14.4068 C   0  0  2  0  0  0  0  0  0  0  0  0
   15.3685  -10.5827  -15.3219 C   0  0  0  0  0  0  0  0  0  0  0  0
   16.0802  -10.8001  -12.9942 C   0  0  2  0  0  0  0  0  0  0  0  0
   15.2995  -11.9684  -12.6902 N   0  0  0  0  0  0  0  0  0  0  0  0
   15.3493   -9.6031  -12.5795 C   0  0  0  0  0  0  0  0  0  0  0  0
   14.1493   -9.3430  -12.8492 O   0  0  0  0  0  0  0  0  0  0  0  0
   13.4426   -6.9580   -9.3580 C   0  0  0  0  0  0  0  0  0  0  0  0
   14.7909   -7.5276   -9.0048 C   0  0  2  0  0  0  0  0  0  0  0  0
   15.1778   -6.9534   -7.6571 C   0  0  0  0  0  0  0  0  0  0  0  0
   15.8696   -7.1737   -9.9704 C   0  0  0  0  0  0  0  0  0  0  0  0
   15.4324   -7.3493  -11.4285 C   0  0  2  0  0  0  0  0  0  0  0  0
   16.0340   -8.6301  -11.8003 N   0  0  0  0  0  0  0  0  0  0  0  0
   16.0091   -6.2370  -12.1973 C   0  0  0  0  0  0  0  0  0  0  0  0
   17.2458   -6.0547  -12.0983 O   0  0  0  0  0  0  0  0  0  0  0  0
   15.2503   -5.3819  -13.0271 N   0  0  0  0  0  0  0  0  0  0  0  0
   13.8367   -5.3652  -13.3341 C   0  0  0  0  0  0  0  0  0  0  0  0
   13.5802   -3.8740  -13.4461 C   0  0  0  0  0  0  0  0  0  0  0  0
   14.7394   -3.4873  -14.3693 C   0  0  0  0  0  0  0  0  0  0  0  0
   15.8625   -4.2650  -13.7703 C   0  0  1  0  0  0  0  0  0  0  0  0
   16.5150   -3.3933  -12.7628 C   0  0  0  0  0  0  0  0  0  0  0  0
   17.3422   -2.3510  -13.1178 O   0  0  0  0  0  0  0  0  0  0  0  0
   16.3040   -3.6165  -11.5472 O   0  0  0  0  0  0  0  0  0  0  0  0
  2  1  1  1
  2  3  1  0
  4  2  1  0
  4  6  1  0
  4  5  1  6
  6  7  2  0
  9 11  1  0
  9  8  1  6
 10  9  1  0
 12 11  1  1
 12 14  1  0
 13  6  1  0
 13 12  1  0
 14 15  2  0
 16 17  1  0
 16 14  1  0
 18 17  1  0
 19 20  1  0
 19 18  1  0
 20 16  1  0
 21 22  1  0
 20 21  1  1
 23 21  2  0
M  END
$$$$
