VLP.pdb
     RDKit          3D

 23 23  0  0  1  0  0  0  0  0999 V2000
   27.8542  -20.6773  -13.1536 C   0  0  0  0  0  0  0  0  0  0  0  0
   26.4471  -21.1315  -13.3136 C   0  0  2  0  0  0  0  0  0  0  0  0
   25.8858  -20.4699  -14.5672 C   0  0  0  0  0  0  0  0  0  0  0  0
   25.5485  -20.7864  -12.1676 C   0  0  2  0  0  0  0  0  0  0  0  0
   25.1361  -19.4092  -12.1630 N   0  0  0  0  0  0  0  0  0  0  0  0
   26.0788  -21.1415  -10.8517 C   0  0  0  0  0  0  0  0  0  0  0  0
   26.5918  -22.2456  -10.5382 O   0  0  0  0  0  0  0  0  0  0  0  0
   27.3038  -20.4239   -5.6477 C   0  0  0  0  0  0  0  0  0  0  0  0
   27.8232  -19.5509   -6.7591 C   0  0  2  0  0  0  0  0  0  0  0  0
   28.2432  -18.2364   -6.1336 C   0  0  0  0  0  0  0  0  0  0  0  0
   26.8132  -19.2453   -7.8116 C   0  0  0  0  0  0  0  0  0  0  0  0
   26.1801  -20.5098   -8.4018 C   0  0  2  0  0  0  0  0  0  0  0  0
   26.0212  -20.1689   -9.8156 N   0  0  0  0  0  0  0  0  0  0  0  0
   24.8807  -20.7000   -7.7415 C   0  0  0  0  0  0  0  0  0  0  0  0
   24.0824  -19.7332   -7.7622 O   0  0  0  0  0  0  0  0  0  0  0  0
   24.4964  -21.8979   -7.0989 N   0  0  0  0  0  0  0  0  0  0  0  0
   25.1995  -23.1502   -6.9251 C   0  0  0  0  0  0  0  0  0  0  0  0
   24.7250  -23.5616   -5.5438 C   0  0  0  0  0  0  0  0  0  0  0  0
   23.2181  -23.3556   -5.7231 C   0  0  0  0  0  0  0  0  0  0  0  0
   23.1847  -22.0492   -6.4421 C   0  0  1  0  0  0  0  0  0  0  0  0
   23.1002  -20.9821   -5.4150 C   0  0  0  0  0  0  0  0  0  0  0  0
   24.2120  -20.3059   -4.9643 O   0  0  0  0  0  0  0  0  0  0  0  0
   21.9762  -20.6888   -4.9433 O   0  0  0  0  0  0  0  0  0  0  0  0
  2  1  1  1
  2  3  1  0
  4  2  1  0
  4  6  1  0
  4  5  1  1
  6  7  2  0
  9 11  1  0
  9  8  1  1
 10  9  1  0
 12 11  1  1
 12 14  1  0
 13  6  1  0
 13 12  1  0
 14 15  2  0
 16 17  1  0
 16 14  1  0
 18 17  1  0
 19 20  1  0
 19 18  1  0
 20 16  1  0
 21 22  1  0
 20 21  1  1
 23 21  2  0
M  END
$$$$
