VLP.pdb
     RDKit          3D

 23 23  0  0  1  0  0  0  0  0999 V2000
   14.1003   -4.9977   -8.2608 C   0  0  0  0  0  0  0  0  0  0  0  0
   15.3689   -5.4793   -8.8693 C   0  0  2  0  0  0  0  0  0  0  0  0
   15.6334   -4.6411  -10.1150 C   0  0  0  0  0  0  0  0  0  0  0  0
   15.3556   -6.9195   -9.2762 C   0  0  2  0  0  0  0  0  0  0  0  0
   15.1221   -7.8184   -8.1788 N   0  0  0  0  0  0  0  0  0  0  0  0
   16.5395   -7.3520  -10.0180 C   0  0  0  0  0  0  0  0  0  0  0  0
   17.6579   -7.6358   -9.5191 O   0  0  0  0  0  0  0  0  0  0  0  0
   17.3037  -10.0721  -15.4354 C   0  0  0  0  0  0  0  0  0  0  0  0
   17.9143   -9.3309  -14.2756 C   0  0  2  0  0  0  0  0  0  0  0  0
   18.6279  -10.3561  -13.4179 C   0  0  0  0  0  0  0  0  0  0  0  0
   16.9199   -8.6351  -13.4105 C   0  0  0  0  0  0  0  0  0  0  0  0
   17.5803   -7.8508  -12.2717 C   0  0  2  0  0  0  0  0  0  0  0  0
   16.4441   -7.4706  -11.4321 N   0  0  0  0  0  0  0  0  0  0  0  0
   18.2305   -6.6747  -12.8675 C   0  0  0  0  0  0  0  0  0  0  0  0
   17.4948   -5.8625  -13.4769 O   0  0  0  0  0  0  0  0  0  0  0  0
   19.6178   -6.4212  -12.7856 N   0  0  0  0  0  0  0  0  0  0  0  0
   20.6730   -7.1269  -12.0919 C   0  0  0  0  0  0  0  0  0  0  0  0
   21.8256   -6.9565  -13.0637 C   0  0  0  0  0  0  0  0  0  0  0  0
   21.7217   -5.4496  -13.3166 C   0  0  0  0  0  0  0  0  0  0  0  0
   20.2482   -5.2806  -13.4758 C   0  0  1  0  0  0  0  0  0  0  0  0
   19.9394   -5.4357  -14.9185 C   0  0  0  0  0  0  0  0  0  0  0  0
   20.1346   -4.4180  -15.8256 O   0  0  0  0  0  0  0  0  0  0  0  0
   19.4851   -6.5323  -15.3220 O   0  0  0  0  0  0  0  0  0  0  0  0
  2  1  1  6
  2  3  1  0
  4  2  1  0
  4  6  1  0
  4  5  1  1
  6  7  2  0
  9 11  1  0
  9  8  1  6
 10  9  1  0
 12 11  1  6
 12 14  1  0
 13  6  1  0
 13 12  1  0
 14 15  2  0
 16 17  1  0
 16 14  1  0
 18 17  1  0
 19 20  1  0
 19 18  1  0
 20 16  1  0
 21 22  1  0
 20 21  1  6
 23 21  2  0
M  END
$$$$
