VLP.pdb
     RDKit          3D

 23 23  0  0  1  0  0  0  0  0999 V2000
   23.3677  -21.1105  -10.4243 C   0  0  0  0  0  0  0  0  0  0  0  0
   24.1803  -19.9461  -10.8666 C   0  0  2  0  0  0  0  0  0  0  0  0
   23.7054  -19.5517  -12.2605 C   0  0  0  0  0  0  0  0  0  0  0  0
   25.6525  -20.2064  -10.9368 C   0  0  2  0  0  0  0  0  0  0  0  0
   26.0352  -21.0067  -12.0681 N   0  0  0  0  0  0  0  0  0  0  0  0
   26.2273  -20.7764   -9.7188 C   0  0  0  0  0  0  0  0  0  0  0  0
   26.4740  -21.9931   -9.5207 O   0  0  0  0  0  0  0  0  0  0  0  0
   28.3621  -20.6231   -4.8288 C   0  0  0  0  0  0  0  0  0  0  0  0
   28.9018  -19.6502   -5.8433 C   0  0  2  0  0  0  0  0  0  0  0  0
   29.3459  -18.4161   -5.0847 C   0  0  0  0  0  0  0  0  0  0  0  0
   27.9010  -19.2171   -6.8593 C   0  0  0  0  0  0  0  0  0  0  0  0
   27.0242  -20.3744   -7.3493 C   0  0  2  0  0  0  0  0  0  0  0  0
   26.5452  -19.8975   -8.6468 N   0  0  0  0  0  0  0  0  0  0  0  0
   25.9223  -20.5282   -6.3886 C   0  0  0  0  0  0  0  0  0  0  0  0
   25.3630  -19.4798   -5.9881 O   0  0  0  0  0  0  0  0  0  0  0  0
   25.4720  -21.7773   -5.9065 N   0  0  0  0  0  0  0  0  0  0  0  0
   25.9644  -23.1179   -6.1371 C   0  0  0  0  0  0  0  0  0  0  0  0
   25.7155  -23.7568   -4.7836 C   0  0  0  0  0  0  0  0  0  0  0  0
   24.2638  -23.3220   -4.5626 C   0  0  0  0  0  0  0  0  0  0  0  0
   24.3153  -21.8967   -4.9995 C   0  0  1  0  0  0  0  0  0  0  0  0
   24.6301  -21.0791   -3.8024 C   0  0  0  0  0  0  0  0  0  0  0  0
   23.6788  -20.7610   -2.8587 O   0  0  0  0  0  0  0  0  0  0  0  0
   25.8034  -20.6651   -3.6480 O   0  0  0  0  0  0  0  0  0  0  0  0
  2  1  1  6
  2  3  1  0
  4  2  1  0
  4  6  1  0
  4  5  1  6
  6  7  2  0
  9 11  1  0
  9  8  1  1
 10  9  1  0
 12 11  1  1
 12 14  1  0
 13  6  1  0
 13 12  1  0
 14 15  2  0
 16 17  1  0
 16 14  1  0
 18 17  1  0
 19 20  1  0
 19 18  1  0
 20 16  1  0
 21 22  1  0
 20 21  1  1
 23 21  2  0
M  END
$$$$
