VLP.pdb
     RDKit          3D

 23 23  0  0  1  0  0  0  0  0999 V2000
   26.4384  -15.3376  -17.0967 C   0  0  0  0  0  0  0  0  0  0  0  0
   26.0004  -16.6873  -16.6515 C   0  0  2  0  0  0  0  0  0  0  0  0
   24.7490  -16.5110  -15.7988 C   0  0  0  0  0  0  0  0  0  0  0  0
   27.0121  -17.4323  -15.8383 C   0  0  2  0  0  0  0  0  0  0  0  0
   28.2521  -17.6489  -16.5327 N   0  0  0  0  0  0  0  0  0  0  0  0
   26.5339  -18.6995  -15.2864 C   0  0  0  0  0  0  0  0  0  0  0  0
   26.3718  -19.7678  -15.9289 O   0  0  0  0  0  0  0  0  0  0  0  0
   25.4037  -20.4879   -9.4405 C   0  0  0  0  0  0  0  0  0  0  0  0
   25.4422  -20.8095  -10.9109 C   0  0  2  0  0  0  0  0  0  0  0  0
   26.4579  -21.9182  -11.0979 C   0  0  0  0  0  0  0  0  0  0  0  0
   25.8616  -19.6663  -11.7702 C   0  0  0  0  0  0  0  0  0  0  0  0
   25.6715  -19.9541  -13.2632 C   0  0  2  0  0  0  0  0  0  0  0  0
   26.2166  -18.7557  -13.9012 N   0  0  0  0  0  0  0  0  0  0  0  0
   24.2276  -20.0868  -13.5049 C   0  0  0  0  0  0  0  0  0  0  0  0
   23.4854  -19.1907  -13.0374 O   0  0  0  0  0  0  0  0  0  0  0  0
   23.6490  -21.1546  -14.2262 N   0  0  0  0  0  0  0  0  0  0  0  0
   24.2470  -22.3187  -14.8426 C   0  0  0  0  0  0  0  0  0  0  0  0
   23.1708  -23.3610  -14.6027 C   0  0  0  0  0  0  0  0  0  0  0  0
   21.9475  -22.5758  -15.0847 C   0  0  0  0  0  0  0  0  0  0  0  0
   22.1973  -21.2393  -14.4715 C   0  0  1  0  0  0  0  0  0  0  0  0
   21.5423  -21.2349  -13.1404 C   0  0  0  0  0  0  0  0  0  0  0  0
   22.2218  -21.5534  -11.9857 O   0  0  0  0  0  0  0  0  0  0  0  0
   20.3282  -20.9306  -13.0683 O   0  0  0  0  0  0  0  0  0  0  0  0
  2  1  1  1
  2  3  1  0
  4  2  1  0
  4  6  1  0
  4  5  1  6
  6  7  2  0
  9 11  1  0
  9  8  1  1
 10  9  1  0
 12 11  1  1
 12 14  1  0
 13  6  1  0
 13 12  1  0
 14 15  2  0
 16 17  1  0
 16 14  1  0
 18 17  1  0
 19 20  1  0
 19 18  1  0
 20 16  1  0
 21 22  1  0
 20 21  1  1
 23 21  2  0
M  END
$$$$
