VLP.pdb
     RDKit          3D

 23 23  0  0  1  0  0  0  0  0999 V2000
   26.1963  -22.7249  -10.8071 C   0  0  0  0  0  0  0  0  0  0  0  0
   25.5702  -21.4716  -11.3060 C   0  0  2  0  0  0  0  0  0  0  0  0
   26.5770  -20.7819  -12.2197 C   0  0  0  0  0  0  0  0  0  0  0  0
   25.1798  -20.5026  -10.2344 C   0  0  2  0  0  0  0  0  0  0  0  0
   24.3660  -19.4196  -10.7158 N   0  0  0  0  0  0  0  0  0  0  0  0
   26.3005  -19.9656   -9.4633 C   0  0  0  0  0  0  0  0  0  0  0  0
   27.1948  -19.1982   -9.9013 O   0  0  0  0  0  0  0  0  0  0  0  0
   29.0147  -18.1792   -5.7118 C   0  0  0  0  0  0  0  0  0  0  0  0
   27.5519  -18.2321   -5.3587 C   0  0  2  0  0  0  0  0  0  0  0  0
   27.4625  -18.4179   -3.8576 C   0  0  0  0  0  0  0  0  0  0  0  0
   26.8155  -19.3604   -5.9958 C   0  0  0  0  0  0  0  0  0  0  0  0
   27.5232  -19.8903   -7.2474 C   0  0  2  0  0  0  0  0  0  0  0  0
   26.4124  -20.3283   -8.0927 N   0  0  0  0  0  0  0  0  0  0  0  0
   28.3649  -21.0211   -6.8307 C   0  0  0  0  0  0  0  0  0  0  0  0
   27.8012  -21.9561   -6.2139 O   0  0  0  0  0  0  0  0  0  0  0  0
   29.7513  -21.1027   -7.0892 N   0  0  0  0  0  0  0  0  0  0  0  0
   30.6238  -20.2518   -7.8685 C   0  0  0  0  0  0  0  0  0  0  0  0
   31.8999  -20.3150   -7.0501 C   0  0  0  0  0  0  0  0  0  0  0  0
   32.0027  -21.8311   -6.8600 C   0  0  0  0  0  0  0  0  0  0  0  0
   30.5898  -22.1819   -6.5350 C   0  0  1  0  0  0  0  0  0  0  0  0
   30.4462  -22.1143   -5.0601 C   0  0  0  0  0  0  0  0  0  0  0  0
   30.9449  -23.0914   -4.2275 O   0  0  0  0  0  0  0  0  0  0  0  0
   29.8495  -21.1326   -4.5580 O   0  0  0  0  0  0  0  0  0  0  0  0
  2  1  1  1
  2  3  1  0
  4  2  1  0
  4  6  1  0
  4  5  1  6
  6  7  2  0
  9 11  1  0
  9  8  1  6
 10  9  1  0
 12 11  1  1
 12 14  1  0
 13  6  1  0
 13 12  1  0
 14 15  2  0
 16 17  1  0
 16 14  1  0
 18 17  1  0
 19 20  1  0
 19 18  1  0
 20 16  1  0
 21 22  1  0
 20 21  1  1
 23 21  2  0
M  END
$$$$
