VLP.pdb
     RDKit          3D

 23 23  0  0  1  0  0  0  0  0999 V2000
   22.9784  -18.8279  -17.3722 C   0  0  0  0  0  0  0  0  0  0  0  0
   22.6672  -17.6069  -16.5823 C   0  0  2  0  0  0  0  0  0  0  0  0
   22.1395  -16.5517  -17.5479 C   0  0  0  0  0  0  0  0  0  0  0  0
   23.8371  -17.0228  -15.8543 C   0  0  2  0  0  0  0  0  0  0  0  0
   24.4739  -15.9503  -16.5691 N   0  0  0  0  0  0  0  0  0  0  0  0
   24.8442  -17.9993  -15.4405 C   0  0  0  0  0  0  0  0  0  0  0  0
   25.8273  -18.3784  -16.1261 O   0  0  0  0  0  0  0  0  0  0  0  0
   26.0721  -20.7187  -10.0118 C   0  0  0  0  0  0  0  0  0  0  0  0
   26.2658  -20.6806  -11.5045 C   0  0  2  0  0  0  0  0  0  0  0  0
   27.7429  -20.4566  -11.7565 C   0  0  0  0  0  0  0  0  0  0  0  0
   25.5223  -19.5819  -12.1838 C   0  0  0  0  0  0  0  0  0  0  0  0
   25.5622  -19.7034  -13.7108 C   0  0  2  0  0  0  0  0  0  0  0  0
   24.7241  -18.5881  -14.1515 N   0  0  0  0  0  0  0  0  0  0  0  0
   24.9672  -21.0002  -14.0642 C   0  0  0  0  0  0  0  0  0  0  0  0
   23.8481  -21.2699  -13.5669 O   0  0  0  0  0  0  0  0  0  0  0  0
   25.5844  -21.9375  -14.9222 N   0  0  0  0  0  0  0  0  0  0  0  0
   26.8471  -21.8926  -15.6266 C   0  0  0  0  0  0  0  0  0  0  0  0
   27.2743  -23.3466  -15.5523 C   0  0  0  0  0  0  0  0  0  0  0  0
   25.9747  -24.0150  -16.0102 C   0  0  0  0  0  0  0  0  0  0  0  0
   24.9589  -23.2327  -15.2479 C   0  0  1  0  0  0  0  0  0  0  0  0
   24.7391  -23.9326  -13.9586 C   0  0  0  0  0  0  0  0  0  0  0  0
   23.9506  -25.0572  -13.8578 O   0  0  0  0  0  0  0  0  0  0  0  0
   25.2916  -23.4818  -12.9274 O   0  0  0  0  0  0  0  0  0  0  0  0
  2  1  1  6
  2  3  1  0
  4  2  1  0
  4  6  1  0
  4  5  1  6
  6  7  2  0
  9 11  1  0
  9  8  1  1
 10  9  1  0
 12 11  1  1
 12 14  1  0
 13  6  1  0
 13 12  1  0
 14 15  2  0
 16 17  1  0
 16 14  1  0
 18 17  1  0
 19 20  1  0
 19 18  1  0
 20 16  1  0
 21 22  1  0
 20 21  1  1
 23 21  2  0
M  END
$$$$
