VLP.pdb
     RDKit          3D

 23 23  0  0  1  0  0  0  0  0999 V2000
   14.9834  -10.4096  -16.9646 C   0  0  0  0  0  0  0  0  0  0  0  0
   16.1313   -9.9433  -16.1420 C   0  0  2  0  0  0  0  0  0  0  0  0
   16.8192   -8.8153  -16.9027 C   0  0  0  0  0  0  0  0  0  0  0  0
   17.1551  -10.9953  -15.8507 C   0  0  2  0  0  0  0  0  0  0  0  0
   16.6202  -12.1309  -15.1499 N   0  0  0  0  0  0  0  0  0  0  0  0
   18.3453  -10.5083  -15.1543 C   0  0  0  0  0  0  0  0  0  0  0  0
   18.4033  -10.1682  -13.9454 O   0  0  0  0  0  0  0  0  0  0  0  0
   24.3684  -10.8533  -16.3811 C   0  0  0  0  0  0  0  0  0  0  0  0
   23.2481  -10.3128  -15.5325 C   0  0  2  0  0  0  0  0  0  0  0  0
   23.3501  -10.9859  -14.1789 C   0  0  0  0  0  0  0  0  0  0  0  0
   21.8883  -10.5950  -16.0733 C   0  0  0  0  0  0  0  0  0  0  0  0
   20.7869   -9.8552  -15.3066 C   0  0  2  0  0  0  0  0  0  0  0  0
   19.5594  -10.3999  -15.8870 N   0  0  0  0  0  0  0  0  0  0  0  0
   20.9345   -8.4222  -15.5992 C   0  0  0  0  0  0  0  0  0  0  0  0
   20.9227   -8.0813  -16.8059 O   0  0  0  0  0  0  0  0  0  0  0  0
   21.0843   -7.4309  -14.6040 N   0  0  0  0  0  0  0  0  0  0  0  0
   21.1669   -7.5361  -13.1636 C   0  0  0  0  0  0  0  0  0  0  0  0
   22.1526   -6.4271  -12.8463 C   0  0  0  0  0  0  0  0  0  0  0  0
   21.5279   -5.2928  -13.6639 C   0  0  0  0  0  0  0  0  0  0  0  0
   21.1936   -5.9980  -14.9351 C   0  0  1  0  0  0  0  0  0  0  0  0
   22.3633   -5.8601  -15.8371 C   0  0  0  0  0  0  0  0  0  0  0  0
   22.6418   -4.6889  -16.5058 O   0  0  0  0  0  0  0  0  0  0  0  0
   23.1218   -6.8460  -15.9938 O   0  0  0  0  0  0  0  0  0  0  0  0
  2  1  1  6
  2  3  1  0
  4  2  1  0
  4  6  1  0
  4  5  1  1
  6  7  2  0
  9 11  1  0
  9  8  1  6
 10  9  1  0
 12 11  1  6
 12 14  1  0
 13  6  1  0
 13 12  1  0
 14 15  2  0
 16 17  1  0
 16 14  1  0
 18 17  1  0
 19 20  1  0
 19 18  1  0
 20 16  1  0
 21 22  1  0
 20 21  1  6
 23 21  2  0
M  END
$$$$
