VLP.pdb
     RDKit          3D

 23 23  0  0  1  0  0  0  0  0999 V2000
   19.1190  -31.8769  -10.4526 C   0  0  0  0  0  0  0  0  0  0  0  0
   20.0647  -32.9101   -9.9527 C   0  0  2  0  0  0  0  0  0  0  0  0
   20.0630  -32.8425   -8.4297 C   0  0  0  0  0  0  0  0  0  0  0  0
   21.4759  -32.7395  -10.4209 C   0  0  2  0  0  0  0  0  0  0  0  0
   21.6164  -32.8303  -11.8487 N   0  0  0  0  0  0  0  0  0  0  0  0
   22.4411  -33.6304   -9.7778 C   0  0  0  0  0  0  0  0  0  0  0  0
   22.6435  -34.8348  -10.0760 O   0  0  0  0  0  0  0  0  0  0  0  0
   26.8476  -34.4906   -9.5216 C   0  0  0  0  0  0  0  0  0  0  0  0
   26.2366  -33.1349   -9.2857 C   0  0  2  0  0  0  0  0  0  0  0  0
   27.3762  -32.1388   -9.2159 C   0  0  0  0  0  0  0  0  0  0  0  0
   25.4693  -33.0297   -8.0123 C   0  0  0  0  0  0  0  0  0  0  0  0
   24.2233  -33.9216   -8.0029 C   0  0  2  0  0  0  0  0  0  0  0  0
   23.2349  -33.1132   -8.7171 N   0  0  0  0  0  0  0  0  0  0  0  0
   23.8410  -34.1279   -6.5986 C   0  0  0  0  0  0  0  0  0  0  0  0
   23.7503  -33.1075   -5.8754 O   0  0  0  0  0  0  0  0  0  0  0  0
   23.5749  -35.3967   -6.0375 N   0  0  0  0  0  0  0  0  0  0  0  0
   23.6400  -36.7223   -6.6130 C   0  0  0  0  0  0  0  0  0  0  0  0
   24.1287  -37.5317   -5.4264 C   0  0  0  0  0  0  0  0  0  0  0  0
   23.1550  -37.0260   -4.3580 C   0  0  0  0  0  0  0  0  0  0  0  0
   23.1531  -35.5602   -4.6339 C   0  0  1  0  0  0  0  0  0  0  0  0
   24.2177  -34.9524   -3.7985 C   0  0  0  0  0  0  0  0  0  0  0  0
   24.0464  -34.7055   -2.4545 O   0  0  0  0  0  0  0  0  0  0  0  0
   25.3093  -34.6543   -4.3381 O   0  0  0  0  0  0  0  0  0  0  0  0
  2  1  1  6
  2  3  1  0
  4  2  1  0
  4  6  1  0
  4  5  1  6
  6  7  2  0
  9 11  1  0
  9  8  1  1
 10  9  1  0
 12 11  1  1
 12 14  1  0
 13  6  1  0
 13 12  1  0
 14 15  2  0
 16 17  1  0
 16 14  1  0
 18 17  1  0
 19 20  1  0
 19 18  1  0
 20 16  1  0
 21 22  1  0
 20 21  1  1
 23 21  2  0
M  END
$$$$
