VLP.pdb
     RDKit          3D

 23 23  0  0  1  0  0  0  0  0999 V2000
   24.9754  -22.3054   -9.3717 C   0  0  0  0  0  0  0  0  0  0  0  0
   24.9324  -21.2968  -10.4638 C   0  0  2  0  0  0  0  0  0  0  0  0
   25.9536  -21.7103  -11.5176 C   0  0  0  0  0  0  0  0  0  0  0  0
   25.2533  -19.9000  -10.0328 C   0  0  2  0  0  0  0  0  0  0  0  0
   25.0261  -18.9212  -11.0610 N   0  0  0  0  0  0  0  0  0  0  0  0
   26.5977  -19.7277   -9.4835 C   0  0  0  0  0  0  0  0  0  0  0  0
   27.6413  -19.5038  -10.1477 O   0  0  0  0  0  0  0  0  0  0  0  0
   28.7490  -19.8802   -3.7215 C   0  0  0  0  0  0  0  0  0  0  0  0
   28.9343  -19.3141   -5.1044 C   0  0  2  0  0  0  0  0  0  0  0  0
   29.2474  -17.8403   -4.9440 C   0  0  0  0  0  0  0  0  0  0  0  0
   27.7270  -19.4253   -5.9711 C   0  0  0  0  0  0  0  0  0  0  0  0
   28.0787  -19.7365   -7.4297 C   0  0  2  0  0  0  0  0  0  0  0  0
   26.7677  -19.8165   -8.0742 N   0  0  0  0  0  0  0  0  0  0  0  0
   28.7708  -21.0332   -7.4478 C   0  0  0  0  0  0  0  0  0  0  0  0
   28.1741  -22.0066   -6.9291 O   0  0  0  0  0  0  0  0  0  0  0  0
   30.0505  -21.2303   -8.0126 N   0  0  0  0  0  0  0  0  0  0  0  0
   30.9426  -20.3126   -8.6868 C   0  0  0  0  0  0  0  0  0  0  0  0
   32.2930  -20.8204   -8.2169 C   0  0  0  0  0  0  0  0  0  0  0  0
   32.1103  -22.3156   -8.4935 C   0  0  0  0  0  0  0  0  0  0  0  0
   30.7266  -22.5406   -7.9841 C   0  0  1  0  0  0  0  0  0  0  0  0
   30.8393  -22.9277   -6.5564 C   0  0  0  0  0  0  0  0  0  0  0  0
   31.3112  -24.1605   -6.1641 O   0  0  0  0  0  0  0  0  0  0  0  0
   30.4917  -22.1015   -5.6798 O   0  0  0  0  0  0  0  0  0  0  0  0
  2  1  1  1
  2  3  1  0
  4  2  1  0
  4  6  1  0
  4  5  1  6
  6  7  2  0
  9 11  1  0
  9  8  1  1
 10  9  1  0
 12 11  1  1
 12 14  1  0
 13  6  1  0
 13 12  1  0
 14 15  2  0
 16 17  1  0
 16 14  1  0
 18 17  1  0
 19 20  1  0
 19 18  1  0
 20 16  1  0
 21 22  1  0
 20 21  1  1
 23 21  2  0
M  END
$$$$
