VLP.pdb
     RDKit          3D

 23 23  0  0  1  0  0  0  0  0999 V2000
   25.5089  -16.9194  -16.6441 C   0  0  0  0  0  0  0  0  0  0  0  0
   26.3667  -16.7489  -15.4413 C   0  0  2  0  0  0  0  0  0  0  0  0
   27.2434  -15.5222  -15.6669 C   0  0  0  0  0  0  0  0  0  0  0  0
   27.2641  -17.9102  -15.1483 C   0  0  2  0  0  0  0  0  0  0  0  0
   28.1705  -18.2137  -16.2222 N   0  0  0  0  0  0  0  0  0  0  0  0
   26.5666  -19.1288  -14.7392 C   0  0  0  0  0  0  0  0  0  0  0  0
   26.4322  -20.1684  -15.4332 O   0  0  0  0  0  0  0  0  0  0  0  0
   26.7411  -21.9261  -10.9513 C   0  0  0  0  0  0  0  0  0  0  0  0
   26.3614  -20.4884  -10.7149 C   0  0  2  0  0  0  0  0  0  0  0  0
   26.0852  -20.3387   -9.2326 C   0  0  0  0  0  0  0  0  0  0  0  0
   25.1362  -20.0576  -11.4460 C   0  0  0  0  0  0  0  0  0  0  0  0
   25.2281  -20.3233  -12.9523 C   0  0  2  0  0  0  0  0  0  0  0  0
   25.9783  -19.1679  -13.4449 N   0  0  0  0  0  0  0  0  0  0  0  0
   23.8561  -20.3428  -13.4797 C   0  0  0  0  0  0  0  0  0  0  0  0
   23.1373  -19.3439  -13.2389 O   0  0  0  0  0  0  0  0  0  0  0  0
   23.3211  -21.4123  -14.2316 N   0  0  0  0  0  0  0  0  0  0  0  0
   23.9137  -22.6588  -14.6646 C   0  0  0  0  0  0  0  0  0  0  0  0
   22.7259  -23.5974  -14.5626 C   0  0  0  0  0  0  0  0  0  0  0  0
   21.6775  -22.7583  -15.2989 C   0  0  0  0  0  0  0  0  0  0  0  0
   21.9321  -21.4043  -14.7272 C   0  0  1  0  0  0  0  0  0  0  0  0
   21.0590  -21.2564  -13.5370 C   0  0  0  0  0  0  0  0  0  0  0  0
   19.7257  -20.9271  -13.6398 O   0  0  0  0  0  0  0  0  0  0  0  0
   21.5556  -21.4378  -12.4002 O   0  0  0  0  0  0  0  0  0  0  0  0
  2  1  1  6
  2  3  1  0
  4  2  1  0
  4  6  1  0
  4  5  1  6
  6  7  2  0
  9 11  1  0
  9  8  1  1
 10  9  1  0
 12 11  1  1
 12 14  1  0
 13  6  1  0
 13 12  1  0
 14 15  2  0
 16 17  1  0
 16 14  1  0
 18 17  1  0
 19 20  1  0
 19 18  1  0
 20 16  1  0
 21 22  1  0
 20 21  1  1
 23 21  2  0
M  END
$$$$
