WWV.pdb
     RDKit          3D

 36 39  0  0  1  0  0  0  0  0999 V2000
   24.5901  -18.8651  -15.7270 N   0  0  0  0  0  0  0  0  0  0  0  0
   25.5200  -19.3538  -14.7084 C   0  0  1  0  0  0  0  0  0  0  0  0
   26.5106  -18.2076  -14.5005 C   0  0  0  0  0  0  0  0  0  0  0  0
   27.5309  -18.2002  -15.5858 C   0  0  0  0  0  0  0  0  0  0  0  0
   27.8859  -17.0980  -16.3720 C   0  0  0  0  0  0  0  0  0  0  0  0
   28.8374  -17.4823  -17.2408 N   0  0  0  0  0  0  0  0  0  0  0  0
   29.1225  -18.7957  -17.0546 C   0  0  0  0  0  0  0  0  0  0  0  0
   30.0210  -19.6572  -17.6855 C   0  0  0  0  0  0  0  0  0  0  0  0
   30.1280  -20.9824  -17.3032 C   0  0  0  0  0  0  0  0  0  0  0  0
   29.3125  -21.4133  -16.2779 C   0  0  0  0  0  0  0  0  0  0  0  0
   28.4291  -20.5658  -15.6570 C   0  0  0  0  0  0  0  0  0  0  0  0
   28.3164  -19.2324  -16.0365 C   0  0  0  0  0  0  0  0  0  0  0  0
   24.7746  -19.5210  -13.4288 C   0  0  0  0  0  0  0  0  0  0  0  0
   23.8465  -18.7416  -13.0712 O   0  0  0  0  0  0  0  0  0  0  0  0
   25.1074  -20.5942  -12.5769 N   0  0  0  0  0  0  0  0  0  0  0  0
   24.6466  -20.6743  -11.1909 C   0  0  1  0  0  0  0  0  0  0  0  0
   23.3391  -21.3940  -11.2347 C   0  0  0  0  0  0  0  0  0  0  0  0
   23.1589  -22.3098  -12.3701 C   0  0  0  0  0  0  0  0  0  0  0  0
   24.0193  -23.1972  -12.9850 C   0  0  0  0  0  0  0  0  0  0  0  0
   23.3779  -23.8164  -13.9911 N   0  0  0  0  0  0  0  0  0  0  0  0
   22.1029  -23.3808  -14.0843 C   0  0  0  0  0  0  0  0  0  0  0  0
   21.0626  -23.7014  -14.9278 C   0  0  0  0  0  0  0  0  0  0  0  0
   19.8438  -23.0932  -14.7914 C   0  0  0  0  0  0  0  0  0  0  0  0
   19.6638  -22.1494  -13.7960 C   0  0  0  0  0  0  0  0  0  0  0  0
   20.7122  -21.8400  -12.9626 C   0  0  0  0  0  0  0  0  0  0  0  0
   21.9550  -22.4341  -13.0715 C   0  0  0  0  0  0  0  0  0  0  0  0
   25.6710  -21.2824  -10.3201 C   0  0  0  0  0  0  0  0  0  0  0  0
   26.6692  -21.9027  -10.7321 O   0  0  0  0  0  0  0  0  0  0  0  0
   28.7358  -19.8929   -7.4021 C   0  0  0  0  0  0  0  0  0  0  0  0
   27.5729  -20.0430   -8.3590 C   0  0  1  0  0  0  0  0  0  0  0  0
   28.2321  -20.4094   -9.7053 C   0  0  0  0  0  0  0  0  0  0  0  0
   26.5922  -21.0665   -7.9622 C   0  0  2  0  0  0  0  0  0  0  0  0
   25.5235  -21.1652   -8.9129 N   0  0  0  0  0  0  0  0  0  0  0  0
   26.0689  -20.9060   -6.5681 C   0  0  0  0  0  0  0  0  0  0  0  0
   26.8336  -20.8828   -5.5829 O   0  0  0  0  0  0  0  0  0  0  0  0
   24.7067  -20.7790   -6.3242 O   0  0  0  0  0  0  0  0  0  0  0  0
  2  1  1  6
  2  3  1  0
  3  4  1  0
  4  5  2  0
  5  6  1  0
  7  8  2  0
  7  6  1  0
  9  8  1  0
 10  9  2  0
 11 10  1  0
 11 12  2  0
 12  4  1  0
 12  7  1  0
 13  2  1  0
 14 13  2  0
 15 13  1  0
 16 17  1  6
 16 15  1  0
 18 17  1  0
 19 18  2  0
 20 21  1  0
 20 19  1  0
 21 26  2  0
 22 21  1  0
 22 23  2  0
 23 24  1  0
 24 25  2  0
 26 18  1  0
 26 25  1  0
 27 16  1  0
 28 27  2  0
 30 29  1  1
 31 30  1  0
 32 30  1  0
 32 33  1  6
 33 27  1  0
 34 32  1  0
 34 36  1  0
 35 34  2  0
M  END
$$$$
