WWV.pdb
     RDKit          3D

 36 39  0  0  1  0  0  0  0  0999 V2000
   28.8620  -21.3006  -16.1228 N   0  0  0  0  0  0  0  0  0  0  0  0
   28.0812  -20.4929  -15.1850 C   0  0  1  0  0  0  0  0  0  0  0  0
   27.0964  -19.7183  -16.0615 C   0  0  0  0  0  0  0  0  0  0  0  0
   27.7696  -18.5460  -16.6872 C   0  0  0  0  0  0  0  0  0  0  0  0
   28.4581  -18.5480  -17.9058 C   0  0  0  0  0  0  0  0  0  0  0  0
   28.9263  -17.3084  -18.1335 N   0  0  0  0  0  0  0  0  0  0  0  0
   28.5703  -16.4907  -17.1108 C   0  0  0  0  0  0  0  0  0  0  0  0
   28.8024  -15.1355  -16.8715 C   0  0  0  0  0  0  0  0  0  0  0  0
   28.3221  -14.5195  -15.7299 C   0  0  0  0  0  0  0  0  0  0  0  0
   27.6085  -15.2979  -14.8430 C   0  0  0  0  0  0  0  0  0  0  0  0
   27.3797  -16.6308  -15.0786 C   0  0  0  0  0  0  0  0  0  0  0  0
   27.8599  -17.2564  -16.2243 C   0  0  0  0  0  0  0  0  0  0  0  0
   27.2741  -21.4089  -14.3302 C   0  0  0  0  0  0  0  0  0  0  0  0
   26.6328  -22.3924  -14.7973 O   0  0  0  0  0  0  0  0  0  0  0  0
   27.2220  -21.1805  -12.9397 N   0  0  0  0  0  0  0  0  0  0  0  0
   26.2346  -21.8207  -12.0710 C   0  0  1  0  0  0  0  0  0  0  0  0
   26.9186  -22.0343  -10.7609 C   0  0  0  0  0  0  0  0  0  0  0  0
   26.6703  -21.0042   -9.7424 C   0  0  0  0  0  0  0  0  0  0  0  0
   25.6552  -20.0807   -9.5926 C   0  0  0  0  0  0  0  0  0  0  0  0
   25.8748  -19.3514   -8.4849 N   0  0  0  0  0  0  0  0  0  0  0  0
   27.0101  -19.7476   -7.8699 C   0  0  0  0  0  0  0  0  0  0  0  0
   27.6514  -19.3276   -6.7258 C   0  0  0  0  0  0  0  0  0  0  0  0
   28.8153  -19.9243   -6.3220 C   0  0  0  0  0  0  0  0  0  0  0  0
   29.3457  -20.9564   -7.0751 C   0  0  0  0  0  0  0  0  0  0  0  0
   28.6941  -21.3636   -8.2148 C   0  0  0  0  0  0  0  0  0  0  0  0
   27.5180  -20.7844   -8.6515 C   0  0  0  0  0  0  0  0  0  0  0  0
   24.9867  -21.0355  -12.0088 C   0  0  0  0  0  0  0  0  0  0  0  0
   24.9375  -19.7990  -11.8694 O   0  0  0  0  0  0  0  0  0  0  0  0
   20.8118  -20.5566  -14.1715 C   0  0  0  0  0  0  0  0  0  0  0  0
   22.1281  -21.2092  -13.8086 C   0  0  1  0  0  0  0  0  0  0  0  0
   23.1709  -20.4706  -14.6737 C   0  0  0  0  0  0  0  0  0  0  0  0
   22.4747  -21.1171  -12.3809 C   0  0  2  0  0  0  0  0  0  0  0  0
   23.7471  -21.7201  -12.1103 N   0  0  0  0  0  0  0  0  0  0  0  0
   21.4166  -21.6391  -11.4584 C   0  0  0  0  0  0  0  0  0  0  0  0
   20.7764  -20.8796  -10.7040 O   0  0  0  0  0  0  0  0  0  0  0  0
   21.1126  -22.9942  -11.4104 O   0  0  0  0  0  0  0  0  0  0  0  0
  2  1  1  6
  2  3  1  0
  3  4  1  0
  4  5  2  0
  5  6  1  0
  7  8  2  0
  7  6  1  0
  9  8  1  0
 10  9  2  0
 11 10  1  0
 11 12  2  0
 12  4  1  0
 12  7  1  0
 13  2  1  0
 14 13  2  0
 15 13  1  0
 16 17  1  1
 16 15  1  0
 18 17  1  0
 19 18  2  0
 20 21  1  0
 20 19  1  0
 21 26  2  0
 22 21  1  0
 22 23  2  0
 23 24  1  0
 24 25  2  0
 26 18  1  0
 26 25  1  0
 27 16  1  0
 28 27  2  0
 30 29  1  1
 31 30  1  0
 32 30  1  0
 32 33  1  6
 33 27  1  0
 34 32  1  0
 34 36  1  0
 35 34  2  0
M  END
$$$$
