WWV.pdb
     RDKit          3D

 36 39  0  0  1  0  0  0  0  0999 V2000
   25.7390  -21.0446  -14.0817 N   0  0  0  0  0  0  0  0  0  0  0  0
   24.8715  -20.3507  -13.1292 C   0  0  1  0  0  0  0  0  0  0  0  0
   23.4491  -20.6905  -13.5758 C   0  0  0  0  0  0  0  0  0  0  0  0
   23.0292  -19.7993  -14.6931 C   0  0  0  0  0  0  0  0  0  0  0  0
   23.5791  -19.7807  -15.9802 C   0  0  0  0  0  0  0  0  0  0  0  0
   22.9407  -18.8442  -16.7035 N   0  0  0  0  0  0  0  0  0  0  0  0
   21.9905  -18.2470  -15.9408 C   0  0  0  0  0  0  0  0  0  0  0  0
   21.0706  -17.2340  -16.2146 C   0  0  0  0  0  0  0  0  0  0  0  0
   20.1862  -16.7918  -15.2471 C   0  0  0  0  0  0  0  0  0  0  0  0
   20.2528  -17.3914  -14.0070 C   0  0  0  0  0  0  0  0  0  0  0  0
   21.1573  -18.3882  -13.7378 C   0  0  0  0  0  0  0  0  0  0  0  0
   22.0494  -18.8374  -14.7059 C   0  0  0  0  0  0  0  0  0  0  0  0
   25.0619  -20.9626  -11.7836 C   0  0  0  0  0  0  0  0  0  0  0  0
   25.0672  -22.2120  -11.5951 O   0  0  0  0  0  0  0  0  0  0  0  0
   25.2506  -20.1206  -10.6683 N   0  0  0  0  0  0  0  0  0  0  0  0
   25.1824  -20.6078   -9.2908 C   0  0  1  0  0  0  0  0  0  0  0  0
   26.1869  -19.8119   -8.5245 C   0  0  0  0  0  0  0  0  0  0  0  0
   26.4071  -20.2401   -7.1358 C   0  0  0  0  0  0  0  0  0  0  0  0
   25.7726  -21.1802   -6.3488 C   0  0  0  0  0  0  0  0  0  0  0  0
   26.3481  -21.2075   -5.1342 N   0  0  0  0  0  0  0  0  0  0  0  0
   27.3590  -20.3145   -5.0648 C   0  0  0  0  0  0  0  0  0  0  0  0
   28.2391  -19.9718   -4.0626 C   0  0  0  0  0  0  0  0  0  0  0  0
   29.1913  -19.0109   -4.2718 C   0  0  0  0  0  0  0  0  0  0  0  0
   29.2633  -18.3832   -5.5024 C   0  0  0  0  0  0  0  0  0  0  0  0
   28.3773  -18.7360   -6.4923 C   0  0  0  0  0  0  0  0  0  0  0  0
   27.4042  -19.7011   -6.3161 C   0  0  0  0  0  0  0  0  0  0  0  0
   23.8031  -20.5496   -8.7697 C   0  0  0  0  0  0  0  0  0  0  0  0
   23.0514  -19.5620   -8.8720 O   0  0  0  0  0  0  0  0  0  0  0  0
   19.6347  -22.6377   -7.9564 C   0  0  0  0  0  0  0  0  0  0  0  0
   21.0544  -22.5095   -8.4647 C   0  0  1  0  0  0  0  0  0  0  0  0
   20.9150  -21.7400   -9.7949 C   0  0  0  0  0  0  0  0  0  0  0  0
   21.9635  -21.8045   -7.5464 C   0  0  2  0  0  0  0  0  0  0  0  0
   23.2809  -21.6875   -8.1001 N   0  0  0  0  0  0  0  0  0  0  0  0
   22.0023  -22.3768   -6.1628 C   0  0  0  0  0  0  0  0  0  0  0  0
   22.5955  -23.4458   -5.9156 O   0  0  0  0  0  0  0  0  0  0  0  0
   21.3737  -21.7337   -5.1034 O   0  0  0  0  0  0  0  0  0  0  0  0
  2  1  1  6
  2  3  1  0
  3  4  1  0
  4  5  2  0
  5  6  1  0
  7  8  2  0
  7  6  1  0
  9  8  1  0
 10  9  2  0
 11 10  1  0
 11 12  2  0
 12  4  1  0
 12  7  1  0
 13  2  1  0
 14 13  2  0
 15 13  1  0
 16 17  1  1
 16 15  1  0
 18 17  1  0
 19 18  2  0
 20 21  1  0
 20 19  1  0
 21 26  2  0
 22 21  1  0
 22 23  2  0
 23 24  1  0
 24 25  2  0
 26 18  1  0
 26 25  1  0
 27 16  1  0
 28 27  2  0
 30 29  1  1
 31 30  1  0
 32 30  1  0
 32 33  1  6
 33 27  1  0
 34 32  1  0
 34 36  1  0
 35 34  2  0
M  END
$$$$
