WWV.pdb
     RDKit          3D

 36 39  0  0  1  0  0  0  0  0999 V2000
   28.2755  -25.3496  -17.6518 N   0  0  0  0  0  0  0  0  0  0  0  0
   27.4701  -24.1739  -17.9839 C   0  0  1  0  0  0  0  0  0  0  0  0
   26.3968  -24.6925  -18.9416 C   0  0  0  0  0  0  0  0  0  0  0  0
   26.9536  -24.8377  -20.3156 C   0  0  0  0  0  0  0  0  0  0  0  0
   27.6740  -25.9365  -20.7981 C   0  0  0  0  0  0  0  0  0  0  0  0
   28.0078  -25.6989  -22.0787 N   0  0  0  0  0  0  0  0  0  0  0  0
   27.5326  -24.4855  -22.4570 C   0  0  0  0  0  0  0  0  0  0  0  0
   27.6051  -23.7861  -23.6625 C   0  0  0  0  0  0  0  0  0  0  0  0
   27.0254  -22.5376  -23.7997 C   0  0  0  0  0  0  0  0  0  0  0  0
   26.3768  -22.0165  -22.6999 C   0  0  0  0  0  0  0  0  0  0  0  0
   26.3051  -22.7046  -21.5143 C   0  0  0  0  0  0  0  0  0  0  0  0
   26.8859  -23.9602  -21.3695 C   0  0  0  0  0  0  0  0  0  0  0  0
   26.7681  -23.7179  -16.7509 C   0  0  0  0  0  0  0  0  0  0  0  0
   26.2640  -24.5200  -15.9148 O   0  0  0  0  0  0  0  0  0  0  0  0
   26.6616  -22.3354  -16.4944 N   0  0  0  0  0  0  0  0  0  0  0  0
   25.9480  -21.8002  -15.3351 C   0  0  1  0  0  0  0  0  0  0  0  0
   26.7817  -20.6708  -14.8262 C   0  0  0  0  0  0  0  0  0  0  0  0
   26.2045  -19.9126  -13.7072 C   0  0  0  0  0  0  0  0  0  0  0  0
   25.7243  -18.6214  -13.6183 C   0  0  0  0  0  0  0  0  0  0  0  0
   25.2929  -18.3907  -12.3661 N   0  0  0  0  0  0  0  0  0  0  0  0
   25.4623  -19.4855  -11.5936 C   0  0  0  0  0  0  0  0  0  0  0  0
   25.1824  -19.7518  -10.2718 C   0  0  0  0  0  0  0  0  0  0  0  0
   25.4608  -20.9802   -9.7357 C   0  0  0  0  0  0  0  0  0  0  0  0
   26.0285  -21.9565  -10.5345 C   0  0  0  0  0  0  0  0  0  0  0  0
   26.3026  -21.6749  -11.8517 C   0  0  0  0  0  0  0  0  0  0  0  0
   26.0347  -20.4468  -12.4256 C   0  0  0  0  0  0  0  0  0  0  0  0
   24.5560  -21.4504  -15.6776 C   0  0  0  0  0  0  0  0  0  0  0  0
   24.2116  -20.8689  -16.7236 O   0  0  0  0  0  0  0  0  0  0  0  0
   19.8234  -22.3542  -15.2089 C   0  0  0  0  0  0  0  0  0  0  0  0
   21.2997  -22.6457  -15.0483 C   0  0  1  0  0  0  0  0  0  0  0  0
   21.6776  -23.4170  -16.3304 C   0  0  0  0  0  0  0  0  0  0  0  0
   22.1391  -21.4464  -14.8940 C   0  0  2  0  0  0  0  0  0  0  0  0
   23.5249  -21.7897  -14.7624 N   0  0  0  0  0  0  0  0  0  0  0  0
   21.6984  -20.5269  -13.7969 C   0  0  0  0  0  0  0  0  0  0  0  0
   22.1309  -20.6459  -12.6330 O   0  0  0  0  0  0  0  0  0  0  0  0
   20.7869  -19.5066  -14.0398 O   0  0  0  0  0  0  0  0  0  0  0  0
  2  1  1  1
  2  3  1  0
  3  4  1  0
  4  5  2  0
  5  6  1  0
  7  8  2  0
  7  6  1  0
  9  8  1  0
 10  9  2  0
 11 10  1  0
 11 12  2  0
 12  4  1  0
 12  7  1  0
 13  2  1  0
 14 13  2  0
 15 13  1  0
 16 17  1  6
 16 15  1  0
 18 17  1  0
 19 18  2  0
 20 21  1  0
 20 19  1  0
 21 26  2  0
 22 21  1  0
 22 23  2  0
 23 24  1  0
 24 25  2  0
 26 18  1  0
 26 25  1  0
 27 16  1  0
 28 27  2  0
 30 29  1  6
 31 30  1  0
 32 30  1  0
 32 33  1  1
 33 27  1  0
 34 32  1  0
 34 36  1  0
 35 34  2  0
M  END
$$$$
