WWV.pdb
     RDKit          3D

 36 39  0  0  1  0  0  0  0  0999 V2000
   26.0105  -22.4723  -11.8111 N   0  0  0  0  0  0  0  0  0  0  0  0
   25.4296  -21.4216  -10.9745 C   0  0  1  0  0  0  0  0  0  0  0  0
   26.4324  -20.2692  -11.0410 C   0  0  0  0  0  0  0  0  0  0  0  0
   27.6346  -20.5793  -10.2180 C   0  0  0  0  0  0  0  0  0  0  0  0
   28.8237  -21.1522  -10.6839 C   0  0  0  0  0  0  0  0  0  0  0  0
   29.6715  -21.2776   -9.6479 N   0  0  0  0  0  0  0  0  0  0  0  0
   29.0852  -20.8073   -8.5182 C   0  0  0  0  0  0  0  0  0  0  0  0
   29.5346  -20.7114   -7.2005 C   0  0  0  0  0  0  0  0  0  0  0  0
   28.7299  -20.1804   -6.2084 C   0  0  0  0  0  0  0  0  0  0  0  0
   27.4712  -19.7528   -6.5755 C   0  0  0  0  0  0  0  0  0  0  0  0
   27.0293  -19.8467   -7.8717 C   0  0  0  0  0  0  0  0  0  0  0  0
   27.8332  -20.3797   -8.8740 C   0  0  0  0  0  0  0  0  0  0  0  0
   24.1746  -20.9429  -11.6199 C   0  0  0  0  0  0  0  0  0  0  0  0
   23.5673  -19.9002  -11.2448 O   0  0  0  0  0  0  0  0  0  0  0  0
   23.6370  -21.6738  -12.6994 N   0  0  0  0  0  0  0  0  0  0  0  0
   22.3450  -21.3522  -13.3051 C   0  0  1  0  0  0  0  0  0  0  0  0
   22.6258  -21.0711  -14.7444 C   0  0  0  0  0  0  0  0  0  0  0  0
   23.4437  -19.8788  -15.0082 C   0  0  0  0  0  0  0  0  0  0  0  0
   24.8022  -19.7139  -15.1903 C   0  0  0  0  0  0  0  0  0  0  0  0
   25.0690  -18.4144  -15.4080 N   0  0  0  0  0  0  0  0  0  0  0  0
   23.9338  -17.6831  -15.3815 C   0  0  0  0  0  0  0  0  0  0  0  0
   23.6807  -16.3399  -15.5490 C   0  0  0  0  0  0  0  0  0  0  0  0
   22.4014  -15.8585  -15.4736 C   0  0  0  0  0  0  0  0  0  0  0  0
   21.3600  -16.7348  -15.2263 C   0  0  0  0  0  0  0  0  0  0  0  0
   21.6291  -18.0725  -15.0606 C   0  0  0  0  0  0  0  0  0  0  0  0
   22.9074  -18.5927  -15.1305 C   0  0  0  0  0  0  0  0  0  0  0  0
   21.3554  -22.4175  -13.0532 C   0  0  0  0  0  0  0  0  0  0  0  0
   21.5375  -23.6234  -13.3048 O   0  0  0  0  0  0  0  0  0  0  0  0
   17.2749  -23.5834  -10.5113 C   0  0  0  0  0  0  0  0  0  0  0  0
   18.4053  -22.6534  -10.8960 C   0  0  1  0  0  0  0  0  0  0  0  0
   19.4272  -22.8009   -9.7492 C   0  0  0  0  0  0  0  0  0  0  0  0
   19.0278  -22.9637  -12.1933 C   0  0  2  0  0  0  0  0  0  0  0  0
   20.1024  -22.0615  -12.4883 N   0  0  0  0  0  0  0  0  0  0  0  0
   18.0597  -23.0498  -13.3328 C   0  0  0  0  0  0  0  0  0  0  0  0
   17.7544  -24.1440  -13.8481 O   0  0  0  0  0  0  0  0  0  0  0  0
   17.4676  -21.9076  -13.8580 O   0  0  0  0  0  0  0  0  0  0  0  0
  2  1  1  6
  2  3  1  0
  3  4  1  0
  4  5  2  0
  5  6  1  0
  7  8  2  0
  7  6  1  0
  9  8  1  0
 10  9  2  0
 11 10  1  0
 11 12  2  0
 12  4  1  0
 12  7  1  0
 13  2  1  0
 14 13  2  0
 15 13  1  0
 16 17  1  6
 16 15  1  0
 18 17  1  0
 19 18  2  0
 20 21  1  0
 20 19  1  0
 21 26  2  0
 22 21  1  0
 22 23  2  0
 23 24  1  0
 24 25  2  0
 26 18  1  0
 26 25  1  0
 27 16  1  0
 28 27  2  0
 30 29  1  1
 31 30  1  0
 32 30  1  0
 32 33  1  6
 33 27  1  0
 34 32  1  0
 34 36  1  0
 35 34  2  0
M  END
$$$$
