WWV.pdb
     RDKit          3D

 36 39  0  0  1  0  0  0  0  0999 V2000
   28.1036  -23.2159  -16.2801 N   0  0  0  0  0  0  0  0  0  0  0  0
   27.3821  -21.9524  -16.1243 C   0  0  1  0  0  0  0  0  0  0  0  0
   26.2546  -22.0160  -17.1552 C   0  0  0  0  0  0  0  0  0  0  0  0
   26.7355  -21.5353  -18.4806 C   0  0  0  0  0  0  0  0  0  0  0  0
   27.0969  -22.3424  -19.5655 C   0  0  0  0  0  0  0  0  0  0  0  0
   27.4781  -21.5474  -20.5806 N   0  0  0  0  0  0  0  0  0  0  0  0
   27.3798  -20.2474  -20.2044 C   0  0  0  0  0  0  0  0  0  0  0  0
   27.6481  -19.0551  -20.8781 C   0  0  0  0  0  0  0  0  0  0  0  0
   27.4615  -17.8299  -20.2633 C   0  0  0  0  0  0  0  0  0  0  0  0
   27.0022  -17.8375  -18.9630 C   0  0  0  0  0  0  0  0  0  0  0  0
   26.7378  -19.0103  -18.3005 C   0  0  0  0  0  0  0  0  0  0  0  0
   26.9233  -20.2455  -18.9126 C   0  0  0  0  0  0  0  0  0  0  0  0
   26.7403  -21.9370  -14.7794 C   0  0  0  0  0  0  0  0  0  0  0  0
   26.1250  -22.9330  -14.3038 O   0  0  0  0  0  0  0  0  0  0  0  0
   26.8224  -20.7687  -13.9941 N   0  0  0  0  0  0  0  0  0  0  0  0
   26.0724  -20.5995  -12.7498 C   0  0  1  0  0  0  0  0  0  0  0  0
   26.8899  -19.6834  -11.8999 C   0  0  0  0  0  0  0  0  0  0  0  0
   27.8164  -20.3429  -10.9688 C   0  0  0  0  0  0  0  0  0  0  0  0
   28.9608  -21.0861  -11.1779 C   0  0  0  0  0  0  0  0  0  0  0  0
   29.4629  -21.4755   -9.9932 N   0  0  0  0  0  0  0  0  0  0  0  0
   28.6974  -21.0209   -8.9776 C   0  0  0  0  0  0  0  0  0  0  0  0
   28.7876  -21.1434   -7.6089 C   0  0  0  0  0  0  0  0  0  0  0  0
   27.8523  -20.5625   -6.7955 C   0  0  0  0  0  0  0  0  0  0  0  0
   26.8107  -19.8487   -7.3606 C   0  0  0  0  0  0  0  0  0  0  0  0
   26.7343  -19.7363   -8.7284 C   0  0  0  0  0  0  0  0  0  0  0  0
   27.6604  -20.3091   -9.5791 C   0  0  0  0  0  0  0  0  0  0  0  0
   24.6922  -20.1491  -13.0133 C   0  0  0  0  0  0  0  0  0  0  0  0
   24.3641  -19.3857  -13.9408 O   0  0  0  0  0  0  0  0  0  0  0  0
   21.8749  -22.4511  -13.8175 C   0  0  0  0  0  0  0  0  0  0  0  0
   21.8430  -20.9426  -13.6997 C   0  0  1  0  0  0  0  0  0  0  0  0
   20.3779  -20.5673  -14.0065 C   0  0  0  0  0  0  0  0  0  0  0  0
   22.2477  -20.4310  -12.3802 C   0  0  2  0  0  0  0  0  0  0  0  0
   23.6537  -20.6050  -12.1591 N   0  0  0  0  0  0  0  0  0  0  0  0
   21.4448  -20.9753  -11.2391 C   0  0  0  0  0  0  0  0  0  0  0  0
   21.7322  -22.0625  -10.6993 O   0  0  0  0  0  0  0  0  0  0  0  0
   20.3459  -20.2848  -10.7424 O   0  0  0  0  0  0  0  0  0  0  0  0
  2  1  1  1
  2  3  1  0
  3  4  1  0
  4  5  2  0
  5  6  1  0
  7  8  2  0
  7  6  1  0
  9  8  1  0
 10  9  2  0
 11 10  1  0
 11 12  2  0
 12  4  1  0
 12  7  1  0
 13  2  1  0
 14 13  2  0
 15 13  1  0
 16 17  1  1
 16 15  1  0
 18 17  1  0
 19 18  2  0
 20 21  1  0
 20 19  1  0
 21 26  2  0
 22 21  1  0
 22 23  2  0
 23 24  1  0
 24 25  2  0
 26 18  1  0
 26 25  1  0
 27 16  1  0
 28 27  2  0
 30 29  1  1
 31 30  1  0
 32 30  1  0
 32 33  1  1
 33 27  1  0
 34 32  1  0
 34 36  1  0
 35 34  2  0
M  END
$$$$
