WWV.pdb
     RDKit          3D

 36 39  0  0  1  0  0  0  0  0999 V2000
   24.2019  -19.1732  -18.2156 N   0  0  0  0  0  0  0  0  0  0  0  0
   24.1542  -18.4526  -16.9429 C   0  0  1  0  0  0  0  0  0  0  0  0
   22.8695  -17.6259  -17.0092 C   0  0  0  0  0  0  0  0  0  0  0  0
   23.0479  -16.4619  -17.9214 C   0  0  0  0  0  0  0  0  0  0  0  0
   22.3870  -16.2638  -19.1393 C   0  0  0  0  0  0  0  0  0  0  0  0
   22.8116  -15.1043  -19.6715 N   0  0  0  0  0  0  0  0  0  0  0  0
   23.7260  -14.5317  -18.8486 C   0  0  0  0  0  0  0  0  0  0  0  0
   24.4526  -13.3437  -18.9392 C   0  0  0  0  0  0  0  0  0  0  0  0
   25.3415  -12.9728  -17.9462 C   0  0  0  0  0  0  0  0  0  0  0  0
   25.4783  -13.8231  -16.8691 C   0  0  0  0  0  0  0  0  0  0  0  0
   24.7632  -14.9914  -16.7798 C   0  0  0  0  0  0  0  0  0  0  0  0
   23.8679  -15.3704  -17.7746 C   0  0  0  0  0  0  0  0  0  0  0  0
   23.9763  -19.4440  -15.8445 C   0  0  0  0  0  0  0  0  0  0  0  0
   23.3623  -20.5370  -16.0027 O   0  0  0  0  0  0  0  0  0  0  0  0
   24.5172  -19.1627  -14.5731 N   0  0  0  0  0  0  0  0  0  0  0  0
   24.3657  -20.0665  -13.4330 C   0  0  1  0  0  0  0  0  0  0  0  0
   25.5199  -19.7830  -12.5291 C   0  0  0  0  0  0  0  0  0  0  0  0
   25.7342  -20.7593  -11.4515 C   0  0  0  0  0  0  0  0  0  0  0  0
   25.9237  -22.1266  -11.4698 C   0  0  0  0  0  0  0  0  0  0  0  0
   26.0804  -22.5725  -10.2114 N   0  0  0  0  0  0  0  0  0  0  0  0
   26.0046  -21.5517   -9.3303 C   0  0  0  0  0  0  0  0  0  0  0  0
   26.1029  -21.4893   -7.9581 C   0  0  0  0  0  0  0  0  0  0  0  0
   25.9890  -20.2909   -7.3065 C   0  0  0  0  0  0  0  0  0  0  0  0
   25.7729  -19.1376   -8.0393 C   0  0  0  0  0  0  0  0  0  0  0  0
   25.6765  -19.2167   -9.4082 C   0  0  0  0  0  0  0  0  0  0  0  0
   25.7867  -20.4087  -10.0984 C   0  0  0  0  0  0  0  0  0  0  0  0
   23.0332  -19.9296  -12.8142 C   0  0  0  0  0  0  0  0  0  0  0  0
   22.4830  -18.8424  -12.5572 O   0  0  0  0  0  0  0  0  0  0  0  0
   19.8718  -20.7069  -13.9928 C   0  0  0  0  0  0  0  0  0  0  0  0
   19.9725  -21.5620  -12.7482 C   0  0  1  0  0  0  0  0  0  0  0  0
   20.2241  -22.9870  -13.2841 C   0  0  0  0  0  0  0  0  0  0  0  0
   21.0419  -21.1563  -11.8215 C   0  0  2  0  0  0  0  0  0  0  0  0
   22.3150  -21.1077  -12.4791 N   0  0  0  0  0  0  0  0  0  0  0  0
   21.1071  -21.9710  -10.5664 C   0  0  0  0  0  0  0  0  0  0  0  0
   20.1535  -22.0091   -9.7632 O   0  0  0  0  0  0  0  0  0  0  0  0
   22.2387  -22.7138  -10.2522 O   0  0  0  0  0  0  0  0  0  0  0  0
  2  1  1  6
  2  3  1  0
  3  4  1  0
  4  5  2  0
  5  6  1  0
  7  8  2  0
  7  6  1  0
  9  8  1  0
 10  9  2  0
 11 10  1  0
 11 12  2  0
 12  4  1  0
 12  7  1  0
 13  2  1  0
 14 13  2  0
 15 13  1  0
 16 17  1  1
 16 15  1  0
 18 17  1  0
 19 18  2  0
 20 21  1  0
 20 19  1  0
 21 26  2  0
 22 21  1  0
 22 23  2  0
 23 24  1  0
 24 25  2  0
 26 18  1  0
 26 25  1  0
 27 16  1  0
 28 27  2  0
 30 29  1  6
 31 30  1  0
 32 30  1  0
 32 33  1  6
 33 27  1  0
 34 32  1  0
 34 36  1  0
 35 34  2  0
M  END
$$$$
