WWV.pdb
     RDKit          3D

 36 39  0  0  1  0  0  0  0  0999 V2000
   28.9371  -21.1528  -15.0241 N   0  0  0  0  0  0  0  0  0  0  0  0
   28.2012  -20.3384  -14.0564 C   0  0  1  0  0  0  0  0  0  0  0  0
   27.0228  -19.7644  -14.8439 C   0  0  0  0  0  0  0  0  0  0  0  0
   27.4882  -18.6900  -15.7648 C   0  0  0  0  0  0  0  0  0  0  0  0
   27.7392  -18.8335  -17.1343 C   0  0  0  0  0  0  0  0  0  0  0  0
   28.1434  -17.6470  -17.6207 N   0  0  0  0  0  0  0  0  0  0  0  0
   28.1663  -16.7280  -16.6227 C   0  0  0  0  0  0  0  0  0  0  0  0
   28.5039  -15.3741  -16.6045 C   0  0  0  0  0  0  0  0  0  0  0  0
   28.4424  -14.6384  -15.4346 C   0  0  0  0  0  0  0  0  0  0  0  0
   28.0360  -15.2971  -14.2932 C   0  0  0  0  0  0  0  0  0  0  0  0
   27.7035  -16.6288  -14.3112 C   0  0  0  0  0  0  0  0  0  0  0  0
   27.7632  -17.3743  -15.4839 C   0  0  0  0  0  0  0  0  0  0  0  0
   27.6301  -21.2404  -13.0165 C   0  0  0  0  0  0  0  0  0  0  0  0
   27.2905  -22.4334  -13.2577 O   0  0  0  0  0  0  0  0  0  0  0  0
   27.4632  -20.7536  -11.7037 N   0  0  0  0  0  0  0  0  0  0  0  0
   26.6190  -21.4235  -10.7147 C   0  0  1  0  0  0  0  0  0  0  0  0
   27.4328  -21.4988   -9.4650 C   0  0  0  0  0  0  0  0  0  0  0  0
   27.0998  -20.5073   -8.4324 C   0  0  0  0  0  0  0  0  0  0  0  0
   26.1845  -19.4741   -8.4068 C   0  0  0  0  0  0  0  0  0  0  0  0
   26.2551  -18.8445   -7.2212 N   0  0  0  0  0  0  0  0  0  0  0  0
   27.1912  -19.4154   -6.4325 C   0  0  0  0  0  0  0  0  0  0  0  0
   27.6303  -19.1471   -5.1551 C   0  0  0  0  0  0  0  0  0  0  0  0
   28.6146  -19.9078   -4.5839 C   0  0  0  0  0  0  0  0  0  0  0  0
   29.1682  -20.9523   -5.3022 C   0  0  0  0  0  0  0  0  0  0  0  0
   28.7196  -21.2069   -6.5763 C   0  0  0  0  0  0  0  0  0  0  0  0
   27.7281  -20.4601   -7.1836 C   0  0  0  0  0  0  0  0  0  0  0  0
   25.3152  -20.7464  -10.5768 C   0  0  0  0  0  0  0  0  0  0  0  0
   25.1708  -19.5204  -10.4123 O   0  0  0  0  0  0  0  0  0  0  0  0
   21.1885  -21.2524  -12.9691 C   0  0  0  0  0  0  0  0  0  0  0  0
   22.5217  -21.6912  -12.4031 C   0  0  1  0  0  0  0  0  0  0  0  0
   23.5479  -21.2726  -13.4768 C   0  0  0  0  0  0  0  0  0  0  0  0
   22.8529  -21.0891  -11.1013 C   0  0  2  0  0  0  0  0  0  0  0  0
   24.1329  -21.5307  -10.6298 N   0  0  0  0  0  0  0  0  0  0  0  0
   21.7952  -21.2684  -10.0562 C   0  0  0  0  0  0  0  0  0  0  0  0
   21.7605  -22.2823   -9.3305 O   0  0  0  0  0  0  0  0  0  0  0  0
   20.8110  -20.3071   -9.8604 O   0  0  0  0  0  0  0  0  0  0  0  0
  2  1  1  6
  2  3  1  0
  3  4  1  0
  4  5  2  0
  5  6  1  0
  7  8  2  0
  7  6  1  0
  9  8  1  0
 10  9  2  0
 11 10  1  0
 11 12  2  0
 12  4  1  0
 12  7  1  0
 13  2  1  0
 14 13  2  0
 15 13  1  0
 16 17  1  1
 16 15  1  0
 18 17  1  0
 19 18  2  0
 20 21  1  0
 20 19  1  0
 21 26  2  0
 22 21  1  0
 22 23  2  0
 23 24  1  0
 24 25  2  0
 26 18  1  0
 26 25  1  0
 27 16  1  0
 28 27  2  0
 30 29  1  6
 31 30  1  0
 32 30  1  0
 32 33  1  1
 33 27  1  0
 34 32  1  0
 34 36  1  0
 35 34  2  0
M  END
$$$$
