WWV.pdb
     RDKit          3D

 36 39  0  0  1  0  0  0  0  0999 V2000
   27.1640  -20.8241  -15.5556 N   0  0  0  0  0  0  0  0  0  0  0  0
   27.3670  -20.0127  -14.3549 C   0  0  1  0  0  0  0  0  0  0  0  0
   26.6011  -18.7169  -14.6242 C   0  0  0  0  0  0  0  0  0  0  0  0
   27.2998  -17.9071  -15.6610 C   0  0  0  0  0  0  0  0  0  0  0  0
   26.6850  -17.0963  -16.6222 C   0  0  0  0  0  0  0  0  0  0  0  0
   27.6421  -16.5295  -17.3776 N   0  0  0  0  0  0  0  0  0  0  0  0
   28.8634  -16.9360  -16.9483 C   0  0  0  0  0  0  0  0  0  0  0  0
   30.1554  -16.6403  -17.3852 C   0  0  0  0  0  0  0  0  0  0  0  0
   31.2624  -17.1930  -16.7667 C   0  0  0  0  0  0  0  0  0  0  0  0
   31.0356  -18.0447  -15.7060 C   0  0  0  0  0  0  0  0  0  0  0  0
   29.7648  -18.3352  -15.2759 C   0  0  0  0  0  0  0  0  0  0  0  0
   28.6474  -17.7830  -15.8934 C   0  0  0  0  0  0  0  0  0  0  0  0
   26.6919  -20.6859  -13.2095 C   0  0  0  0  0  0  0  0  0  0  0  0
   25.7228  -21.4829  -13.3593 O   0  0  0  0  0  0  0  0  0  0  0  0
   27.1500  -20.4343  -11.8998 N   0  0  0  0  0  0  0  0  0  0  0  0
   26.4007  -20.8378  -10.7101 C   0  0  1  0  0  0  0  0  0  0  0  0
   27.2626  -20.4838   -9.5433 C   0  0  0  0  0  0  0  0  0  0  0  0
   26.6371  -20.6442   -8.2230 C   0  0  0  0  0  0  0  0  0  0  0  0
   25.4082  -21.1423   -7.8389 C   0  0  0  0  0  0  0  0  0  0  0  0
   25.3004  -21.0813   -6.5003 N   0  0  0  0  0  0  0  0  0  0  0  0
   26.4190  -20.5568   -5.9546 C   0  0  0  0  0  0  0  0  0  0  0  0
   26.7940  -20.2956   -4.6556 C   0  0  0  0  0  0  0  0  0  0  0  0
   28.0197  -19.7511   -4.3816 C   0  0  0  0  0  0  0  0  0  0  0  0
   28.8827  -19.4630   -5.4236 C   0  0  0  0  0  0  0  0  0  0  0  0
   28.4934  -19.7290   -6.7148 C   0  0  0  0  0  0  0  0  0  0  0  0
   27.2646  -20.2782   -7.0276 C   0  0  0  0  0  0  0  0  0  0  0  0
   25.0509  -20.2415  -10.6994 C   0  0  0  0  0  0  0  0  0  0  0  0
   24.8200  -19.0196  -10.6339 O   0  0  0  0  0  0  0  0  0  0  0  0
   22.6670  -20.2546  -13.2189 C   0  0  0  0  0  0  0  0  0  0  0  0
   21.9203  -20.8944  -12.0684 C   0  0  1  0  0  0  0  0  0  0  0  0
   21.8723  -22.3934  -12.4318 C   0  0  0  0  0  0  0  0  0  0  0  0
   22.5517  -20.6958  -10.7535 C   0  0  2  0  0  0  0  0  0  0  0  0
   23.9258  -21.1051  -10.7646 N   0  0  0  0  0  0  0  0  0  0  0  0
   21.8058  -21.3204   -9.6148 C   0  0  0  0  0  0  0  0  0  0  0  0
   22.3034  -22.2409   -8.9359 O   0  0  0  0  0  0  0  0  0  0  0  0
   20.5271  -20.8944   -9.2762 O   0  0  0  0  0  0  0  0  0  0  0  0
  2  1  1  6
  2  3  1  0
  3  4  1  0
  4  5  2  0
  5  6  1  0
  7  8  2  0
  7  6  1  0
  9  8  1  0
 10  9  2  0
 11 10  1  0
 11 12  2  0
 12  4  1  0
 12  7  1  0
 13  2  1  0
 14 13  2  0
 15 13  1  0
 16 17  1  1
 16 15  1  0
 18 17  1  0
 19 18  2  0
 20 21  1  0
 20 19  1  0
 21 26  2  0
 22 21  1  0
 22 23  2  0
 23 24  1  0
 24 25  2  0
 26 18  1  0
 26 25  1  0
 27 16  1  0
 28 27  2  0
 30 29  1  6
 31 30  1  0
 32 30  1  0
 32 33  1  6
 33 27  1  0
 34 32  1  0
 34 36  1  0
 35 34  2  0
M  END
$$$$
