WWV.pdb
     RDKit          3D

 36 39  0  0  1  0  0  0  0  0999 V2000
   28.5725  -20.8655  -10.1539 N   0  0  0  0  0  0  0  0  0  0  0  0
   27.1614  -20.7667   -9.7793 C   0  0  1  0  0  0  0  0  0  0  0  0
   27.0522  -19.4504   -9.0088 C   0  0  0  0  0  0  0  0  0  0  0  0
   27.8893  -19.4988   -7.7776 C   0  0  0  0  0  0  0  0  0  0  0  0
   29.1829  -18.9815   -7.6428 C   0  0  0  0  0  0  0  0  0  0  0  0
   29.6086  -19.2178   -6.3895 N   0  0  0  0  0  0  0  0  0  0  0  0
   28.6429  -19.8700   -5.6944 C   0  0  0  0  0  0  0  0  0  0  0  0
   28.5871  -20.3331   -4.3792 C   0  0  0  0  0  0  0  0  0  0  0  0
   27.4636  -20.9805   -3.8971 C   0  0  0  0  0  0  0  0  0  0  0  0
   26.4072  -21.1483   -4.7675 C   0  0  0  0  0  0  0  0  0  0  0  0
   26.4619  -20.6923   -6.0612 C   0  0  0  0  0  0  0  0  0  0  0  0
   27.5884  -20.0407   -6.5523 C   0  0  0  0  0  0  0  0  0  0  0  0
   26.3522  -20.6112  -11.0211 C   0  0  0  0  0  0  0  0  0  0  0  0
   26.7021  -19.8611  -11.9759 O   0  0  0  0  0  0  0  0  0  0  0  0
   25.1466  -21.3315  -11.1483 N   0  0  0  0  0  0  0  0  0  0  0  0
   24.2844  -21.2262  -12.3252 C   0  0  1  0  0  0  0  0  0  0  0  0
   24.4609  -22.5036  -13.0781 C   0  0  0  0  0  0  0  0  0  0  0  0
   25.6366  -22.5619  -13.9582 C   0  0  0  0  0  0  0  0  0  0  0  0
   26.9301  -22.9930  -13.7420 C   0  0  0  0  0  0  0  0  0  0  0  0
   27.6439  -22.8474  -14.8718 N   0  0  0  0  0  0  0  0  0  0  0  0
   26.8783  -22.3299  -15.8568 C   0  0  0  0  0  0  0  0  0  0  0  0
   27.1354  -22.0037  -17.1698 C   0  0  0  0  0  0  0  0  0  0  0  0
   26.1478  -21.4863  -17.9641 C   0  0  0  0  0  0  0  0  0  0  0  0
   24.8841  -21.2919  -17.4360 C   0  0  0  0  0  0  0  0  0  0  0  0
   24.6436  -21.6219  -16.1235 C   0  0  0  0  0  0  0  0  0  0  0  0
   25.6162  -22.1462  -15.2936 C   0  0  0  0  0  0  0  0  0  0  0  0
   22.8950  -20.9068  -11.9445 C   0  0  0  0  0  0  0  0  0  0  0  0
   22.3570  -21.2592  -10.8781 O   0  0  0  0  0  0  0  0  0  0  0  0
   21.3973  -17.3927  -13.3005 C   0  0  0  0  0  0  0  0  0  0  0  0
   20.4187  -18.5394  -13.4336 C   0  0  1  0  0  0  0  0  0  0  0  0
   20.4456  -18.8911  -14.9359 C   0  0  0  0  0  0  0  0  0  0  0  0
   20.7529  -19.7168  -12.6156 C   0  0  2  0  0  0  0  0  0  0  0  0
   22.1007  -20.1488  -12.8446 N   0  0  0  0  0  0  0  0  0  0  0  0
   19.7857  -20.8522  -12.7517 C   0  0  0  0  0  0  0  0  0  0  0  0
   19.9898  -21.7912  -13.5470 O   0  0  0  0  0  0  0  0  0  0  0  0
   18.6216  -20.8966  -11.9941 O   0  0  0  0  0  0  0  0  0  0  0  0
  2  1  1  6
  2  3  1  0
  3  4  1  0
  4  5  2  0
  5  6  1  0
  7  8  2  0
  7  6  1  0
  9  8  1  0
 10  9  2  0
 11 10  1  0
 11 12  2  0
 12  4  1  0
 12  7  1  0
 13  2  1  0
 14 13  2  0
 15 13  1  0
 16 17  1  1
 16 15  1  0
 18 17  1  0
 19 18  2  0
 20 21  1  0
 20 19  1  0
 21 26  2  0
 22 21  1  0
 22 23  2  0
 23 24  1  0
 24 25  2  0
 26 18  1  0
 26 25  1  0
 27 16  1  0
 28 27  2  0
 30 29  1  6
 31 30  1  0
 32 30  1  0
 32 33  1  6
 33 27  1  0
 34 32  1  0
 34 36  1  0
 35 34  2  0
M  END
$$$$
