WWV.pdb
     RDKit          3D

 36 39  0  0  1  0  0  0  0  0999 V2000
   27.9419  -21.1553  -15.8351 N   0  0  0  0  0  0  0  0  0  0  0  0
   27.0902  -20.0988  -15.2875 C   0  0  1  0  0  0  0  0  0  0  0  0
   26.1050  -19.7695  -16.4096 C   0  0  0  0  0  0  0  0  0  0  0  0
   26.7034  -18.7841  -17.3529 C   0  0  0  0  0  0  0  0  0  0  0  0
   26.8674  -18.9617  -18.7316 C   0  0  0  0  0  0  0  0  0  0  0  0
   27.4429  -17.8574  -19.2386 N   0  0  0  0  0  0  0  0  0  0  0  0
   27.6624  -16.9595  -18.2452 C   0  0  0  0  0  0  0  0  0  0  0  0
   28.2222  -15.6811  -18.2457 C   0  0  0  0  0  0  0  0  0  0  0  0
   28.3352  -14.9506  -17.0764 C   0  0  0  0  0  0  0  0  0  0  0  0
   27.8741  -15.5370  -15.9165 C   0  0  0  0  0  0  0  0  0  0  0  0
   27.3230  -16.7942  -15.9161 C   0  0  0  0  0  0  0  0  0  0  0  0
   27.2064  -17.5342  -17.0882 C   0  0  0  0  0  0  0  0  0  0  0  0
   26.2939  -20.6682  -14.1638 C   0  0  0  0  0  0  0  0  0  0  0  0
   25.9370  -21.8798  -14.1236 O   0  0  0  0  0  0  0  0  0  0  0  0
   25.9228  -19.8295  -13.0927 N   0  0  0  0  0  0  0  0  0  0  0  0
   25.1397  -20.3048  -11.9524 C   0  0  1  0  0  0  0  0  0  0  0  0
   25.7037  -19.6174  -10.7528 C   0  0  0  0  0  0  0  0  0  0  0  0
   26.7727  -20.3431  -10.0522 C   0  0  0  0  0  0  0  0  0  0  0  0
   27.6965  -21.2715  -10.4883 C   0  0  0  0  0  0  0  0  0  0  0  0
   28.4748  -21.6450   -9.4578 N   0  0  0  0  0  0  0  0  0  0  0  0
   28.1128  -20.9999   -8.3279 C   0  0  0  0  0  0  0  0  0  0  0  0
   28.5909  -21.0317   -7.0368 C   0  0  0  0  0  0  0  0  0  0  0  0
   28.0243  -20.2506   -6.0659 C   0  0  0  0  0  0  0  0  0  0  0  0
   26.9627  -19.4257   -6.3920 C   0  0  0  0  0  0  0  0  0  0  0  0
   26.4966  -19.4059   -7.6850 C   0  0  0  0  0  0  0  0  0  0  0  0
   27.0444  -20.1804   -8.6897 C   0  0  0  0  0  0  0  0  0  0  0  0
   23.6948  -20.1016  -12.1729 C   0  0  0  0  0  0  0  0  0  0  0  0
   23.1701  -19.0058  -12.4463 O   0  0  0  0  0  0  0  0  0  0  0  0
   21.8338  -21.7141  -14.7197 C   0  0  0  0  0  0  0  0  0  0  0  0
   21.0525  -22.0364  -13.4642 C   0  0  1  0  0  0  0  0  0  0  0  0
   21.3597  -23.5246  -13.1957 C   0  0  0  0  0  0  0  0  0  0  0  0
   21.4124  -21.2106  -12.3000 C   0  0  2  0  0  0  0  0  0  0  0  0
   22.8272  -21.2205  -12.0674 N   0  0  0  0  0  0  0  0  0  0  0  0
   20.6524  -21.5445  -11.0533 C   0  0  0  0  0  0  0  0  0  0  0  0
   21.2106  -22.0729  -10.0710 O   0  0  0  0  0  0  0  0  0  0  0  0
   19.2927  -21.2770  -10.9497 O   0  0  0  0  0  0  0  0  0  0  0  0
  2  1  1  6
  2  3  1  0
  3  4  1  0
  4  5  2  0
  5  6  1  0
  7  8  2  0
  7  6  1  0
  9  8  1  0
 10  9  2  0
 11 10  1  0
 11 12  2  0
 12  4  1  0
 12  7  1  0
 13  2  1  0
 14 13  2  0
 15 13  1  0
 16 17  1  1
 16 15  1  0
 18 17  1  0
 19 18  2  0
 20 21  1  0
 20 19  1  0
 21 26  2  0
 22 21  1  0
 22 23  2  0
 23 24  1  0
 24 25  2  0
 26 18  1  0
 26 25  1  0
 27 16  1  0
 28 27  2  0
 30 29  1  6
 31 30  1  0
 32 30  1  0
 32 33  1  1
 33 27  1  0
 34 32  1  0
 34 36  1  0
 35 34  2  0
M  END
$$$$
