WWV.pdb
     RDKit          3D

 36 39  0  0  1  0  0  0  0  0999 V2000
   24.2775  -20.0817  -13.6531 N   0  0  0  0  0  0  0  0  0  0  0  0
   23.2166  -20.0279  -12.6467 C   0  0  1  0  0  0  0  0  0  0  0  0
   21.9428  -20.4134  -13.3997 C   0  0  0  0  0  0  0  0  0  0  0  0
   21.6386  -19.4063  -14.4543 C   0  0  0  0  0  0  0  0  0  0  0  0
   22.5563  -18.5255  -15.0383 C   0  0  0  0  0  0  0  0  0  0  0  0
   21.9082  -17.7729  -15.9446 N   0  0  0  0  0  0  0  0  0  0  0  0
   20.5987  -18.1267  -15.9796 C   0  0  0  0  0  0  0  0  0  0  0  0
   19.5231  -17.6608  -16.7368 C   0  0  0  0  0  0  0  0  0  0  0  0
   18.2573  -18.1981  -16.5856 C   0  0  0  0  0  0  0  0  0  0  0  0
   18.1049  -19.2080  -15.6589 C   0  0  0  0  0  0  0  0  0  0  0  0
   19.1630  -19.6666  -14.9143 C   0  0  0  0  0  0  0  0  0  0  0  0
   20.4382  -19.1307  -15.0614 C   0  0  0  0  0  0  0  0  0  0  0  0
   23.4658  -21.0974  -11.6392 C   0  0  0  0  0  0  0  0  0  0  0  0
   24.4059  -21.9346  -11.7489 O   0  0  0  0  0  0  0  0  0  0  0  0
   22.6265  -21.1838  -10.5094 N   0  0  0  0  0  0  0  0  0  0  0  0
   23.1449  -21.3467   -9.1513 C   0  0  1  0  0  0  0  0  0  0  0  0
   24.1432  -20.2529   -8.9599 C   0  0  0  0  0  0  0  0  0  0  0  0
   25.5517  -20.6521   -9.0903 C   0  0  0  0  0  0  0  0  0  0  0  0
   26.2089  -21.4231  -10.0281 C   0  0  0  0  0  0  0  0  0  0  0  0
   27.5131  -21.4967   -9.7108 N   0  0  0  0  0  0  0  0  0  0  0  0
   27.7703  -20.7986   -8.5836 C   0  0  0  0  0  0  0  0  0  0  0  0
   28.9236  -20.5675   -7.8674 C   0  0  0  0  0  0  0  0  0  0  0  0
   28.8968  -19.7990   -6.7349 C   0  0  0  0  0  0  0  0  0  0  0  0
   27.6975  -19.2541   -6.3127 C   0  0  0  0  0  0  0  0  0  0  0  0
   26.5550  -19.4945   -7.0381 C   0  0  0  0  0  0  0  0  0  0  0  0
   26.5455  -20.2648   -8.1853 C   0  0  0  0  0  0  0  0  0  0  0  0
   22.0514  -21.3811   -8.1611 C   0  0  0  0  0  0  0  0  0  0  0  0
   22.2058  -21.2342   -6.9342 O   0  0  0  0  0  0  0  0  0  0  0  0
   19.1393  -25.0186   -8.6843 C   0  0  0  0  0  0  0  0  0  0  0  0
   20.0594  -23.8685   -9.0320 C   0  0  1  0  0  0  0  0  0  0  0  0
   19.7568  -23.5736  -10.5162 C   0  0  0  0  0  0  0  0  0  0  0  0
   19.8591  -22.6646   -8.2091 C   0  0  2  0  0  0  0  0  0  0  0  0
   20.7255  -21.5986   -8.6200 N   0  0  0  0  0  0  0  0  0  0  0  0
   19.9548  -22.9073   -6.7342 C   0  0  0  0  0  0  0  0  0  0  0  0
   18.9990  -22.6657   -5.9701 O   0  0  0  0  0  0  0  0  0  0  0  0
   21.1182  -23.4105   -6.1648 O   0  0  0  0  0  0  0  0  0  0  0  0
  2  1  1  6
  2  3  1  0
  3  4  1  0
  4  5  2  0
  5  6  1  0
  7  8  2  0
  7  6  1  0
  9  8  1  0
 10  9  2  0
 11 10  1  0
 11 12  2  0
 12  4  1  0
 12  7  1  0
 13  2  1  0
 14 13  2  0
 15 13  1  0
 16 17  1  1
 16 15  1  0
 18 17  1  0
 19 18  2  0
 20 21  1  0
 20 19  1  0
 21 26  2  0
 22 21  1  0
 22 23  2  0
 23 24  1  0
 24 25  2  0
 26 18  1  0
 26 25  1  0
 27 16  1  0
 28 27  2  0
 30 29  1  1
 31 30  1  0
 32 30  1  0
 32 33  1  6
 33 27  1  0
 34 32  1  0
 34 36  1  0
 35 34  2  0
M  END
$$$$
