YRF.pdb
     RDKit          3D

 35 36  0  0  1  0  0  0  0  0999 V2000
    7.5537  -13.4203   15.7968 O   0  0  0  0  0  0  0  0  0  0  0  0
    7.4849  -13.7375   17.1307 C   0  0  0  0  0  0  0  0  0  0  0  0
    7.8630  -12.8006   18.0916 C   0  0  0  0  0  0  0  0  0  0  0  0
    7.8005  -13.1024   19.4218 C   0  0  0  0  0  0  0  0  0  0  0  0
    7.3648  -14.3318   19.8488 C   0  0  0  0  0  0  0  0  0  0  0  0
    7.3231  -14.6013   21.3112 C   0  0  0  0  0  0  0  0  0  0  0  0
    8.7519  -14.5675   21.8709 C   0  0  2  0  0  0  0  0  0  0  0  0
    9.5893  -14.9573   20.7430 N   0  0  0  0  0  0  0  0  0  0  0  0
    8.7714  -15.5867   22.9536 C   0  0  0  0  0  0  0  0  0  0  0  0
    7.9683  -15.5506   23.8775 O   0  0  0  0  0  0  0  0  0  0  0  0
    6.9906  -15.2626   18.9334 C   0  0  0  0  0  0  0  0  0  0  0  0
    7.0563  -14.9516   17.5817 C   0  0  0  0  0  0  0  0  0  0  0  0
   10.9882  -23.3581   25.2584 N   0  0  0  0  0  0  0  0  0  0  0  0
   10.6297  -22.9658   23.9132 C   0  0  0  0  0  0  0  0  0  0  0  0
   10.0038  -23.6662   23.1514 N   0  0  0  0  0  0  0  0  0  0  0  0
   11.0614  -21.6590   23.4864 N   0  0  0  0  0  0  0  0  0  0  0  0
   11.7069  -20.8185   24.4725 C   0  0  0  0  0  0  0  0  0  0  0  0
   10.8335  -19.6594   24.8643 C   0  0  0  0  0  0  0  0  0  0  0  0
   10.6144  -18.7611   23.7142 C   0  0  0  0  0  0  0  0  0  0  0  0
    9.7945  -17.5166   24.0883 C   0  0  2  0  0  0  0  0  0  0  0  0
    9.7430  -16.6541   22.9404 N   0  0  0  0  0  0  0  0  0  0  0  0
   10.3115  -16.8515   25.2606 C   0  0  0  0  0  0  0  0  0  0  0  0
   11.4046  -16.1760   25.2582 O   0  0  0  0  0  0  0  0  0  0  0  0
    9.5277  -24.1526   22.5150 N   0  0  0  0  0  0  0  0  0  0  0  0
    9.6270  -16.9086   26.4954 C   0  0  2  0  0  0  0  0  0  0  0  0
   10.1067  -16.1618   27.6667 C   0  0  0  0  0  0  0  0  0  0  0  0
    8.9414  -15.5254   28.3760 C   0  0  0  0  0  0  0  0  0  0  0  0
    8.2937  -14.5140   27.5348 C   0  0  0  0  0  0  0  0  0  0  0  0
    7.2275  -14.8241   26.7148 C   0  0  0  0  0  0  0  0  0  0  0  0
    6.6040  -13.8238   25.9595 C   0  0  0  0  0  0  0  0  0  0  0  0
    7.0124  -12.5117   25.9951 C   0  0  0  0  0  0  0  0  0  0  0  0
    8.0825  -12.1843   26.8090 C   0  0  0  0  0  0  0  0  0  0  0  0
    8.6828  -13.1733   27.5444 C   0  0  0  0  0  0  0  0  0  0  0  0
   10.9621  -17.0102   28.5009 O   0  0  0  0  0  0  0  0  0  0  0  0
   11.8836  -16.5558   29.4224 O   0  0  0  0  0  0  0  0  0  0  0  0
  2  1  1  0
  3  2  2  0
  4  3  1  0
  5 11  1  0
  5  4  2  0
  6  5  1  0
  7  6  1  0
  7  8  1  6
  9  7  1  0
 10  9  2  0
 11 12  2  0
 12  2  1  0
 13 14  1  0
 14 16  1  0
 15 14  2  0
 16 17  1  0
 17 18  1  0
 18 19  1  0
 20 19  1  6
 20 22  1  0
 20 21  1  0
 21  9  1  0
 22 24  1  0
 23 22  2  0
 24 25  1  0
 25 26  1  6
 26 27  1  0
 27 28  2  0
 28 29  1  0
 30 29  2  0
 31 30  1  0
 32 27  1  0
 32 31  2  0
 33 34  1  0
 33 25  1  0
 35 33  2  0
M  END
$$$$
