YRF.pdb
     RDKit          3D

 35 36  0  0  1  0  0  0  0  0999 V2000
    9.3904  -12.3849   16.9131 O   0  0  0  0  0  0  0  0  0  0  0  0
    8.7729  -12.8862   18.0320 C   0  0  0  0  0  0  0  0  0  0  0  0
    9.5363  -13.3320   19.1104 C   0  0  0  0  0  0  0  0  0  0  0  0
    8.9357  -13.8336   20.2293 C   0  0  0  0  0  0  0  0  0  0  0  0
    7.5688  -13.9124   20.3240 C   0  0  0  0  0  0  0  0  0  0  0  0
    6.9747  -14.4721   21.5676 C   0  0  0  0  0  0  0  0  0  0  0  0
    6.8421  -15.9943   21.4221 C   0  0  2  0  0  0  0  0  0  0  0  0
    5.5433  -16.1832   20.7874 N   0  0  0  0  0  0  0  0  0  0  0  0
    6.8616  -16.5227   22.8120 C   0  0  0  0  0  0  0  0  0  0  0  0
    5.9654  -16.2631   23.6052 O   0  0  0  0  0  0  0  0  0  0  0  0
    6.8020  -13.4849   19.2879 C   0  0  0  0  0  0  0  0  0  0  0  0
    7.4169  -12.9760   18.1516 C   0  0  0  0  0  0  0  0  0  0  0  0
    8.2193  -22.3100   27.9233 N   0  0  0  0  0  0  0  0  0  0  0  0
    6.8302  -22.2692   27.5228 C   0  0  0  0  0  0  0  0  0  0  0  0
    5.9604  -22.9325   28.0390 N   0  0  0  0  0  0  0  0  0  0  0  0
    6.4974  -21.3779   26.4406 N   0  0  0  0  0  0  0  0  0  0  0  0
    6.8964  -19.9929   26.5752 C   0  0  0  0  0  0  0  0  0  0  0  0
    8.3026  -19.7756   26.0903 C   0  0  0  0  0  0  0  0  0  0  0  0
    8.3021  -19.2556   24.7092 C   0  0  0  0  0  0  0  0  0  0  0  0
    7.9416  -17.7635   24.6432 C   0  0  2  0  0  0  0  0  0  0  0  0
    7.9443  -17.3640   23.2630 N   0  0  0  0  0  0  0  0  0  0  0  0
    8.8138  -16.9520   25.4585 C   0  0  0  0  0  0  0  0  0  0  0  0
    9.9738  -16.5605   25.0684 O   0  0  0  0  0  0  0  0  0  0  0  0
    5.2420  -23.3972   28.4078 N   0  0  0  0  0  0  0  0  0  0  0  0
    8.4279  -16.5366   26.7528 C   0  0  2  0  0  0  0  0  0  0  0  0
    9.3150  -15.7094   27.5826 C   0  0  0  0  0  0  0  0  0  0  0  0
    8.4990  -14.7125   28.3613 C   0  0  0  0  0  0  0  0  0  0  0  0
    7.7799  -13.7989   27.4678 C   0  0  0  0  0  0  0  0  0  0  0  0
    6.4854  -14.0494   27.0595 C   0  0  0  0  0  0  0  0  0  0  0  0
    5.8131  -13.1325   26.2427 C   0  0  0  0  0  0  0  0  0  0  0  0
    6.3947  -11.9625   25.8153 C   0  0  0  0  0  0  0  0  0  0  0  0
    7.6936  -11.6977   26.2122 C   0  0  0  0  0  0  0  0  0  0  0  0
    8.3396  -12.6034   27.0133 C   0  0  0  0  0  0  0  0  0  0  0  0
   10.2042  -16.5551   28.3835 O   0  0  0  0  0  0  0  0  0  0  0  0
   10.2157  -17.9352   28.3761 O   0  0  0  0  0  0  0  0  0  0  0  0
  2  1  1  0
  3  2  2  0
  4  3  1  0
  5 11  1  0
  5  4  2  0
  6  5  1  0
  7  6  1  0
  7  8  1  1
  9  7  1  0
 10  9  2  0
 11 12  2  0
 12  2  1  0
 13 14  1  0
 14 16  1  0
 15 14  2  0
 16 17  1  0
 17 18  1  0
 18 19  1  0
 20 19  1  6
 20 22  1  0
 20 21  1  0
 21  9  1  0
 22 24  1  0
 23 22  2  0
 24 25  1  0
 25 26  1  6
 26 27  1  0
 27 28  2  0
 28 29  1  0
 30 29  2  0
 31 30  1  0
 32 27  1  0
 32 31  2  0
 33 34  1  0
 33 25  1  0
 35 33  2  0
M  END
$$$$
