YRF.pdb
     RDKit          3D

 35 36  0  0  1  0  0  0  0  0999 V2000
    7.5151  -12.4642   16.6783 O   0  0  0  0  0  0  0  0  0  0  0  0
    7.5576  -12.9971   17.9427 C   0  0  0  0  0  0  0  0  0  0  0  0
    7.6645  -14.3766   18.1158 C   0  0  0  0  0  0  0  0  0  0  0  0
    7.7072  -14.9207   19.3674 C   0  0  0  0  0  0  0  0  0  0  0  0
    7.6469  -14.1280   20.4862 C   0  0  0  0  0  0  0  0  0  0  0  0
    7.6941  -14.7810   21.8220 C   0  0  0  0  0  0  0  0  0  0  0  0
    7.8731  -16.2941   21.6373 C   0  0  2  0  0  0  0  0  0  0  0  0
    6.5122  -16.8083   21.5420 N   0  0  0  0  0  0  0  0  0  0  0  0
    8.5562  -16.7603   22.8733 C   0  0  0  0  0  0  0  0  0  0  0  0
    7.9201  -17.1278   23.8531 O   0  0  0  0  0  0  0  0  0  0  0  0
    7.5426  -12.7813   20.3455 C   0  0  0  0  0  0  0  0  0  0  0  0
    7.4989  -12.2323   19.0708 C   0  0  0  0  0  0  0  0  0  0  0  0
   12.3354  -19.9765   20.2943 N   0  0  0  0  0  0  0  0  0  0  0  0
   12.8035  -21.1691   20.9654 C   0  0  0  0  0  0  0  0  0  0  0  0
   12.7053  -22.2834   20.5057 N   0  0  0  0  0  0  0  0  0  0  0  0
   13.4151  -20.9838   22.2569 N   0  0  0  0  0  0  0  0  0  0  0  0
   13.3937  -19.6486   22.8157 C   0  0  0  0  0  0  0  0  0  0  0  0
   11.9951  -19.2187   23.1607 C   0  0  0  0  0  0  0  0  0  0  0  0
   11.9975  -17.8667   23.7522 C   0  0  0  0  0  0  0  0  0  0  0  0
   10.5858  -17.3832   24.1188 C   0  0  2  0  0  0  0  0  0  0  0  0
    9.9973  -16.7944   22.9478 N   0  0  0  0  0  0  0  0  0  0  0  0
   10.5900  -16.4861   25.2499 C   0  0  0  0  0  0  0  0  0  0  0  0
   11.2066  -15.3587   25.2477 O   0  0  0  0  0  0  0  0  0  0  0  0
   12.6220  -23.1664   20.2198 N   0  0  0  0  0  0  0  0  0  0  0  0
    9.9006  -16.8074   26.4407 C   0  0  1  0  0  0  0  0  0  0  0  0
   10.0034  -15.9547   27.6332 C   0  0  0  0  0  0  0  0  0  0  0  0
    8.6255  -15.6129   28.1340 C   0  0  0  0  0  0  0  0  0  0  0  0
    7.9984  -14.5793   27.3043 C   0  0  0  0  0  0  0  0  0  0  0  0
    8.3465  -13.2481   27.4139 C   0  0  0  0  0  0  0  0  0  0  0  0
    7.7601  -12.2939   26.5739 C   0  0  0  0  0  0  0  0  0  0  0  0
    6.8290  -12.6265   25.6189 C   0  0  0  0  0  0  0  0  0  0  0  0
    6.4657  -13.9562   25.4983 C   0  0  0  0  0  0  0  0  0  0  0  0
    7.0489  -14.8803   26.3262 C   0  0  0  0  0  0  0  0  0  0  0  0
   10.8981  -16.5618   28.6223 O   0  0  0  0  0  0  0  0  0  0  0  0
   11.5024  -17.7967   28.5020 O   0  0  0  0  0  0  0  0  0  0  0  0
  2  1  1  0
  3  2  2  0
  4  3  1  0
  5 11  1  0
  5  4  2  0
  6  5  1  0
  7  6  1  0
  7  8  1  1
  9  7  1  0
 10  9  2  0
 11 12  2  0
 12  2  1  0
 13 14  1  0
 14 16  1  0
 15 14  2  0
 16 17  1  0
 17 18  1  0
 18 19  1  0
 20 19  1  6
 20 22  1  0
 20 21  1  0
 21  9  1  0
 22 24  1  0
 23 22  2  0
 24 25  1  0
 25 26  1  6
 26 27  1  0
 27 28  2  0
 28 29  1  0
 30 29  2  0
 31 30  1  0
 32 27  1  0
 32 31  2  0
 33 34  1  0
 33 25  1  0
 35 33  2  0
M  END
$$$$
