YRF.pdb
     RDKit          3D

 35 36  0  0  1  0  0  0  0  0999 V2000
    3.9522  -24.0891   27.2800 O   0  0  0  0  0  0  0  0  0  0  0  0
    4.6528  -23.0005   26.8230 C   0  0  0  0  0  0  0  0  0  0  0  0
    4.0727  -22.1359   25.8954 C   0  0  0  0  0  0  0  0  0  0  0  0
    4.7578  -21.0497   25.4317 C   0  0  0  0  0  0  0  0  0  0  0  0
    6.0319  -20.7790   25.8643 C   0  0  0  0  0  0  0  0  0  0  0  0
    6.7274  -19.5826   25.3187 C   0  0  0  0  0  0  0  0  0  0  0  0
    6.7615  -19.6742   23.7869 C   0  0  2  0  0  0  0  0  0  0  0  0
    7.3394  -20.9853   23.5179 N   0  0  0  0  0  0  0  0  0  0  0  0
    7.6597  -18.5726   23.3498 C   0  0  0  0  0  0  0  0  0  0  0  0
    8.8731  -18.6415   23.5008 O   0  0  0  0  0  0  0  0  0  0  0  0
    6.6201  -21.6053   26.7675 C   0  0  0  0  0  0  0  0  0  0  0  0
    5.9198  -22.7090   27.2360 C   0  0  0  0  0  0  0  0  0  0  0  0
    8.1790  -14.8300   15.8109 N   0  0  0  0  0  0  0  0  0  0  0  0
    7.7911  -14.0757   16.9824 C   0  0  0  0  0  0  0  0  0  0  0  0
    7.1424  -13.0557   16.9427 N   0  0  0  0  0  0  0  0  0  0  0  0
    8.2213  -14.5961   18.2554 N   0  0  0  0  0  0  0  0  0  0  0  0
    7.7693  -13.9023   19.4428 C   0  0  0  0  0  0  0  0  0  0  0  0
    8.3423  -14.5152   20.6901 C   0  0  0  0  0  0  0  0  0  0  0  0
    7.4000  -15.4918   21.2701 C   0  0  0  0  0  0  0  0  0  0  0  0
    8.0439  -16.3461   22.3730 C   0  0  2  0  0  0  0  0  0  0  0  0
    7.1195  -17.3869   22.7286 N   0  0  0  0  0  0  0  0  0  0  0  0
    8.4550  -15.5558   23.5089 C   0  0  0  0  0  0  0  0  0  0  0  0
    8.4467  -14.2708   23.5084 O   0  0  0  0  0  0  0  0  0  0  0  0
    6.5837  -12.3112   16.9011 N   0  0  0  0  0  0  0  0  0  0  0  0
    8.8946  -16.1672   24.7046 C   0  0  1  0  0  0  0  0  0  0  0  0
   10.0084  -15.6055   25.4817 C   0  0  0  0  0  0  0  0  0  0  0  0
    9.9333  -14.1021   25.4639 C   0  0  0  0  0  0  0  0  0  0  0  0
    8.7184  -13.6216   26.1297 C   0  0  0  0  0  0  0  0  0  0  0  0
    8.7104  -13.2718   27.4649 C   0  0  0  0  0  0  0  0  0  0  0  0
    7.5436  -12.7735   28.0568 C   0  0  0  0  0  0  0  0  0  0  0  0
    6.3732  -12.6109   27.3545 C   0  0  0  0  0  0  0  0  0  0  0  0
    6.3628  -12.9606   26.0157 C   0  0  0  0  0  0  0  0  0  0  0  0
    7.5126  -13.4458   25.4484 C   0  0  0  0  0  0  0  0  0  0  0  0
   10.0642  -16.2156   26.8129 O   0  0  0  0  0  0  0  0  0  0  0  0
    9.1568  -17.1273   27.3130 O   0  0  0  0  0  0  0  0  0  0  0  0
  2  1  1  0
  3  2  2  0
  4  3  1  0
  5 11  1  0
  5  4  2  0
  6  5  1  0
  7  6  1  0
  7  8  1  1
  9  7  1  0
 10  9  2  0
 11 12  2  0
 12  2  1  0
 13 14  1  0
 14 16  1  0
 15 14  2  0
 16 17  1  0
 17 18  1  0
 18 19  1  0
 20 19  1  6
 20 22  1  0
 20 21  1  0
 21  9  1  0
 22 24  1  0
 23 22  2  0
 24 25  1  0
 25 26  1  6
 26 27  1  0
 27 28  2  0
 28 29  1  0
 30 29  2  0
 31 30  1  0
 32 27  1  0
 32 31  2  0
 33 34  1  0
 33 25  1  0
 35 33  2  0
M  END
$$$$
