YRF.pdb
     RDKit          3D

 35 36  0  0  1  0  0  0  0  0999 V2000
    6.9094  -22.3259   29.7532 O   0  0  0  0  0  0  0  0  0  0  0  0
    6.9468  -21.4414   28.7040 C   0  0  0  0  0  0  0  0  0  0  0  0
    7.8453  -20.3752   28.7211 C   0  0  0  0  0  0  0  0  0  0  0  0
    7.8932  -19.4874   27.6849 C   0  0  0  0  0  0  0  0  0  0  0  0
    7.0616  -19.6192   26.6010 C   0  0  0  0  0  0  0  0  0  0  0  0
    7.1592  -18.6173   25.5058 C   0  0  0  0  0  0  0  0  0  0  0  0
    6.5233  -19.1965   24.2346 C   0  0  2  0  0  0  0  0  0  0  0  0
    6.9551  -20.5889   24.2188 N   0  0  0  0  0  0  0  0  0  0  0  0
    7.1154  -18.4201   23.1130 C   0  0  0  0  0  0  0  0  0  0  0  0
    8.1007  -18.8243   22.5083 O   0  0  0  0  0  0  0  0  0  0  0  0
    6.1771  -20.6489   26.5594 C   0  0  0  0  0  0  0  0  0  0  0  0
    6.1314  -21.5491   27.6156 C   0  0  0  0  0  0  0  0  0  0  0  0
    8.8793  -14.4857   17.8073 N   0  0  0  0  0  0  0  0  0  0  0  0
    7.9485  -13.4132   17.5335 C   0  0  0  0  0  0  0  0  0  0  0  0
    7.5929  -13.0971   16.4216 N   0  0  0  0  0  0  0  0  0  0  0  0
    7.4359  -12.6979   18.6746 N   0  0  0  0  0  0  0  0  0  0  0  0
    6.6251  -13.4422   19.6148 C   0  0  0  0  0  0  0  0  0  0  0  0
    7.4664  -14.3454   20.4728 C   0  0  0  0  0  0  0  0  0  0  0  0
    6.6143  -15.1763   21.3452 C   0  0  0  0  0  0  0  0  0  0  0  0
    7.4302  -16.1539   22.2052 C   0  0  2  0  0  0  0  0  0  0  0  0
    6.5368  -17.1625   22.7042 N   0  0  0  0  0  0  0  0  0  0  0  0
    8.1559  -15.4839   23.2579 C   0  0  0  0  0  0  0  0  0  0  0  0
    7.9326  -14.2647   23.5968 O   0  0  0  0  0  0  0  0  0  0  0  0
    7.2913  -12.7927   15.5942 N   0  0  0  0  0  0  0  0  0  0  0  0
    9.1682  -16.1486   23.9860 C   0  0  1  0  0  0  0  0  0  0  0  0
   10.0826  -15.4088   24.8671 C   0  0  0  0  0  0  0  0  0  0  0  0
    9.4655  -15.2622   26.2322 C   0  0  0  0  0  0  0  0  0  0  0  0
    8.4356  -14.2186   26.2420 C   0  0  0  0  0  0  0  0  0  0  0  0
    7.0899  -14.5247   26.2645 C   0  0  0  0  0  0  0  0  0  0  0  0
    6.1346  -13.5028   26.3194 C   0  0  0  0  0  0  0  0  0  0  0  0
    6.4802  -12.1727   26.3529 C   0  0  0  0  0  0  0  0  0  0  0  0
    7.8250  -11.8482   26.3270 C   0  0  0  0  0  0  0  0  0  0  0  0
    8.7499  -12.8587   26.2747 C   0  0  0  0  0  0  0  0  0  0  0  0
   11.4180  -16.0118   24.8431 O   0  0  0  0  0  0  0  0  0  0  0  0
   12.5471  -15.4771   25.4295 O   0  0  0  0  0  0  0  0  0  0  0  0
  2  1  1  0
  3  2  2  0
  4  3  1  0
  5 11  1  0
  5  4  2  0
  6  5  1  0
  7  6  1  0
  7  8  1  6
  9  7  1  0
 10  9  2  0
 11 12  2  0
 12  2  1  0
 13 14  1  0
 14 16  1  0
 15 14  2  0
 16 17  1  0
 17 18  1  0
 18 19  1  0
 20 19  1  1
 20 22  1  0
 20 21  1  0
 21  9  1  0
 22 24  1  0
 23 22  2  0
 24 25  1  0
 25 26  1  6
 26 27  1  0
 27 28  2  0
 28 29  1  0
 30 29  2  0
 31 30  1  0
 32 27  1  0
 32 31  2  0
 33 34  1  0
 33 25  1  0
 35 33  2  0
M  END
$$$$
