YRF.pdb
     RDKit          3D

 35 36  0  0  1  0  0  0  0  0999 V2000
    8.1613  -11.6737   17.0815 O   0  0  0  0  0  0  0  0  0  0  0  0
    7.9049  -12.4275   18.1999 C   0  0  0  0  0  0  0  0  0  0  0  0
    8.8100  -12.4332   19.2607 C   0  0  0  0  0  0  0  0  0  0  0  0
    8.5683  -13.1786   20.3789 C   0  0  0  0  0  0  0  0  0  0  0  0
    7.4318  -13.9399   20.4900 C   0  0  0  0  0  0  0  0  0  0  0  0
    7.2276  -14.7331   21.7318 C   0  0  0  0  0  0  0  0  0  0  0  0
    7.7795  -16.1498   21.5215 C   0  0  2  0  0  0  0  0  0  0  0  0
    6.7599  -16.8178   20.7216 N   0  0  0  0  0  0  0  0  0  0  0  0
    7.8850  -16.7342   22.8848 C   0  0  0  0  0  0  0  0  0  0  0  0
    6.8928  -17.1134   23.4944 O   0  0  0  0  0  0  0  0  0  0  0  0
    6.5339  -13.9520   19.4712 C   0  0  0  0  0  0  0  0  0  0  0  0
    6.7839  -13.1929   18.3356 C   0  0  0  0  0  0  0  0  0  0  0  0
   10.9493  -22.1901   21.4667 N   0  0  0  0  0  0  0  0  0  0  0  0
   12.0637  -21.2858   21.2872 C   0  0  0  0  0  0  0  0  0  0  0  0
   12.7357  -21.2355   20.2830 N   0  0  0  0  0  0  0  0  0  0  0  0
   12.3659  -20.4088   22.3900 N   0  0  0  0  0  0  0  0  0  0  0  0
   11.3958  -20.3319   23.4617 C   0  0  0  0  0  0  0  0  0  0  0  0
   10.7510  -18.9753   23.5241 C   0  0  0  0  0  0  0  0  0  0  0  0
    9.8151  -18.8961   24.6624 C   0  0  0  0  0  0  0  0  0  0  0  0
    9.1997  -17.4971   24.8209 C   0  0  2  0  0  0  0  0  0  0  0  0
    9.1702  -16.8730   23.5271 N   0  0  0  0  0  0  0  0  0  0  0  0
    9.8929  -16.7017   25.8062 C   0  0  0  0  0  0  0  0  0  0  0  0
   10.9683  -16.0474   25.5480 O   0  0  0  0  0  0  0  0  0  0  0  0
   13.3073  -21.1696   19.5501 N   0  0  0  0  0  0  0  0  0  0  0  0
    9.4134  -16.5979   27.1313 C   0  0  1  0  0  0  0  0  0  0  0  0
   10.1187  -15.7882   28.1346 C   0  0  0  0  0  0  0  0  0  0  0  0
    9.1652  -14.8007   28.7525 C   0  0  0  0  0  0  0  0  0  0  0  0
    8.5260  -13.9663   27.7301 C   0  0  0  0  0  0  0  0  0  0  0  0
    9.1158  -12.8095   27.2620 C   0  0  0  0  0  0  0  0  0  0  0  0
    8.4985  -12.0613   26.2525 C   0  0  0  0  0  0  0  0  0  0  0  0
    7.3008  -12.4321   25.6889 C   0  0  0  0  0  0  0  0  0  0  0  0
    6.6939  -13.5872   26.1494 C   0  0  0  0  0  0  0  0  0  0  0  0
    7.3100  -14.3111   27.1372 C   0  0  0  0  0  0  0  0  0  0  0  0
   10.8304  -16.6506   29.0817 O   0  0  0  0  0  0  0  0  0  0  0  0
   11.7796  -16.2279   29.9901 O   0  0  0  0  0  0  0  0  0  0  0  0
  2  1  1  0
  3  2  2  0
  4  3  1  0
  5 11  1  0
  5  4  2  0
  6  5  1  0
  7  6  1  0
  7  8  1  6
  9  7  1  0
 10  9  2  0
 11 12  2  0
 12  2  1  0
 13 14  1  0
 14 16  1  0
 15 14  2  0
 16 17  1  0
 17 18  1  0
 18 19  1  0
 20 19  1  6
 20 22  1  0
 20 21  1  0
 21  9  1  0
 22 24  1  0
 23 22  2  0
 24 25  1  0
 25 26  1  6
 26 27  1  0
 27 28  2  0
 28 29  1  0
 30 29  2  0
 31 30  1  0
 32 27  1  0
 32 31  2  0
 33 34  1  0
 33 25  1  0
 35 33  2  0
M  END
$$$$
