YRF.pdb
     RDKit          3D

 35 36  0  0  1  0  0  0  0  0999 V2000
   13.3343  -25.5619   21.6020 O   0  0  0  0  0  0  0  0  0  0  0  0
   13.1396  -24.2364   21.9018 C   0  0  0  0  0  0  0  0  0  0  0  0
   11.8546  -23.6957   21.8747 C   0  0  0  0  0  0  0  0  0  0  0  0
   11.6462  -22.3790   22.1699 C   0  0  0  0  0  0  0  0  0  0  0  0
   12.6917  -21.5538   22.5010 C   0  0  0  0  0  0  0  0  0  0  0  0
   12.4003  -20.1278   22.8085 C   0  0  0  0  0  0  0  0  0  0  0  0
   11.8893  -19.4326   21.5391 C   0  0  2  0  0  0  0  0  0  0  0  0
   13.0769  -19.2863   20.7063 N   0  0  0  0  0  0  0  0  0  0  0  0
   11.3683  -18.1173   21.9970 C   0  0  0  0  0  0  0  0  0  0  0  0
   12.1103  -17.2705   22.4789 O   0  0  0  0  0  0  0  0  0  0  0  0
   13.9533  -22.0553   22.5347 C   0  0  0  0  0  0  0  0  0  0  0  0
   14.1608  -23.3948   22.2333 C   0  0  0  0  0  0  0  0  0  0  0  0
    8.2184  -13.7615   18.6745 N   0  0  0  0  0  0  0  0  0  0  0  0
    7.8812  -12.6737   19.5659 C   0  0  0  0  0  0  0  0  0  0  0  0
    8.4025  -11.5831   19.5255 N   0  0  0  0  0  0  0  0  0  0  0  0
    6.8625  -12.9391   20.5499 N   0  0  0  0  0  0  0  0  0  0  0  0
    6.7125  -14.3077   20.9971 C   0  0  0  0  0  0  0  0  0  0  0  0
    7.8523  -14.7250   21.8840 C   0  0  0  0  0  0  0  0  0  0  0  0
    8.3254  -16.0754   21.5224 C   0  0  0  0  0  0  0  0  0  0  0  0
    9.5313  -16.5205   22.3641 C   0  0  2  0  0  0  0  0  0  0  0  0
    9.9644  -17.8024   21.8808 N   0  0  0  0  0  0  0  0  0  0  0  0
    9.2399  -16.5289   23.7780 C   0  0  0  0  0  0  0  0  0  0  0  0
    8.5659  -17.4621   24.3490 O   0  0  0  0  0  0  0  0  0  0  0  0
    8.8064  -10.7445   19.5672 N   0  0  0  0  0  0  0  0  0  0  0  0
    9.6919  -15.4913   24.6240 C   0  0  1  0  0  0  0  0  0  0  0  0
    9.5544  -15.5856   26.0841 C   0  0  0  0  0  0  0  0  0  0  0  0
    8.0969  -15.6547   26.4540 C   0  0  0  0  0  0  0  0  0  0  0  0
    7.4528  -14.3434   26.3291 C   0  0  0  0  0  0  0  0  0  0  0  0
    6.0798  -14.2079   26.2903 C   0  0  0  0  0  0  0  0  0  0  0  0
    5.4979  -12.9367   26.2164 C   0  0  0  0  0  0  0  0  0  0  0  0
    6.2473  -11.7849   26.1796 C   0  0  0  0  0  0  0  0  0  0  0  0
    7.6255  -11.9029   26.2137 C   0  0  0  0  0  0  0  0  0  0  0  0
    8.1820  -13.1536   26.2875 C   0  0  0  0  0  0  0  0  0  0  0  0
   10.3874  -16.6710   26.6089 O   0  0  0  0  0  0  0  0  0  0  0  0
   11.1452  -17.5370   25.8469 O   0  0  0  0  0  0  0  0  0  0  0  0
  2  1  1  0
  3  2  2  0
  4  3  1  0
  5 11  1  0
  5  4  2  0
  6  5  1  0
  7  6  1  0
  7  8  1  6
  9  7  1  0
 10  9  2  0
 11 12  2  0
 12  2  1  0
 13 14  1  0
 14 16  1  0
 15 14  2  0
 16 17  1  0
 17 18  1  0
 18 19  1  0
 20 19  1  6
 20 22  1  0
 20 21  1  0
 21  9  1  0
 22 24  1  0
 23 22  2  0
 24 25  1  0
 25 26  1  1
 26 27  1  0
 27 28  2  0
 28 29  1  0
 30 29  2  0
 31 30  1  0
 32 27  1  0
 32 31  2  0
 33 34  1  0
 33 25  1  0
 35 33  2  0
M  END
$$$$
