YRF.pdb
     RDKit          3D

 35 36  0  0  1  0  0  0  0  0999 V2000
   -0.6426  -20.5419   22.0758 O   0  0  0  0  0  0  0  0  0  0  0  0
    0.6211  -20.0441   22.2754 C   0  0  0  0  0  0  0  0  0  0  0  0
    1.4661  -20.6389   23.2116 C   0  0  0  0  0  0  0  0  0  0  0  0
    2.7252  -20.1540   23.4212 C   0  0  0  0  0  0  0  0  0  0  0  0
    3.1930  -19.0719   22.7183 C   0  0  0  0  0  0  0  0  0  0  0  0
    4.5724  -18.5886   22.9948 C   0  0  0  0  0  0  0  0  0  0  0  0
    5.3597  -18.5311   21.6786 C   0  0  2  0  0  0  0  0  0  0  0  0
    5.6919  -19.9225   21.3972 N   0  0  0  0  0  0  0  0  0  0  0  0
    6.5705  -17.7231   21.9827 C   0  0  0  0  0  0  0  0  0  0  0  0
    7.6293  -18.2538   22.2945 O   0  0  0  0  0  0  0  0  0  0  0  0
    2.3901  -18.4741   21.8005 C   0  0  0  0  0  0  0  0  0  0  0  0
    1.1102  -18.9701   21.5910 C   0  0  0  0  0  0  0  0  0  0  0  0
    7.6159  -13.1057   16.6000 N   0  0  0  0  0  0  0  0  0  0  0  0
    8.9593  -13.3960   17.0502 C   0  0  0  0  0  0  0  0  0  0  0  0
    9.7321  -14.1069   16.4502 N   0  0  0  0  0  0  0  0  0  0  0  0
    9.3682  -12.7889   18.2915 N   0  0  0  0  0  0  0  0  0  0  0  0
    8.4492  -12.8752   19.4067 C   0  0  0  0  0  0  0  0  0  0  0  0
    8.6720  -14.1275   20.2079 C   0  0  0  0  0  0  0  0  0  0  0  0
    7.6546  -14.2538   21.2693 C   0  0  0  0  0  0  0  0  0  0  0  0
    7.7732  -15.5763   22.0426 C   0  0  2  0  0  0  0  0  0  0  0  0
    6.5282  -16.2819   21.9141 N   0  0  0  0  0  0  0  0  0  0  0  0
    8.1579  -15.3738   23.4192 C   0  0  0  0  0  0  0  0  0  0  0  0
    7.9684  -14.2672   24.0442 O   0  0  0  0  0  0  0  0  0  0  0  0
   10.3375  -14.5995   15.9413 N   0  0  0  0  0  0  0  0  0  0  0  0
    8.7732  -16.4038   24.1656 C   0  0  1  0  0  0  0  0  0  0  0  0
    9.2201  -16.1794   25.5476 C   0  0  0  0  0  0  0  0  0  0  0  0
    8.0252  -16.0002   26.4454 C   0  0  0  0  0  0  0  0  0  0  0  0
    7.6226  -14.5923   26.5218 C   0  0  0  0  0  0  0  0  0  0  0  0
    8.4612  -13.6226   27.0333 C   0  0  0  0  0  0  0  0  0  0  0  0
    8.0616  -12.2809   27.0490 C   0  0  0  0  0  0  0  0  0  0  0  0
    6.8415  -11.8703   26.5669 C   0  0  0  0  0  0  0  0  0  0  0  0
    5.9870  -12.8303   26.0541 C   0  0  0  0  0  0  0  0  0  0  0  0
    6.3915  -14.1401   26.0435 C   0  0  0  0  0  0  0  0  0  0  0  0
   10.1627  -17.2236   25.9579 O   0  0  0  0  0  0  0  0  0  0  0  0
   10.8640  -17.2453   27.1463 O   0  0  0  0  0  0  0  0  0  0  0  0
  2  1  1  0
  3  2  2  0
  4  3  1  0
  5 11  1  0
  5  4  2  0
  6  5  1  0
  7  6  1  0
  7  8  1  1
  9  7  1  0
 10  9  2  0
 11 12  2  0
 12  2  1  0
 13 14  1  0
 14 16  1  0
 15 14  2  0
 16 17  1  0
 17 18  1  0
 18 19  1  0
 20 19  1  1
 20 22  1  0
 20 21  1  0
 21  9  1  0
 22 24  1  0
 23 22  2  0
 24 25  1  0
 25 26  1  1
 26 27  1  0
 27 28  2  0
 28 29  1  0
 30 29  2  0
 31 30  1  0
 32 27  1  0
 32 31  2  0
 33 34  1  0
 33 25  1  0
 35 33  2  0
M  END
$$$$
