YRF.pdb
     RDKit          3D

 35 36  0  0  1  0  0  0  0  0999 V2000
    9.1050  -11.7193   20.1444 O   0  0  0  0  0  0  0  0  0  0  0  0
    8.2443  -12.7749   20.3163 C   0  0  0  0  0  0  0  0  0  0  0  0
    7.7903  -13.1050   21.5927 C   0  0  0  0  0  0  0  0  0  0  0  0
    6.9346  -14.1527   21.7787 C   0  0  0  0  0  0  0  0  0  0  0  0
    6.4985  -14.9072   20.7184 C   0  0  0  0  0  0  0  0  0  0  0  0
    5.5699  -16.0380   20.9864 C   0  0  0  0  0  0  0  0  0  0  0  0
    6.1940  -17.3382   20.4613 C   0  0  2  0  0  0  0  0  0  0  0  0
    5.1546  -18.3412   20.6583 N   0  0  0  0  0  0  0  0  0  0  0  0
    7.3739  -17.5846   21.3322 C   0  0  0  0  0  0  0  0  0  0  0  0
    7.2471  -17.8030   22.5306 O   0  0  0  0  0  0  0  0  0  0  0  0
    6.9256  -14.6068   19.4647 C   0  0  0  0  0  0  0  0  0  0  0  0
    7.7962  -13.5409   19.2802 C   0  0  0  0  0  0  0  0  0  0  0  0
   14.6818  -19.7405   23.0546 N   0  0  0  0  0  0  0  0  0  0  0  0
   15.1021  -19.7401   21.6707 C   0  0  0  0  0  0  0  0  0  0  0  0
   16.2584  -19.7071   21.3178 N   0  0  0  0  0  0  0  0  0  0  0  0
   14.0566  -19.7788   20.6798 N   0  0  0  0  0  0  0  0  0  0  0  0
   12.6910  -19.8255   21.1575 C   0  0  0  0  0  0  0  0  0  0  0  0
   12.2271  -18.4763   21.6311 C   0  0  0  0  0  0  0  0  0  0  0  0
   11.0754  -18.0126   20.8332 C   0  0  0  0  0  0  0  0  0  0  0  0
    9.7933  -17.8860   21.6706 C   0  0  2  0  0  0  0  0  0  0  0  0
    8.7081  -17.5756   20.7815 N   0  0  0  0  0  0  0  0  0  0  0  0
    9.9290  -16.9248   22.7391 C   0  0  0  0  0  0  0  0  0  0  0  0
    9.6975  -15.6701   22.5864 O   0  0  0  0  0  0  0  0  0  0  0  0
   17.1293  -19.7194   20.9867 N   0  0  0  0  0  0  0  0  0  0  0  0
   10.3293  -17.3229   24.0344 C   0  0  1  0  0  0  0  0  0  0  0  0
   10.5492  -16.3351   25.1001 C   0  0  0  0  0  0  0  0  0  0  0  0
    9.2752  -16.1322   25.8758 C   0  0  0  0  0  0  0  0  0  0  0  0
    9.4559  -15.1496   26.9491 C   0  0  0  0  0  0  0  0  0  0  0  0
   10.1213  -15.4623   28.1173 C   0  0  0  0  0  0  0  0  0  0  0  0
   10.3152  -14.4862   29.1020 C   0  0  0  0  0  0  0  0  0  0  0  0
    9.8630  -13.1959   28.9588 C   0  0  0  0  0  0  0  0  0  0  0  0
    9.1903  -12.8666   27.7954 C   0  0  0  0  0  0  0  0  0  0  0  0
    9.0087  -13.8317   26.8389 C   0  0  0  0  0  0  0  0  0  0  0  0
   11.7213  -16.6975   25.9016 O   0  0  0  0  0  0  0  0  0  0  0  0
   11.8288  -17.8190   26.6986 O   0  0  0  0  0  0  0  0  0  0  0  0
  2  1  1  0
  3  2  2  0
  4  3  1  0
  5 11  1  0
  5  4  2  0
  6  5  1  0
  7  6  1  0
  7  8  1  1
  9  7  1  0
 10  9  2  0
 11 12  2  0
 12  2  1  0
 13 14  1  0
 14 16  1  0
 15 14  2  0
 16 17  1  0
 17 18  1  0
 18 19  1  0
 20 19  1  6
 20 22  1  0
 20 21  1  0
 21  9  1  0
 22 24  1  0
 23 22  2  0
 24 25  1  0
 25 26  1  1
 26 27  1  0
 27 28  2  0
 28 29  1  0
 30 29  2  0
 31 30  1  0
 32 27  1  0
 32 31  2  0
 33 34  1  0
 33 25  1  0
 35 33  2  0
M  END
$$$$
