YRF.pdb
     RDKit          3D

 35 36  0  0  1  0  0  0  0  0999 V2000
    5.9651  -23.5423   29.3249 O   0  0  0  0  0  0  0  0  0  0  0  0
    6.1393  -22.4518   28.5094 C   0  0  0  0  0  0  0  0  0  0  0  0
    7.2918  -21.6747   28.6193 C   0  0  0  0  0  0  0  0  0  0  0  0
    7.4781  -20.5869   27.8153 C   0  0  0  0  0  0  0  0  0  0  0  0
    6.5400  -20.2296   26.8794 C   0  0  0  0  0  0  0  0  0  0  0  0
    6.7992  -19.0318   26.0362 C   0  0  0  0  0  0  0  0  0  0  0  0
    6.4784  -19.3663   24.5730 C   0  0  2  0  0  0  0  0  0  0  0  0
    6.9154  -20.7483   24.4160 N   0  0  0  0  0  0  0  0  0  0  0  0
    7.3055  -18.4289   23.7677 C   0  0  0  0  0  0  0  0  0  0  0  0
    8.4232  -18.7404   23.3759 O   0  0  0  0  0  0  0  0  0  0  0  0
    5.4084  -20.9696   26.7519 C   0  0  0  0  0  0  0  0  0  0  0  0
    5.2228  -22.0747   27.5719 C   0  0  0  0  0  0  0  0  0  0  0  0
    8.6881  -14.9792   18.1707 N   0  0  0  0  0  0  0  0  0  0  0  0
    8.2589  -13.6132   17.9664 C   0  0  0  0  0  0  0  0  0  0  0  0
    8.2537  -13.0625   16.8897 N   0  0  0  0  0  0  0  0  0  0  0  0
    7.8206  -12.8938   19.1355 N   0  0  0  0  0  0  0  0  0  0  0  0
    6.9820  -13.6054   20.0768 C   0  0  0  0  0  0  0  0  0  0  0  0
    7.8000  -14.4499   21.0136 C   0  0  0  0  0  0  0  0  0  0  0  0
    6.9286  -15.3307   21.8152 C   0  0  0  0  0  0  0  0  0  0  0  0
    7.7218  -16.2046   22.7991 C   0  0  2  0  0  0  0  0  0  0  0  0
    6.8059  -17.1194   23.4224 N   0  0  0  0  0  0  0  0  0  0  0  0
    8.4610  -15.4182   23.7579 C   0  0  0  0  0  0  0  0  0  0  0  0
    8.2166  -14.1770   23.9832 O   0  0  0  0  0  0  0  0  0  0  0  0
    8.2400  -12.5752   16.0956 N   0  0  0  0  0  0  0  0  0  0  0  0
    9.5109  -15.9852   24.5146 C   0  0  1  0  0  0  0  0  0  0  0  0
    9.7291  -15.6055   25.9174 C   0  0  0  0  0  0  0  0  0  0  0  0
    8.4134  -15.5829   26.6484 C   0  0  0  0  0  0  0  0  0  0  0  0
    7.7163  -14.3080   26.4513 C   0  0  0  0  0  0  0  0  0  0  0  0
    8.2736  -13.1064   26.8397 C   0  0  0  0  0  0  0  0  0  0  0  0
    7.5997  -11.9040   26.5947 C   0  0  0  0  0  0  0  0  0  0  0  0
    6.3765  -11.8598   25.9690 C   0  0  0  0  0  0  0  0  0  0  0  0
    5.8017  -13.0557   25.5766 C   0  0  0  0  0  0  0  0  0  0  0  0
    6.4731  -14.2256   25.8214 C   0  0  0  0  0  0  0  0  0  0  0  0
   10.7680  -16.4448   26.5205 O   0  0  0  0  0  0  0  0  0  0  0  0
   11.3464  -17.5495   25.9290 O   0  0  0  0  0  0  0  0  0  0  0  0
  2  1  1  0
  3  2  2  0
  4  3  1  0
  5 11  1  0
  5  4  2  0
  6  5  1  0
  7  6  1  0
  7  8  1  6
  9  7  1  0
 10  9  2  0
 11 12  2  0
 12  2  1  0
 13 14  1  0
 14 16  1  0
 15 14  2  0
 16 17  1  0
 17 18  1  0
 18 19  1  0
 20 19  1  6
 20 22  1  0
 20 21  1  0
 21  9  1  0
 22 24  1  0
 23 22  2  0
 24 25  1  0
 25 26  1  1
 26 27  1  0
 27 28  2  0
 28 29  1  0
 30 29  2  0
 31 30  1  0
 32 27  1  0
 32 31  2  0
 33 34  1  0
 33 25  1  0
 35 33  2  0
M  END
$$$$
