YRF.pdb
     RDKit          3D

 35 36  0  0  1  0  0  0  0  0999 V2000
    9.7560  -20.7301   29.5041 O   0  0  0  0  0  0  0  0  0  0  0  0
    8.8816  -20.1327   28.6305 C   0  0  0  0  0  0  0  0  0  0  0  0
    7.5870  -20.6309   28.4883 C   0  0  0  0  0  0  0  0  0  0  0  0
    6.7069  -20.0473   27.6227 C   0  0  0  0  0  0  0  0  0  0  0  0
    7.0702  -18.9576   26.8715 C   0  0  0  0  0  0  0  0  0  0  0  0
    6.0674  -18.3692   25.9436 C   0  0  0  0  0  0  0  0  0  0  0  0
    6.3623  -18.8454   24.5147 C   0  0  2  0  0  0  0  0  0  0  0  0
    6.8137  -20.2218   24.6803 N   0  0  0  0  0  0  0  0  0  0  0  0
    7.4522  -17.9601   24.0250 C   0  0  0  0  0  0  0  0  0  0  0  0
    8.6072  -18.3582   23.9401 O   0  0  0  0  0  0  0  0  0  0  0  0
    8.3252  -18.4527   26.9911 C   0  0  0  0  0  0  0  0  0  0  0  0
    9.2172  -19.0496   27.8721 C   0  0  0  0  0  0  0  0  0  0  0  0
    9.3714  -14.1431   19.5019 N   0  0  0  0  0  0  0  0  0  0  0  0
    8.1915  -13.9225   18.6950 C   0  0  0  0  0  0  0  0  0  0  0  0
    8.1555  -13.1761   17.7440 N   0  0  0  0  0  0  0  0  0  0  0  0
    7.0059  -14.6479   19.0753 N   0  0  0  0  0  0  0  0  0  0  0  0
    7.1248  -15.5853   20.1719 C   0  0  0  0  0  0  0  0  0  0  0  0
    6.5808  -15.0096   21.4496 C   0  0  0  0  0  0  0  0  0  0  0  0
    7.6798  -14.6222   22.3550 C   0  0  0  0  0  0  0  0  0  0  0  0
    8.2651  -15.8220   23.1158 C   0  0  2  0  0  0  0  0  0  0  0  0
    7.1726  -16.5997   23.6315 N   0  0  0  0  0  0  0  0  0  0  0  0
    9.1945  -15.4187   24.1441 C   0  0  0  0  0  0  0  0  0  0  0  0
    9.0339  -14.3630   24.8590 O   0  0  0  0  0  0  0  0  0  0  0  0
    8.0583  -12.6211   17.0019 N   0  0  0  0  0  0  0  0  0  0  0  0
   10.3510  -16.1807   24.4244 C   0  0  1  0  0  0  0  0  0  0  0  0
   11.1773  -15.9027   25.6075 C   0  0  0  0  0  0  0  0  0  0  0  0
   10.3236  -15.9509   26.8464 C   0  0  0  0  0  0  0  0  0  0  0  0
    9.5401  -14.7212   27.0015 C   0  0  0  0  0  0  0  0  0  0  0  0
   10.0907  -13.4749   26.7806 C   0  0  0  0  0  0  0  0  0  0  0  0
    9.3010  -12.3244   26.8936 C   0  0  0  0  0  0  0  0  0  0  0  0
    7.9674  -12.3762   27.2229 C   0  0  0  0  0  0  0  0  0  0  0  0
    7.4004  -13.6175   27.4516 C   0  0  0  0  0  0  0  0  0  0  0  0
    8.1848  -14.7359   27.3360 C   0  0  0  0  0  0  0  0  0  0  0  0
   12.3577  -16.7709   25.6243 O   0  0  0  0  0  0  0  0  0  0  0  0
   12.6171  -17.7848   24.7246 O   0  0  0  0  0  0  0  0  0  0  0  0
  2  1  1  0
  3  2  2  0
  4  3  1  0
  5 11  1  0
  5  4  2  0
  6  5  1  0
  7  6  1  0
  7  8  1  1
  9  7  1  0
 10  9  2  0
 11 12  2  0
 12  2  1  0
 13 14  1  0
 14 16  1  0
 15 14  2  0
 16 17  1  0
 17 18  1  0
 18 19  1  0
 20 19  1  1
 20 22  1  0
 20 21  1  0
 21  9  1  0
 22 24  1  0
 23 22  2  0
 24 25  1  0
 25 26  1  1
 26 27  1  0
 27 28  2  0
 28 29  1  0
 30 29  2  0
 31 30  1  0
 32 27  1  0
 32 31  2  0
 33 34  1  0
 33 25  1  0
 35 33  2  0
M  END
$$$$
