YRF.pdb
     RDKit          3D

 35 36  0  0  1  0  0  0  0  0999 V2000
    7.8643  -12.8282   15.0893 O   0  0  0  0  0  0  0  0  0  0  0  0
    7.8251  -13.3980   16.3376 C   0  0  0  0  0  0  0  0  0  0  0  0
    7.7297  -12.5911   17.4708 C   0  0  0  0  0  0  0  0  0  0  0  0
    7.6904  -13.1439   18.7187 C   0  0  0  0  0  0  0  0  0  0  0  0
    7.7429  -14.5044   18.8920 C   0  0  0  0  0  0  0  0  0  0  0  0
    7.7000  -15.0455   20.2770 C   0  0  0  0  0  0  0  0  0  0  0  0
    7.8865  -16.5682   20.2294 C   0  0  2  0  0  0  0  0  0  0  0  0
    6.5463  -17.0872   19.9844 N   0  0  0  0  0  0  0  0  0  0  0  0
    8.3877  -16.9427   21.5784 C   0  0  0  0  0  0  0  0  0  0  0  0
    7.6313  -17.0312   22.5375 O   0  0  0  0  0  0  0  0  0  0  0  0
    7.8359  -15.3129   17.8048 C   0  0  0  0  0  0  0  0  0  0  0  0
    7.8762  -14.7464   16.5377 C   0  0  0  0  0  0  0  0  0  0  0  0
    9.8200  -22.7177   21.6667 N   0  0  0  0  0  0  0  0  0  0  0  0
   10.8183  -22.3005   20.7069 C   0  0  0  0  0  0  0  0  0  0  0  0
   10.7647  -22.5540   19.5256 N   0  0  0  0  0  0  0  0  0  0  0  0
   11.9303  -21.5425   21.2220 N   0  0  0  0  0  0  0  0  0  0  0  0
   11.7966  -20.9896   22.5532 C   0  0  0  0  0  0  0  0  0  0  0  0
   10.7183  -19.9437   22.6089 C   0  0  0  0  0  0  0  0  0  0  0  0
   11.2745  -18.6453   23.0363 C   0  0  0  0  0  0  0  0  0  0  0  0
   10.2027  -17.5481   23.1270 C   0  0  2  0  0  0  0  0  0  0  0  0
    9.7888  -17.2167   21.7917 N   0  0  0  0  0  0  0  0  0  0  0  0
   10.6580  -16.3970   23.8697 C   0  0  0  0  0  0  0  0  0  0  0  0
   10.9688  -15.2816   23.3124 O   0  0  0  0  0  0  0  0  0  0  0  0
   10.7940  -22.7318   18.6114 N   0  0  0  0  0  0  0  0  0  0  0  0
   10.7858  -16.4379   25.2763 C   0  0  2  0  0  0  0  0  0  0  0  0
   10.0622  -15.4890   26.1342 C   0  0  0  0  0  0  0  0  0  0  0  0
    8.7877  -15.0614   25.4569 C   0  0  0  0  0  0  0  0  0  0  0  0
    8.0848  -14.0405   26.2403 C   0  0  0  0  0  0  0  0  0  0  0  0
    6.7304  -14.1222   26.4932 C   0  0  0  0  0  0  0  0  0  0  0  0
    6.1004  -13.1533   27.2835 C   0  0  0  0  0  0  0  0  0  0  0  0
    6.7831  -12.0954   27.8352 C   0  0  0  0  0  0  0  0  0  0  0  0
    8.1409  -11.9962   27.5882 C   0  0  0  0  0  0  0  0  0  0  0  0
    8.7454  -12.9526   26.8140 C   0  0  0  0  0  0  0  0  0  0  0  0
    9.9027  -16.0365   27.4840 O   0  0  0  0  0  0  0  0  0  0  0  0
   10.3329  -15.4321   28.6478 O   0  0  0  0  0  0  0  0  0  0  0  0
  2  1  1  0
  3  2  2  0
  4  3  1  0
  5 11  1  0
  5  4  2  0
  6  5  1  0
  7  6  1  0
  7  8  1  1
  9  7  1  0
 10  9  2  0
 11 12  2  0
 12  2  1  0
 13 14  1  0
 14 16  1  0
 15 14  2  0
 16 17  1  0
 17 18  1  0
 18 19  1  0
 20 19  1  6
 20 22  1  0
 20 21  1  0
 21  9  1  0
 22 24  1  0
 23 22  2  0
 24 25  1  0
 25 26  1  6
 26 27  1  0
 27 28  2  0
 28 29  1  0
 30 29  2  0
 31 30  1  0
 32 27  1  0
 32 31  2  0
 33 34  1  0
 33 25  1  0
 35 33  2  0
M  END
$$$$
