TEQ.pdb
     RDKit          3D

 26 25  0  0  1  0  0  0  0  0999 V2000
   26.5059  -32.4011   -8.1866 C   0  0  0  0  0  0  0  0  0  0  0  0
   25.7336  -33.1939   -9.2278 C   0  0  1  0  0  0  0  0  0  0  0  0
   25.9178  -32.5955  -10.4545 O   0  0  0  0  0  0  0  0  0  0  0  0
   26.2058  -34.6512   -9.2375 C   0  0  2  0  0  0  0  0  0  0  0  0
   25.3609  -35.3403  -10.2110 N   0  0  0  0  0  0  0  0  0  0  0  0
   25.9665  -35.1906   -7.8657 C   0  0  0  0  0  0  0  0  0  0  0  0
   24.7969  -35.4387   -7.4755 O   0  0  0  0  0  0  0  0  0  0  0  0
   27.0194  -35.4458   -6.9515 N   0  0  0  0  0  0  0  0  0  0  0  0
   26.7632  -35.9949   -5.6538 C   0  0  1  0  0  0  0  0  0  0  0  0
   28.0236  -36.5791   -5.1082 C   0  0  0  0  0  0  0  0  0  0  0  0
   27.8717  -37.2818   -3.8033 C   0  0  0  0  0  0  0  0  0  0  0  0
   29.1820  -37.8596   -3.4103 C   0  0  0  0  0  0  0  0  0  0  0  0
   30.1898  -37.7011   -4.1546 O   0  0  0  0  0  0  0  0  0  0  0  0
   26.1577  -35.0037   -4.7194 C   0  0  0  0  0  0  0  0  0  0  0  0
   26.7473  -33.9055   -4.5829 O   0  0  0  0  0  0  0  0  0  0  0  0
   29.3320  -38.5810   -2.2275 O   0  0  0  0  0  0  0  0  0  0  0  0
   20.0277  -33.8942   -3.6825 N   0  0  0  0  0  0  0  0  0  0  0  0
   20.6993  -33.1826   -2.6661 C   0  0  0  0  0  0  0  0  0  0  0  0
   20.0131  -32.4252   -1.9128 O   0  0  0  0  0  0  0  0  0  0  0  0
   22.1338  -33.2929   -2.4514 C   0  0  0  0  0  0  0  0  0  0  0  0
   22.9125  -34.2163   -3.2838 C   0  0  0  0  0  0  0  0  0  0  0  0
   24.3779  -34.2342   -3.0709 C   0  0  2  0  0  0  0  0  0  0  0  0
   24.9781  -35.2350   -3.9949 N   0  0  0  0  0  0  0  0  0  0  0  0
   24.7766  -34.6330   -1.7304 C   0  0  0  0  0  0  0  0  0  0  0  0
   25.0174  -35.9510   -1.3825 O   0  0  0  0  0  0  0  0  0  0  0  0
   24.9111  -33.7862   -0.8174 O   0  0  0  0  0  0  0  0  0  0  0  0
  2  1  1  1
  2  3  1  0
  4  6  1  0
  4  2  1  0
  4  5  1  6
  6  8  1  0
  7  6  2  0
  8  9  1  0
  9 14  1  0
  9 10  1  1
 11 10  1  0
 12 11  1  0
 13 12  2  0
 14 15  2  0
 14 23  1  0
 16 12  1  0
 17 18  1  0
 18 19  2  0
 20 18  1  0
 20 21  1  0
 22 21  1  1
 22 24  1  0
 23 22  1  0
 24 25  1  0
 26 24  2  0
M  END
$$$$
