TEQ.pdb
     RDKit          3D

 26 25  0  0  1  0  0  0  0  0999 V2000
   19.6847  -19.9756  -10.7453 C   0  0  0  0  0  0  0  0  0  0  0  0
   20.0646  -20.6980  -12.0272 C   0  0  1  0  0  0  0  0  0  0  0  0
   20.9829  -19.9272  -12.7048 O   0  0  0  0  0  0  0  0  0  0  0  0
   20.6265  -22.0858  -11.7032 C   0  0  2  0  0  0  0  0  0  0  0  0
   20.9887  -22.6819  -12.9877 N   0  0  0  0  0  0  0  0  0  0  0  0
   19.5212  -22.8593  -11.0629 C   0  0  0  0  0  0  0  0  0  0  0  0
   18.5643  -23.2917  -11.7552 O   0  0  0  0  0  0  0  0  0  0  0  0
   19.4917  -23.1410   -9.6740 N   0  0  0  0  0  0  0  0  0  0  0  0
   18.3513  -23.7541   -9.0617 C   0  0  1  0  0  0  0  0  0  0  0  0
   18.6537  -24.0358   -7.6276 C   0  0  0  0  0  0  0  0  0  0  0  0
   17.5684  -24.7388   -6.8876 C   0  0  0  0  0  0  0  0  0  0  0  0
   18.0564  -25.0859   -5.5287 C   0  0  0  0  0  0  0  0  0  0  0  0
   17.4286  -24.6807   -4.5107 O   0  0  0  0  0  0  0  0  0  0  0  0
   17.1090  -22.9460   -9.2214 C   0  0  0  0  0  0  0  0  0  0  0  0
   17.1530  -21.7447   -8.8644 O   0  0  0  0  0  0  0  0  0  0  0  0
   19.2029  -25.8562   -5.3437 O   0  0  0  0  0  0  0  0  0  0  0  0
   13.9072  -22.4182  -14.3609 N   0  0  0  0  0  0  0  0  0  0  0  0
   13.1179  -21.7261  -13.4183 C   0  0  0  0  0  0  0  0  0  0  0  0
   12.1480  -21.0284  -13.8477 O   0  0  0  0  0  0  0  0  0  0  0  0
   13.3721  -21.7911  -11.9875 C   0  0  0  0  0  0  0  0  0  0  0  0
   14.5184  -22.5654  -11.4993 C   0  0  0  0  0  0  0  0  0  0  0  0
   14.7205  -22.6076  -10.0329 C   0  0  2  0  0  0  0  0  0  0  0  0
   15.9097  -23.4549   -9.7433 N   0  0  0  0  0  0  0  0  0  0  0  0
   13.6141  -23.2016   -9.2995 C   0  0  0  0  0  0  0  0  0  0  0  0
   12.4637  -22.4997   -8.9831 O   0  0  0  0  0  0  0  0  0  0  0  0
   13.6621  -24.3906   -8.9087 O   0  0  0  0  0  0  0  0  0  0  0  0
  2  1  1  1
  2  3  1  0
  4  6  1  0
  4  2  1  0
  4  5  1  6
  6  8  1  0
  7  6  2  0
  8  9  1  0
  9 14  1  0
  9 10  1  1
 11 10  1  0
 12 11  1  0
 13 12  2  0
 14 15  2  0
 14 23  1  0
 16 12  1  0
 17 18  1  0
 18 19  2  0
 20 18  1  0
 20 21  1  0
 22 21  1  6
 22 24  1  0
 23 22  1  0
 24 25  1  0
 26 24  2  0
M  END
$$$$
