TEQ.pdb
     RDKit          3D

 26 25  0  0  1  0  0  0  0  0999 V2000
   14.5009  -11.2930  -14.0965 C   0  0  0  0  0  0  0  0  0  0  0  0
   15.2578  -12.5798  -14.3804 C   0  0  1  0  0  0  0  0  0  0  0  0
   14.5500  -13.6291  -13.8378 O   0  0  0  0  0  0  0  0  0  0  0  0
   15.4522  -12.7546  -15.8899 C   0  0  2  0  0  0  0  0  0  0  0  0
   16.1259  -14.0404  -16.0614 N   0  0  0  0  0  0  0  0  0  0  0  0
   16.3356  -11.6390  -16.3425 C   0  0  0  0  0  0  0  0  0  0  0  0
   17.5821  -11.7152  -16.1937 O   0  0  0  0  0  0  0  0  0  0  0  0
   15.8291  -10.4624  -16.9494 N   0  0  0  0  0  0  0  0  0  0  0  0
   16.6995   -9.4035  -17.3645 C   0  0  1  0  0  0  0  0  0  0  0  0
   15.9317   -8.4321  -18.1977 C   0  0  0  0  0  0  0  0  0  0  0  0
   16.7296   -7.2837  -18.7116 C   0  0  0  0  0  0  0  0  0  0  0  0
   15.8476   -6.4074  -19.5236 C   0  0  0  0  0  0  0  0  0  0  0  0
   16.3175   -5.3682  -20.0658 O   0  0  0  0  0  0  0  0  0  0  0  0
   17.3822   -8.7380  -16.2186 C   0  0  0  0  0  0  0  0  0  0  0  0
   16.7290   -8.6058  -15.1565 O   0  0  0  0  0  0  0  0  0  0  0  0
   14.4983   -6.7042  -19.7060 O   0  0  0  0  0  0  0  0  0  0  0  0
   23.0812   -9.9648  -14.2115 N   0  0  0  0  0  0  0  0  0  0  0  0
   22.6502   -8.8964  -13.3972 C   0  0  0  0  0  0  0  0  0  0  0  0
   23.3576   -8.5903  -12.3883 O   0  0  0  0  0  0  0  0  0  0  0  0
   21.4402   -8.1389  -13.6768 C   0  0  0  0  0  0  0  0  0  0  0  0
   20.5644   -8.5690  -14.7721 C   0  0  0  0  0  0  0  0  0  0  0  0
   19.4099   -7.6964  -15.0867 C   0  0  2  0  0  0  0  0  0  0  0  0
   18.7003   -8.2582  -16.2684 N   0  0  0  0  0  0  0  0  0  0  0  0
   19.7767   -6.3358  -15.4460 C   0  0  0  0  0  0  0  0  0  0  0  0
   19.9869   -5.3439  -14.5036 O   0  0  0  0  0  0  0  0  0  0  0  0
   19.9099   -5.9975  -16.6446 O   0  0  0  0  0  0  0  0  0  0  0  0
  2  1  1  6
  2  3  1  0
  4  6  1  0
  4  2  1  0
  4  5  1  1
  6  8  1  0
  7  6  2  0
  8  9  1  0
  9 14  1  0
  9 10  1  1
 11 10  1  0
 12 11  1  0
 13 12  2  0
 14 15  2  0
 14 23  1  0
 16 12  1  0
 17 18  1  0
 18 19  2  0
 20 18  1  0
 20 21  1  0
 22 21  1  6
 22 24  1  0
 23 22  1  0
 24 25  1  0
 26 24  2  0
M  END
$$$$
