TEQ.pdb
     RDKit          3D

 26 25  0  0  1  0  0  0  0  0999 V2000
   15.8255   -9.4224  -16.4038 C   0  0  0  0  0  0  0  0  0  0  0  0
   15.3792  -10.4797  -15.4077 C   0  0  1  0  0  0  0  0  0  0  0  0
   14.0059  -10.5698  -15.4555 O   0  0  0  0  0  0  0  0  0  0  0  0
   16.0416  -11.8223  -15.7323 C   0  0  2  0  0  0  0  0  0  0  0  0
   15.5541  -12.7639  -14.7262 N   0  0  0  0  0  0  0  0  0  0  0  0
   17.5144  -11.6220  -15.5883 C   0  0  0  0  0  0  0  0  0  0  0  0
   18.0299  -11.4953  -14.4481 O   0  0  0  0  0  0  0  0  0  0  0  0
   18.3896  -11.5653  -16.7019 N   0  0  0  0  0  0  0  0  0  0  0  0
   19.7845  -11.2841  -16.5404 C   0  0  1  0  0  0  0  0  0  0  0  0
   20.5761  -12.1973  -17.4161 C   0  0  0  0  0  0  0  0  0  0  0  0
   20.6958  -13.5948  -16.9140 C   0  0  0  0  0  0  0  0  0  0  0  0
   21.4122  -14.4122  -17.9257 C   0  0  0  0  0  0  0  0  0  0  0  0
   20.7582  -15.0808  -18.7743 O   0  0  0  0  0  0  0  0  0  0  0  0
   20.1144   -9.8513  -16.7857 C   0  0  0  0  0  0  0  0  0  0  0  0
   19.5677   -9.2939  -17.7669 O   0  0  0  0  0  0  0  0  0  0  0  0
   22.8043  -14.4623  -17.9651 O   0  0  0  0  0  0  0  0  0  0  0  0
   22.4177   -5.6591  -12.4577 N   0  0  0  0  0  0  0  0  0  0  0  0
   22.1679   -4.9347  -13.6424 C   0  0  0  0  0  0  0  0  0  0  0  0
   22.3328   -3.6761  -13.6198 O   0  0  0  0  0  0  0  0  0  0  0  0
   21.7399   -5.5765  -14.8757 C   0  0  0  0  0  0  0  0  0  0  0  0
   21.4872   -7.0215  -14.8795 C   0  0  0  0  0  0  0  0  0  0  0  0
   21.2624   -7.6571  -16.1981 C   0  0  2  0  0  0  0  0  0  0  0  0
   20.9938   -9.1057  -15.9854 N   0  0  0  0  0  0  0  0  0  0  0  0
   22.4071   -7.5864  -17.0923 C   0  0  0  0  0  0  0  0  0  0  0  0
   22.4053   -6.8296  -18.2515 O   0  0  0  0  0  0  0  0  0  0  0  0
   23.4562   -8.2266  -16.8510 O   0  0  0  0  0  0  0  0  0  0  0  0
  2  1  1  6
  2  3  1  0
  4  6  1  0
  4  2  1  0
  4  5  1  1
  6  8  1  0
  7  6  2  0
  8  9  1  0
  9 14  1  0
  9 10  1  6
 11 10  1  0
 12 11  1  0
 13 12  2  0
 14 15  2  0
 14 23  1  0
 16 12  1  0
 17 18  1  0
 18 19  2  0
 20 18  1  0
 20 21  1  0
 22 21  1  1
 22 24  1  0
 23 22  1  0
 24 25  1  0
 26 24  2  0
M  END
$$$$
