TEQ.pdb
     RDKit          3D

 26 25  0  0  1  0  0  0  0  0999 V2000
   26.4355  -10.2349  -14.9578 C   0  0  0  0  0  0  0  0  0  0  0  0
   26.6305  -10.6840  -16.3964 C   0  0  1  0  0  0  0  0  0  0  0  0
   27.8170  -11.3784  -16.4781 O   0  0  0  0  0  0  0  0  0  0  0  0
   25.4448  -11.5439  -16.8452 C   0  0  2  0  0  0  0  0  0  0  0  0
   25.7975  -12.0545  -18.1686 N   0  0  0  0  0  0  0  0  0  0  0  0
   24.2633  -10.6350  -16.9353 C   0  0  0  0  0  0  0  0  0  0  0  0
   24.2295   -9.7205  -17.7980 O   0  0  0  0  0  0  0  0  0  0  0  0
   23.1434  -10.7513  -16.0741 N   0  0  0  0  0  0  0  0  0  0  0  0
   22.0214   -9.8683  -16.1866 C   0  0  1  0  0  0  0  0  0  0  0  0
   20.8203  -10.5183  -15.5849 C   0  0  0  0  0  0  0  0  0  0  0  0
   19.5718   -9.7084  -15.6548 C   0  0  0  0  0  0  0  0  0  0  0  0
   18.4529  -10.4943  -15.0757 C   0  0  0  0  0  0  0  0  0  0  0  0
   18.0007  -10.2005  -13.9338 O   0  0  0  0  0  0  0  0  0  0  0  0
   22.2846   -8.5259  -15.5946 C   0  0  0  0  0  0  0  0  0  0  0  0
   22.9158   -8.4872  -14.5118 O   0  0  0  0  0  0  0  0  0  0  0  0
   17.8808  -11.5608  -15.7665 O   0  0  0  0  0  0  0  0  0  0  0  0
   24.9345   -3.9697  -18.5830 N   0  0  0  0  0  0  0  0  0  0  0  0
   24.5515   -3.3629  -17.3682 C   0  0  0  0  0  0  0  0  0  0  0  0
   25.0130   -2.2100  -17.1040 O   0  0  0  0  0  0  0  0  0  0  0  0
   23.6502   -4.0046  -16.4238 C   0  0  0  0  0  0  0  0  0  0  0  0
   23.1962   -5.3745  -16.6864 C   0  0  0  0  0  0  0  0  0  0  0  0
   22.2911   -5.9823  -15.6842 C   0  0  2  0  0  0  0  0  0  0  0  0
   21.8669   -7.3204  -16.1796 N   0  0  0  0  0  0  0  0  0  0  0  0
   21.0675   -5.2297  -15.4579 C   0  0  0  0  0  0  0  0  0  0  0  0
   20.9864   -4.1893  -14.5484 O   0  0  0  0  0  0  0  0  0  0  0  0
   20.0158   -5.5037  -16.0805 O   0  0  0  0  0  0  0  0  0  0  0  0
  2  1  1  1
  2  3  1  0
  4  6  1  0
  4  2  1  0
  4  5  1  6
  6  8  1  0
  7  6  2  0
  8  9  1  0
  9 14  1  0
  9 10  1  1
 11 10  1  0
 12 11  1  0
 13 12  2  0
 14 15  2  0
 14 23  1  0
 16 12  1  0
 17 18  1  0
 18 19  2  0
 20 18  1  0
 20 21  1  0
 22 21  1  6
 22 24  1  0
 23 22  1  0
 24 25  1  0
 26 24  2  0
M  END
$$$$
