TEQ.pdb
     RDKit          3D

 26 25  0  0  1  0  0  0  0  0999 V2000
   21.1188  -12.7458  -19.8076 C   0  0  0  0  0  0  0  0  0  0  0  0
   20.3624  -13.1822  -18.5639 C   0  0  1  0  0  0  0  0  0  0  0  0
   20.2645  -14.5559  -18.5743 O   0  0  0  0  0  0  0  0  0  0  0  0
   21.0803  -12.6800  -17.3073 C   0  0  2  0  0  0  0  0  0  0  0  0
   20.6231  -13.5365  -16.2146 N   0  0  0  0  0  0  0  0  0  0  0  0
   20.6319  -11.2725  -17.0885 C   0  0  0  0  0  0  0  0  0  0  0  0
   20.8807  -10.3860  -17.9452 O   0  0  0  0  0  0  0  0  0  0  0  0
   19.9191  -10.8695  -15.9315 N   0  0  0  0  0  0  0  0  0  0  0  0
   19.5192   -9.5079  -15.7386 C   0  0  1  0  0  0  0  0  0  0  0  0
   18.2706   -9.4718  -14.9220 C   0  0  0  0  0  0  0  0  0  0  0  0
   17.0532   -9.9708  -15.6210 C   0  0  0  0  0  0  0  0  0  0  0  0
   15.9000   -9.9078  -14.6877 C   0  0  0  0  0  0  0  0  0  0  0  0
   15.0192   -9.0145  -14.8329 O   0  0  0  0  0  0  0  0  0  0  0  0
   20.5992   -8.6703  -15.1437 C   0  0  0  0  0  0  0  0  0  0  0  0
   21.2537   -9.1628  -14.1943 O   0  0  0  0  0  0  0  0  0  0  0  0
   15.7612  -10.8190  -13.6425 O   0  0  0  0  0  0  0  0  0  0  0  0
   24.3297   -4.6408  -18.2834 N   0  0  0  0  0  0  0  0  0  0  0  0
   24.6310   -4.4276  -16.9217 C   0  0  0  0  0  0  0  0  0  0  0  0
   25.6008   -3.6592  -16.6369 O   0  0  0  0  0  0  0  0  0  0  0  0
   23.8712   -5.0463  -15.8465 C   0  0  0  0  0  0  0  0  0  0  0  0
   22.7686   -5.9543  -16.1809 C   0  0  0  0  0  0  0  0  0  0  0  0
   22.0546   -6.5846  -15.0468 C   0  0  2  0  0  0  0  0  0  0  0  0
   20.9154   -7.3764  -15.5862 N   0  0  0  0  0  0  0  0  0  0  0  0
   21.4772   -5.6346  -14.1092 C   0  0  0  0  0  0  0  0  0  0  0  0
   22.1825   -5.1218  -13.0340 O   0  0  0  0  0  0  0  0  0  0  0  0
   20.2941   -5.2426  -14.2327 O   0  0  0  0  0  0  0  0  0  0  0  0
  2  1  1  6
  2  3  1  0
  4  6  1  0
  4  2  1  0
  4  5  1  1
  6  8  1  0
  7  6  2  0
  8  9  1  0
  9 14  1  0
  9 10  1  1
 11 10  1  0
 12 11  1  0
 13 12  2  0
 14 15  2  0
 14 23  1  0
 16 12  1  0
 17 18  1  0
 18 19  2  0
 20 18  1  0
 20 21  1  0
 22 21  1  6
 22 24  1  0
 23 22  1  0
 24 25  1  0
 26 24  2  0
M  END
$$$$
