TEQ.pdb
     RDKit          3D

 26 25  0  0  1  0  0  0  0  0999 V2000
   15.8020   -7.6771  -15.9321 C   0  0  0  0  0  0  0  0  0  0  0  0
   15.3860   -8.7096  -14.8976 C   0  0  1  0  0  0  0  0  0  0  0  0
   14.0500   -8.9912  -15.0773 O   0  0  0  0  0  0  0  0  0  0  0  0
   16.2484   -9.9684  -15.0333 C   0  0  2  0  0  0  0  0  0  0  0  0
   15.7484  -10.9073  -14.0308 N   0  0  0  0  0  0  0  0  0  0  0  0
   17.6511   -9.5659  -14.7165 C   0  0  0  0  0  0  0  0  0  0  0  0
   18.0017   -9.3683  -13.5250 O   0  0  0  0  0  0  0  0  0  0  0  0
   18.6390   -9.3891  -15.7175 N   0  0  0  0  0  0  0  0  0  0  0  0
   20.0065   -9.1320  -15.3782 C   0  0  1  0  0  0  0  0  0  0  0  0
   20.8862  -10.0765  -16.1276 C   0  0  0  0  0  0  0  0  0  0  0  0
   22.3445   -9.9027  -15.8772 C   0  0  0  0  0  0  0  0  0  0  0  0
   23.0981  -10.8602  -16.7260 C   0  0  0  0  0  0  0  0  0  0  0  0
   23.3618  -10.5671  -17.9257 O   0  0  0  0  0  0  0  0  0  0  0  0
   20.3967   -7.7107  -15.6007 C   0  0  0  0  0  0  0  0  0  0  0  0
   20.1536   -7.2159  -16.7270 O   0  0  0  0  0  0  0  0  0  0  0  0
   23.5276  -12.0890  -16.2286 O   0  0  0  0  0  0  0  0  0  0  0  0
   17.7789   -2.9522  -14.2468 N   0  0  0  0  0  0  0  0  0  0  0  0
   19.0680   -2.4018  -14.4073 C   0  0  0  0  0  0  0  0  0  0  0  0
   19.1913   -1.1397  -14.3460 O   0  0  0  0  0  0  0  0  0  0  0  0
   20.2470   -3.2241  -14.6308 C   0  0  0  0  0  0  0  0  0  0  0  0
   20.0987   -4.6817  -14.7043 C   0  0  0  0  0  0  0  0  0  0  0  0
   21.3426   -5.4740  -14.8393 C   0  0  2  0  0  0  0  0  0  0  0  0
   21.0140   -6.9102  -14.6271 N   0  0  0  0  0  0  0  0  0  0  0  0
   22.3637   -5.1447  -13.8576 C   0  0  0  0  0  0  0  0  0  0  0  0
   22.6980   -5.9899  -12.8135 O   0  0  0  0  0  0  0  0  0  0  0  0
   22.9864   -4.0593  -13.9121 O   0  0  0  0  0  0  0  0  0  0  0  0
  2  1  1  6
  2  3  1  0
  4  6  1  0
  4  2  1  0
  4  5  1  1
  6  8  1  0
  7  6  2  0
  8  9  1  0
  9 14  1  0
  9 10  1  6
 11 10  1  0
 12 11  1  0
 13 12  2  0
 14 15  2  0
 14 23  1  0
 16 12  1  0
 17 18  1  0
 18 19  2  0
 20 18  1  0
 20 21  1  0
 22 21  1  1
 22 24  1  0
 23 22  1  0
 24 25  1  0
 26 24  2  0
M  END
$$$$
