TEQ.pdb
     RDKit          3D

 26 25  0  0  1  0  0  0  0  0999 V2000
   18.7202  -16.3814  -16.4229 C   0  0  0  0  0  0  0  0  0  0  0  0
   18.7665  -14.9218  -16.8431 C   0  0  1  0  0  0  0  0  0  0  0  0
   17.7708  -14.7042  -17.7693 O   0  0  0  0  0  0  0  0  0  0  0  0
   18.6022  -14.0157  -15.6188 C   0  0  2  0  0  0  0  0  0  0  0  0
   17.2624  -14.2826  -15.0990 N   0  0  0  0  0  0  0  0  0  0  0  0
   18.7003  -12.6082  -16.1083 C   0  0  0  0  0  0  0  0  0  0  0  0
   19.7997  -12.1519  -16.5142 O   0  0  0  0  0  0  0  0  0  0  0  0
   17.5865  -11.7321  -16.1409 N   0  0  0  0  0  0  0  0  0  0  0  0
   17.7096  -10.3871  -16.6174 C   0  0  1  0  0  0  0  0  0  0  0  0
   16.4147   -9.9582  -17.2229 C   0  0  0  0  0  0  0  0  0  0  0  0
   16.4099   -8.5718  -17.7684 C   0  0  0  0  0  0  0  0  0  0  0  0
   15.0687   -8.2802  -18.3352 C   0  0  0  0  0  0  0  0  0  0  0  0
   14.0483   -8.3181  -17.5922 O   0  0  0  0  0  0  0  0  0  0  0  0
   18.1712   -9.4427  -15.5606 C   0  0  0  0  0  0  0  0  0  0  0  0
   17.6862   -9.5808  -14.4125 O   0  0  0  0  0  0  0  0  0  0  0  0
   14.9032   -7.9617  -19.6817 O   0  0  0  0  0  0  0  0  0  0  0  0
   23.5749   -5.8838  -15.5130 N   0  0  0  0  0  0  0  0  0  0  0  0
   22.7407   -5.3437  -14.5116 C   0  0  0  0  0  0  0  0  0  0  0  0
   23.1768   -4.3615  -13.8355 O   0  0  0  0  0  0  0  0  0  0  0  0
   21.4106   -5.8647  -14.2370 C   0  0  0  0  0  0  0  0  0  0  0  0
   20.8652   -6.9215  -15.0960 C   0  0  0  0  0  0  0  0  0  0  0  0
   19.5372   -7.4634  -14.7274 C   0  0  2  0  0  0  0  0  0  0  0  0
   19.1074   -8.4209  -15.7829 N   0  0  0  0  0  0  0  0  0  0  0  0
   18.4897   -6.4580  -14.6444 C   0  0  0  0  0  0  0  0  0  0  0  0
   17.7916   -6.0116  -15.7533 O   0  0  0  0  0  0  0  0  0  0  0  0
   18.1780   -5.9386  -13.5481 O   0  0  0  0  0  0  0  0  0  0  0  0
  2  1  1  1
  2  3  1  0
  4  6  1  0
  4  2  1  0
  4  5  1  6
  6  8  1  0
  7  6  2  0
  8  9  1  0
  9 14  1  0
  9 10  1  1
 11 10  1  0
 12 11  1  0
 13 12  2  0
 14 15  2  0
 14 23  1  0
 16 12  1  0
 17 18  1  0
 18 19  2  0
 20 18  1  0
 20 21  1  0
 22 21  1  6
 22 24  1  0
 23 22  1  0
 24 25  1  0
 26 24  2  0
M  END
$$$$
