HKS.pdb
     RDKit          3D

 26 26  0  0  1  0  0  0  0  0999 V2000
   11.0047  -15.8262   12.3740 N   0  0  0  0  0  0  0  0  0  0  0  0
   12.4334  -15.6128   12.4743 C   0  0  1  0  0  0  0  0  0  0  0  0
   12.7477  -14.1425   12.6328 C   0  0  0  0  0  0  0  0  0  0  0  0
   12.3612  -13.4439   11.3790 C   0  0  0  0  0  0  0  0  0  0  0  0
   11.4495  -12.4404   11.1891 C   0  0  0  0  0  0  0  0  0  0  0  0
   11.3950  -12.0793    9.8891 N   0  0  0  0  0  0  0  0  0  0  0  0
   12.2876  -12.8714    9.2598 C   0  0  0  0  0  0  0  0  0  0  0  0
   12.8809  -13.7029   10.1476 N   0  0  0  0  0  0  0  0  0  0  0  0
   12.9675  -16.4377   13.5534 C   0  0  0  0  0  0  0  0  0  0  0  0
   12.3760  -16.4713   14.6486 O   0  0  0  0  0  0  0  0  0  0  0  0
   14.1402  -17.2345   13.4696 N   0  0  0  0  0  0  0  0  0  0  0  0
   14.5496  -18.0580   14.5292 C   0  0  1  0  0  0  0  0  0  0  0  0
   14.8628  -19.4730   14.2589 C   0  0  0  0  0  0  0  0  0  0  0  0
   13.7195  -20.2530   13.6809 C   0  0  0  0  0  0  0  0  0  0  0  0
   13.9327  -21.7012   13.4483 C   0  0  0  0  0  0  0  0  0  0  0  0
   12.6881  -22.3042   12.8143 C   0  0  0  0  0  0  0  0  0  0  0  0
   12.9183  -23.7136   12.5148 N   0  0  0  0  0  0  0  0  0  0  0  0
   15.6619  -17.3666   15.2361 C   0  0  0  0  0  0  0  0  0  0  0  0
   16.4648  -16.5958   14.6552 O   0  0  0  0  0  0  0  0  0  0  0  0
   17.0930  -15.2956   19.1399 O   0  0  0  0  0  0  0  0  0  0  0  0
   16.2044  -15.9608   18.3237 C   0  0  0  0  0  0  0  0  0  0  0  0
   16.8947  -16.8691   17.3289 C   0  0  2  0  0  0  0  0  0  0  0  0
   15.8315  -17.5794   16.6240 N   0  0  0  0  0  0  0  0  0  0  0  0
   17.8030  -17.8238   17.9543 C   0  0  0  0  0  0  0  0  0  0  0  0
   17.5112  -19.0354   18.0141 O   0  0  0  0  0  0  0  0  0  0  0  0
   18.9982  -17.3909   18.4869 O   0  0  0  0  0  0  0  0  0  0  0  0
  2  1  1  1
  2  9  1  0
  2  3  1  0
  3  4  1  0
  4  5  2  0
  5  6  1  0
  7  6  1  0
  8  4  1  0
  8  7  2  0
  9 10  2  0
 11 12  1  0
 11  9  1  0
 12 13  1  6
 13 14  1  0
 14 15  1  0
 15 16  1  0
 16 17  1  0
 18 23  1  0
 18 12  1  0
 19 18  2  0
 20 21  1  0
 22 21  1  1
 22 23  1  0
 24 22  1  0
 24 26  1  0
 25 24  2  0
M  END
$$$$
