HKS.pdb
     RDKit          3D

 26 26  0  0  1  0  0  0  0  0999 V2000
   11.0338  -14.6725   19.9085 N   0  0  0  0  0  0  0  0  0  0  0  0
    9.6243  -14.5449   20.2147 C   0  0  1  0  0  0  0  0  0  0  0  0
    8.8263  -15.6370   19.5392 C   0  0  0  0  0  0  0  0  0  0  0  0
    8.3579  -15.1281   18.2236 C   0  0  0  0  0  0  0  0  0  0  0  0
    8.5774  -13.9120   17.6342 C   0  0  0  0  0  0  0  0  0  0  0  0
    7.9746  -13.8461   16.4277 N   0  0  0  0  0  0  0  0  0  0  0  0
    7.3699  -15.0410   16.2638 C   0  0  0  0  0  0  0  0  0  0  0  0
    7.5924  -15.8283   17.3419 N   0  0  0  0  0  0  0  0  0  0  0  0
    9.4488  -14.5124   21.6633 C   0  0  0  0  0  0  0  0  0  0  0  0
   10.3333  -14.9901   22.3981 O   0  0  0  0  0  0  0  0  0  0  0  0
    8.3242  -13.9679   22.3385 N   0  0  0  0  0  0  0  0  0  0  0  0
    8.2473  -13.9398   23.7392 C   0  0  1  0  0  0  0  0  0  0  0  0
    7.1844  -13.1473   24.3840 C   0  0  0  0  0  0  0  0  0  0  0  0
    7.2379  -13.1572   25.8829 C   0  0  0  0  0  0  0  0  0  0  0  0
    6.2360  -12.3374   26.6046 C   0  0  0  0  0  0  0  0  0  0  0  0
    6.4561  -12.4675   28.1044 C   0  0  0  0  0  0  0  0  0  0  0  0
    5.5134  -11.6133   28.8191 N   0  0  0  0  0  0  0  0  0  0  0  0
    8.2629  -15.3475   24.2217 C   0  0  0  0  0  0  0  0  0  0  0  0
    7.3956  -16.1923   23.8893 O   0  0  0  0  0  0  0  0  0  0  0  0
   10.5842  -19.1464   25.1185 O   0  0  0  0  0  0  0  0  0  0  0  0
   10.3016  -17.8749   24.6692 C   0  0  0  0  0  0  0  0  0  0  0  0
    9.3192  -17.1467   25.5613 C   0  0  2  0  0  0  0  0  0  0  0  0
    9.2959  -15.7638   25.0933 N   0  0  0  0  0  0  0  0  0  0  0  0
    9.6821  -17.1895   26.9734 C   0  0  0  0  0  0  0  0  0  0  0  0
    9.9805  -16.1445   27.5863 O   0  0  0  0  0  0  0  0  0  0  0  0
    9.6978  -18.3930   27.6448 O   0  0  0  0  0  0  0  0  0  0  0  0
  2  1  1  1
  2  9  1  0
  2  3  1  0
  3  4  1  0
  4  5  2  0
  5  6  1  0
  7  6  1  0
  8  4  1  0
  8  7  2  0
  9 10  2  0
 11 12  1  0
 11  9  1  0
 12 13  1  6
 13 14  1  0
 14 15  1  0
 15 16  1  0
 16 17  1  0
 18 23  1  0
 18 12  1  0
 19 18  2  0
 20 21  1  0
 22 21  1  6
 22 23  1  0
 24 22  1  0
 24 26  1  0
 25 24  2  0
M  END
$$$$
