HKS.pdb
     RDKit          3D

 26 26  0  0  1  0  0  0  0  0999 V2000
   11.7809  -14.4977   11.0399 N   0  0  0  0  0  0  0  0  0  0  0  0
   12.2564  -15.6774   11.7320 C   0  0  1  0  0  0  0  0  0  0  0  0
   13.7662  -15.6825   11.8108 C   0  0  0  0  0  0  0  0  0  0  0  0
   14.3042  -15.9636   10.4540 C   0  0  0  0  0  0  0  0  0  0  0  0
   13.7688  -16.7206    9.4467 C   0  0  0  0  0  0  0  0  0  0  0  0
   14.5762  -16.7219    8.3644 N   0  0  0  0  0  0  0  0  0  0  0  0
   15.6315  -15.9529    8.7040 C   0  0  0  0  0  0  0  0  0  0  0  0
   15.4821  -15.4864    9.9656 N   0  0  0  0  0  0  0  0  0  0  0  0
   11.6091  -15.7617   13.0374 C   0  0  0  0  0  0  0  0  0  0  0  0
   11.6374  -14.7773   13.7996 O   0  0  0  0  0  0  0  0  0  0  0  0
   10.9256  -16.9011   13.5390 N   0  0  0  0  0  0  0  0  0  0  0  0
   10.2580  -16.8769   14.7728 C   0  0  1  0  0  0  0  0  0  0  0  0
    8.9498  -17.5457   14.8944 C   0  0  0  0  0  0  0  0  0  0  0  0
    8.9541  -18.9815   14.4608 C   0  0  0  0  0  0  0  0  0  0  0  0
    7.6526  -19.6905   14.4425 C   0  0  0  0  0  0  0  0  0  0  0  0
    7.8535  -21.1117   13.9380 C   0  0  0  0  0  0  0  0  0  0  0  0
    6.5735  -21.8115   13.9068 N   0  0  0  0  0  0  0  0  0  0  0  0
   11.2165  -17.3347   15.8152 C   0  0  0  0  0  0  0  0  0  0  0  0
   12.3579  -17.7818   15.5434 O   0  0  0  0  0  0  0  0  0  0  0  0
   10.0725  -17.1670   19.8122 O   0  0  0  0  0  0  0  0  0  0  0  0
   11.3904  -16.9618   19.4664 C   0  0  0  0  0  0  0  0  0  0  0  0
   11.7821  -17.6960   18.2020 C   0  0  2  0  0  0  0  0  0  0  0  0
   10.8361  -17.2675   17.1756 N   0  0  0  0  0  0  0  0  0  0  0  0
   11.7421  -19.1472   18.3426 C   0  0  0  0  0  0  0  0  0  0  0  0
   10.8536  -19.8176   17.7786 O   0  0  0  0  0  0  0  0  0  0  0  0
   12.6921  -19.7923   19.1047 O   0  0  0  0  0  0  0  0  0  0  0  0
  2  1  1  1
  2  9  1  0
  2  3  1  0
  3  4  1  0
  4  5  2  0
  5  6  1  0
  7  6  1  0
  8  4  1  0
  8  7  2  0
  9 10  2  0
 11 12  1  0
 11  9  1  0
 12 13  1  6
 13 14  1  0
 14 15  1  0
 15 16  1  0
 16 17  1  0
 18 23  1  0
 18 12  1  0
 19 18  2  0
 20 21  1  0
 22 21  1  1
 22 23  1  0
 24 22  1  0
 24 26  1  0
 25 24  2  0
M  END
$$$$
