HKS.pdb
     RDKit          3D

 26 26  0  0  1  0  0  0  0  0999 V2000
    8.0459  -17.2259   19.3287 N   0  0  0  0  0  0  0  0  0  0  0  0
    9.3666  -16.6498   19.4728 C   0  0  1  0  0  0  0  0  0  0  0  0
    9.7290  -15.8254   18.2584 C   0  0  0  0  0  0  0  0  0  0  0  0
    9.1215  -16.4641   17.0615 C   0  0  0  0  0  0  0  0  0  0  0  0
    8.9222  -17.7915   16.7921 C   0  0  0  0  0  0  0  0  0  0  0  0
    8.3351  -17.9552   15.5870 N   0  0  0  0  0  0  0  0  0  0  0  0
    8.1665  -16.7088   15.0988 C   0  0  0  0  0  0  0  0  0  0  0  0
    8.6373  -15.7951   15.9792 N   0  0  0  0  0  0  0  0  0  0  0  0
    9.4284  -15.8972   20.7218 C   0  0  0  0  0  0  0  0  0  0  0  0
   10.4680  -15.2760   21.0115 O   0  0  0  0  0  0  0  0  0  0  0  0
    8.3773  -15.8028   21.6723 N   0  0  0  0  0  0  0  0  0  0  0  0
    8.5653  -15.1925   22.9215 C   0  0  1  0  0  0  0  0  0  0  0  0
    7.4489  -14.4477   23.5318 C   0  0  0  0  0  0  0  0  0  0  0  0
    7.7928  -13.7884   24.8344 C   0  0  0  0  0  0  0  0  0  0  0  0
    6.7183  -13.0298   25.5174 C   0  0  0  0  0  0  0  0  0  0  0  0
    7.2695  -12.3952   26.7855 C   0  0  0  0  0  0  0  0  0  0  0  0
    6.2256  -11.6165   27.4436 N   0  0  0  0  0  0  0  0  0  0  0  0
    9.1230  -16.2165   23.8463 C   0  0  0  0  0  0  0  0  0  0  0  0
    8.4523  -17.1886   24.2724 O   0  0  0  0  0  0  0  0  0  0  0  0
   13.2350  -16.1761   24.8676 O   0  0  0  0  0  0  0  0  0  0  0  0
   12.4819  -17.3065   24.6363 C   0  0  0  0  0  0  0  0  0  0  0  0
   11.0477  -17.1552   25.0960 C   0  0  2  0  0  0  0  0  0  0  0  0
   10.4672  -16.1002   24.2703 N   0  0  0  0  0  0  0  0  0  0  0  0
   10.9288  -16.8065   26.5073 C   0  0  0  0  0  0  0  0  0  0  0  0
   10.4027  -15.7301   26.8553 O   0  0  0  0  0  0  0  0  0  0  0  0
   11.4001  -17.6700   27.4726 O   0  0  0  0  0  0  0  0  0  0  0  0
  2  1  1  6
  2  9  1  0
  2  3  1  0
  3  4  1  0
  4  5  2  0
  5  6  1  0
  7  6  1  0
  8  4  1  0
  8  7  2  0
  9 10  2  0
 11 12  1  0
 11  9  1  0
 12 13  1  1
 13 14  1  0
 14 15  1  0
 15 16  1  0
 16 17  1  0
 18 23  1  0
 18 12  1  0
 19 18  2  0
 20 21  1  0
 22 21  1  6
 22 23  1  0
 24 22  1  0
 24 26  1  0
 25 24  2  0
M  END
$$$$
