HKS.pdb
     RDKit          3D

 26 26  0  0  1  0  0  0  0  0999 V2000
    8.7740  -16.7205   20.1853 N   0  0  0  0  0  0  0  0  0  0  0  0
    8.3482  -16.0904   21.4175 C   0  0  1  0  0  0  0  0  0  0  0  0
    7.2607  -15.0738   21.1536 C   0  0  0  0  0  0  0  0  0  0  0  0
    7.6948  -14.2064   20.0273 C   0  0  0  0  0  0  0  0  0  0  0  0
    8.8398  -14.2626   19.2788 C   0  0  0  0  0  0  0  0  0  0  0  0
    8.8524  -13.2877   18.3446 N   0  0  0  0  0  0  0  0  0  0  0  0
    7.6960  -12.6138   18.5148 C   0  0  0  0  0  0  0  0  0  0  0  0
    6.9841  -13.1574   19.5293 N   0  0  0  0  0  0  0  0  0  0  0  0
    7.9562  -17.1212   22.3734 C   0  0  0  0  0  0  0  0  0  0  0  0
    7.4813  -16.7863   23.4748 O   0  0  0  0  0  0  0  0  0  0  0  0
    8.0693  -18.5207   22.1589 N   0  0  0  0  0  0  0  0  0  0  0  0
    7.7548  -19.4486   23.1632 C   0  0  1  0  0  0  0  0  0  0  0  0
    7.1566  -20.7416   22.7840 C   0  0  0  0  0  0  0  0  0  0  0  0
    6.7729  -21.6035   23.9500 C   0  0  0  0  0  0  0  0  0  0  0  0
    6.2311  -22.9503   23.6512 C   0  0  0  0  0  0  0  0  0  0  0  0
    5.8829  -23.6596   24.9513 C   0  0  0  0  0  0  0  0  0  0  0  0
    5.4269  -25.0164   24.6683 N   0  0  0  0  0  0  0  0  0  0  0  0
    8.9637  -19.6222   24.0136 C   0  0  0  0  0  0  0  0  0  0  0  0
   10.0915  -19.9136   23.5449 O   0  0  0  0  0  0  0  0  0  0  0  0
    9.6136  -18.8249   28.4792 O   0  0  0  0  0  0  0  0  0  0  0  0
   10.0434  -18.4723   27.2186 C   0  0  0  0  0  0  0  0  0  0  0  0
   10.0305  -19.6369   26.2517 C   0  0  2  0  0  0  0  0  0  0  0  0
    8.8494  -19.4536   25.4131 N   0  0  0  0  0  0  0  0  0  0  0  0
    9.9755  -20.9351   26.9142 C   0  0  0  0  0  0  0  0  0  0  0  0
    8.9371  -21.6259   26.8764 O   0  0  0  0  0  0  0  0  0  0  0  0
   11.0777  -21.4108   27.5910 O   0  0  0  0  0  0  0  0  0  0  0  0
  2  1  1  6
  2  9  1  0
  2  3  1  0
  3  4  1  0
  4  5  2  0
  5  6  1  0
  7  6  1  0
  8  4  1  0
  8  7  2  0
  9 10  2  0
 11 12  1  0
 11  9  1  0
 12 13  1  6
 13 14  1  0
 14 15  1  0
 15 16  1  0
 16 17  1  0
 18 23  1  0
 18 12  1  0
 19 18  2  0
 20 21  1  0
 22 21  1  1
 22 23  1  0
 24 22  1  0
 24 26  1  0
 25 24  2  0
M  END
$$$$
