HKS.pdb
     RDKit          3D

 26 26  0  0  1  0  0  0  0  0999 V2000
    6.5631  -15.9205   20.7016 N   0  0  0  0  0  0  0  0  0  0  0  0
    7.9006  -15.5428   21.1079 C   0  0  1  0  0  0  0  0  0  0  0  0
    8.1706  -14.0906   20.7856 C   0  0  0  0  0  0  0  0  0  0  0  0
    8.1302  -13.9241   19.3091 C   0  0  0  0  0  0  0  0  0  0  0  0
    7.3101  -13.1374   18.5456 C   0  0  0  0  0  0  0  0  0  0  0  0
    7.5985  -13.2727   17.2334 N   0  0  0  0  0  0  0  0  0  0  0  0
    8.6149  -14.1584   17.1797 C   0  0  0  0  0  0  0  0  0  0  0  0
    8.9484  -14.5621   18.4276 N   0  0  0  0  0  0  0  0  0  0  0  0
    8.0825  -15.8651   22.5197 C   0  0  0  0  0  0  0  0  0  0  0  0
    7.2041  -15.5396   23.3401 O   0  0  0  0  0  0  0  0  0  0  0  0
    9.2069  -16.5391   23.0662 N   0  0  0  0  0  0  0  0  0  0  0  0
    9.2806  -16.8655   24.4287 C   0  0  1  0  0  0  0  0  0  0  0  0
    9.9647  -18.1071   24.8334 C   0  0  0  0  0  0  0  0  0  0  0  0
   10.0268  -18.3156   26.3174 C   0  0  0  0  0  0  0  0  0  0  0  0
   10.8433  -19.4497   26.8114 C   0  0  0  0  0  0  0  0  0  0  0  0
   10.6602  -19.5927   28.3150 C   0  0  0  0  0  0  0  0  0  0  0  0
   11.4161  -20.7432   28.7987 N   0  0  0  0  0  0  0  0  0  0  0  0
    9.8106  -15.6769   25.1509 C   0  0  0  0  0  0  0  0  0  0  0  0
   10.9231  -15.1583   24.8870 O   0  0  0  0  0  0  0  0  0  0  0  0
    7.2507  -13.3607   27.3077 O   0  0  0  0  0  0  0  0  0  0  0  0
    8.4570  -12.8876   26.8392 C   0  0  0  0  0  0  0  0  0  0  0  0
    9.5523  -13.9311   26.8923 C   0  0  2  0  0  0  0  0  0  0  0  0
    9.0351  -15.0971   26.1817 N   0  0  0  0  0  0  0  0  0  0  0  0
    9.9293  -14.3019   28.2516 C   0  0  0  0  0  0  0  0  0  0  0  0
    9.8164  -15.4806   28.6448 O   0  0  0  0  0  0  0  0  0  0  0  0
   10.4163  -13.3460   29.1169 O   0  0  0  0  0  0  0  0  0  0  0  0
  2  1  1  1
  2  9  1  0
  2  3  1  0
  3  4  1  0
  4  5  2  0
  5  6  1  0
  7  6  1  0
  8  4  1  0
  8  7  2  0
  9 10  2  0
 11 12  1  0
 11  9  1  0
 12 13  1  6
 13 14  1  0
 14 15  1  0
 15 16  1  0
 16 17  1  0
 18 23  1  0
 18 12  1  0
 19 18  2  0
 20 21  1  0
 22 21  1  1
 22 23  1  0
 24 22  1  0
 24 26  1  0
 25 24  2  0
M  END
$$$$
