HKS.pdb
     RDKit          3D

 26 26  0  0  1  0  0  0  0  0999 V2000
   13.8934  -19.8941   14.3171 N   0  0  0  0  0  0  0  0  0  0  0  0
   14.6711  -20.6730   15.2579 C   0  0  1  0  0  0  0  0  0  0  0  0
   15.9515  -19.9557   15.6210 C   0  0  0  0  0  0  0  0  0  0  0  0
   16.9879  -20.3120   14.6169 C   0  0  0  0  0  0  0  0  0  0  0  0
   17.1224  -21.4548   13.8752 C   0  0  0  0  0  0  0  0  0  0  0  0
   18.2058  -21.3828   13.0724 N   0  0  0  0  0  0  0  0  0  0  0  0
   18.7543  -20.1750   13.3187 C   0  0  0  0  0  0  0  0  0  0  0  0
   18.0290  -19.5146   14.2511 N   0  0  0  0  0  0  0  0  0  0  0  0
   13.8418  -20.9965   16.4146 C   0  0  0  0  0  0  0  0  0  0  0  0
   12.9568  -20.1985   16.7758 O   0  0  0  0  0  0  0  0  0  0  0  0
   13.9525  -22.1778   17.1953 N   0  0  0  0  0  0  0  0  0  0  0  0
   13.0478  -22.4669   18.2279 C   0  0  1  0  0  0  0  0  0  0  0  0
   12.5051  -23.8326   18.3453 C   0  0  0  0  0  0  0  0  0  0  0  0
   11.4590  -23.9858   19.4092 C   0  0  0  0  0  0  0  0  0  0  0  0
   10.8033  -25.3092   19.5329 C   0  0  0  0  0  0  0  0  0  0  0  0
    9.7363  -25.2501   20.6158 C   0  0  0  0  0  0  0  0  0  0  0  0
    9.0946  -26.5536   20.7502 N   0  0  0  0  0  0  0  0  0  0  0  0
   13.6519  -21.9961   19.5040 C   0  0  0  0  0  0  0  0  0  0  0  0
   14.8667  -22.1502   19.7814 O   0  0  0  0  0  0  0  0  0  0  0  0
   11.2009  -20.2937   22.4200 O   0  0  0  0  0  0  0  0  0  0  0  0
   12.4766  -19.8082   22.2319 C   0  0  0  0  0  0  0  0  0  0  0  0
   13.4261  -20.8577   21.6949 C   0  0  2  0  0  0  0  0  0  0  0  0
   12.8311  -21.3445   20.4536 N   0  0  0  0  0  0  0  0  0  0  0  0
   13.6377  -21.9686   22.6160 C   0  0  0  0  0  0  0  0  0  0  0  0
   13.2646  -23.1217   22.3196 O   0  0  0  0  0  0  0  0  0  0  0  0
   14.2556  -21.7505   23.8285 O   0  0  0  0  0  0  0  0  0  0  0  0
  2  1  1  6
  2  9  1  0
  2  3  1  0
  3  4  1  0
  4  5  2  0
  5  6  1  0
  7  6  1  0
  8  4  1  0
  8  7  2  0
  9 10  2  0
 11 12  1  0
 11  9  1  0
 12 13  1  1
 13 14  1  0
 14 15  1  0
 15 16  1  0
 16 17  1  0
 18 23  1  0
 18 12  1  0
 19 18  2  0
 20 21  1  0
 22 21  1  1
 22 23  1  0
 24 22  1  0
 24 26  1  0
 25 24  2  0
M  END
$$$$
