HKS.pdb
     RDKit          3D

 26 26  0  0  1  0  0  0  0  0999 V2000
   14.8883  -13.8290   15.9924 N   0  0  0  0  0  0  0  0  0  0  0  0
   15.2548  -14.1876   17.3466 C   0  0  1  0  0  0  0  0  0  0  0  0
   15.9486  -13.0363   18.0386 C   0  0  0  0  0  0  0  0  0  0  0  0
   17.3317  -12.9344   17.5036 C   0  0  0  0  0  0  0  0  0  0  0  0
   18.3894  -13.7891   17.6616 C   0  0  0  0  0  0  0  0  0  0  0  0
   19.4797  -13.3312   17.0095 N   0  0  0  0  0  0  0  0  0  0  0  0
   19.0937  -12.1724   16.4363 C   0  0  0  0  0  0  0  0  0  0  0  0
   17.7963  -11.9181   16.7259 N   0  0  0  0  0  0  0  0  0  0  0  0
   14.0694  -14.6586   18.0560 C   0  0  0  0  0  0  0  0  0  0  0  0
   13.0067  -14.0157   17.9668 O   0  0  0  0  0  0  0  0  0  0  0  0
   14.0110  -15.8226   18.8676 N   0  0  0  0  0  0  0  0  0  0  0  0
   12.8022  -16.2831   19.4109 C   0  0  1  0  0  0  0  0  0  0  0  0
   12.2252  -17.5446   18.9116 C   0  0  0  0  0  0  0  0  0  0  0  0
   10.9675  -17.9623   19.6139 C   0  0  0  0  0  0  0  0  0  0  0  0
   10.3552  -19.2486   19.2051 C   0  0  0  0  0  0  0  0  0  0  0  0
    9.0947  -19.4951   20.0206 C   0  0  0  0  0  0  0  0  0  0  0  0
    8.4977  -20.7698   19.6364 N   0  0  0  0  0  0  0  0  0  0  0  0
   12.9426  -16.2829   20.8925 C   0  0  0  0  0  0  0  0  0  0  0  0
   14.0328  -16.5043   21.4745 O   0  0  0  0  0  0  0  0  0  0  0  0
    9.5247  -16.1465   23.2686 O   0  0  0  0  0  0  0  0  0  0  0  0
   10.6496  -15.4742   23.6941 C   0  0  0  0  0  0  0  0  0  0  0  0
   11.9277  -16.0709   23.1447 C   0  0  2  0  0  0  0  0  0  0  0  0
   11.8044  -16.0226   21.6906 N   0  0  0  0  0  0  0  0  0  0  0  0
   12.1564  -17.4439   23.5806 C   0  0  0  0  0  0  0  0  0  0  0  0
   12.1079  -18.3874   22.7656 O   0  0  0  0  0  0  0  0  0  0  0  0
   12.4296  -17.7101   24.9050 O   0  0  0  0  0  0  0  0  0  0  0  0
  2  1  1  6
  2  9  1  0
  2  3  1  0
  3  4  1  0
  4  5  2  0
  5  6  1  0
  7  6  1  0
  8  4  1  0
  8  7  2  0
  9 10  2  0
 11 12  1  0
 11  9  1  0
 12 13  1  6
 13 14  1  0
 14 15  1  0
 15 16  1  0
 16 17  1  0
 18 23  1  0
 18 12  1  0
 19 18  2  0
 20 21  1  0
 22 21  1  1
 22 23  1  0
 24 22  1  0
 24 26  1  0
 25 24  2  0
M  END
$$$$
