HKS.pdb
     RDKit          3D

 26 26  0  0  1  0  0  0  0  0999 V2000
    7.3921  -16.7718   21.2386 N   0  0  0  0  0  0  0  0  0  0  0  0
    8.7738  -16.3470   21.1536 C   0  0  1  0  0  0  0  0  0  0  0  0
    8.9478  -14.9635   21.7379 C   0  0  0  0  0  0  0  0  0  0  0  0
    8.3284  -13.9824   20.8089 C   0  0  0  0  0  0  0  0  0  0  0  0
    7.6972  -14.1969   19.6131 C   0  0  0  0  0  0  0  0  0  0  0  0
    7.2720  -13.0325   19.0776 N   0  0  0  0  0  0  0  0  0  0  0  0
    7.6450  -12.0777   19.9549 C   0  0  0  0  0  0  0  0  0  0  0  0
    8.2855  -12.6363   21.0081 N   0  0  0  0  0  0  0  0  0  0  0  0
    9.6245  -17.3518   21.7836 C   0  0  0  0  0  0  0  0  0  0  0  0
    9.2087  -17.9663   22.7836 O   0  0  0  0  0  0  0  0  0  0  0  0
   10.9288  -17.7078   21.3485 N   0  0  0  0  0  0  0  0  0  0  0  0
   11.6066  -18.8157   21.8793 C   0  0  1  0  0  0  0  0  0  0  0  0
   12.6222  -19.4976   21.0565 C   0  0  0  0  0  0  0  0  0  0  0  0
   13.2139  -20.7161   21.7005 C   0  0  0  0  0  0  0  0  0  0  0  0
   14.3220  -21.3930   20.9860 C   0  0  0  0  0  0  0  0  0  0  0  0
   14.7376  -22.6390   21.7537 C   0  0  0  0  0  0  0  0  0  0  0  0
   15.8269  -23.3116   21.0536 N   0  0  0  0  0  0  0  0  0  0  0  0
   12.1410  -18.4236   23.2118 C   0  0  0  0  0  0  0  0  0  0  0  0
   12.8458  -17.4000   23.3899 O   0  0  0  0  0  0  0  0  0  0  0  0
   10.4720  -19.8607   26.6546 O   0  0  0  0  0  0  0  0  0  0  0  0
   11.2490  -18.7255   26.5780 C   0  0  0  0  0  0  0  0  0  0  0  0
   12.4201  -18.8837   25.6321 C   0  0  2  0  0  0  0  0  0  0  0  0
   11.8480  -19.2320   24.3346 N   0  0  0  0  0  0  0  0  0  0  0  0
   13.3656  -19.9115   26.0526 C   0  0  0  0  0  0  0  0  0  0  0  0
   13.5021  -20.9605   25.3910 O   0  0  0  0  0  0  0  0  0  0  0  0
   14.1198  -19.7297   27.1917 O   0  0  0  0  0  0  0  0  0  0  0  0
  2  1  1  1
  2  9  1  0
  2  3  1  0
  3  4  1  0
  4  5  2  0
  5  6  1  0
  7  6  1  0
  8  4  1  0
  8  7  2  0
  9 10  2  0
 11 12  1  0
 11  9  1  0
 12 13  1  6
 13 14  1  0
 14 15  1  0
 15 16  1  0
 16 17  1  0
 18 23  1  0
 18 12  1  0
 19 18  2  0
 20 21  1  0
 22 21  1  1
 22 23  1  0
 24 22  1  0
 24 26  1  0
 25 24  2  0
M  END
$$$$
