HKS.pdb
     RDKit          3D

 26 26  0  0  1  0  0  0  0  0999 V2000
    6.9872  -16.6775   20.9407 N   0  0  0  0  0  0  0  0  0  0  0  0
    8.4138  -16.4424   21.0200 C   0  0  1  0  0  0  0  0  0  0  0  0
    8.7061  -15.1497   21.7476 C   0  0  0  0  0  0  0  0  0  0  0  0
    8.2204  -14.0218   20.9102 C   0  0  0  0  0  0  0  0  0  0  0  0
    7.5991  -14.0499   19.6905 C   0  0  0  0  0  0  0  0  0  0  0  0
    7.3167  -12.7997   19.2653 N   0  0  0  0  0  0  0  0  0  0  0  0
    7.7698  -11.9803   20.2367 C   0  0  0  0  0  0  0  0  0  0  0  0
    8.3195  -12.7044   21.2392 N   0  0  0  0  0  0  0  0  0  0  0  0
    9.0591  -17.6041   21.6235 C   0  0  0  0  0  0  0  0  0  0  0  0
    8.5726  -18.1089   22.6527 O   0  0  0  0  0  0  0  0  0  0  0  0
   10.2316  -18.2361   21.1306 N   0  0  0  0  0  0  0  0  0  0  0  0
   10.7260  -19.4196   21.6991 C   0  0  1  0  0  0  0  0  0  0  0  0
   11.4599  -20.3732   20.8473 C   0  0  0  0  0  0  0  0  0  0  0  0
   10.6980  -20.8236   19.6363 C   0  0  0  0  0  0  0  0  0  0  0  0
   11.3712  -21.7800   18.7259 C   0  0  0  0  0  0  0  0  0  0  0  0
   10.4325  -22.1451   17.5856 C   0  0  0  0  0  0  0  0  0  0  0  0
   11.1061  -23.0503   16.6604 N   0  0  0  0  0  0  0  0  0  0  0  0
   11.5003  -19.0488   22.9148 C   0  0  0  0  0  0  0  0  0  0  0  0
   12.2744  -18.0611   22.9557 O   0  0  0  0  0  0  0  0  0  0  0  0
   10.6540  -20.8753   26.5693 O   0  0  0  0  0  0  0  0  0  0  0  0
   11.1631  -19.6017   26.4381 C   0  0  0  0  0  0  0  0  0  0  0  0
   12.1247  -19.4755   25.2760 C   0  0  2  0  0  0  0  0  0  0  0  0
   11.3659  -19.8362   24.0818 N   0  0  0  0  0  0  0  0  0  0  0  0
   13.2961  -20.3354   25.4014 C   0  0  0  0  0  0  0  0  0  0  0  0
   13.4893  -21.2699   24.5976 O   0  0  0  0  0  0  0  0  0  0  0  0
   14.2039  -20.1200   26.4159 O   0  0  0  0  0  0  0  0  0  0  0  0
  2  1  1  1
  2  9  1  0
  2  3  1  0
  3  4  1  0
  4  5  2  0
  5  6  1  0
  7  6  1  0
  8  4  1  0
  8  7  2  0
  9 10  2  0
 11 12  1  0
 11  9  1  0
 12 13  1  6
 13 14  1  0
 14 15  1  0
 15 16  1  0
 16 17  1  0
 18 23  1  0
 18 12  1  0
 19 18  2  0
 20 21  1  0
 22 21  1  1
 22 23  1  0
 24 22  1  0
 24 26  1  0
 25 24  2  0
M  END
$$$$
