HKS.pdb
     RDKit          3D

 26 26  0  0  1  0  0  0  0  0999 V2000
    7.0822  -16.4025   17.0106 N   0  0  0  0  0  0  0  0  0  0  0  0
    8.3481  -15.9230   17.5250 C   0  0  1  0  0  0  0  0  0  0  0  0
    8.4019  -14.4124   17.4980 C   0  0  0  0  0  0  0  0  0  0  0  0
    8.2496  -13.9642   16.0890 C   0  0  0  0  0  0  0  0  0  0  0  0
    7.2525  -13.2209   15.5167 C   0  0  0  0  0  0  0  0  0  0  0  0
    7.4896  -13.0292   14.2012 N   0  0  0  0  0  0  0  0  0  0  0  0
    8.6536  -13.6640   13.9510 C   0  0  0  0  0  0  0  0  0  0  0  0
    9.1264  -14.2350   15.0833 N   0  0  0  0  0  0  0  0  0  0  0  0
    8.5707  -16.4858   18.8531 C   0  0  0  0  0  0  0  0  0  0  0  0
    7.7420  -16.2689   19.7568 O   0  0  0  0  0  0  0  0  0  0  0  0
    9.6832  -17.2862   19.2259 N   0  0  0  0  0  0  0  0  0  0  0  0
    9.7490  -17.9216   20.4751 C   0  0  1  0  0  0  0  0  0  0  0  0
    9.9678  -19.3785   20.5287 C   0  0  0  0  0  0  0  0  0  0  0  0
    8.8603  -20.1863   19.9198 C   0  0  0  0  0  0  0  0  0  0  0  0
    9.0664  -21.6501   19.8111 C   0  0  0  0  0  0  0  0  0  0  0  0
    7.8280  -22.2957   19.2078 C   0  0  0  0  0  0  0  0  0  0  0  0
    8.0912  -23.7026   18.9246 N   0  0  0  0  0  0  0  0  0  0  0  0
   10.7334  -17.1796   21.3089 C   0  0  0  0  0  0  0  0  0  0  0  0
   11.7439  -16.6108   20.8276 O   0  0  0  0  0  0  0  0  0  0  0  0
   11.5842  -15.4126   25.7359 O   0  0  0  0  0  0  0  0  0  0  0  0
   10.7794  -16.0732   24.8335 C   0  0  0  0  0  0  0  0  0  0  0  0
   11.4845  -16.3602   23.5252 C   0  0  2  0  0  0  0  0  0  0  0  0
   10.5316  -17.1046   22.7067 N   0  0  0  0  0  0  0  0  0  0  0  0
   12.7112  -17.1322   23.6892 C   0  0  0  0  0  0  0  0  0  0  0  0
   12.6950  -18.3775   23.6136 O   0  0  0  0  0  0  0  0  0  0  0  0
   13.9048  -16.4866   23.9302 O   0  0  0  0  0  0  0  0  0  0  0  0
  2  1  1  1
  2  9  1  0
  2  3  1  0
  3  4  1  0
  4  5  2  0
  5  6  1  0
  7  6  1  0
  8  4  1  0
  8  7  2  0
  9 10  2  0
 11 12  1  0
 11  9  1  0
 12 13  1  6
 13 14  1  0
 14 15  1  0
 15 16  1  0
 16 17  1  0
 18 23  1  0
 18 12  1  0
 19 18  2  0
 20 21  1  0
 22 21  1  1
 22 23  1  0
 24 22  1  0
 24 26  1  0
 25 24  2  0
M  END
$$$$
