HKS.pdb
     RDKit          3D

 26 26  0  0  1  0  0  0  0  0999 V2000
   11.6575  -14.6815   20.0749 N   0  0  0  0  0  0  0  0  0  0  0  0
   10.4130  -14.7338   20.8133 C   0  0  1  0  0  0  0  0  0  0  0  0
    9.3706  -15.5237   20.0550 C   0  0  0  0  0  0  0  0  0  0  0  0
    8.4909  -14.5662   19.3347 C   0  0  0  0  0  0  0  0  0  0  0  0
    8.5808  -13.2031   19.2442 C   0  0  0  0  0  0  0  0  0  0  0  0
    7.5787  -12.7038   18.4893 N   0  0  0  0  0  0  0  0  0  0  0  0
    6.8534  -13.7742   18.1038 C   0  0  0  0  0  0  0  0  0  0  0  0
    7.3924  -14.9089   18.6072 N   0  0  0  0  0  0  0  0  0  0  0  0
   10.6710  -15.2536   22.1525 C   0  0  0  0  0  0  0  0  0  0  0  0
   11.7186  -15.8902   22.3710 O   0  0  0  0  0  0  0  0  0  0  0  0
    9.8092  -15.0964   23.2705 N   0  0  0  0  0  0  0  0  0  0  0  0
   10.2234  -15.4175   24.5720 C   0  0  1  0  0  0  0  0  0  0  0  0
    9.6645  -14.6645   25.7095 C   0  0  0  0  0  0  0  0  0  0  0  0
   10.1658  -15.1176   27.0486 C   0  0  0  0  0  0  0  0  0  0  0  0
    9.7176  -14.3535   28.2369 C   0  0  0  0  0  0  0  0  0  0  0  0
   10.3329  -14.9551   29.4915 C   0  0  0  0  0  0  0  0  0  0  0  0
    9.9033  -14.2007   30.6643 N   0  0  0  0  0  0  0  0  0  0  0  0
   10.0680  -16.8873   24.7467 C   0  0  0  0  0  0  0  0  0  0  0  0
    8.9931  -17.4923   24.5125 O   0  0  0  0  0  0  0  0  0  0  0  0
   13.2167  -19.4613   24.6206 O   0  0  0  0  0  0  0  0  0  0  0  0
   11.8879  -19.7981   24.4822 C   0  0  0  0  0  0  0  0  0  0  0  0
   10.9969  -19.0706   25.4662 C   0  0  2  0  0  0  0  0  0  0  0  0
   11.1734  -17.6466   25.1956 N   0  0  0  0  0  0  0  0  0  0  0  0
   11.3216  -19.3578   26.8588 C   0  0  0  0  0  0  0  0  0  0  0  0
   11.6780  -18.4449   27.6311 O   0  0  0  0  0  0  0  0  0  0  0  0
   11.2361  -20.6485   27.3344 O   0  0  0  0  0  0  0  0  0  0  0  0
  2  1  1  6
  2  9  1  0
  2  3  1  0
  3  4  1  0
  4  5  2  0
  5  6  1  0
  7  6  1  0
  8  4  1  0
  8  7  2  0
  9 10  2  0
 11 12  1  0
 11  9  1  0
 12 13  1  1
 13 14  1  0
 14 15  1  0
 15 16  1  0
 16 17  1  0
 18 23  1  0
 18 12  1  0
 19 18  2  0
 20 21  1  0
 22 21  1  6
 22 23  1  0
 24 22  1  0
 24 26  1  0
 25 24  2  0
M  END
$$$$
