HKS.pdb
     RDKit          3D

 26 26  0  0  1  0  0  0  0  0999 V2000
    6.8187  -17.2231   26.3205 N   0  0  0  0  0  0  0  0  0  0  0  0
    7.7604  -16.2120   25.8873 C   0  0  1  0  0  0  0  0  0  0  0  0
    9.0761  -16.3541   26.6184 C   0  0  0  0  0  0  0  0  0  0  0  0
    9.1967  -15.2323   27.5861 C   0  0  0  0  0  0  0  0  0  0  0  0
    8.5019  -14.0539   27.6412 C   0  0  0  0  0  0  0  0  0  0  0  0
    8.9154  -13.2996   28.6820 N   0  0  0  0  0  0  0  0  0  0  0  0
    9.8836  -14.0207   29.2844 C   0  0  0  0  0  0  0  0  0  0  0  0
   10.0659  -15.1929   28.6332 N   0  0  0  0  0  0  0  0  0  0  0  0
    7.8964  -16.2732   24.4354 C   0  0  0  0  0  0  0  0  0  0  0  0
    7.9130  -17.3816   23.8681 O   0  0  0  0  0  0  0  0  0  0  0  0
    8.0158  -15.1477   23.5773 N   0  0  0  0  0  0  0  0  0  0  0  0
    8.2550  -15.2907   22.2023 C   0  0  1  0  0  0  0  0  0  0  0  0
    7.9466  -14.1669   21.2993 C   0  0  0  0  0  0  0  0  0  0  0  0
    8.2459  -14.4422   19.8556 C   0  0  0  0  0  0  0  0  0  0  0  0
    7.9891  -13.3499   18.8873 C   0  0  0  0  0  0  0  0  0  0  0  0
    8.2361  -13.8537   17.4732 C   0  0  0  0  0  0  0  0  0  0  0  0
    7.9013  -12.8100   16.5102 N   0  0  0  0  0  0  0  0  0  0  0  0
    9.6528  -15.7731   22.0338 C   0  0  0  0  0  0  0  0  0  0  0  0
   10.6277  -15.2648   22.6400 O   0  0  0  0  0  0  0  0  0  0  0  0
   10.5604  -19.4283   21.8830 O   0  0  0  0  0  0  0  0  0  0  0  0
   11.1944  -18.8208   20.8213 C   0  0  0  0  0  0  0  0  0  0  0  0
   11.2785  -17.3173   20.9756 C   0  0  2  0  0  0  0  0  0  0  0  0
    9.9063  -16.8516   21.1547 N   0  0  0  0  0  0  0  0  0  0  0  0
   11.8849  -16.6534   19.8272 C   0  0  0  0  0  0  0  0  0  0  0  0
   11.2153  -15.8820   19.1107 O   0  0  0  0  0  0  0  0  0  0  0  0
   13.2108  -16.8751   19.5237 O   0  0  0  0  0  0  0  0  0  0  0  0
  2  1  1  1
  2  9  1  0
  2  3  1  0
  3  4  1  0
  4  5  2  0
  5  6  1  0
  7  6  1  0
  8  4  1  0
  8  7  2  0
  9 10  2  0
 11 12  1  0
 11  9  1  0
 12 13  1  6
 13 14  1  0
 14 15  1  0
 15 16  1  0
 16 17  1  0
 18 23  1  0
 18 12  1  0
 19 18  2  0
 20 21  1  0
 22 21  1  6
 22 23  1  0
 24 22  1  0
 24 26  1  0
 25 24  2  0
M  END
$$$$
