HKS.pdb
     RDKit          3D

 26 26  0  0  1  0  0  0  0  0999 V2000
    5.6704  -14.9429   21.0563 N   0  0  0  0  0  0  0  0  0  0  0  0
    6.9896  -15.4790   21.3192 C   0  0  1  0  0  0  0  0  0  0  0  0
    8.0310  -14.3834   21.2888 C   0  0  0  0  0  0  0  0  0  0  0  0
    8.1755  -13.9144   19.8858 C   0  0  0  0  0  0  0  0  0  0  0  0
    7.5618  -14.3699   18.7499 C   0  0  0  0  0  0  0  0  0  0  0  0
    7.9687  -13.6699   17.6693 N   0  0  0  0  0  0  0  0  0  0  0  0
    8.8502  -12.7638   18.1408 C   0  0  0  0  0  0  0  0  0  0  0  0
    8.9865  -12.8987   19.4804 N   0  0  0  0  0  0  0  0  0  0  0  0
    6.9653  -16.2188   22.5771 C   0  0  0  0  0  0  0  0  0  0  0  0
    6.5839  -15.6478   23.6159 O   0  0  0  0  0  0  0  0  0  0  0  0
    7.3493  -17.5771   22.7343 N   0  0  0  0  0  0  0  0  0  0  0  0
    7.3129  -18.2139   23.9839 C   0  0  1  0  0  0  0  0  0  0  0  0
    7.0548  -19.6642   24.0432 C   0  0  0  0  0  0  0  0  0  0  0  0
    7.0073  -20.2208   25.4352 C   0  0  0  0  0  0  0  0  0  0  0  0
    6.7643  -21.6758   25.5781 C   0  0  0  0  0  0  0  0  0  0  0  0
    6.6376  -22.0290   27.0525 C   0  0  0  0  0  0  0  0  0  0  0  0
    6.3770  -23.4572   27.1989 N   0  0  0  0  0  0  0  0  0  0  0  0
    8.5507  -17.8380   24.7197 C   0  0  0  0  0  0  0  0  0  0  0  0
    9.6964  -17.9159   24.2121 O   0  0  0  0  0  0  0  0  0  0  0  0
    8.2107  -15.6237   28.1138 O   0  0  0  0  0  0  0  0  0  0  0  0
    9.3866  -15.6537   27.3964 C   0  0  0  0  0  0  0  0  0  0  0  0
    9.6571  -17.0084   26.7775 C   0  0  2  0  0  0  0  0  0  0  0  0
    8.4440  -17.3705   26.0502 N   0  0  0  0  0  0  0  0  0  0  0  0
    9.9754  -18.0377   27.7607 C   0  0  0  0  0  0  0  0  0  0  0  0
    9.2356  -19.0322   27.9040 O   0  0  0  0  0  0  0  0  0  0  0  0
   11.1034  -17.9179   28.5435 O   0  0  0  0  0  0  0  0  0  0  0  0
  2  1  1  1
  2  9  1  0
  2  3  1  0
  3  4  1  0
  4  5  2  0
  5  6  1  0
  7  6  1  0
  8  4  1  0
  8  7  2  0
  9 10  2  0
 11 12  1  0
 11  9  1  0
 12 13  1  6
 13 14  1  0
 14 15  1  0
 15 16  1  0
 16 17  1  0
 18 23  1  0
 18 12  1  0
 19 18  2  0
 20 21  1  0
 22 21  1  1
 22 23  1  0
 24 22  1  0
 24 26  1  0
 25 24  2  0
M  END
$$$$
