HKS.pdb
     RDKit          3D

 26 26  0  0  1  0  0  0  0  0999 V2000
   11.0046  -14.2732   19.9042 N   0  0  0  0  0  0  0  0  0  0  0  0
    9.5878  -14.2687   20.2034 C   0  0  1  0  0  0  0  0  0  0  0  0
    8.8742  -15.3633   19.4429 C   0  0  0  0  0  0  0  0  0  0  0  0
    8.5733  -14.8632   18.0759 C   0  0  0  0  0  0  0  0  0  0  0  0
    8.8742  -13.6549   17.5071 C   0  0  0  0  0  0  0  0  0  0  0  0
    8.4224  -13.5955   16.2359 N   0  0  0  0  0  0  0  0  0  0  0  0
    7.8306  -14.7868   16.0103 C   0  0  0  0  0  0  0  0  0  0  0  0
    7.9135  -15.5654   17.1141 N   0  0  0  0  0  0  0  0  0  0  0  0
    9.4020  -14.3531   21.6485 C   0  0  0  0  0  0  0  0  0  0  0  0
   10.3560  -14.7008   22.3693 O   0  0  0  0  0  0  0  0  0  0  0  0
    8.1925  -14.0659   22.3355 N   0  0  0  0  0  0  0  0  0  0  0  0
    8.1075  -14.1234   23.7347 C   0  0  1  0  0  0  0  0  0  0  0  0
    6.9666  -13.4801   24.4116 C   0  0  0  0  0  0  0  0  0  0  0  0
    7.2048  -13.1820   25.8621 C   0  0  0  0  0  0  0  0  0  0  0  0
    6.3550  -12.1435   26.4916 C   0  0  0  0  0  0  0  0  0  0  0  0
    6.6744  -12.0548   27.9764 C   0  0  0  0  0  0  0  0  0  0  0  0
    5.8393  -11.0350   28.6024 N   0  0  0  0  0  0  0  0  0  0  0  0
    8.2648  -15.5468   24.1397 C   0  0  0  0  0  0  0  0  0  0  0  0
    7.5085  -16.4607   23.7283 O   0  0  0  0  0  0  0  0  0  0  0  0
   11.5745  -17.5358   24.5215 O   0  0  0  0  0  0  0  0  0  0  0  0
   10.2807  -18.0095   24.5323 C   0  0  0  0  0  0  0  0  0  0  0  0
    9.3979  -17.2707   25.5151 C   0  0  2  0  0  0  0  0  0  0  0  0
    9.3092  -15.8976   25.0264 N   0  0  0  0  0  0  0  0  0  0  0  0
    9.9173  -17.2826   26.8779 C   0  0  0  0  0  0  0  0  0  0  0  0
   10.2315  -16.2188   27.4492 O   0  0  0  0  0  0  0  0  0  0  0  0
   10.0655  -18.4775   27.5486 O   0  0  0  0  0  0  0  0  0  0  0  0
  2  1  1  1
  2  9  1  0
  2  3  1  0
  3  4  1  0
  4  5  2  0
  5  6  1  0
  7  6  1  0
  8  4  1  0
  8  7  2  0
  9 10  2  0
 11 12  1  0
 11  9  1  0
 12 13  1  6
 13 14  1  0
 14 15  1  0
 15 16  1  0
 16 17  1  0
 18 23  1  0
 18 12  1  0
 19 18  2  0
 20 21  1  0
 22 21  1  6
 22 23  1  0
 24 22  1  0
 24 26  1  0
 25 24  2  0
M  END
$$$$
