LIV.pdb
     RDKit          3D

 24 23  0  0  1  0  0  0  0  0999 V2000
   27.8112  -17.5263  -17.3128 C   0  0  0  0  0  0  0  0  0  0  0  0
   28.2792  -18.5134  -16.2902 C   0  0  1  0  0  0  0  0  0  0  0  0
   28.9751  -17.7507  -15.1847 C   0  0  0  0  0  0  0  0  0  0  0  0
   27.1433  -19.3609  -15.7561 C   0  0  0  0  0  0  0  0  0  0  0  0
   27.6033  -20.2596  -14.6366 C   0  0  2  0  0  0  0  0  0  0  0  0
   28.4104  -21.3135  -15.2211 N   0  0  0  0  0  0  0  0  0  0  0  0
   26.5071  -20.8352  -13.8619 C   0  0  0  0  0  0  0  0  0  0  0  0
   25.8869  -21.8622  -14.3057 O   0  0  0  0  0  0  0  0  0  0  0  0
   26.6398  -20.4794   -8.6777 C   0  0  0  0  0  0  0  0  0  0  0  0
   26.1477  -21.1920   -9.8996 C   0  0  0  0  0  0  0  0  0  0  0  0
   24.9107  -20.5350  -10.4839 C   0  0  2  0  0  0  0  0  0  0  0  0
   23.7238  -21.0653   -9.7515 C   0  0  0  0  0  0  0  0  0  0  0  0
   24.8607  -20.8319  -11.9412 C   0  0  2  0  0  0  0  0  0  0  0  0
   26.0452  -20.3462  -12.6152 N   0  0  0  0  0  0  0  0  0  0  0  0
   23.6167  -20.3773  -12.6027 C   0  0  0  0  0  0  0  0  0  0  0  0
   23.3856  -19.1415  -12.6518 O   0  0  0  0  0  0  0  0  0  0  0  0
   21.3966  -22.9426  -15.2425 C   0  0  0  0  0  0  0  0  0  0  0  0
   21.4430  -21.4251  -15.3051 C   0  0  1  0  0  0  0  0  0  0  0  0
   20.1803  -20.9624  -15.9985 C   0  0  0  0  0  0  0  0  0  0  0  0
   21.5112  -20.8207  -13.9213 C   0  0  2  0  0  0  0  0  0  0  0  0
   22.6663  -21.2602  -13.1867 N   0  0  0  0  0  0  0  0  0  0  0  0
   20.2496  -21.0305  -13.1929 C   0  0  0  0  0  0  0  0  0  0  0  0
   19.2377  -20.3774  -13.5042 O   0  0  0  0  0  0  0  0  0  0  0  0
   20.1885  -21.9457  -12.1710 O   0  0  0  0  0  0  0  0  0  0  0  0
  2  3  1  1
  2  1  1  0
  4  2  1  0
  5  4  1  0
  5  6  1  6
  7  5  1  0
  7 14  1  0
  8  7  2  0
 10  9  1  0
 11 10  1  0
 11 12  1  1
 13 14  1  6
 13 11  1  0
 15 13  1  0
 16 15  2  0
 18 17  1  1
 18 20  1  0
 19 18  1  0
 20 22  1  0
 20 21  1  1
 21 15  1  0
 22 24  1  0
 23 22  2  0
M  END
$$$$
