LIV.pdb
     RDKit          3D

 24 23  0  0  1  0  0  0  0  0999 V2000
   17.8223  -21.7389  -12.4965 C   0  0  0  0  0  0  0  0  0  0  0  0
   19.0721  -22.0300  -11.7268 C   0  0  1  0  0  0  0  0  0  0  0  0
   19.5099  -23.4398  -12.0570 C   0  0  0  0  0  0  0  0  0  0  0  0
   20.1655  -21.0225  -12.0153 C   0  0  0  0  0  0  0  0  0  0  0  0
   21.4543  -21.3932  -11.3269 C   0  0  2  0  0  0  0  0  0  0  0  0
   21.2809  -21.1514   -9.9073 N   0  0  0  0  0  0  0  0  0  0  0  0
   22.6146  -20.6591  -11.8250 C   0  0  0  0  0  0  0  0  0  0  0  0
   22.7647  -19.4261  -11.5196 O   0  0  0  0  0  0  0  0  0  0  0  0
   28.2898  -20.0311  -12.5857 C   0  0  0  0  0  0  0  0  0  0  0  0
   27.1455  -20.2673  -13.5226 C   0  0  0  0  0  0  0  0  0  0  0  0
   26.0395  -21.0827  -12.8784 C   0  0  2  0  0  0  0  0  0  0  0  0
   26.1299  -22.4738  -13.4103 C   0  0  0  0  0  0  0  0  0  0  0  0
   24.7345  -20.4378  -13.1876 C   0  0  2  0  0  0  0  0  0  0  0  0
   23.6317  -21.2029  -12.6476 N   0  0  0  0  0  0  0  0  0  0  0  0
   24.5463  -20.1247  -14.6223 C   0  0  0  0  0  0  0  0  0  0  0  0
   24.5452  -21.0769  -15.4446 O   0  0  0  0  0  0  0  0  0  0  0  0
   24.6709  -16.1548  -15.8039 C   0  0  0  0  0  0  0  0  0  0  0  0
   23.8656  -17.0352  -16.7447 C   0  0  1  0  0  0  0  0  0  0  0  0
   24.2502  -16.6567  -18.1582 C   0  0  0  0  0  0  0  0  0  0  0  0
   24.1619  -18.4994  -16.5141 C   0  0  2  0  0  0  0  0  0  0  0  0
   24.3665  -18.8058  -15.1244 N   0  0  0  0  0  0  0  0  0  0  0  0
   25.2662  -18.9543  -17.3742 C   0  0  0  0  0  0  0  0  0  0  0  0
   25.0214  -19.4401  -18.4930 O   0  0  0  0  0  0  0  0  0  0  0  0
   26.5653  -18.8431  -16.9435 O   0  0  0  0  0  0  0  0  0  0  0  0
  2  3  1  6
  2  1  1  0
  4  2  1  0
  5  4  1  0
  5  6  1  1
  7  5  1  0
  7 14  1  0
  8  7  2  0
 10  9  1  0
 11 10  1  0
 11 12  1  6
 13 14  1  6
 13 11  1  0
 15 13  1  0
 16 15  2  0
 18 17  1  1
 18 20  1  0
 19 18  1  0
 20 22  1  0
 20 21  1  1
 21 15  1  0
 22 24  1  0
 23 22  2  0
M  END
$$$$
