LIV.pdb
     RDKit          3D

 24 23  0  0  1  0  0  0  0  0999 V2000
   17.1751  -25.7526   -9.1744 C   0  0  0  0  0  0  0  0  0  0  0  0
   18.1322  -25.1600   -8.1884 C   0  0  1  0  0  0  0  0  0  0  0  0
   19.2199  -26.1763   -7.9200 C   0  0  0  0  0  0  0  0  0  0  0  0
   18.7037  -23.8431   -8.6714 C   0  0  0  0  0  0  0  0  0  0  0  0
   19.7504  -23.3144   -7.7241 C   0  0  2  0  0  0  0  0  0  0  0  0
   19.0828  -22.9481   -6.4897 N   0  0  0  0  0  0  0  0  0  0  0  0
   20.4935  -22.1735   -8.2528 C   0  0  0  0  0  0  0  0  0  0  0  0
   19.9370  -21.0230   -8.3059 O   0  0  0  0  0  0  0  0  0  0  0  0
   25.5659  -19.1138   -8.4396 C   0  0  0  0  0  0  0  0  0  0  0  0
   24.5373  -19.7175   -9.3454 C   0  0  0  0  0  0  0  0  0  0  0  0
   23.8817  -20.9399   -8.7297 C   0  0  2  0  0  0  0  0  0  0  0  0
   24.7557  -22.1161   -9.0111 C   0  0  0  0  0  0  0  0  0  0  0  0
   22.5199  -21.0897   -9.3106 C   0  0  2  0  0  0  0  0  0  0  0  0
   21.8257  -22.2197   -8.7323 N   0  0  0  0  0  0  0  0  0  0  0  0
   22.5002  -21.1210  -10.7905 C   0  0  0  0  0  0  0  0  0  0  0  0
   23.0445  -22.0943  -11.3731 O   0  0  0  0  0  0  0  0  0  0  0  0
   19.4118  -20.9480  -12.8745 C   0  0  0  0  0  0  0  0  0  0  0  0
   20.3760  -19.9587  -13.5073 C   0  0  1  0  0  0  0  0  0  0  0  0
   19.9223  -18.5701  -13.1133 C   0  0  0  0  0  0  0  0  0  0  0  0
   21.7902  -20.1853  -13.0242 C   0  0  2  0  0  0  0  0  0  0  0  0
   21.8997  -20.1109  -11.5926 N   0  0  0  0  0  0  0  0  0  0  0  0
   22.7333  -19.2968  -13.7223 C   0  0  0  0  0  0  0  0  0  0  0  0
   23.0075  -19.5004  -14.9185 O   0  0  0  0  0  0  0  0  0  0  0  0
   23.3102  -18.2443  -13.0552 O   0  0  0  0  0  0  0  0  0  0  0  0
  2  3  1  6
  2  1  1  0
  4  2  1  0
  5  4  1  0
  5  6  1  1
  7  5  1  0
  7 14  1  0
  8  7  2  0
 10  9  1  0
 11 10  1  0
 11 12  1  6
 13 14  1  1
 13 11  1  0
 15 13  1  0
 16 15  2  0
 18 17  1  1
 18 20  1  0
 19 18  1  0
 20 22  1  0
 20 21  1  1
 21 15  1  0
 22 24  1  0
 23 22  2  0
M  END
$$$$
