LIV.pdb
     RDKit          3D

 24 23  0  0  1  0  0  0  0  0999 V2000
   29.1503  -16.8929  -16.3649 C   0  0  0  0  0  0  0  0  0  0  0  0
   28.0996  -17.9509  -16.2382 C   0  0  1  0  0  0  0  0  0  0  0  0
   28.7673  -19.2983  -16.4020 C   0  0  0  0  0  0  0  0  0  0  0  0
   27.3500  -17.8537  -14.9258 C   0  0  0  0  0  0  0  0  0  0  0  0
   26.4230  -19.0264  -14.7307 C   0  0  2  0  0  0  0  0  0  0  0  0
   25.3997  -18.9544  -15.7561 N   0  0  0  0  0  0  0  0  0  0  0  0
   25.8076  -19.0703  -13.4069 C   0  0  0  0  0  0  0  0  0  0  0  0
   25.2620  -18.0184  -12.9252 O   0  0  0  0  0  0  0  0  0  0  0  0
   21.6044  -21.1381  -12.4578 C   0  0  0  0  0  0  0  0  0  0  0  0
   22.9148  -20.4186  -12.3676 C   0  0  0  0  0  0  0  0  0  0  0  0
   23.8407  -21.0457  -11.3417 C   0  0  2  0  0  0  0  0  0  0  0  0
   23.1201  -21.0755  -10.0354 C   0  0  0  0  0  0  0  0  0  0  0  0
   25.0939  -20.2453  -11.2832 C   0  0  2  0  0  0  0  0  0  0  0  0
   25.7542  -20.2122  -12.5701 N   0  0  0  0  0  0  0  0  0  0  0  0
   26.0127  -20.6499  -10.1953 C   0  0  0  0  0  0  0  0  0  0  0  0
   26.5895  -21.7643  -10.2863 O   0  0  0  0  0  0  0  0  0  0  0  0
   26.8154  -18.2412   -6.5123 C   0  0  0  0  0  0  0  0  0  0  0  0
   27.7693  -19.1911   -7.2169 C   0  0  1  0  0  0  0  0  0  0  0  0
   28.6888  -19.7713   -6.1648 C   0  0  0  0  0  0  0  0  0  0  0  0
   27.0208  -20.3083   -7.9071 C   0  0  2  0  0  0  0  0  0  0  0  0
   26.2806  -19.8486   -9.0507 N   0  0  0  0  0  0  0  0  0  0  0  0
   26.1943  -21.0587   -6.9480 C   0  0  0  0  0  0  0  0  0  0  0  0
   24.9561  -20.9412   -6.9713 O   0  0  0  0  0  0  0  0  0  0  0  0
   26.7881  -21.8878   -6.0283 O   0  0  0  0  0  0  0  0  0  0  0  0
  2  3  1  1
  2  1  1  0
  4  2  1  0
  5  4  1  0
  5  6  1  6
  7  5  1  0
  7 14  1  0
  8  7  2  0
 10  9  1  0
 11 10  1  0
 11 12  1  1
 13 14  1  6
 13 11  1  0
 15 13  1  0
 16 15  2  0
 18 17  1  1
 18 20  1  0
 19 18  1  0
 20 22  1  0
 20 21  1  6
 21 15  1  0
 22 24  1  0
 23 22  2  0
M  END
$$$$
