LIV.pdb
     RDKit          3D

 24 23  0  0  1  0  0  0  0  0999 V2000
   27.5160  -28.0339  -17.0832 C   0  0  0  0  0  0  0  0  0  0  0  0
   28.2077  -26.7628  -17.4640 C   0  0  1  0  0  0  0  0  0  0  0  0
   27.7516  -26.3776  -18.8538 C   0  0  0  0  0  0  0  0  0  0  0  0
   27.9520  -25.6545  -16.4639 C   0  0  0  0  0  0  0  0  0  0  0  0
   28.6868  -24.3924  -16.8379 C   0  0  2  0  0  0  0  0  0  0  0  0
   30.1043  -24.6359  -16.6503 N   0  0  0  0  0  0  0  0  0  0  0  0
   28.2699  -23.2239  -16.0671 C   0  0  0  0  0  0  0  0  0  0  0  0
   28.7559  -23.0267  -14.9004 O   0  0  0  0  0  0  0  0  0  0  0  0
   28.4945  -20.0568  -18.3617 C   0  0  0  0  0  0  0  0  0  0  0  0
   28.0831  -19.4089  -17.0756 C   0  0  0  0  0  0  0  0  0  0  0  0
   26.7326  -19.9053  -16.5930 C   0  0  2  0  0  0  0  0  0  0  0  0
   26.0662  -18.7828  -15.8702 C   0  0  0  0  0  0  0  0  0  0  0  0
   26.9482  -21.0943  -15.7246 C   0  0  2  0  0  0  0  0  0  0  0  0
   27.3413  -22.2476  -16.5045 N   0  0  0  0  0  0  0  0  0  0  0  0
   25.8118  -21.3915  -14.8234 C   0  0  0  0  0  0  0  0  0  0  0  0
   24.8225  -22.0087  -15.2958 O   0  0  0  0  0  0  0  0  0  0  0  0
   26.3871  -21.8421  -10.8055 C   0  0  0  0  0  0  0  0  0  0  0  0
   25.0604  -21.1670  -11.1106 C   0  0  1  0  0  0  0  0  0  0  0  0
   25.2159  -19.6974  -10.7862 C   0  0  0  0  0  0  0  0  0  0  0  0
   24.6853  -21.3273  -12.5661 C   0  0  2  0  0  0  0  0  0  0  0  0
   25.7752  -21.0178  -13.4511 N   0  0  0  0  0  0  0  0  0  0  0  0
   23.4575  -20.5782  -12.8783 C   0  0  0  0  0  0  0  0  0  0  0  0
   23.5269  -19.5096  -13.5113 O   0  0  0  0  0  0  0  0  0  0  0  0
   22.2364  -21.0574  -12.4721 O   0  0  0  0  0  0  0  0  0  0  0  0
  2  3  1  6
  2  1  1  0
  4  2  1  0
  5  4  1  0
  5  6  1  1
  7  5  1  0
  7 14  1  0
  8  7  2  0
 10  9  1  0
 11 10  1  0
 11 12  1  1
 13 14  1  6
 13 11  1  0
 15 13  1  0
 16 15  2  0
 18 17  1  6
 18 20  1  0
 19 18  1  0
 20 22  1  0
 20 21  1  6
 21 15  1  0
 22 24  1  0
 23 22  2  0
M  END
$$$$
