LIV.pdb
     RDKit          3D

 24 23  0  0  1  0  0  0  0  0999 V2000
   16.7619  -26.7744   -8.6338 C   0  0  0  0  0  0  0  0  0  0  0  0
   17.8630  -26.0197   -7.9577 C   0  0  1  0  0  0  0  0  0  0  0  0
   19.1115  -26.8727   -7.9986 C   0  0  0  0  0  0  0  0  0  0  0  0
   18.0923  -24.6617   -8.5879 C   0  0  0  0  0  0  0  0  0  0  0  0
   19.2516  -23.9431   -7.9460 C   0  0  2  0  0  0  0  0  0  0  0  0
   18.8586  -23.5920   -6.5947 N   0  0  0  0  0  0  0  0  0  0  0  0
   19.6742  -22.7496   -8.6741 C   0  0  0  0  0  0  0  0  0  0  0  0
   18.9243  -21.7134   -8.6843 O   0  0  0  0  0  0  0  0  0  0  0  0
   24.4801  -20.6862   -8.3963 C   0  0  0  0  0  0  0  0  0  0  0  0
   23.0132  -20.8884   -8.6199 C   0  0  0  0  0  0  0  0  0  0  0  0
   22.6901  -21.1589  -10.0779 C   0  0  2  0  0  0  0  0  0  0  0  0
   23.0830  -19.9525  -10.8632 C   0  0  0  0  0  0  0  0  0  0  0  0
   21.2384  -21.4655  -10.1920 C   0  0  2  0  0  0  0  0  0  0  0  0
   20.8842  -22.6232   -9.4000 N   0  0  0  0  0  0  0  0  0  0  0  0
   20.7578  -21.5765  -11.5879 C   0  0  0  0  0  0  0  0  0  0  0  0
   21.1439  -22.5575  -12.2746 O   0  0  0  0  0  0  0  0  0  0  0  0
   17.0434  -21.0347  -12.8286 C   0  0  0  0  0  0  0  0  0  0  0  0
   17.9962  -20.2513  -13.7159 C   0  0  1  0  0  0  0  0  0  0  0  0
   17.9055  -18.7982  -13.3045 C   0  0  0  0  0  0  0  0  0  0  0  0
   19.4191  -20.7353  -13.5548 C   0  0  2  0  0  0  0  0  0  0  0  0
   19.8826  -20.6350  -12.1976 N   0  0  0  0  0  0  0  0  0  0  0  0
   20.3120  -20.0743  -14.5202 C   0  0  0  0  0  0  0  0  0  0  0  0
   21.1152  -19.2083  -14.1298 O   0  0  0  0  0  0  0  0  0  0  0  0
   20.2594  -20.4122  -15.8501 O   0  0  0  0  0  0  0  0  0  0  0  0
  2  3  1  6
  2  1  1  0
  4  2  1  0
  5  4  1  0
  5  6  1  1
  7  5  1  0
  7 14  1  0
  8  7  2  0
 10  9  1  0
 11 10  1  0
 11 12  1  6
 13 14  1  1
 13 11  1  0
 15 13  1  0
 16 15  2  0
 18 17  1  1
 18 20  1  0
 19 18  1  0
 20 22  1  0
 20 21  1  1
 21 15  1  0
 22 24  1  0
 23 22  2  0
M  END
$$$$
