LIV.pdb
     RDKit          3D

 24 23  0  0  1  0  0  0  0  0999 V2000
   27.7437  -17.5415  -17.2664 C   0  0  0  0  0  0  0  0  0  0  0  0
   28.3382  -18.4195  -16.2104 C   0  0  1  0  0  0  0  0  0  0  0  0
   29.0004  -17.5324  -15.1796 C   0  0  0  0  0  0  0  0  0  0  0  0
   27.3058  -19.3326  -15.5824 C   0  0  0  0  0  0  0  0  0  0  0  0
   27.8940  -20.1356  -14.4504 C   0  0  2  0  0  0  0  0  0  0  0  0
   28.7632  -21.1421  -15.0292 N   0  0  0  0  0  0  0  0  0  0  0  0
   26.8893  -20.7670  -13.5987 C   0  0  0  0  0  0  0  0  0  0  0  0
   26.3787  -21.8879  -13.9434 O   0  0  0  0  0  0  0  0  0  0  0  0
   26.8419  -20.4391   -8.2384 C   0  0  0  0  0  0  0  0  0  0  0  0
   26.6345  -20.8903   -9.6513 C   0  0  0  0  0  0  0  0  0  0  0  0
   25.3169  -20.3972  -10.2203 C   0  0  2  0  0  0  0  0  0  0  0  0
   24.2165  -21.0244   -9.4315 C   0  0  0  0  0  0  0  0  0  0  0  0
   25.2603  -20.7565  -11.6633 C   0  0  2  0  0  0  0  0  0  0  0  0
   26.4058  -20.2362  -12.3775 N   0  0  0  0  0  0  0  0  0  0  0  0
   23.9832  -20.3973  -12.3202 C   0  0  0  0  0  0  0  0  0  0  0  0
   23.6899  -19.1784  -12.4258 O   0  0  0  0  0  0  0  0  0  0  0  0
   22.8837  -21.1947  -15.7378 C   0  0  0  0  0  0  0  0  0  0  0  0
   21.7073  -21.5983  -14.8649 C   0  0  1  0  0  0  0  0  0  0  0  0
   21.7075  -23.1087  -14.7761 C   0  0  0  0  0  0  0  0  0  0  0  0
   21.8259  -21.0095  -13.4778 C   0  0  2  0  0  0  0  0  0  0  0  0
   23.0673  -21.3540  -12.8396 N   0  0  0  0  0  0  0  0  0  0  0  0
   20.6462  -21.3414  -12.6629 C   0  0  0  0  0  0  0  0  0  0  0  0
   20.7559  -22.1253  -11.7032 O   0  0  0  0  0  0  0  0  0  0  0  0
   19.4256  -20.7871  -12.9605 O   0  0  0  0  0  0  0  0  0  0  0  0
  2  3  1  1
  2  1  1  0
  4  2  1  0
  5  4  1  0
  5  6  1  6
  7  5  1  0
  7 14  1  0
  8  7  2  0
 10  9  1  0
 11 10  1  0
 11 12  1  1
 13 14  1  6
 13 11  1  0
 15 13  1  0
 16 15  2  0
 18 17  1  6
 18 20  1  0
 19 18  1  0
 20 22  1  0
 20 21  1  1
 21 15  1  0
 22 24  1  0
 23 22  2  0
M  END
$$$$
