LIV.pdb
     RDKit          3D

 24 23  0  0  1  0  0  0  0  0999 V2000
   27.3724  -16.5630  -16.9488 C   0  0  0  0  0  0  0  0  0  0  0  0
   27.9092  -17.5175  -15.9289 C   0  0  1  0  0  0  0  0  0  0  0  0
   28.1461  -16.7509  -14.6466 C   0  0  0  0  0  0  0  0  0  0  0  0
   26.9851  -18.6978  -15.7127 C   0  0  0  0  0  0  0  0  0  0  0  0
   27.4442  -19.5553  -14.5611 C   0  0  2  0  0  0  0  0  0  0  0  0
   28.4219  -20.4957  -15.0743 N   0  0  0  0  0  0  0  0  0  0  0  0
   26.3579  -20.2704  -13.8962 C   0  0  0  0  0  0  0  0  0  0  0  0
   25.8676  -21.3223  -14.4341 O   0  0  0  0  0  0  0  0  0  0  0  0
   26.3169  -20.8470   -8.6131 C   0  0  0  0  0  0  0  0  0  0  0  0
   26.1141  -21.0254  -10.0862 C   0  0  0  0  0  0  0  0  0  0  0  0
   24.7652  -20.5020  -10.5441 C   0  0  2  0  0  0  0  0  0  0  0  0
   23.7090  -21.2990   -9.8543 C   0  0  0  0  0  0  0  0  0  0  0  0
   24.6905  -20.6183  -12.0258 C   0  0  2  0  0  0  0  0  0  0  0  0
   25.7707  -19.8965  -12.6625 N   0  0  0  0  0  0  0  0  0  0  0  0
   23.3700  -20.2567  -12.5890 C   0  0  0  0  0  0  0  0  0  0  0  0
   23.0033  -19.0550  -12.5235 O   0  0  0  0  0  0  0  0  0  0  0  0
   22.2286  -20.8918  -16.0932 C   0  0  0  0  0  0  0  0  0  0  0  0
   21.0910  -21.3693  -15.2062 C   0  0  1  0  0  0  0  0  0  0  0  0
   21.1395  -22.8813  -15.1835 C   0  0  0  0  0  0  0  0  0  0  0  0
   21.2325  -20.8370  -13.7985 C   0  0  2  0  0  0  0  0  0  0  0  0
   22.4908  -21.1929  -13.2010 N   0  0  0  0  0  0  0  0  0  0  0  0
   20.0740  -21.2164  -12.9739 C   0  0  0  0  0  0  0  0  0  0  0  0
   20.2111  -22.0435  -12.0548 O   0  0  0  0  0  0  0  0  0  0  0  0
   18.8430  -20.6588  -13.2177 O   0  0  0  0  0  0  0  0  0  0  0  0
  2  3  1  1
  2  1  1  0
  4  2  1  0
  5  4  1  0
  5  6  1  6
  7  5  1  0
  7 14  1  0
  8  7  2  0
 10  9  1  0
 11 10  1  0
 11 12  1  1
 13 14  1  6
 13 11  1  0
 15 13  1  0
 16 15  2  0
 18 17  1  6
 18 20  1  0
 19 18  1  0
 20 22  1  0
 20 21  1  1
 21 15  1  0
 22 24  1  0
 23 22  2  0
M  END
$$$$
