LIV.pdb
     RDKit          3D

 24 23  0  0  1  0  0  0  0  0999 V2000
   29.1906  -17.8446  -17.8008 C   0  0  0  0  0  0  0  0  0  0  0  0
   27.8618  -17.8206  -17.1132 C   0  0  1  0  0  0  0  0  0  0  0  0
   26.9475  -16.8987  -17.8892 C   0  0  0  0  0  0  0  0  0  0  0  0
   27.2693  -19.2074  -16.9720 C   0  0  0  0  0  0  0  0  0  0  0  0
   27.9069  -19.9678  -15.8373 C   0  0  2  0  0  0  0  0  0  0  0  0
   28.7010  -21.0358  -16.4138 N   0  0  0  0  0  0  0  0  0  0  0  0
   26.9427  -20.5141  -14.8859 C   0  0  0  0  0  0  0  0  0  0  0  0
   26.1821  -21.4807  -15.2372 O   0  0  0  0  0  0  0  0  0  0  0  0
   25.6561  -22.0792   -9.6312 C   0  0  0  0  0  0  0  0  0  0  0  0
   25.0995  -20.8622  -10.3036 C   0  0  0  0  0  0  0  0  0  0  0  0
   26.1094  -20.2094  -11.2293 C   0  0  2  0  0  0  0  0  0  0  0  0
   26.0099  -18.7322  -11.0435 C   0  0  0  0  0  0  0  0  0  0  0  0
   25.8124  -20.6296  -12.6256 C   0  0  2  0  0  0  0  0  0  0  0  0
   26.7607  -20.0583  -13.5570 N   0  0  0  0  0  0  0  0  0  0  0  0
   24.4112  -20.3886  -13.0383 C   0  0  0  0  0  0  0  0  0  0  0  0
   24.0721  -19.2148  -13.3386 O   0  0  0  0  0  0  0  0  0  0  0  0
   21.6798  -23.6065  -14.0615 C   0  0  0  0  0  0  0  0  0  0  0  0
   21.6347  -22.1862  -14.5996 C   0  0  1  0  0  0  0  0  0  0  0  0
   20.2049  -21.9010  -15.0036 C   0  0  0  0  0  0  0  0  0  0  0  0
   22.0735  -21.1885  -13.5522 C   0  0  2  0  0  0  0  0  0  0  0  0
   23.4248  -21.4110  -13.1143 N   0  0  0  0  0  0  0  0  0  0  0  0
   21.1087  -21.1326  -12.4422 C   0  0  0  0  0  0  0  0  0  0  0  0
   21.3607  -21.7140  -11.3716 O   0  0  0  0  0  0  0  0  0  0  0  0
   19.9319  -20.4400  -12.5869 O   0  0  0  0  0  0  0  0  0  0  0  0
  2  3  1  6
  2  1  1  0
  4  2  1  0
  5  4  1  0
  5  6  1  6
  7  5  1  0
  7 14  1  0
  8  7  2  0
 10  9  1  0
 11 10  1  0
 11 12  1  6
 13 14  1  6
 13 11  1  0
 15 13  1  0
 16 15  2  0
 18 17  1  1
 18 20  1  0
 19 18  1  0
 20 22  1  0
 20 21  1  1
 21 15  1  0
 22 24  1  0
 23 22  2  0
M  END
$$$$
