LIV.pdb
     RDKit          3D

 24 23  0  0  1  0  0  0  0  0999 V2000
   19.8862  -20.3198  -19.3471 C   0  0  0  0  0  0  0  0  0  0  0  0
   21.0075  -20.2739  -18.3573 C   0  0  1  0  0  0  0  0  0  0  0  0
   22.2925  -20.5963  -19.0874 C   0  0  0  0  0  0  0  0  0  0  0  0
   21.0866  -18.9376  -17.6489 C   0  0  0  0  0  0  0  0  0  0  0  0
   22.3095  -18.8485  -16.7720 C   0  0  2  0  0  0  0  0  0  0  0  0
   22.1345  -19.7819  -15.6758 N   0  0  0  0  0  0  0  0  0  0  0  0
   22.5608  -17.5057  -16.2552 C   0  0  0  0  0  0  0  0  0  0  0  0
   21.7693  -17.0016  -15.3859 O   0  0  0  0  0  0  0  0  0  0  0  0
   26.9093  -16.7000  -15.3129 C   0  0  0  0  0  0  0  0  0  0  0  0
   25.7336  -15.8888  -14.8628 C   0  0  0  0  0  0  0  0  0  0  0  0
   25.2216  -14.9702  -15.9569 C   0  0  2  0  0  0  0  0  0  0  0  0
   25.4105  -13.5635  -15.4965 C   0  0  0  0  0  0  0  0  0  0  0  0
   23.7939  -15.2971  -16.2198 C   0  0  2  0  0  0  0  0  0  0  0  0
   23.6408  -16.6733  -16.6392 N   0  0  0  0  0  0  0  0  0  0  0  0
   23.1242  -14.3546  -17.1444 C   0  0  0  0  0  0  0  0  0  0  0  0
   23.6360  -14.1676  -18.2784 O   0  0  0  0  0  0  0  0  0  0  0  0
   19.9047  -14.3466  -18.8071 C   0  0  0  0  0  0  0  0  0  0  0  0
   19.9385  -13.0043  -18.0957 C   0  0  1  0  0  0  0  0  0  0  0  0
   19.0508  -13.1168  -16.8757 C   0  0  0  0  0  0  0  0  0  0  0  0
   21.3432  -12.6452  -17.6684 C   0  0  2  0  0  0  0  0  0  0  0  0
   21.9327  -13.6471  -16.8224 N   0  0  0  0  0  0  0  0  0  0  0  0
   21.3858  -11.2961  -17.0816 C   0  0  0  0  0  0  0  0  0  0  0  0
   21.5729  -11.1569  -15.8597 O   0  0  0  0  0  0  0  0  0  0  0  0
   21.2193  -10.1920  -17.8809 O   0  0  0  0  0  0  0  0  0  0  0  0
  2  3  1  6
  2  1  1  0
  4  2  1  0
  5  4  1  0
  5  6  1  1
  7  5  1  0
  7 14  1  0
  8  7  2  0
 10  9  1  0
 11 10  1  0
 11 12  1  1
 13 14  1  6
 13 11  1  0
 15 13  1  0
 16 15  2  0
 18 17  1  1
 18 20  1  0
 19 18  1  0
 20 22  1  0
 20 21  1  1
 21 15  1  0
 22 24  1  0
 23 22  2  0
M  END
$$$$
