LIV.pdb
     RDKit          3D

 24 23  0  0  1  0  0  0  0  0999 V2000
   23.6924  -18.9329  -16.3718 C   0  0  0  0  0  0  0  0  0  0  0  0
   24.9047  -19.2909  -15.5708 C   0  0  1  0  0  0  0  0  0  0  0  0
   25.7159  -18.0321  -15.3579 C   0  0  0  0  0  0  0  0  0  0  0  0
   24.5434  -19.9527  -14.2573 C   0  0  0  0  0  0  0  0  0  0  0  0
   25.7724  -20.2902  -13.4522 C   0  0  2  0  0  0  0  0  0  0  0  0
   26.5408  -21.2612  -14.2074 N   0  0  0  0  0  0  0  0  0  0  0  0
   25.4734  -20.8100  -12.1204 C   0  0  0  0  0  0  0  0  0  0  0  0
   25.0045  -21.9931  -11.9912 O   0  0  0  0  0  0  0  0  0  0  0  0
   26.9630  -20.2305   -6.1684 C   0  0  0  0  0  0  0  0  0  0  0  0
   26.0578  -20.7431   -7.2458 C   0  0  0  0  0  0  0  0  0  0  0  0
   26.2968  -20.0451   -8.5720 C   0  0  2  0  0  0  0  0  0  0  0  0
   26.0273  -18.5906   -8.3766 C   0  0  0  0  0  0  0  0  0  0  0  0
   25.4074  -20.6571   -9.5961 C   0  0  2  0  0  0  0  0  0  0  0  0
   25.6600  -20.1016  -10.9079 N   0  0  0  0  0  0  0  0  0  0  0  0
   23.9706  -20.6185   -9.2415 C   0  0  0  0  0  0  0  0  0  0  0  0
   23.3823  -19.5065   -9.2592 O   0  0  0  0  0  0  0  0  0  0  0  0
   21.2947  -24.0362   -9.4094 C   0  0  0  0  0  0  0  0  0  0  0  0
   20.9851  -22.5533   -9.5280 C   0  0  1  0  0  0  0  0  0  0  0  0
   19.5165  -22.3714   -9.2127 C   0  0  0  0  0  0  0  0  0  0  0  0
   21.8150  -21.7405   -8.5609 C   0  0  2  0  0  0  0  0  0  0  0  0
   23.2164  -21.7697   -8.8810 N   0  0  0  0  0  0  0  0  0  0  0  0
   21.5324  -22.1291   -7.1697 C   0  0  0  0  0  0  0  0  0  0  0  0
   22.4135  -22.6849   -6.4898 O   0  0  0  0  0  0  0  0  0  0  0  0
   20.2983  -21.8789   -6.6220 O   0  0  0  0  0  0  0  0  0  0  0  0
  2  3  1  1
  2  1  1  0
  4  2  1  0
  5  4  1  0
  5  6  1  6
  7  5  1  0
  7 14  1  0
  8  7  2  0
 10  9  1  0
 11 10  1  0
 11 12  1  1
 13 14  1  6
 13 11  1  0
 15 13  1  0
 16 15  2  0
 18 17  1  1
 18 20  1  0
 19 18  1  0
 20 22  1  0
 20 21  1  6
 21 15  1  0
 22 24  1  0
 23 22  2  0
M  END
$$$$
