LIV.pdb
     RDKit          3D

 24 23  0  0  1  0  0  0  0  0999 V2000
   21.8616  -19.0639  -16.6584 C   0  0  0  0  0  0  0  0  0  0  0  0
   23.1692  -19.3920  -16.0089 C   0  0  1  0  0  0  0  0  0  0  0  0
   23.9096  -18.0962  -15.7621 C   0  0  0  0  0  0  0  0  0  0  0  0
   22.9866  -20.1842  -14.7310 C   0  0  0  0  0  0  0  0  0  0  0  0
   24.3047  -20.4372  -14.0446 C   0  0  2  0  0  0  0  0  0  0  0  0
   25.0713  -21.3399  -14.8820 N   0  0  0  0  0  0  0  0  0  0  0  0
   24.1661  -20.9921  -12.7007 C   0  0  0  0  0  0  0  0  0  0  0  0
   23.6639  -22.1580  -12.5439 O   0  0  0  0  0  0  0  0  0  0  0  0
   26.3923  -20.8517   -7.0240 C   0  0  0  0  0  0  0  0  0  0  0  0
   25.1615  -20.9666   -7.8696 C   0  0  0  0  0  0  0  0  0  0  0  0
   25.3240  -20.2753   -9.2108 C   0  0  2  0  0  0  0  0  0  0  0  0
   25.0545  -18.8215   -9.0099 C   0  0  0  0  0  0  0  0  0  0  0  0
   24.3857  -20.9001  -10.1821 C   0  0  2  0  0  0  0  0  0  0  0  0
   24.5497  -20.3370  -11.5047 N   0  0  0  0  0  0  0  0  0  0  0  0
   22.9722  -20.8876   -9.7421 C   0  0  0  0  0  0  0  0  0  0  0  0
   22.4051  -19.7746   -9.5914 O   0  0  0  0  0  0  0  0  0  0  0  0
   20.2893  -24.2707  -10.0366 C   0  0  0  0  0  0  0  0  0  0  0  0
   19.9261  -22.7977   -9.9511 C   0  0  1  0  0  0  0  0  0  0  0  0
   18.5089  -22.7111   -9.4284 C   0  0  0  0  0  0  0  0  0  0  0  0
   20.8561  -22.0566   -9.0180 C   0  0  2  0  0  0  0  0  0  0  0  0
   22.2178  -22.0648   -9.4795 N   0  0  0  0  0  0  0  0  0  0  0  0
   20.7119  -22.5425   -7.6363 C   0  0  0  0  0  0  0  0  0  0  0  0
   21.6495  -23.1527   -7.0923 O   0  0  0  0  0  0  0  0  0  0  0  0
   19.5443  -22.3231   -6.9476 O   0  0  0  0  0  0  0  0  0  0  0  0
  2  3  1  1
  2  1  1  0
  4  2  1  0
  5  4  1  0
  5  6  1  6
  7  5  1  0
  7 14  1  0
  8  7  2  0
 10  9  1  0
 11 10  1  0
 11 12  1  1
 13 14  1  6
 13 11  1  0
 15 13  1  0
 16 15  2  0
 18 17  1  1
 18 20  1  0
 19 18  1  0
 20 22  1  0
 20 21  1  6
 21 15  1  0
 22 24  1  0
 23 22  2  0
M  END
$$$$
