DWM.pdb
     RDKit          3D

 31 32  0  0  1  0  0  0  0  0999 V2000
   28.6197  -21.5692  -15.2826 N   0  0  0  0  0  0  0  0  0  0  0  0
   27.3750  -20.8532  -15.2792 C   0  0  1  0  0  0  0  0  0  0  0  0
   26.7343  -20.8082  -16.6445 C   0  0  0  0  0  0  0  0  0  0  0  0
   27.1455  -19.5518  -17.3067 C   0  0  0  0  0  0  0  0  0  0  0  0
   27.7345  -18.6487  -16.6404 O   0  0  0  0  0  0  0  0  0  0  0  0
   26.4873  -21.4399  -14.2522 C   0  0  0  0  0  0  0  0  0  0  0  0
   26.0946  -22.6251  -14.3380 O   0  0  0  0  0  0  0  0  0  0  0  0
   26.9041  -19.3327  -18.6418 O   0  0  0  0  0  0  0  0  0  0  0  0
   26.0771  -20.6554  -13.1620 N   0  0  0  0  0  0  0  0  0  0  0  0
   25.2100  -21.0838  -12.1121 C   0  0  1  0  0  0  0  0  0  0  0  0
   25.5361  -20.3817  -10.8330 C   0  0  0  0  0  0  0  0  0  0  0  0
   26.7741  -20.8541  -10.1769 C   0  0  0  0  0  0  0  0  0  0  0  0
   27.7982  -21.5900  -10.7497 C   0  0  0  0  0  0  0  0  0  0  0  0
   28.7507  -21.7832   -9.8435 N   0  0  0  0  0  0  0  0  0  0  0  0
   28.3825  -21.2003   -8.7027 C   0  0  0  0  0  0  0  0  0  0  0  0
   29.0133  -21.1263   -7.4834 C   0  0  0  0  0  0  0  0  0  0  0  0
   28.4154  -20.4632   -6.4308 C   0  0  0  0  0  0  0  0  0  0  0  0
   27.1946  -19.8658   -6.5589 C   0  0  0  0  0  0  0  0  0  0  0  0
   26.5623  -19.9429   -7.7906 C   0  0  0  0  0  0  0  0  0  0  0  0
   27.1314  -20.5998   -8.8751 C   0  0  0  0  0  0  0  0  0  0  0  0
   23.8123  -20.7734  -12.4894 C   0  0  0  0  0  0  0  0  0  0  0  0
   23.5140  -19.6493  -12.9392 O   0  0  0  0  0  0  0  0  0  0  0  0
   20.6142  -25.9031  -15.9816 C   0  0  0  0  0  0  0  0  0  0  0  0
   20.1682  -25.0957  -14.4177 S   0  0  0  0  0  0  0  0  0  0  0  0
   21.1161  -23.5916  -14.1927 C   0  0  0  0  0  0  0  0  0  0  0  0
   20.6729  -22.7552  -13.0521 C   0  0  0  0  0  0  0  0  0  0  0  0
   21.4371  -21.5089  -12.7765 C   0  0  2  0  0  0  0  0  0  0  0  0
   22.7797  -21.7691  -12.3407 N   0  0  0  0  0  0  0  0  0  0  0  0
   20.7535  -20.6272  -11.8031 C   0  0  0  0  0  0  0  0  0  0  0  0
   19.6685  -19.8588  -12.1939 O   0  0  0  0  0  0  0  0  0  0  0  0
   21.1627  -20.5794  -10.6204 O   0  0  0  0  0  0  0  0  0  0  0  0
  2  1  1  6
  3  4  1  0
  3  2  1  0
  4  5  2  0
  6  2  1  0
  6  7  2  0
  8  4  1  0
  9  6  1  0
 10  9  1  0
 10 11  1  1
 12 20  1  0
 12 11  1  0
 13 12  2  0
 14 13  1  0
 14 15  1  0
 15 16  1  0
 15 20  2  0
 16 17  2  0
 17 18  1  0
 19 18  2  0
 20 19  1  0
 21 10  1  0
 22 21  2  0
 23 24  1  0
 24 25  1  0
 25 26  1  0
 27 26  1  1
 27 28  1  0
 27 29  1  0
 28 21  1  0
 29 30  1  0
 31 29  2  0
M  END
$$$$
