DWM.pdb
     RDKit          3D

 31 32  0  0  1  0  0  0  0  0999 V2000
   28.0872  -22.0764  -15.2932 N   0  0  0  0  0  0  0  0  0  0  0  0
   27.6909  -20.8946  -14.5802 C   0  0  1  0  0  0  0  0  0  0  0  0
   26.8524  -19.9678  -15.4253 C   0  0  0  0  0  0  0  0  0  0  0  0
   27.6827  -19.4922  -16.5525 C   0  0  0  0  0  0  0  0  0  0  0  0
   28.9017  -19.2017  -16.3621 O   0  0  0  0  0  0  0  0  0  0  0  0
   27.0125  -21.2948  -13.3286 C   0  0  0  0  0  0  0  0  0  0  0  0
   25.9848  -22.0086  -13.3501 O   0  0  0  0  0  0  0  0  0  0  0  0
   27.1634  -19.3544  -17.8175 O   0  0  0  0  0  0  0  0  0  0  0  0
   27.5287  -20.8673  -12.0944 N   0  0  0  0  0  0  0  0  0  0  0  0
   26.9304  -21.1015  -10.8197 C   0  0  1  0  0  0  0  0  0  0  0  0
   27.8605  -20.7119   -9.7158 C   0  0  0  0  0  0  0  0  0  0  0  0
   27.2352  -20.6755   -8.3765 C   0  0  0  0  0  0  0  0  0  0  0  0
   25.9888  -21.1628   -8.0194 C   0  0  0  0  0  0  0  0  0  0  0  0
   25.8080  -20.9746   -6.7165 N   0  0  0  0  0  0  0  0  0  0  0  0
   26.8913  -20.3820   -6.2141 C   0  0  0  0  0  0  0  0  0  0  0  0
   27.1848  -19.9759   -4.9339 C   0  0  0  0  0  0  0  0  0  0  0  0
   28.3912  -19.3645   -4.6582 C   0  0  0  0  0  0  0  0  0  0  0  0
   29.3230  -19.1433   -5.6311 C   0  0  0  0  0  0  0  0  0  0  0  0
   29.0226  -19.5549   -6.9207 C   0  0  0  0  0  0  0  0  0  0  0  0
   27.8201  -20.1750   -7.2387 C   0  0  0  0  0  0  0  0  0  0  0  0
   25.6941  -20.2933  -10.7159 C   0  0  0  0  0  0  0  0  0  0  0  0
   25.7500  -19.0478  -10.7341 O   0  0  0  0  0  0  0  0  0  0  0  0
   19.3812  -20.7538  -14.7426 C   0  0  0  0  0  0  0  0  0  0  0  0
   21.1361  -20.4416  -14.3968 S   0  0  0  0  0  0  0  0  0  0  0  0
   21.4381  -20.4335  -12.6303 C   0  0  0  0  0  0  0  0  0  0  0  0
   22.8344  -20.1123  -12.2509 C   0  0  0  0  0  0  0  0  0  0  0  0
   23.1943  -20.2083  -10.8107 C   0  0  2  0  0  0  0  0  0  0  0  0
   24.4104  -20.9389  -10.5926 N   0  0  0  0  0  0  0  0  0  0  0  0
   22.1055  -20.7862   -9.9905 C   0  0  0  0  0  0  0  0  0  0  0  0
   21.1475  -19.9652   -9.4172 O   0  0  0  0  0  0  0  0  0  0  0  0
   22.0549  -22.0255   -9.8170 O   0  0  0  0  0  0  0  0  0  0  0  0
  2  1  1  6
  3  4  1  0
  3  2  1  0
  4  5  2  0
  6  2  1  0
  6  7  2  0
  8  4  1  0
  9  6  1  0
 10  9  1  0
 10 11  1  1
 12 20  1  0
 12 11  1  0
 13 12  2  0
 14 13  1  0
 14 15  1  0
 15 16  1  0
 15 20  2  0
 16 17  2  0
 17 18  1  0
 19 18  2  0
 20 19  1  0
 21 10  1  0
 22 21  2  0
 23 24  1  0
 24 25  1  0
 25 26  1  0
 27 26  1  6
 27 28  1  0
 27 29  1  0
 28 21  1  0
 29 30  1  0
 31 29  2  0
M  END
$$$$
