DWM.pdb
     RDKit          3D

 31 32  0  0  1  0  0  0  0  0999 V2000
   26.1004  -23.1728  -15.7886 N   0  0  0  0  0  0  0  0  0  0  0  0
   27.3552  -22.4845  -15.6720 C   0  0  1  0  0  0  0  0  0  0  0  0
   27.8114  -21.8952  -16.9838 C   0  0  0  0  0  0  0  0  0  0  0  0
   28.4127  -22.9773  -17.7923 C   0  0  0  0  0  0  0  0  0  0  0  0
   27.9956  -24.1676  -17.6665 O   0  0  0  0  0  0  0  0  0  0  0  0
   27.2489  -21.4724  -14.5989 C   0  0  0  0  0  0  0  0  0  0  0  0
   28.1366  -20.6051  -14.4382 O   0  0  0  0  0  0  0  0  0  0  0  0
   29.4242  -22.7258  -18.6880 O   0  0  0  0  0  0  0  0  0  0  0  0
   26.1339  -21.4836  -13.7451 N   0  0  0  0  0  0  0  0  0  0  0  0
   25.8065  -20.4689  -12.7959 C   0  0  1  0  0  0  0  0  0  0  0  0
   24.4400  -19.9198  -13.0541 C   0  0  0  0  0  0  0  0  0  0  0  0
   24.3317  -19.1092  -14.2859 C   0  0  0  0  0  0  0  0  0  0  0  0
   23.3646  -19.2083  -15.2725 C   0  0  0  0  0  0  0  0  0  0  0  0
   23.5921  -18.2799  -16.1955 N   0  0  0  0  0  0  0  0  0  0  0  0
   24.6722  -17.5816  -15.8450 C   0  0  0  0  0  0  0  0  0  0  0  0
   25.3089  -16.5334  -16.4661 C   0  0  0  0  0  0  0  0  0  0  0  0
   26.4373  -15.9732  -15.9021 C   0  0  0  0  0  0  0  0  0  0  0  0
   26.9554  -16.4321  -14.7254 C   0  0  0  0  0  0  0  0  0  0  0  0
   26.3097  -17.4894  -14.1025 C   0  0  0  0  0  0  0  0  0  0  0  0
   25.1706  -18.0797  -14.6371 C   0  0  0  0  0  0  0  0  0  0  0  0
   25.8410  -21.0561  -11.4371 C   0  0  0  0  0  0  0  0  0  0  0  0
   25.5682  -22.2601  -11.2619 O   0  0  0  0  0  0  0  0  0  0  0  0
   29.3785  -20.2217   -5.2309 C   0  0  0  0  0  0  0  0  0  0  0  0
   27.7727  -19.4006   -5.4409 S   0  0  0  0  0  0  0  0  0  0  0  0
   26.7230  -20.3433   -6.5459 C   0  0  0  0  0  0  0  0  0  0  0  0
   26.8094  -19.9339   -7.9677 C   0  0  0  0  0  0  0  0  0  0  0  0
   26.0575  -20.7447   -8.9629 C   0  0  2  0  0  0  0  0  0  0  0  0
   26.1911  -20.2406  -10.3002 N   0  0  0  0  0  0  0  0  0  0  0  0
   24.6244  -20.8821   -8.6173 C   0  0  0  0  0  0  0  0  0  0  0  0
   24.2339  -21.6660   -7.5432 O   0  0  0  0  0  0  0  0  0  0  0  0
   23.7641  -20.2841   -9.3033 O   0  0  0  0  0  0  0  0  0  0  0  0
  2  1  1  6
  3  4  1  0
  3  2  1  0
  4  5  2  0
  6  2  1  0
  6  7  2  0
  8  4  1  0
  9  6  1  0
 10  9  1  0
 10 11  1  6
 12 20  1  0
 12 11  1  0
 13 12  2  0
 14 13  1  0
 14 15  1  0
 15 16  1  0
 15 20  2  0
 16 17  2  0
 17 18  1  0
 19 18  2  0
 20 19  1  0
 21 10  1  0
 22 21  2  0
 23 24  1  0
 24 25  1  0
 25 26  1  0
 27 26  1  1
 27 28  1  0
 27 29  1  0
 28 21  1  0
 29 30  1  0
 31 29  2  0
M  END
$$$$
