DWM.pdb
     RDKit          3D

 31 32  0  0  1  0  0  0  0  0999 V2000
   28.7615  -21.4680  -15.0423 N   0  0  0  0  0  0  0  0  0  0  0  0
   27.4206  -20.9858  -15.2199 C   0  0  1  0  0  0  0  0  0  0  0  0
   26.8938  -21.2514  -16.6085 C   0  0  0  0  0  0  0  0  0  0  0  0
   27.3492  -20.1573  -17.4927 C   0  0  0  0  0  0  0  0  0  0  0  0
   27.2353  -20.2708  -18.7500 O   0  0  0  0  0  0  0  0  0  0  0  0
   26.5602  -21.5620  -14.1641 C   0  0  0  0  0  0  0  0  0  0  0  0
   26.3036  -22.7865  -14.1361 O   0  0  0  0  0  0  0  0  0  0  0  0
   27.8997  -19.0057  -16.9833 O   0  0  0  0  0  0  0  0  0  0  0  0
   26.0212  -20.7223  -13.1757 N   0  0  0  0  0  0  0  0  0  0  0  0
   25.1407  -21.1323  -12.1297 C   0  0  1  0  0  0  0  0  0  0  0  0
   25.4663  -20.4259  -10.8528 C   0  0  0  0  0  0  0  0  0  0  0  0
   26.7494  -20.8329  -10.2413 C   0  0  0  0  0  0  0  0  0  0  0  0
   27.7737  -21.5482  -10.8393 C   0  0  0  0  0  0  0  0  0  0  0  0
   28.7727  -21.6791   -9.9729 N   0  0  0  0  0  0  0  0  0  0  0  0
   28.4345  -21.0755   -8.8334 C   0  0  0  0  0  0  0  0  0  0  0  0
   29.1164  -20.9416   -7.6472 C   0  0  0  0  0  0  0  0  0  0  0  0
   28.5419  -20.2690   -6.5876 C   0  0  0  0  0  0  0  0  0  0  0  0
   27.2949  -19.7205   -6.6763 C   0  0  0  0  0  0  0  0  0  0  0  0
   26.6112  -19.8579   -7.8748 C   0  0  0  0  0  0  0  0  0  0  0  0
   27.1552  -20.5264   -8.9652 C   0  0  0  0  0  0  0  0  0  0  0  0
   23.7501  -20.8061  -12.5198 C   0  0  0  0  0  0  0  0  0  0  0  0
   23.3879  -19.6184  -12.6339 O   0  0  0  0  0  0  0  0  0  0  0  0
   23.4993  -22.8029  -16.6078 C   0  0  0  0  0  0  0  0  0  0  0  0
   21.9284  -23.6321  -16.2315 S   0  0  0  0  0  0  0  0  0  0  0  0
   20.8087  -22.5104  -15.3951 C   0  0  0  0  0  0  0  0  0  0  0  0
   20.8012  -22.6429  -13.9189 C   0  0  0  0  0  0  0  0  0  0  0  0
   21.4413  -21.5573  -13.1285 C   0  0  2  0  0  0  0  0  0  0  0  0
   22.7985  -21.8599  -12.7724 N   0  0  0  0  0  0  0  0  0  0  0  0
   20.6685  -21.2067  -11.9152 C   0  0  0  0  0  0  0  0  0  0  0  0
   19.3290  -20.8645  -12.0111 O   0  0  0  0  0  0  0  0  0  0  0  0
   21.2339  -21.2212  -10.7978 O   0  0  0  0  0  0  0  0  0  0  0  0
  2  1  1  6
  3  4  1  0
  3  2  1  0
  4  5  2  0
  6  2  1  0
  6  7  2  0
  8  4  1  0
  9  6  1  0
 10  9  1  0
 10 11  1  1
 12 20  1  0
 12 11  1  0
 13 12  2  0
 14 13  1  0
 14 15  1  0
 15 16  1  0
 15 20  2  0
 16 17  2  0
 17 18  1  0
 19 18  2  0
 20 19  1  0
 21 10  1  0
 22 21  2  0
 23 24  1  0
 24 25  1  0
 25 26  1  0
 27 26  1  1
 27 28  1  0
 27 29  1  0
 28 21  1  0
 29 30  1  0
 31 29  2  0
M  END
$$$$
