DWM.pdb
     RDKit          3D

 31 32  0  0  1  0  0  0  0  0999 V2000
   27.7323  -20.8793  -16.9306 N   0  0  0  0  0  0  0  0  0  0  0  0
   27.3218  -22.2293  -16.6642 C   0  0  1  0  0  0  0  0  0  0  0  0
   28.4559  -23.2138  -16.8091 C   0  0  0  0  0  0  0  0  0  0  0  0
   28.9624  -23.1343  -18.1960 C   0  0  0  0  0  0  0  0  0  0  0  0
   28.2003  -22.7333  -19.1260 O   0  0  0  0  0  0  0  0  0  0  0  0
   26.6878  -22.2830  -15.3292 C   0  0  0  0  0  0  0  0  0  0  0  0
   26.3571  -23.3745  -14.8141 O   0  0  0  0  0  0  0  0  0  0  0  0
   30.2531  -23.4875  -18.5093 O   0  0  0  0  0  0  0  0  0  0  0  0
   26.4519  -21.0900  -14.6266 N   0  0  0  0  0  0  0  0  0  0  0  0
   25.8814  -20.9955  -13.3216 C   0  0  1  0  0  0  0  0  0  0  0  0
   26.5274  -19.8991  -12.5366 C   0  0  0  0  0  0  0  0  0  0  0  0
   27.4423  -20.3679  -11.4740 C   0  0  0  0  0  0  0  0  0  0  0  0
   28.7085  -20.9060  -11.6348 C   0  0  0  0  0  0  0  0  0  0  0  0
   29.2223  -21.1674  -10.4376 N   0  0  0  0  0  0  0  0  0  0  0  0
   28.3359  -20.8195   -9.5047 C   0  0  0  0  0  0  0  0  0  0  0  0
   28.3920  -20.8990   -8.1334 C   0  0  0  0  0  0  0  0  0  0  0  0
   27.3232  -20.4771   -7.3686 C   0  0  0  0  0  0  0  0  0  0  0  0
   26.1884  -19.9734   -7.9362 C   0  0  0  0  0  0  0  0  0  0  0  0
   26.1366  -19.8949   -9.3197 C   0  0  0  0  0  0  0  0  0  0  0  0
   27.1917  -20.3078  -10.1247 C   0  0  0  0  0  0  0  0  0  0  0  0
   24.4350  -20.7072  -13.4516 C   0  0  0  0  0  0  0  0  0  0  0  0
   24.0411  -19.7541  -14.1524 O   0  0  0  0  0  0  0  0  0  0  0  0
   17.1940  -23.7966  -13.5601 C   0  0  0  0  0  0  0  0  0  0  0  0
   18.9591  -24.0395  -13.2108 S   0  0  0  0  0  0  0  0  0  0  0  0
   19.8053  -22.4625  -13.1168 C   0  0  0  0  0  0  0  0  0  0  0  0
   21.2712  -22.5665  -12.9247 C   0  0  0  0  0  0  0  0  0  0  0  0
   22.0578  -21.3039  -12.9434 C   0  0  2  0  0  0  0  0  0  0  0  0
   23.4649  -21.5270  -12.7683 N   0  0  0  0  0  0  0  0  0  0  0  0
   21.5761  -20.3200  -11.9474 C   0  0  0  0  0  0  0  0  0  0  0  0
   20.5779  -19.4175  -12.2788 O   0  0  0  0  0  0  0  0  0  0  0  0
   22.0773  -20.3077  -10.7998 O   0  0  0  0  0  0  0  0  0  0  0  0
  2  1  1  1
  3  4  1  0
  3  2  1  0
  4  5  2  0
  6  2  1  0
  6  7  2  0
  8  4  1  0
  9  6  1  0
 10  9  1  0
 10 11  1  1
 12 20  1  0
 12 11  1  0
 13 12  2  0
 14 13  1  0
 14 15  1  0
 15 16  1  0
 15 20  2  0
 16 17  2  0
 17 18  1  0
 19 18  2  0
 20 19  1  0
 21 10  1  0
 22 21  2  0
 23 24  1  0
 24 25  1  0
 25 26  1  0
 27 26  1  1
 27 28  1  0
 27 29  1  0
 28 21  1  0
 29 30  1  0
 31 29  2  0
M  END
$$$$
