DWM.pdb
     RDKit          3D

 31 32  0  0  1  0  0  0  0  0999 V2000
   14.6047  -19.9388    2.0234 N   0  0  0  0  0  0  0  0  0  0  0  0
   15.5877  -20.9511    1.7571 C   0  0  1  0  0  0  0  0  0  0  0  0
   15.9200  -21.0572    0.2892 C   0  0  0  0  0  0  0  0  0  0  0  0
   15.0473  -22.0903   -0.3087 C   0  0  0  0  0  0  0  0  0  0  0  0
   14.1985  -21.7671   -1.1928 O   0  0  0  0  0  0  0  0  0  0  0  0
   16.7795  -20.6940    2.5940 C   0  0  0  0  0  0  0  0  0  0  0  0
   17.8325  -21.3523    2.4389 O   0  0  0  0  0  0  0  0  0  0  0  0
   15.1316  -23.4081    0.0720 O   0  0  0  0  0  0  0  0  0  0  0  0
   16.7304  -19.6950    3.5799 N   0  0  0  0  0  0  0  0  0  0  0  0
   17.8276  -19.2769    4.3918 C   0  0  1  0  0  0  0  0  0  0  0  0
   17.6660  -17.8510    4.8113 C   0  0  0  0  0  0  0  0  0  0  0  0
   18.0265  -16.8649    3.7702 C   0  0  0  0  0  0  0  0  0  0  0  0
   17.2888  -15.7643    3.3663 C   0  0  0  0  0  0  0  0  0  0  0  0
   17.9700  -15.1057    2.4347 N   0  0  0  0  0  0  0  0  0  0  0  0
   19.1230  -15.7385    2.2180 C   0  0  0  0  0  0  0  0  0  0  0  0
   20.1561  -15.4598    1.3548 C   0  0  0  0  0  0  0  0  0  0  0  0
   21.2613  -16.2851    1.3044 C   0  0  0  0  0  0  0  0  0  0  0  0
   21.3681  -17.3916    2.0969 C   0  0  0  0  0  0  0  0  0  0  0  0
   20.3238  -17.6684    2.9661 C   0  0  0  0  0  0  0  0  0  0  0  0
   19.1949  -16.8618    3.0478 C   0  0  0  0  0  0  0  0  0  0  0  0
   17.8815  -20.1314    5.5998 C   0  0  0  0  0  0  0  0  0  0  0  0
   16.8322  -20.5706    6.1104 O   0  0  0  0  0  0  0  0  0  0  0  0
   22.5541  -24.4140   10.4356 C   0  0  0  0  0  0  0  0  0  0  0  0
   22.4329  -23.3509    8.9686 S   0  0  0  0  0  0  0  0  0  0  0  0
   20.7680  -22.7128    8.7891 C   0  0  0  0  0  0  0  0  0  0  0  0
   20.5428  -21.9342    7.5482 C   0  0  0  0  0  0  0  0  0  0  0  0
   19.2157  -21.2843    7.3763 C   0  0  2  0  0  0  0  0  0  0  0  0
   19.1500  -20.4654    6.1993 N   0  0  0  0  0  0  0  0  0  0  0  0
   18.8119  -20.4951    8.5622 C   0  0  0  0  0  0  0  0  0  0  0  0
   19.2252  -19.1799    8.7035 O   0  0  0  0  0  0  0  0  0  0  0  0
   18.0924  -21.0244    9.4399 O   0  0  0  0  0  0  0  0  0  0  0  0
  2  1  1  6
  3  4  1  0
  3  2  1  0
  4  5  2  0
  6  2  1  0
  6  7  2  0
  8  4  1  0
  9  6  1  0
 10  9  1  0
 10 11  1  1
 12 20  1  0
 12 11  1  0
 13 12  2  0
 14 13  1  0
 14 15  1  0
 15 16  1  0
 15 20  2  0
 16 17  2  0
 17 18  1  0
 19 18  2  0
 20 19  1  0
 21 10  1  0
 22 21  2  0
 23 24  1  0
 24 25  1  0
 25 26  1  0
 27 26  1  1
 27 28  1  0
 27 29  1  0
 28 21  1  0
 29 30  1  0
 31 29  2  0
M  END
$$$$
