DWM.pdb
     RDKit          3D

 31 32  0  0  1  0  0  0  0  0999 V2000
   30.3055  -23.3916  -18.0534 N   0  0  0  0  0  0  0  0  0  0  0  0
   29.0398  -23.7210  -17.4605 C   0  0  1  0  0  0  0  0  0  0  0  0
   29.0399  -25.0918  -16.8304 C   0  0  0  0  0  0  0  0  0  0  0  0
   28.9619  -26.0974  -17.9116 C   0  0  0  0  0  0  0  0  0  0  0  0
   28.8912  -27.3301  -17.6253 O   0  0  0  0  0  0  0  0  0  0  0  0
   28.6657  -22.6551  -16.5060 C   0  0  0  0  0  0  0  0  0  0  0  0
   29.4211  -22.3414  -15.5588 O   0  0  0  0  0  0  0  0  0  0  0  0
   28.9639  -25.7285  -19.2354 O   0  0  0  0  0  0  0  0  0  0  0  0
   27.4427  -21.9829  -16.6637 N   0  0  0  0  0  0  0  0  0  0  0  0
   26.9954  -20.8800  -15.8757 C   0  0  1  0  0  0  0  0  0  0  0  0
   26.0705  -20.0058  -16.6605 C   0  0  0  0  0  0  0  0  0  0  0  0
   25.5006  -18.8777  -15.8933 C   0  0  0  0  0  0  0  0  0  0  0  0
   26.1946  -17.8933  -15.2093 C   0  0  0  0  0  0  0  0  0  0  0  0
   25.3247  -17.0390  -14.6809 N   0  0  0  0  0  0  0  0  0  0  0  0
   24.0908  -17.4328  -14.9960 C   0  0  0  0  0  0  0  0  0  0  0  0
   22.8651  -16.8943  -14.6834 C   0  0  0  0  0  0  0  0  0  0  0  0
   21.7065  -17.5008  -15.1252 C   0  0  0  0  0  0  0  0  0  0  0  0
   21.7340  -18.6401  -15.8769 C   0  0  0  0  0  0  0  0  0  0  0  0
   22.9726  -19.1793  -16.1899 C   0  0  0  0  0  0  0  0  0  0  0  0
   24.1617  -18.5982  -15.7655 C   0  0  0  0  0  0  0  0  0  0  0  0
   26.2770  -21.3995  -14.6898 C   0  0  0  0  0  0  0  0  0  0  0  0
   25.5799  -22.4299  -14.7746 O   0  0  0  0  0  0  0  0  0  0  0  0
   25.9454  -19.4756   -7.0525 C   0  0  0  0  0  0  0  0  0  0  0  0
   26.8568  -20.3180   -8.3778 S   0  0  0  0  0  0  0  0  0  0  0  0
   25.9120  -20.3020   -9.9006 C   0  0  0  0  0  0  0  0  0  0  0  0
   26.5413  -21.0456  -11.0176 C   0  0  0  0  0  0  0  0  0  0  0  0
   25.7341  -21.2447  -12.2513 C   0  0  2  0  0  0  0  0  0  0  0  0
   26.3762  -20.7186  -13.4223 N   0  0  0  0  0  0  0  0  0  0  0  0
   24.3679  -20.6866  -12.1323 C   0  0  0  0  0  0  0  0  0  0  0  0
   23.3693  -21.4060  -11.4953 O   0  0  0  0  0  0  0  0  0  0  0  0
   24.1188  -19.5570  -12.6120 O   0  0  0  0  0  0  0  0  0  0  0  0
  2  1  1  1
  3  4  1  0
  3  2  1  0
  4  5  2  0
  6  2  1  0
  6  7  2  0
  8  4  1  0
  9  6  1  0
 10  9  1  0
 10 11  1  6
 12 20  1  0
 12 11  1  0
 13 12  2  0
 14 13  1  0
 14 15  1  0
 15 16  1  0
 15 20  2  0
 16 17  2  0
 17 18  1  0
 19 18  2  0
 20 19  1  0
 21 10  1  0
 22 21  2  0
 23 24  1  0
 24 25  1  0
 25 26  1  0
 27 26  1  1
 27 28  1  0
 27 29  1  0
 28 21  1  0
 29 30  1  0
 31 29  2  0
M  END
$$$$
