DWM.pdb
     RDKit          3D

 31 32  0  0  1  0  0  0  0  0999 V2000
   23.3386  -33.3565  -11.6316 N   0  0  0  0  0  0  0  0  0  0  0  0
   22.5626  -32.7282  -12.6636 C   0  0  1  0  0  0  0  0  0  0  0  0
   21.8305  -33.7297  -13.5223 C   0  0  0  0  0  0  0  0  0  0  0  0
   22.8084  -34.3562  -14.4373 C   0  0  0  0  0  0  0  0  0  0  0  0
   22.4108  -35.1539  -15.3385 O   0  0  0  0  0  0  0  0  0  0  0  0
   21.6559  -31.7369  -12.0454 C   0  0  0  0  0  0  0  0  0  0  0  0
   20.8456  -32.0710  -11.1521 O   0  0  0  0  0  0  0  0  0  0  0  0
   24.1539  -34.0946  -14.3372 O   0  0  0  0  0  0  0  0  0  0  0  0
   21.7035  -30.3980  -12.4667 N   0  0  0  0  0  0  0  0  0  0  0  0
   20.9141  -29.3335  -11.9363 C   0  0  1  0  0  0  0  0  0  0  0  0
   21.4268  -28.0082  -12.4012 C   0  0  0  0  0  0  0  0  0  0  0  0
   20.7938  -26.8451  -11.7435 C   0  0  0  0  0  0  0  0  0  0  0  0
   20.3673  -26.7548  -10.4288 C   0  0  0  0  0  0  0  0  0  0  0  0
   19.8880  -25.5344  -10.2128 N   0  0  0  0  0  0  0  0  0  0  0  0
   19.9869  -24.8287  -11.3393 C   0  0  0  0  0  0  0  0  0  0  0  0
   19.6252  -23.5339  -11.6268 C   0  0  0  0  0  0  0  0  0  0  0  0
   19.8221  -23.0223  -12.8936 C   0  0  0  0  0  0  0  0  0  0  0  0
   20.3743  -23.7712  -13.8926 C   0  0  0  0  0  0  0  0  0  0  0  0
   20.7378  -25.0765  -13.5978 C   0  0  0  0  0  0  0  0  0  0  0  0
   20.5573  -25.6280  -12.3349 C   0  0  0  0  0  0  0  0  0  0  0  0
   19.5169  -29.4984  -12.3978 C   0  0  0  0  0  0  0  0  0  0  0  0
   19.2740  -29.7906  -13.5854 O   0  0  0  0  0  0  0  0  0  0  0  0
   12.5369  -32.5463  -11.4506 C   0  0  0  0  0  0  0  0  0  0  0  0
   14.2076  -32.2571  -10.8010 S   0  0  0  0  0  0  0  0  0  0  0  0
   14.9208  -30.7839  -11.5308 C   0  0  0  0  0  0  0  0  0  0  0  0
   16.3515  -30.5728  -11.2062 C   0  0  0  0  0  0  0  0  0  0  0  0
   17.0613  -29.4731  -11.9133 C   0  0  2  0  0  0  0  0  0  0  0  0
   18.4206  -29.3229  -11.4773 N   0  0  0  0  0  0  0  0  0  0  0  0
   16.3519  -28.1780  -11.8061 C   0  0  0  0  0  0  0  0  0  0  0  0
   16.4101  -27.4412  -10.6338 O   0  0  0  0  0  0  0  0  0  0  0  0
   15.6967  -27.7504  -12.7840 O   0  0  0  0  0  0  0  0  0  0  0  0
  2  1  1  1
  3  4  1  0
  3  2  1  0
  4  5  2  0
  6  2  1  0
  6  7  2  0
  8  4  1  0
  9  6  1  0
 10  9  1  0
 10 11  1  6
 12 20  1  0
 12 11  1  0
 13 12  2  0
 14 13  1  0
 14 15  1  0
 15 16  1  0
 15 20  2  0
 16 17  2  0
 17 18  1  0
 19 18  2  0
 20 19  1  0
 21 10  1  0
 22 21  2  0
 23 24  1  0
 24 25  1  0
 25 26  1  0
 27 26  1  1
 27 28  1  0
 27 29  1  0
 28 21  1  0
 29 30  1  0
 31 29  2  0
M  END
$$$$
