DWM.pdb
     RDKit          3D

 31 32  0  0  1  0  0  0  0  0999 V2000
   40.8234   -4.5527   -3.9607 N   0  0  0  0  0  0  0  0  0  0  0  0
   40.3180   -3.8935   -5.1320 C   0  0  1  0  0  0  0  0  0  0  0  0
   40.3319   -4.7889   -6.3462 C   0  0  0  0  0  0  0  0  0  0  0  0
   41.7228   -4.8759   -6.8403 C   0  0  0  0  0  0  0  0  0  0  0  0
   42.6900   -4.6677   -6.0479 O   0  0  0  0  0  0  0  0  0  0  0  0
   38.9727   -3.3553   -4.8363 C   0  0  0  0  0  0  0  0  0  0  0  0
   38.0496   -4.1029   -4.4423 O   0  0  0  0  0  0  0  0  0  0  0  0
   42.0003   -5.1802   -8.1514 O   0  0  0  0  0  0  0  0  0  0  0  0
   38.7251   -1.9825   -4.9999 N   0  0  0  0  0  0  0  0  0  0  0  0
   37.5063   -1.3153   -4.6731 C   0  0  1  0  0  0  0  0  0  0  0  0
   37.7317   -0.2843   -3.6140 C   0  0  0  0  0  0  0  0  0  0  0  0
   37.6160   -0.7954   -2.2314 C   0  0  0  0  0  0  0  0  0  0  0  0
   38.6229   -0.8882   -1.2848 C   0  0  0  0  0  0  0  0  0  0  0  0
   38.1108   -1.3628   -0.1542 N   0  0  0  0  0  0  0  0  0  0  0  0
   36.8080   -1.5825   -0.3319 C   0  0  0  0  0  0  0  0  0  0  0  0
   35.8510   -2.0716    0.5253 C   0  0  0  0  0  0  0  0  0  0  0  0
   34.5469   -2.2209    0.0985 C   0  0  0  0  0  0  0  0  0  0  0  0
   34.1647   -1.8940   -1.1706 C   0  0  0  0  0  0  0  0  0  0  0  0
   35.1334   -1.4008   -2.0315 C   0  0  0  0  0  0  0  0  0  0  0  0
   36.4565   -1.2345   -1.6399 C   0  0  0  0  0  0  0  0  0  0  0  0
   36.9838   -0.6509   -5.8888 C   0  0  0  0  0  0  0  0  0  0  0  0
   37.7488   -0.0118   -6.6379 O   0  0  0  0  0  0  0  0  0  0  0  0
   32.8995   -1.0713  -12.3681 C   0  0  0  0  0  0  0  0  0  0  0  0
   33.3883   -1.8153  -10.7857 S   0  0  0  0  0  0  0  0  0  0  0  0
   33.9904   -0.5591   -9.6583 C   0  0  0  0  0  0  0  0  0  0  0  0
   34.5702   -1.0924   -8.4029 C   0  0  0  0  0  0  0  0  0  0  0  0
   35.0659   -0.1087   -7.4030 C   0  0  2  0  0  0  0  0  0  0  0  0
   35.5828   -0.7362   -6.2200 N   0  0  0  0  0  0  0  0  0  0  0  0
   34.0395    0.8927   -7.0344 C   0  0  0  0  0  0  0  0  0  0  0  0
   33.4122    0.8327   -5.8001 O   0  0  0  0  0  0  0  0  0  0  0  0
   33.7401    1.7974   -7.8470 O   0  0  0  0  0  0  0  0  0  0  0  0
  2  1  1  1
  3  4  1  0
  3  2  1  0
  4  5  2  0
  6  2  1  0
  6  7  2  0
  8  4  1  0
  9  6  1  0
 10  9  1  0
 10 11  1  1
 12 20  1  0
 12 11  1  0
 13 12  2  0
 14 13  1  0
 14 15  1  0
 15 16  1  0
 15 20  2  0
 16 17  2  0
 17 18  1  0
 19 18  2  0
 20 19  1  0
 21 10  1  0
 22 21  2  0
 23 24  1  0
 24 25  1  0
 25 26  1  0
 27 26  1  6
 27 28  1  0
 27 29  1  0
 28 21  1  0
 29 30  1  0
 31 29  2  0
M  END
$$$$
