WKR.pdb
     RDKit          3D

 35 36  0  0  1  0  0  0  0  0999 V2000
   21.2715  -24.4001  -15.4376 N   0  0  0  0  0  0  0  0  0  0  0  0
   21.1354  -25.7784  -15.0574 C   0  0  1  0  0  0  0  0  0  0  0  0
   22.0894  -26.7104  -15.7718 C   0  0  0  0  0  0  0  0  0  0  0  0
   21.9992  -26.6386  -17.2396 C   0  0  0  0  0  0  0  0  0  0  0  0
   22.7234  -25.8043  -18.0635 C   0  0  0  0  0  0  0  0  0  0  0  0
   22.3516  -25.9983  -19.3591 N   0  0  0  0  0  0  0  0  0  0  0  0
   21.3919  -26.9505  -19.3981 C   0  0  0  0  0  0  0  0  0  0  0  0
   20.7078  -27.4938  -20.4656 C   0  0  0  0  0  0  0  0  0  0  0  0
   19.7706  -28.4708  -20.2167 C   0  0  0  0  0  0  0  0  0  0  0  0
   19.5416  -28.8776  -18.9232 C   0  0  0  0  0  0  0  0  0  0  0  0
   20.2145  -28.3446  -17.8613 C   0  0  0  0  0  0  0  0  0  0  0  0
   21.1581  -27.3637  -18.0816 C   0  0  0  0  0  0  0  0  0  0  0  0
   21.1899  -25.9600  -13.5844 C   0  0  0  0  0  0  0  0  0  0  0  0
   22.1358  -25.6327  -12.8561 O   0  0  0  0  0  0  0  0  0  0  0  0
   20.0508  -26.5654  -12.9391 N   0  0  0  0  0  0  0  0  0  0  0  0
   20.0239  -26.7848  -11.4971 C   0  0  1  0  0  0  0  0  0  0  0  0
   18.7206  -26.1162  -11.0364 C   0  0  0  0  0  0  0  0  0  0  0  0
   18.7725  -24.6282  -11.0898 C   0  0  0  0  0  0  0  0  0  0  0  0
   17.4517  -24.0776  -10.5984 C   0  0  0  0  0  0  0  0  0  0  0  0
   17.3974  -22.5606  -10.6503 C   0  0  0  0  0  0  0  0  0  0  0  0
   16.0906  -22.1206  -10.1387 N   0  0  0  0  0  0  0  0  0  0  0  0
   20.0288  -28.2402  -11.2450 C   0  0  0  0  0  0  0  0  0  0  0  0
   20.7269  -29.0201  -11.9634 O   0  0  0  0  0  0  0  0  0  0  0  0
   25.3728  -31.8622  -11.5989 N   0  0  0  0  0  0  0  0  0  0  0  0
   24.6607  -32.2113  -10.4056 C   0  0  0  0  0  0  0  0  0  0  0  0
   25.2859  -32.7474   -9.4229 N   0  0  0  0  0  0  0  0  0  0  0  0
   23.2593  -31.9714  -10.2903 N   0  0  0  0  0  0  0  0  0  0  0  0
   22.4944  -32.4267   -9.1502 C   0  0  0  0  0  0  0  0  0  0  0  0
   21.0304  -32.0887   -9.4325 C   0  0  0  0  0  0  0  0  0  0  0  0
   20.8672  -30.6259   -9.7267 C   0  0  0  0  0  0  0  0  0  0  0  0
   19.4201  -30.2877   -9.9284 C   0  0  2  0  0  0  0  0  0  0  0  0
   19.2804  -28.8501  -10.2180 N   0  0  0  0  0  0  0  0  0  0  0  0
   18.5133  -30.6668   -8.8365 C   0  0  0  0  0  0  0  0  0  0  0  0
   18.3139  -31.8459   -8.4985 O   0  0  0  0  0  0  0  0  0  0  0  0
   17.8024  -29.7034   -8.0939 O   0  0  0  0  0  0  0  0  0  0  0  0
  2  1  1  1
  2  3  1  0
  4  3  1  0
  4  5  2  0
  6  5  1  0
  7  6  1  0
  8  7  2  0
  9  8  1  0
 10  9  2  0
 10 11  1  0
 11 12  2  0
 12  7  1  0
 12  4  1  0
 13  2  1  0
 14 13  2  0
 15 13  1  0
 16 17  1  6
 16 15  1  0
 17 18  1  0
 18 19  1  0
 19 20  1  0
 20 21  1  0
 22 32  1  0
 22 16  1  0
 23 22  2  0
 24 25  1  0
 25 26  2  0
 27 25  1  0
 27 28  1  0
 28 29  1  0
 29 30  1  0
 31 30  1  1
 31 32  1  0
 33 31  1  0
 34 33  2  0
 35 33  1  0
M  END
$$$$
