WKR.pdb
     RDKit          3D

 35 36  0  0  1  0  0  0  0  0999 V2000
   26.4143  -22.8262  -11.6902 N   0  0  0  0  0  0  0  0  0  0  0  0
   25.7531  -21.5909  -11.3746 C   0  0  1  0  0  0  0  0  0  0  0  0
   26.6777  -20.3945  -11.3221 C   0  0  0  0  0  0  0  0  0  0  0  0
   27.7214  -20.4979  -10.2887 C   0  0  0  0  0  0  0  0  0  0  0  0
   29.0087  -20.9557  -10.4695 C   0  0  0  0  0  0  0  0  0  0  0  0
   29.6771  -20.9344   -9.2833 N   0  0  0  0  0  0  0  0  0  0  0  0
   28.8458  -20.4675   -8.3240 C   0  0  0  0  0  0  0  0  0  0  0  0
   29.0557  -20.2583   -6.9768 C   0  0  0  0  0  0  0  0  0  0  0  0
   28.0196  -19.7594   -6.2202 C   0  0  0  0  0  0  0  0  0  0  0  0
   26.8129  -19.4842   -6.8195 C   0  0  0  0  0  0  0  0  0  0  0  0
   26.5974  -19.6887   -8.1524 C   0  0  0  0  0  0  0  0  0  0  0  0
   27.6174  -20.1884   -8.9338 C   0  0  0  0  0  0  0  0  0  0  0  0
   24.5828  -21.3425  -12.2547 C   0  0  0  0  0  0  0  0  0  0  0  0
   24.5090  -21.6461  -13.4524 O   0  0  0  0  0  0  0  0  0  0  0  0
   23.4311  -20.6959  -11.6750 N   0  0  0  0  0  0  0  0  0  0  0  0
   22.0909  -20.9127  -12.2089 C   0  0  1  0  0  0  0  0  0  0  0  0
   21.1660  -20.7289  -10.9970 C   0  0  0  0  0  0  0  0  0  0  0  0
   19.7193  -20.8069  -11.3444 C   0  0  0  0  0  0  0  0  0  0  0  0
   19.2701  -22.2475  -11.2361 C   0  0  0  0  0  0  0  0  0  0  0  0
   17.7966  -22.4243  -11.5593 C   0  0  0  0  0  0  0  0  0  0  0  0
   17.0038  -21.8524  -10.4605 N   0  0  0  0  0  0  0  0  0  0  0  0
   21.8400  -19.9106  -13.2647 C   0  0  0  0  0  0  0  0  0  0  0  0
   21.9941  -18.6720  -13.0326 O   0  0  0  0  0  0  0  0  0  0  0  0
   24.0931  -22.2692  -20.8379 N   0  0  0  0  0  0  0  0  0  0  0  0
   24.9259  -21.9465  -19.7175 C   0  0  0  0  0  0  0  0  0  0  0  0
   26.1745  -22.2360  -19.7459 N   0  0  0  0  0  0  0  0  0  0  0  0
   24.3871  -21.3043  -18.5633 N   0  0  0  0  0  0  0  0  0  0  0  0
   23.0056  -20.8813  -18.4955 C   0  0  0  0  0  0  0  0  0  0  0  0
   22.8105  -20.2140  -17.1340 C   0  0  0  0  0  0  0  0  0  0  0  0
   21.3866  -19.7751  -16.9534 C   0  0  0  0  0  0  0  0  0  0  0  0
   21.1809  -19.2061  -15.5811 C   0  0  2  0  0  0  0  0  0  0  0  0
   21.4238  -20.2481  -14.5685 N   0  0  0  0  0  0  0  0  0  0  0  0
   19.8800  -18.5683  -15.3383 C   0  0  0  0  0  0  0  0  0  0  0  0
   18.8681  -19.2012  -14.9919 O   0  0  0  0  0  0  0  0  0  0  0  0
   19.6955  -17.1793  -15.4857 O   0  0  0  0  0  0  0  0  0  0  0  0
  2  1  1  6
  2  3  1  0
  4  3  1  0
  4  5  2  0
  6  5  1  0
  7  6  1  0
  8  7  2  0
  9  8  1  0
 10  9  2  0
 10 11  1  0
 11 12  2  0
 12  7  1  0
 12  4  1  0
 13  2  1  0
 14 13  2  0
 15 13  1  0
 16 17  1  1
 16 15  1  0
 17 18  1  0
 18 19  1  0
 19 20  1  0
 20 21  1  0
 22 32  1  0
 22 16  1  0
 23 22  2  0
 24 25  1  0
 25 26  2  0
 27 25  1  0
 27 28  1  0
 28 29  1  0
 29 30  1  0
 31 30  1  6
 31 32  1  0
 33 31  1  0
 34 33  2  0
 35 33  1  0
M  END
$$$$
