WKR.pdb
     RDKit          3D

 35 36  0  0  1  0  0  0  0  0999 V2000
   26.6378  -21.7237  -12.6937 N   0  0  0  0  0  0  0  0  0  0  0  0
   25.8009  -21.1300  -11.6887 C   0  0  1  0  0  0  0  0  0  0  0  0
   26.5051  -20.1012  -10.8315 C   0  0  0  0  0  0  0  0  0  0  0  0
   27.6704  -20.6331  -10.1056 C   0  0  0  0  0  0  0  0  0  0  0  0
   28.7586  -21.2707  -10.6613 C   0  0  0  0  0  0  0  0  0  0  0  0
   29.6234  -21.6482   -9.6795 N   0  0  0  0  0  0  0  0  0  0  0  0
   29.1182  -21.2663   -8.4845 C   0  0  0  0  0  0  0  0  0  0  0  0
   29.6192  -21.4151   -7.2080 C   0  0  0  0  0  0  0  0  0  0  0  0
   28.8882  -20.9177   -6.1531 C   0  0  0  0  0  0  0  0  0  0  0  0
   27.6884  -20.2907   -6.3948 C   0  0  0  0  0  0  0  0  0  0  0  0
   27.1857  -20.1395   -7.6555 C   0  0  0  0  0  0  0  0  0  0  0  0
   27.8967  -20.6291   -8.7305 C   0  0  0  0  0  0  0  0  0  0  0  0
   24.5360  -20.5983  -12.2572 C   0  0  0  0  0  0  0  0  0  0  0  0
   24.3531  -19.4337  -12.6346 O   0  0  0  0  0  0  0  0  0  0  0  0
   23.4229  -21.5066  -12.3859 N   0  0  0  0  0  0  0  0  0  0  0  0
   22.1401  -21.0631  -12.9207 C   0  0  1  0  0  0  0  0  0  0  0  0
   22.4499  -20.6721  -14.3730 C   0  0  0  0  0  0  0  0  0  0  0  0
   21.2548  -20.1873  -15.1189 C   0  0  0  0  0  0  0  0  0  0  0  0
   21.6668  -19.8597  -16.5374 C   0  0  0  0  0  0  0  0  0  0  0  0
   20.4983  -19.4002  -17.3922 C   0  0  0  0  0  0  0  0  0  0  0  0
   19.6086  -20.5477  -17.6256 N   0  0  0  0  0  0  0  0  0  0  0  0
   21.1832  -22.1849  -12.8324 C   0  0  0  0  0  0  0  0  0  0  0  0
   21.4048  -23.2755  -13.4435 O   0  0  0  0  0  0  0  0  0  0  0  0
   18.0774  -25.1811   -5.6852 N   0  0  0  0  0  0  0  0  0  0  0  0
   17.3905  -24.2326   -6.5107 C   0  0  0  0  0  0  0  0  0  0  0  0
   16.5428  -23.4260   -5.9866 N   0  0  0  0  0  0  0  0  0  0  0  0
   17.6347  -24.1688   -7.9147 N   0  0  0  0  0  0  0  0  0  0  0  0
   18.3489  -25.2121   -8.6172 C   0  0  0  0  0  0  0  0  0  0  0  0
   18.3140  -24.8530  -10.1028 C   0  0  0  0  0  0  0  0  0  0  0  0
   19.0996  -23.6020  -10.3684 C   0  0  0  0  0  0  0  0  0  0  0  0
   19.1865  -23.3377  -11.8422 C   0  0  2  0  0  0  0  0  0  0  0  0
   19.9899  -22.1270  -12.0844 N   0  0  0  0  0  0  0  0  0  0  0  0
   17.9052  -23.2366  -12.5535 C   0  0  0  0  0  0  0  0  0  0  0  0
   17.1990  -22.2141  -12.5375 O   0  0  0  0  0  0  0  0  0  0  0  0
   17.3889  -24.3082  -13.3086 O   0  0  0  0  0  0  0  0  0  0  0  0
  2  1  1  6
  2  3  1  0
  4  3  1  0
  4  5  2  0
  6  5  1  0
  7  6  1  0
  8  7  2  0
  9  8  1  0
 10  9  2  0
 10 11  1  0
 11 12  2  0
 12  7  1  0
 12  4  1  0
 13  2  1  0
 14 13  2  0
 15 13  1  0
 16 17  1  6
 16 15  1  0
 17 18  1  0
 18 19  1  0
 19 20  1  0
 20 21  1  0
 22 32  1  0
 22 16  1  0
 23 22  2  0
 24 25  1  0
 25 26  2  0
 27 25  1  0
 27 28  1  0
 28 29  1  0
 29 30  1  0
 31 30  1  1
 31 32  1  0
 33 31  1  0
 34 33  2  0
 35 33  1  0
M  END
$$$$
