WKR.pdb
     RDKit          3D

 35 36  0  0  1  0  0  0  0  0999 V2000
   25.4805  -18.8951  -11.1747 N   0  0  0  0  0  0  0  0  0  0  0  0
   25.8971  -20.2213  -11.5357 C   0  0  1  0  0  0  0  0  0  0  0  0
   25.6830  -21.2506  -10.4476 C   0  0  0  0  0  0  0  0  0  0  0  0
   26.1752  -20.8263   -9.1264 C   0  0  0  0  0  0  0  0  0  0  0  0
   25.4206  -20.2853   -8.1079 C   0  0  0  0  0  0  0  0  0  0  0  0
   26.2215  -19.9893   -7.0471 N   0  0  0  0  0  0  0  0  0  0  0  0
   27.4939  -20.3294   -7.3546 C   0  0  0  0  0  0  0  0  0  0  0  0
   28.6543  -20.2300   -6.6156 C   0  0  0  0  0  0  0  0  0  0  0  0
   29.8320  -20.6648   -7.1802 C   0  0  0  0  0  0  0  0  0  0  0  0
   29.8233  -21.1825   -8.4541 C   0  0  0  0  0  0  0  0  0  0  0  0
   28.6787  -21.2841   -9.1920 C   0  0  0  0  0  0  0  0  0  0  0  0
   27.4851  -20.8553   -8.6515 C   0  0  0  0  0  0  0  0  0  0  0  0
   25.3114  -20.6588  -12.8285 C   0  0  0  0  0  0  0  0  0  0  0  0
   24.1174  -20.5678  -13.1422 O   0  0  0  0  0  0  0  0  0  0  0  0
   26.1991  -21.2375  -13.8071 N   0  0  0  0  0  0  0  0  0  0  0  0
   25.7322  -21.5797  -15.1462 C   0  0  1  0  0  0  0  0  0  0  0  0
   27.0079  -21.5921  -16.0006 C   0  0  0  0  0  0  0  0  0  0  0  0
   27.5364  -20.2289  -16.2878 C   0  0  0  0  0  0  0  0  0  0  0  0
   28.8407  -20.3620  -17.0428 C   0  0  0  0  0  0  0  0  0  0  0  0
   29.4871  -19.0181  -17.3307 C   0  0  0  0  0  0  0  0  0  0  0  0
   30.8003  -19.2526  -17.9497 N   0  0  0  0  0  0  0  0  0  0  0  0
   25.0802  -22.9040  -15.0901 C   0  0  0  0  0  0  0  0  0  0  0  0
   25.3750  -23.7334  -14.1754 O   0  0  0  0  0  0  0  0  0  0  0  0
   18.2595  -24.4693  -11.9949 N   0  0  0  0  0  0  0  0  0  0  0  0
   19.3841  -24.0757  -11.1990 C   0  0  0  0  0  0  0  0  0  0  0  0
   19.5073  -24.5215  -10.0033 N   0  0  0  0  0  0  0  0  0  0  0  0
   20.3760  -23.1908  -11.7168 N   0  0  0  0  0  0  0  0  0  0  0  0
   20.2648  -22.5990  -13.0319 C   0  0  0  0  0  0  0  0  0  0  0  0
   20.9393  -23.5600  -14.0110 C   0  0  0  0  0  0  0  0  0  0  0  0
   22.2059  -22.9663  -14.5551 C   0  0  0  0  0  0  0  0  0  0  0  0
   22.8194  -23.8786  -15.5752 C   0  0  2  0  0  0  0  0  0  0  0  0
   24.1114  -23.3294  -16.0214 N   0  0  0  0  0  0  0  0  0  0  0  0
   21.9827  -24.1947  -16.7405 C   0  0  0  0  0  0  0  0  0  0  0  0
   21.5512  -23.3291  -17.5208 O   0  0  0  0  0  0  0  0  0  0  0  0
   21.6111  -25.5180  -17.0503 O   0  0  0  0  0  0  0  0  0  0  0  0
  2  1  1  1
  2  3  1  0
  4  3  1  0
  4  5  2  0
  6  5  1  0
  7  6  1  0
  8  7  2  0
  9  8  1  0
 10  9  2  0
 10 11  1  0
 11 12  2  0
 12  7  1  0
 12  4  1  0
 13  2  1  0
 14 13  2  0
 15 13  1  0
 16 17  1  6
 16 15  1  0
 17 18  1  0
 18 19  1  0
 19 20  1  0
 20 21  1  0
 22 32  1  0
 22 16  1  0
 23 22  2  0
 24 25  1  0
 25 26  2  0
 27 25  1  0
 27 28  1  0
 28 29  1  0
 29 30  1  0
 31 30  1  1
 31 32  1  0
 33 31  1  0
 34 33  2  0
 35 33  1  0
M  END
$$$$
