WKR.pdb
     RDKit          3D

 35 36  0  0  1  0  0  0  0  0999 V2000
   28.9794  -21.3461  -10.7641 N   0  0  0  0  0  0  0  0  0  0  0  0
   27.6790  -20.9930  -10.2670 C   0  0  1  0  0  0  0  0  0  0  0  0
   27.6859  -19.8319   -9.2970 C   0  0  0  0  0  0  0  0  0  0  0  0
   28.5924  -20.0222   -8.1525 C   0  0  0  0  0  0  0  0  0  0  0  0
   29.9054  -20.4371   -8.2096 C   0  0  0  0  0  0  0  0  0  0  0  0
   30.4168  -20.5253   -6.9506 N   0  0  0  0  0  0  0  0  0  0  0  0
   29.4568  -20.1729   -6.0656 C   0  0  0  0  0  0  0  0  0  0  0  0
   29.4874  -20.0985   -4.6886 C   0  0  0  0  0  0  0  0  0  0  0  0
   28.3491  -19.6971   -4.0268 C   0  0  0  0  0  0  0  0  0  0  0  0
   27.2206  -19.3829   -4.7471 C   0  0  0  0  0  0  0  0  0  0  0  0
   27.1823  -19.4542   -6.1102 C   0  0  0  0  0  0  0  0  0  0  0  0
   28.3079  -19.8542   -6.7987 C   0  0  0  0  0  0  0  0  0  0  0  0
   26.6984  -20.7870  -11.3634 C   0  0  0  0  0  0  0  0  0  0  0  0
   26.8265  -19.9868  -12.2991 O   0  0  0  0  0  0  0  0  0  0  0  0
   25.4946  -21.5813  -11.3465 N   0  0  0  0  0  0  0  0  0  0  0  0
   24.6556  -21.7121  -12.5328 C   0  0  1  0  0  0  0  0  0  0  0  0
   24.6617  -23.2171  -12.8372 C   0  0  0  0  0  0  0  0  0  0  0  0
   23.8289  -23.5815  -14.0176 C   0  0  0  0  0  0  0  0  0  0  0  0
   24.6216  -24.5198  -14.9010 C   0  0  0  0  0  0  0  0  0  0  0  0
   23.9329  -24.7928  -16.2270 C   0  0  0  0  0  0  0  0  0  0  0  0
   24.7905  -25.6804  -17.0266 N   0  0  0  0  0  0  0  0  0  0  0  0
   23.3049  -21.2096  -12.2084 C   0  0  0  0  0  0  0  0  0  0  0  0
   22.7442  -21.5189  -11.1122 O   0  0  0  0  0  0  0  0  0  0  0  0
   22.4098  -15.2855  -16.8908 N   0  0  0  0  0  0  0  0  0  0  0  0
   22.1940  -16.6926  -17.0534 C   0  0  0  0  0  0  0  0  0  0  0  0
   22.6906  -17.3017  -18.0664 N   0  0  0  0  0  0  0  0  0  0  0  0
   21.4314  -17.4331  -16.1020 N   0  0  0  0  0  0  0  0  0  0  0  0
   20.9720  -16.8455  -14.8628 C   0  0  0  0  0  0  0  0  0  0  0  0
   21.4010  -17.7871  -13.7375 C   0  0  0  0  0  0  0  0  0  0  0  0
   20.6407  -19.0796  -13.8037 C   0  0  0  0  0  0  0  0  0  0  0  0
   21.1561  -20.0467  -12.7797 C   0  0  2  0  0  0  0  0  0  0  0  0
   22.5631  -20.3741  -13.0678 N   0  0  0  0  0  0  0  0  0  0  0  0
   20.3798  -21.2830  -12.6156 C   0  0  0  0  0  0  0  0  0  0  0  0
   20.5231  -22.2765  -13.3484 O   0  0  0  0  0  0  0  0  0  0  0  0
   19.4100  -21.4216  -11.6030 O   0  0  0  0  0  0  0  0  0  0  0  0
  2  1  1  6
  2  3  1  0
  4  3  1  0
  4  5  2  0
  6  5  1  0
  7  6  1  0
  8  7  2  0
  9  8  1  0
 10  9  2  0
 10 11  1  0
 11 12  2  0
 12  7  1  0
 12  4  1  0
 13  2  1  0
 14 13  2  0
 15 13  1  0
 16 17  1  1
 16 15  1  0
 17 18  1  0
 18 19  1  0
 19 20  1  0
 20 21  1  0
 22 32  1  0
 22 16  1  0
 23 22  2  0
 24 25  1  0
 25 26  2  0
 27 25  1  0
 27 28  1  0
 28 29  1  0
 29 30  1  0
 31 30  1  6
 31 32  1  0
 33 31  1  0
 34 33  2  0
 35 33  1  0
M  END
$$$$
