WKR.pdb
     RDKit          3D

 35 36  0  0  1  0  0  0  0  0999 V2000
   23.1596  -20.6760  -14.8633 N   0  0  0  0  0  0  0  0  0  0  0  0
   21.8823  -20.3907  -14.2716 C   0  0  1  0  0  0  0  0  0  0  0  0
   21.0720  -19.3593  -15.0257 C   0  0  0  0  0  0  0  0  0  0  0  0
   21.6974  -18.0269  -15.0629 C   0  0  0  0  0  0  0  0  0  0  0  0
   22.6815  -17.6096  -15.9329 C   0  0  0  0  0  0  0  0  0  0  0  0
   23.0335  -16.3249  -15.6498 N   0  0  0  0  0  0  0  0  0  0  0  0
   22.2926  -15.8913  -14.6046 C   0  0  0  0  0  0  0  0  0  0  0  0
   22.2773  -14.6730  -13.9580 C   0  0  0  0  0  0  0  0  0  0  0  0
   21.4034  -14.4968  -12.9092 C   0  0  0  0  0  0  0  0  0  0  0  0
   20.5750  -15.5289  -12.5355 C   0  0  0  0  0  0  0  0  0  0  0  0
   20.5843  -16.7377  -13.1706 C   0  0  0  0  0  0  0  0  0  0  0  0
   21.4503  -16.9420  -14.2237 C   0  0  0  0  0  0  0  0  0  0  0  0
   21.0973  -21.6250  -14.0142 C   0  0  0  0  0  0  0  0  0  0  0  0
   21.0515  -22.6138  -14.7574 O   0  0  0  0  0  0  0  0  0  0  0  0
   20.3219  -21.6873  -12.7995 N   0  0  0  0  0  0  0  0  0  0  0  0
   19.5143  -22.8579  -12.4745 C   0  0  1  0  0  0  0  0  0  0  0  0
   19.5393  -22.9214  -10.9406 C   0  0  0  0  0  0  0  0  0  0  0  0
   18.7545  -24.0603  -10.3865 C   0  0  0  0  0  0  0  0  0  0  0  0
   18.9284  -24.0852   -8.8837 C   0  0  0  0  0  0  0  0  0  0  0  0
   18.2211  -25.2624   -8.2348 C   0  0  0  0  0  0  0  0  0  0  0  0
   18.3838  -25.1611   -6.7767 N   0  0  0  0  0  0  0  0  0  0  0  0
   18.1521  -22.6489  -13.0065 C   0  0  0  0  0  0  0  0  0  0  0  0
   17.5765  -21.5234  -12.8902 O   0  0  0  0  0  0  0  0  0  0  0  0
   18.0189  -26.9204  -12.1852 N   0  0  0  0  0  0  0  0  0  0  0  0
   17.2095  -27.9385  -12.7863 C   0  0  0  0  0  0  0  0  0  0  0  0
   16.7785  -28.9142  -12.0749 N   0  0  0  0  0  0  0  0  0  0  0  0
   16.8721  -27.8857  -14.1713 N   0  0  0  0  0  0  0  0  0  0  0  0
   16.8703  -26.6443  -14.9135 C   0  0  0  0  0  0  0  0  0  0  0  0
   15.6787  -25.8279  -14.4130 C   0  0  0  0  0  0  0  0  0  0  0  0
   15.6285  -24.4877  -15.0870 C   0  0  0  0  0  0  0  0  0  0  0  0
   16.0428  -23.4044  -14.1363 C   0  0  2  0  0  0  0  0  0  0  0  0
   17.4150  -23.6553  -13.6627 N   0  0  0  0  0  0  0  0  0  0  0  0
   15.1525  -23.1809  -12.9893 C   0  0  0  0  0  0  0  0  0  0  0  0
   15.3094  -23.7385  -11.8898 O   0  0  0  0  0  0  0  0  0  0  0  0
   14.0488  -22.3085  -13.0654 O   0  0  0  0  0  0  0  0  0  0  0  0
  2  1  1  6
  2  3  1  0
  4  3  1  0
  4  5  2  0
  6  5  1  0
  7  6  1  0
  8  7  2  0
  9  8  1  0
 10  9  2  0
 10 11  1  0
 11 12  2  0
 12  7  1  0
 12  4  1  0
 13  2  1  0
 14 13  2  0
 15 13  1  0
 16 17  1  1
 16 15  1  0
 17 18  1  0
 18 19  1  0
 19 20  1  0
 20 21  1  0
 22 32  1  0
 22 16  1  0
 23 22  2  0
 24 25  1  0
 25 26  2  0
 27 25  1  0
 27 28  1  0
 28 29  1  0
 29 30  1  0
 31 30  1  1
 31 32  1  0
 33 31  1  0
 34 33  2  0
 35 33  1  0
M  END
$$$$
