WKR.pdb
     RDKit          3D

 35 36  0  0  1  0  0  0  0  0999 V2000
   25.4951  -18.3679  -18.8920 N   0  0  0  0  0  0  0  0  0  0  0  0
   26.0294  -18.1305  -17.5801 C   0  0  1  0  0  0  0  0  0  0  0  0
   25.5606  -16.8373  -16.9501 C   0  0  0  0  0  0  0  0  0  0  0  0
   25.9470  -15.6355  -17.7078 C   0  0  0  0  0  0  0  0  0  0  0  0
   25.1366  -14.9030  -18.5481 C   0  0  0  0  0  0  0  0  0  0  0  0
   25.8459  -13.8775  -19.0954 N   0  0  0  0  0  0  0  0  0  0  0  0
   27.1131  -13.9255  -18.6250 C   0  0  0  0  0  0  0  0  0  0  0  0
   28.1966  -13.1098  -18.8766 C   0  0  0  0  0  0  0  0  0  0  0  0
   29.3887  -13.3882  -18.2472 C   0  0  0  0  0  0  0  0  0  0  0  0
   29.4697  -14.4616  -17.3914 C   0  0  0  0  0  0  0  0  0  0  0  0
   28.4017  -15.2737  -17.1374 C   0  0  0  0  0  0  0  0  0  0  0  0
   27.1957  -15.0186  -17.7549 C   0  0  0  0  0  0  0  0  0  0  0  0
   25.8231  -19.2893  -16.6743 C   0  0  0  0  0  0  0  0  0  0  0  0
   24.7563  -19.8977  -16.5199 O   0  0  0  0  0  0  0  0  0  0  0  0
   26.9536  -19.7528  -15.9078 N   0  0  0  0  0  0  0  0  0  0  0  0
   26.8254  -20.8502  -14.9552 C   0  0  1  0  0  0  0  0  0  0  0  0
   28.2463  -21.4208  -14.8410 C   0  0  0  0  0  0  0  0  0  0  0  0
   28.6120  -22.3185  -15.9724 C   0  0  0  0  0  0  0  0  0  0  0  0
   30.0166  -22.8347  -15.7494 C   0  0  0  0  0  0  0  0  0  0  0  0
   30.4693  -23.7842  -16.8450 C   0  0  0  0  0  0  0  0  0  0  0  0
   31.7566  -24.3757  -16.4503 N   0  0  0  0  0  0  0  0  0  0  0  0
   26.3347  -20.3028  -13.6739 C   0  0  0  0  0  0  0  0  0  0  0  0
   26.8575  -19.2606  -13.1717 O   0  0  0  0  0  0  0  0  0  0  0  0
   19.3110  -22.7431  -11.7645 N   0  0  0  0  0  0  0  0  0  0  0  0
   19.5932  -21.6587  -10.8715 C   0  0  0  0  0  0  0  0  0  0  0  0
   19.0137  -21.6053   -9.7290 N   0  0  0  0  0  0  0  0  0  0  0  0
   20.5137  -20.6306  -11.2329 N   0  0  0  0  0  0  0  0  0  0  0  0
   21.1223  -20.5721  -12.5437 C   0  0  0  0  0  0  0  0  0  0  0  0
   22.5810  -20.9982  -12.3767 C   0  0  0  0  0  0  0  0  0  0  0  0
   23.3934  -19.8939  -11.7656 C   0  0  0  0  0  0  0  0  0  0  0  0
   24.8346  -20.2955  -11.6625 C   0  0  2  0  0  0  0  0  0  0  0  0
   25.2808  -20.8815  -12.9382 N   0  0  0  0  0  0  0  0  0  0  0  0
   25.1723  -21.1984  -10.5539 C   0  0  0  0  0  0  0  0  0  0  0  0
   25.5945  -22.3546  -10.7250 O   0  0  0  0  0  0  0  0  0  0  0  0
   25.0361  -20.8044   -9.2080 O   0  0  0  0  0  0  0  0  0  0  0  0
  2  1  1  6
  2  3  1  0
  4  3  1  0
  4  5  2  0
  6  5  1  0
  7  6  1  0
  8  7  2  0
  9  8  1  0
 10  9  2  0
 10 11  1  0
 11 12  2  0
 12  7  1  0
 12  4  1  0
 13  2  1  0
 14 13  2  0
 15 13  1  0
 16 17  1  1
 16 15  1  0
 17 18  1  0
 18 19  1  0
 19 20  1  0
 20 21  1  0
 22 32  1  0
 22 16  1  0
 23 22  2  0
 24 25  1  0
 25 26  2  0
 27 25  1  0
 27 28  1  0
 28 29  1  0
 29 30  1  0
 31 30  1  6
 31 32  1  0
 33 31  1  0
 34 33  2  0
 35 33  1  0
M  END
$$$$
