WKR.pdb
     RDKit          3D

 35 36  0  0  1  0  0  0  0  0999 V2000
   24.5425  -21.4341   -7.8143 N   0  0  0  0  0  0  0  0  0  0  0  0
   25.4529  -20.8182   -8.7388 C   0  0  1  0  0  0  0  0  0  0  0  0
   26.9099  -21.1099   -8.4535 C   0  0  0  0  0  0  0  0  0  0  0  0
   27.2842  -20.9290   -7.0411 C   0  0  0  0  0  0  0  0  0  0  0  0
   27.4477  -21.9266   -6.1043 C   0  0  0  0  0  0  0  0  0  0  0  0
   27.7667  -21.3798   -4.8986 N   0  0  0  0  0  0  0  0  0  0  0  0
   27.8159  -20.0347   -5.0305 C   0  0  0  0  0  0  0  0  0  0  0  0
   28.0991  -19.0508   -4.1061 C   0  0  0  0  0  0  0  0  0  0  0  0
   28.0853  -17.7378   -4.5190 C   0  0  0  0  0  0  0  0  0  0  0  0
   27.7929  -17.4417   -5.8297 C   0  0  0  0  0  0  0  0  0  0  0  0
   27.5114  -18.4099   -6.7506 C   0  0  0  0  0  0  0  0  0  0  0  0
   27.5172  -19.7333   -6.3642 C   0  0  0  0  0  0  0  0  0  0  0  0
   25.1001  -21.1129  -10.1511 C   0  0  0  0  0  0  0  0  0  0  0  0
   24.8900  -22.2400  -10.6176 O   0  0  0  0  0  0  0  0  0  0  0  0
   24.9888  -20.0003  -11.0622 N   0  0  0  0  0  0  0  0  0  0  0  0
   24.6015  -20.1964  -12.4550 C   0  0  1  0  0  0  0  0  0  0  0  0
   23.9449  -18.8677  -12.8563 C   0  0  0  0  0  0  0  0  0  0  0  0
   23.5663  -18.8103  -14.2962 C   0  0  0  0  0  0  0  0  0  0  0  0
   22.8155  -17.5217  -14.5507 C   0  0  0  0  0  0  0  0  0  0  0  0
   22.3887  -17.3727  -16.0008 C   0  0  0  0  0  0  0  0  0  0  0  0
   21.2328  -18.2495  -16.2416 N   0  0  0  0  0  0  0  0  0  0  0  0
   25.8176  -20.4832  -13.2429 C   0  0  0  0  0  0  0  0  0  0  0  0
   26.9080  -19.8828  -12.9936 O   0  0  0  0  0  0  0  0  0  0  0  0
   30.2349  -25.8726  -17.1856 N   0  0  0  0  0  0  0  0  0  0  0  0
   30.7185  -24.6094  -17.6584 C   0  0  0  0  0  0  0  0  0  0  0  0
   31.1754  -24.5070  -18.8520 N   0  0  0  0  0  0  0  0  0  0  0  0
   30.7005  -23.4559  -16.8194 N   0  0  0  0  0  0  0  0  0  0  0  0
   29.7948  -23.3370  -15.6980 C   0  0  0  0  0  0  0  0  0  0  0  0
   28.3761  -23.3652  -16.2667 C   0  0  0  0  0  0  0  0  0  0  0  0
   27.3639  -23.1014  -15.1902 C   0  0  0  0  0  0  0  0  0  0  0  0
   27.0834  -21.6323  -15.0797 C   0  0  2  0  0  0  0  0  0  0  0  0
   25.8536  -21.4176  -14.2977 N   0  0  0  0  0  0  0  0  0  0  0  0
   27.0024  -20.8964  -16.3485 C   0  0  0  0  0  0  0  0  0  0  0  0
   25.9576  -20.8064  -17.0153 O   0  0  0  0  0  0  0  0  0  0  0  0
   28.1206  -20.2376  -16.8970 O   0  0  0  0  0  0  0  0  0  0  0  0
  2  1  1  1
  2  3  1  0
  4  3  1  0
  4  5  2  0
  6  5  1  0
  7  6  1  0
  8  7  2  0
  9  8  1  0
 10  9  2  0
 10 11  1  0
 11 12  2  0
 12  7  1  0
 12  4  1  0
 13  2  1  0
 14 13  2  0
 15 13  1  0
 16 17  1  6
 16 15  1  0
 17 18  1  0
 18 19  1  0
 19 20  1  0
 20 21  1  0
 22 32  1  0
 22 16  1  0
 23 22  2  0
 24 25  1  0
 25 26  2  0
 27 25  1  0
 27 28  1  0
 28 29  1  0
 29 30  1  0
 31 30  1  6
 31 32  1  0
 33 31  1  0
 34 33  2  0
 35 33  1  0
M  END
$$$$
