WKR.pdb
     RDKit          3D

 35 36  0  0  1  0  0  0  0  0999 V2000
   26.0810  -18.9000  -11.5227 N   0  0  0  0  0  0  0  0  0  0  0  0
   25.8419  -19.9698  -12.4506 C   0  0  1  0  0  0  0  0  0  0  0  0
   26.7001  -21.1930  -12.2131 C   0  0  0  0  0  0  0  0  0  0  0  0
   28.1459  -20.9167  -12.2435 C   0  0  0  0  0  0  0  0  0  0  0  0
   28.7971  -20.0624  -13.1070 C   0  0  0  0  0  0  0  0  0  0  0  0
   30.1354  -20.0847  -12.8567 N   0  0  0  0  0  0  0  0  0  0  0  0
   30.3731  -20.9428  -11.8386 C   0  0  0  0  0  0  0  0  0  0  0  0
   31.5542  -21.3023  -11.2234 C   0  0  0  0  0  0  0  0  0  0  0  0
   31.5067  -22.2093  -10.1890 C   0  0  0  0  0  0  0  0  0  0  0  0
   30.2953  -22.7295   -9.7979 C   0  0  0  0  0  0  0  0  0  0  0  0
   29.1220  -22.3788  -10.4019 C   0  0  0  0  0  0  0  0  0  0  0  0
   29.1404  -21.4731  -11.4412 C   0  0  0  0  0  0  0  0  0  0  0  0
   24.4012  -20.3190  -12.5420 C   0  0  0  0  0  0  0  0  0  0  0  0
   23.7294  -20.8340  -11.6388 O   0  0  0  0  0  0  0  0  0  0  0  0
   23.7186  -20.0371  -13.7810 N   0  0  0  0  0  0  0  0  0  0  0  0
   22.3002  -20.3336  -13.9499 C   0  0  1  0  0  0  0  0  0  0  0  0
   21.6866  -19.0022  -14.4066 C   0  0  0  0  0  0  0  0  0  0  0  0
   20.2328  -19.1008  -14.7173 C   0  0  0  0  0  0  0  0  0  0  0  0
   19.7379  -17.7429  -15.1647 C   0  0  0  0  0  0  0  0  0  0  0  0
   18.2385  -17.7196  -15.4058 C   0  0  0  0  0  0  0  0  0  0  0  0
   17.8561  -16.3708  -15.8502 N   0  0  0  0  0  0  0  0  0  0  0  0
   22.1620  -21.3950  -14.9679 C   0  0  0  0  0  0  0  0  0  0  0  0
   22.7521  -21.2997  -16.0879 O   0  0  0  0  0  0  0  0  0  0  0  0
   21.6586  -29.3857  -13.5210 N   0  0  0  0  0  0  0  0  0  0  0  0
   20.5616  -28.5007  -13.2631 C   0  0  0  0  0  0  0  0  0  0  0  0
   19.4806  -28.9575  -12.7469 N   0  0  0  0  0  0  0  0  0  0  0  0
   20.6512  -27.1110  -13.5725 N   0  0  0  0  0  0  0  0  0  0  0  0
   21.8942  -26.4947  -13.9813 C   0  0  0  0  0  0  0  0  0  0  0  0
   21.5954  -25.0177  -14.2386 C   0  0  0  0  0  0  0  0  0  0  0  0
   21.0903  -24.8107  -15.6367 C   0  0  0  0  0  0  0  0  0  0  0  0
   20.9086  -23.3492  -15.9200 C   0  0  2  0  0  0  0  0  0  0  0  0
   21.3874  -22.5567  -14.7743 N   0  0  0  0  0  0  0  0  0  0  0  0
   19.5485  -22.9293  -16.2831 C   0  0  0  0  0  0  0  0  0  0  0  0
   18.7524  -22.4305  -15.4696 O   0  0  0  0  0  0  0  0  0  0  0  0
   19.0543  -23.0685  -17.5952 O   0  0  0  0  0  0  0  0  0  0  0  0
  2  1  1  1
  2  3  1  0
  4  3  1  0
  4  5  2  0
  6  5  1  0
  7  6  1  0
  8  7  2  0
  9  8  1  0
 10  9  2  0
 10 11  1  0
 11 12  2  0
 12  7  1  0
 12  4  1  0
 13  2  1  0
 14 13  2  0
 15 13  1  0
 16 17  1  6
 16 15  1  0
 17 18  1  0
 18 19  1  0
 19 20  1  0
 20 21  1  0
 22 32  1  0
 22 16  1  0
 23 22  2  0
 24 25  1  0
 25 26  2  0
 27 25  1  0
 27 28  1  0
 28 29  1  0
 29 30  1  0
 31 30  1  1
 31 32  1  0
 33 31  1  0
 34 33  2  0
 35 33  1  0
M  END
$$$$
