WKR.pdb
     RDKit          3D

 35 36  0  0  1  0  0  0  0  0999 V2000
   28.2084  -21.5721  -15.1566 N   0  0  0  0  0  0  0  0  0  0  0  0
   26.9989  -20.8275  -15.3701 C   0  0  1  0  0  0  0  0  0  0  0  0
   26.7884  -20.3949  -16.8046 C   0  0  0  0  0  0  0  0  0  0  0  0
   27.4744  -19.1390  -17.1508 C   0  0  0  0  0  0  0  0  0  0  0  0
   28.6208  -19.0147  -17.9056 C   0  0  0  0  0  0  0  0  0  0  0  0
   28.9771  -17.7032  -17.9913 N   0  0  0  0  0  0  0  0  0  0  0  0
   28.0790  -16.9626  -17.3027 C   0  0  0  0  0  0  0  0  0  0  0  0
   28.0047  -15.6003  -17.0994 C   0  0  0  0  0  0  0  0  0  0  0  0
   26.9626  -15.1038  -16.3496 C   0  0  0  0  0  0  0  0  0  0  0  0
   26.0303  -15.9689  -15.8268 C   0  0  0  0  0  0  0  0  0  0  0  0
   26.0970  -17.3186  -16.0235 C   0  0  0  0  0  0  0  0  0  0  0  0
   27.1307  -17.8433  -16.7699 C   0  0  0  0  0  0  0  0  0  0  0  0
   25.8075  -21.5289  -14.8275 C   0  0  0  0  0  0  0  0  0  0  0  0
   25.7388  -22.7400  -14.5810 O   0  0  0  0  0  0  0  0  0  0  0  0
   24.6282  -20.7425  -14.5606 N   0  0  0  0  0  0  0  0  0  0  0  0
   23.4427  -21.3360  -13.9518 C   0  0  1  0  0  0  0  0  0  0  0  0
   22.9255  -20.2523  -12.9948 C   0  0  0  0  0  0  0  0  0  0  0  0
   21.6689  -20.6384  -12.2935 C   0  0  0  0  0  0  0  0  0  0  0  0
   21.1693  -19.4502  -11.5012 C   0  0  0  0  0  0  0  0  0  0  0  0
   19.8543  -19.7319  -10.7953 C   0  0  0  0  0  0  0  0  0  0  0  0
   19.4314  -18.5135  -10.0885 N   0  0  0  0  0  0  0  0  0  0  0  0
   22.4742  -21.6495  -15.0222 C   0  0  0  0  0  0  0  0  0  0  0  0
   21.9078  -20.7205  -15.6764 O   0  0  0  0  0  0  0  0  0  0  0  0
   22.6331  -27.8952  -18.5437 N   0  0  0  0  0  0  0  0  0  0  0  0
   22.2846  -27.9489  -17.1550 C   0  0  0  0  0  0  0  0  0  0  0  0
   23.0708  -28.5240  -16.3213 N   0  0  0  0  0  0  0  0  0  0  0  0
   21.0705  -27.3699  -16.6799 N   0  0  0  0  0  0  0  0  0  0  0  0
   20.1370  -26.7103  -17.5662 C   0  0  0  0  0  0  0  0  0  0  0  0
   20.4921  -25.2234  -17.5603 C   0  0  0  0  0  0  0  0  0  0  0  0
   20.6102  -24.7081  -16.1555 C   0  0  0  0  0  0  0  0  0  0  0  0
   20.8954  -23.2357  -16.1570 C   0  0  2  0  0  0  0  0  0  0  0  0
   22.1198  -22.9650  -15.3840 N   0  0  0  0  0  0  0  0  0  0  0  0
   19.8064  -22.3698  -15.6856 C   0  0  0  0  0  0  0  0  0  0  0  0
   19.1106  -21.6783  -16.4486 O   0  0  0  0  0  0  0  0  0  0  0  0
   19.4783  -22.2670  -14.3192 O   0  0  0  0  0  0  0  0  0  0  0  0
  2  1  1  6
  2  3  1  0
  4  3  1  0
  4  5  2  0
  6  5  1  0
  7  6  1  0
  8  7  2  0
  9  8  1  0
 10  9  2  0
 10 11  1  0
 11 12  2  0
 12  7  1  0
 12  4  1  0
 13  2  1  0
 14 13  2  0
 15 13  1  0
 16 17  1  1
 16 15  1  0
 17 18  1  0
 18 19  1  0
 19 20  1  0
 20 21  1  0
 22 32  1  0
 22 16  1  0
 23 22  2  0
 24 25  1  0
 25 26  2  0
 27 25  1  0
 27 28  1  0
 28 29  1  0
 29 30  1  0
 31 30  1  1
 31 32  1  0
 33 31  1  0
 34 33  2  0
 35 33  1  0
M  END
$$$$
