WKR.pdb
     RDKit          3D

 35 36  0  0  1  0  0  0  0  0999 V2000
   28.7001  -21.9944  -10.6662 N   0  0  0  0  0  0  0  0  0  0  0  0
   27.5240  -21.2656  -10.2809 C   0  0  1  0  0  0  0  0  0  0  0  0
   27.7903  -20.1391   -9.3066 C   0  0  0  0  0  0  0  0  0  0  0  0
   28.6535  -20.5245   -8.1778 C   0  0  0  0  0  0  0  0  0  0  0  0
   29.7813  -21.3140   -8.2432 C   0  0  0  0  0  0  0  0  0  0  0  0
   30.3030  -21.4780   -6.9961 N   0  0  0  0  0  0  0  0  0  0  0  0
   29.5328  -20.8057   -6.1107 C   0  0  0  0  0  0  0  0  0  0  0  0
   29.6493  -20.6648   -4.7435 C   0  0  0  0  0  0  0  0  0  0  0  0
   28.7129  -19.9056   -4.0791 C   0  0  0  0  0  0  0  0  0  0  0  0
   27.6946  -19.3117   -4.7871 C   0  0  0  0  0  0  0  0  0  0  0  0
   27.5724  -19.4464   -6.1405 C   0  0  0  0  0  0  0  0  0  0  0  0
   28.4958  -20.2021   -6.8312 C   0  0  0  0  0  0  0  0  0  0  0  0
   26.7435  -20.8021  -11.4565 C   0  0  0  0  0  0  0  0  0  0  0  0
   27.2147  -20.2408  -12.4540 O   0  0  0  0  0  0  0  0  0  0  0  0
   25.3178  -21.0208  -11.4453 N   0  0  0  0  0  0  0  0  0  0  0  0
   24.4728  -20.5703  -12.5459 C   0  0  1  0  0  0  0  0  0  0  0  0
   24.9433  -21.4003  -13.7490 C   0  0  0  0  0  0  0  0  0  0  0  0
   24.6270  -22.8508  -13.6223 C   0  0  0  0  0  0  0  0  0  0  0  0
   25.0418  -23.5522  -14.8971 C   0  0  0  0  0  0  0  0  0  0  0  0
   24.6734  -25.0257  -14.8978 C   0  0  0  0  0  0  0  0  0  0  0  0
   25.0921  -25.6129  -16.1794 N   0  0  0  0  0  0  0  0  0  0  0  0
   23.0636  -20.8389  -12.1942 C   0  0  0  0  0  0  0  0  0  0  0  0
   22.7445  -21.1858  -11.0153 O   0  0  0  0  0  0  0  0  0  0  0  0
   16.4256  -15.4981  -14.4181 N   0  0  0  0  0  0  0  0  0  0  0  0
   16.8070  -15.8822  -13.0915 C   0  0  0  0  0  0  0  0  0  0  0  0
   16.2789  -15.2965  -12.0806 N   0  0  0  0  0  0  0  0  0  0  0  0
   17.7701  -16.9118  -12.8737 N   0  0  0  0  0  0  0  0  0  0  0  0
   18.5567  -17.4671  -13.9530 C   0  0  0  0  0  0  0  0  0  0  0  0
   18.8993  -18.9043  -13.5605 C   0  0  0  0  0  0  0  0  0  0  0  0
   20.3029  -18.9946  -13.0362 C   0  0  0  0  0  0  0  0  0  0  0  0
   20.6369  -20.4092  -12.6665 C   0  0  2  0  0  0  0  0  0  0  0  0
   22.0022  -20.7321  -13.1156 N   0  0  0  0  0  0  0  0  0  0  0  0
   19.6998  -21.4359  -13.1415 C   0  0  0  0  0  0  0  0  0  0  0  0
   19.6155  -21.7786  -14.3331 O   0  0  0  0  0  0  0  0  0  0  0  0
   18.8248  -22.1054  -12.2633 O   0  0  0  0  0  0  0  0  0  0  0  0
  2  1  1  6
  2  3  1  0
  4  3  1  0
  4  5  2  0
  6  5  1  0
  7  6  1  0
  8  7  2  0
  9  8  1  0
 10  9  2  0
 10 11  1  0
 11 12  2  0
 12  7  1  0
 12  4  1  0
 13  2  1  0
 14 13  2  0
 15 13  1  0
 16 17  1  6
 16 15  1  0
 17 18  1  0
 18 19  1  0
 19 20  1  0
 20 21  1  0
 22 32  1  0
 22 16  1  0
 23 22  2  0
 24 25  1  0
 25 26  2  0
 27 25  1  0
 27 28  1  0
 28 29  1  0
 29 30  1  0
 31 30  1  6
 31 32  1  0
 33 31  1  0
 34 33  2  0
 35 33  1  0
M  END
$$$$
