WKR.pdb
     RDKit          3D

 35 36  0  0  1  0  0  0  0  0999 V2000
   18.9045  -22.7801  -16.1915 N   0  0  0  0  0  0  0  0  0  0  0  0
   19.6153  -21.8939  -15.3128 C   0  0  1  0  0  0  0  0  0  0  0  0
   18.8748  -21.5723  -14.0332 C   0  0  0  0  0  0  0  0  0  0  0  0
   17.6517  -20.7792  -14.2404 C   0  0  0  0  0  0  0  0  0  0  0  0
   16.3868  -21.2733  -14.4757 C   0  0  0  0  0  0  0  0  0  0  0  0
   15.5130  -20.2429  -14.6461 N   0  0  0  0  0  0  0  0  0  0  0  0
   16.1871  -19.0766  -14.5253 C   0  0  0  0  0  0  0  0  0  0  0  0
   15.7480  -17.7717  -14.6106 C   0  0  0  0  0  0  0  0  0  0  0  0
   16.6630  -16.7580  -14.4378 C   0  0  0  0  0  0  0  0  0  0  0  0
   17.9791  -17.0673  -14.1868 C   0  0  0  0  0  0  0  0  0  0  0  0
   18.4216  -18.3564  -14.1010 C   0  0  0  0  0  0  0  0  0  0  0  0
   17.5268  -19.3915  -14.2709 C   0  0  0  0  0  0  0  0  0  0  0  0
   20.9983  -22.3639  -15.0438 C   0  0  0  0  0  0  0  0  0  0  0  0
   21.3382  -23.5448  -14.8956 O   0  0  0  0  0  0  0  0  0  0  0  0
   22.0390  -21.3699  -14.9469 N   0  0  0  0  0  0  0  0  0  0  0  0
   23.4268  -21.7465  -14.7006 C   0  0  1  0  0  0  0  0  0  0  0  0
   24.2280  -20.9328  -15.7270 C   0  0  0  0  0  0  0  0  0  0  0  0
   25.7006  -21.1277  -15.6114 C   0  0  0  0  0  0  0  0  0  0  0  0
   26.3893  -20.2468  -16.6306 C   0  0  0  0  0  0  0  0  0  0  0  0
   27.9034  -20.3265  -16.5413 C   0  0  0  0  0  0  0  0  0  0  0  0
   28.4797  -19.5566  -17.6540 N   0  0  0  0  0  0  0  0  0  0  0  0
   23.7687  -21.3886  -13.3088 C   0  0  0  0  0  0  0  0  0  0  0  0
   23.5486  -20.2187  -12.8676 O   0  0  0  0  0  0  0  0  0  0  0  0
   28.8428  -20.9240  -15.2955 N   0  0  0  0  0  0  0  0  0  0  0  0
   28.6221  -19.5267  -15.0676 C   0  0  0  0  0  0  0  0  0  0  0  0
   28.4543  -18.7362  -16.0630 N   0  0  0  0  0  0  0  0  0  0  0  0
   28.5855  -18.9956  -13.7442 N   0  0  0  0  0  0  0  0  0  0  0  0
   28.4311  -19.8425  -12.5818 C   0  0  0  0  0  0  0  0  0  0  0  0
   26.9364  -20.1270  -12.4336 C   0  0  0  0  0  0  0  0  0  0  0  0
   26.6783  -21.6040  -12.3631 C   0  0  0  0  0  0  0  0  0  0  0  0
   25.4650  -21.8873  -11.5283 C   0  0  2  0  0  0  0  0  0  0  0  0
   24.3470  -22.2945  -12.3968 N   0  0  0  0  0  0  0  0  0  0  0  0
   25.0332  -20.8046  -10.6342 C   0  0  0  0  0  0  0  0  0  0  0  0
   25.2663  -20.7990   -9.4135 O   0  0  0  0  0  0  0  0  0  0  0  0
   24.3168  -19.6892  -11.1115 O   0  0  0  0  0  0  0  0  0  0  0  0
  2  1  1  1
  2  3  1  0
  4  3  1  0
  4  5  2  0
  6  5  1  0
  7  6  1  0
  8  7  2  0
  9  8  1  0
 10  9  2  0
 10 11  1  0
 11 12  2  0
 12  7  1  0
 12  4  1  0
 13  2  1  0
 14 13  2  0
 15 13  1  0
 16 17  1  6
 16 15  1  0
 17 18  1  0
 18 19  1  0
 19 20  1  0
 20 21  1  0
 22 32  1  0
 22 16  1  0
 23 22  2  0
 24 25  1  0
 25 26  2  0
 27 25  1  0
 27 28  1  0
 28 29  1  0
 29 30  1  0
 31 30  1  6
 31 32  1  0
 33 31  1  0
 34 33  2  0
 35 33  1  0
M  END
$$$$
