APV.pdb
     RDKit          3D

 20 20  0  0  1  0  0  0  0  0999 V2000
   27.7073  -17.7366  -16.1099 C   0  0  0  0  0  0  0  0  0  0  0  0
   28.3726  -19.0966  -16.3549 C   0  0  2  0  0  0  0  0  0  0  0  0
   28.0588  -19.5554  -17.6820 N   0  0  0  0  0  0  0  0  0  0  0  0
   27.9233  -19.9859  -15.2715 C   0  0  0  0  0  0  0  0  0  0  0  0
   26.8281  -20.5940  -15.4649 O   0  0  0  0  0  0  0  0  0  0  0  0
   28.6111  -20.2000  -14.0693 N   0  0  0  0  0  0  0  0  0  0  0  0
   29.8450  -19.5733  -13.6740 C   0  0  0  0  0  0  0  0  0  0  0  0
   29.9901  -19.9282  -12.2210 C   0  0  0  0  0  0  0  0  0  0  0  0
   29.4352  -21.3338  -12.1750 C   0  0  0  0  0  0  0  0  0  0  0  0
   28.1665  -21.1081  -13.0165 C   0  0  1  0  0  0  0  0  0  0  0  0
   27.1797  -20.4935  -12.1294 C   0  0  0  0  0  0  0  0  0  0  0  0
   27.1873  -19.2486  -11.8976 O   0  0  0  0  0  0  0  0  0  0  0  0
   22.6132  -20.2231  -10.5305 C   0  0  0  0  0  0  0  0  0  0  0  0
   23.6644  -20.9960  -11.3009 C   0  0  1  0  0  0  0  0  0  0  0  0
   23.5176  -20.6152  -12.7615 C   0  0  0  0  0  0  0  0  0  0  0  0
   25.0048  -20.6265  -10.8385 C   0  0  2  0  0  0  0  0  0  0  0  0
   26.1433  -21.1767  -11.4514 N   0  0  0  0  0  0  0  0  0  0  0  0
   25.0837  -20.8532   -9.3742 C   0  0  0  0  0  0  0  0  0  0  0  0
   25.4589  -21.9762   -8.9614 O   0  0  0  0  0  0  0  0  0  0  0  0
   24.7721  -19.9115   -8.4154 O   0  0  0  0  0  0  0  0  0  0  0  0
  2  4  1  0
  2  1  1  1
  3  2  1  0
  4  5  2  0
  6  4  1  0
  6 10  1  0
  7  6  1  0
  7  8  1  0
  8  9  1  0
 10 11  1  1
 10  9  1  0
 11 12  2  0
 11 17  1  0
 14 13  1  1
 14 15  1  0
 14 16  1  0
 16 18  1  0
 16 17  1  6
 18 19  2  0
 18 20  1  0
M  END
$$$$
