APV.pdb
     RDKit          3D

 20 20  0  0  1  0  0  0  0  0999 V2000
   24.8745  -19.3742  -12.4220 C   0  0  0  0  0  0  0  0  0  0  0  0
   25.2502  -20.8561  -12.5443 C   0  0  2  0  0  0  0  0  0  0  0  0
   24.0842  -21.6222  -12.8961 N   0  0  0  0  0  0  0  0  0  0  0  0
   25.8782  -21.2375  -11.2689 C   0  0  0  0  0  0  0  0  0  0  0  0
   25.0905  -21.5947  -10.3423 O   0  0  0  0  0  0  0  0  0  0  0  0
   27.2571  -21.2324  -11.0181 N   0  0  0  0  0  0  0  0  0  0  0  0
   28.2835  -20.7934  -11.9265 C   0  0  0  0  0  0  0  0  0  0  0  0
   29.5237  -20.7319  -11.0800 C   0  0  0  0  0  0  0  0  0  0  0  0
   29.3411  -21.9127  -10.1537 C   0  0  0  0  0  0  0  0  0  0  0  0
   27.8690  -21.6791   -9.7704 C   0  0  1  0  0  0  0  0  0  0  0  0
   27.8641  -20.6387   -8.7427 C   0  0  0  0  0  0  0  0  0  0  0  0
   27.7587  -19.4138   -9.0460 O   0  0  0  0  0  0  0  0  0  0  0  0
   26.1755  -21.2988   -5.0489 C   0  0  0  0  0  0  0  0  0  0  0  0
   27.3886  -20.3940   -4.9731 C   0  0  1  0  0  0  0  0  0  0  0  0
   28.5241  -21.2172   -4.3961 C   0  0  0  0  0  0  0  0  0  0  0  0
   27.7602  -19.9319   -6.3130 C   0  0  2  0  0  0  0  0  0  0  0  0
   27.9709  -20.8571   -7.3494 N   0  0  0  0  0  0  0  0  0  0  0  0
   28.9476  -19.0489   -6.2008 C   0  0  0  0  0  0  0  0  0  0  0  0
   30.0199  -19.4165   -6.7368 O   0  0  0  0  0  0  0  0  0  0  0  0
   28.9658  -17.8364   -5.5433 O   0  0  0  0  0  0  0  0  0  0  0  0
  2  4  1  0
  2  1  1  1
  3  2  1  0
  4  5  2  0
  6  4  1  0
  6 10  1  0
  7  6  1  0
  7  8  1  0
  8  9  1  0
 10 11  1  1
 10  9  1  0
 11 12  2  0
 11 17  1  0
 14 13  1  6
 14 15  1  0
 14 16  1  0
 16 18  1  0
 16 17  1  6
 18 19  2  0
 18 20  1  0
M  END
$$$$
