APV.pdb
     RDKit          3D

 20 20  0  0  1  0  0  0  0  0999 V2000
   15.7168  -11.6327  -17.3097 C   0  0  0  0  0  0  0  0  0  0  0  0
   16.4867  -11.5945  -18.6355 C   0  0  2  0  0  0  0  0  0  0  0  0
   16.5230  -12.9128  -19.2108 N   0  0  0  0  0  0  0  0  0  0  0  0
   17.8061  -11.0132  -18.3392 C   0  0  0  0  0  0  0  0  0  0  0  0
   18.7226  -11.8334  -18.0324 O   0  0  0  0  0  0  0  0  0  0  0  0
   18.1084   -9.6452  -18.3740 N   0  0  0  0  0  0  0  0  0  0  0  0
   17.1880   -8.5797  -18.6723 C   0  0  0  0  0  0  0  0  0  0  0  0
   17.9375   -7.3305  -18.3031 C   0  0  0  0  0  0  0  0  0  0  0  0
   19.3536   -7.6724  -18.7072 C   0  0  0  0  0  0  0  0  0  0  0  0
   19.4299   -9.0865  -18.1047 C   0  0  1  0  0  0  0  0  0  0  0  0
   19.6839   -8.9190  -16.6743 C   0  0  0  0  0  0  0  0  0  0  0  0
   18.7340   -8.7800  -15.8486 O   0  0  0  0  0  0  0  0  0  0  0  0
   21.4862  -11.4603  -14.6345 C   0  0  0  0  0  0  0  0  0  0  0  0
   22.0993  -10.1349  -14.2303 C   0  0  1  0  0  0  0  0  0  0  0  0
   23.4582  -10.0493  -14.8982 C   0  0  0  0  0  0  0  0  0  0  0  0
   21.2620   -9.0264  -14.6965 C   0  0  2  0  0  0  0  0  0  0  0  0
   20.9586   -8.8924  -16.0619 N   0  0  0  0  0  0  0  0  0  0  0  0
   21.8371   -7.7522  -14.1990 C   0  0  0  0  0  0  0  0  0  0  0  0
   22.3420   -6.9589  -15.0284 O   0  0  0  0  0  0  0  0  0  0  0  0
   21.8608   -7.3647  -12.8752 O   0  0  0  0  0  0  0  0  0  0  0  0
  2  4  1  0
  2  1  1  1
  3  2  1  0
  4  5  2  0
  6  4  1  0
  6 10  1  0
  7  6  1  0
  7  8  1  0
  8  9  1  0
 10 11  1  1
 10  9  1  0
 11 12  2  0
 11 17  1  0
 14 13  1  6
 14 15  1  0
 14 16  1  0
 16 18  1  0
 16 17  1  6
 18 19  2  0
 18 20  1  0
M  END
$$$$
