APV.pdb
     RDKit          3D

 20 20  0  0  1  0  0  0  0  0999 V2000
   25.9583  -18.3236  -15.5119 C   0  0  0  0  0  0  0  0  0  0  0  0
   26.5245  -19.7202  -15.7963 C   0  0  2  0  0  0  0  0  0  0  0  0
   25.6914  -20.3923  -16.7579 N   0  0  0  0  0  0  0  0  0  0  0  0
   26.6393  -20.4004  -14.4961 C   0  0  0  0  0  0  0  0  0  0  0  0
   25.6080  -21.0191  -14.0954 O   0  0  0  0  0  0  0  0  0  0  0  0
   27.7868  -20.4093  -13.6915 N   0  0  0  0  0  0  0  0  0  0  0  0
   29.0153  -19.7081  -13.9572 C   0  0  0  0  0  0  0  0  0  0  0  0
   29.7914  -19.8247  -12.6756 C   0  0  0  0  0  0  0  0  0  0  0  0
   29.4270  -21.2139  -12.2030 C   0  0  0  0  0  0  0  0  0  0  0  0
   27.9074  -21.1453  -12.4367 C   0  0  1  0  0  0  0  0  0  0  0  0
   27.3422  -20.4133  -11.3039 C   0  0  0  0  0  0  0  0  0  0  0  0
   27.2878  -19.1482  -11.2984 O   0  0  0  0  0  0  0  0  0  0  0  0
   24.3342  -20.1617   -7.4134 C   0  0  0  0  0  0  0  0  0  0  0  0
   24.8499  -20.9565   -8.5958 C   0  0  1  0  0  0  0  0  0  0  0  0
   23.7866  -20.8917   -9.6753 C   0  0  0  0  0  0  0  0  0  0  0  0
   26.0894  -20.3625   -9.1035 C   0  0  2  0  0  0  0  0  0  0  0  0
   26.8112  -20.9957  -10.1295 N   0  0  0  0  0  0  0  0  0  0  0  0
   26.9976  -20.1028   -7.9591 C   0  0  0  0  0  0  0  0  0  0  0  0
   27.9344  -20.9079   -7.7435 O   0  0  0  0  0  0  0  0  0  0  0  0
   26.8917  -19.0288   -7.0999 O   0  0  0  0  0  0  0  0  0  0  0  0
  2  4  1  0
  2  1  1  1
  3  2  1  0
  4  5  2  0
  6  4  1  0
  6 10  1  0
  7  6  1  0
  7  8  1  0
  8  9  1  0
 10 11  1  1
 10  9  1  0
 11 12  2  0
 11 17  1  0
 14 13  1  1
 14 15  1  0
 14 16  1  0
 16 18  1  0
 16 17  1  6
 18 19  2  0
 18 20  1  0
M  END
$$$$
