APV.pdb
     RDKit          3D

 20 20  0  0  1  0  0  0  0  0999 V2000
   27.8036  -19.0122  -14.4740 C   0  0  0  0  0  0  0  0  0  0  0  0
   27.9530  -20.5059  -14.1600 C   0  0  2  0  0  0  0  0  0  0  0  0
   28.5644  -21.1752  -15.2773 N   0  0  0  0  0  0  0  0  0  0  0  0
   26.6120  -20.9971  -13.8040 C   0  0  0  0  0  0  0  0  0  0  0  0
   25.9557  -21.5554  -14.7338 O   0  0  0  0  0  0  0  0  0  0  0  0
   26.0274  -20.8913  -12.5347 N   0  0  0  0  0  0  0  0  0  0  0  0
   26.5660  -20.1740  -11.4091 C   0  0  0  0  0  0  0  0  0  0  0  0
   25.4383  -20.1450  -10.4162 C   0  0  0  0  0  0  0  0  0  0  0  0
   24.7933  -21.4970  -10.6207 C   0  0  0  0  0  0  0  0  0  0  0  0
   24.7569  -21.5044  -12.1592 C   0  0  1  0  0  0  0  0  0  0  0  0
   23.6070  -20.6921  -12.5547 C   0  0  0  0  0  0  0  0  0  0  0  0
   23.6692  -19.4275  -12.5737 O   0  0  0  0  0  0  0  0  0  0  0  0
   20.3729  -20.3281  -16.0445 C   0  0  0  0  0  0  0  0  0  0  0  0
   21.3787  -21.1278  -15.2415 C   0  0  1  0  0  0  0  0  0  0  0  0
   22.7301  -20.9386  -15.9034 C   0  0  0  0  0  0  0  0  0  0  0  0
   21.4412  -20.6275  -13.8658 C   0  0  2  0  0  0  0  0  0  0  0  0
   22.3426  -21.1904  -12.9465 N   0  0  0  0  0  0  0  0  0  0  0  0
   20.0755  -20.6543  -13.2860 C   0  0  0  0  0  0  0  0  0  0  0  0
   19.5652  -21.7651  -13.0069 O   0  0  0  0  0  0  0  0  0  0  0  0
   19.3104  -19.5364  -13.0253 O   0  0  0  0  0  0  0  0  0  0  0  0
  2  4  1  0
  2  1  1  6
  3  2  1  0
  4  5  2  0
  6  4  1  0
  6 10  1  0
  7  6  1  0
  7  8  1  0
  8  9  1  0
 10 11  1  1
 10  9  1  0
 11 12  2  0
 11 17  1  0
 14 13  1  6
 14 15  1  0
 14 16  1  0
 16 18  1  0
 16 17  1  1
 18 19  2  0
 18 20  1  0
M  END
$$$$
