APV.pdb
     RDKit          3D

 20 20  0  0  1  0  0  0  0  0999 V2000
   24.0409  -12.3436  -20.1338 C   0  0  0  0  0  0  0  0  0  0  0  0
   23.5308  -13.3091  -19.0569 C   0  0  2  0  0  0  0  0  0  0  0  0
   22.7015  -14.3156  -19.6647 N   0  0  0  0  0  0  0  0  0  0  0  0
   22.8577  -12.4862  -18.0389 C   0  0  0  0  0  0  0  0  0  0  0  0
   21.6634  -12.1466  -18.2944 O   0  0  0  0  0  0  0  0  0  0  0  0
   23.4364  -12.0644  -16.8343 N   0  0  0  0  0  0  0  0  0  0  0  0
   24.7917  -12.3049  -16.4136 C   0  0  0  0  0  0  0  0  0  0  0  0
   24.9678  -11.4193  -15.2123 C   0  0  0  0  0  0  0  0  0  0  0  0
   23.6086  -11.4939  -14.5543 C   0  0  0  0  0  0  0  0  0  0  0  0
   22.7356  -11.3002  -15.8069 C   0  0  1  0  0  0  0  0  0  0  0  0
   22.7224   -9.8656  -16.0902 C   0  0  0  0  0  0  0  0  0  0  0  0
   23.6710   -9.3096  -16.7184 O   0  0  0  0  0  0  0  0  0  0  0  0
   20.8408   -8.2918  -18.5015 C   0  0  0  0  0  0  0  0  0  0  0  0
   20.4818   -7.4607  -17.2864 C   0  0  1  0  0  0  0  0  0  0  0  0
   19.1208   -7.9307  -16.8103 C   0  0  0  0  0  0  0  0  0  0  0  0
   21.4649   -7.6712  -16.2205 C   0  0  2  0  0  0  0  0  0  0  0  0
   21.7002   -8.9619  -15.7174 N   0  0  0  0  0  0  0  0  0  0  0  0
   21.1480   -6.7602  -15.0927 C   0  0  0  0  0  0  0  0  0  0  0  0
   20.6478   -7.2479  -14.0515 O   0  0  0  0  0  0  0  0  0  0  0  0
   21.3637   -5.3977  -15.0988 O   0  0  0  0  0  0  0  0  0  0  0  0
  2  4  1  0
  2  1  1  6
  3  2  1  0
  4  5  2  0
  6  4  1  0
  6 10  1  0
  7  6  1  0
  7  8  1  0
  8  9  1  0
 10 11  1  6
 10  9  1  0
 11 12  2  0
 11 17  1  0
 14 13  1  6
 14 15  1  0
 14 16  1  0
 16 18  1  0
 16 17  1  1
 18 19  2  0
 18 20  1  0
M  END
$$$$
