APV.pdb
     RDKit          3D

 20 20  0  0  1  0  0  0  0  0999 V2000
   17.9463  -19.5367    1.9001 C   0  0  0  0  0  0  0  0  0  0  0  0
   16.5922  -19.5004    2.6192 C   0  0  2  0  0  0  0  0  0  0  0  0
   15.5312  -19.4537    1.6484 N   0  0  0  0  0  0  0  0  0  0  0  0
   16.6363  -18.3542    3.5416 C   0  0  0  0  0  0  0  0  0  0  0  0
   16.2530  -17.2417    3.0701 O   0  0  0  0  0  0  0  0  0  0  0  0
   17.0633  -18.4110    4.8752 N   0  0  0  0  0  0  0  0  0  0  0  0
   17.6652  -19.5447    5.5263 C   0  0  0  0  0  0  0  0  0  0  0  0
   18.1771  -18.9941    6.8275 C   0  0  0  0  0  0  0  0  0  0  0  0
   17.1117  -17.9853    7.1925 C   0  0  0  0  0  0  0  0  0  0  0  0
   16.9605  -17.3038    5.8209 C   0  0  1  0  0  0  0  0  0  0  0  0
   18.0707  -16.3600    5.6978 C   0  0  0  0  0  0  0  0  0  0  0  0
   19.2110  -16.7336    5.2935 O   0  0  0  0  0  0  0  0  0  0  0  0
   17.6117  -11.9753    5.7705 C   0  0  0  0  0  0  0  0  0  0  0  0
   18.6247  -12.7868    4.9887 C   0  0  1  0  0  0  0  0  0  0  0  0
   19.8576  -11.9196    4.8209 C   0  0  0  0  0  0  0  0  0  0  0  0
   18.9844  -13.9982    5.7305 C   0  0  2  0  0  0  0  0  0  0  0  0
   18.0150  -14.9792    5.9994 N   0  0  0  0  0  0  0  0  0  0  0  0
   19.6409  -13.6023    7.0010 C   0  0  0  0  0  0  0  0  0  0  0  0
   19.0210  -13.7809    8.0762 O   0  0  0  0  0  0  0  0  0  0  0  0
   20.8990  -13.0445    7.0948 O   0  0  0  0  0  0  0  0  0  0  0  0
  2  4  1  0
  2  1  1  6
  3  2  1  0
  4  5  2  0
  6  4  1  0
  6 10  1  0
  7  6  1  0
  7  8  1  0
  8  9  1  0
 10 11  1  6
 10  9  1  0
 11 12  2  0
 11 17  1  0
 14 13  1  1
 14 15  1  0
 14 16  1  0
 16 18  1  0
 16 17  1  1
 18 19  2  0
 18 20  1  0
M  END
$$$$
