APV.pdb
     RDKit          3D

 20 20  0  0  1  0  0  0  0  0999 V2000
   26.9433  -17.5029  -16.0402 C   0  0  0  0  0  0  0  0  0  0  0  0
   27.4558  -18.9007  -16.4086 C   0  0  2  0  0  0  0  0  0  0  0  0
   26.8549  -19.3247  -17.6453 N   0  0  0  0  0  0  0  0  0  0  0  0
   27.1734  -19.7698  -15.2548 C   0  0  0  0  0  0  0  0  0  0  0  0
   26.0075  -20.2639  -15.1987 O   0  0  0  0  0  0  0  0  0  0  0  0
   28.0876  -20.0801  -14.2388 N   0  0  0  0  0  0  0  0  0  0  0  0
   29.3974  -19.5074  -14.0714 C   0  0  0  0  0  0  0  0  0  0  0  0
   29.8282  -19.9644  -12.7062 C   0  0  0  0  0  0  0  0  0  0  0  0
   29.2471  -21.3583  -12.6342 C   0  0  0  0  0  0  0  0  0  0  0  0
   27.8401  -21.0495  -13.1759 C   0  0  1  0  0  0  0  0  0  0  0  0
   27.0801  -20.4776  -12.0651 C   0  0  0  0  0  0  0  0  0  0  0  0
   27.1134  -19.2369  -11.8140 O   0  0  0  0  0  0  0  0  0  0  0  0
   22.9279  -20.3740   -9.6011 C   0  0  0  0  0  0  0  0  0  0  0  0
   23.8437  -21.1196  -10.5505 C   0  0  1  0  0  0  0  0  0  0  0  0
   23.4153  -20.7586  -11.9598 C   0  0  0  0  0  0  0  0  0  0  0  0
   25.2332  -20.7015  -10.3467 C   0  0  2  0  0  0  0  0  0  0  0  0
   26.2528  -21.2009  -11.1746 N   0  0  0  0  0  0  0  0  0  0  0  0
   25.5993  -20.9377   -8.9282 C   0  0  0  0  0  0  0  0  0  0  0  0
   25.9215  -22.0978   -8.5782 O   0  0  0  0  0  0  0  0  0  0  0  0
   25.6137  -19.9668   -7.9483 O   0  0  0  0  0  0  0  0  0  0  0  0
  2  4  1  0
  2  1  1  1
  3  2  1  0
  4  5  2  0
  6  4  1  0
  6 10  1  0
  7  6  1  0
  7  8  1  0
  8  9  1  0
 10 11  1  1
 10  9  1  0
 11 12  2  0
 11 17  1  0
 14 13  1  1
 14 15  1  0
 14 16  1  0
 16 18  1  0
 16 17  1  6
 18 19  2  0
 18 20  1  0
M  END
$$$$
