APV.pdb
     RDKit          3D

 20 20  0  0  1  0  0  0  0  0999 V2000
   25.7708  -18.3924  -15.5470 C   0  0  0  0  0  0  0  0  0  0  0  0
   26.1947  -19.8460  -15.7905 C   0  0  2  0  0  0  0  0  0  0  0  0
   25.2310  -20.4940  -16.6401 N   0  0  0  0  0  0  0  0  0  0  0  0
   26.3630  -20.4629  -14.4648 C   0  0  0  0  0  0  0  0  0  0  0  0
   25.3211  -20.9630  -13.9442 O   0  0  0  0  0  0  0  0  0  0  0  0
   27.5710  -20.5325  -13.7576 N   0  0  0  0  0  0  0  0  0  0  0  0
   28.8129  -19.9107  -14.1353 C   0  0  0  0  0  0  0  0  0  0  0  0
   29.6846  -20.0596  -12.9203 C   0  0  0  0  0  0  0  0  0  0  0  0
   29.2783  -21.4183  -12.3960 C   0  0  0  0  0  0  0  0  0  0  0  0
   27.7513  -21.2597  -12.5048 C   0  0  1  0  0  0  0  0  0  0  0  0
   27.3273  -20.4813  -11.3417 C   0  0  0  0  0  0  0  0  0  0  0  0
   27.2213  -19.2207  -11.3960 O   0  0  0  0  0  0  0  0  0  0  0  0
   24.4421  -20.2534   -7.4051 C   0  0  0  0  0  0  0  0  0  0  0  0
   25.0476  -21.0740   -8.5258 C   0  0  1  0  0  0  0  0  0  0  0  0
   24.0026  -21.1747   -9.6203 C   0  0  0  0  0  0  0  0  0  0  0  0
   26.2389  -20.4058   -9.0562 C   0  0  2  0  0  0  0  0  0  0  0  0
   26.9983  -21.0107  -10.0720 N   0  0  0  0  0  0  0  0  0  0  0  0
   27.1325  -20.0547   -7.9248 C   0  0  0  0  0  0  0  0  0  0  0  0
   28.1063  -20.8045   -7.6760 O   0  0  0  0  0  0  0  0  0  0  0  0
   26.9747  -18.9513   -7.1120 O   0  0  0  0  0  0  0  0  0  0  0  0
  2  4  1  0
  2  1  1  1
  3  2  1  0
  4  5  2  0
  6  4  1  0
  6 10  1  0
  7  6  1  0
  7  8  1  0
  8  9  1  0
 10 11  1  1
 10  9  1  0
 11 12  2  0
 11 17  1  0
 14 13  1  1
 14 15  1  0
 14 16  1  0
 16 18  1  0
 16 17  1  6
 18 19  2  0
 18 20  1  0
M  END
$$$$
