APV.pdb
     RDKit          3D

 20 20  0  0  1  0  0  0  0  0999 V2000
   15.8235  -10.1234  -14.9754 C   0  0  0  0  0  0  0  0  0  0  0  0
   17.3105   -9.8778  -14.6910 C   0  0  2  0  0  0  0  0  0  0  0  0
   17.9644  -11.1313  -14.4242 N   0  0  0  0  0  0  0  0  0  0  0  0
   17.3727   -8.9021  -13.5907 C   0  0  0  0  0  0  0  0  0  0  0  0
   17.4957   -9.3819  -12.4239 O   0  0  0  0  0  0  0  0  0  0  0  0
   17.3074   -7.5107  -13.7449 N   0  0  0  0  0  0  0  0  0  0  0  0
   17.0072   -6.8047  -14.9627 C   0  0  0  0  0  0  0  0  0  0  0  0
   16.7916   -5.3842  -14.5221 C   0  0  0  0  0  0  0  0  0  0  0  0
   17.8088   -5.2320  -13.4140 C   0  0  0  0  0  0  0  0  0  0  0  0
   17.5370   -6.5510  -12.6692 C   0  0  1  0  0  0  0  0  0  0  0  0
   16.3437   -6.3324  -11.8525 C   0  0  0  0  0  0  0  0  0  0  0  0
   15.1811   -6.4548  -12.3391 O   0  0  0  0  0  0  0  0  0  0  0  0
   13.9344   -6.4587   -7.6193 C   0  0  0  0  0  0  0  0  0  0  0  0
   15.2728   -6.5872   -8.3180 C   0  0  1  0  0  0  0  0  0  0  0  0
   15.5223   -8.0672   -8.5359 C   0  0  0  0  0  0  0  0  0  0  0  0
   15.2338   -5.9084   -9.6159 C   0  0  2  0  0  0  0  0  0  0  0  0
   16.3366   -5.9743  -10.4842 N   0  0  0  0  0  0  0  0  0  0  0  0
   14.8696   -4.4863   -9.3998 C   0  0  0  0  0  0  0  0  0  0  0  0
   15.7900   -3.6504   -9.2374 O   0  0  0  0  0  0  0  0  0  0  0  0
   13.5781   -4.0028   -9.3628 O   0  0  0  0  0  0  0  0  0  0  0  0
  2  4  1  0
  2  1  1  1
  3  2  1  0
  4  5  2  0
  6  4  1  0
  6 10  1  0
  7  6  1  0
  7  8  1  0
  8  9  1  0
 10 11  1  1
 10  9  1  0
 11 12  2  0
 11 17  1  0
 14 13  1  6
 14 15  1  0
 14 16  1  0
 16 18  1  0
 16 17  1  1
 18 19  2  0
 18 20  1  0
M  END
$$$$
