APV.pdb
     RDKit          3D

 20 20  0  0  1  0  0  0  0  0999 V2000
   18.6416   -8.0539  -16.4535 C   0  0  0  0  0  0  0  0  0  0  0  0
   19.7693   -8.8364  -15.7691 C   0  0  2  0  0  0  0  0  0  0  0  0
   19.6587  -10.2321  -16.1010 N   0  0  0  0  0  0  0  0  0  0  0  0
   19.6786   -8.5343  -14.3314 C   0  0  0  0  0  0  0  0  0  0  0  0
   18.9849   -9.3342  -13.6344 O   0  0  0  0  0  0  0  0  0  0  0  0
   20.2946   -7.4467  -13.6977 N   0  0  0  0  0  0  0  0  0  0  0  0
   21.0952   -6.4347  -14.3353 C   0  0  0  0  0  0  0  0  0  0  0  0
   21.2672   -5.3802  -13.2786 C   0  0  0  0  0  0  0  0  0  0  0  0
   21.3815   -6.2040  -12.0160 C   0  0  0  0  0  0  0  0  0  0  0  0
   20.2117   -7.1723  -12.2664 C   0  0  1  0  0  0  0  0  0  0  0  0
   18.9897   -6.4546  -11.9057 C   0  0  0  0  0  0  0  0  0  0  0  0
   18.5158   -5.5458  -12.6494 O   0  0  0  0  0  0  0  0  0  0  0  0
   15.6207   -7.7388  -11.6868 C   0  0  0  0  0  0  0  0  0  0  0  0
   15.7778   -6.9941  -10.3765 C   0  0  1  0  0  0  0  0  0  0  0  0
   15.9600   -8.0362   -9.2898 C   0  0  0  0  0  0  0  0  0  0  0  0
   16.9623   -6.1328  -10.4224 C   0  0  2  0  0  0  0  0  0  0  0  0
   18.2202   -6.6730  -10.7392 N   0  0  0  0  0  0  0  0  0  0  0  0
   17.0611   -5.3891   -9.1422 C   0  0  0  0  0  0  0  0  0  0  0  0
   17.9838   -5.6862   -8.3467 O   0  0  0  0  0  0  0  0  0  0  0  0
   16.2051   -4.3804   -8.7513 O   0  0  0  0  0  0  0  0  0  0  0  0
  2  4  1  0
  2  1  1  6
  3  2  1  0
  4  5  2  0
  6  4  1  0
  6 10  1  0
  7  6  1  0
  7  8  1  0
  8  9  1  0
 10 11  1  6
 10  9  1  0
 11 12  2  0
 11 17  1  0
 14 13  1  6
 14 15  1  0
 14 16  1  0
 16 18  1  0
 16 17  1  1
 18 19  2  0
 18 20  1  0
M  END
$$$$
