APV.pdb
     RDKit          3D

 20 20  0  0  1  0  0  0  0  0999 V2000
   27.8554  -22.4865  -15.7171 C   0  0  0  0  0  0  0  0  0  0  0  0
   27.2446  -21.1095  -16.0051 C   0  0  2  0  0  0  0  0  0  0  0  0
   28.1980  -20.2970  -16.7129 N   0  0  0  0  0  0  0  0  0  0  0  0
   26.8087  -20.5634  -14.7096 C   0  0  0  0  0  0  0  0  0  0  0  0
   27.6540  -19.8501  -14.0904 O   0  0  0  0  0  0  0  0  0  0  0  0
   25.5503  -20.7747  -14.1301 N   0  0  0  0  0  0  0  0  0  0  0  0
   24.5145  -21.6343  -14.6397 C   0  0  0  0  0  0  0  0  0  0  0  0
   23.5156  -21.7125  -13.5197 C   0  0  0  0  0  0  0  0  0  0  0  0
   23.5667  -20.3157  -12.9435 C   0  0  0  0  0  0  0  0  0  0  0  0
   25.0952  -20.1422  -12.8957 C   0  0  1  0  0  0  0  0  0  0  0  0
   25.5596  -20.8486  -11.7025 C   0  0  0  0  0  0  0  0  0  0  0  0
   25.6776  -22.1093  -11.6878 O   0  0  0  0  0  0  0  0  0  0  0  0
   28.7223  -20.2970   -9.5529 C   0  0  0  0  0  0  0  0  0  0  0  0
   27.5487  -20.3832   -8.5983 C   0  0  1  0  0  0  0  0  0  0  0  0
   27.2826  -18.9793   -8.0901 C   0  0  0  0  0  0  0  0  0  0  0  0
   26.3603  -20.8755   -9.3000 C   0  0  2  0  0  0  0  0  0  0  0  0
   25.9181  -20.2443  -10.4750 N   0  0  0  0  0  0  0  0  0  0  0  0
   25.2347  -20.9519   -8.3361 C   0  0  0  0  0  0  0  0  0  0  0  0
   24.2581  -20.1813   -8.4936 O   0  0  0  0  0  0  0  0  0  0  0  0
   25.1762  -21.8172   -7.2634 O   0  0  0  0  0  0  0  0  0  0  0  0
  2  4  1  0
  2  1  1  1
  3  2  1  0
  4  5  2  0
  6  4  1  0
  6 10  1  0
  7  6  1  0
  7  8  1  0
  8  9  1  0
 10 11  1  1
 10  9  1  0
 11 12  2  0
 11 17  1  0
 14 13  1  6
 14 15  1  0
 14 16  1  0
 16 18  1  0
 16 17  1  6
 18 19  2  0
 18 20  1  0
M  END
$$$$
