APV.pdb
     RDKit          3D

 20 20  0  0  1  0  0  0  0  0999 V2000
   16.9820  -27.5442  -10.9150 C   0  0  0  0  0  0  0  0  0  0  0  0
   18.4933  -27.3638  -10.7262 C   0  0  2  0  0  0  0  0  0  0  0  0
   19.1821  -28.5348  -11.1998 N   0  0  0  0  0  0  0  0  0  0  0  0
   18.7055  -27.0557   -9.3026 C   0  0  0  0  0  0  0  0  0  0  0  0
   18.9831  -28.0394   -8.5528 O   0  0  0  0  0  0  0  0  0  0  0  0
   18.6234  -25.7768   -8.7355 N   0  0  0  0  0  0  0  0  0  0  0  0
   18.1740  -24.5812   -9.3990 C   0  0  0  0  0  0  0  0  0  0  0  0
   18.0174  -23.5800   -8.2892 C   0  0  0  0  0  0  0  0  0  0  0  0
   19.1657  -23.9333   -7.3714 C   0  0  0  0  0  0  0  0  0  0  0  0
   18.9874  -25.4618   -7.3574 C   0  0  1  0  0  0  0  0  0  0  0  0
   17.9063  -25.7486   -6.4153 C   0  0  0  0  0  0  0  0  0  0  0  0
   16.6950  -25.7528   -6.7844 O   0  0  0  0  0  0  0  0  0  0  0  0
   18.3270  -26.2016   -2.0510 C   0  0  0  0  0  0  0  0  0  0  0  0
   17.5028  -27.1585   -2.8882 C   0  0  1  0  0  0  0  0  0  0  0  0
   16.2656  -27.5048   -2.0823 C   0  0  0  0  0  0  0  0  0  0  0  0
   17.0979  -26.5156   -4.1411 C   0  0  2  0  0  0  0  0  0  0  0  0
   18.0677  -26.0427   -5.0413 N   0  0  0  0  0  0  0  0  0  0  0  0
   16.1482  -25.4189   -3.8293 C   0  0  0  0  0  0  0  0  0  0  0  0
   16.5975  -24.2548   -3.7055 O   0  0  0  0  0  0  0  0  0  0  0  0
   14.7885  -25.5807   -3.6623 O   0  0  0  0  0  0  0  0  0  0  0  0
  2  4  1  0
  2  1  1  1
  3  2  1  0
  4  5  2  0
  6  4  1  0
  6 10  1  0
  7  6  1  0
  7  8  1  0
  8  9  1  0
 10 11  1  1
 10  9  1  0
 11 12  2  0
 11 17  1  0
 14 13  1  1
 14 15  1  0
 14 16  1  0
 16 18  1  0
 16 17  1  1
 18 19  2  0
 18 20  1  0
M  END
$$$$
