APV.pdb
     RDKit          3D

 20 20  0  0  1  0  0  0  0  0999 V2000
   17.1790  -11.2815  -17.4593 C   0  0  0  0  0  0  0  0  0  0  0  0
   18.5409  -11.9512  -17.6800 C   0  0  2  0  0  0  0  0  0  0  0  0
   18.5108  -13.2907  -17.1554 N   0  0  0  0  0  0  0  0  0  0  0  0
   19.5475  -11.0700  -17.0662 C   0  0  0  0  0  0  0  0  0  0  0  0
   19.8579  -11.3273  -15.8644 O   0  0  0  0  0  0  0  0  0  0  0  0
   20.1707   -9.9914  -17.7082 N   0  0  0  0  0  0  0  0  0  0  0  0
   19.9203   -9.5442  -19.0532 C   0  0  0  0  0  0  0  0  0  0  0  0
   20.6239   -8.2190  -19.1384 C   0  0  0  0  0  0  0  0  0  0  0  0
   21.8569   -8.4534  -18.2955 C   0  0  0  0  0  0  0  0  0  0  0  0
   21.1865   -9.1421  -17.0935 C   0  0  1  0  0  0  0  0  0  0  0  0
   20.6044   -8.0802  -16.2737 C   0  0  0  0  0  0  0  0  0  0  0  0
   19.4031   -7.7114  -16.4296 O   0  0  0  0  0  0  0  0  0  0  0  0
   22.4128   -6.9725  -12.4596 C   0  0  0  0  0  0  0  0  0  0  0  0
   20.9412   -7.0866  -12.8021 C   0  0  1  0  0  0  0  0  0  0  0  0
   20.1905   -6.1673  -11.8579 C   0  0  0  0  0  0  0  0  0  0  0  0
   20.7076   -6.6550  -14.1828 C   0  0  2  0  0  0  0  0  0  0  0  0
   21.2752   -7.3659  -15.2538 N   0  0  0  0  0  0  0  0  0  0  0  0
   21.0728   -5.2218  -14.3028 C   0  0  0  0  0  0  0  0  0  0  0  0
   22.2448   -4.9286  -14.6387 O   0  0  0  0  0  0  0  0  0  0  0  0
   20.2117   -4.1694  -14.0707 O   0  0  0  0  0  0  0  0  0  0  0  0
  2  4  1  0
  2  1  1  1
  3  2  1  0
  4  5  2  0
  6  4  1  0
  6 10  1  0
  7  6  1  0
  7  8  1  0
  8  9  1  0
 10 11  1  1
 10  9  1  0
 11 12  2  0
 11 17  1  0
 14 13  1  1
 14 15  1  0
 14 16  1  0
 16 18  1  0
 16 17  1  6
 18 19  2  0
 18 20  1  0
M  END
$$$$
