GIY.pdb
     RDKit          3D

 25 25  0  0  1  0  0  0  0  0999 V2000
   18.3470  -22.5666  -13.0316 N   0  0  0  0  0  0  0  0  0  0  0  0
   19.4294  -23.3015  -12.4349 C   0  0  0  0  0  0  0  0  0  0  0  0
   18.8746  -24.4864  -11.6721 C   0  0  0  0  0  0  0  0  0  0  0  0
   17.6408  -24.6264  -11.5271 O   0  0  0  0  0  0  0  0  0  0  0  0
   20.3348  -29.2594  -12.8163 C   0  0  0  0  0  0  0  0  0  0  0  0
   19.5175  -28.1329  -12.2701 C   0  0  0  0  0  0  0  0  0  0  0  0
   19.7290  -27.7943  -10.8458 C   0  0  2  0  0  0  0  0  0  0  0  0
   19.6783  -29.0191   -9.9460 C   0  0  0  0  0  0  0  0  0  0  0  0
   19.1619  -26.5592  -10.2858 C   0  0  2  0  0  0  0  0  0  0  0  0
   19.7245  -25.4524  -11.1113 N   0  0  0  0  0  0  0  0  0  0  0  0
   19.3126  -26.2426   -8.8788 C   0  0  0  0  0  0  0  0  0  0  0  0
   20.4478  -25.9688   -8.3565 O   0  0  0  0  0  0  0  0  0  0  0  0
   13.9374  -21.8385   -8.6189 O   0  0  0  0  0  0  0  0  0  0  0  0
   15.0572  -22.4645   -8.0602 C   0  0  0  0  0  0  0  0  0  0  0  0
   16.2107  -22.6303   -8.7955 C   0  0  0  0  0  0  0  0  0  0  0  0
   17.3213  -23.2438   -8.2611 C   0  0  0  0  0  0  0  0  0  0  0  0
   17.3185  -23.7136   -6.9722 C   0  0  0  0  0  0  0  0  0  0  0  0
   18.4769  -24.3814   -6.3793 C   0  0  0  0  0  0  0  0  0  0  0  0
   18.4514  -25.9087   -6.5434 C   0  0  2  0  0  0  0  0  0  0  0  0
   18.2304  -26.1952   -7.9638 N   0  0  0  0  0  0  0  0  0  0  0  0
   17.3554  -26.4545   -5.7608 C   0  0  0  0  0  0  0  0  0  0  0  0
   17.3325  -26.2996   -4.5145 O   0  0  0  0  0  0  0  0  0  0  0  0
   16.1585  -23.5475   -6.2315 C   0  0  0  0  0  0  0  0  0  0  0  0
   15.0467  -22.9337   -6.7653 C   0  0  0  0  0  0  0  0  0  0  0  0
   16.3244  -27.1449   -6.3474 O   0  0  0  0  0  0  0  0  0  0  0  0
  1  2  1  0
  2  3  1  0
  3 10  1  0
  3  4  2  0
  6  5  1  0
  7  8  1  1
  7  6  1  0
  9  7  1  0
  9 10  1  6
 11 12  2  0
 11  9  1  0
 14 13  1  0
 14 24  2  0
 15 14  1  0
 16 15  2  0
 16 17  1  0
 17 23  2  0
 18 17  1  0
 19 18  1  6
 19 20  1  0
 20 11  1  0
 21 19  1  0
 21 25  1  0
 22 21  2  0
 23 24  1  0
M  END
$$$$
