GIY.pdb
     RDKit          3D

 25 25  0  0  1  0  0  0  0  0999 V2000
   26.8652  -19.5355  -20.3175 N   0  0  0  0  0  0  0  0  0  0  0  0
   25.6680  -20.0682  -19.7253 C   0  0  0  0  0  0  0  0  0  0  0  0
   25.5723  -19.6126  -18.2841 C   0  0  0  0  0  0  0  0  0  0  0  0
   26.5990  -19.2750  -17.6558 O   0  0  0  0  0  0  0  0  0  0  0  0
   22.3757  -16.4974  -18.0273 C   0  0  0  0  0  0  0  0  0  0  0  0
   23.4216  -16.7954  -17.0014 C   0  0  0  0  0  0  0  0  0  0  0  0
   23.2335  -18.0283  -16.2061 C   0  0  2  0  0  0  0  0  0  0  0  0
   22.5628  -17.7577  -14.8684 C   0  0  0  0  0  0  0  0  0  0  0  0
   24.2635  -19.0770  -16.2103 C   0  0  2  0  0  0  0  0  0  0  0  0
   24.3372  -19.5576  -17.6197 N   0  0  0  0  0  0  0  0  0  0  0  0
   24.1731  -20.2121  -15.3125 C   0  0  0  0  0  0  0  0  0  0  0  0
   23.2991  -21.1344  -15.4611 O   0  0  0  0  0  0  0  0  0  0  0  0
   25.8732  -19.2274   -7.4154 O   0  0  0  0  0  0  0  0  0  0  0  0
   25.9493  -19.8438   -8.6693 C   0  0  0  0  0  0  0  0  0  0  0  0
   26.2659  -19.1137   -9.7942 C   0  0  0  0  0  0  0  0  0  0  0  0
   26.3452  -19.7044  -11.0353 C   0  0  0  0  0  0  0  0  0  0  0  0
   26.1107  -21.0465  -11.1962 C   0  0  0  0  0  0  0  0  0  0  0  0
   26.1740  -21.7018  -12.5023 C   0  0  0  0  0  0  0  0  0  0  0  0
   24.8790  -21.5646  -13.3177 C   0  0  2  0  0  0  0  0  0  0  0  0
   25.0395  -20.4114  -14.2080 N   0  0  0  0  0  0  0  0  0  0  0  0
   23.7675  -21.3290  -12.4118 C   0  0  0  0  0  0  0  0  0  0  0  0
   23.1966  -22.2963  -11.8495 O   0  0  0  0  0  0  0  0  0  0  0  0
   25.7919  -21.7821  -10.0652 C   0  0  0  0  0  0  0  0  0  0  0  0
   25.7124  -21.1918   -8.8229 C   0  0  0  0  0  0  0  0  0  0  0  0
   23.3125  -20.0623  -12.1431 O   0  0  0  0  0  0  0  0  0  0  0  0
  1  2  1  0
  2  3  1  0
  3 10  1  0
  3  4  2  0
  6  5  1  0
  7  8  1  1
  7  6  1  0
  9  7  1  0
  9 10  1  6
 11 12  2  0
 11  9  1  0
 14 13  1  0
 14 24  2  0
 15 14  1  0
 16 15  2  0
 16 17  1  0
 17 23  2  0
 18 17  1  0
 19 18  1  1
 19 20  1  0
 20 11  1  0
 21 19  1  0
 21 25  1  0
 22 21  2  0
 23 24  1  0
M  END
$$$$
