GIY.pdb
     RDKit          3D

 25 25  0  0  1  0  0  0  0  0999 V2000
   20.8346  -22.2517   -6.7020 N   0  0  0  0  0  0  0  0  0  0  0  0
   22.2407  -22.5396   -6.7894 C   0  0  0  0  0  0  0  0  0  0  0  0
   22.9206  -21.4826   -7.6344 C   0  0  0  0  0  0  0  0  0  0  0  0
   22.2452  -20.6163   -8.2313 O   0  0  0  0  0  0  0  0  0  0  0  0
   27.6376  -19.2951   -6.2099 C   0  0  0  0  0  0  0  0  0  0  0  0
   26.2874  -19.6512   -6.7442 C   0  0  0  0  0  0  0  0  0  0  0  0
   26.2367  -20.1314   -8.1424 C   0  0  2  0  0  0  0  0  0  0  0  0
   27.2006  -19.3805   -9.0476 C   0  0  0  0  0  0  0  0  0  0  0  0
   24.9539  -20.5186   -8.7466 C   0  0  2  0  0  0  0  0  0  0  0  0
   24.3172  -21.4472   -7.7693 N   0  0  0  0  0  0  0  0  0  0  0  0
   24.9021  -21.0986  -10.0747 C   0  0  0  0  0  0  0  0  0  0  0  0
   24.8807  -22.3627  -10.2692 O   0  0  0  0  0  0  0  0  0  0  0  0
   18.9687  -22.0899  -16.1358 O   0  0  0  0  0  0  0  0  0  0  0  0
   19.8659  -21.7770  -15.1086 C   0  0  0  0  0  0  0  0  0  0  0  0
   20.7593  -22.7175  -14.6437 C   0  0  0  0  0  0  0  0  0  0  0  0
   21.6487  -22.4261  -13.6340 C   0  0  0  0  0  0  0  0  0  0  0  0
   21.6769  -21.1838  -13.0527 C   0  0  0  0  0  0  0  0  0  0  0  0
   22.6001  -20.8464  -11.9696 C   0  0  0  0  0  0  0  0  0  0  0  0
   24.0669  -20.7674  -12.4199 C   0  0  2  0  0  0  0  0  0  0  0  0
   24.8586  -20.3311  -11.2661 N   0  0  0  0  0  0  0  0  0  0  0  0
   24.1859  -19.7906  -13.4891 C   0  0  0  0  0  0  0  0  0  0  0  0
   24.2128  -20.1676  -14.6870 O   0  0  0  0  0  0  0  0  0  0  0  0
   20.7784  -20.2368  -13.5194 C   0  0  0  0  0  0  0  0  0  0  0  0
   19.8881  -20.5274  -14.5298 C   0  0  0  0  0  0  0  0  0  0  0  0
   24.2697  -18.4454  -13.2305 O   0  0  0  0  0  0  0  0  0  0  0  0
  1  2  1  0
  2  3  1  0
  3 10  1  0
  3  4  2  0
  6  5  1  0
  7  8  1  6
  7  6  1  0
  9  7  1  0
  9 10  1  1
 11 12  2  0
 11  9  1  0
 14 13  1  0
 14 24  2  0
 15 14  1  0
 16 15  2  0
 16 17  1  0
 17 23  2  0
 18 17  1  0
 19 18  1  1
 19 20  1  0
 20 11  1  0
 21 19  1  0
 21 25  1  0
 22 21  2  0
 23 24  1  0
M  END
$$$$
