GIY.pdb
     RDKit          3D

 25 25  0  0  1  0  0  0  0  0999 V2000
   20.5460  -12.0800  -17.1605 N   0  0  0  0  0  0  0  0  0  0  0  0
   19.6521  -11.0304  -17.5689 C   0  0  0  0  0  0  0  0  0  0  0  0
   20.4527   -9.7924  -17.9155 C   0  0  0  0  0  0  0  0  0  0  0  0
   21.6539   -9.6995  -17.5818 O   0  0  0  0  0  0  0  0  0  0  0  0
   20.1597   -7.8456  -22.7547 C   0  0  0  0  0  0  0  0  0  0  0  0
   20.6836   -8.1612  -21.3905 C   0  0  0  0  0  0  0  0  0  0  0  0
   20.3806   -7.1818  -20.3243 C   0  0  2  0  0  0  0  0  0  0  0  0
   20.6648   -5.7512  -20.7546 C   0  0  0  0  0  0  0  0  0  0  0  0
   20.6713   -7.5022  -18.9195 C   0  0  2  0  0  0  0  0  0  0  0  0
   19.8719   -8.7235  -18.6157 N   0  0  0  0  0  0  0  0  0  0  0  0
   20.4710   -6.5166  -17.8749 C   0  0  0  0  0  0  0  0  0  0  0  0
   19.3169   -6.2637  -17.3845 O   0  0  0  0  0  0  0  0  0  0  0  0
   18.7658   -8.8918  -11.9823 O   0  0  0  0  0  0  0  0  0  0  0  0
   19.5443   -7.9935  -12.7206 C   0  0  0  0  0  0  0  0  0  0  0  0
   20.7345   -8.3945  -13.2873 C   0  0  0  0  0  0  0  0  0  0  0  0
   21.5124   -7.5236  -14.0166 C   0  0  0  0  0  0  0  0  0  0  0  0
   21.1280   -6.2203  -14.2056 C   0  0  0  0  0  0  0  0  0  0  0  0
   21.9376   -5.2669  -14.9638 C   0  0  0  0  0  0  0  0  0  0  0  0
   21.2547   -4.7714  -16.2478 C   0  0  2  0  0  0  0  0  0  0  0  0
   21.5214   -5.7592  -17.2975 N   0  0  0  0  0  0  0  0  0  0  0  0
   21.8260   -3.4907  -16.6285 C   0  0  0  0  0  0  0  0  0  0  0  0
   22.4657   -3.3806  -17.7039 O   0  0  0  0  0  0  0  0  0  0  0  0
   19.9308   -5.8156  -13.6358 C   0  0  0  0  0  0  0  0  0  0  0  0
   19.1517   -6.6864  -12.9059 C   0  0  0  0  0  0  0  0  0  0  0  0
   21.6867   -2.3762  -15.8398 O   0  0  0  0  0  0  0  0  0  0  0  0
  1  2  1  0
  2  3  1  0
  3 10  1  0
  3  4  2  0
  6  5  1  0
  7  8  1  6
  7  6  1  0
  9  7  1  0
  9 10  1  1
 11 12  2  0
 11  9  1  0
 14 13  1  0
 14 24  2  0
 15 14  1  0
 16 15  2  0
 16 17  1  0
 17 23  2  0
 18 17  1  0
 19 18  1  1
 19 20  1  0
 20 11  1  0
 21 19  1  0
 21 25  1  0
 22 21  2  0
 23 24  1  0
M  END
$$$$
