GIY.pdb
     RDKit          3D

 25 25  0  0  1  0  0  0  0  0999 V2000
   28.2797  -19.0173  -16.7235 N   0  0  0  0  0  0  0  0  0  0  0  0
   27.6611  -18.4813  -15.5413 C   0  0  0  0  0  0  0  0  0  0  0  0
   26.8956  -19.5781  -14.8309 C   0  0  0  0  0  0  0  0  0  0  0  0
   26.4546  -20.5591  -15.4681 O   0  0  0  0  0  0  0  0  0  0  0  0
   28.9587  -21.5486  -10.6180 C   0  0  0  0  0  0  0  0  0  0  0  0
   28.1421  -21.3334  -11.8518 C   0  0  0  0  0  0  0  0  0  0  0  0
   26.7050  -21.0471  -11.6504 C   0  0  2  0  0  0  0  0  0  0  0  0
   26.0493  -22.0248  -10.6877 C   0  0  0  0  0  0  0  0  0  0  0  0
   25.8745  -20.5962  -12.7763 C   0  0  2  0  0  0  0  0  0  0  0  0
   26.6624  -19.5233  -13.4479 N   0  0  0  0  0  0  0  0  0  0  0  0
   24.5147  -20.1405  -12.5620 C   0  0  0  0  0  0  0  0  0  0  0  0
   24.2470  -19.0467  -11.9550 O   0  0  0  0  0  0  0  0  0  0  0  0
   17.0157  -16.3975  -14.1544 O   0  0  0  0  0  0  0  0  0  0  0  0
   18.2553  -17.0413  -14.0709 C   0  0  0  0  0  0  0  0  0  0  0  0
   19.0770  -16.8476  -12.9819 C   0  0  0  0  0  0  0  0  0  0  0  0
   20.2995  -17.4732  -12.8840 C   0  0  0  0  0  0  0  0  0  0  0  0
   20.7443  -18.3151  -13.8716 C   0  0  0  0  0  0  0  0  0  0  0  0
   22.0430  -18.9846  -13.8041 C   0  0  0  0  0  0  0  0  0  0  0  0
   22.0332  -20.2498  -12.9326 C   0  0  2  0  0  0  0  0  0  0  0  0
   23.3696  -20.8472  -13.0087 N   0  0  0  0  0  0  0  0  0  0  0  0
   21.0521  -21.1839  -13.4584 C   0  0  0  0  0  0  0  0  0  0  0  0
   19.9079  -21.2518  -12.9445 O   0  0  0  0  0  0  0  0  0  0  0  0
   19.9186  -18.5106  -14.9679 C   0  0  0  0  0  0  0  0  0  0  0  0
   18.6952  -17.8851  -15.0666 C   0  0  0  0  0  0  0  0  0  0  0  0
   21.3371  -22.0084  -14.5179 O   0  0  0  0  0  0  0  0  0  0  0  0
  1  2  1  0
  2  3  1  0
  3 10  1  0
  3  4  2  0
  6  5  1  0
  7  8  1  6
  7  6  1  0
  9  7  1  0
  9 10  1  1
 11 12  2  0
 11  9  1  0
 14 13  1  0
 14 24  2  0
 15 14  1  0
 16 15  2  0
 16 17  1  0
 17 23  2  0
 18 17  1  0
 19 18  1  6
 19 20  1  0
 20 11  1  0
 21 19  1  0
 21 25  1  0
 22 21  2  0
 23 24  1  0
M  END
$$$$
