GIY.pdb
     RDKit          3D

 25 25  0  0  1  0  0  0  0  0999 V2000
   17.8638  -20.6830  -15.2361 N   0  0  0  0  0  0  0  0  0  0  0  0
   18.4375  -20.3129  -16.5015 C   0  0  0  0  0  0  0  0  0  0  0  0
   19.3936  -19.1552  -16.3028 C   0  0  0  0  0  0  0  0  0  0  0  0
   19.6612  -18.7436  -15.1531 O   0  0  0  0  0  0  0  0  0  0  0  0
   24.1118  -19.3769  -18.1831 C   0  0  0  0  0  0  0  0  0  0  0  0
   22.8718  -19.0232  -17.4263 C   0  0  0  0  0  0  0  0  0  0  0  0
   22.1946  -17.7681  -17.8190 C   0  0  2  0  0  0  0  0  0  0  0  0
   23.1782  -16.6431  -18.1005 C   0  0  0  0  0  0  0  0  0  0  0  0
   20.9324  -17.3750  -17.1763 C   0  0  2  0  0  0  0  0  0  0  0  0
   20.0005  -18.5178  -17.3960 N   0  0  0  0  0  0  0  0  0  0  0  0
   20.2726  -16.1332  -17.5303 C   0  0  0  0  0  0  0  0  0  0  0  0
   19.7202  -15.9523  -18.6699 O   0  0  0  0  0  0  0  0  0  0  0  0
   16.7721   -7.9583  -16.8481 O   0  0  0  0  0  0  0  0  0  0  0  0
   17.3613   -9.2020  -16.5952 C   0  0  0  0  0  0  0  0  0  0  0  0
   16.5879  -10.3363  -16.4776 C   0  0  0  0  0  0  0  0  0  0  0  0
   17.1516  -11.5676  -16.2291 C   0  0  0  0  0  0  0  0  0  0  0  0
   18.5090  -11.7089  -16.0892 C   0  0  0  0  0  0  0  0  0  0  0  0
   19.1377  -13.0001  -15.8119 C   0  0  0  0  0  0  0  0  0  0  0  0
   19.5091  -13.7834  -17.0804 C   0  0  2  0  0  0  0  0  0  0  0  0
   20.1678  -15.0220  -16.6559 N   0  0  0  0  0  0  0  0  0  0  0  0
   20.4299  -12.9912  -17.8779 C   0  0  0  0  0  0  0  0  0  0  0  0
   21.6487  -12.9484  -17.5766 O   0  0  0  0  0  0  0  0  0  0  0  0
   19.2881  -10.5684  -16.2071 C   0  0  0  0  0  0  0  0  0  0  0  0
   18.7250   -9.3360  -16.4559 C   0  0  0  0  0  0  0  0  0  0  0  0
   20.0066  -12.2764  -18.9704 O   0  0  0  0  0  0  0  0  0  0  0  0
  1  2  1  0
  2  3  1  0
  3 10  1  0
  3  4  2  0
  6  5  1  0
  7  8  1  1
  7  6  1  0
  9  7  1  0
  9 10  1  6
 11 12  2  0
 11  9  1  0
 14 13  1  0
 14 24  2  0
 15 14  1  0
 16 15  2  0
 16 17  1  0
 17 23  2  0
 18 17  1  0
 19 18  1  1
 19 20  1  0
 20 11  1  0
 21 19  1  0
 21 25  1  0
 22 21  2  0
 23 24  1  0
M  END
$$$$
