GIY.pdb
     RDKit          3D

 25 25  0  0  1  0  0  0  0  0999 V2000
   28.2009  -21.8723  -16.3838 N   0  0  0  0  0  0  0  0  0  0  0  0
   27.9289  -20.7927  -15.4739 C   0  0  0  0  0  0  0  0  0  0  0  0
   26.9979  -21.2760  -14.3814 C   0  0  0  0  0  0  0  0  0  0  0  0
   26.4631  -22.4035  -14.4564 O   0  0  0  0  0  0  0  0  0  0  0  0
   28.2592  -20.9104   -9.3786 C   0  0  0  0  0  0  0  0  0  0  0  0
   27.6369  -21.2841  -10.6857 C   0  0  0  0  0  0  0  0  0  0  0  0
   26.2922  -20.7314  -10.9583 C   0  0  2  0  0  0  0  0  0  0  0  0
   25.3591  -20.8637   -9.7648 C   0  0  0  0  0  0  0  0  0  0  0  0
   25.6749  -20.9031  -12.2812 C   0  0  2  0  0  0  0  0  0  0  0  0
   26.7125  -20.4770  -13.2634 N   0  0  0  0  0  0  0  0  0  0  0  0
   24.4114  -20.2673  -12.6007 C   0  0  0  0  0  0  0  0  0  0  0  0
   24.2674  -18.9963  -12.6088 O   0  0  0  0  0  0  0  0  0  0  0  0
   17.8854  -17.5415  -17.5161 O   0  0  0  0  0  0  0  0  0  0  0  0
   18.9834  -18.1115  -16.8624 C   0  0  0  0  0  0  0  0  0  0  0  0
   19.8554  -17.3283  -16.1378 C   0  0  0  0  0  0  0  0  0  0  0  0
   20.9404  -17.8730  -15.4886 C   0  0  0  0  0  0  0  0  0  0  0  0
   21.1926  -19.2205  -15.5406 C   0  0  0  0  0  0  0  0  0  0  0  0
   22.3434  -19.8285  -14.8732 C   0  0  0  0  0  0  0  0  0  0  0  0
   22.0440  -20.2894  -13.4385 C   0  0  2  0  0  0  0  0  0  0  0  0
   23.2357  -20.9830  -12.9412 N   0  0  0  0  0  0  0  0  0  0  0  0
   20.9186  -21.2085  -13.4577 C   0  0  0  0  0  0  0  0  0  0  0  0
   19.7583  -20.7893  -13.2210 O   0  0  0  0  0  0  0  0  0  0  0  0
   20.3162  -20.0095  -16.2695 C   0  0  0  0  0  0  0  0  0  0  0  0
   19.2302  -19.4653  -16.9194 C   0  0  0  0  0  0  0  0  0  0  0  0
   21.0824  -22.5432  -13.7322 O   0  0  0  0  0  0  0  0  0  0  0  0
  1  2  1  0
  2  3  1  0
  3 10  1  0
  3  4  2  0
  6  5  1  0
  7  8  1  1
  7  6  1  0
  9  7  1  0
  9 10  1  6
 11 12  2  0
 11  9  1  0
 14 13  1  0
 14 24  2  0
 15 14  1  0
 16 15  2  0
 16 17  1  0
 17 23  2  0
 18 17  1  0
 19 18  1  6
 19 20  1  0
 20 11  1  0
 21 19  1  0
 21 25  1  0
 22 21  2  0
 23 24  1  0
M  END
$$$$
