GIY.pdb
     RDKit          3D

 25 25  0  0  1  0  0  0  0  0999 V2000
   27.7356  -18.3103  -16.9320 N   0  0  0  0  0  0  0  0  0  0  0  0
   27.4623  -17.9799  -15.5595 C   0  0  0  0  0  0  0  0  0  0  0  0
   26.9720  -19.2141  -14.8314 C   0  0  0  0  0  0  0  0  0  0  0  0
   26.7450  -20.2720  -15.4576 O   0  0  0  0  0  0  0  0  0  0  0  0
   29.6231  -21.1415  -11.0539 C   0  0  0  0  0  0  0  0  0  0  0  0
   28.6473  -20.8808  -12.1562 C   0  0  0  0  0  0  0  0  0  0  0  0
   27.2219  -20.7972  -11.7697 C   0  0  2  0  0  0  0  0  0  0  0  0
   26.8195  -21.8977  -10.8006 C   0  0  0  0  0  0  0  0  0  0  0  0
   26.2076  -20.4072  -12.7595 C   0  0  2  0  0  0  0  0  0  0  0  0
   26.7607  -19.2036  -13.4439 N   0  0  0  0  0  0  0  0  0  0  0  0
   24.8370  -20.1534  -12.3597 C   0  0  0  0  0  0  0  0  0  0  0  0
   24.5197  -19.1969  -11.5718 O   0  0  0  0  0  0  0  0  0  0  0  0
   22.0671  -19.4749  -18.7930 O   0  0  0  0  0  0  0  0  0  0  0  0
   22.0677  -19.4124  -17.3951 C   0  0  0  0  0  0  0  0  0  0  0  0
   20.9681  -19.8205  -16.6720 C   0  0  0  0  0  0  0  0  0  0  0  0
   20.9522  -19.7657  -15.2964 C   0  0  0  0  0  0  0  0  0  0  0  0
   22.0353  -19.3008  -14.5944 C   0  0  0  0  0  0  0  0  0  0  0  0
   22.0454  -19.2175  -13.1341 C   0  0  0  0  0  0  0  0  0  0  0  0
   22.3597  -20.5560  -12.4484 C   0  0  2  0  0  0  0  0  0  0  0  0
   23.7329  -20.9224  -12.8068 N   0  0  0  0  0  0  0  0  0  0  0  0
   21.4418  -21.5704  -12.9384 C   0  0  0  0  0  0  0  0  0  0  0  0
   21.8770  -22.5528  -13.5891 O   0  0  0  0  0  0  0  0  0  0  0  0
   23.1421  -18.8897  -15.3209 C   0  0  0  0  0  0  0  0  0  0  0  0
   23.1590  -18.9442  -16.6973 C   0  0  0  0  0  0  0  0  0  0  0  0
   20.0909  -21.4915  -12.7092 O   0  0  0  0  0  0  0  0  0  0  0  0
  1  2  1  0
  2  3  1  0
  3 10  1  0
  3  4  2  0
  6  5  1  0
  7  8  1  6
  7  6  1  0
  9  7  1  0
  9 10  1  1
 11 12  2  0
 11  9  1  0
 14 13  1  0
 14 24  2  0
 15 14  1  0
 16 15  2  0
 16 17  1  0
 17 23  2  0
 18 17  1  0
 19 18  1  6
 19 20  1  0
 20 11  1  0
 21 19  1  0
 21 25  1  0
 22 21  2  0
 23 24  1  0
M  END
$$$$
