GIY.pdb
     RDKit          3D

 25 25  0  0  1  0  0  0  0  0999 V2000
   22.3004  -19.1984  -16.3744 N   0  0  0  0  0  0  0  0  0  0  0  0
   22.0035  -18.8758  -15.0050 C   0  0  0  0  0  0  0  0  0  0  0  0
   22.3480  -20.0571  -14.1221 C   0  0  0  0  0  0  0  0  0  0  0  0
   22.7494  -21.1291  -14.6248 O   0  0  0  0  0  0  0  0  0  0  0  0
   26.1259  -20.0445  -10.9146 C   0  0  0  0  0  0  0  0  0  0  0  0
   24.9657  -20.3984  -11.7888 C   0  0  0  0  0  0  0  0  0  0  0  0
   23.7213  -20.8059  -11.1008 C   0  0  2  0  0  0  0  0  0  0  0  0
   23.9926  -21.6475   -9.8637 C   0  0  0  0  0  0  0  0  0  0  0  0
   22.5294  -21.1708  -11.8799 C   0  0  2  0  0  0  0  0  0  0  0  0
   22.2267  -19.9810  -12.7259 N   0  0  0  0  0  0  0  0  0  0  0  0
   21.3187  -21.6205  -11.2207 C   0  0  0  0  0  0  0  0  0  0  0  0
   20.4527  -20.8055  -10.7494 O   0  0  0  0  0  0  0  0  0  0  0  0
   15.5002  -24.3718   -5.6306 O   0  0  0  0  0  0  0  0  0  0  0  0
   16.5397  -23.9522   -6.4681 C   0  0  0  0  0  0  0  0  0  0  0  0
   17.8368  -24.3548   -6.2357 C   0  0  0  0  0  0  0  0  0  0  0  0
   18.8711  -23.9513   -7.0499 C   0  0  0  0  0  0  0  0  0  0  0  0
   18.6456  -23.1307   -8.1258 C   0  0  0  0  0  0  0  0  0  0  0  0
   19.7238  -22.6736   -9.0021 C   0  0  0  0  0  0  0  0  0  0  0  0
   19.7420  -23.3790  -10.3669 C   0  0  2  0  0  0  0  0  0  0  0  0
   20.9785  -22.9863  -11.0489 N   0  0  0  0  0  0  0  0  0  0  0  0
   18.5963  -22.9406  -11.1459 C   0  0  0  0  0  0  0  0  0  0  0  0
   18.5859  -21.7953  -11.6617 O   0  0  0  0  0  0  0  0  0  0  0  0
   17.3410  -22.7248   -8.3606 C   0  0  0  0  0  0  0  0  0  0  0  0
   16.3054  -23.1281   -7.5465 C   0  0  0  0  0  0  0  0  0  0  0  0
   17.5059  -23.7504  -11.3427 O   0  0  0  0  0  0  0  0  0  0  0  0
  1  2  1  0
  2  3  1  0
  3 10  1  0
  3  4  2  0
  6  5  1  0
  7  8  1  6
  7  6  1  0
  9  7  1  0
  9 10  1  1
 11 12  2  0
 11  9  1  0
 14 13  1  0
 14 24  2  0
 15 14  1  0
 16 15  2  0
 16 17  1  0
 17 23  2  0
 18 17  1  0
 19 18  1  1
 19 20  1  0
 20 11  1  0
 21 19  1  0
 21 25  1  0
 22 21  2  0
 23 24  1  0
M  END
$$$$
