GIY.pdb
     RDKit          3D

 25 25  0  0  1  0  0  0  0  0999 V2000
   22.0483  -14.0836  -18.8519 N   0  0  0  0  0  0  0  0  0  0  0  0
   23.1047  -13.1328  -19.0699 C   0  0  0  0  0  0  0  0  0  0  0  0
   23.4637  -12.4677  -17.7575 C   0  0  0  0  0  0  0  0  0  0  0  0
   22.7764  -12.6727  -16.7335 O   0  0  0  0  0  0  0  0  0  0  0  0
   28.0604  -12.7803  -15.4731 C   0  0  0  0  0  0  0  0  0  0  0  0
   26.6286  -12.5609  -15.8434 C   0  0  0  0  0  0  0  0  0  0  0  0
   26.1992  -11.1559  -16.0149 C   0  0  2  0  0  0  0  0  0  0  0  0
   26.8297  -10.2285  -14.9878 C   0  0  0  0  0  0  0  0  0  0  0  0
   24.8147  -10.8460  -16.3991 C   0  0  2  0  0  0  0  0  0  0  0  0
   24.5696  -11.6095  -17.6560 N   0  0  0  0  0  0  0  0  0  0  0  0
   24.3797   -9.4733  -16.5703 C   0  0  0  0  0  0  0  0  0  0  0  0
   24.9973   -8.6491  -17.3290 O   0  0  0  0  0  0  0  0  0  0  0  0
   17.3899  -10.9221  -17.1226 O   0  0  0  0  0  0  0  0  0  0  0  0
   18.5201  -10.1019  -17.2112 C   0  0  0  0  0  0  0  0  0  0  0  0
   18.5309   -8.8532  -16.6288 C   0  0  0  0  0  0  0  0  0  0  0  0
   19.6345   -8.0337  -16.7064 C   0  0  0  0  0  0  0  0  0  0  0  0
   20.7672   -8.4335  -17.3692 C   0  0  0  0  0  0  0  0  0  0  0  0
   21.9511   -7.5819  -17.4810 C   0  0  0  0  0  0  0  0  0  0  0  0
   22.8045   -7.5520  -16.2038 C   0  0  2  0  0  0  0  0  0  0  0  0
   23.2383   -8.9254  -15.9319 N   0  0  0  0  0  0  0  0  0  0  0  0
   21.9930   -7.0703  -15.0988 C   0  0  0  0  0  0  0  0  0  0  0  0
   21.7227   -7.8314  -14.1367 O   0  0  0  0  0  0  0  0  0  0  0  0
   20.7575   -9.6895  -17.9558 C   0  0  0  0  0  0  0  0  0  0  0  0
   19.6537  -10.5102  -17.8785 C   0  0  0  0  0  0  0  0  0  0  0  0
   21.5039   -5.7883  -15.0687 O   0  0  0  0  0  0  0  0  0  0  0  0
  1  2  1  0
  2  3  1  0
  3 10  1  0
  3  4  2  0
  6  5  1  0
  7  8  1  1
  7  6  1  0
  9  7  1  0
  9 10  1  6
 11 12  2  0
 11  9  1  0
 14 13  1  0
 14 24  2  0
 15 14  1  0
 16 15  2  0
 16 17  1  0
 17 23  2  0
 18 17  1  0
 19 18  1  6
 19 20  1  0
 20 11  1  0
 21 19  1  0
 21 25  1  0
 22 21  2  0
 23 24  1  0
M  END
$$$$
