GIY.pdb
     RDKit          3D

 25 25  0  0  1  0  0  0  0  0999 V2000
   23.8546  -13.8590  -18.7263 N   0  0  0  0  0  0  0  0  0  0  0  0
   25.2039  -14.1033  -18.2936 C   0  0  0  0  0  0  0  0  0  0  0  0
   25.5062  -15.5838  -18.3958 C   0  0  0  0  0  0  0  0  0  0  0  0
   24.5894  -16.4050  -18.6147 O   0  0  0  0  0  0  0  0  0  0  0  0
   29.0448  -17.4652  -21.6307 C   0  0  0  0  0  0  0  0  0  0  0  0
   27.8979  -17.2973  -20.6864 C   0  0  0  0  0  0  0  0  0  0  0  0
   28.1239  -17.7303  -19.2902 C   0  0  2  0  0  0  0  0  0  0  0  0
   28.9008  -19.0349  -19.2073 C   0  0  0  0  0  0  0  0  0  0  0  0
   27.0773  -17.5378  -18.2762 C   0  0  2  0  0  0  0  0  0  0  0  0
   26.8145  -16.0704  -18.2485 N   0  0  0  0  0  0  0  0  0  0  0  0
   27.2542  -18.0266  -16.9225 C   0  0  0  0  0  0  0  0  0  0  0  0
   28.0078  -17.4357  -16.0743 O   0  0  0  0  0  0  0  0  0  0  0  0
   25.5446  -20.9801   -8.8890 O   0  0  0  0  0  0  0  0  0  0  0  0
   25.6159  -20.4562  -10.1845 C   0  0  0  0  0  0  0  0  0  0  0  0
   24.7545  -20.8913  -11.1680 C   0  0  0  0  0  0  0  0  0  0  0  0
   24.8111  -20.3862  -12.4476 C   0  0  0  0  0  0  0  0  0  0  0  0
   25.7311  -19.4278  -12.7897 C   0  0  0  0  0  0  0  0  0  0  0  0
   25.8259  -18.8804  -14.1428 C   0  0  0  0  0  0  0  0  0  0  0  0
   26.8291  -19.6276  -15.0348 C   0  0  2  0  0  0  0  0  0  0  0  0
   26.6088  -19.1821  -16.4138 N   0  0  0  0  0  0  0  0  0  0  0  0
   26.5807  -21.0561  -14.9395 C   0  0  0  0  0  0  0  0  0  0  0  0
   25.6747  -21.5858  -15.6299 O   0  0  0  0  0  0  0  0  0  0  0  0
   26.5984  -18.9894  -11.8011 C   0  0  0  0  0  0  0  0  0  0  0  0
   26.5425  -19.4941  -10.5205 C   0  0  0  0  0  0  0  0  0  0  0  0
   27.3166  -21.8619  -14.1072 O   0  0  0  0  0  0  0  0  0  0  0  0
  1  2  1  0
  2  3  1  0
  3 10  1  0
  3  4  2  0
  6  5  1  0
  7  8  1  6
  7  6  1  0
  9  7  1  0
  9 10  1  1
 11 12  2  0
 11  9  1  0
 14 13  1  0
 14 24  2  0
 15 14  1  0
 16 15  2  0
 16 17  1  0
 17 23  2  0
 18 17  1  0
 19 18  1  1
 19 20  1  0
 20 11  1  0
 21 19  1  0
 21 25  1  0
 22 21  2  0
 23 24  1  0
M  END
$$$$
