GIY.pdb
     RDKit          3D

 25 25  0  0  1  0  0  0  0  0999 V2000
   20.0426  -26.1644  -15.5000 N   0  0  0  0  0  0  0  0  0  0  0  0
   20.2001  -25.8185  -14.1132 C   0  0  0  0  0  0  0  0  0  0  0  0
   19.4275  -26.8006  -13.2574 C   0  0  0  0  0  0  0  0  0  0  0  0
   18.5162  -27.4964  -13.7556 O   0  0  0  0  0  0  0  0  0  0  0  0
   21.9205  -30.3490  -10.4736 C   0  0  0  0  0  0  0  0  0  0  0  0
   20.9458  -29.4992  -11.2240 C   0  0  0  0  0  0  0  0  0  0  0  0
   19.9397  -28.7776  -10.4147 C   0  0  2  0  0  0  0  0  0  0  0  0
   19.4494  -29.5997   -9.2331 C   0  0  0  0  0  0  0  0  0  0  0  0
   18.9356  -27.9258  -11.0682 C   0  0  2  0  0  0  0  0  0  0  0  0
   19.7118  -26.9550  -11.8916 N   0  0  0  0  0  0  0  0  0  0  0  0
   17.9404  -27.2165  -10.2878 C   0  0  0  0  0  0  0  0  0  0  0  0
   18.2546  -26.3287   -9.4220 O   0  0  0  0  0  0  0  0  0  0  0  0
   17.5368  -21.8004  -13.3125 O   0  0  0  0  0  0  0  0  0  0  0  0
   16.8336  -22.8037  -12.6365 C   0  0  0  0  0  0  0  0  0  0  0  0
   16.6960  -22.7653  -11.2660 C   0  0  0  0  0  0  0  0  0  0  0  0
   16.0074  -23.7441  -10.5854 C   0  0  0  0  0  0  0  0  0  0  0  0
   15.4316  -24.7966  -11.2508 C   0  0  0  0  0  0  0  0  0  0  0  0
   14.7049  -25.8592  -10.5564 C   0  0  0  0  0  0  0  0  0  0  0  0
   15.5861  -26.6771   -9.5997 C   0  0  2  0  0  0  0  0  0  0  0  0
   16.5442  -27.4274  -10.4167 N   0  0  0  0  0  0  0  0  0  0  0  0
   14.7501  -27.6041   -8.8558 C   0  0  0  0  0  0  0  0  0  0  0  0
   14.9227  -28.8427   -8.9742 O   0  0  0  0  0  0  0  0  0  0  0  0
   15.5695  -24.8365  -12.6297 C   0  0  0  0  0  0  0  0  0  0  0  0
   16.2583  -23.8574  -13.3115 C   0  0  0  0  0  0  0  0  0  0  0  0
   13.7614  -27.1649   -8.0114 O   0  0  0  0  0  0  0  0  0  0  0  0
  1  2  1  0
  2  3  1  0
  3 10  1  0
  3  4  2  0
  6  5  1  0
  7  8  1  6
  7  6  1  0
  9  7  1  0
  9 10  1  1
 11 12  2  0
 11  9  1  0
 14 13  1  0
 14 24  2  0
 15 14  1  0
 16 15  2  0
 16 17  1  0
 17 23  2  0
 18 17  1  0
 19 18  1  6
 19 20  1  0
 20 11  1  0
 21 19  1  0
 21 25  1  0
 22 21  2  0
 23 24  1  0
M  END
$$$$
