GIY.pdb
     RDKit          3D

 25 25  0  0  1  0  0  0  0  0999 V2000
   29.2331  -19.7871  -17.4025 N   0  0  0  0  0  0  0  0  0  0  0  0
   28.5758  -19.0740  -16.3409 C   0  0  0  0  0  0  0  0  0  0  0  0
   27.9609  -20.0638  -15.3734 C   0  0  0  0  0  0  0  0  0  0  0  0
   27.8541  -21.2704  -15.6824 O   0  0  0  0  0  0  0  0  0  0  0  0
   29.8958  -20.6156  -10.8258 C   0  0  0  0  0  0  0  0  0  0  0  0
   29.1292  -20.7327  -12.1041 C   0  0  0  0  0  0  0  0  0  0  0  0
   27.6548  -20.6814  -11.9964 C   0  0  2  0  0  0  0  0  0  0  0  0
   27.1269  -21.5448  -10.8614 C   0  0  0  0  0  0  0  0  0  0  0  0
   26.8247  -20.6320  -13.2085 C   0  0  2  0  0  0  0  0  0  0  0  0
   27.4977  -19.6561  -14.1128 N   0  0  0  0  0  0  0  0  0  0  0  0
   25.4094  -20.3265  -13.1289 C   0  0  0  0  0  0  0  0  0  0  0  0
   24.9696  -19.1261  -13.0847 O   0  0  0  0  0  0  0  0  0  0  0  0
   23.4053  -21.8089   -6.6210 O   0  0  0  0  0  0  0  0  0  0  0  0
   23.2801  -21.3190   -7.9258 C   0  0  0  0  0  0  0  0  0  0  0  0
   22.1491  -21.5777   -8.6691 C   0  0  0  0  0  0  0  0  0  0  0  0
   22.0098  -21.1033   -9.9540 C   0  0  0  0  0  0  0  0  0  0  0  0
   22.9965  -20.3529  -10.5419 C   0  0  0  0  0  0  0  0  0  0  0  0
   22.8850  -19.8452  -11.9091 C   0  0  0  0  0  0  0  0  0  0  0  0
   22.9799  -20.9445  -12.9782 C   0  0  2  0  0  0  0  0  0  0  0  0
   24.3926  -21.3143  -13.1051 N   0  0  0  0  0  0  0  0  0  0  0  0
   22.4984  -20.4207  -14.2452 C   0  0  0  0  0  0  0  0  0  0  0  0
   21.3178  -20.6437  -14.6117 O   0  0  0  0  0  0  0  0  0  0  0  0
   24.1349  -20.0921   -9.7951 C   0  0  0  0  0  0  0  0  0  0  0  0
   24.2752  -20.5664   -8.5093 C   0  0  0  0  0  0  0  0  0  0  0  0
   23.3034  -19.6753  -15.0699 O   0  0  0  0  0  0  0  0  0  0  0  0
  1  2  1  0
  2  3  1  0
  3 10  1  0
  3  4  2  0
  6  5  1  0
  7  8  1  6
  7  6  1  0
  9  7  1  0
  9 10  1  6
 11 12  2  0
 11  9  1  0
 14 13  1  0
 14 24  2  0
 15 14  1  0
 16 15  2  0
 16 17  1  0
 17 23  2  0
 18 17  1  0
 19 18  1  1
 19 20  1  0
 20 11  1  0
 21 19  1  0
 21 25  1  0
 22 21  2  0
 23 24  1  0
M  END
$$$$
