LNA.pdb
     RDKit          3D

 22 21  0  0  1  0  0  0  0  0999 V2000
   26.9739  -18.4826   -6.2849 C   0  0  0  0  0  0  0  0  0  0  0  0
   27.0069  -20.0050   -6.1723 C   0  0  2  0  0  0  0  0  0  0  0  0
   28.0171  -20.4241   -5.1218 C   0  0  0  0  0  0  0  0  0  0  0  0
   27.3575  -20.6082   -7.5089 C   0  0  0  0  0  0  0  0  0  0  0  0
   26.3823  -20.1544   -8.5322 C   0  0  2  0  0  0  0  0  0  0  0  0
   25.0072  -20.2906   -8.1785 N   0  0  0  0  0  0  0  0  0  0  0  0
   26.5656  -20.8281   -9.8508 C   0  0  0  0  0  0  0  0  0  0  0  0
   27.6593  -21.3168  -10.2155 O   0  0  0  0  0  0  0  0  0  0  0  0
   24.8864  -24.2332  -13.5832 N   0  0  0  0  0  0  0  0  0  0  0  0
   24.0922  -23.0795  -13.4154 C   0  0  0  0  0  0  0  0  0  0  0  0
   23.3414  -22.7455  -14.3687 O   0  0  0  0  0  0  0  0  0  0  0  0
   24.1943  -22.3492  -12.1459 C   0  0  0  0  0  0  0  0  0  0  0  0
   25.4974  -21.5585  -12.0260 C   0  0  2  0  0  0  0  0  0  0  0  0
   25.4773  -20.9249  -10.7271 N   0  0  0  0  0  0  0  0  0  0  0  0
   25.4208  -20.4866  -13.0375 C   0  0  0  0  0  0  0  0  0  0  0  0
   24.6752  -19.5007  -12.8144 O   0  0  0  0  0  0  0  0  0  0  0  0
   27.3508  -18.9666  -15.7316 C   0  0  0  0  0  0  0  0  0  0  0  0
   26.0213  -19.3684  -15.1324 C   0  0  2  0  0  0  0  0  0  0  0  0
   26.1461  -20.5076  -14.2548 N   0  0  0  0  0  0  0  0  0  0  0  0
   25.0196  -19.6871  -16.1803 C   0  0  0  0  0  0  0  0  0  0  0  0
   24.7049  -20.8649  -16.4825 O   0  0  0  0  0  0  0  0  0  0  0  0
   24.3895  -18.6626  -16.8701 O   0  0  0  0  0  0  0  0  0  0  0  0
  2  1  1  6
  2  3  1  0
  4  2  1  0
  4  5  1  0
  5  7  1  0
  5  6  1  1
  7  8  2  0
  7 14  1  0
  9 10  1  0
 10 12  1  0
 10 11  2  0
 13 15  1  0
 13 12  1  1
 14 13  1  0
 15 16  2  0
 18 17  1  6
 19 18  1  0
 19 15  1  0
 20 22  1  0
 20 18  1  0
 21 20  2  0
M  END
$$$$
