LNA.pdb
     RDKit          3D

 22 21  0  0  1  0  0  0  0  0999 V2000
   22.0720  -15.4370  -20.2223 C   0  0  0  0  0  0  0  0  0  0  0  0
   23.3938  -15.4415  -19.4579 C   0  0  2  0  0  0  0  0  0  0  0  0
   23.8119  -16.8678  -19.1563 C   0  0  0  0  0  0  0  0  0  0  0  0
   23.2470  -14.6555  -18.1797 C   0  0  0  0  0  0  0  0  0  0  0  0
   22.8013  -13.2741  -18.4919 C   0  0  2  0  0  0  0  0  0  0  0  0
   23.6082  -12.5613  -19.4275 N   0  0  0  0  0  0  0  0  0  0  0  0
   22.6725  -12.4154  -17.2787 C   0  0  0  0  0  0  0  0  0  0  0  0
   22.0711  -12.7882  -16.2456 O   0  0  0  0  0  0  0  0  0  0  0  0
   26.9028  -10.6506  -15.2773 N   0  0  0  0  0  0  0  0  0  0  0  0
   25.5191  -10.4912  -15.0539 C   0  0  0  0  0  0  0  0  0  0  0  0
   25.0354  -10.9997  -14.0092 O   0  0  0  0  0  0  0  0  0  0  0  0
   24.7398   -9.7462  -16.0505 C   0  0  0  0  0  0  0  0  0  0  0  0
   23.2950  -10.2359  -16.1524 C   0  0  2  0  0  0  0  0  0  0  0  0
   23.2435  -11.1364  -17.2818 N   0  0  0  0  0  0  0  0  0  0  0  0
   22.4846   -9.0521  -16.4987 C   0  0  0  0  0  0  0  0  0  0  0  0
   22.6863   -8.4864  -17.6018 O   0  0  0  0  0  0  0  0  0  0  0  0
   19.2591   -7.6751  -16.2410 C   0  0  0  0  0  0  0  0  0  0  0  0
   20.7375   -7.3757  -16.1287 C   0  0  2  0  0  0  0  0  0  0  0  0
   21.4848   -8.5143  -15.6505 N   0  0  0  0  0  0  0  0  0  0  0  0
   20.9990   -6.2265  -15.2264 C   0  0  0  0  0  0  0  0  0  0  0  0
   21.5638   -6.3537  -14.1118 O   0  0  0  0  0  0  0  0  0  0  0  0
   20.6148   -4.9488  -15.6036 O   0  0  0  0  0  0  0  0  0  0  0  0
  2  1  1  1
  2  3  1  0
  4  2  1  0
  4  5  1  0
  5  7  1  0
  5  6  1  6
  7  8  2  0
  7 14  1  0
  9 10  1  0
 10 12  1  0
 10 11  2  0
 13 15  1  0
 13 12  1  6
 14 13  1  0
 15 16  2  0
 18 17  1  1
 19 18  1  0
 19 15  1  0
 20 22  1  0
 20 18  1  0
 21 20  2  0
M  END
$$$$
