LNA.pdb
     RDKit          3D

 22 21  0  0  1  0  0  0  0  0999 V2000
   25.6901  -12.2355  -18.1600 C   0  0  0  0  0  0  0  0  0  0  0  0
   24.6622  -13.1184  -17.4561 C   0  0  2  0  0  0  0  0  0  0  0  0
   25.0192  -14.5800  -17.6463 C   0  0  0  0  0  0  0  0  0  0  0  0
   23.2865  -12.8375  -18.0055 C   0  0  0  0  0  0  0  0  0  0  0  0
   22.9496  -11.4064  -17.7994 C   0  0  2  0  0  0  0  0  0  0  0  0
   23.0563  -10.9336  -16.4579 N   0  0  0  0  0  0  0  0  0  0  0  0
   21.5824  -11.0545  -18.2819 C   0  0  0  0  0  0  0  0  0  0  0  0
   21.1714  -11.3496  -19.4273 O   0  0  0  0  0  0  0  0  0  0  0  0
   16.8915  -10.4371  -18.7905 N   0  0  0  0  0  0  0  0  0  0  0  0
   17.1296  -11.0368  -17.5360 C   0  0  0  0  0  0  0  0  0  0  0  0
   16.2096  -11.7393  -17.0422 O   0  0  0  0  0  0  0  0  0  0  0  0
   18.4289  -10.8023  -16.8938 C   0  0  0  0  0  0  0  0  0  0  0  0
   19.3652   -9.9536  -17.7545 C   0  0  2  0  0  0  0  0  0  0  0  0
   20.7117  -10.3654  -17.4282 N   0  0  0  0  0  0  0  0  0  0  0  0
   19.2061   -8.5637  -17.2848 C   0  0  0  0  0  0  0  0  0  0  0  0
   19.4757   -8.2985  -16.0870 O   0  0  0  0  0  0  0  0  0  0  0  0
   17.4773   -6.3734  -16.3616 C   0  0  0  0  0  0  0  0  0  0  0  0
   18.4744   -6.2352  -17.4906 C   0  0  2  0  0  0  0  0  0  0  0  0
   18.7633   -7.5041  -18.1151 N   0  0  0  0  0  0  0  0  0  0  0  0
   19.7507   -5.6357  -17.0270 C   0  0  0  0  0  0  0  0  0  0  0  0
   19.8192   -4.4823  -16.5345 O   0  0  0  0  0  0  0  0  0  0  0  0
   20.9312   -6.3555  -17.1298 O   0  0  0  0  0  0  0  0  0  0  0  0
  2  1  1  6
  2  3  1  0
  4  2  1  0
  4  5  1  0
  5  7  1  0
  5  6  1  1
  7  8  2  0
  7 14  1  0
  9 10  1  0
 10 12  1  0
 10 11  2  0
 13 15  1  0
 13 12  1  1
 14 13  1  0
 15 16  2  0
 18 17  1  1
 19 18  1  0
 19 15  1  0
 20 22  1  0
 20 18  1  0
 21 20  2  0
M  END
$$$$
