LNA.pdb
     RDKit          3D

 22 21  0  0  1  0  0  0  0  0999 V2000
   19.1831  -12.9906  -15.0403 C   0  0  0  0  0  0  0  0  0  0  0  0
   19.3093  -12.6125  -16.5143 C   0  0  2  0  0  0  0  0  0  0  0  0
   20.5859  -13.1943  -17.0900 C   0  0  0  0  0  0  0  0  0  0  0  0
   19.3038  -11.1117  -16.6585 C   0  0  0  0  0  0  0  0  0  0  0  0
   17.9987  -10.5714  -16.2015 C   0  0  2  0  0  0  0  0  0  0  0  0
   16.8451  -11.1351  -16.8226 N   0  0  0  0  0  0  0  0  0  0  0  0
   17.8977   -9.0902  -16.3491 C   0  0  0  0  0  0  0  0  0  0  0  0
   17.4393   -8.5415  -17.3772 O   0  0  0  0  0  0  0  0  0  0  0  0
   17.4416   -4.2550  -15.5205 N   0  0  0  0  0  0  0  0  0  0  0  0
   16.8718   -4.9934  -14.4621 C   0  0  0  0  0  0  0  0  0  0  0  0
   15.9960   -4.4241  -13.7601 O   0  0  0  0  0  0  0  0  0  0  0  0
   17.3366   -6.3701  -14.2517 C   0  0  0  0  0  0  0  0  0  0  0  0
   18.3370   -6.8216  -15.3161 C   0  0  2  0  0  0  0  0  0  0  0  0
   18.3300   -8.2669  -15.3017 N   0  0  0  0  0  0  0  0  0  0  0  0
   19.6646   -6.3851  -14.8421 C   0  0  0  0  0  0  0  0  0  0  0  0
   20.3186   -7.1526  -14.0932 O   0  0  0  0  0  0  0  0  0  0  0  0
   21.6241   -5.1072  -13.1598 C   0  0  0  0  0  0  0  0  0  0  0  0
   21.5493   -4.8330  -14.6455 C   0  0  2  0  0  0  0  0  0  0  0  0
   20.2469   -5.1400  -15.1869 N   0  0  0  0  0  0  0  0  0  0  0  0
   22.5681   -5.6056  -15.3993 C   0  0  0  0  0  0  0  0  0  0  0  0
   22.8196   -6.8124  -15.1588 O   0  0  0  0  0  0  0  0  0  0  0  0
   23.2867   -4.9956  -16.4161 O   0  0  0  0  0  0  0  0  0  0  0  0
  2  1  1  1
  2  3  1  0
  4  2  1  0
  4  5  1  0
  5  7  1  0
  5  6  1  6
  7  8  2  0
  7 14  1  0
  9 10  1  0
 10 12  1  0
 10 11  2  0
 13 15  1  0
 13 12  1  1
 14 13  1  0
 15 16  2  0
 18 17  1  1
 19 18  1  0
 19 15  1  0
 20 22  1  0
 20 18  1  0
 21 20  2  0
M  END
$$$$
