LNA.pdb
     RDKit          3D

 22 21  0  0  1  0  0  0  0  0999 V2000
   26.1993  -13.1053  -17.4105 C   0  0  0  0  0  0  0  0  0  0  0  0
   26.6822  -12.2711  -16.2263 C   0  0  2  0  0  0  0  0  0  0  0  0
   27.2799  -13.1757  -15.1660 C   0  0  0  0  0  0  0  0  0  0  0  0
   25.5318  -11.4811  -15.6555 C   0  0  0  0  0  0  0  0  0  0  0  0
   24.9490  -10.6150  -16.7111 C   0  0  2  0  0  0  0  0  0  0  0  0
   25.8587   -9.7194  -17.3474 N   0  0  0  0  0  0  0  0  0  0  0  0
   23.7972   -9.8003  -16.2260 C   0  0  0  0  0  0  0  0  0  0  0  0
   22.8045  -10.3044  -15.6529 O   0  0  0  0  0  0  0  0  0  0  0  0
   21.0588   -5.6563  -14.9617 N   0  0  0  0  0  0  0  0  0  0  0  0
   22.3415   -5.6806  -14.3751 C   0  0  0  0  0  0  0  0  0  0  0  0
   22.5551   -4.9026  -13.4092 O   0  0  0  0  0  0  0  0  0  0  0  0
   23.3366   -6.6076  -14.9284 C   0  0  0  0  0  0  0  0  0  0  0  0
   22.7609   -7.4995  -16.0287 C   0  0  2  0  0  0  0  0  0  0  0  0
   23.8138   -8.4122  -16.4127 N   0  0  0  0  0  0  0  0  0  0  0  0
   22.5061   -6.6146  -17.1819 C   0  0  0  0  0  0  0  0  0  0  0  0
   23.4879   -6.1490  -17.8119 O   0  0  0  0  0  0  0  0  0  0  0  0
   19.7011   -5.5046  -19.4024 C   0  0  0  0  0  0  0  0  0  0  0  0
   21.0965   -5.4615  -18.8199 C   0  0  2  0  0  0  0  0  0  0  0  0
   21.2068   -6.2583  -17.6214 N   0  0  0  0  0  0  0  0  0  0  0  0
   21.5183   -4.0737  -18.5048 C   0  0  0  0  0  0  0  0  0  0  0  0
   21.9835   -3.2926  -19.3713 O   0  0  0  0  0  0  0  0  0  0  0  0
   21.4054   -3.5933  -17.2091 O   0  0  0  0  0  0  0  0  0  0  0  0
  2  1  1  6
  2  3  1  0
  4  2  1  0
  4  5  1  0
  5  7  1  0
  5  6  1  1
  7  8  2  0
  7 14  1  0
  9 10  1  0
 10 12  1  0
 10 11  2  0
 13 15  1  0
 13 12  1  1
 14 13  1  0
 15 16  2  0
 18 17  1  1
 19 18  1  0
 19 15  1  0
 20 22  1  0
 20 18  1  0
 21 20  2  0
M  END
$$$$
