LNA.pdb
     RDKit          3D

 22 21  0  0  1  0  0  0  0  0999 V2000
   18.9559  -14.2828  -18.7868 C   0  0  0  0  0  0  0  0  0  0  0  0
   19.4037  -13.5301  -20.0375 C   0  0  2  0  0  0  0  0  0  0  0  0
   19.8867  -14.5124  -21.0871 C   0  0  0  0  0  0  0  0  0  0  0  0
   20.5005  -12.5583  -19.6830 C   0  0  0  0  0  0  0  0  0  0  0  0
   20.0131  -11.6116  -18.6483 C   0  0  2  0  0  0  0  0  0  0  0  0
   18.7715  -10.9701  -18.9337 N   0  0  0  0  0  0  0  0  0  0  0  0
   20.9993  -10.5384  -18.3298 C   0  0  0  0  0  0  0  0  0  0  0  0
   22.2233  -10.7629  -18.1901 O   0  0  0  0  0  0  0  0  0  0  0  0
   20.8722   -6.9617  -21.4783 N   0  0  0  0  0  0  0  0  0  0  0  0
   21.6255   -7.1579  -20.3019 C   0  0  0  0  0  0  0  0  0  0  0  0
   22.8450   -7.4407  -20.4315 O   0  0  0  0  0  0  0  0  0  0  0  0
   20.9395   -7.0196  -19.0112 C   0  0  0  0  0  0  0  0  0  0  0  0
   21.3946   -8.0617  -17.9892 C   0  0  2  0  0  0  0  0  0  0  0  0
   20.5511   -9.2201  -18.1781 N   0  0  0  0  0  0  0  0  0  0  0  0
   21.0768   -7.5000  -16.6620 C   0  0  0  0  0  0  0  0  0  0  0  0
   19.8765   -7.2572  -16.3829 O   0  0  0  0  0  0  0  0  0  0  0  0
   22.2077   -7.5523  -13.2549 C   0  0  0  0  0  0  0  0  0  0  0  0
   21.6021   -6.7548  -14.3886 C   0  0  2  0  0  0  0  0  0  0  0  0
   22.0568   -7.2174  -15.6782 N   0  0  0  0  0  0  0  0  0  0  0  0
   21.9117   -5.3080  -14.2700 C   0  0  0  0  0  0  0  0  0  0  0  0
   22.6735   -4.7093  -15.0691 O   0  0  0  0  0  0  0  0  0  0  0  0
   21.3508   -4.5619  -13.2447 O   0  0  0  0  0  0  0  0  0  0  0  0
  2  1  1  1
  2  3  1  0
  4  2  1  0
  4  5  1  0
  5  7  1  0
  5  6  1  6
  7  8  2  0
  7 14  1  0
  9 10  1  0
 10 12  1  0
 10 11  2  0
 13 15  1  0
 13 12  1  6
 14 13  1  0
 15 16  2  0
 18 17  1  1
 19 18  1  0
 19 15  1  0
 20 22  1  0
 20 18  1  0
 21 20  2  0
M  END
$$$$
