LNA.pdb
     RDKit          3D

 22 21  0  0  1  0  0  0  0  0999 V2000
   17.5218  -11.3711  -17.1709 C   0  0  0  0  0  0  0  0  0  0  0  0
   17.0628  -11.7554  -15.7663 C   0  0  2  0  0  0  0  0  0  0  0  0
   15.8828  -12.7043  -15.8493 C   0  0  0  0  0  0  0  0  0  0  0  0
   16.6870  -10.5155  -14.9951 C   0  0  0  0  0  0  0  0  0  0  0  0
   17.8543   -9.6011  -14.9211 C   0  0  2  0  0  0  0  0  0  0  0  0
   19.0062  -10.1219  -14.2606 N   0  0  0  0  0  0  0  0  0  0  0  0
   17.5310   -8.2949  -14.2766 C   0  0  0  0  0  0  0  0  0  0  0  0
   16.5718   -7.5780  -14.6424 O   0  0  0  0  0  0  0  0  0  0  0  0
   15.9100   -7.6667  -11.2154 N   0  0  0  0  0  0  0  0  0  0  0  0
   17.0388   -7.5130  -10.3834 C   0  0  0  0  0  0  0  0  0  0  0  0
   16.9156   -7.8267   -9.1709 O   0  0  0  0  0  0  0  0  0  0  0  0
   18.2758   -6.9998  -10.9852 C   0  0  0  0  0  0  0  0  0  0  0  0
   18.1027   -6.6294  -12.4585 C   0  0  2  0  0  0  0  0  0  0  0  0
   18.3256   -7.8395  -13.2168 N   0  0  0  0  0  0  0  0  0  0  0  0
   19.2046   -5.7018  -12.7798 C   0  0  0  0  0  0  0  0  0  0  0  0
   19.2104   -4.5656  -12.2444 O   0  0  0  0  0  0  0  0  0  0  0  0
   22.6501   -5.7119  -14.1287 C   0  0  0  0  0  0  0  0  0  0  0  0
   21.3210   -5.0545  -13.8293 C   0  0  2  0  0  0  0  0  0  0  0  0
   20.2637   -6.0234  -13.6648 N   0  0  0  0  0  0  0  0  0  0  0  0
   20.9261   -4.1013  -14.8963 C   0  0  0  0  0  0  0  0  0  0  0  0
   21.2780   -2.8956  -14.8934 O   0  0  0  0  0  0  0  0  0  0  0  0
   20.1367   -4.5318  -15.9517 O   0  0  0  0  0  0  0  0  0  0  0  0
  2  1  1  6
  2  3  1  0
  4  2  1  0
  4  5  1  0
  5  7  1  0
  5  6  1  1
  7  8  2  0
  7 14  1  0
  9 10  1  0
 10 12  1  0
 10 11  2  0
 13 15  1  0
 13 12  1  1
 14 13  1  0
 15 16  2  0
 18 17  1  6
 19 18  1  0
 19 15  1  0
 20 22  1  0
 20 18  1  0
 21 20  2  0
M  END
$$$$
