LNA.pdb
     RDKit          3D

 22 21  0  0  1  0  0  0  0  0999 V2000
   14.2618   -9.3038  -12.0756 C   0  0  0  0  0  0  0  0  0  0  0  0
   15.3649  -10.2463  -11.5999 C   0  0  2  0  0  0  0  0  0  0  0  0
   15.5911  -10.0678  -10.1110 C   0  0  0  0  0  0  0  0  0  0  0  0
   16.6362   -9.9696  -12.3617 C   0  0  0  0  0  0  0  0  0  0  0  0
   16.4224  -10.2429  -13.8052 C   0  0  2  0  0  0  0  0  0  0  0  0
   16.2993  -11.6184  -14.1619 N   0  0  0  0  0  0  0  0  0  0  0  0
   17.4858   -9.6574  -14.6726 C   0  0  0  0  0  0  0  0  0  0  0  0
   18.4738  -10.3156  -15.0708 O   0  0  0  0  0  0  0  0  0  0  0  0
   19.8101   -6.0056  -17.5337 N   0  0  0  0  0  0  0  0  0  0  0  0
   18.4213   -5.7588  -17.5501 C   0  0  0  0  0  0  0  0  0  0  0  0
   17.9935   -4.8902  -18.3542 O   0  0  0  0  0  0  0  0  0  0  0  0
   17.5721   -6.5282  -16.6324 C   0  0  0  0  0  0  0  0  0  0  0  0
   18.3501   -7.6048  -15.8751 C   0  0  2  0  0  0  0  0  0  0  0  0
   17.3874   -8.3166  -15.0654 N   0  0  0  0  0  0  0  0  0  0  0  0
   19.2519   -6.8867  -14.9536 C   0  0  0  0  0  0  0  0  0  0  0  0
   18.7473   -6.1994  -14.0314 O   0  0  0  0  0  0  0  0  0  0  0  0
   22.7643   -6.8883  -13.7875 C   0  0  0  0  0  0  0  0  0  0  0  0
   21.4309   -6.2247  -14.0517 C   0  0  2  0  0  0  0  0  0  0  0  0
   20.6650   -6.9296  -15.0518 N   0  0  0  0  0  0  0  0  0  0  0  0
   21.5948   -4.8157  -14.4888 C   0  0  0  0  0  0  0  0  0  0  0  0
   21.4393   -4.4526  -15.6810 O   0  0  0  0  0  0  0  0  0  0  0  0
   21.9331   -3.8392  -13.5645 O   0  0  0  0  0  0  0  0  0  0  0  0
  2  1  1  6
  2  3  1  0
  4  2  1  0
  4  5  1  0
  5  7  1  0
  5  6  1  1
  7  8  2  0
  7 14  1  0
  9 10  1  0
 10 12  1  0
 10 11  2  0
 13 15  1  0
 13 12  1  6
 14 13  1  0
 15 16  2  0
 18 17  1  6
 19 18  1  0
 19 15  1  0
 20 22  1  0
 20 18  1  0
 21 20  2  0
M  END
$$$$
