LNA.pdb
     RDKit          3D

 22 21  0  0  1  0  0  0  0  0999 V2000
   27.9780  -20.4215   -8.9801 C   0  0  0  0  0  0  0  0  0  0  0  0
   28.3251  -21.4325  -10.0704 C   0  0  2  0  0  0  0  0  0  0  0  0
   29.8192  -21.6927  -10.0777 C   0  0  0  0  0  0  0  0  0  0  0  0
   27.8759  -20.9110  -11.4118 C   0  0  0  0  0  0  0  0  0  0  0  0
   26.4063  -20.7007  -11.3986 C   0  0  2  0  0  0  0  0  0  0  0  0
   25.6281  -21.8055  -10.9419 N   0  0  0  0  0  0  0  0  0  0  0  0
   25.8631  -20.3008  -12.7293 C   0  0  0  0  0  0  0  0  0  0  0  0
   26.4072  -19.4336  -13.4503 O   0  0  0  0  0  0  0  0  0  0  0  0
   25.9322  -23.6899  -15.1385 N   0  0  0  0  0  0  0  0  0  0  0  0
   25.3604  -22.5237  -15.6890 C   0  0  0  0  0  0  0  0  0  0  0  0
   26.0075  -21.9262  -16.5879 O   0  0  0  0  0  0  0  0  0  0  0  0
   24.0548  -22.0873  -15.1785 C   0  0  0  0  0  0  0  0  0  0  0  0
   24.1141  -20.7125  -14.5120 C   0  0  2  0  0  0  0  0  0  0  0  0
   24.6963  -20.9130  -13.2044 N   0  0  0  0  0  0  0  0  0  0  0  0
   22.7133  -20.2951  -14.3086 C   0  0  0  0  0  0  0  0  0  0  0  0
   22.0826  -20.7616  -13.3277 O   0  0  0  0  0  0  0  0  0  0  0  0
   20.2461  -17.7635  -15.5595 C   0  0  0  0  0  0  0  0  0  0  0  0
   20.7008  -18.9853  -14.7924 C   0  0  2  0  0  0  0  0  0  0  0  0
   22.0354  -19.3911  -15.1639 N   0  0  0  0  0  0  0  0  0  0  0  0
   19.7840  -20.1349  -14.9954 C   0  0  0  0  0  0  0  0  0  0  0  0
   20.0134  -21.0470  -15.8278 O   0  0  0  0  0  0  0  0  0  0  0  0
   18.6194  -20.2316  -14.2494 O   0  0  0  0  0  0  0  0  0  0  0  0
  2  1  1  1
  2  3  1  0
  4  2  1  0
  4  5  1  0
  5  7  1  0
  5  6  1  6
  7  8  2  0
  7 14  1  0
  9 10  1  0
 10 12  1  0
 10 11  2  0
 13 15  1  0
 13 12  1  6
 14 13  1  0
 15 16  2  0
 18 17  1  6
 19 18  1  0
 19 15  1  0
 20 22  1  0
 20 18  1  0
 21 20  2  0
M  END
$$$$
