LNA.pdb
     RDKit          3D

 22 21  0  0  1  0  0  0  0  0999 V2000
   27.3693  -18.0036  -18.0908 C   0  0  0  0  0  0  0  0  0  0  0  0
   28.1135  -17.8407  -16.7675 C   0  0  2  0  0  0  0  0  0  0  0  0
   29.6104  -17.8637  -17.0100 C   0  0  0  0  0  0  0  0  0  0  0  0
   27.7175  -18.9446  -15.8200 C   0  0  0  0  0  0  0  0  0  0  0  0
   26.2417  -18.9585  -15.6592 C   0  0  2  0  0  0  0  0  0  0  0  0
   25.6602  -17.7447  -15.1871 N   0  0  0  0  0  0  0  0  0  0  0  0
   25.7636  -20.0522  -14.7641 C   0  0  0  0  0  0  0  0  0  0  0  0
   26.0235  -21.2594  -14.9712 O   0  0  0  0  0  0  0  0  0  0  0  0
   26.3583  -21.9348  -11.1248 N   0  0  0  0  0  0  0  0  0  0  0  0
   25.8090  -20.7724  -10.5440 C   0  0  0  0  0  0  0  0  0  0  0  0
   26.2469  -20.4214   -9.4176 O   0  0  0  0  0  0  0  0  0  0  0  0
   24.7681  -20.0536  -11.2894 C   0  0  0  0  0  0  0  0  0  0  0  0
   24.4965  -20.6700  -12.6619 C   0  0  2  0  0  0  0  0  0  0  0  0
   24.9907  -19.7292  -13.6415 N   0  0  0  0  0  0  0  0  0  0  0  0
   23.0286  -20.7209  -12.8050 C   0  0  0  0  0  0  0  0  0  0  0  0
   22.3430  -21.1286  -11.8347 O   0  0  0  0  0  0  0  0  0  0  0  0
   20.2897  -19.1184  -14.5404 C   0  0  0  0  0  0  0  0  0  0  0  0
   20.9017  -20.3790  -13.9709 C   0  0  2  0  0  0  0  0  0  0  0  0
   22.3444  -20.3330  -13.9838 N   0  0  0  0  0  0  0  0  0  0  0  0
   20.4612  -21.5875  -14.7117 C   0  0  0  0  0  0  0  0  0  0  0  0
   21.2429  -22.2755  -15.4139 O   0  0  0  0  0  0  0  0  0  0  0  0
   19.1384  -21.9970  -14.6438 O   0  0  0  0  0  0  0  0  0  0  0  0
  2  1  1  6
  2  3  1  0
  4  2  1  0
  4  5  1  0
  5  7  1  0
  5  6  1  1
  7  8  2  0
  7 14  1  0
  9 10  1  0
 10 12  1  0
 10 11  2  0
 13 15  1  0
 13 12  1  1
 14 13  1  0
 15 16  2  0
 18 17  1  6
 19 18  1  0
 19 15  1  0
 20 22  1  0
 20 18  1  0
 21 20  2  0
M  END
$$$$
