LNA.pdb
     RDKit          3D

 22 21  0  0  1  0  0  0  0  0999 V2000
   26.7614  -12.6155  -15.2037 C   0  0  0  0  0  0  0  0  0  0  0  0
   26.7330  -12.2198  -16.6781 C   0  0  2  0  0  0  0  0  0  0  0  0
   28.0864  -11.6765  -17.0939 C   0  0  0  0  0  0  0  0  0  0  0  0
   25.6587  -11.1874  -16.9088 C   0  0  0  0  0  0  0  0  0  0  0  0
   24.3333  -11.7611  -16.5648 C   0  0  2  0  0  0  0  0  0  0  0  0
   23.9893  -12.9698  -17.2396 N   0  0  0  0  0  0  0  0  0  0  0  0
   23.2102  -10.8028  -16.7798 C   0  0  0  0  0  0  0  0  0  0  0  0
   22.6046  -10.7028  -17.8712 O   0  0  0  0  0  0  0  0  0  0  0  0
   18.2218   -9.4124  -14.6107 N   0  0  0  0  0  0  0  0  0  0  0  0
   19.4474   -8.7291  -14.7554 C   0  0  0  0  0  0  0  0  0  0  0  0
   19.4044   -7.4790  -14.8941 O   0  0  0  0  0  0  0  0  0  0  0  0
   20.6851   -9.5185  -14.7347 C   0  0  0  0  0  0  0  0  0  0  0  0
   21.7062   -9.0375  -15.7660 C   0  0  2  0  0  0  0  0  0  0  0  0
   22.8061   -9.9743  -15.7253 N   0  0  0  0  0  0  0  0  0  0  0  0
   22.2135   -7.7443  -15.2680 C   0  0  0  0  0  0  0  0  0  0  0  0
   22.9266   -7.7353  -14.2340 O   0  0  0  0  0  0  0  0  0  0  0  0
   22.4317   -4.1372  -16.3021 C   0  0  0  0  0  0  0  0  0  0  0  0
   22.6130   -5.3308  -15.3907 C   0  0  2  0  0  0  0  0  0  0  0  0
   21.9394   -6.5035  -15.8952 N   0  0  0  0  0  0  0  0  0  0  0  0
   22.1179   -5.0554  -14.0188 C   0  0  0  0  0  0  0  0  0  0  0  0
   22.8474   -4.5708  -13.1185 O   0  0  0  0  0  0  0  0  0  0  0  0
   20.8004   -5.3347  -13.6893 O   0  0  0  0  0  0  0  0  0  0  0  0
  2  1  1  1
  2  3  1  0
  4  2  1  0
  4  5  1  0
  5  7  1  0
  5  6  1  6
  7  8  2  0
  7 14  1  0
  9 10  1  0
 10 12  1  0
 10 11  2  0
 13 15  1  0
 13 12  1  1
 14 13  1  0
 15 16  2  0
 18 17  1  6
 19 18  1  0
 19 15  1  0
 20 22  1  0
 20 18  1  0
 21 20  2  0
M  END
$$$$
