LNA.pdb
     RDKit          3D

 22 21  0  0  1  0  0  0  0  0999 V2000
   27.9487  -18.1235  -17.9086 C   0  0  0  0  0  0  0  0  0  0  0  0
   27.2773  -17.0096  -17.1088 C   0  0  2  0  0  0  0  0  0  0  0  0
   28.3049  -16.2979  -16.2501 C   0  0  0  0  0  0  0  0  0  0  0  0
   26.1827  -17.5877  -16.2481 C   0  0  0  0  0  0  0  0  0  0  0  0
   25.2745  -16.5022  -15.7999 C   0  0  2  0  0  0  0  0  0  0  0  0
   25.6270  -15.8697  -14.5709 N   0  0  0  0  0  0  0  0  0  0  0  0
   23.8552  -16.9445  -15.6752 C   0  0  0  0  0  0  0  0  0  0  0  0
   23.5273  -18.1487  -15.5735 O   0  0  0  0  0  0  0  0  0  0  0  0
   19.2396  -16.7557  -12.7437 N   0  0  0  0  0  0  0  0  0  0  0  0
   19.8461  -17.2909  -13.8995 C   0  0  0  0  0  0  0  0  0  0  0  0
   19.1480  -18.0422  -14.6289 O   0  0  0  0  0  0  0  0  0  0  0  0
   21.2446  -16.9371  -14.1725 C   0  0  0  0  0  0  0  0  0  0  0  0
   21.4241  -16.2553  -15.5292 C   0  0  2  0  0  0  0  0  0  0  0  0
   22.8365  -15.9831  -15.6702 N   0  0  0  0  0  0  0  0  0  0  0  0
   20.7351  -14.9542  -15.4283 C   0  0  0  0  0  0  0  0  0  0  0  0
   20.9977  -14.2081  -14.4526 O   0  0  0  0  0  0  0  0  0  0  0  0
   18.8813  -12.5496  -17.5590 C   0  0  0  0  0  0  0  0  0  0  0  0
   19.2844  -13.1511  -16.2309 C   0  0  2  0  0  0  0  0  0  0  0  0
   19.7873  -14.4962  -16.3771 N   0  0  0  0  0  0  0  0  0  0  0  0
   18.1530  -13.1717  -15.2703 C   0  0  0  0  0  0  0  0  0  0  0  0
   17.4890  -14.2094  -15.0262 O   0  0  0  0  0  0  0  0  0  0  0  0
   17.7923  -12.0125  -14.6007 O   0  0  0  0  0  0  0  0  0  0  0  0
  2  1  1  1
  2  3  1  0
  4  2  1  0
  4  5  1  0
  5  7  1  0
  5  6  1  1
  7  8  2  0
  7 14  1  0
  9 10  1  0
 10 12  1  0
 10 11  2  0
 13 15  1  0
 13 12  1  1
 14 13  1  0
 15 16  2  0
 18 17  1  6
 19 18  1  0
 19 15  1  0
 20 22  1  0
 20 18  1  0
 21 20  2  0
M  END
$$$$
