LNA.pdb
     RDKit          3D

 22 21  0  0  1  0  0  0  0  0999 V2000
   27.4338  -13.5862  -15.6207 C   0  0  0  0  0  0  0  0  0  0  0  0
   26.6541  -13.8383  -16.9091 C   0  0  2  0  0  0  0  0  0  0  0  0
   27.5478  -14.5152  -17.9303 C   0  0  0  0  0  0  0  0  0  0  0  0
   26.1302  -12.5330  -17.4523 C   0  0  0  0  0  0  0  0  0  0  0  0
   25.1848  -11.9311  -16.4786 C   0  0  2  0  0  0  0  0  0  0  0  0
   24.1305  -12.7826  -16.0338 N   0  0  0  0  0  0  0  0  0  0  0  0
   24.5538  -10.6753  -16.9794 C   0  0  0  0  0  0  0  0  0  0  0  0
   25.1390   -9.8860  -17.7556 O   0  0  0  0  0  0  0  0  0  0  0  0
   19.7807  -11.4533  -17.8893 N   0  0  0  0  0  0  0  0  0  0  0  0
   20.6170  -10.3368  -18.0991 C   0  0  0  0  0  0  0  0  0  0  0  0
   20.9561  -10.0773  -19.2829 O   0  0  0  0  0  0  0  0  0  0  0  0
   21.0335   -9.5559  -16.9276 C   0  0  0  0  0  0  0  0  0  0  0  0
   22.5141   -9.1767  -16.9704 C   0  0  2  0  0  0  0  0  0  0  0  0
   23.2528  -10.3535  -16.5724 N   0  0  0  0  0  0  0  0  0  0  0  0
   22.7075   -8.1611  -15.9174 C   0  0  0  0  0  0  0  0  0  0  0  0
   22.7774   -8.5394  -14.7218 O   0  0  0  0  0  0  0  0  0  0  0  0
   23.5097   -4.5231  -15.4976 C   0  0  0  0  0  0  0  0  0  0  0  0
   23.0308   -5.8896  -15.0598 C   0  0  2  0  0  0  0  0  0  0  0  0
   22.8197   -6.7733  -16.1815 N   0  0  0  0  0  0  0  0  0  0  0  0
   21.7705   -5.8069  -14.2801 C   0  0  0  0  0  0  0  0  0  0  0  0
   20.6396   -5.9816  -14.7977 O   0  0  0  0  0  0  0  0  0  0  0  0
   21.8134   -5.5268  -12.9228 O   0  0  0  0  0  0  0  0  0  0  0  0
  2  1  1  1
  2  3  1  0
  4  2  1  0
  4  5  1  0
  5  7  1  0
  5  6  1  6
  7  8  2  0
  7 14  1  0
  9 10  1  0
 10 12  1  0
 10 11  2  0
 13 15  1  0
 13 12  1  1
 14 13  1  0
 15 16  2  0
 18 17  1  6
 19 18  1  0
 19 15  1  0
 20 22  1  0
 20 18  1  0
 21 20  2  0
M  END
$$$$
