LNA.pdb
     RDKit          3D

 22 21  0  0  1  0  0  0  0  0999 V2000
   27.7303  -16.9449  -15.2656 C   0  0  0  0  0  0  0  0  0  0  0  0
   27.0413  -17.7808  -16.3417 C   0  0  2  0  0  0  0  0  0  0  0  0
   26.3551  -16.8713  -17.3426 C   0  0  0  0  0  0  0  0  0  0  0  0
   26.0401  -18.7098  -15.7032 C   0  0  0  0  0  0  0  0  0  0  0  0
   26.7387  -19.6341  -14.7748 C   0  0  2  0  0  0  0  0  0  0  0  0
   27.7616  -20.4391  -15.3579 N   0  0  0  0  0  0  0  0  0  0  0  0
   25.8079  -20.5557  -14.0605 C   0  0  0  0  0  0  0  0  0  0  0  0
   25.5540  -21.7121  -14.4682 O   0  0  0  0  0  0  0  0  0  0  0  0
   26.4330  -21.8006  -10.7092 N   0  0  0  0  0  0  0  0  0  0  0  0
   25.5934  -20.9347   -9.9774 C   0  0  0  0  0  0  0  0  0  0  0  0
   25.9184  -20.6745   -8.7898 O   0  0  0  0  0  0  0  0  0  0  0  0
   24.4024  -20.3979  -10.6474 C   0  0  0  0  0  0  0  0  0  0  0  0
   24.2620  -20.8973  -12.0856 C   0  0  2  0  0  0  0  0  0  0  0  0
   25.1851  -20.1221  -12.8832 N   0  0  0  0  0  0  0  0  0  0  0  0
   22.8982  -20.5320  -12.5149 C   0  0  0  0  0  0  0  0  0  0  0  0
   22.7340  -19.4616  -13.1513 O   0  0  0  0  0  0  0  0  0  0  0  0
   20.2286  -19.4189  -12.0590 C   0  0  0  0  0  0  0  0  0  0  0  0
   20.4661  -20.8006  -12.6271 C   0  0  2  0  0  0  0  0  0  0  0  0
   21.7557  -21.3266  -12.2477 N   0  0  0  0  0  0  0  0  0  0  0  0
   20.3693  -20.8105  -14.1082 C   0  0  0  0  0  0  0  0  0  0  0  0
   21.3333  -21.1254  -14.8491 O   0  0  0  0  0  0  0  0  0  0  0  0
   19.1781  -20.4622  -14.7263 O   0  0  0  0  0  0  0  0  0  0  0  0
  2  1  1  1
  2  3  1  0
  4  2  1  0
  4  5  1  0
  5  7  1  0
  5  6  1  6
  7  8  2  0
  7 14  1  0
  9 10  1  0
 10 12  1  0
 10 11  2  0
 13 15  1  0
 13 12  1  1
 14 13  1  0
 15 16  2  0
 18 17  1  6
 19 18  1  0
 19 15  1  0
 20 22  1  0
 20 18  1  0
 21 20  2  0
M  END
$$$$
