LNA.pdb
     RDKit          3D

 22 21  0  0  1  0  0  0  0  0999 V2000
   25.4713  -12.1017  -16.2182 C   0  0  0  0  0  0  0  0  0  0  0  0
   25.9875  -10.6712  -16.0820 C   0  0  2  0  0  0  0  0  0  0  0  0
   27.3941  -10.6808  -15.5152 C   0  0  0  0  0  0  0  0  0  0  0  0
   25.0664   -9.8790  -15.1891 C   0  0  0  0  0  0  0  0  0  0  0  0
   23.7197   -9.7971  -15.8086 C   0  0  2  0  0  0  0  0  0  0  0  0
   23.6979   -9.4887  -17.2011 N   0  0  0  0  0  0  0  0  0  0  0  0
   22.8238   -8.8177  -15.1275 C   0  0  0  0  0  0  0  0  0  0  0  0
   22.5749   -8.8662  -13.9012 O   0  0  0  0  0  0  0  0  0  0  0  0
   21.7919   -5.1001  -13.2484 N   0  0  0  0  0  0  0  0  0  0  0  0
   22.2773   -4.6274  -14.4857 C   0  0  0  0  0  0  0  0  0  0  0  0
   22.9146   -3.5422  -14.4851 O   0  0  0  0  0  0  0  0  0  0  0  0
   22.0076   -5.4294  -15.6855 C   0  0  0  0  0  0  0  0  0  0  0  0
   21.3519   -6.7717  -15.3598 C   0  0  2  0  0  0  0  0  0  0  0  0
   22.2296   -7.7960  -15.8791 N   0  0  0  0  0  0  0  0  0  0  0  0
   20.1058   -6.8212  -16.1488 C   0  0  0  0  0  0  0  0  0  0  0  0
   20.1853   -7.0073  -17.3884 O   0  0  0  0  0  0  0  0  0  0  0  0
   16.3791   -6.8895  -15.7291 C   0  0  0  0  0  0  0  0  0  0  0  0
   17.6813   -6.6971  -16.4744 C   0  0  2  0  0  0  0  0  0  0  0  0
   18.8157   -6.6694  -15.5823 N   0  0  0  0  0  0  0  0  0  0  0  0
   17.6782   -5.4461  -17.2732 C   0  0  0  0  0  0  0  0  0  0  0  0
   18.0515   -4.3417  -16.8059 O   0  0  0  0  0  0  0  0  0  0  0  0
   17.2507   -5.4679  -18.5919 O   0  0  0  0  0  0  0  0  0  0  0  0
  2  1  1  1
  2  3  1  0
  4  2  1  0
  4  5  1  0
  5  7  1  0
  5  6  1  6
  7  8  2  0
  7 14  1  0
  9 10  1  0
 10 12  1  0
 10 11  2  0
 13 15  1  0
 13 12  1  6
 14 13  1  0
 15 16  2  0
 18 17  1  1
 19 18  1  0
 19 15  1  0
 20 22  1  0
 20 18  1  0
 21 20  2  0
M  END
$$$$
