LNA.pdb
     RDKit          3D

 22 21  0  0  1  0  0  0  0  0999 V2000
   20.9794  -13.1046  -20.3886 C   0  0  0  0  0  0  0  0  0  0  0  0
   19.8580  -13.2500  -19.3625 C   0  0  2  0  0  0  0  0  0  0  0  0
   18.7527  -14.1230  -19.9247 C   0  0  0  0  0  0  0  0  0  0  0  0
   19.3196  -11.8895  -18.9987 C   0  0  0  0  0  0  0  0  0  0  0  0
   20.3633  -11.1157  -18.2803 C   0  0  2  0  0  0  0  0  0  0  0  0
   21.1826  -11.8659  -17.3857 N   0  0  0  0  0  0  0  0  0  0  0  0
   19.8082   -9.9660  -17.5084 C   0  0  0  0  0  0  0  0  0  0  0  0
   19.0216   -9.1303  -18.0094 O   0  0  0  0  0  0  0  0  0  0  0  0
   19.4610   -8.5730  -11.5785 N   0  0  0  0  0  0  0  0  0  0  0  0
   19.0076   -8.4543  -12.9090 C   0  0  0  0  0  0  0  0  0  0  0  0
   18.1754   -7.5446  -13.1618 O   0  0  0  0  0  0  0  0  0  0  0  0
   19.5346   -9.3955  -13.9050 C   0  0  0  0  0  0  0  0  0  0  0  0
   19.6972   -8.7598  -15.2860 C   0  0  2  0  0  0  0  0  0  0  0  0
   20.1738   -9.8024  -16.1662 N   0  0  0  0  0  0  0  0  0  0  0  0
   20.7814   -7.7673  -15.1551 C   0  0  0  0  0  0  0  0  0  0  0  0
   21.9473   -8.1759  -14.9285 O   0  0  0  0  0  0  0  0  0  0  0  0
   21.7090   -4.3691  -16.1257 C   0  0  0  0  0  0  0  0  0  0  0  0
   21.7301   -5.5092  -15.1318 C   0  0  2  0  0  0  0  0  0  0  0  0
   20.5795   -6.3695  -15.2715 N   0  0  0  0  0  0  0  0  0  0  0  0
   21.7852   -5.0178  -13.7322 C   0  0  0  0  0  0  0  0  0  0  0  0
   22.8166   -5.1082  -13.0214 O   0  0  0  0  0  0  0  0  0  0  0  0
   20.6669   -4.4306  -13.1603 O   0  0  0  0  0  0  0  0  0  0  0  0
  2  1  1  6
  2  3  1  0
  4  2  1  0
  4  5  1  0
  5  7  1  0
  5  6  1  1
  7  8  2  0
  7 14  1  0
  9 10  1  0
 10 12  1  0
 10 11  2  0
 13 15  1  0
 13 12  1  1
 14 13  1  0
 15 16  2  0
 18 17  1  6
 19 18  1  0
 19 15  1  0
 20 22  1  0
 20 18  1  0
 21 20  2  0
M  END
$$$$
