YYH.pdb
     RDKit          3D

 35 37  0  0  1  0  0  0  0  0999 V2000
   29.5715  -14.6601  -17.4978 O   0  0  0  0  0  0  0  0  0  0  0  0
   28.8241  -15.7651  -17.0943 C   0  0  0  0  0  0  0  0  0  0  0  0
   28.2109  -15.7183  -15.8600 C   0  0  0  0  0  0  0  0  0  0  0  0
   27.4551  -16.7817  -15.4008 C   0  0  0  0  0  0  0  0  0  0  0  0
   27.3016  -17.9100  -16.1719 C   0  0  0  0  0  0  0  0  0  0  0  0
   26.4867  -19.0352  -15.6559 C   0  0  0  0  0  0  0  0  0  0  0  0
   27.2340  -19.6157  -14.4692 C   0  0  2  0  0  0  0  0  0  0  0  0
   28.4338  -20.3069  -14.8693 N   0  0  0  0  0  0  0  0  0  0  0  0
   26.3976  -20.5166  -13.6560 C   0  0  0  0  0  0  0  0  0  0  0  0
   26.1539  -21.7111  -13.9671 O   0  0  0  0  0  0  0  0  0  0  0  0
   27.9286  -17.9357  -17.4129 C   0  0  0  0  0  0  0  0  0  0  0  0
   28.6784  -16.8829  -17.8706 C   0  0  0  0  0  0  0  0  0  0  0  0
   29.5466  -21.3211   -7.5546 O   0  0  0  0  0  0  0  0  0  0  0  0
   28.3391  -21.0229   -8.1994 C   0  0  0  0  0  0  0  0  0  0  0  0
   27.4108  -20.1594   -7.6875 C   0  0  0  0  0  0  0  0  0  0  0  0
   26.2204  -19.8620   -8.3178 C   0  0  0  0  0  0  0  0  0  0  0  0
   25.9856  -20.4861   -9.5267 C   0  0  0  0  0  0  0  0  0  0  0  0
   24.7566  -20.2561  -10.2998 C   0  0  0  0  0  0  0  0  0  0  0  0
   24.8787  -20.8476  -11.6728 C   0  0  2  0  0  0  0  0  0  0  0  0
   25.8060  -20.0562  -12.4354 N   0  0  0  0  0  0  0  0  0  0  0  0
   23.5112  -20.8149  -12.2857 C   0  0  0  0  0  0  0  0  0  0  0  0
   22.8912  -19.7348  -12.4392 O   0  0  0  0  0  0  0  0  0  0  0  0
   26.9168  -21.3723  -10.0720 C   0  0  0  0  0  0  0  0  0  0  0  0
   28.0948  -21.6370   -9.4011 C   0  0  0  0  0  0  0  0  0  0  0  0
   22.8677  -22.0004  -12.7143 N   0  0  0  0  0  0  0  0  0  0  0  0
   21.5150  -21.9592  -13.2992 C   0  0  1  0  0  0  0  0  0  0  0  0
   21.3178  -23.2840  -13.9883 C   0  0  0  0  0  0  0  0  0  0  0  0
   20.0292  -23.2870  -14.6966 C   0  0  0  0  0  0  0  0  0  0  0  0
   19.7827  -22.8013  -15.9557 C   0  0  0  0  0  0  0  0  0  0  0  0
   18.4532  -22.9799  -16.2068 N   0  0  0  0  0  0  0  0  0  0  0  0
   17.8876  -23.5592  -15.1364 C   0  0  0  0  0  0  0  0  0  0  0  0
   18.8563  -23.7396  -14.2274 N   0  0  0  0  0  0  0  0  0  0  0  0
   20.4995  -21.8003  -12.2445 C   0  0  0  0  0  0  0  0  0  0  0  0
   19.4942  -21.0707  -12.5013 O   0  0  0  0  0  0  0  0  0  0  0  0
   20.5261  -22.3698  -10.9939 O   0  0  0  0  0  0  0  0  0  0  0  0
  2  1  1  0
  3  2  2  0
  4  3  1  0
  5 11  1  0
  5  4  2  0
  6  5  1  0
  7  6  1  0
  7  8  1  6
  9  7  1  0
  9 10  2  0
 11 12  2  0
 12  2  1  0
 13 14  1  0
 14 15  2  0
 15 16  1  0
 17 18  1  0
 17 16  2  0
 19 20  1  0
 19 18  1  1
 20  9  1  0
 21 19  1  0
 22 21  2  0
 23 17  1  0
 24 23  2  0
 24 14  1  0
 25 21  1  0
 26 25  1  0
 26 27  1  1
 27 28  1  0
 28 29  2  0
 29 30  1  0
 31 30  1  0
 32 28  1  0
 32 31  2  0
 33 26  1  0
 33 35  1  0
 34 33  2  0
M  END
$$$$
