YYH.pdb
     RDKit          3D

 35 37  0  0  1  0  0  0  0  0999 V2000
   18.3081  -45.2571   -9.7056 O   0  0  0  0  0  0  0  0  0  0  0  0
   19.0023  -44.1340   -9.2593 C   0  0  0  0  0  0  0  0  0  0  0  0
   19.8073  -44.2679   -8.1476 C   0  0  0  0  0  0  0  0  0  0  0  0
   20.5226  -43.1919   -7.6541 C   0  0  0  0  0  0  0  0  0  0  0  0
   20.4425  -41.9635   -8.2671 C   0  0  0  0  0  0  0  0  0  0  0  0
   21.2191  -40.8272   -7.7176 C   0  0  0  0  0  0  0  0  0  0  0  0
   22.1803  -40.3810   -8.8042 C   0  0  2  0  0  0  0  0  0  0  0  0
   23.1553  -41.3957   -9.1160 N   0  0  0  0  0  0  0  0  0  0  0  0
   22.8721  -39.1232   -8.4699 C   0  0  0  0  0  0  0  0  0  0  0  0
   24.0280  -39.0739   -7.9753 O   0  0  0  0  0  0  0  0  0  0  0  0
   19.6249  -41.8512   -9.3864 C   0  0  0  0  0  0  0  0  0  0  0  0
   18.9146  -42.9162   -9.8778 C   0  0  0  0  0  0  0  0  0  0  0  0
   25.2877  -30.7817   -9.1370 O   0  0  0  0  0  0  0  0  0  0  0  0
   24.6315  -32.0140   -9.2540 C   0  0  0  0  0  0  0  0  0  0  0  0
   25.2466  -33.1496   -9.7029 C   0  0  0  0  0  0  0  0  0  0  0  0
   24.6058  -34.3655   -9.8203 C   0  0  0  0  0  0  0  0  0  0  0  0
   23.2743  -34.4027   -9.4571 C   0  0  0  0  0  0  0  0  0  0  0  0
   22.4767  -35.6351   -9.5347 C   0  0  0  0  0  0  0  0  0  0  0  0
   22.8973  -36.6034   -8.4691 C   0  0  2  0  0  0  0  0  0  0  0  0
   22.2376  -37.8599   -8.7011 N   0  0  0  0  0  0  0  0  0  0  0  0
   22.4846  -36.0128   -7.1547 C   0  0  0  0  0  0  0  0  0  0  0  0
   21.2807  -35.7681   -6.8990 O   0  0  0  0  0  0  0  0  0  0  0  0
   22.6219  -33.2576   -8.9955 C   0  0  0  0  0  0  0  0  0  0  0  0
   23.3085  -32.0632   -8.8962 C   0  0  0  0  0  0  0  0  0  0  0  0
   23.4368  -35.7089   -6.1525 N   0  0  0  0  0  0  0  0  0  0  0  0
   23.0134  -35.2069   -4.8325 C   0  0  1  0  0  0  0  0  0  0  0  0
   24.2707  -35.0736   -4.0139 C   0  0  0  0  0  0  0  0  0  0  0  0
   24.0261  -35.5590   -2.6476 C   0  0  0  0  0  0  0  0  0  0  0  0
   22.8584  -36.0898   -2.1611 C   0  0  0  0  0  0  0  0  0  0  0  0
   23.0624  -36.3806   -0.8434 N   0  0  0  0  0  0  0  0  0  0  0  0
   24.3196  -36.0412   -0.5179 C   0  0  0  0  0  0  0  0  0  0  0  0
   24.8926  -35.5438   -1.6231 N   0  0  0  0  0  0  0  0  0  0  0  0
   22.3715  -33.8878   -4.9618 C   0  0  0  0  0  0  0  0  0  0  0  0
   22.7147  -33.1604   -5.9426 O   0  0  0  0  0  0  0  0  0  0  0  0
   21.4239  -33.3557   -4.1202 O   0  0  0  0  0  0  0  0  0  0  0  0
  2  1  1  0
  3  2  2  0
  4  3  1  0
  5 11  1  0
  5  4  2  0
  6  5  1  0
  7  6  1  0
  7  8  1  1
  9  7  1  0
  9 10  2  0
 11 12  2  0
 12  2  1  0
 13 14  1  0
 14 15  2  0
 15 16  1  0
 17 18  1  0
 17 16  2  0
 19 20  1  0
 19 18  1  6
 20  9  1  0
 21 19  1  0
 22 21  2  0
 23 17  1  0
 24 23  2  0
 24 14  1  0
 25 21  1  0
 26 25  1  0
 26 27  1  1
 27 28  1  0
 28 29  2  0
 29 30  1  0
 31 30  1  0
 32 28  1  0
 32 31  2  0
 33 26  1  0
 33 35  1  0
 34 33  2  0
M  END
$$$$
