YYH.pdb
     RDKit          3D

 35 37  0  0  1  0  0  0  0  0999 V2000
   29.9912  -37.8558    1.6438 O   0  0  0  0  0  0  0  0  0  0  0  0
   29.5780  -36.6008    2.0873 C   0  0  0  0  0  0  0  0  0  0  0  0
   29.0163  -36.5087    3.3434 C   0  0  0  0  0  0  0  0  0  0  0  0
   28.5859  -35.2927    3.8423 C   0  0  0  0  0  0  0  0  0  0  0  0
   28.7116  -34.1485    3.0899 C   0  0  0  0  0  0  0  0  0  0  0  0
   28.2421  -32.8585    3.6484 C   0  0  0  0  0  0  0  0  0  0  0  0
   26.7617  -32.7512    3.3314 C   0  0  2  0  0  0  0  0  0  0  0  0
   26.5255  -32.4325    1.9458 N   0  0  0  0  0  0  0  0  0  0  0  0
   26.0671  -31.7706    4.1850 C   0  0  0  0  0  0  0  0  0  0  0  0
   26.3024  -30.5348    4.1600 O   0  0  0  0  0  0  0  0  0  0  0  0
   29.2808  -34.2644    1.8264 C   0  0  0  0  0  0  0  0  0  0  0  0
   29.7084  -35.4686    1.3292 C   0  0  0  0  0  0  0  0  0  0  0  0
   20.1566  -29.2768    1.9292 O   0  0  0  0  0  0  0  0  0  0  0  0
   20.8623  -29.8148    3.0133 C   0  0  0  0  0  0  0  0  0  0  0  0
   21.1618  -29.1004    4.1400 C   0  0  0  0  0  0  0  0  0  0  0  0
   21.8563  -29.6248    5.2103 C   0  0  0  0  0  0  0  0  0  0  0  0
   22.2550  -30.9425    5.1057 C   0  0  0  0  0  0  0  0  0  0  0  0
   23.0015  -31.6208    6.1750 C   0  0  0  0  0  0  0  0  0  0  0  0
   24.4655  -31.3102    6.0751 C   0  0  2  0  0  0  0  0  0  0  0  0
   25.0604  -32.1959    5.1110 N   0  0  0  0  0  0  0  0  0  0  0  0
   25.0516  -31.5250    7.4379 C   0  0  0  0  0  0  0  0  0  0  0  0
   25.1640  -32.6759    7.9253 O   0  0  0  0  0  0  0  0  0  0  0  0
   21.9623  -31.6947    3.9662 C   0  0  0  0  0  0  0  0  0  0  0  0
   21.2637  -31.1230    2.9208 C   0  0  0  0  0  0  0  0  0  0  0  0
   25.5003  -30.4385    8.2262 N   0  0  0  0  0  0  0  0  0  0  0  0
   26.0683  -30.6601    9.5685 C   0  0  1  0  0  0  0  0  0  0  0  0
   27.2008  -29.6771    9.7098 C   0  0  0  0  0  0  0  0  0  0  0  0
   28.3884  -30.1851    9.0070 C   0  0  0  0  0  0  0  0  0  0  0  0
   28.5149  -31.3981    8.3787 C   0  0  0  0  0  0  0  0  0  0  0  0
   29.7856  -31.4697    7.8861 N   0  0  0  0  0  0  0  0  0  0  0  0
   30.4322  -30.3356    8.1981 C   0  0  0  0  0  0  0  0  0  0  0  0
   29.5716  -29.5652    8.8786 N   0  0  0  0  0  0  0  0  0  0  0  0
   25.0589  -30.3964   10.6079 C   0  0  0  0  0  0  0  0  0  0  0  0
   25.2818  -30.8482   11.7721 O   0  0  0  0  0  0  0  0  0  0  0  0
   23.8849  -29.7000   10.4470 O   0  0  0  0  0  0  0  0  0  0  0  0
  2  1  1  0
  3  2  2  0
  4  3  1  0
  5 11  1  0
  5  4  2  0
  6  5  1  0
  7  6  1  0
  7  8  1  6
  9  7  1  0
  9 10  2  0
 11 12  2  0
 12  2  1  0
 13 14  1  0
 14 15  2  0
 15 16  1  0
 17 18  1  0
 17 16  2  0
 19 20  1  0
 19 18  1  1
 20  9  1  0
 21 19  1  0
 22 21  2  0
 23 17  1  0
 24 23  2  0
 24 14  1  0
 25 21  1  0
 26 25  1  0
 26 27  1  1
 27 28  1  0
 28 29  2  0
 29 30  1  0
 31 30  1  0
 32 28  1  0
 32 31  2  0
 33 26  1  0
 33 35  1  0
 34 33  2  0
M  END
$$$$
