YYH.pdb
     RDKit          3D

 35 37  0  0  1  0  0  0  0  0999 V2000
   29.6618   -5.5908  -19.4326 O   0  0  0  0  0  0  0  0  0  0  0  0
   28.4485   -5.1858  -18.8790 C   0  0  0  0  0  0  0  0  0  0  0  0
   28.4557   -4.6882  -17.5929 C   0  0  0  0  0  0  0  0  0  0  0  0
   27.2856   -4.2693  -16.9861 C   0  0  0  0  0  0  0  0  0  0  0  0
   26.0885   -4.3424  -17.6590 C   0  0  0  0  0  0  0  0  0  0  0  0
   24.8495   -3.8870  -16.9854 C   0  0  0  0  0  0  0  0  0  0  0  0
   24.5670   -2.4806  -17.4812 C   0  0  2  0  0  0  0  0  0  0  0  0
   25.4914   -1.5179  -16.9371 N   0  0  0  0  0  0  0  0  0  0  0  0
   23.1865   -2.0460  -17.2023 C   0  0  0  0  0  0  0  0  0  0  0  0
   22.8617   -1.3572  -16.2007 O   0  0  0  0  0  0  0  0  0  0  0  0
   26.1044   -4.8473  -18.9546 C   0  0  0  0  0  0  0  0  0  0  0  0
   27.2630   -5.2633  -19.5587 C   0  0  0  0  0  0  0  0  0  0  0  0
   14.8441    0.1872  -18.0915 O   0  0  0  0  0  0  0  0  0  0  0  0
   16.1851   -0.1669  -18.2895 C   0  0  0  0  0  0  0  0  0  0  0  0
   17.2287    0.5014  -17.7118 C   0  0  0  0  0  0  0  0  0  0  0  0
   18.5508    0.1574  -17.9030 C   0  0  0  0  0  0  0  0  0  0  0  0
   18.7979   -0.9229  -18.7265 C   0  0  0  0  0  0  0  0  0  0  0  0
   20.1613   -1.3922  -19.0127 C   0  0  0  0  0  0  0  0  0  0  0  0
   20.7427   -2.0847  -17.8159 C   0  0  2  0  0  0  0  0  0  0  0  0
   22.1188   -2.4006  -18.0889 N   0  0  0  0  0  0  0  0  0  0  0  0
   19.9371   -3.3297  -17.5974 C   0  0  0  0  0  0  0  0  0  0  0  0
   20.2010   -4.3929  -18.2096 O   0  0  0  0  0  0  0  0  0  0  0  0
   17.7507   -1.6229  -19.3291 C   0  0  0  0  0  0  0  0  0  0  0  0
   16.4430   -1.2385  -19.1056 C   0  0  0  0  0  0  0  0  0  0  0  0
   18.8487   -3.3534  -16.6929 N   0  0  0  0  0  0  0  0  0  0  0  0
   18.0571   -4.5808  -16.4921 C   0  0  1  0  0  0  0  0  0  0  0  0
   18.9484   -5.5337  -15.7394 C   0  0  0  0  0  0  0  0  0  0  0  0
   19.5342   -6.5067  -16.6734 C   0  0  0  0  0  0  0  0  0  0  0  0
   20.3785   -6.2352  -17.7200 C   0  0  0  0  0  0  0  0  0  0  0  0
   20.6543   -7.4206  -18.3374 N   0  0  0  0  0  0  0  0  0  0  0  0
   20.0014   -8.4019  -17.6952 C   0  0  0  0  0  0  0  0  0  0  0  0
   19.3255   -7.8322  -16.6873 N   0  0  0  0  0  0  0  0  0  0  0  0
   16.8558   -4.2966  -15.6891 C   0  0  0  0  0  0  0  0  0  0  0  0
   16.8792   -3.2751  -14.9373 O   0  0  0  0  0  0  0  0  0  0  0  0
   15.6943   -5.0312  -15.6704 O   0  0  0  0  0  0  0  0  0  0  0  0
  2  1  1  0
  3  2  2  0
  4  3  1  0
  5 11  1  0
  5  4  2  0
  6  5  1  0
  7  6  1  0
  7  8  1  1
  9  7  1  0
  9 10  2  0
 11 12  2  0
 12  2  1  0
 13 14  1  0
 14 15  2  0
 15 16  1  0
 17 18  1  0
 17 16  2  0
 19 20  1  0
 19 18  1  6
 20  9  1  0
 21 19  1  0
 22 21  2  0
 23 17  1  0
 24 23  2  0
 24 14  1  0
 25 21  1  0
 26 25  1  0
 26 27  1  1
 27 28  1  0
 28 29  2  0
 29 30  1  0
 31 30  1  0
 32 28  1  0
 32 31  2  0
 33 26  1  0
 33 35  1  0
 34 33  2  0
M  END
$$$$
