YYH.pdb
     RDKit          3D

 35 37  0  0  1  0  0  0  0  0999 V2000
   29.9708  -20.2382   -4.8960 O   0  0  0  0  0  0  0  0  0  0  0  0
   28.8995  -20.2675   -5.7871 C   0  0  0  0  0  0  0  0  0  0  0  0
   28.4264  -19.0667   -6.2729 C   0  0  0  0  0  0  0  0  0  0  0  0
   27.3662  -19.0269   -7.1601 C   0  0  0  0  0  0  0  0  0  0  0  0
   26.7625  -20.1908   -7.5751 C   0  0  0  0  0  0  0  0  0  0  0  0
   25.6282  -20.1198   -8.5261 C   0  0  0  0  0  0  0  0  0  0  0  0
   26.0673  -20.8308   -9.7931 C   0  0  2  0  0  0  0  0  0  0  0  0
   27.4067  -20.4677  -10.1824 N   0  0  0  0  0  0  0  0  0  0  0  0
   25.1490  -20.5990  -10.9225 C   0  0  0  0  0  0  0  0  0  0  0  0
   24.9182  -19.4626  -11.4110 O   0  0  0  0  0  0  0  0  0  0  0  0
   27.2557  -21.3900   -7.0726 C   0  0  0  0  0  0  0  0  0  0  0  0
   28.3066  -21.4325   -6.1929 C   0  0  0  0  0  0  0  0  0  0  0  0
   28.1875  -18.4398  -15.5583 O   0  0  0  0  0  0  0  0  0  0  0  0
   27.1479  -19.2915  -15.1625 C   0  0  0  0  0  0  0  0  0  0  0  0
   25.8296  -19.0303  -15.4144 C   0  0  0  0  0  0  0  0  0  0  0  0
   24.8019  -19.8650  -15.0272 C   0  0  0  0  0  0  0  0  0  0  0  0
   25.1579  -21.0155  -14.3521 C   0  0  0  0  0  0  0  0  0  0  0  0
   24.1599  -21.9884  -13.8848 C   0  0  0  0  0  0  0  0  0  0  0  0
   23.5209  -21.5184  -12.6117 C   0  0  2  0  0  0  0  0  0  0  0  0
   24.4563  -21.6937  -11.5338 N   0  0  0  0  0  0  0  0  0  0  0  0
   22.2952  -22.3557  -12.4032 C   0  0  0  0  0  0  0  0  0  0  0  0
   22.3794  -23.5689  -12.0933 O   0  0  0  0  0  0  0  0  0  0  0  0
   26.4966  -21.3064  -14.0818 C   0  0  0  0  0  0  0  0  0  0  0  0
   27.4893  -20.4375  -14.4910 C   0  0  0  0  0  0  0  0  0  0  0  0
   20.9972  -21.8102  -12.5477 N   0  0  0  0  0  0  0  0  0  0  0  0
   19.7982  -22.6395  -12.3281 C   0  0  1  0  0  0  0  0  0  0  0  0
   18.9639  -21.9057  -11.3111 C   0  0  0  0  0  0  0  0  0  0  0  0
   18.9917  -22.6302  -10.0318 C   0  0  0  0  0  0  0  0  0  0  0  0
   19.6236  -23.8206   -9.7754 C   0  0  0  0  0  0  0  0  0  0  0  0
   19.3689  -24.1435   -8.4741 N   0  0  0  0  0  0  0  0  0  0  0  0
   18.6010  -23.1835   -7.9353 C   0  0  0  0  0  0  0  0  0  0  0  0
   18.3799  -22.2714   -8.8926 N   0  0  0  0  0  0  0  0  0  0  0  0
   19.0322  -22.7831  -13.5777 C   0  0  0  0  0  0  0  0  0  0  0  0
   19.1144  -21.8462  -14.4288 O   0  0  0  0  0  0  0  0  0  0  0  0
   18.2279  -23.8424  -13.9243 O   0  0  0  0  0  0  0  0  0  0  0  0
  2  1  1  0
  3  2  2  0
  4  3  1  0
  5 11  1  0
  5  4  2  0
  6  5  1  0
  7  6  1  0
  7  8  1  6
  9  7  1  0
  9 10  2  0
 11 12  2  0
 12  2  1  0
 13 14  1  0
 14 15  2  0
 15 16  1  0
 17 18  1  0
 17 16  2  0
 19 20  1  0
 19 18  1  6
 20  9  1  0
 21 19  1  0
 22 21  2  0
 23 17  1  0
 24 23  2  0
 24 14  1  0
 25 21  1  0
 26 25  1  0
 26 27  1  1
 27 28  1  0
 28 29  2  0
 29 30  1  0
 31 30  1  0
 32 28  1  0
 32 31  2  0
 33 26  1  0
 33 35  1  0
 34 33  2  0
M  END
$$$$
