YYH.pdb
     RDKit          3D

 35 37  0  0  1  0  0  0  0  0999 V2000
   24.3127  -10.7249  -21.5061 O   0  0  0  0  0  0  0  0  0  0  0  0
   24.3592  -11.9939  -20.9315 C   0  0  0  0  0  0  0  0  0  0  0  0
   24.3588  -12.0837  -19.5554 C   0  0  0  0  0  0  0  0  0  0  0  0
   24.4036  -13.3130  -18.9232 C   0  0  0  0  0  0  0  0  0  0  0  0
   24.4495  -14.4730  -19.6605 C   0  0  0  0  0  0  0  0  0  0  0  0
   24.4972  -15.7770  -18.9579 C   0  0  0  0  0  0  0  0  0  0  0  0
   25.9360  -15.9957  -18.5271 C   0  0  2  0  0  0  0  0  0  0  0  0
   26.8255  -16.1265  -19.6537 N   0  0  0  0  0  0  0  0  0  0  0  0
   26.0930  -17.1630  -17.6409 C   0  0  0  0  0  0  0  0  0  0  0  0
   26.2612  -18.3377  -18.0591 O   0  0  0  0  0  0  0  0  0  0  0  0
   24.4490  -14.3590  -21.0464 C   0  0  0  0  0  0  0  0  0  0  0  0
   24.4047  -13.1416  -21.6759 C   0  0  0  0  0  0  0  0  0  0  0  0
   27.1020  -22.0633  -10.4805 O   0  0  0  0  0  0  0  0  0  0  0  0
   27.0719  -21.0143  -11.4087 C   0  0  0  0  0  0  0  0  0  0  0  0
   27.8567  -20.9827  -12.5279 C   0  0  0  0  0  0  0  0  0  0  0  0
   27.8315  -19.9528  -13.4452 C   0  0  0  0  0  0  0  0  0  0  0  0
   26.9568  -18.9155  -13.1895 C   0  0  0  0  0  0  0  0  0  0  0  0
   26.8326  -17.7581  -14.0872 C   0  0  0  0  0  0  0  0  0  0  0  0
   26.0456  -18.1220  -15.3112 C   0  0  2  0  0  0  0  0  0  0  0  0
   26.0598  -17.0057  -16.2175 N   0  0  0  0  0  0  0  0  0  0  0  0
   24.6506  -18.4304  -14.8578 C   0  0  0  0  0  0  0  0  0  0  0  0
   24.2216  -18.0289  -13.7490 O   0  0  0  0  0  0  0  0  0  0  0  0
   26.1441  -18.9228  -12.0540 C   0  0  0  0  0  0  0  0  0  0  0  0
   26.2069  -19.9783  -11.1654 C   0  0  0  0  0  0  0  0  0  0  0  0
   23.7647  -19.1858  -15.6626 N   0  0  0  0  0  0  0  0  0  0  0  0
   23.4195  -20.5753  -15.3109 C   0  0  1  0  0  0  0  0  0  0  0  0
   24.7178  -21.3390  -15.3050 C   0  0  0  0  0  0  0  0  0  0  0  0
   24.4493  -22.7709  -15.1054 C   0  0  0  0  0  0  0  0  0  0  0  0
   23.6368  -23.3292  -14.1513 C   0  0  0  0  0  0  0  0  0  0  0  0
   23.6985  -24.6836  -14.3073 N   0  0  0  0  0  0  0  0  0  0  0  0
   24.5249  -24.9616  -15.3277 C   0  0  0  0  0  0  0  0  0  0  0  0
   24.9732  -23.7908  -15.8025 N   0  0  0  0  0  0  0  0  0  0  0  0
   22.8110  -20.6342  -13.9711 C   0  0  0  0  0  0  0  0  0  0  0  0
   21.5461  -20.5743  -13.8965 O   0  0  0  0  0  0  0  0  0  0  0  0
   23.4795  -20.7516  -12.7758 O   0  0  0  0  0  0  0  0  0  0  0  0
  2  1  1  0
  3  2  2  0
  4  3  1  0
  5 11  1  0
  5  4  2  0
  6  5  1  0
  7  6  1  0
  7  8  1  6
  9  7  1  0
  9 10  2  0
 11 12  2  0
 12  2  1  0
 13 14  1  0
 14 15  2  0
 15 16  1  0
 17 18  1  0
 17 16  2  0
 19 20  1  0
 19 18  1  1
 20  9  1  0
 21 19  1  0
 22 21  2  0
 23 17  1  0
 24 23  2  0
 24 14  1  0
 25 21  1  0
 26 25  1  0
 26 27  1  1
 27 28  1  0
 28 29  2  0
 29 30  1  0
 31 30  1  0
 32 28  1  0
 32 31  2  0
 33 26  1  0
 33 35  1  0
 34 33  2  0
M  END
$$$$
