YYH.pdb
     RDKit          3D

 35 37  0  0  1  0  0  0  0  0999 V2000
   11.8648  -27.6831  -18.8180 O   0  0  0  0  0  0  0  0  0  0  0  0
   12.5943  -26.6006  -18.3295 C   0  0  0  0  0  0  0  0  0  0  0  0
   11.9550  -25.3837  -18.2197 C   0  0  0  0  0  0  0  0  0  0  0  0
   12.6225  -24.2704  -17.7422 C   0  0  0  0  0  0  0  0  0  0  0  0
   13.9425  -24.3590  -17.3668 C   0  0  0  0  0  0  0  0  0  0  0  0
   14.6342  -23.1508  -16.8587 C   0  0  0  0  0  0  0  0  0  0  0  0
   14.5561  -23.1999  -15.3437 C   0  0  2  0  0  0  0  0  0  0  0  0
   13.2087  -23.0221  -14.8640 N   0  0  0  0  0  0  0  0  0  0  0  0
   15.4405  -22.2142  -14.6966 C   0  0  0  0  0  0  0  0  0  0  0  0
   15.1131  -21.0181  -14.4839 O   0  0  0  0  0  0  0  0  0  0  0  0
   14.5673  -25.5956  -17.4858 C   0  0  0  0  0  0  0  0  0  0  0  0
   13.9080  -26.7009  -17.9588 C   0  0  0  0  0  0  0  0  0  0  0  0
   21.6628  -18.9436   -9.5953 O   0  0  0  0  0  0  0  0  0  0  0  0
   20.9243  -19.8255  -10.3951 C   0  0  0  0  0  0  0  0  0  0  0  0
   21.4412  -20.4467  -11.4980 C   0  0  0  0  0  0  0  0  0  0  0  0
   20.7190  -21.3158  -12.2892 C   0  0  0  0  0  0  0  0  0  0  0  0
   19.4091  -21.5483  -11.9200 C   0  0  0  0  0  0  0  0  0  0  0  0
   18.5318  -22.4524  -12.6775 C   0  0  0  0  0  0  0  0  0  0  0  0
   17.6463  -21.6738  -13.6047 C   0  0  2  0  0  0  0  0  0  0  0  0
   16.7551  -22.5874  -14.2672 N   0  0  0  0  0  0  0  0  0  0  0  0
   18.5426  -20.9858  -14.5896 C   0  0  0  0  0  0  0  0  0  0  0  0
   19.0934  -21.6187  -15.5228 O   0  0  0  0  0  0  0  0  0  0  0  0
   18.8564  -20.9269  -10.7982 C   0  0  0  0  0  0  0  0  0  0  0  0
   19.6218  -20.0642  -10.0382 C   0  0  0  0  0  0  0  0  0  0  0  0
   18.8016  -19.5969  -14.5045 N   0  0  0  0  0  0  0  0  0  0  0  0
   19.5409  -18.8974  -15.5710 C   0  0  1  0  0  0  0  0  0  0  0  0
   20.1670  -19.9731  -16.4193 C   0  0  0  0  0  0  0  0  0  0  0  0
   21.0117  -19.3588  -17.4545 C   0  0  0  0  0  0  0  0  0  0  0  0
   21.2749  -18.0219  -17.6134 C   0  0  0  0  0  0  0  0  0  0  0  0
   22.0772  -17.8934  -18.7099 N   0  0  0  0  0  0  0  0  0  0  0  0
   22.3070  -19.1135  -19.2197 C   0  0  0  0  0  0  0  0  0  0  0  0
   21.6538  -19.9933  -18.4474 N   0  0  0  0  0  0  0  0  0  0  0  0
   18.6227  -18.0952  -16.3970 C   0  0  0  0  0  0  0  0  0  0  0  0
   17.9867  -18.6921  -17.3181 O   0  0  0  0  0  0  0  0  0  0  0  0
   18.3772  -16.7488  -16.2711 O   0  0  0  0  0  0  0  0  0  0  0  0
  2  1  1  0
  3  2  2  0
  4  3  1  0
  5 11  1  0
  5  4  2  0
  6  5  1  0
  7  6  1  0
  7  8  1  6
  9  7  1  0
  9 10  2  0
 11 12  2  0
 12  2  1  0
 13 14  1  0
 14 15  2  0
 15 16  1  0
 17 18  1  0
 17 16  2  0
 19 20  1  0
 19 18  1  1
 20  9  1  0
 21 19  1  0
 22 21  2  0
 23 17  1  0
 24 23  2  0
 24 14  1  0
 25 21  1  0
 26 25  1  0
 26 27  1  6
 27 28  1  0
 28 29  2  0
 29 30  1  0
 31 30  1  0
 32 28  1  0
 32 31  2  0
 33 26  1  0
 33 35  1  0
 34 33  2  0
M  END
$$$$
