YYH.pdb
     RDKit          3D

 35 37  0  0  1  0  0  0  0  0999 V2000
   27.4473  -10.9259  -26.0744 O   0  0  0  0  0  0  0  0  0  0  0  0
   26.3633  -10.7631  -25.2136 C   0  0  0  0  0  0  0  0  0  0  0  0
   25.0971  -10.9740  -25.7175 C   0  0  0  0  0  0  0  0  0  0  0  0
   23.9795  -10.8289  -24.9156 C   0  0  0  0  0  0  0  0  0  0  0  0
   24.1131  -10.4699  -23.5948 C   0  0  0  0  0  0  0  0  0  0  0  0
   22.8993  -10.3211  -22.7578 C   0  0  0  0  0  0  0  0  0  0  0  0
   22.8835  -11.4891  -21.7887 C   0  0  2  0  0  0  0  0  0  0  0  0
   22.7642  -12.7551  -22.4672 N   0  0  0  0  0  0  0  0  0  0  0  0
   21.8185  -11.3736  -20.7763 C   0  0  0  0  0  0  0  0  0  0  0  0
   20.6066  -11.6197  -21.0086 O   0  0  0  0  0  0  0  0  0  0  0  0
   25.3990  -10.2624  -23.1078 C   0  0  0  0  0  0  0  0  0  0  0  0
   26.5087  -10.4055  -23.9005 C   0  0  0  0  0  0  0  0  0  0  0  0
   21.2896  -17.1300  -17.8202 O   0  0  0  0  0  0  0  0  0  0  0  0
   21.4249  -15.7429  -17.6775 C   0  0  0  0  0  0  0  0  0  0  0  0
   22.5788  -15.0697  -17.9690 C   0  0  0  0  0  0  0  0  0  0  0  0
   22.7179  -13.7043  -17.8305 C   0  0  0  0  0  0  0  0  0  0  0  0
   21.6153  -13.0117  -17.3714 C   0  0  0  0  0  0  0  0  0  0  0  0
   21.6313  -11.5544  -17.1796 C   0  0  0  0  0  0  0  0  0  0  0  0
   21.1302  -10.8552  -18.4084 C   0  0  2  0  0  0  0  0  0  0  0  0
   22.1269  -10.9625  -19.4393 N   0  0  0  0  0  0  0  0  0  0  0  0
   20.8966   -9.4233  -18.0316 C   0  0  0  0  0  0  0  0  0  0  0  0
   21.8465   -8.6074  -17.9496 O   0  0  0  0  0  0  0  0  0  0  0  0
   20.4247  -13.6746  -17.0663 C   0  0  0  0  0  0  0  0  0  0  0  0
   20.3362  -15.0441  -17.2222 C   0  0  0  0  0  0  0  0  0  0  0  0
   19.5965   -8.9374  -17.7540 N   0  0  0  0  0  0  0  0  0  0  0  0
   19.3872   -7.5512  -17.2978 C   0  0  1  0  0  0  0  0  0  0  0  0
   18.9688   -6.7698  -18.5157 C   0  0  0  0  0  0  0  0  0  0  0  0
   18.6770   -5.3795  -18.1361 C   0  0  0  0  0  0  0  0  0  0  0  0
   17.4659   -4.8740  -17.7363 C   0  0  0  0  0  0  0  0  0  0  0  0
   17.6379   -3.5393  -17.5093 N   0  0  0  0  0  0  0  0  0  0  0  0
   18.9176   -3.2219  -17.7604 C   0  0  0  0  0  0  0  0  0  0  0  0
   19.5364   -4.3490  -18.1400 N   0  0  0  0  0  0  0  0  0  0  0  0
   18.3165   -7.4945  -16.2883 C   0  0  0  0  0  0  0  0  0  0  0  0
   17.5643   -8.5092  -16.1712 O   0  0  0  0  0  0  0  0  0  0  0  0
   18.0444   -6.4431  -15.4459 O   0  0  0  0  0  0  0  0  0  0  0  0
  2  1  1  0
  3  2  2  0
  4  3  1  0
  5 11  1  0
  5  4  2  0
  6  5  1  0
  7  6  1  0
  7  8  1  6
  9  7  1  0
  9 10  2  0
 11 12  2  0
 12  2  1  0
 13 14  1  0
 14 15  2  0
 15 16  1  0
 17 18  1  0
 17 16  2  0
 19 20  1  0
 19 18  1  1
 20  9  1  0
 21 19  1  0
 22 21  2  0
 23 17  1  0
 24 23  2  0
 24 14  1  0
 25 21  1  0
 26 25  1  0
 26 27  1  6
 27 28  1  0
 28 29  2  0
 29 30  1  0
 31 30  1  0
 32 28  1  0
 32 31  2  0
 33 26  1  0
 33 35  1  0
 34 33  2  0
M  END
$$$$
