YYH.pdb
     RDKit          3D

 35 37  0  0  1  0  0  0  0  0999 V2000
   32.2091  -28.2290  -19.4097 O   0  0  0  0  0  0  0  0  0  0  0  0
   31.0194  -27.8656  -18.7811 C   0  0  0  0  0  0  0  0  0  0  0  0
   29.9652  -27.4594  -19.5720 C   0  0  0  0  0  0  0  0  0  0  0  0
   28.7578  -27.0859  -19.0104 C   0  0  0  0  0  0  0  0  0  0  0  0
   28.5872  -27.1134  -17.6460 C   0  0  0  0  0  0  0  0  0  0  0  0
   27.2833  -26.7079  -17.0703 C   0  0  0  0  0  0  0  0  0  0  0  0
   27.2150  -25.1938  -17.1511 C   0  0  2  0  0  0  0  0  0  0  0  0
   28.2002  -24.5609  -16.3107 N   0  0  0  0  0  0  0  0  0  0  0  0
   25.8786  -24.6665  -16.8218 C   0  0  0  0  0  0  0  0  0  0  0  0
   24.8253  -25.0193  -17.4127 O   0  0  0  0  0  0  0  0  0  0  0  0
   29.6632  -27.5262  -16.8678 C   0  0  0  0  0  0  0  0  0  0  0  0
   30.8614  -27.8971  -17.4219 C   0  0  0  0  0  0  0  0  0  0  0  0
   19.5027  -20.4136  -12.6700 O   0  0  0  0  0  0  0  0  0  0  0  0
   20.7769  -20.8650  -13.0381 C   0  0  0  0  0  0  0  0  0  0  0  0
   21.8186  -20.0230  -13.3125 C   0  0  0  0  0  0  0  0  0  0  0  0
   23.0751  -20.4615  -13.6754 C   0  0  0  0  0  0  0  0  0  0  0  0
   23.2561  -21.8279  -13.7562 C   0  0  0  0  0  0  0  0  0  0  0  0
   24.5457  -22.4251  -14.1319 C   0  0  0  0  0  0  0  0  0  0  0  0
   24.4481  -23.0909  -15.4724 C   0  0  2  0  0  0  0  0  0  0  0  0
   25.7152  -23.6972  -15.7799 N   0  0  0  0  0  0  0  0  0  0  0  0
   24.1064  -22.0226  -16.4669 C   0  0  0  0  0  0  0  0  0  0  0  0
   24.8416  -21.0177  -16.6228 O   0  0  0  0  0  0  0  0  0  0  0  0
   22.2091  -22.7100  -13.4813 C   0  0  0  0  0  0  0  0  0  0  0  0
   20.9686  -22.2203  -13.1218 C   0  0  0  0  0  0  0  0  0  0  0  0
   22.9421  -22.1068  -17.2674 N   0  0  0  0  0  0  0  0  0  0  0  0
   22.5042  -20.9645  -18.0901 C   0  0  1  0  0  0  0  0  0  0  0  0
   22.3508  -21.4943  -19.4917 C   0  0  0  0  0  0  0  0  0  0  0  0
   22.0050  -20.3929  -20.4026 C   0  0  0  0  0  0  0  0  0  0  0  0
   22.7895  -19.8771  -21.4029 C   0  0  0  0  0  0  0  0  0  0  0  0
   22.0936  -18.8534  -21.9777 N   0  0  0  0  0  0  0  0  0  0  0  0
   20.9109  -18.7343  -21.3544 C   0  0  0  0  0  0  0  0  0  0  0  0
   20.8711  -19.6753  -20.4004 N   0  0  0  0  0  0  0  0  0  0  0  0
   21.2075  -20.4520  -17.6160 C   0  0  0  0  0  0  0  0  0  0  0  0
   20.4233  -21.2715  -17.0480 O   0  0  0  0  0  0  0  0  0  0  0  0
   20.7524  -19.1595  -17.7238 O   0  0  0  0  0  0  0  0  0  0  0  0
  2  1  1  0
  3  2  2  0
  4  3  1  0
  5 11  1  0
  5  4  2  0
  6  5  1  0
  7  6  1  0
  7  8  1  1
  9  7  1  0
  9 10  2  0
 11 12  2  0
 12  2  1  0
 13 14  1  0
 14 15  2  0
 15 16  1  0
 17 18  1  0
 17 16  2  0
 19 20  1  0
 19 18  1  1
 20  9  1  0
 21 19  1  0
 22 21  2  0
 23 17  1  0
 24 23  2  0
 24 14  1  0
 25 21  1  0
 26 25  1  0
 26 27  1  6
 27 28  1  0
 28 29  2  0
 29 30  1  0
 31 30  1  0
 32 28  1  0
 32 31  2  0
 33 26  1  0
 33 35  1  0
 34 33  2  0
M  END
$$$$
