YYH.pdb
     RDKit          3D

 35 37  0  0  1  0  0  0  0  0999 V2000
   26.2651  -30.4342  -24.3786 O   0  0  0  0  0  0  0  0  0  0  0  0
   25.4238  -29.5509  -23.7044 C   0  0  0  0  0  0  0  0  0  0  0  0
   24.5532  -28.7857  -24.4515 C   0  0  0  0  0  0  0  0  0  0  0  0
   23.6923  -27.8902  -23.8434 C   0  0  0  0  0  0  0  0  0  0  0  0
   23.6901  -27.7471  -22.4757 C   0  0  0  0  0  0  0  0  0  0  0  0
   22.7576  -26.7802  -21.8496 C   0  0  0  0  0  0  0  0  0  0  0  0
   23.4680  -25.4394  -21.8137 C   0  0  2  0  0  0  0  0  0  0  0  0
   24.5424  -25.4205  -20.8532 N   0  0  0  0  0  0  0  0  0  0  0  0
   22.5509  -24.3172  -21.5452 C   0  0  0  0  0  0  0  0  0  0  0  0
   22.3655  -23.8274  -20.4012 O   0  0  0  0  0  0  0  0  0  0  0  0
   24.5760  -28.5286  -21.7420 C   0  0  0  0  0  0  0  0  0  0  0  0
   25.4306  -29.4172  -22.3422 C   0  0  0  0  0  0  0  0  0  0  0  0
   17.2754  -17.4839  -23.0395 O   0  0  0  0  0  0  0  0  0  0  0  0
   18.1516  -18.5673  -23.1858 C   0  0  0  0  0  0  0  0  0  0  0  0
   19.4763  -18.5087  -22.8521 C   0  0  0  0  0  0  0  0  0  0  0  0
   20.3436  -19.5719  -22.9939 C   0  0  0  0  0  0  0  0  0  0  0  0
   19.8139  -20.7412  -23.5021 C   0  0  0  0  0  0  0  0  0  0  0  0
   20.6302  -21.9471  -23.7028 C   0  0  0  0  0  0  0  0  0  0  0  0
   20.8682  -22.6462  -22.3972 C   0  0  2  0  0  0  0  0  0  0  0  0
   21.8061  -23.7152  -22.6104 N   0  0  0  0  0  0  0  0  0  0  0  0
   19.5434  -23.1753  -21.9371 C   0  0  0  0  0  0  0  0  0  0  0  0
   19.1511  -24.3223  -22.2618 O   0  0  0  0  0  0  0  0  0  0  0  0
   18.4646  -20.8282  -23.8509 C   0  0  0  0  0  0  0  0  0  0  0  0
   17.6368  -19.7343  -23.6897 C   0  0  0  0  0  0  0  0  0  0  0  0
   18.6851  -22.4019  -21.1196 N   0  0  0  0  0  0  0  0  0  0  0  0
   17.4031  -22.9476  -20.6376 C   0  0  1  0  0  0  0  0  0  0  0  0
   17.7550  -24.0551  -19.6793 C   0  0  0  0  0  0  0  0  0  0  0  0
   16.5261  -24.7066  -19.2022 C   0  0  0  0  0  0  0  0  0  0  0  0
   15.6981  -24.2659  -18.2010 C   0  0  0  0  0  0  0  0  0  0  0  0
   14.6970  -25.1838  -18.0684 N   0  0  0  0  0  0  0  0  0  0  0  0
   14.8947  -26.1675  -18.9599 C   0  0  0  0  0  0  0  0  0  0  0  0
   16.0089  -25.8644  -19.6412 N   0  0  0  0  0  0  0  0  0  0  0  0
   16.6338  -21.9120  -19.9275 C   0  0  0  0  0  0  0  0  0  0  0  0
   17.2152  -21.2875  -18.9888 O   0  0  0  0  0  0  0  0  0  0  0  0
   15.3339  -21.5441  -20.1804 O   0  0  0  0  0  0  0  0  0  0  0  0
  2  1  1  0
  3  2  2  0
  4  3  1  0
  5 11  1  0
  5  4  2  0
  6  5  1  0
  7  6  1  0
  7  8  1  1
  9  7  1  0
  9 10  2  0
 11 12  2  0
 12  2  1  0
 13 14  1  0
 14 15  2  0
 15 16  1  0
 17 18  1  0
 17 16  2  0
 19 20  1  0
 19 18  1  6
 20  9  1  0
 21 19  1  0
 22 21  2  0
 23 17  1  0
 24 23  2  0
 24 14  1  0
 25 21  1  0
 26 25  1  0
 26 27  1  1
 27 28  1  0
 28 29  2  0
 29 30  1  0
 31 30  1  0
 32 28  1  0
 32 31  2  0
 33 26  1  0
 33 35  1  0
 34 33  2  0
M  END
$$$$
