YYH.pdb
     RDKit          3D

 35 37  0  0  1  0  0  0  0  0999 V2000
   26.6434  -15.1305  -23.1400 O   0  0  0  0  0  0  0  0  0  0  0  0
   26.0073  -15.9374  -22.1984 C   0  0  0  0  0  0  0  0  0  0  0  0
   25.6272  -17.2063  -22.5818 C   0  0  0  0  0  0  0  0  0  0  0  0
   24.9919  -18.0566  -21.6951 C   0  0  0  0  0  0  0  0  0  0  0  0
   24.7272  -17.6486  -20.4087 C   0  0  0  0  0  0  0  0  0  0  0  0
   24.0452  -18.5794  -19.4789 C   0  0  0  0  0  0  0  0  0  0  0  0
   25.1089  -19.5082  -18.9225 C   0  0  2  0  0  0  0  0  0  0  0  0
   25.5142  -20.5048  -19.8815 N   0  0  0  0  0  0  0  0  0  0  0  0
   24.6886  -20.1712  -17.6749 C   0  0  0  0  0  0  0  0  0  0  0  0
   23.9675  -21.2018  -17.6423 O   0  0  0  0  0  0  0  0  0  0  0  0
   25.1191  -16.3653  -20.0436 C   0  0  0  0  0  0  0  0  0  0  0  0
   25.7491  -15.5201  -20.9206 C   0  0  0  0  0  0  0  0  0  0  0  0
   23.8324  -21.7730   -9.1037 O   0  0  0  0  0  0  0  0  0  0  0  0
   24.1810  -21.1833  -10.3258 C   0  0  0  0  0  0  0  0  0  0  0  0
   23.5629  -20.0693  -10.8223 C   0  0  0  0  0  0  0  0  0  0  0  0
   23.9018  -19.4843  -12.0247 C   0  0  0  0  0  0  0  0  0  0  0  0
   24.9223  -20.0800  -12.7387 C   0  0  0  0  0  0  0  0  0  0  0  0
   25.3797  -19.5564  -14.0339 C   0  0  0  0  0  0  0  0  0  0  0  0
   24.5956  -20.1680  -15.1568 C   0  0  2  0  0  0  0  0  0  0  0  0
   25.0964  -19.6540  -16.4029 N   0  0  0  0  0  0  0  0  0  0  0  0
   23.1625  -19.7800  -14.9508 C   0  0  0  0  0  0  0  0  0  0  0  0
   22.7604  -18.6167  -15.1951 O   0  0  0  0  0  0  0  0  0  0  0  0
   25.5702  -21.2183  -12.2546 C   0  0  0  0  0  0  0  0  0  0  0  0
   25.1934  -21.7662  -11.0440 C   0  0  0  0  0  0  0  0  0  0  0  0
   22.2089  -20.7105  -14.4732 N   0  0  0  0  0  0  0  0  0  0  0  0
   20.8117  -20.3069  -14.2312 C   0  0  1  0  0  0  0  0  0  0  0  0
   20.1790  -20.1581  -15.5900 C   0  0  0  0  0  0  0  0  0  0  0  0
   18.7726  -19.7559  -15.4402 C   0  0  0  0  0  0  0  0  0  0  0  0
   18.2902  -18.4753  -15.3431 C   0  0  0  0  0  0  0  0  0  0  0  0
   16.9369  -18.5618  -15.1889 N   0  0  0  0  0  0  0  0  0  0  0  0
   16.5860  -19.8573  -15.1895 C   0  0  0  0  0  0  0  0  0  0  0  0
   17.7107  -20.5706  -15.3428 N   0  0  0  0  0  0  0  0  0  0  0  0
   20.0973  -21.3454  -13.4697 C   0  0  0  0  0  0  0  0  0  0  0  0
   19.1216  -20.9782  -12.7471 O   0  0  0  0  0  0  0  0  0  0  0  0
   20.3793  -22.6906  -13.4619 O   0  0  0  0  0  0  0  0  0  0  0  0
  2  1  1  0
  3  2  2  0
  4  3  1  0
  5 11  1  0
  5  4  2  0
  6  5  1  0
  7  6  1  0
  7  8  1  6
  9  7  1  0
  9 10  2  0
 11 12  2  0
 12  2  1  0
 13 14  1  0
 14 15  2  0
 15 16  1  0
 17 18  1  0
 17 16  2  0
 19 20  1  0
 19 18  1  1
 20  9  1  0
 21 19  1  0
 22 21  2  0
 23 17  1  0
 24 23  2  0
 24 14  1  0
 25 21  1  0
 26 25  1  0
 26 27  1  6
 27 28  1  0
 28 29  2  0
 29 30  1  0
 31 30  1  0
 32 28  1  0
 32 31  2  0
 33 26  1  0
 33 35  1  0
 34 33  2  0
M  END
$$$$
