YYH.pdb
     RDKit          3D

 35 37  0  0  1  0  0  0  0  0999 V2000
   15.2150  -17.3689  -12.0200 O   0  0  0  0  0  0  0  0  0  0  0  0
   15.3309  -15.9800  -12.0384 C   0  0  0  0  0  0  0  0  0  0  0  0
   14.6860  -15.2881  -13.0420 C   0  0  0  0  0  0  0  0  0  0  0  0
   14.7613  -13.9091  -13.1166 C   0  0  0  0  0  0  0  0  0  0  0  0
   15.4846  -13.2008  -12.1858 C   0  0  0  0  0  0  0  0  0  0  0  0
   15.5491  -11.7238  -12.2889 C   0  0  0  0  0  0  0  0  0  0  0  0
   14.7296  -11.1634  -11.1409 C   0  0  2  0  0  0  0  0  0  0  0  0
   13.3452  -11.5567  -11.2202 N   0  0  0  0  0  0  0  0  0  0  0  0
   14.8170   -9.6953  -11.0435 C   0  0  0  0  0  0  0  0  0  0  0  0
   14.0595   -8.9091  -11.6691 O   0  0  0  0  0  0  0  0  0  0  0  0
   16.1267  -13.9187  -11.1827 C   0  0  0  0  0  0  0  0  0  0  0  0
   16.0538  -15.2858  -11.1063 C   0  0  0  0  0  0  0  0  0  0  0  0
   10.7419   -6.5098   -6.7546 O   0  0  0  0  0  0  0  0  0  0  0  0
   12.0385   -6.7473   -7.2291 C   0  0  0  0  0  0  0  0  0  0  0  0
   12.5606   -8.0014   -7.3842 C   0  0  0  0  0  0  0  0  0  0  0  0
   13.8364   -8.2413   -7.8509 C   0  0  0  0  0  0  0  0  0  0  0  0
   14.5990   -7.1352   -8.1686 C   0  0  0  0  0  0  0  0  0  0  0  0
   15.9737   -7.2526   -8.6758 C   0  0  0  0  0  0  0  0  0  0  0  0
   15.9702   -7.6534  -10.1213 C   0  0  2  0  0  0  0  0  0  0  0  0
   15.8008   -9.0789  -10.2044 N   0  0  0  0  0  0  0  0  0  0  0  0
   17.2900   -7.2332  -10.6943 C   0  0  0  0  0  0  0  0  0  0  0  0
   18.3693   -7.5099  -10.1170 O   0  0  0  0  0  0  0  0  0  0  0  0
   14.0903   -5.8433   -8.0196 C   0  0  0  0  0  0  0  0  0  0  0  0
   12.8057   -5.6561   -7.5480 C   0  0  0  0  0  0  0  0  0  0  0  0
   17.3689   -6.5087  -11.9076 N   0  0  0  0  0  0  0  0  0  0  0  0
   18.6731   -6.1165  -12.4723 C   0  0  1  0  0  0  0  0  0  0  0  0
   18.6487   -6.5456  -13.9160 C   0  0  0  0  0  0  0  0  0  0  0  0
   19.9806   -6.3597  -14.5107 C   0  0  0  0  0  0  0  0  0  0  0  0
   21.1327   -6.0106  -13.8526 C   0  0  0  0  0  0  0  0  0  0  0  0
   22.1232   -5.9215  -14.7872 N   0  0  0  0  0  0  0  0  0  0  0  0
   21.6044   -6.2062  -15.9919 C   0  0  0  0  0  0  0  0  0  0  0  0
   20.3028   -6.4701  -15.8086 N   0  0  0  0  0  0  0  0  0  0  0  0
   18.8512   -4.6565  -12.3987 C   0  0  0  0  0  0  0  0  0  0  0  0
   20.0355   -4.2128  -12.3007 O   0  0  0  0  0  0  0  0  0  0  0  0
   17.8545   -3.7105  -12.4280 O   0  0  0  0  0  0  0  0  0  0  0  0
  2  1  1  0
  3  2  2  0
  4  3  1  0
  5 11  1  0
  5  4  2  0
  6  5  1  0
  7  6  1  0
  7  8  1  6
  9  7  1  0
  9 10  2  0
 11 12  2  0
 12  2  1  0
 13 14  1  0
 14 15  2  0
 15 16  1  0
 17 18  1  0
 17 16  2  0
 19 20  1  0
 19 18  1  1
 20  9  1  0
 21 19  1  0
 22 21  2  0
 23 17  1  0
 24 23  2  0
 24 14  1  0
 25 21  1  0
 26 25  1  0
 26 27  1  6
 27 28  1  0
 28 29  2  0
 29 30  1  0
 31 30  1  0
 32 28  1  0
 32 31  2  0
 33 26  1  0
 33 35  1  0
 34 33  2  0
M  END
$$$$
