YYH.pdb
     RDKit          3D

 35 37  0  0  1  0  0  0  0  0999 V2000
   30.0271  -15.0369  -20.9422 O   0  0  0  0  0  0  0  0  0  0  0  0
   29.0021  -15.8191  -20.4129 C   0  0  0  0  0  0  0  0  0  0  0  0
   28.3936  -16.7386  -21.2410 C   0  0  0  0  0  0  0  0  0  0  0  0
   27.3703  -17.5452  -20.7772 C   0  0  0  0  0  0  0  0  0  0  0  0
   26.9401  -17.4433  -19.4750 C   0  0  0  0  0  0  0  0  0  0  0  0
   25.8417  -18.3194  -19.0038 C   0  0  0  0  0  0  0  0  0  0  0  0
   26.4742  -19.4008  -18.1470 C   0  0  2  0  0  0  0  0  0  0  0  0
   27.3837  -20.2270  -18.9004 N   0  0  0  0  0  0  0  0  0  0  0  0
   25.4750  -20.2546  -17.4798 C   0  0  0  0  0  0  0  0  0  0  0  0
   24.5523  -20.8543  -18.0898 O   0  0  0  0  0  0  0  0  0  0  0  0
   27.5678  -16.5096  -18.6577 C   0  0  0  0  0  0  0  0  0  0  0  0
   28.5825  -15.7085  -19.1148 C   0  0  0  0  0  0  0  0  0  0  0  0
   28.0520  -26.1440  -17.0276 O   0  0  0  0  0  0  0  0  0  0  0  0
   27.3068  -25.1694  -16.3512 C   0  0  0  0  0  0  0  0  0  0  0  0
   26.0970  -25.4241  -15.7672 C   0  0  0  0  0  0  0  0  0  0  0  0
   25.3588  -24.4687  -15.1000 C   0  0  0  0  0  0  0  0  0  0  0  0
   25.8987  -23.1995  -15.0374 C   0  0  0  0  0  0  0  0  0  0  0  0
   25.2140  -22.0912  -14.3564 C   0  0  0  0  0  0  0  0  0  0  0  0
   24.5208  -21.2085  -15.3515 C   0  0  2  0  0  0  0  0  0  0  0  0
   25.5121  -20.4452  -16.0606 N   0  0  0  0  0  0  0  0  0  0  0  0
   23.6037  -20.3119  -14.5758 C   0  0  0  0  0  0  0  0  0  0  0  0
   23.8525  -19.0902  -14.4338 O   0  0  0  0  0  0  0  0  0  0  0  0
   27.1324  -22.9123  -15.6253 C   0  0  0  0  0  0  0  0  0  0  0  0
   27.8330  -23.9048  -16.2824 C   0  0  0  0  0  0  0  0  0  0  0  0
   22.4229  -20.8090  -13.9742 N   0  0  0  0  0  0  0  0  0  0  0  0
   21.3485  -19.8951  -13.5454 C   0  0  1  0  0  0  0  0  0  0  0  0
   21.2145  -18.8669  -14.6380 C   0  0  0  0  0  0  0  0  0  0  0  0
   20.1141  -17.9452  -14.3186 C   0  0  0  0  0  0  0  0  0  0  0  0
   19.2608  -18.0245  -13.2474 C   0  0  0  0  0  0  0  0  0  0  0  0
   18.3788  -16.9884  -13.3531 N   0  0  0  0  0  0  0  0  0  0  0  0
   18.6731  -16.2844  -14.4573 C   0  0  0  0  0  0  0  0  0  0  0  0
   19.7287  -16.8769  -15.0334 N   0  0  0  0  0  0  0  0  0  0  0  0
   20.0767  -20.6232  -13.4000 C   0  0  0  0  0  0  0  0  0  0  0  0
   19.3248  -20.3054  -12.4290 O   0  0  0  0  0  0  0  0  0  0  0  0
   19.6111  -21.6238  -14.2193 O   0  0  0  0  0  0  0  0  0  0  0  0
  2  1  1  0
  3  2  2  0
  4  3  1  0
  5 11  1  0
  5  4  2  0
  6  5  1  0
  7  6  1  0
  7  8  1  6
  9  7  1  0
  9 10  2  0
 11 12  2  0
 12  2  1  0
 13 14  1  0
 14 15  2  0
 15 16  1  0
 17 18  1  0
 17 16  2  0
 19 20  1  0
 19 18  1  1
 20  9  1  0
 21 19  1  0
 22 21  2  0
 23 17  1  0
 24 23  2  0
 24 14  1  0
 25 21  1  0
 26 25  1  0
 26 27  1  6
 27 28  1  0
 28 29  2  0
 29 30  1  0
 31 30  1  0
 32 28  1  0
 32 31  2  0
 33 26  1  0
 33 35  1  0
 34 33  2  0
M  END
$$$$
