YYH.pdb
     RDKit          3D

 35 37  0  0  1  0  0  0  0  0999 V2000
   31.7267  -10.5066  -18.1355 O   0  0  0  0  0  0  0  0  0  0  0  0
   30.3895  -10.1136  -18.1391 C   0  0  0  0  0  0  0  0  0  0  0  0
   29.5767  -10.5866  -19.1477 C   0  0  0  0  0  0  0  0  0  0  0  0
   28.2407  -10.2343  -19.2083 C   0  0  0  0  0  0  0  0  0  0  0  0
   27.6972   -9.4015  -18.2584 C   0  0  0  0  0  0  0  0  0  0  0  0
   26.2629   -9.0396  -18.3469 C   0  0  0  0  0  0  0  0  0  0  0  0
   25.5461   -9.7965  -17.2438 C   0  0  2  0  0  0  0  0  0  0  0  0
   25.6704  -11.2243  -17.3967 N   0  0  0  0  0  0  0  0  0  0  0  0
   24.1203   -9.4371  -17.1413 C   0  0  0  0  0  0  0  0  0  0  0  0
   23.2213   -9.9401  -17.8636 O   0  0  0  0  0  0  0  0  0  0  0  0
   28.5349   -8.9364  -17.2505 C   0  0  0  0  0  0  0  0  0  0  0  0
   29.8598   -9.2840  -17.1879 C   0  0  0  0  0  0  0  0  0  0  0  0
   20.8563  -13.9128  -13.6580 O   0  0  0  0  0  0  0  0  0  0  0  0
   21.0923  -12.5524  -13.8960 C   0  0  0  0  0  0  0  0  0  0  0  0
   20.2401  -11.7595  -14.6134 C   0  0  0  0  0  0  0  0  0  0  0  0
   20.4671  -10.4198  -14.8510 C   0  0  0  0  0  0  0  0  0  0  0  0
   21.6245   -9.8834  -14.3227 C   0  0  0  0  0  0  0  0  0  0  0  0
   21.9844   -8.4696  -14.5031 C   0  0  0  0  0  0  0  0  0  0  0  0
   22.2924   -8.1833  -15.9429 C   0  0  2  0  0  0  0  0  0  0  0  0
   23.6815   -8.4671  -16.1830 N   0  0  0  0  0  0  0  0  0  0  0  0
   21.9909   -6.7333  -16.1741 C   0  0  0  0  0  0  0  0  0  0  0  0
   22.7212   -5.8313  -15.6968 O   0  0  0  0  0  0  0  0  0  0  0  0
   22.5119  -10.6708  -13.5863 C   0  0  0  0  0  0  0  0  0  0  0  0
   22.2389  -12.0084  -13.3762 C   0  0  0  0  0  0  0  0  0  0  0  0
   20.8717   -6.3266  -16.9391 N   0  0  0  0  0  0  0  0  0  0  0  0
   20.6150   -4.8997  -17.2069 C   0  0  1  0  0  0  0  0  0  0  0  0
   19.5251   -4.8596  -18.2458 C   0  0  0  0  0  0  0  0  0  0  0  0
   20.0731   -5.2477  -19.5540 C   0  0  0  0  0  0  0  0  0  0  0  0
   21.3977   -5.2996  -19.9071 C   0  0  0  0  0  0  0  0  0  0  0  0
   21.4543   -5.6799  -21.2166 N   0  0  0  0  0  0  0  0  0  0  0  0
   20.2026   -5.8594  -21.6666 C   0  0  0  0  0  0  0  0  0  0  0  0
   19.3746   -5.5933  -20.6464 N   0  0  0  0  0  0  0  0  0  0  0  0
   20.1525   -4.2188  -15.9857 C   0  0  0  0  0  0  0  0  0  0  0  0
   19.5801   -4.9240  -15.1002 O   0  0  0  0  0  0  0  0  0  0  0  0
   20.2800   -2.8805  -15.6998 O   0  0  0  0  0  0  0  0  0  0  0  0
  2  1  1  0
  3  2  2  0
  4  3  1  0
  5 11  1  0
  5  4  2  0
  6  5  1  0
  7  6  1  0
  7  8  1  6
  9  7  1  0
  9 10  2  0
 11 12  2  0
 12  2  1  0
 13 14  1  0
 14 15  2  0
 15 16  1  0
 17 18  1  0
 17 16  2  0
 19 20  1  0
 19 18  1  1
 20  9  1  0
 21 19  1  0
 22 21  2  0
 23 17  1  0
 24 23  2  0
 24 14  1  0
 25 21  1  0
 26 25  1  0
 26 27  1  6
 27 28  1  0
 28 29  2  0
 29 30  1  0
 31 30  1  0
 32 28  1  0
 32 31  2  0
 33 26  1  0
 33 35  1  0
 34 33  2  0
M  END
$$$$
