YYH.pdb
     RDKit          3D

 35 37  0  0  1  0  0  0  0  0999 V2000
   16.8229  -17.1122  -19.1652 O   0  0  0  0  0  0  0  0  0  0  0  0
   17.0200  -15.8423  -18.6256 C   0  0  0  0  0  0  0  0  0  0  0  0
   15.9234  -15.1725  -18.1249 C   0  0  0  0  0  0  0  0  0  0  0  0
   16.0515  -13.9095  -17.5761 C   0  0  0  0  0  0  0  0  0  0  0  0
   17.2815  -13.2969  -17.5202 C   0  0  0  0  0  0  0  0  0  0  0  0
   17.3907  -11.9432  -16.9271 C   0  0  0  0  0  0  0  0  0  0  0  0
   18.0137  -12.1104  -15.5532 C   0  0  2  0  0  0  0  0  0  0  0  0
   17.1463  -12.8206  -14.6473 N   0  0  0  0  0  0  0  0  0  0  0  0
   18.4083  -10.8259  -14.9477 C   0  0  0  0  0  0  0  0  0  0  0  0
   17.6337  -10.1134  -14.2581 O   0  0  0  0  0  0  0  0  0  0  0  0
   18.3733  -13.9904  -18.0308 C   0  0  0  0  0  0  0  0  0  0  0  0
   18.2493  -15.2426  -18.5755 C   0  0  0  0  0  0  0  0  0  0  0  0
   23.4353   -3.5852  -14.6908 O   0  0  0  0  0  0  0  0  0  0  0  0
   22.9574   -4.9014  -14.6450 C   0  0  0  0  0  0  0  0  0  0  0  0
   22.1962   -5.3857  -13.6176 C   0  0  0  0  0  0  0  0  0  0  0  0
   21.7229   -6.6804  -13.5670 C   0  0  0  0  0  0  0  0  0  0  0  0
   22.0535   -7.5036  -14.6250 C   0  0  0  0  0  0  0  0  0  0  0  0
   21.6127   -8.9043  -14.6933 C   0  0  0  0  0  0  0  0  0  0  0  0
   20.1154   -8.9847  -14.7336 C   0  0  2  0  0  0  0  0  0  0  0  0
   19.7352  -10.3155  -15.1237 N   0  0  0  0  0  0  0  0  0  0  0  0
   19.6507   -7.9750  -15.7392 C   0  0  0  0  0  0  0  0  0  0  0  0
   19.7030   -8.2095  -16.9709 O   0  0  0  0  0  0  0  0  0  0  0  0
   22.8295   -7.0344  -15.6869 C   0  0  0  0  0  0  0  0  0  0  0  0
   23.2794   -5.7285  -15.6904 C   0  0  0  0  0  0  0  0  0  0  0  0
   19.1355   -6.7192  -15.3380 N   0  0  0  0  0  0  0  0  0  0  0  0
   18.6822   -5.7326  -16.3352 C   0  0  1  0  0  0  0  0  0  0  0  0
   17.4180   -6.2932  -16.9321 C   0  0  0  0  0  0  0  0  0  0  0  0
   17.4682   -6.1777  -18.3972 C   0  0  0  0  0  0  0  0  0  0  0  0
   18.3751   -6.7721  -19.2376 C   0  0  0  0  0  0  0  0  0  0  0  0
   18.0725   -6.3753  -20.5078 N   0  0  0  0  0  0  0  0  0  0  0  0
   17.0091   -5.5577  -20.4609 C   0  0  0  0  0  0  0  0  0  0  0  0
   16.6530   -5.4469  -19.1732 N   0  0  0  0  0  0  0  0  0  0  0  0
   18.3883   -4.4418  -15.6900 C   0  0  0  0  0  0  0  0  0  0  0  0
   17.8909   -4.4673  -14.5234 O   0  0  0  0  0  0  0  0  0  0  0  0
   18.6017   -3.1944  -16.2262 O   0  0  0  0  0  0  0  0  0  0  0  0
  2  1  1  0
  3  2  2  0
  4  3  1  0
  5 11  1  0
  5  4  2  0
  6  5  1  0
  7  6  1  0
  7  8  1  1
  9  7  1  0
  9 10  2  0
 11 12  2  0
 12  2  1  0
 13 14  1  0
 14 15  2  0
 15 16  1  0
 17 18  1  0
 17 16  2  0
 19 20  1  0
 19 18  1  6
 20  9  1  0
 21 19  1  0
 22 21  2  0
 23 17  1  0
 24 23  2  0
 24 14  1  0
 25 21  1  0
 26 25  1  0
 26 27  1  1
 27 28  1  0
 28 29  2  0
 29 30  1  0
 31 30  1  0
 32 28  1  0
 32 31  2  0
 33 26  1  0
 33 35  1  0
 34 33  2  0
M  END
$$$$
