YKI.pdb
     RDKit          3D

 30 30  0  0  1  0  0  0  0  0999 V2000
   17.8005  -18.1765  -14.7747 O   0  0  0  0  0  0  0  0  0  0  0  0
   18.7980  -18.7284  -13.9942 C   0  0  0  0  0  0  0  0  0  0  0  0
   19.9492  -18.0409  -13.6683 C   0  0  0  0  0  0  0  0  0  0  0  0
   20.9198  -18.6232  -12.8891 C   0  0  0  0  0  0  0  0  0  0  0  0
   20.7893  -19.8991  -12.4059 C   0  0  0  0  0  0  0  0  0  0  0  0
   21.8681  -20.5213  -11.5595 C   0  0  0  0  0  0  0  0  0  0  0  0
   23.1058  -20.7513  -12.4422 C   0  0  2  0  0  0  0  0  0  0  0  0
   22.7616  -21.7595  -13.3995 N   0  0  0  0  0  0  0  0  0  0  0  0
   24.2508  -21.1680  -11.5943 C   0  0  0  0  0  0  0  0  0  0  0  0
   24.1961  -22.3260  -11.0744 O   0  0  0  0  0  0  0  0  0  0  0  0
   19.6464  -20.5939  -12.7244 C   0  0  0  0  0  0  0  0  0  0  0  0
   18.6691  -20.0082  -13.5086 C   0  0  0  0  0  0  0  0  0  0  0  0
   25.3554  -20.3039  -11.3811 N   0  0  0  0  0  0  0  0  0  0  0  0
   26.5213  -20.7266  -10.6684 C   0  0  1  0  0  0  0  0  0  0  0  0
   27.7921  -20.4978  -11.4814 C   0  0  0  0  0  0  0  0  0  0  0  0
   27.8488  -21.3924  -12.6847 C   0  0  0  0  0  0  0  0  0  0  0  0
   29.0949  -21.0444  -13.4779 C   0  0  0  0  0  0  0  0  0  0  0  0
   29.1380  -21.8319  -14.7799 C   0  0  0  0  0  0  0  0  0  0  0  0
   30.2980  -21.4402  -15.5280 N   0  0  0  0  0  0  0  0  0  0  0  0
   26.6630  -20.0976   -9.3463 C   0  0  0  0  0  0  0  0  0  0  0  0
   26.2278  -18.9125   -9.1707 O   0  0  0  0  0  0  0  0  0  0  0  0
   28.9088  -20.6586   -3.5924 C   0  0  0  0  0  0  0  0  0  0  0  0
   27.9390  -20.0528   -4.5543 C   0  0  0  0  0  0  0  0  0  0  0  0
   28.0280  -20.7780   -5.8813 C   0  0  2  0  0  0  0  0  0  0  0  0
   29.4528  -20.9515   -6.3327 C   0  0  0  0  0  0  0  0  0  0  0  0
   27.3154  -19.9578   -6.9653 C   0  0  2  0  0  0  0  0  0  0  0  0
   27.2554  -20.6995   -8.2037 N   0  0  0  0  0  0  0  0  0  0  0  0
   28.1336  -18.7481   -7.1808 C   0  0  0  0  0  0  0  0  0  0  0  0
   29.0221  -18.6833   -8.0821 O   0  0  0  0  0  0  0  0  0  0  0  0
   27.9303  -17.6415   -6.3759 O   0  0  0  0  0  0  0  0  0  0  0  0
  2  1  1  0
  3  2  2  0
  4  3  1  0
  5 11  1  0
  5  4  2  0
  6  5  1  0
  7  6  1  0
  7  8  1  6
  9  7  1  0
 10  9  2  0
 11 12  2  0
 12  2  1  0
 13  9  1  0
 14 13  1  0
 14 15  1  6
 16 15  1  0
 17 16  1  0
 18 17  1  0
 19 18  1  0
 20 14  1  0
 20 27  1  0
 21 20  2  0
 22 23  1  0
 23 24  1  0
 24 25  1  6
 26 27  1  6
 26 24  1  0
 26 28  1  0
 28 29  2  0
 28 30  1  0
M  END
$$$$
