YKI.pdb
     RDKit          3D

 30 30  0  0  1  0  0  0  0  0999 V2000
   24.2189  -21.4520   -6.7048 O   0  0  0  0  0  0  0  0  0  0  0  0
   24.6467  -21.1581   -7.9852 C   0  0  0  0  0  0  0  0  0  0  0  0
   23.7782  -20.7748   -8.9866 C   0  0  0  0  0  0  0  0  0  0  0  0
   24.2411  -20.4903  -10.2488 C   0  0  0  0  0  0  0  0  0  0  0  0
   25.5718  -20.5737  -10.5662 C   0  0  0  0  0  0  0  0  0  0  0  0
   26.0575  -20.2646  -11.9575 C   0  0  0  0  0  0  0  0  0  0  0  0
   25.3754  -21.2342  -12.9367 C   0  0  2  0  0  0  0  0  0  0  0  0
   26.3507  -22.2141  -13.3104 N   0  0  0  0  0  0  0  0  0  0  0  0
   24.8747  -20.4815  -14.1140 C   0  0  0  0  0  0  0  0  0  0  0  0
   25.6749  -20.3314  -15.0894 O   0  0  0  0  0  0  0  0  0  0  0  0
   26.4466  -20.9550   -9.5763 C   0  0  0  0  0  0  0  0  0  0  0  0
   25.9811  -21.2413   -8.3056 C   0  0  0  0  0  0  0  0  0  0  0  0
   23.5566  -19.9578  -14.1407 N   0  0  0  0  0  0  0  0  0  0  0  0
   23.0319  -19.2849  -15.2886 C   0  0  1  0  0  0  0  0  0  0  0  0
   21.5554  -19.6051  -15.5030 C   0  0  0  0  0  0  0  0  0  0  0  0
   21.0259  -18.9670  -16.7536 C   0  0  0  0  0  0  0  0  0  0  0  0
   19.5557  -19.3203  -16.8820 C   0  0  0  0  0  0  0  0  0  0  0  0
   18.9954  -18.8089  -18.2018 C   0  0  0  0  0  0  0  0  0  0  0  0
   18.8271  -17.3864  -18.1214 N   0  0  0  0  0  0  0  0  0  0  0  0
   23.2189  -17.8264  -15.2523 C   0  0  0  0  0  0  0  0  0  0  0  0
   22.7666  -17.1651  -14.2609 O   0  0  0  0  0  0  0  0  0  0  0  0
   27.5734  -15.2665  -17.3306 C   0  0  0  0  0  0  0  0  0  0  0  0
   26.1410  -15.6925  -17.3305 C   0  0  0  0  0  0  0  0  0  0  0  0
   25.4707  -15.2013  -16.0640 C   0  0  2  0  0  0  0  0  0  0  0  0
   26.0935  -15.7973  -14.8309 C   0  0  0  0  0  0  0  0  0  0  0  0
   23.9953  -15.6238  -16.0649 C   0  0  2  0  0  0  0  0  0  0  0  0
   23.8780  -17.0525  -16.2451 N   0  0  0  0  0  0  0  0  0  0  0  0
   23.3677  -14.9512  -17.2195 C   0  0  0  0  0  0  0  0  0  0  0  0
   23.1667  -13.7003  -17.2472 O   0  0  0  0  0  0  0  0  0  0  0  0
   22.9824  -15.7044  -18.3140 O   0  0  0  0  0  0  0  0  0  0  0  0
  2  1  1  0
  3  2  2  0
  4  3  1  0
  5 11  1  0
  5  4  2  0
  6  5  1  0
  7  6  1  0
  7  8  1  6
  9  7  1  0
 10  9  2  0
 11 12  2  0
 12  2  1  0
 13  9  1  0
 14 13  1  0
 14 15  1  1
 16 15  1  0
 17 16  1  0
 18 17  1  0
 19 18  1  0
 20 14  1  0
 20 27  1  0
 21 20  2  0
 22 23  1  0
 23 24  1  0
 24 25  1  1
 26 27  1  6
 26 24  1  0
 26 28  1  0
 28 29  2  0
 28 30  1  0
M  END
$$$$
