YKI.pdb
     RDKit          3D

 30 30  0  0  1  0  0  0  0  0999 V2000
   21.2975  -22.6756   -7.6390 O   0  0  0  0  0  0  0  0  0  0  0  0
   22.1084  -22.0512   -8.5670 C   0  0  0  0  0  0  0  0  0  0  0  0
   23.2466  -21.3582   -8.2087 C   0  0  0  0  0  0  0  0  0  0  0  0
   24.0289  -20.7496   -9.1607 C   0  0  0  0  0  0  0  0  0  0  0  0
   23.7169  -20.8032  -10.4942 C   0  0  0  0  0  0  0  0  0  0  0  0
   24.5837  -20.1233  -11.5207 C   0  0  0  0  0  0  0  0  0  0  0  0
   25.1293  -21.1930  -12.4809 C   0  0  2  0  0  0  0  0  0  0  0  0
   26.1612  -21.9007  -11.7839 N   0  0  0  0  0  0  0  0  0  0  0  0
   25.6454  -20.5410  -13.7105 C   0  0  0  0  0  0  0  0  0  0  0  0
   26.6905  -19.8279  -13.5936 O   0  0  0  0  0  0  0  0  0  0  0  0
   22.5848  -21.4908  -10.8630 C   0  0  0  0  0  0  0  0  0  0  0  0
   21.7972  -22.1036   -9.9052 C   0  0  0  0  0  0  0  0  0  0  0  0
   24.9939  -20.7140  -14.9586 N   0  0  0  0  0  0  0  0  0  0  0  0
   25.5093  -20.1485  -16.1671 C   0  0  1  0  0  0  0  0  0  0  0  0
   25.0690  -20.9430  -17.3932 C   0  0  0  0  0  0  0  0  0  0  0  0
   26.0344  -20.7864  -18.5311 C   0  0  0  0  0  0  0  0  0  0  0  0
   27.2863  -21.5797  -18.2055 C   0  0  0  0  0  0  0  0  0  0  0  0
   28.3330  -21.3997  -19.2961 C   0  0  0  0  0  0  0  0  0  0  0  0
   29.5827  -21.9386  -18.8419 N   0  0  0  0  0  0  0  0  0  0  0  0
   25.1615  -18.7308  -16.3484 C   0  0  0  0  0  0  0  0  0  0  0  0
   23.9735  -18.3440  -16.0962 O   0  0  0  0  0  0  0  0  0  0  0  0
   27.1446  -12.9922  -16.0455 C   0  0  0  0  0  0  0  0  0  0  0  0
   26.1368  -13.9482  -16.5965 C   0  0  0  0  0  0  0  0  0  0  0  0
   26.6070  -15.3679  -16.3558 C   0  0  2  0  0  0  0  0  0  0  0  0
   27.8993  -15.6606  -17.0686 C   0  0  0  0  0  0  0  0  0  0  0  0
   25.5657  -16.3547  -16.9010 C   0  0  2  0  0  0  0  0  0  0  0  0
   26.0480  -17.7122  -16.7902 N   0  0  0  0  0  0  0  0  0  0  0  0
   25.3919  -16.0327  -18.3311 C   0  0  0  0  0  0  0  0  0  0  0  0
   25.9048  -16.7373  -19.2511 O   0  0  0  0  0  0  0  0  0  0  0  0
   24.6446  -14.9249  -18.6893 O   0  0  0  0  0  0  0  0  0  0  0  0
  2  1  1  0
  3  2  2  0
  4  3  1  0
  5 11  1  0
  5  4  2  0
  6  5  1  0
  7  6  1  0
  7  8  1  1
  9  7  1  0
 10  9  2  0
 11 12  2  0
 12  2  1  0
 13  9  1  0
 14 13  1  0
 14 15  1  6
 16 15  1  0
 17 16  1  0
 18 17  1  0
 19 18  1  0
 20 14  1  0
 20 27  1  0
 21 20  2  0
 22 23  1  0
 23 24  1  0
 24 25  1  6
 26 27  1  6
 26 24  1  0
 26 28  1  0
 28 29  2  0
 28 30  1  0
M  END
$$$$
