YKI.pdb
     RDKit          3D

 30 30  0  0  1  0  0  0  0  0999 V2000
   27.1970  -20.6696  -12.5168 O   0  0  0  0  0  0  0  0  0  0  0  0
   25.9451  -20.7641  -11.9401 C   0  0  0  0  0  0  0  0  0  0  0  0
   25.5181  -19.9015  -10.9513 C   0  0  0  0  0  0  0  0  0  0  0  0
   24.2650  -20.0267  -10.4013 C   0  0  0  0  0  0  0  0  0  0  0  0
   23.3927  -21.0033  -10.8057 C   0  0  0  0  0  0  0  0  0  0  0  0
   22.0266  -21.1277  -10.1850 C   0  0  0  0  0  0  0  0  0  0  0  0
   20.9842  -21.1907  -11.3135 C   0  0  2  0  0  0  0  0  0  0  0  0
   20.8263  -19.8598  -11.8185 N   0  0  0  0  0  0  0  0  0  0  0  0
   19.7079  -21.7309  -10.7820 C   0  0  0  0  0  0  0  0  0  0  0  0
   18.9684  -20.9322  -10.1266 O   0  0  0  0  0  0  0  0  0  0  0  0
   23.8075  -21.8688  -11.7903 C   0  0  0  0  0  0  0  0  0  0  0  0
   25.0686  -21.7432  -12.3444 C   0  0  0  0  0  0  0  0  0  0  0  0
   19.3371  -23.0822  -11.0032 N   0  0  0  0  0  0  0  0  0  0  0  0
   18.1101  -23.6225  -10.5047 C   0  0  1  0  0  0  0  0  0  0  0  0
   17.4423  -24.5387  -11.5259 C   0  0  0  0  0  0  0  0  0  0  0  0
   16.3012  -23.8556  -12.2207 C   0  0  0  0  0  0  0  0  0  0  0  0
   16.8745  -22.8309  -13.1821 C   0  0  0  0  0  0  0  0  0  0  0  0
   15.7613  -22.1534  -13.9689 C   0  0  0  0  0  0  0  0  0  0  0  0
   16.3339  -21.1664  -14.8386 N   0  0  0  0  0  0  0  0  0  0  0  0
   18.2574  -24.3351   -9.2264 C   0  0  0  0  0  0  0  0  0  0  0  0
   19.3996  -24.7959   -8.8983 O   0  0  0  0  0  0  0  0  0  0  0  0
   15.4164  -23.4411   -4.5385 C   0  0  0  0  0  0  0  0  0  0  0  0
   16.4900  -23.6749   -5.5513 C   0  0  0  0  0  0  0  0  0  0  0  0
   16.4215  -25.1091   -6.0342 C   0  0  2  0  0  0  0  0  0  0  0  0
   16.6851  -26.0894   -4.9236 C   0  0  0  0  0  0  0  0  0  0  0  0
   17.4996  -25.3456   -7.1006 C   0  0  2  0  0  0  0  0  0  0  0  0
   17.2184  -24.5684   -8.2857 N   0  0  0  0  0  0  0  0  0  0  0  0
   17.4347  -26.7781   -7.4513 C   0  0  0  0  0  0  0  0  0  0  0  0
   16.6089  -27.2309   -8.2992 O   0  0  0  0  0  0  0  0  0  0  0  0
   18.3018  -27.6648   -6.8383 O   0  0  0  0  0  0  0  0  0  0  0  0
  2  1  1  0
  3  2  2  0
  4  3  1  0
  5 11  1  0
  5  4  2  0
  6  5  1  0
  7  6  1  0
  7  8  1  1
  9  7  1  0
 10  9  2  0
 11 12  2  0
 12  2  1  0
 13  9  1  0
 14 13  1  0
 14 15  1  6
 16 15  1  0
 17 16  1  0
 18 17  1  0
 19 18  1  0
 20 14  1  0
 20 27  1  0
 21 20  2  0
 22 23  1  0
 23 24  1  0
 24 25  1  1
 26 27  1  6
 26 24  1  0
 26 28  1  0
 28 29  2  0
 28 30  1  0
M  END
$$$$
