YKI.pdb
     RDKit          3D

 30 30  0  0  1  0  0  0  0  0999 V2000
   16.6786  -15.1886  -16.1692 O   0  0  0  0  0  0  0  0  0  0  0  0
   17.4989  -16.1006  -15.5335 C   0  0  0  0  0  0  0  0  0  0  0  0
   17.0160  -17.0324  -14.6376 C   0  0  0  0  0  0  0  0  0  0  0  0
   17.8632  -17.9241  -14.0245 C   0  0  0  0  0  0  0  0  0  0  0  0
   19.2110  -17.9277  -14.2729 C   0  0  0  0  0  0  0  0  0  0  0  0
   20.1231  -18.9086  -13.5850 C   0  0  0  0  0  0  0  0  0  0  0  0
   20.2729  -20.1460  -14.4852 C   0  0  2  0  0  0  0  0  0  0  0  0
   19.1056  -20.9533  -14.2927 N   0  0  0  0  0  0  0  0  0  0  0  0
   21.5122  -20.8780  -14.1222 C   0  0  0  0  0  0  0  0  0  0  0  0
   21.5094  -21.5127  -13.0216 O   0  0  0  0  0  0  0  0  0  0  0  0
   19.7035  -17.0034  -15.1638 C   0  0  0  0  0  0  0  0  0  0  0  0
   18.8512  -16.1059  -15.7812 C   0  0  0  0  0  0  0  0  0  0  0  0
   22.6456  -20.8652  -14.9752 N   0  0  0  0  0  0  0  0  0  0  0  0
   23.8797  -21.4861  -14.6046 C   0  0  1  0  0  0  0  0  0  0  0  0
   24.7342  -21.8135  -15.8257 C   0  0  0  0  0  0  0  0  0  0  0  0
   26.0619  -22.3926  -15.4339 C   0  0  0  0  0  0  0  0  0  0  0  0
   26.9051  -22.5397  -16.6869 C   0  0  0  0  0  0  0  0  0  0  0  0
   28.2337  -23.2084  -16.3628 C   0  0  0  0  0  0  0  0  0  0  0  0
   29.0601  -23.2053  -17.5356 N   0  0  0  0  0  0  0  0  0  0  0  0
   24.6708  -20.6978  -13.6474 C   0  0  0  0  0  0  0  0  0  0  0  0
   24.9391  -19.4807  -13.9146 O   0  0  0  0  0  0  0  0  0  0  0  0
   27.3797  -20.5395   -8.0734 C   0  0  0  0  0  0  0  0  0  0  0  0
   27.0957  -19.9278   -9.4069 C   0  0  0  0  0  0  0  0  0  0  0  0
   26.2145  -20.8617  -10.2107 C   0  0  2  0  0  0  0  0  0  0  0  0
   26.8062  -22.2410  -10.3163 C   0  0  0  0  0  0  0  0  0  0  0  0
   26.0711  -20.3292  -11.6429 C   0  0  2  0  0  0  0  0  0  0  0  0
   25.1829  -21.1721  -12.4098 N   0  0  0  0  0  0  0  0  0  0  0  0
   27.4159  -20.3890  -12.2487 C   0  0  0  0  0  0  0  0  0  0  0  0
   27.8171  -21.3936  -12.9088 O   0  0  0  0  0  0  0  0  0  0  0  0
   28.2753  -19.3157  -12.0959 O   0  0  0  0  0  0  0  0  0  0  0  0
  2  1  1  0
  3  2  2  0
  4  3  1  0
  5 11  1  0
  5  4  2  0
  6  5  1  0
  7  6  1  0
  7  8  1  1
  9  7  1  0
 10  9  2  0
 11 12  2  0
 12  2  1  0
 13  9  1  0
 14 13  1  0
 14 15  1  6
 16 15  1  0
 17 16  1  0
 18 17  1  0
 19 18  1  0
 20 14  1  0
 20 27  1  0
 21 20  2  0
 22 23  1  0
 23 24  1  0
 24 25  1  6
 26 27  1  6
 26 24  1  0
 26 28  1  0
 28 29  2  0
 28 30  1  0
M  END
$$$$
