YKI.pdb
     RDKit          3D

 30 30  0  0  1  0  0  0  0  0999 V2000
   15.5056  -19.1091  -14.2516 O   0  0  0  0  0  0  0  0  0  0  0  0
   16.7625  -19.6307  -14.0130 C   0  0  0  0  0  0  0  0  0  0  0  0
   16.9630  -20.9519  -13.6689 C   0  0  0  0  0  0  0  0  0  0  0  0
   18.2289  -21.4349  -13.4392 C   0  0  0  0  0  0  0  0  0  0  0  0
   19.3369  -20.6347  -13.5406 C   0  0  0  0  0  0  0  0  0  0  0  0
   20.7148  -21.1820  -13.2777 C   0  0  0  0  0  0  0  0  0  0  0  0
   21.4491  -21.3150  -14.6219 C   0  0  2  0  0  0  0  0  0  0  0  0
   20.9040  -22.4583  -15.2907 N   0  0  0  0  0  0  0  0  0  0  0  0
   22.9061  -21.4638  -14.3801 C   0  0  0  0  0  0  0  0  0  0  0  0
   23.3289  -22.6244  -14.0824 O   0  0  0  0  0  0  0  0  0  0  0  0
   19.1492  -19.3162  -13.8827 C   0  0  0  0  0  0  0  0  0  0  0  0
   17.8753  -18.8296  -14.1140 C   0  0  0  0  0  0  0  0  0  0  0  0
   23.7815  -20.3522  -14.4814 N   0  0  0  0  0  0  0  0  0  0  0  0
   25.1798  -20.4610  -14.2005 C   0  0  1  0  0  0  0  0  0  0  0  0
   25.9516  -19.2448  -14.7040 C   0  0  0  0  0  0  0  0  0  0  0  0
   27.4311  -19.4111  -14.5175 C   0  0  0  0  0  0  0  0  0  0  0  0
   28.1190  -19.0427  -15.8190 C   0  0  0  0  0  0  0  0  0  0  0  0
   29.6314  -19.1267  -15.6676 C   0  0  0  0  0  0  0  0  0  0  0  0
   30.2500  -18.7260  -16.8986 N   0  0  0  0  0  0  0  0  0  0  0  0
   25.4787  -20.6788  -12.7768 C   0  0  0  0  0  0  0  0  0  0  0  0
   24.8423  -20.0105  -11.8976 O   0  0  0  0  0  0  0  0  0  0  0  0
   29.8536  -22.0701   -8.7805 C   0  0  0  0  0  0  0  0  0  0  0  0
   28.3902  -21.9532   -9.0593 C   0  0  0  0  0  0  0  0  0  0  0  0
   28.1756  -21.7638  -10.5468 C   0  0  2  0  0  0  0  0  0  0  0  0
   28.8187  -20.5005  -11.0511 C   0  0  0  0  0  0  0  0  0  0  0  0
   26.6737  -21.6449  -10.8395 C   0  0  2  0  0  0  0  0  0  0  0  0
   26.4382  -21.5928  -12.2641 N   0  0  0  0  0  0  0  0  0  0  0  0
   26.2302  -20.3697  -10.2426 C   0  0  0  0  0  0  0  0  0  0  0  0
   26.3517  -19.2615  -10.8452 O   0  0  0  0  0  0  0  0  0  0  0  0
   25.6609  -20.3746   -8.9817 O   0  0  0  0  0  0  0  0  0  0  0  0
  2  1  1  0
  3  2  2  0
  4  3  1  0
  5 11  1  0
  5  4  2  0
  6  5  1  0
  7  6  1  0
  7  8  1  1
  9  7  1  0
 10  9  2  0
 11 12  2  0
 12  2  1  0
 13  9  1  0
 14 13  1  0
 14 15  1  1
 16 15  1  0
 17 16  1  0
 18 17  1  0
 19 18  1  0
 20 14  1  0
 20 27  1  0
 21 20  2  0
 22 23  1  0
 23 24  1  0
 24 25  1  1
 26 27  1  6
 26 24  1  0
 26 28  1  0
 28 29  2  0
 28 30  1  0
M  END
$$$$
