YKI.pdb
     RDKit          3D

 30 30  0  0  1  0  0  0  0  0999 V2000
   29.0498  -19.6898   -5.4661 O   0  0  0  0  0  0  0  0  0  0  0  0
   28.4534  -19.7706   -6.7097 C   0  0  0  0  0  0  0  0  0  0  0  0
   27.2173  -19.2181   -6.9757 C   0  0  0  0  0  0  0  0  0  0  0  0
   26.6558  -19.3189   -8.2259 C   0  0  0  0  0  0  0  0  0  0  0  0
   27.2915  -19.9656   -9.2535 C   0  0  0  0  0  0  0  0  0  0  0  0
   26.6555  -20.0710  -10.6142 C   0  0  0  0  0  0  0  0  0  0  0  0
   25.7848  -21.3378  -10.6466 C   0  0  2  0  0  0  0  0  0  0  0  0
   26.6611  -22.4482  -10.8715 N   0  0  0  0  0  0  0  0  0  0  0  0
   24.7679  -21.2150  -11.7209 C   0  0  0  0  0  0  0  0  0  0  0  0
   25.0798  -21.6627  -12.8684 O   0  0  0  0  0  0  0  0  0  0  0  0
   28.5238  -20.5203   -9.0000 C   0  0  0  0  0  0  0  0  0  0  0  0
   29.0895  -20.4191   -7.7418 C   0  0  0  0  0  0  0  0  0  0  0  0
   23.5037  -20.6235  -11.4672 N   0  0  0  0  0  0  0  0  0  0  0  0
   22.4184  -20.7292  -12.3929 C   0  0  1  0  0  0  0  0  0  0  0  0
   21.0745  -20.4753  -11.7162 C   0  0  0  0  0  0  0  0  0  0  0  0
   20.4273  -21.7540  -11.2719 C   0  0  0  0  0  0  0  0  0  0  0  0
   20.0346  -22.5427  -12.5074 C   0  0  0  0  0  0  0  0  0  0  0  0
   19.2981  -23.8166  -12.1176 C   0  0  0  0  0  0  0  0  0  0  0  0
   19.0781  -24.6106  -13.2922 N   0  0  0  0  0  0  0  0  0  0  0  0
   22.5547  -19.8479  -13.5626 C   0  0  0  0  0  0  0  0  0  0  0  0
   22.7401  -18.5996  -13.3835 O   0  0  0  0  0  0  0  0  0  0  0  0
   24.4743  -19.3729  -19.3205 C   0  0  0  0  0  0  0  0  0  0  0  0
   23.6146  -18.8284  -18.2263 C   0  0  0  0  0  0  0  0  0  0  0  0
   23.5091  -19.8513  -17.1140 C   0  0  2  0  0  0  0  0  0  0  0  0
   22.8248  -21.1107  -17.5716 C   0  0  0  0  0  0  0  0  0  0  0  0
   22.6656  -19.2793  -15.9665 C   0  0  2  0  0  0  0  0  0  0  0  0
   22.5008  -20.2624  -14.9206 N   0  0  0  0  0  0  0  0  0  0  0  0
   21.3387  -18.9710  -16.5354 C   0  0  0  0  0  0  0  0  0  0  0  0
   20.3141  -19.6728  -16.2831 O   0  0  0  0  0  0  0  0  0  0  0  0
   21.1990  -17.8798  -17.3743 O   0  0  0  0  0  0  0  0  0  0  0  0
  2  1  1  0
  3  2  2  0
  4  3  1  0
  5 11  1  0
  5  4  2  0
  6  5  1  0
  7  6  1  0
  7  8  1  6
  9  7  1  0
 10  9  2  0
 11 12  2  0
 12  2  1  0
 13  9  1  0
 14 13  1  0
 14 15  1  1
 16 15  1  0
 17 16  1  0
 18 17  1  0
 19 18  1  0
 20 14  1  0
 20 27  1  0
 21 20  2  0
 22 23  1  0
 23 24  1  0
 24 25  1  6
 26 27  1  1
 26 24  1  0
 26 28  1  0
 28 29  2  0
 28 30  1  0
M  END
$$$$
