YKI.pdb
     RDKit          3D

 30 30  0  0  1  0  0  0  0  0999 V2000
   29.9161  -20.5878  -18.3690 O   0  0  0  0  0  0  0  0  0  0  0  0
   29.3724  -20.2261  -17.1515 C   0  0  0  0  0  0  0  0  0  0  0  0
   29.2120  -21.1238  -16.1159 C   0  0  0  0  0  0  0  0  0  0  0  0
   28.6670  -20.7268  -14.9185 C   0  0  0  0  0  0  0  0  0  0  0  0
   28.2626  -19.4354  -14.7016 C   0  0  0  0  0  0  0  0  0  0  0  0
   27.6611  -19.0226  -13.3844 C   0  0  0  0  0  0  0  0  0  0  0  0
   26.3819  -19.8444  -13.1559 C   0  0  2  0  0  0  0  0  0  0  0  0
   25.4305  -19.4299  -14.1429 N   0  0  0  0  0  0  0  0  0  0  0  0
   25.8804  -19.6112  -11.7784 C   0  0  0  0  0  0  0  0  0  0  0  0
   25.5856  -18.4161  -11.4633 O   0  0  0  0  0  0  0  0  0  0  0  0
   28.4174  -18.5320  -15.7266 C   0  0  0  0  0  0  0  0  0  0  0  0
   28.9660  -18.9311  -16.9319 C   0  0  0  0  0  0  0  0  0  0  0  0
   25.7379  -20.6834  -10.8606 N   0  0  0  0  0  0  0  0  0  0  0  0
   25.2915  -20.4767   -9.5175 C   0  0  1  0  0  0  0  0  0  0  0  0
   24.0626  -21.3224   -9.1961 C   0  0  0  0  0  0  0  0  0  0  0  0
   23.5153  -21.0096   -7.8345 C   0  0  0  0  0  0  0  0  0  0  0  0
   22.3648  -21.9587   -7.5548 C   0  0  0  0  0  0  0  0  0  0  0  0
   21.8536  -21.7760   -6.1326 C   0  0  0  0  0  0  0  0  0  0  0  0
   20.7802  -22.6982   -5.8967 N   0  0  0  0  0  0  0  0  0  0  0  0
   26.3331  -20.7186   -8.5075 C   0  0  0  0  0  0  0  0  0  0  0  0
   26.9201  -21.8496   -8.4769 O   0  0  0  0  0  0  0  0  0  0  0  0
   30.5601  -20.4597   -5.4919 C   0  0  0  0  0  0  0  0  0  0  0  0
   29.5086  -19.5478   -4.9481 C   0  0  0  0  0  0  0  0  0  0  0  0
   28.6123  -19.0843   -6.0780 C   0  0  2  0  0  0  0  0  0  0  0  0
   27.7465  -17.9238   -5.6688 C   0  0  0  0  0  0  0  0  0  0  0  0
   27.6663  -20.2223   -6.4850 C   0  0  2  0  0  0  0  0  0  0  0  0
   26.7681  -19.7850   -7.5288 N   0  0  0  0  0  0  0  0  0  0  0  0
   26.8696  -20.5533   -5.2871 C   0  0  0  0  0  0  0  0  0  0  0  0
   27.3547  -21.1936   -4.3070 O   0  0  0  0  0  0  0  0  0  0  0  0
   25.5464  -20.1546   -5.2231 O   0  0  0  0  0  0  0  0  0  0  0  0
  2  1  1  0
  3  2  2  0
  4  3  1  0
  5 11  1  0
  5  4  2  0
  6  5  1  0
  7  6  1  0
  7  8  1  6
  9  7  1  0
 10  9  2  0
 11 12  2  0
 12  2  1  0
 13  9  1  0
 14 13  1  0
 14 15  1  1
 16 15  1  0
 17 16  1  0
 18 17  1  0
 19 18  1  0
 20 14  1  0
 20 27  1  0
 21 20  2  0
 22 23  1  0
 23 24  1  0
 24 25  1  1
 26 27  1  6
 26 24  1  0
 26 28  1  0
 28 29  2  0
 28 30  1  0
M  END
$$$$
