YKI.pdb
     RDKit          3D

 30 30  0  0  1  0  0  0  0  0999 V2000
   31.3378  -21.8219   -7.2253 O   0  0  0  0  0  0  0  0  0  0  0  0
   30.3438  -21.3866   -8.0805 C   0  0  0  0  0  0  0  0  0  0  0  0
   30.4675  -21.4502   -9.4533 C   0  0  0  0  0  0  0  0  0  0  0  0
   29.4567  -21.0074  -10.2722 C   0  0  0  0  0  0  0  0  0  0  0  0
   28.2930  -20.4882   -9.7675 C   0  0  0  0  0  0  0  0  0  0  0  0
   27.2005  -20.0017  -10.6824 C   0  0  0  0  0  0  0  0  0  0  0  0
   26.2574  -21.1787  -10.9814 C   0  0  2  0  0  0  0  0  0  0  0  0
   27.0574  -22.2338  -11.5275 N   0  0  0  0  0  0  0  0  0  0  0  0
   25.2028  -20.7423  -11.9304 C   0  0  0  0  0  0  0  0  0  0  0  0
   24.4405  -19.7975  -11.5555 O   0  0  0  0  0  0  0  0  0  0  0  0
   28.1587  -20.4196   -8.4008 C   0  0  0  0  0  0  0  0  0  0  0  0
   29.1758  -20.8654   -7.5762 C   0  0  0  0  0  0  0  0  0  0  0  0
   25.0612  -21.3584  -13.2003 N   0  0  0  0  0  0  0  0  0  0  0  0
   24.0889  -20.9173  -14.1521 C   0  0  1  0  0  0  0  0  0  0  0  0
   24.4004  -21.4314  -15.5546 C   0  0  0  0  0  0  0  0  0  0  0  0
   23.3843  -20.9636  -16.5547 C   0  0  0  0  0  0  0  0  0  0  0  0
   24.1178  -20.2817  -17.6947 C   0  0  0  0  0  0  0  0  0  0  0  0
   23.1320  -19.7708  -18.7361 C   0  0  0  0  0  0  0  0  0  0  0  0
   23.8600  -19.1907  -19.8279 N   0  0  0  0  0  0  0  0  0  0  0  0
   22.7084  -21.2753  -13.7920 C   0  0  0  0  0  0  0  0  0  0  0  0
   22.4780  -22.4108  -13.2609 O   0  0  0  0  0  0  0  0  0  0  0  0
   20.0463  -17.6406  -11.5088 C   0  0  0  0  0  0  0  0  0  0  0  0
   20.2884  -19.1101  -11.6312 C   0  0  0  0  0  0  0  0  0  0  0  0
   19.5538  -19.6411  -12.8448 C   0  0  2  0  0  0  0  0  0  0  0  0
   18.1641  -20.1051  -12.5023 C   0  0  0  0  0  0  0  0  0  0  0  0
   20.3017  -20.8570  -13.4085 C   0  0  2  0  0  0  0  0  0  0  0  0
   21.5651  -20.4532  -13.9814 N   0  0  0  0  0  0  0  0  0  0  0  0
   19.4533  -21.4094  -14.4829 C   0  0  0  0  0  0  0  0  0  0  0  0
   19.5418  -21.0175  -15.6847 O   0  0  0  0  0  0  0  0  0  0  0  0
   18.5265  -22.3898  -14.1767 O   0  0  0  0  0  0  0  0  0  0  0  0
  2  1  1  0
  3  2  2  0
  4  3  1  0
  5 11  1  0
  5  4  2  0
  6  5  1  0
  7  6  1  0
  7  8  1  6
  9  7  1  0
 10  9  2  0
 11 12  2  0
 12  2  1  0
 13  9  1  0
 14 13  1  0
 14 15  1  6
 16 15  1  0
 17 16  1  0
 18 17  1  0
 19 18  1  0
 20 14  1  0
 20 27  1  0
 21 20  2  0
 22 23  1  0
 23 24  1  0
 24 25  1  1
 26 27  1  6
 26 24  1  0
 26 28  1  0
 28 29  2  0
 28 30  1  0
M  END
$$$$
