YKI.pdb
     RDKit          3D

 30 30  0  0  1  0  0  0  0  0999 V2000
   28.1713  -30.6283  -18.1204 O   0  0  0  0  0  0  0  0  0  0  0  0
   27.7866  -29.4061  -17.6036 C   0  0  0  0  0  0  0  0  0  0  0  0
   26.7410  -28.6755  -18.1298 C   0  0  0  0  0  0  0  0  0  0  0  0
   26.3872  -27.4630  -17.5884 C   0  0  0  0  0  0  0  0  0  0  0  0
   27.0499  -26.9309  -16.5133 C   0  0  0  0  0  0  0  0  0  0  0  0
   26.6509  -25.5971  -15.9396 C   0  0  0  0  0  0  0  0  0  0  0  0
   27.0296  -24.5012  -16.9494 C   0  0  2  0  0  0  0  0  0  0  0  0
   28.4492  -24.3272  -16.8727 N   0  0  0  0  0  0  0  0  0  0  0  0
   26.3046  -23.2487  -16.6192 C   0  0  0  0  0  0  0  0  0  0  0  0
   26.8754  -22.4416  -15.8210 O   0  0  0  0  0  0  0  0  0  0  0  0
   28.0938  -27.6500  -15.9807 C   0  0  0  0  0  0  0  0  0  0  0  0
   28.4502  -28.8705  -16.5252 C   0  0  0  0  0  0  0  0  0  0  0  0
   25.0302  -22.9724  -17.1776 N   0  0  0  0  0  0  0  0  0  0  0  0
   24.3279  -21.7580  -16.8984 C   0  0  1  0  0  0  0  0  0  0  0  0
   23.8082  -21.1019  -18.1743 C   0  0  0  0  0  0  0  0  0  0  0  0
   23.0136  -19.8643  -17.8771 C   0  0  0  0  0  0  0  0  0  0  0  0
   23.9162  -18.6606  -18.0750 C   0  0  0  0  0  0  0  0  0  0  0  0
   23.1559  -17.3705  -17.8012 C   0  0  0  0  0  0  0  0  0  0  0  0
   24.0022  -16.2525  -18.1051 N   0  0  0  0  0  0  0  0  0  0  0  0
   23.2206  -21.9247  -15.9446 C   0  0  0  0  0  0  0  0  0  0  0  0
   22.4255  -22.9117  -16.0798 O   0  0  0  0  0  0  0  0  0  0  0  0
   20.5963  -19.8648  -10.7104 C   0  0  0  0  0  0  0  0  0  0  0  0
   20.5629  -20.7151  -11.9388 C   0  0  0  0  0  0  0  0  0  0  0  0
   21.8023  -20.4489  -12.7680 C   0  0  2  0  0  0  0  0  0  0  0  0
   21.8682  -19.0212  -13.2382 C   0  0  0  0  0  0  0  0  0  0  0  0
   21.7803  -21.3297  -14.0247 C   0  0  2  0  0  0  0  0  0  0  0  0
   22.9386  -21.0672  -14.8473 N   0  0  0  0  0  0  0  0  0  0  0  0
   20.5706  -20.9503  -14.7810 C   0  0  0  0  0  0  0  0  0  0  0  0
   19.4111  -21.3307  -14.4391 O   0  0  0  0  0  0  0  0  0  0  0  0
   20.6972  -20.1516  -15.9035 O   0  0  0  0  0  0  0  0  0  0  0  0
  2  1  1  0
  3  2  2  0
  4  3  1  0
  5 11  1  0
  5  4  2  0
  6  5  1  0
  7  6  1  0
  7  8  1  1
  9  7  1  0
 10  9  2  0
 11 12  2  0
 12  2  1  0
 13  9  1  0
 14 13  1  0
 14 15  1  6
 16 15  1  0
 17 16  1  0
 18 17  1  0
 19 18  1  0
 20 14  1  0
 20 27  1  0
 21 20  2  0
 22 23  1  0
 23 24  1  0
 24 25  1  6
 26 27  1  6
 26 24  1  0
 26 28  1  0
 28 29  2  0
 28 30  1  0
M  END
$$$$
