YKI.pdb
     RDKit          3D

 30 30  0  0  1  0  0  0  0  0999 V2000
   28.1972  -19.3733   -5.6343 O   0  0  0  0  0  0  0  0  0  0  0  0
   27.9676  -19.5745   -6.9818 C   0  0  0  0  0  0  0  0  0  0  0  0
   28.9607  -19.9793   -7.8500 C   0  0  0  0  0  0  0  0  0  0  0  0
   28.6941  -20.1693   -9.1847 C   0  0  0  0  0  0  0  0  0  0  0  0
   27.4434  -19.9674   -9.7075 C   0  0  0  0  0  0  0  0  0  0  0  0
   27.1740  -20.1743  -11.1744 C   0  0  0  0  0  0  0  0  0  0  0  0
   26.3509  -21.4623  -11.3401 C   0  0  2  0  0  0  0  0  0  0  0  0
   27.2320  -22.4634  -11.8628 N   0  0  0  0  0  0  0  0  0  0  0  0
   25.2073  -21.2079  -12.2516 C   0  0  0  0  0  0  0  0  0  0  0  0
   25.4401  -21.2511  -13.4999 O   0  0  0  0  0  0  0  0  0  0  0  0
   26.4459  -19.5637   -8.8517 C   0  0  0  0  0  0  0  0  0  0  0  0
   26.7137  -19.3724   -7.5082 C   0  0  0  0  0  0  0  0  0  0  0  0
   23.9130  -20.9313  -11.7414 N   0  0  0  0  0  0  0  0  0  0  0  0
   22.7289  -21.1793  -12.5045 C   0  0  1  0  0  0  0  0  0  0  0  0
   21.5916  -21.6950  -11.6276 C   0  0  0  0  0  0  0  0  0  0  0  0
   20.3922  -22.0781  -12.4439 C   0  0  0  0  0  0  0  0  0  0  0  0
   19.2977  -22.5333  -11.4965 C   0  0  0  0  0  0  0  0  0  0  0  0
   18.1118  -23.0860  -12.2746 C   0  0  0  0  0  0  0  0  0  0  0  0
   17.1773  -23.6696  -11.3556 N   0  0  0  0  0  0  0  0  0  0  0  0
   22.2682  -20.0121  -13.2719 C   0  0  0  0  0  0  0  0  0  0  0  0
   22.1762  -18.8815  -12.6905 O   0  0  0  0  0  0  0  0  0  0  0  0
   23.0127  -17.1060  -18.4288 C   0  0  0  0  0  0  0  0  0  0  0  0
   22.1393  -17.2807  -17.2289 C   0  0  0  0  0  0  0  0  0  0  0  0
   22.5394  -18.5445  -16.4959 C   0  0  2  0  0  0  0  0  0  0  0  0
   22.4233  -19.7627  -17.3714 C   0  0  0  0  0  0  0  0  0  0  0  0
   21.6021  -18.7655  -15.3009 C   0  0  2  0  0  0  0  0  0  0  0  0
   21.9041  -20.0171  -14.6453 N   0  0  0  0  0  0  0  0  0  0  0  0
   20.2338  -18.8404  -15.8499 C   0  0  0  0  0  0  0  0  0  0  0  0
   19.6045  -19.9356  -15.9529 O   0  0  0  0  0  0  0  0  0  0  0  0
   19.6084  -17.6798  -16.2692 O   0  0  0  0  0  0  0  0  0  0  0  0
  2  1  1  0
  3  2  2  0
  4  3  1  0
  5 11  1  0
  5  4  2  0
  6  5  1  0
  7  6  1  0
  7  8  1  6
  9  7  1  0
 10  9  2  0
 11 12  2  0
 12  2  1  0
 13  9  1  0
 14 13  1  0
 14 15  1  1
 16 15  1  0
 17 16  1  0
 18 17  1  0
 19 18  1  0
 20 14  1  0
 20 27  1  0
 21 20  2  0
 22 23  1  0
 23 24  1  0
 24 25  1  6
 26 27  1  6
 26 24  1  0
 26 28  1  0
 28 29  2  0
 28 30  1  0
M  END
$$$$
