YKI.pdb
     RDKit          3D

 30 30  0  0  1  0  0  0  0  0999 V2000
   23.0526  -21.8263   -6.9175 O   0  0  0  0  0  0  0  0  0  0  0  0
   23.5882  -21.3963   -8.1163 C   0  0  0  0  0  0  0  0  0  0  0  0
   24.9305  -21.1151   -8.2692 C   0  0  0  0  0  0  0  0  0  0  0  0
   25.4269  -20.6894   -9.4779 C   0  0  0  0  0  0  0  0  0  0  0  0
   24.6198  -20.5269  -10.5736 C   0  0  0  0  0  0  0  0  0  0  0  0
   25.1827  -20.0525  -11.8871 C   0  0  0  0  0  0  0  0  0  0  0  0
   24.8047  -21.0721  -12.9741 C   0  0  2  0  0  0  0  0  0  0  0  0
   25.8569  -22.0423  -13.0287 N   0  0  0  0  0  0  0  0  0  0  0  0
   24.6341  -20.3741  -14.2730 C   0  0  0  0  0  0  0  0  0  0  0  0
   25.6882  -20.1035  -14.9286 O   0  0  0  0  0  0  0  0  0  0  0  0
   23.2805  -20.8040  -10.4329 C   0  0  0  0  0  0  0  0  0  0  0  0
   22.7803  -21.2326   -9.2166 C   0  0  0  0  0  0  0  0  0  0  0  0
   23.3449  -20.0297  -14.7544 N   0  0  0  0  0  0  0  0  0  0  0  0
   23.1534  -19.4037  -16.0262 C   0  0  1  0  0  0  0  0  0  0  0  0
   21.7710  -19.7030  -16.5986 C   0  0  0  0  0  0  0  0  0  0  0  0
   21.5811  -19.0727  -17.9469 C   0  0  0  0  0  0  0  0  0  0  0  0
   20.1973  -19.4373  -18.4518 C   0  0  0  0  0  0  0  0  0  0  0  0
   19.9376  -18.7999  -19.8096 C   0  0  0  0  0  0  0  0  0  0  0  0
   18.5693  -19.0224  -20.1795 N   0  0  0  0  0  0  0  0  0  0  0  0
   23.3731  -17.9495  -16.0052 C   0  0  0  0  0  0  0  0  0  0  0  0
   22.6760  -17.2257  -15.2211 O   0  0  0  0  0  0  0  0  0  0  0  0
   27.3384  -13.5269  -15.7633 C   0  0  0  0  0  0  0  0  0  0  0  0
   25.9538  -13.9048  -16.1794 C   0  0  0  0  0  0  0  0  0  0  0  0
   25.8242  -15.4140  -16.1818 C   0  0  2  0  0  0  0  0  0  0  0  0
   26.8069  -16.0611  -17.1196 C   0  0  0  0  0  0  0  0  0  0  0  0
   24.4224  -15.8099  -16.6652 C   0  0  2  0  0  0  0  0  0  0  0  0
   24.3190  -17.2449  -16.7975 N   0  0  0  0  0  0  0  0  0  0  0  0
   24.2519  -15.2012  -17.9992 C   0  0  0  0  0  0  0  0  0  0  0  0
   24.3640  -15.8716  -19.0688 O   0  0  0  0  0  0  0  0  0  0  0  0
   23.9593  -13.8524  -18.0952 O   0  0  0  0  0  0  0  0  0  0  0  0
  2  1  1  0
  3  2  2  0
  4  3  1  0
  5 11  1  0
  5  4  2  0
  6  5  1  0
  7  6  1  0
  7  8  1  6
  9  7  1  0
 10  9  2  0
 11 12  2  0
 12  2  1  0
 13  9  1  0
 14 13  1  0
 14 15  1  1
 16 15  1  0
 17 16  1  0
 18 17  1  0
 19 18  1  0
 20 14  1  0
 20 27  1  0
 21 20  2  0
 22 23  1  0
 23 24  1  0
 24 25  1  6
 26 27  1  6
 26 24  1  0
 26 28  1  0
 28 29  2  0
 28 30  1  0
M  END
$$$$
