YKI.pdb
     RDKit          3D

 30 30  0  0  1  0  0  0  0  0999 V2000
   20.0291  -17.2465  -16.1983 O   0  0  0  0  0  0  0  0  0  0  0  0
   20.6943  -17.8011  -15.1219 C   0  0  0  0  0  0  0  0  0  0  0  0
   22.0498  -17.6355  -14.9236 C   0  0  0  0  0  0  0  0  0  0  0  0
   22.6770  -18.2028  -13.8404 C   0  0  0  0  0  0  0  0  0  0  0  0
   21.9917  -18.9503  -12.9185 C   0  0  0  0  0  0  0  0  0  0  0  0
   22.6993  -19.5693  -11.7423 C   0  0  0  0  0  0  0  0  0  0  0  0
   23.6663  -20.6432  -12.2675 C   0  0  2  0  0  0  0  0  0  0  0  0
   22.8727  -21.7611  -12.6821 N   0  0  0  0  0  0  0  0  0  0  0  0
   24.6235  -21.0171  -11.1964 C   0  0  0  0  0  0  0  0  0  0  0  0
   24.2095  -21.8204  -10.3033 O   0  0  0  0  0  0  0  0  0  0  0  0
   20.6404  -19.1223  -13.1060 C   0  0  0  0  0  0  0  0  0  0  0  0
   20.0087  -18.5515  -14.1960 C   0  0  0  0  0  0  0  0  0  0  0  0
   25.9429  -20.4962  -11.1802 N   0  0  0  0  0  0  0  0  0  0  0  0
   26.9303  -20.9629  -10.2565 C   0  0  1  0  0  0  0  0  0  0  0  0
   28.3145  -21.0254  -10.8959 C   0  0  0  0  0  0  0  0  0  0  0  0
   29.3330  -21.6025   -9.9572 C   0  0  0  0  0  0  0  0  0  0  0  0
   30.6659  -21.6624  -10.6800 C   0  0  0  0  0  0  0  0  0  0  0  0
   31.7328  -22.2781   -9.7856 C   0  0  0  0  0  0  0  0  0  0  0  0
   32.9875  -22.2772  -10.4814 N   0  0  0  0  0  0  0  0  0  0  0  0
   26.9960  -20.1738   -9.0170 C   0  0  0  0  0  0  0  0  0  0  0  0
   26.8341  -18.9108   -9.0735 O   0  0  0  0  0  0  0  0  0  0  0  0
   28.0307  -19.8677   -2.9821 C   0  0  0  0  0  0  0  0  0  0  0  0
   27.1138  -19.7353   -4.1547 C   0  0  0  0  0  0  0  0  0  0  0  0
   27.6511  -20.5573   -5.3080 C   0  0  2  0  0  0  0  0  0  0  0  0
   29.1239  -20.8304   -5.1657 C   0  0  0  0  0  0  0  0  0  0  0  0
   27.4676  -19.7842   -6.6210 C   0  0  2  0  0  0  0  0  0  0  0  0
   27.2282  -20.6959   -7.7161 N   0  0  0  0  0  0  0  0  0  0  0  0
   28.7375  -19.0737   -6.8697 C   0  0  0  0  0  0  0  0  0  0  0  0
   29.6265  -19.5288   -7.6499 O   0  0  0  0  0  0  0  0  0  0  0  0
   28.9742  -17.8682   -6.2337 O   0  0  0  0  0  0  0  0  0  0  0  0
  2  1  1  0
  3  2  2  0
  4  3  1  0
  5 11  1  0
  5  4  2  0
  6  5  1  0
  7  6  1  0
  7  8  1  1
  9  7  1  0
 10  9  2  0
 11 12  2  0
 12  2  1  0
 13  9  1  0
 14 13  1  0
 14 15  1  6
 16 15  1  0
 17 16  1  0
 18 17  1  0
 19 18  1  0
 20 14  1  0
 20 27  1  0
 21 20  2  0
 22 23  1  0
 23 24  1  0
 24 25  1  1
 26 27  1  6
 26 24  1  0
 26 28  1  0
 28 29  2  0
 28 30  1  0
M  END
$$$$
