YKI.pdb
     RDKit          3D

 30 30  0  0  1  0  0  0  0  0999 V2000
   14.8255  -19.3049  -15.3015 O   0  0  0  0  0  0  0  0  0  0  0  0
   16.0362  -19.8015  -14.8585 C   0  0  0  0  0  0  0  0  0  0  0  0
   17.2314  -19.1499  -15.0845 C   0  0  0  0  0  0  0  0  0  0  0  0
   18.4165  -19.6751  -14.6281 C   0  0  0  0  0  0  0  0  0  0  0  0
   18.4638  -20.8567  -13.9354 C   0  0  0  0  0  0  0  0  0  0  0  0
   19.7738  -21.4186  -13.4501 C   0  0  0  0  0  0  0  0  0  0  0  0
   20.3699  -22.2935  -14.5652 C   0  0  2  0  0  0  0  0  0  0  0  0
   19.7169  -23.5665  -14.4990 N   0  0  0  0  0  0  0  0  0  0  0  0
   21.8360  -22.4180  -14.3695 C   0  0  0  0  0  0  0  0  0  0  0  0
   22.2405  -23.3293  -13.5820 O   0  0  0  0  0  0  0  0  0  0  0  0
   17.2790  -21.5150  -13.7044 C   0  0  0  0  0  0  0  0  0  0  0  0
   16.0859  -20.9868  -14.1635 C   0  0  0  0  0  0  0  0  0  0  0  0
   22.7393  -21.5531  -15.0391 N   0  0  0  0  0  0  0  0  0  0  0  0
   24.1565  -21.7292  -14.9597 C   0  0  1  0  0  0  0  0  0  0  0  0
   24.8150  -21.6223  -16.3321 C   0  0  0  0  0  0  0  0  0  0  0  0
   26.3087  -21.7300  -16.2401 C   0  0  0  0  0  0  0  0  0  0  0  0
   26.7483  -22.9427  -17.0395 C   0  0  0  0  0  0  0  0  0  0  0  0
   28.2654  -23.0682  -17.0311 C   0  0  0  0  0  0  0  0  0  0  0  0
   28.6358  -24.3308  -17.6030 N   0  0  0  0  0  0  0  0  0  0  0  0
   24.8132  -20.8022  -14.0253 C   0  0  0  0  0  0  0  0  0  0  0  0
   24.4641  -19.5764  -14.0160 O   0  0  0  0  0  0  0  0  0  0  0  0
   29.7230  -21.2392  -11.0464 C   0  0  0  0  0  0  0  0  0  0  0  0
   28.4470  -21.5657  -11.7523 C   0  0  0  0  0  0  0  0  0  0  0  0
   27.3399  -20.6754  -11.2265 C   0  0  2  0  0  0  0  0  0  0  0  0
   26.3649  -21.4369  -10.3703 C   0  0  0  0  0  0  0  0  0  0  0  0
   26.5411  -20.0978  -12.4028 C   0  0  2  0  0  0  0  0  0  0  0  0
   25.8323  -21.1478  -13.0976 N   0  0  0  0  0  0  0  0  0  0  0  0
   27.5271  -19.5044  -13.3276 C   0  0  0  0  0  0  0  0  0  0  0  0
   27.8966  -20.0888  -14.3896 O   0  0  0  0  0  0  0  0  0  0  0  0
   28.0722  -18.2675  -13.0330 O   0  0  0  0  0  0  0  0  0  0  0  0
  2  1  1  0
  3  2  2  0
  4  3  1  0
  5 11  1  0
  5  4  2  0
  6  5  1  0
  7  6  1  0
  7  8  1  1
  9  7  1  0
 10  9  2  0
 11 12  2  0
 12  2  1  0
 13  9  1  0
 14 13  1  0
 14 15  1  6
 16 15  1  0
 17 16  1  0
 18 17  1  0
 19 18  1  0
 20 14  1  0
 20 27  1  0
 21 20  2  0
 22 23  1  0
 23 24  1  0
 24 25  1  1
 26 27  1  6
 26 24  1  0
 26 28  1  0
 28 29  2  0
 28 30  1  0
M  END
$$$$
