YKI.pdb
     RDKit          3D

 30 30  0  0  1  0  0  0  0  0999 V2000
   20.6903  -11.0958  -20.5155 O   0  0  0  0  0  0  0  0  0  0  0  0
   20.5794  -12.2732  -19.8013 C   0  0  0  0  0  0  0  0  0  0  0  0
   19.4454  -13.0585  -19.8393 C   0  0  0  0  0  0  0  0  0  0  0  0
   19.3719  -14.2239  -19.1148 C   0  0  0  0  0  0  0  0  0  0  0  0
   20.4104  -14.6537  -18.3305 C   0  0  0  0  0  0  0  0  0  0  0  0
   20.3068  -15.9303  -17.5387 C   0  0  0  0  0  0  0  0  0  0  0  0
   20.8431  -17.0830  -18.4034 C   0  0  2  0  0  0  0  0  0  0  0  0
   19.8572  -17.3538  -19.4065 N   0  0  0  0  0  0  0  0  0  0  0  0
   21.0964  -18.2698  -17.5486 C   0  0  0  0  0  0  0  0  0  0  0  0
   20.0827  -18.9214  -17.1461 O   0  0  0  0  0  0  0  0  0  0  0  0
   21.5455  -13.8791  -18.2848 C   0  0  0  0  0  0  0  0  0  0  0  0
   21.6200  -12.7061  -19.0139 C   0  0  0  0  0  0  0  0  0  0  0  0
   22.4176  -18.6534  -17.2027 N   0  0  0  0  0  0  0  0  0  0  0  0
   22.6851  -19.7950  -16.3835 C   0  0  1  0  0  0  0  0  0  0  0  0
   24.1716  -20.1390  -16.3652 C   0  0  0  0  0  0  0  0  0  0  0  0
   24.4457  -21.3696  -15.5516 C   0  0  0  0  0  0  0  0  0  0  0  0
   24.7875  -22.5020  -16.5022 C   0  0  0  0  0  0  0  0  0  0  0  0
   25.1966  -23.7467  -15.7271 C   0  0  0  0  0  0  0  0  0  0  0  0
   25.6998  -24.7279  -16.6450 N   0  0  0  0  0  0  0  0  0  0  0  0
   22.1949  -19.6567  -15.0036 C   0  0  0  0  0  0  0  0  0  0  0  0
   22.5256  -18.6295  -14.3253 O   0  0  0  0  0  0  0  0  0  0  0  0
   18.0081  -21.4857  -10.8654 C   0  0  0  0  0  0  0  0  0  0  0  0
   19.2421  -20.7168  -11.2108 C   0  0  0  0  0  0  0  0  0  0  0  0
   19.7173  -21.1227  -12.5907 C   0  0  2  0  0  0  0  0  0  0  0  0
   20.0952  -22.5779  -12.6497 C   0  0  0  0  0  0  0  0  0  0  0  0
   20.9739  -20.3222  -12.9589 C   0  0  2  0  0  0  0  0  0  0  0  0
   21.3587  -20.5847  -14.3265 N   0  0  0  0  0  0  0  0  0  0  0  0
   22.0501  -20.7988  -12.0678 C   0  0  0  0  0  0  0  0  0  0  0  0
   22.2074  -20.3470  -10.8943 O   0  0  0  0  0  0  0  0  0  0  0  0
   22.9221  -21.7726  -12.5208 O   0  0  0  0  0  0  0  0  0  0  0  0
  2  1  1  0
  3  2  2  0
  4  3  1  0
  5 11  1  0
  5  4  2  0
  6  5  1  0
  7  6  1  0
  7  8  1  6
  9  7  1  0
 10  9  2  0
 11 12  2  0
 12  2  1  0
 13  9  1  0
 14 13  1  0
 14 15  1  1
 16 15  1  0
 17 16  1  0
 18 17  1  0
 19 18  1  0
 20 14  1  0
 20 27  1  0
 21 20  2  0
 22 23  1  0
 23 24  1  0
 24 25  1  1
 26 27  1  6
 26 24  1  0
 26 28  1  0
 28 29  2  0
 28 30  1  0
M  END
$$$$
