RIA.pdb
     RDKit          3D

 25 24  0  0  1  0  0  0  0  0999 V2000
    9.0286  -14.9625   18.2831 N   0  0  0  0  0  0  0  0  0  0  0  0
    8.0900  -13.9246   17.9255 C   0  0  0  0  0  0  0  0  0  0  0  0
    8.5119  -12.8884   17.2846 N   0  0  0  0  0  0  0  0  0  0  0  0
    6.7253  -14.0196   18.2637 N   0  0  0  0  0  0  0  0  0  0  0  0
    6.2909  -14.3990   19.6223 C   0  0  0  0  0  0  0  0  0  0  0  0
    6.9474  -15.6982   19.9668 C   0  0  0  0  0  0  0  0  0  0  0  0
    7.4984  -15.8259   21.3447 C   0  0  0  0  0  0  0  0  0  0  0  0
    8.7433  -15.0409   21.6361 C   0  0  2  0  0  0  0  0  0  0  0  0
    9.8590  -15.6404   20.9458 N   0  0  0  0  0  0  0  0  0  0  0  0
    9.0374  -15.1017   23.1108 C   0  0  0  0  0  0  0  0  0  0  0  0
   10.1414  -15.5175   23.5085 O   0  0  0  0  0  0  0  0  0  0  0  0
    7.9268  -12.0967   16.9645 C   0  0  0  0  0  0  0  0  0  0  0  0
    5.7937  -11.8335   26.2170 C   0  0  0  0  0  0  0  0  0  0  0  0
    7.0041  -12.4815   25.6510 C   0  0  2  0  0  0  0  0  0  0  0  0
    7.4427  -13.7545   26.2856 C   0  0  0  0  0  0  0  0  0  0  0  0
    7.8115  -13.5948   27.7418 C   0  0  2  0  0  0  0  0  0  0  0  0
    8.4342  -14.5641   25.4940 N   0  0  0  0  0  0  0  0  0  0  0  0
    8.0776  -14.6921   24.0936 C   0  0  0  0  0  0  0  0  0  0  0  0
    8.5706  -15.8898   26.1425 O   0  0  0  0  0  0  0  0  0  0  0  0
    7.5664  -16.5659   26.5016 C   0  0  0  0  0  0  0  0  0  0  0  0
   11.4748  -18.1621   26.3938 C   0  0  2  0  0  0  0  0  0  0  0  0
   10.0910  -17.7448   26.9142 N   0  0  0  0  0  0  0  0  0  0  0  0
    9.8556  -16.4252   26.3700 C   0  0  0  0  0  0  0  0  0  0  0  0
   10.1761  -17.7563   28.3859 O   0  0  0  0  0  0  0  0  0  0  0  0
   10.2998  -18.8076   29.0582 O   0  0  0  0  0  0  0  0  0  0  0  0
  1  2  1  0
  2  3  2  0
  4  5  1  0
  4  2  1  0
  6  7  1  0
  6  5  1  0
  8  7  1  0
  8  9  1  6
  8 10  1  0
 10 11  2  0
 13 12  1  0
 14 13  1  0
 14 15  1  6
 16 14  1  0
 16 17  1  6
 17 10  1  0
 18 19  2  0
 18 16  1  0
 21 20  1  6
 21 22  1  0
 22 18  1  0
 23 25  1  0
 23 21  1  0
 24 23  2  0
M  END
$$$$
