RIA.pdb
     RDKit          3D

 25 24  0  0  1  0  0  0  0  0999 V2000
    8.7894  -12.6709   17.8020 N   0  0  0  0  0  0  0  0  0  0  0  0
    8.4242  -13.8288   17.0198 C   0  0  0  0  0  0  0  0  0  0  0  0
    8.4698  -13.7588   15.7332 N   0  0  0  0  0  0  0  0  0  0  0  0
    8.0179  -15.0310   17.6325 N   0  0  0  0  0  0  0  0  0  0  0  0
    8.1569  -15.2423   19.0866 C   0  0  0  0  0  0  0  0  0  0  0  0
    6.9721  -14.6201   19.7549 C   0  0  0  0  0  0  0  0  0  0  0  0
    6.0831  -15.5319   20.5275 C   0  0  0  0  0  0  0  0  0  0  0  0
    6.7310  -16.7543   21.1080 C   0  0  2  0  0  0  0  0  0  0  0  0
    6.0612  -17.9316   20.6119 N   0  0  0  0  0  0  0  0  0  0  0  0
    6.5722  -16.7397   22.6045 C   0  0  0  0  0  0  0  0  0  0  0  0
    5.4376  -16.8193   23.1107 O   0  0  0  0  0  0  0  0  0  0  0  0
    8.3936  -14.5597   15.0817 C   0  0  0  0  0  0  0  0  0  0  0  0
    8.4805  -20.1616   25.9453 C   0  0  0  0  0  0  0  0  0  0  0  0
    7.7886  -19.0333   25.2721 C   0  0  2  0  0  0  0  0  0  0  0  0
    8.1969  -17.6596   25.6745 C   0  0  0  0  0  0  0  0  0  0  0  0
    8.2170  -17.4618   27.1721 C   0  0  2  0  0  0  0  0  0  0  0  0
    7.5282  -16.5396   24.9237 N   0  0  0  0  0  0  0  0  0  0  0  0
    7.6978  -16.6355   23.4861 C   0  0  0  0  0  0  0  0  0  0  0  0
    8.0512  -15.2556   25.4472 O   0  0  0  0  0  0  0  0  0  0  0  0
    9.2764  -14.9563   25.3844 C   0  0  0  0  0  0  0  0  0  0  0  0
    6.2975  -12.2820   26.8690 C   0  0  2  0  0  0  0  0  0  0  0  0
    7.5867  -13.0856   26.6404 N   0  0  0  0  0  0  0  0  0  0  0  0
    7.1640  -14.3295   26.0347 C   0  0  0  0  0  0  0  0  0  0  0  0
    8.2062  -13.2691   27.9655 O   0  0  0  0  0  0  0  0  0  0  0  0
    8.7898  -12.3476   28.5841 O   0  0  0  0  0  0  0  0  0  0  0  0
  1  2  1  0
  2  3  2  0
  4  5  1  0
  4  2  1  0
  6  7  1  0
  6  5  1  0
  8  7  1  0
  8  9  1  6
  8 10  1  0
 10 11  2  0
 13 12  1  0
 14 13  1  0
 14 15  1  6
 16 14  1  0
 16 17  1  1
 17 10  1  0
 18 19  2  0
 18 16  1  0
 21 20  1  6
 21 22  1  0
 22 18  1  0
 23 25  1  0
 23 21  1  0
 24 23  2  0
M  END
$$$$
