RIA.pdb
     RDKit          3D

 25 24  0  0  1  0  0  0  0  0999 V2000
    7.3224  -12.9693   16.8661 N   0  0  0  0  0  0  0  0  0  0  0  0
    7.3998  -14.1715   16.0693 C   0  0  0  0  0  0  0  0  0  0  0  0
    7.7168  -14.0808   14.8228 N   0  0  0  0  0  0  0  0  0  0  0  0
    7.1346  -15.4393   16.6244 N   0  0  0  0  0  0  0  0  0  0  0  0
    6.8408  -15.6073   18.0610 C   0  0  0  0  0  0  0  0  0  0  0  0
    8.0156  -15.0940   18.8317 C   0  0  0  0  0  0  0  0  0  0  0  0
    7.9117  -15.1337   20.3170 C   0  0  0  0  0  0  0  0  0  0  0  0
    7.9984  -13.8126   21.0230 C   0  0  2  0  0  0  0  0  0  0  0  0
    8.9650  -12.9760   20.3548 N   0  0  0  0  0  0  0  0  0  0  0  0
    8.4840  -14.0304   22.4306 C   0  0  0  0  0  0  0  0  0  0  0  0
    9.6711  -14.3436   22.6379 O   0  0  0  0  0  0  0  0  0  0  0  0
    7.7853  -14.8714   14.1580 C   0  0  0  0  0  0  0  0  0  0  0  0
    5.9066  -11.3176   26.5163 C   0  0  0  0  0  0  0  0  0  0  0  0
    6.9358  -11.9597   25.6598 C   0  0  2  0  0  0  0  0  0  0  0  0
    7.2583  -13.3834   25.9512 C   0  0  0  0  0  0  0  0  0  0  0  0
    7.7269  -13.6067   27.3699 C   0  0  2  0  0  0  0  0  0  0  0  0
    8.1008  -14.0808   24.9172 N   0  0  0  0  0  0  0  0  0  0  0  0
    7.6167  -13.8891   23.5632 C   0  0  0  0  0  0  0  0  0  0  0  0
    8.1694  -15.5185   25.2704 O   0  0  0  0  0  0  0  0  0  0  0  0
    7.1313  -16.2243   25.4080 C   0  0  0  0  0  0  0  0  0  0  0  0
   10.7688  -18.0518   25.0804 C   0  0  2  0  0  0  0  0  0  0  0  0
    9.5955  -17.4971   25.9024 N   0  0  0  0  0  0  0  0  0  0  0  0
    9.4262  -16.1302   25.4600 C   0  0  0  0  0  0  0  0  0  0  0  0
    9.9903  -17.6014   27.3189 O   0  0  0  0  0  0  0  0  0  0  0  0
   10.2668  -16.6059   28.0296 O   0  0  0  0  0  0  0  0  0  0  0  0
  1  2  1  0
  2  3  2  0
  4  5  1  0
  4  2  1  0
  6  7  1  0
  6  5  1  0
  8  7  1  0
  8  9  1  6
  8 10  1  0
 10 11  2  0
 13 12  1  0
 14 13  1  0
 14 15  1  6
 16 14  1  0
 16 17  1  6
 17 10  1  0
 18 19  2  0
 18 16  1  0
 21 20  1  6
 21 22  1  0
 22 18  1  0
 23 25  1  0
 23 21  1  0
 24 23  2  0
M  END
$$$$
