RIA.pdb
     RDKit          3D

 25 24  0  0  1  0  0  0  0  0999 V2000
    9.9318  -19.5373   13.5051 N   0  0  0  0  0  0  0  0  0  0  0  0
   11.2214  -20.0655   13.8841 C   0  0  0  0  0  0  0  0  0  0  0  0
   11.8259  -20.8807   13.0888 N   0  0  0  0  0  0  0  0  0  0  0  0
   11.8311  -19.7107   15.1040 N   0  0  0  0  0  0  0  0  0  0  0  0
   11.1926  -20.0066   16.4014 C   0  0  0  0  0  0  0  0  0  0  0  0
   10.1193  -18.9892   16.6260 C   0  0  0  0  0  0  0  0  0  0  0  0
   10.4701  -17.8235   17.4844 C   0  0  0  0  0  0  0  0  0  0  0  0
   10.3997  -18.0468   18.9664 C   0  0  2  0  0  0  0  0  0  0  0  0
    9.1384  -18.6633   19.2976 N   0  0  0  0  0  0  0  0  0  0  0  0
   10.4548  -16.7196   19.6737 C   0  0  0  0  0  0  0  0  0  0  0  0
   11.4715  -16.0069   19.5814 O   0  0  0  0  0  0  0  0  0  0  0  0
   12.7521  -21.3120   13.2556 C   0  0  0  0  0  0  0  0  0  0  0  0
    6.7099  -12.8163   19.6519 C   0  0  0  0  0  0  0  0  0  0  0  0
    7.9963  -13.5381   19.8236 C   0  0  2  0  0  0  0  0  0  0  0  0
    8.2532  -14.1434   21.1590 C   0  0  0  0  0  0  0  0  0  0  0  0
    8.1307  -13.1524   22.2927 C   0  0  2  0  0  0  0  0  0  0  0  0
    9.4736  -15.0196   21.2485 N   0  0  0  0  0  0  0  0  0  0  0  0
    9.3618  -16.2352   20.4648 C   0  0  0  0  0  0  0  0  0  0  0  0
    9.7249  -15.3171   22.6784 O   0  0  0  0  0  0  0  0  0  0  0  0
    9.0825  -14.7465   23.6039 C   0  0  0  0  0  0  0  0  0  0  0  0
    9.7125  -17.4778   24.8137 C   0  0  2  0  0  0  0  0  0  0  0  0
   10.9623  -16.6917   24.3894 N   0  0  0  0  0  0  0  0  0  0  0  0
   10.7077  -16.2657   23.0305 C   0  0  0  0  0  0  0  0  0  0  0  0
   12.1000  -17.6228   24.4997 O   0  0  0  0  0  0  0  0  0  0  0  0
   12.6076  -17.9598   25.5957 O   0  0  0  0  0  0  0  0  0  0  0  0
  1  2  1  0
  2  3  2  0
  4  5  1  0
  4  2  1  0
  6  7  1  0
  6  5  1  0
  8  7  1  0
  8  9  1  6
  8 10  1  0
 10 11  2  0
 13 12  1  0
 14 13  1  0
 14 15  1  1
 16 14  1  0
 16 17  1  6
 17 10  1  0
 18 19  2  0
 18 16  1  0
 21 20  1  1
 21 22  1  0
 22 18  1  0
 23 25  1  0
 23 21  1  0
 24 23  2  0
M  END
$$$$
