RIA.pdb
     RDKit          3D

 25 24  0  0  1  0  0  0  0  0999 V2000
    8.8748  -18.5719   18.4887 N   0  0  0  0  0  0  0  0  0  0  0  0
    7.8057  -18.4022   17.5326 C   0  0  0  0  0  0  0  0  0  0  0  0
    7.3736  -19.4288   16.8831 N   0  0  0  0  0  0  0  0  0  0  0  0
    7.2269  -17.1397   17.2938 N   0  0  0  0  0  0  0  0  0  0  0  0
    7.5705  -15.9643   18.1177 C   0  0  0  0  0  0  0  0  0  0  0  0
    6.6884  -15.9785   19.3258 C   0  0  0  0  0  0  0  0  0  0  0  0
    7.3409  -15.6984   20.6351 C   0  0  0  0  0  0  0  0  0  0  0  0
    7.0991  -14.3374   21.2184 C   0  0  2  0  0  0  0  0  0  0  0  0
    7.5608  -13.3318   20.2930 N   0  0  0  0  0  0  0  0  0  0  0  0
    7.8982  -14.1885   22.4849 C   0  0  0  0  0  0  0  0  0  0  0  0
    9.1072  -13.8968   22.4272 O   0  0  0  0  0  0  0  0  0  0  0  0
    6.6579  -19.4131   16.1353 C   0  0  0  0  0  0  0  0  0  0  0  0
    5.9156  -11.6641   26.6752 C   0  0  0  0  0  0  0  0  0  0  0  0
    6.9797  -12.2270   25.8057 C   0  0  2  0  0  0  0  0  0  0  0  0
    7.4438  -13.6059   26.1203 C   0  0  0  0  0  0  0  0  0  0  0  0
    8.1928  -13.6953   27.4292 C   0  0  2  0  0  0  0  0  0  0  0  0
    8.1122  -14.3379   24.9878 N   0  0  0  0  0  0  0  0  0  0  0  0
    7.3104  -14.3732   23.7793 C   0  0  0  0  0  0  0  0  0  0  0  0
    8.4493  -15.7033   25.4553 O   0  0  0  0  0  0  0  0  0  0  0  0
    7.5694  -16.4988   25.8886 C   0  0  0  0  0  0  0  0  0  0  0  0
   11.5279  -17.7176   25.0552 C   0  0  2  0  0  0  0  0  0  0  0  0
   10.2113  -17.4696   25.8069 N   0  0  0  0  0  0  0  0  0  0  0  0
    9.7897  -16.1412   25.4191 C   0  0  0  0  0  0  0  0  0  0  0  0
   10.5220  -17.5809   27.2437 O   0  0  0  0  0  0  0  0  0  0  0  0
   10.5093  -16.6015   28.0267 O   0  0  0  0  0  0  0  0  0  0  0  0
  1  2  1  0
  2  3  2  0
  4  5  1  0
  4  2  1  0
  6  7  1  0
  6  5  1  0
  8  7  1  0
  8  9  1  6
  8 10  1  0
 10 11  2  0
 13 12  1  0
 14 13  1  0
 14 15  1  6
 16 14  1  0
 16 17  1  6
 17 10  1  0
 18 19  2  0
 18 16  1  0
 21 20  1  6
 21 22  1  0
 22 18  1  0
 23 25  1  0
 23 21  1  0
 24 23  2  0
M  END
$$$$
