RIA.pdb
     RDKit          3D

 25 24  0  0  1  0  0  0  0  0999 V2000
    9.5387  -13.4402   18.4133 N   0  0  0  0  0  0  0  0  0  0  0  0
    8.5295  -13.7397   17.4245 C   0  0  0  0  0  0  0  0  0  0  0  0
    8.2145  -12.8414   16.5549 N   0  0  0  0  0  0  0  0  0  0  0  0
    7.8815  -14.9906   17.3916 N   0  0  0  0  0  0  0  0  0  0  0  0
    8.1001  -16.0016   18.4444 C   0  0  0  0  0  0  0  0  0  0  0  0
    7.3193  -15.5835   19.6498 C   0  0  0  0  0  0  0  0  0  0  0  0
    8.1021  -15.0936   20.8185 C   0  0  0  0  0  0  0  0  0  0  0  0
    8.2672  -16.0572   21.9565 C   0  0  2  0  0  0  0  0  0  0  0  0
    6.9798  -16.6018   22.3125 N   0  0  0  0  0  0  0  0  0  0  0  0
    8.7965  -15.3229   23.1588 C   0  0  0  0  0  0  0  0  0  0  0  0
    9.9306  -14.8101   23.1253 O   0  0  0  0  0  0  0  0  0  0  0  0
    7.5211  -12.9538   15.7945 C   0  0  0  0  0  0  0  0  0  0  0  0
    5.6340  -11.9540   25.8729 C   0  0  0  0  0  0  0  0  0  0  0  0
    6.7983  -12.6691   25.2912 C   0  0  2  0  0  0  0  0  0  0  0  0
    7.5265  -13.6072   26.1887 C   0  0  0  0  0  0  0  0  0  0  0  0
    8.0208  -12.9514   27.4566 C   0  0  2  0  0  0  0  0  0  0  0  0
    8.5525  -14.4799   25.5173 N   0  0  0  0  0  0  0  0  0  0  0  0
    8.0316  -15.1888   24.3637 C   0  0  0  0  0  0  0  0  0  0  0  0
    9.0961  -15.4162   26.5294 O   0  0  0  0  0  0  0  0  0  0  0  0
    9.6677  -15.0091   27.5793 C   0  0  0  0  0  0  0  0  0  0  0  0
    8.8301  -19.1128   26.8763 C   0  0  2  0  0  0  0  0  0  0  0  0
    9.5542  -17.7991   27.2077 N   0  0  0  0  0  0  0  0  0  0  0  0
    8.9766  -16.8071   26.3273 C   0  0  0  0  0  0  0  0  0  0  0  0
   10.9869  -18.0346   26.9520 O   0  0  0  0  0  0  0  0  0  0  0  0
   11.6923  -18.8002   27.6511 O   0  0  0  0  0  0  0  0  0  0  0  0
  1  2  1  0
  2  3  2  0
  4  5  1  0
  4  2  1  0
  6  7  1  0
  6  5  1  0
  8  7  1  0
  8  9  1  1
  8 10  1  0
 10 11  2  0
 13 12  1  0
 14 13  1  0
 14 15  1  1
 16 14  1  0
 16 17  1  6
 17 10  1  0
 18 19  2  0
 18 16  1  0
 21 20  1  1
 21 22  1  0
 22 18  1  0
 23 25  1  0
 23 21  1  0
 24 23  2  0
M  END
$$$$
