RIA.pdb
     RDKit          3D

 25 24  0  0  1  0  0  0  0  0999 V2000
    9.1457  -14.6993   16.8792 N   0  0  0  0  0  0  0  0  0  0  0  0
    7.8716  -14.0420   17.0537 C   0  0  0  0  0  0  0  0  0  0  0  0
    7.3722  -13.3676   16.0748 N   0  0  0  0  0  0  0  0  0  0  0  0
    7.1648  -14.1204   18.2703 N   0  0  0  0  0  0  0  0  0  0  0  0
    7.8655  -14.1939   19.5672 C   0  0  0  0  0  0  0  0  0  0  0  0
    8.8810  -15.2887   19.4776 C   0  0  0  0  0  0  0  0  0  0  0  0
    9.7604  -15.4857   20.6634 C   0  0  0  0  0  0  0  0  0  0  0  0
    9.1378  -16.1714   21.8437 C   0  0  2  0  0  0  0  0  0  0  0  0
    7.7098  -16.2474   21.6540 N   0  0  0  0  0  0  0  0  0  0  0  0
    9.3872  -15.3554   23.0833 C   0  0  0  0  0  0  0  0  0  0  0  0
   10.5301  -14.9248   23.3254 O   0  0  0  0  0  0  0  0  0  0  0  0
    6.4810  -12.8414   16.0964 C   0  0  0  0  0  0  0  0  0  0  0  0
    6.2474  -11.8699   27.2552 C   0  0  0  0  0  0  0  0  0  0  0  0
    7.4695  -12.3786   26.5822 C   0  0  2  0  0  0  0  0  0  0  0  0
    7.2870  -13.4930   25.6123 C   0  0  0  0  0  0  0  0  0  0  0  0
    6.2245  -14.4798   26.0361 C   0  0  2  0  0  0  0  0  0  0  0  0
    8.5551  -14.1396   25.1234 N   0  0  0  0  0  0  0  0  0  0  0  0
    8.3406  -15.0491   24.0138 C   0  0  0  0  0  0  0  0  0  0  0  0
    9.1962  -14.8250   26.2705 O   0  0  0  0  0  0  0  0  0  0  0  0
    9.6571  -14.1878   27.2585 C   0  0  0  0  0  0  0  0  0  0  0  0
    9.0242  -16.7508   28.5733 C   0  0  2  0  0  0  0  0  0  0  0  0
    9.9107  -16.9906   27.3418 N   0  0  0  0  0  0  0  0  0  0  0  0
    9.2996  -16.2317   26.2724 C   0  0  0  0  0  0  0  0  0  0  0  0
    9.9026  -18.4443   27.0967 O   0  0  0  0  0  0  0  0  0  0  0  0
    9.3752  -18.9672   26.0863 O   0  0  0  0  0  0  0  0  0  0  0  0
  1  2  1  0
  2  3  2  0
  4  5  1  0
  4  2  1  0
  6  7  1  0
  6  5  1  0
  8  7  1  0
  8  9  1  6
  8 10  1  0
 10 11  2  0
 13 12  1  0
 14 13  1  0
 14 15  1  6
 16 14  1  0
 16 17  1  1
 17 10  1  0
 18 19  2  0
 18 16  1  0
 21 20  1  1
 21 22  1  0
 22 18  1  0
 23 25  1  0
 23 21  1  0
 24 23  2  0
M  END
$$$$
