RIA.pdb
     RDKit          3D

 25 24  0  0  1  0  0  0  0  0999 V2000
   10.7340  -15.1308   17.2883 N   0  0  0  0  0  0  0  0  0  0  0  0
   11.0104  -14.1266   18.2889 C   0  0  0  0  0  0  0  0  0  0  0  0
   12.2203  -13.9704   18.7062 N   0  0  0  0  0  0  0  0  0  0  0  0
    9.9866  -13.3166   18.8194 N   0  0  0  0  0  0  0  0  0  0  0  0
    8.5794  -13.4805   18.4056 C   0  0  0  0  0  0  0  0  0  0  0  0
    8.0346  -14.6865   19.1033 C   0  0  0  0  0  0  0  0  0  0  0  0
    7.3064  -14.4496   20.3808 C   0  0  0  0  0  0  0  0  0  0  0  0
    7.1823  -15.6279   21.3013 C   0  0  2  0  0  0  0  0  0  0  0  0
    6.2509  -16.5762   20.7410 N   0  0  0  0  0  0  0  0  0  0  0  0
    6.6247  -15.1719   22.6226 C   0  0  0  0  0  0  0  0  0  0  0  0
    5.5650  -14.5192   22.6589 O   0  0  0  0  0  0  0  0  0  0  0  0
   12.5320  -13.2781   19.4098 C   0  0  0  0  0  0  0  0  0  0  0  0
    6.1515  -12.3643   27.6116 C   0  0  0  0  0  0  0  0  0  0  0  0
    7.1389  -12.8176   26.5992 C   0  0  2  0  0  0  0  0  0  0  0  0
    6.7766  -14.0199   25.7999 C   0  0  0  0  0  0  0  0  0  0  0  0
    6.3103  -15.1786   26.6498 C   0  0  2  0  0  0  0  0  0  0  0  0
    7.7640  -14.4092   24.7328 N   0  0  0  0  0  0  0  0  0  0  0  0
    7.2786  -15.4649   23.8641 C   0  0  0  0  0  0  0  0  0  0  0  0
    9.0331  -14.7922   25.3953 O   0  0  0  0  0  0  0  0  0  0  0  0
    9.4875  -14.1588   26.3888 C   0  0  0  0  0  0  0  0  0  0  0  0
   10.5932  -16.8580   26.9203 C   0  0  2  0  0  0  0  0  0  0  0  0
   10.9898  -16.3750   25.5170 N   0  0  0  0  0  0  0  0  0  0  0  0
    9.7652  -15.8971   24.9127 C   0  0  0  0  0  0  0  0  0  0  0  0
   11.5621  -17.5406   24.8191 O   0  0  0  0  0  0  0  0  0  0  0  0
   11.0128  -18.0888   23.8340 O   0  0  0  0  0  0  0  0  0  0  0  0
  1  2  1  0
  2  3  2  0
  4  5  1  0
  4  2  1  0
  6  7  1  0
  6  5  1  0
  8  7  1  0
  8  9  1  6
  8 10  1  0
 10 11  2  0
 13 12  1  0
 14 13  1  0
 14 15  1  6
 16 14  1  0
 16 17  1  1
 17 10  1  0
 18 19  2  0
 18 16  1  0
 21 20  1  1
 21 22  1  0
 22 18  1  0
 23 25  1  0
 23 21  1  0
 24 23  2  0
M  END
$$$$
