RIA.pdb
     RDKit          3D

 25 24  0  0  1  0  0  0  0  0999 V2000
    7.7606  -15.0558   16.6240 N   0  0  0  0  0  0  0  0  0  0  0  0
    7.6093  -13.9471   17.5372 C   0  0  0  0  0  0  0  0  0  0  0  0
    8.2650  -12.8585   17.3192 N   0  0  0  0  0  0  0  0  0  0  0  0
    6.7629  -14.0308   18.6607 N   0  0  0  0  0  0  0  0  0  0  0  0
    6.1725  -15.3139   19.0890 C   0  0  0  0  0  0  0  0  0  0  0  0
    7.2892  -16.2094   19.5233 C   0  0  0  0  0  0  0  0  0  0  0  0
    7.6679  -16.1582   20.9630 C   0  0  0  0  0  0  0  0  0  0  0  0
    8.4513  -14.9555   21.3998 C   0  0  2  0  0  0  0  0  0  0  0  0
    9.7347  -14.9559   20.7412 N   0  0  0  0  0  0  0  0  0  0  0  0
    8.7026  -15.0353   22.8815 C   0  0  0  0  0  0  0  0  0  0  0  0
    9.7101  -15.6275   23.3108 O   0  0  0  0  0  0  0  0  0  0  0  0
    8.2525  -12.0154   17.9197 C   0  0  0  0  0  0  0  0  0  0  0  0
    5.9586  -11.3190   25.7913 C   0  0  0  0  0  0  0  0  0  0  0  0
    7.1969  -12.0897   25.5121 C   0  0  2  0  0  0  0  0  0  0  0  0
    7.2540  -13.4813   26.0374 C   0  0  0  0  0  0  0  0  0  0  0  0
    7.4798  -13.5429   27.5298 C   0  0  2  0  0  0  0  0  0  0  0  0
    8.1160  -14.4340   25.2535 N   0  0  0  0  0  0  0  0  0  0  0  0
    7.8101  -14.4452   23.8355 C   0  0  0  0  0  0  0  0  0  0  0  0
    7.9736  -15.7833   25.8500 O   0  0  0  0  0  0  0  0  0  0  0  0
    6.9864  -16.5278   25.5935 C   0  0  0  0  0  0  0  0  0  0  0  0
    9.5074  -18.4196   25.8968 C   0  0  2  0  0  0  0  0  0  0  0  0
    9.0672  -17.6451   27.1483 N   0  0  0  0  0  0  0  0  0  0  0  0
    8.9646  -16.2636   26.7313 C   0  0  0  0  0  0  0  0  0  0  0  0
   10.1110  -17.8657   28.1658 O   0  0  0  0  0  0  0  0  0  0  0  0
   10.9275  -16.9803   28.5148 O   0  0  0  0  0  0  0  0  0  0  0  0
  1  2  1  0
  2  3  2  0
  4  5  1  0
  4  2  1  0
  6  7  1  0
  6  5  1  0
  8  7  1  0
  8  9  1  6
  8 10  1  0
 10 11  2  0
 13 12  1  0
 14 13  1  0
 14 15  1  6
 16 14  1  0
 16 17  1  1
 17 10  1  0
 18 19  2  0
 18 16  1  0
 21 20  1  6
 21 22  1  0
 22 18  1  0
 23 25  1  0
 23 21  1  0
 24 23  2  0
M  END
$$$$
