RIA.pdb
     RDKit          3D

 25 24  0  0  1  0  0  0  0  0999 V2000
    6.2792  -19.9489   19.3090 N   0  0  0  0  0  0  0  0  0  0  0  0
    6.2268  -19.2171   18.0650 C   0  0  0  0  0  0  0  0  0  0  0  0
    6.2047  -19.8682   16.9524 N   0  0  0  0  0  0  0  0  0  0  0  0
    6.2013  -17.8083   18.0417 N   0  0  0  0  0  0  0  0  0  0  0  0
    7.0810  -17.0054   18.9134 C   0  0  0  0  0  0  0  0  0  0  0  0
    7.1925  -17.7123   20.2270 C   0  0  0  0  0  0  0  0  0  0  0  0
    8.0764  -17.0884   21.2507 C   0  0  0  0  0  0  0  0  0  0  0  0
    7.9443  -15.6040   21.4245 C   0  0  2  0  0  0  0  0  0  0  0  0
    8.6746  -14.9332   20.3770 N   0  0  0  0  0  0  0  0  0  0  0  0
    8.5598  -15.1989   22.7367 C   0  0  0  0  0  0  0  0  0  0  0  0
    9.7931  -15.0546   22.8274 O   0  0  0  0  0  0  0  0  0  0  0  0
    6.2523  -19.4500   16.0066 C   0  0  0  0  0  0  0  0  0  0  0  0
    5.9056  -11.7766   25.9983 C   0  0  0  0  0  0  0  0  0  0  0  0
    7.0164  -12.5063   25.3357 C   0  0  2  0  0  0  0  0  0  0  0  0
    7.5245  -13.7241   26.0247 C   0  0  0  0  0  0  0  0  0  0  0  0
    8.1075  -13.4344   27.3879 C   0  0  2  0  0  0  0  0  0  0  0  0
    8.3750  -14.6366   25.1826 N   0  0  0  0  0  0  0  0  0  0  0  0
    7.7664  -14.9688   23.9083 C   0  0  0  0  0  0  0  0  0  0  0  0
    8.6722  -15.8531   25.9754 O   0  0  0  0  0  0  0  0  0  0  0  0
    7.7613  -16.5318   26.5270 C   0  0  0  0  0  0  0  0  0  0  0  0
   11.7890  -17.8340   26.3465 C   0  0  2  0  0  0  0  0  0  0  0  0
   10.3996  -17.4499   26.8776 N   0  0  0  0  0  0  0  0  0  0  0  0
   10.0089  -16.2779   26.1250 C   0  0  0  0  0  0  0  0  0  0  0  0
   10.5611  -17.1841   28.3187 O   0  0  0  0  0  0  0  0  0  0  0  0
   10.4982  -16.0346   28.8160 O   0  0  0  0  0  0  0  0  0  0  0  0
  1  2  1  0
  2  3  2  0
  4  5  1  0
  4  2  1  0
  6  7  1  0
  6  5  1  0
  8  7  1  0
  8  9  1  6
  8 10  1  0
 10 11  2  0
 13 12  1  0
 14 13  1  0
 14 15  1  6
 16 14  1  0
 16 17  1  6
 17 10  1  0
 18 19  2  0
 18 16  1  0
 21 20  1  6
 21 22  1  0
 22 18  1  0
 23 25  1  0
 23 21  1  0
 24 23  2  0
M  END
$$$$
