RIA.pdb
     RDKit          3D

 25 24  0  0  1  0  0  0  0  0999 V2000
    6.4548  -13.2613   17.1058 N   0  0  0  0  0  0  0  0  0  0  0  0
    7.3314  -13.9874   16.2168 C   0  0  0  0  0  0  0  0  0  0  0  0
    7.1266  -13.9292   14.9451 N   0  0  0  0  0  0  0  0  0  0  0  0
    8.4031  -14.7584   16.7095 N   0  0  0  0  0  0  0  0  0  0  0  0
    8.8316  -14.6734   18.1193 C   0  0  0  0  0  0  0  0  0  0  0  0
    7.7202  -15.2040   18.9683 C   0  0  0  0  0  0  0  0  0  0  0  0
    7.9571  -15.2368   20.4385 C   0  0  0  0  0  0  0  0  0  0  0  0
    8.3593  -13.9386   21.0741 C   0  0  2  0  0  0  0  0  0  0  0  0
    9.5189  -13.4133   20.3957 N   0  0  0  0  0  0  0  0  0  0  0  0
    8.7459  -14.1841   22.5077 C   0  0  0  0  0  0  0  0  0  0  0  0
    9.9219  -14.4757   22.7940 O   0  0  0  0  0  0  0  0  0  0  0  0
    7.7289  -14.3510   14.2164 C   0  0  0  0  0  0  0  0  0  0  0  0
    5.6263  -11.5088   26.0338 C   0  0  0  0  0  0  0  0  0  0  0  0
    6.8781  -12.0597   25.4553 C   0  0  2  0  0  0  0  0  0  0  0  0
    7.2758  -13.4255   25.8939 C   0  0  0  0  0  0  0  0  0  0  0  0
    7.6915  -13.4847   27.3451 C   0  0  2  0  0  0  0  0  0  0  0  0
    8.2073  -14.1576   24.9657 N   0  0  0  0  0  0  0  0  0  0  0  0
    7.7947  -14.0939   23.5764 C   0  0  0  0  0  0  0  0  0  0  0  0
    8.3194  -15.5590   25.4346 O   0  0  0  0  0  0  0  0  0  0  0  0
    7.3082  -16.2332   25.7775 C   0  0  0  0  0  0  0  0  0  0  0  0
   11.2585  -17.8575   25.5826 C   0  0  2  0  0  0  0  0  0  0  0  0
    9.7996  -17.5346   25.9392 N   0  0  0  0  0  0  0  0  0  0  0  0
    9.5883  -16.1713   25.5034 C   0  0  0  0  0  0  0  0  0  0  0  0
    9.6789  -17.6999   27.3991 O   0  0  0  0  0  0  0  0  0  0  0  0
    9.8699  -16.7660   28.2139 O   0  0  0  0  0  0  0  0  0  0  0  0
  1  2  1  0
  2  3  2  0
  4  5  1  0
  4  2  1  0
  6  7  1  0
  6  5  1  0
  8  7  1  0
  8  9  1  6
  8 10  1  0
 10 11  2  0
 13 12  1  0
 14 13  1  0
 14 15  1  6
 16 14  1  0
 16 17  1  6
 17 10  1  0
 18 19  2  0
 18 16  1  0
 21 20  1  6
 21 22  1  0
 22 18  1  0
 23 25  1  0
 23 21  1  0
 24 23  2  0
M  END
$$$$
