RIA.pdb
     RDKit          3D

 25 24  0  0  1  0  0  0  0  0999 V2000
    6.7051  -20.1130   18.6664 N   0  0  0  0  0  0  0  0  0  0  0  0
    5.7216  -19.3163   17.9708 C   0  0  0  0  0  0  0  0  0  0  0  0
    4.7397  -19.9053   17.3781 N   0  0  0  0  0  0  0  0  0  0  0  0
    5.8137  -17.9109   17.9245 N   0  0  0  0  0  0  0  0  0  0  0  0
    6.8646  -17.1812   18.6605 C   0  0  0  0  0  0  0  0  0  0  0  0
    6.5775  -17.3161   20.1223 C   0  0  0  0  0  0  0  0  0  0  0  0
    7.5758  -16.7280   21.0583 C   0  0  0  0  0  0  0  0  0  0  0  0
    7.4913  -15.2452   21.2715 C   0  0  2  0  0  0  0  0  0  0  0  0
    8.1459  -14.5672   20.1794 N   0  0  0  0  0  0  0  0  0  0  0  0
    8.2232  -14.8806   22.5349 C   0  0  0  0  0  0  0  0  0  0  0  0
    9.4664  -14.8137   22.5367 O   0  0  0  0  0  0  0  0  0  0  0  0
    3.9824  -19.4353   16.8516 C   0  0  0  0  0  0  0  0  0  0  0  0
    6.0618  -11.4438   26.2278 C   0  0  0  0  0  0  0  0  0  0  0  0
    7.0018  -12.2286   25.3877 C   0  0  2  0  0  0  0  0  0  0  0  0
    7.5179  -13.4994   25.9661 C   0  0  0  0  0  0  0  0  0  0  0  0
    8.2355  -13.3041   27.2810 C   0  0  2  0  0  0  0  0  0  0  0  0
    8.2472  -14.3987   25.0046 N   0  0  0  0  0  0  0  0  0  0  0  0
    7.5315  -14.6025   23.7593 C   0  0  0  0  0  0  0  0  0  0  0  0
    8.5196  -15.6840   25.6905 O   0  0  0  0  0  0  0  0  0  0  0  0
    7.6091  -16.3397   26.2699 C   0  0  0  0  0  0  0  0  0  0  0  0
   11.4798  -17.9096   25.6095 C   0  0  2  0  0  0  0  0  0  0  0  0
   10.1904  -17.4633   26.3154 N   0  0  0  0  0  0  0  0  0  0  0  0
    9.8311  -16.2031   25.7025 C   0  0  0  0  0  0  0  0  0  0  0  0
   10.5189  -17.3370   27.7469 O   0  0  0  0  0  0  0  0  0  0  0  0
   10.6788  -18.3236   28.5043 O   0  0  0  0  0  0  0  0  0  0  0  0
  1  2  1  0
  2  3  2  0
  4  5  1  0
  4  2  1  0
  6  7  1  0
  6  5  1  0
  8  7  1  0
  8  9  1  6
  8 10  1  0
 10 11  2  0
 13 12  1  0
 14 13  1  0
 14 15  1  6
 16 14  1  0
 16 17  1  6
 17 10  1  0
 18 19  2  0
 18 16  1  0
 21 20  1  6
 21 22  1  0
 22 18  1  0
 23 25  1  0
 23 21  1  0
 24 23  2  0
M  END
$$$$
