RIA.pdb
     RDKit          3D

 25 24  0  0  1  0  0  0  0  0999 V2000
    7.7349  -19.8538   16.7337 N   0  0  0  0  0  0  0  0  0  0  0  0
    6.9845  -18.6283   16.5888 C   0  0  0  0  0  0  0  0  0  0  0  0
    7.0043  -18.0084   15.4584 N   0  0  0  0  0  0  0  0  0  0  0  0
    6.2340  -18.0957   17.6559 N   0  0  0  0  0  0  0  0  0  0  0  0
    6.8232  -17.9067   18.9959 C   0  0  0  0  0  0  0  0  0  0  0  0
    7.4955  -16.5705   19.0161 C   0  0  0  0  0  0  0  0  0  0  0  0
    8.0732  -16.1307   20.3166 C   0  0  0  0  0  0  0  0  0  0  0  0
    7.5149  -14.8642   20.8954 C   0  0  2  0  0  0  0  0  0  0  0  0
    7.7800  -13.7693   19.9944 N   0  0  0  0  0  0  0  0  0  0  0  0
    8.2111  -14.5603   22.1946 C   0  0  0  0  0  0  0  0  0  0  0  0
    9.4419  -14.7200   22.2932 O   0  0  0  0  0  0  0  0  0  0  0  0
    6.5913  -17.0774   15.2728 C   0  0  0  0  0  0  0  0  0  0  0  0
    7.3839  -11.7393   27.7574 C   0  0  0  0  0  0  0  0  0  0  0  0
    8.0630  -12.7019   26.8532 C   0  0  2  0  0  0  0  0  0  0  0  0
    7.4191  -12.9530   25.5348 C   0  0  0  0  0  0  0  0  0  0  0  0
    5.9428  -13.2543   25.6437 C   0  0  2  0  0  0  0  0  0  0  0  0
    8.1630  -13.8873   24.6188 N   0  0  0  0  0  0  0  0  0  0  0  0
    7.4988  -14.0857   23.3445 C   0  0  0  0  0  0  0  0  0  0  0  0
    8.3634  -15.1710   25.3319 O   0  0  0  0  0  0  0  0  0  0  0  0
    7.4025  -15.8068   25.8487 C   0  0  0  0  0  0  0  0  0  0  0  0
   11.2785  -17.4496   25.4997 C   0  0  2  0  0  0  0  0  0  0  0  0
    9.9578  -16.9590   26.1122 N   0  0  0  0  0  0  0  0  0  0  0  0
    9.6617  -15.7112   25.4427 C   0  0  0  0  0  0  0  0  0  0  0  0
   10.2013  -16.7960   27.5570 O   0  0  0  0  0  0  0  0  0  0  0  0
   10.2993  -15.6771   28.1148 O   0  0  0  0  0  0  0  0  0  0  0  0
  1  2  1  0
  2  3  2  0
  4  5  1  0
  4  2  1  0
  6  7  1  0
  6  5  1  0
  8  7  1  0
  8  9  1  6
  8 10  1  0
 10 11  2  0
 13 12  1  0
 14 13  1  0
 14 15  1  6
 16 14  1  0
 16 17  1  1
 17 10  1  0
 18 19  2  0
 18 16  1  0
 21 20  1  6
 21 22  1  0
 22 18  1  0
 23 25  1  0
 23 21  1  0
 24 23  2  0
M  END
$$$$
