RIA.pdb
     RDKit          3D

 25 24  0  0  1  0  0  0  0  0999 V2000
   10.2369  -20.3888   19.9585 N   0  0  0  0  0  0  0  0  0  0  0  0
    8.9802  -20.3458   19.2480 C   0  0  0  0  0  0  0  0  0  0  0  0
    8.9871  -20.2980   17.9595 N   0  0  0  0  0  0  0  0  0  0  0  0
    7.7484  -20.3531   19.9325 N   0  0  0  0  0  0  0  0  0  0  0  0
    7.5838  -19.6756   21.2333 C   0  0  0  0  0  0  0  0  0  0  0  0
    8.0414  -18.2604   21.0736 C   0  0  0  0  0  0  0  0  0  0  0  0
    7.8600  -17.3610   22.2469 C   0  0  0  0  0  0  0  0  0  0  0  0
    8.0820  -15.8977   22.0010 C   0  0  2  0  0  0  0  0  0  0  0  0
    9.0940  -15.7316   20.9865 N   0  0  0  0  0  0  0  0  0  0  0  0
    8.5934  -15.2523   23.2607 C   0  0  0  0  0  0  0  0  0  0  0  0
    9.8190  -15.1489   23.4536 O   0  0  0  0  0  0  0  0  0  0  0  0
    8.1559  -20.1737   17.3552 C   0  0  0  0  0  0  0  0  0  0  0  0
    5.5039  -11.4266   25.8166 C   0  0  0  0  0  0  0  0  0  0  0  0
    6.6358  -12.2144   25.2659 C   0  0  2  0  0  0  0  0  0  0  0  0
    7.2419  -13.2358   26.1631 C   0  0  0  0  0  0  0  0  0  0  0  0
    7.7440  -12.6581   27.4655 C   0  0  2  0  0  0  0  0  0  0  0  0
    8.2106  -14.1817   25.5056 N   0  0  0  0  0  0  0  0  0  0  0  0
    7.7075  -14.7429   24.2660 C   0  0  0  0  0  0  0  0  0  0  0  0
    8.5545  -15.2428   26.4814 O   0  0  0  0  0  0  0  0  0  0  0  0
    9.1715  -14.9914   27.5541 C   0  0  0  0  0  0  0  0  0  0  0  0
    7.6365  -18.8544   26.6143 C   0  0  2  0  0  0  0  0  0  0  0  0
    8.5262  -17.6907   27.0773 N   0  0  0  0  0  0  0  0  0  0  0  0
    8.1859  -16.5785   26.2171 C   0  0  0  0  0  0  0  0  0  0  0  0
    9.9210  -18.1402   26.9164 O   0  0  0  0  0  0  0  0  0  0  0  0
   10.7095  -17.6444   26.0768 O   0  0  0  0  0  0  0  0  0  0  0  0
  1  2  1  0
  2  3  2  0
  4  5  1  0
  4  2  1  0
  6  7  1  0
  6  5  1  0
  8  7  1  0
  8  9  1  6
  8 10  1  0
 10 11  2  0
 13 12  1  0
 14 13  1  0
 14 15  1  1
 16 14  1  0
 16 17  1  6
 17 10  1  0
 18 19  2  0
 18 16  1  0
 21 20  1  1
 21 22  1  0
 22 18  1  0
 23 25  1  0
 23 21  1  0
 24 23  2  0
M  END
$$$$
