DAT.pdb
     RDKit          3D

 21 20  0  0  1  0  0  0  0  0999 V2000
    8.9468  -18.7448   20.7942 N   0  0  0  0  0  0  0  0  0  0  0  0
    8.6029  -17.3532   20.6052 C   0  0  1  0  0  0  0  0  0  0  0  0
    7.8444  -17.1454   19.3118 C   0  0  0  0  0  0  0  0  0  0  0  0
    8.6533  -17.6392   18.1766 C   0  0  0  0  0  0  0  0  0  0  0  0
    9.8548  -17.9407   18.3573 O   0  0  0  0  0  0  0  0  0  0  0  0
    7.8367  -16.8807   21.7760 C   0  0  0  0  0  0  0  0  0  0  0  0
    6.8510  -16.1216   21.5719 O   0  0  0  0  0  0  0  0  0  0  0  0
    8.1193  -17.7804   16.9074 O   0  0  0  0  0  0  0  0  0  0  0  0
    7.0230  -17.9027   25.0991 C   0  0  0  0  0  0  0  0  0  0  0  0
    7.3779  -16.7331   24.1978 C   0  0  2  0  0  0  0  0  0  0  0  0
    8.1579  -17.2405   23.1140 N   0  0  0  0  0  0  0  0  0  0  0  0
    8.0736  -15.6589   24.9518 C   0  0  0  0  0  0  0  0  0  0  0  0
    9.3303  -15.5985   24.9516 O   0  0  0  0  0  0  0  0  0  0  0  0
    6.6566  -11.7052   25.5883 C   0  0  0  0  0  0  0  0  0  0  0  0
    7.0978  -12.4812   26.7811 C   0  0  1  0  0  0  0  0  0  0  0  0
    5.9780  -13.0324   27.4049 O   0  0  0  0  0  0  0  0  0  0  0  0
    8.0211  -13.6272   26.4400 C   0  0  2  0  0  0  0  0  0  0  0  0
    7.3773  -14.6678   25.6946 N   0  0  0  0  0  0  0  0  0  0  0  0
    8.7355  -14.1056   27.6301 C   0  0  0  0  0  0  0  0  0  0  0  0
    8.7354  -15.3146   27.9373 O   0  0  0  0  0  0  0  0  0  0  0  0
    9.4175  -13.2076   28.4220 O   0  0  0  0  0  0  0  0  0  0  0  0
  2  1  1  1
  2  3  1  0
  3  4  1  0
  4  8  1  0
  5  4  2  0
  6  2  1  0
  7  6  2  0
 10  9  1  1
 10 12  1  0
 10 11  1  0
 11  6  1  0
 12 13  2  0
 15 16  1  0
 15 14  1  6
 17 15  1  0
 18 12  1  0
 17 18  1  1
 19 17  1  0
 19 21  1  0
 20 19  2  0
M  END
$$$$
