DAT.pdb
     RDKit          3D

 21 20  0  0  1  0  0  0  0  0999 V2000
    7.7566  -16.3427   16.5339 N   0  0  0  0  0  0  0  0  0  0  0  0
    8.7143  -16.9578   17.4255 C   0  0  1  0  0  0  0  0  0  0  0  0
    9.9574  -17.3945   16.6801 C   0  0  0  0  0  0  0  0  0  0  0  0
    9.6427  -17.5632   15.2451 C   0  0  0  0  0  0  0  0  0  0  0  0
    8.4707  -17.3848   14.8431 O   0  0  0  0  0  0  0  0  0  0  0  0
    9.0293  -16.0179   18.5203 C   0  0  0  0  0  0  0  0  0  0  0  0
   10.1151  -16.1746   19.1416 O   0  0  0  0  0  0  0  0  0  0  0  0
   10.6124  -17.9156   14.3223 O   0  0  0  0  0  0  0  0  0  0  0  0
    7.4661  -13.0302   20.1199 C   0  0  0  0  0  0  0  0  0  0  0  0
    8.4823  -14.1565   20.0478 C   0  0  2  0  0  0  0  0  0  0  0  0
    8.1695  -14.9516   18.9030 N   0  0  0  0  0  0  0  0  0  0  0  0
    8.5068  -14.9462   21.3056 C   0  0  0  0  0  0  0  0  0  0  0  0
    7.4298  -15.3107   21.8442 O   0  0  0  0  0  0  0  0  0  0  0  0
    8.8760  -18.1692   22.1763 C   0  0  0  0  0  0  0  0  0  0  0  0
    9.9585  -17.5402   22.9840 C   0  0  1  0  0  0  0  0  0  0  0  0
   11.1760  -17.7104   22.3240 O   0  0  0  0  0  0  0  0  0  0  0  0
    9.7688  -16.0547   23.1828 C   0  0  2  0  0  0  0  0  0  0  0  0
    9.7146  -15.3231   21.9521 N   0  0  0  0  0  0  0  0  0  0  0  0
   10.7377  -15.5204   24.1479 C   0  0  0  0  0  0  0  0  0  0  0  0
   11.5901  -14.6773   23.8033 O   0  0  0  0  0  0  0  0  0  0  0  0
   10.7075  -15.9549   25.4551 O   0  0  0  0  0  0  0  0  0  0  0  0
  2  1  1  6
  2  3  1  0
  3  4  1  0
  4  8  1  0
  5  4  2  0
  6  2  1  0
  7  6  2  0
 10  9  1  1
 10 12  1  0
 10 11  1  0
 11  6  1  0
 12 13  2  0
 15 16  1  0
 15 14  1  6
 17 15  1  0
 18 12  1  0
 17 18  1  6
 19 17  1  0
 19 21  1  0
 20 19  2  0
M  END
$$$$
