DAT.pdb
     RDKit          3D

 21 20  0  0  1  0  0  0  0  0999 V2000
    8.3642  -14.6568   19.8604 N   0  0  0  0  0  0  0  0  0  0  0  0
    7.4728  -15.2323   20.8426 C   0  0  1  0  0  0  0  0  0  0  0  0
    7.2477  -16.7066   20.5834 C   0  0  0  0  0  0  0  0  0  0  0  0
    7.1210  -16.9417   19.1289 C   0  0  0  0  0  0  0  0  0  0  0  0
    6.1162  -16.5130   18.5176 O   0  0  0  0  0  0  0  0  0  0  0  0
    8.0173  -14.9865   22.1933 C   0  0  0  0  0  0  0  0  0  0  0  0
    9.2230  -15.2852   22.4093 O   0  0  0  0  0  0  0  0  0  0  0  0
    8.0878  -17.6275   18.4140 O   0  0  0  0  0  0  0  0  0  0  0  0
    6.9685  -13.3154   25.3375 C   0  0  0  0  0  0  0  0  0  0  0  0
    7.8178  -14.3040   24.5579 C   0  0  2  0  0  0  0  0  0  0  0  0
    7.2489  -14.4321   23.2539 N   0  0  0  0  0  0  0  0  0  0  0  0
    7.9252  -15.6044   25.2675 C   0  0  0  0  0  0  0  0  0  0  0  0
    6.8939  -16.2893   25.4915 O   0  0  0  0  0  0  0  0  0  0  0  0
    9.0682  -18.7835   24.4060 C   0  0  0  0  0  0  0  0  0  0  0  0
    9.8638  -18.4863   25.6300 C   0  0  1  0  0  0  0  0  0  0  0  0
   11.1523  -18.1052   25.2536 O   0  0  0  0  0  0  0  0  0  0  0  0
    9.2927  -17.3560   26.4537 C   0  0  2  0  0  0  0  0  0  0  0  0
    9.1644  -16.1321   25.7200 N   0  0  0  0  0  0  0  0  0  0  0  0
   10.0101  -17.2117   27.7265 C   0  0  0  0  0  0  0  0  0  0  0  0
   10.5646  -16.1373   28.0337 O   0  0  0  0  0  0  0  0  0  0  0  0
   10.0737  -18.2776   28.5972 O   0  0  0  0  0  0  0  0  0  0  0  0
  2  1  1  6
  2  3  1  0
  3  4  1  0
  4  8  1  0
  5  4  2  0
  6  2  1  0
  7  6  2  0
 10  9  1  1
 10 12  1  0
 10 11  1  0
 11  6  1  0
 12 13  2  0
 15 16  1  0
 15 14  1  6
 17 15  1  0
 18 12  1  0
 17 18  1  6
 19 17  1  0
 19 21  1  0
 20 19  2  0
M  END
$$$$
