DAT.pdb
     RDKit          3D

 21 20  0  0  1  0  0  0  0  0999 V2000
   13.1656  -14.9754   17.8314 N   0  0  0  0  0  0  0  0  0  0  0  0
   11.7455  -15.2393   17.7669 C   0  0  1  0  0  0  0  0  0  0  0  0
   11.4585  -16.7237   17.8417 C   0  0  0  0  0  0  0  0  0  0  0  0
   11.8132  -17.3638   16.5567 C   0  0  0  0  0  0  0  0  0  0  0  0
   12.9901  -17.7403   16.3566 O   0  0  0  0  0  0  0  0  0  0  0  0
   11.0648  -14.4909   18.8428 C   0  0  0  0  0  0  0  0  0  0  0  0
   11.6796  -14.3275   19.9313 O   0  0  0  0  0  0  0  0  0  0  0  0
   10.8760  -17.5623   15.5576 O   0  0  0  0  0  0  0  0  0  0  0  0
    7.9130  -12.5452   19.2518 C   0  0  0  0  0  0  0  0  0  0  0  0
    9.1799  -13.1977   19.7767 C   0  0  2  0  0  0  0  0  0  0  0  0
    9.7564  -13.9499   18.7079 N   0  0  0  0  0  0  0  0  0  0  0  0
    8.9055  -14.0260   20.9787 C   0  0  0  0  0  0  0  0  0  0  0  0
    7.8764  -13.8141   21.6709 O   0  0  0  0  0  0  0  0  0  0  0  0
    7.0924  -16.3384   21.7833 C   0  0  0  0  0  0  0  0  0  0  0  0
    8.3915  -16.9695   22.1489 C   0  0  1  0  0  0  0  0  0  0  0  0
    8.8540  -17.7186   21.0664 O   0  0  0  0  0  0  0  0  0  0  0  0
    9.4699  -15.9657   22.4834 C   0  0  2  0  0  0  0  0  0  0  0  0
    9.7662  -15.0745   21.4014 N   0  0  0  0  0  0  0  0  0  0  0  0
   10.6531  -16.6264   23.0482 C   0  0  0  0  0  0  0  0  0  0  0  0
   10.5736  -17.3055   24.0915 O   0  0  0  0  0  0  0  0  0  0  0  0
   11.8717  -16.4960   22.4185 O   0  0  0  0  0  0  0  0  0  0  0  0
  2  1  1  1
  2  3  1  0
  3  4  1  0
  4  8  1  0
  5  4  2  0
  6  2  1  0
  7  6  2  0
 10  9  1  6
 10 12  1  0
 10 11  1  0
 11  6  1  0
 12 13  2  0
 15 16  1  0
 15 14  1  6
 17 15  1  0
 18 12  1  0
 17 18  1  6
 19 17  1  0
 19 21  1  0
 20 19  2  0
M  END
$$$$
