DAT.pdb
     RDKit          3D

 21 20  0  0  1  0  0  0  0  0999 V2000
    7.8852  -18.0228   20.4475 N   0  0  0  0  0  0  0  0  0  0  0  0
    9.2778  -17.6562   20.5768 C   0  0  1  0  0  0  0  0  0  0  0  0
   10.0566  -18.0063   19.3268 C   0  0  0  0  0  0  0  0  0  0  0  0
    9.2271  -18.8574   18.4467 C   0  0  0  0  0  0  0  0  0  0  0  0
    7.9817  -18.8498   18.5728 O   0  0  0  0  0  0  0  0  0  0  0  0
    9.3717  -16.2183   20.9006 C   0  0  0  0  0  0  0  0  0  0  0  0
   10.5152  -15.7329   21.1156 O   0  0  0  0  0  0  0  0  0  0  0  0
    9.7893  -19.6705   17.4778 O   0  0  0  0  0  0  0  0  0  0  0  0
    7.2552  -13.1946   20.9476 C   0  0  0  0  0  0  0  0  0  0  0  0
    8.3728  -14.0473   21.5222 C   0  0  2  0  0  0  0  0  0  0  0  0
    8.2387  -15.3623   20.9804 N   0  0  0  0  0  0  0  0  0  0  0  0
    8.3561  -14.0342   23.0074 C   0  0  0  0  0  0  0  0  0  0  0  0
    8.4703  -12.9476   23.6312 O   0  0  0  0  0  0  0  0  0  0  0  0
    6.0771  -14.1636   25.7110 C   0  0  0  0  0  0  0  0  0  0  0  0
    6.9290  -15.3751   25.8727 C   0  0  1  0  0  0  0  0  0  0  0  0
    6.2899  -16.4634   25.2776 O   0  0  0  0  0  0  0  0  0  0  0  0
    8.2828  -15.2452   25.2149 C   0  0  2  0  0  0  0  0  0  0  0  0
    8.2144  -15.2155   23.7841 N   0  0  0  0  0  0  0  0  0  0  0  0
    9.2268  -16.2382   25.7427 C   0  0  0  0  0  0  0  0  0  0  0  0
    9.7968  -17.0493   24.9855 O   0  0  0  0  0  0  0  0  0  0  0  0
    9.4892  -16.2773   27.0948 O   0  0  0  0  0  0  0  0  0  0  0  0
  2  1  1  6
  2  3  1  0
  3  4  1  0
  4  8  1  0
  5  4  2  0
  6  2  1  0
  7  6  2  0
 10  9  1  6
 10 12  1  0
 10 11  1  0
 11  6  1  0
 12 13  2  0
 15 16  1  0
 15 14  1  6
 17 15  1  0
 18 12  1  0
 17 18  1  6
 19 17  1  0
 19 21  1  0
 20 19  2  0
M  END
$$$$
