DAT.pdb
     RDKit          3D

 21 20  0  0  1  0  0  0  0  0999 V2000
    9.2366  -18.7955   21.0696 N   0  0  0  0  0  0  0  0  0  0  0  0
    9.8460  -17.4876   21.1625 C   0  0  1  0  0  0  0  0  0  0  0  0
    9.6480  -16.6973   19.8866 C   0  0  0  0  0  0  0  0  0  0  0  0
   10.3594  -17.3631   18.7742 C   0  0  0  0  0  0  0  0  0  0  0  0
   10.4378  -16.7952   17.6614 O   0  0  0  0  0  0  0  0  0  0  0  0
    9.2998  -16.7816   22.3391 C   0  0  0  0  0  0  0  0  0  0  0  0
    9.5659  -15.5564   22.4710 O   0  0  0  0  0  0  0  0  0  0  0  0
   10.9477  -18.6069   18.9254 O   0  0  0  0  0  0  0  0  0  0  0  0
    6.9394  -17.4283   25.1270 C   0  0  0  0  0  0  0  0  0  0  0  0
    8.1306  -16.7139   24.5129 C   0  0  2  0  0  0  0  0  0  0  0  0
    8.4930  -17.4166   23.3232 N   0  0  0  0  0  0  0  0  0  0  0  0
    9.2537  -16.6034   25.4787 C   0  0  0  0  0  0  0  0  0  0  0  0
   10.2613  -17.3481   25.3644 O   0  0  0  0  0  0  0  0  0  0  0  0
    9.1083  -13.9655   29.0239 C   0  0  0  0  0  0  0  0  0  0  0  0
   10.3318  -14.2165   28.2116 C   0  0  1  0  0  0  0  0  0  0  0  0
   11.4450  -14.2128   29.0527 O   0  0  0  0  0  0  0  0  0  0  0  0
   10.3166  -15.5524   27.5062 C   0  0  2  0  0  0  0  0  0  0  0  0
    9.2520  -15.6762   26.5554 N   0  0  0  0  0  0  0  0  0  0  0  0
   10.3854  -16.6606   28.4668 C   0  0  0  0  0  0  0  0  0  0  0  0
   11.3954  -16.8329   29.1782 O   0  0  0  0  0  0  0  0  0  0  0  0
    9.3194  -17.5254   28.5865 O   0  0  0  0  0  0  0  0  0  0  0  0
  2  1  1  6
  2  3  1  0
  3  4  1  0
  4  8  1  0
  5  4  2  0
  6  2  1  0
  7  6  2  0
 10  9  1  1
 10 12  1  0
 10 11  1  0
 11  6  1  0
 12 13  2  0
 15 16  1  0
 15 14  1  1
 17 15  1  0
 18 12  1  0
 17 18  1  1
 19 17  1  0
 19 21  1  0
 20 19  2  0
M  END
$$$$
