DAT.pdb
     RDKit          3D

 21 20  0  0  1  0  0  0  0  0999 V2000
    8.4028  -17.3707   19.6255 N   0  0  0  0  0  0  0  0  0  0  0  0
    9.2518  -17.1277   20.7704 C   0  0  1  0  0  0  0  0  0  0  0  0
   10.4164  -16.2302   20.4103 C   0  0  0  0  0  0  0  0  0  0  0  0
   11.4675  -17.0252   19.7396 C   0  0  0  0  0  0  0  0  0  0  0  0
   11.6817  -16.8623   18.5170 O   0  0  0  0  0  0  0  0  0  0  0  0
    8.4377  -16.5624   21.8653 C   0  0  0  0  0  0  0  0  0  0  0  0
    7.7272  -15.5516   21.6142 O   0  0  0  0  0  0  0  0  0  0  0  0
   12.2304  -17.9532   20.4272 O   0  0  0  0  0  0  0  0  0  0  0  0
    7.0094  -17.8026   24.9671 C   0  0  0  0  0  0  0  0  0  0  0  0
    7.4768  -16.6183   24.1393 C   0  0  2  0  0  0  0  0  0  0  0  0
    8.4189  -17.1025   23.1808 N   0  0  0  0  0  0  0  0  0  0  0  0
    8.0338  -15.5422   24.9983 C   0  0  0  0  0  0  0  0  0  0  0  0
    9.2789  -15.4233   25.1350 O   0  0  0  0  0  0  0  0  0  0  0  0
    6.2854  -11.7477   25.4537 C   0  0  0  0  0  0  0  0  0  0  0  0
    6.7072  -12.4327   26.7077 C   0  0  1  0  0  0  0  0  0  0  0  0
    5.5922  -13.0292   27.2974 O   0  0  0  0  0  0  0  0  0  0  0  0
    7.7228  -13.5273   26.4777 C   0  0  2  0  0  0  0  0  0  0  0  0
    7.2139  -14.6134   25.6940 N   0  0  0  0  0  0  0  0  0  0  0  0
    8.3454  -13.9473   27.7392 C   0  0  0  0  0  0  0  0  0  0  0  0
    8.3232  -15.1410   28.1009 O   0  0  0  0  0  0  0  0  0  0  0  0
    8.9645  -13.0109   28.5382 O   0  0  0  0  0  0  0  0  0  0  0  0
  2  1  1  6
  2  3  1  0
  3  4  1  0
  4  8  1  0
  5  4  2  0
  6  2  1  0
  7  6  2  0
 10  9  1  1
 10 12  1  0
 10 11  1  0
 11  6  1  0
 12 13  2  0
 15 16  1  0
 15 14  1  6
 17 15  1  0
 18 12  1  0
 17 18  1  1
 19 17  1  0
 19 21  1  0
 20 19  2  0
M  END
$$$$
