DAT.pdb
     RDKit          3D

 21 20  0  0  1  0  0  0  0  0999 V2000
   10.6946  -18.9428   21.4789 N   0  0  0  0  0  0  0  0  0  0  0  0
   11.1175  -17.6031   21.8207 C   0  0  1  0  0  0  0  0  0  0  0  0
   10.8000  -16.6261   20.7088 C   0  0  0  0  0  0  0  0  0  0  0  0
   11.7174  -16.8525   19.5714 C   0  0  0  0  0  0  0  0  0  0  0  0
   12.7715  -17.5046   19.7465 O   0  0  0  0  0  0  0  0  0  0  0  0
   10.4895  -17.2084   23.0978 C   0  0  0  0  0  0  0  0  0  0  0  0
   10.4737  -15.9837   23.3967 O   0  0  0  0  0  0  0  0  0  0  0  0
   11.4453  -16.3617   18.3060 O   0  0  0  0  0  0  0  0  0  0  0  0
    8.4332  -18.8542   25.7286 C   0  0  0  0  0  0  0  0  0  0  0  0
    9.1945  -17.6754   25.1478 C   0  0  2  0  0  0  0  0  0  0  0  0
    9.9058  -18.1405   23.9996 N   0  0  0  0  0  0  0  0  0  0  0  0
   10.0845  -17.0523   26.1607 C   0  0  0  0  0  0  0  0  0  0  0  0
   11.3132  -17.3224   26.1741 O   0  0  0  0  0  0  0  0  0  0  0  0
   10.3626  -13.2240   27.0811 C   0  0  0  0  0  0  0  0  0  0  0  0
   10.1321  -14.0406   28.3057 C   0  0  1  0  0  0  0  0  0  0  0  0
    8.7852  -13.9580   28.6607 O   0  0  0  0  0  0  0  0  0  0  0  0
   10.4488  -15.5054   28.1150 C   0  0  2  0  0  0  0  0  0  0  0  0
    9.6103  -16.1420   27.1432 N   0  0  0  0  0  0  0  0  0  0  0  0
   10.5032  -16.2086   29.4027 C   0  0  0  0  0  0  0  0  0  0  0  0
    9.7571  -17.1807   29.6363 O   0  0  0  0  0  0  0  0  0  0  0  0
   11.3910  -15.7909   30.3700 O   0  0  0  0  0  0  0  0  0  0  0  0
  2  1  1  6
  2  3  1  0
  3  4  1  0
  4  8  1  0
  5  4  2  0
  6  2  1  0
  7  6  2  0
 10  9  1  1
 10 12  1  0
 10 11  1  0
 11  6  1  0
 12 13  2  0
 15 16  1  0
 15 14  1  6
 17 15  1  0
 18 12  1  0
 17 18  1  6
 19 17  1  0
 19 21  1  0
 20 19  2  0
M  END
$$$$
