DAT.pdb
     RDKit          3D

 21 20  0  0  1  0  0  0  0  0999 V2000
    8.4894  -13.1751   17.6352 N   0  0  0  0  0  0  0  0  0  0  0  0
    7.5624  -13.6979   18.6140 C   0  0  1  0  0  0  0  0  0  0  0  0
    7.0461  -15.0618   18.2081 C   0  0  0  0  0  0  0  0  0  0  0  0
    7.9663  -15.6683   17.2221 C   0  0  0  0  0  0  0  0  0  0  0  0
    8.0975  -15.1435   16.0933 O   0  0  0  0  0  0  0  0  0  0  0  0
    8.2201  -13.7279   19.9359 C   0  0  0  0  0  0  0  0  0  0  0  0
    9.4615  -13.9445   19.9751 O   0  0  0  0  0  0  0  0  0  0  0  0
    8.6949  -16.8094   17.5102 O   0  0  0  0  0  0  0  0  0  0  0  0
    7.4054  -12.8891   23.4493 C   0  0  0  0  0  0  0  0  0  0  0  0
    8.2122  -13.6388   22.4036 C   0  0  2  0  0  0  0  0  0  0  0  0
    7.5218  -13.5251   21.1582 N   0  0  0  0  0  0  0  0  0  0  0  0
    8.4424  -15.0502   22.8053 C   0  0  0  0  0  0  0  0  0  0  0  0
    7.5329  -15.9064   22.6553 O   0  0  0  0  0  0  0  0  0  0  0  0
   10.3750  -17.7350   21.5567 C   0  0  0  0  0  0  0  0  0  0  0  0
   10.8318  -17.6271   22.9706 C   0  0  1  0  0  0  0  0  0  0  0  0
   12.0650  -16.9751   23.0019 O   0  0  0  0  0  0  0  0  0  0  0  0
    9.8900  -16.8311   23.8434 C   0  0  2  0  0  0  0  0  0  0  0  0
    9.6686  -15.4986   23.3657 N   0  0  0  0  0  0  0  0  0  0  0  0
   10.2911  -16.8961   25.2542 C   0  0  0  0  0  0  0  0  0  0  0  0
   10.5842  -15.8621   25.8875 O   0  0  0  0  0  0  0  0  0  0  0  0
   10.3457  -18.1166   25.8914 O   0  0  0  0  0  0  0  0  0  0  0  0
  2  1  1  6
  2  3  1  0
  3  4  1  0
  4  8  1  0
  5  4  2  0
  6  2  1  0
  7  6  2  0
 10  9  1  1
 10 12  1  0
 10 11  1  0
 11  6  1  0
 12 13  2  0
 15 16  1  0
 15 14  1  6
 17 15  1  0
 18 12  1  0
 17 18  1  6
 19 17  1  0
 19 21  1  0
 20 19  2  0
M  END
$$$$
