DAT.pdb
     RDKit          3D

 21 20  0  0  1  0  0  0  0  0999 V2000
    9.0035  -17.7043   20.0724 N   0  0  0  0  0  0  0  0  0  0  0  0
    9.7520  -17.1683   21.1872 C   0  0  1  0  0  0  0  0  0  0  0  0
   10.7259  -16.1019   20.7333 C   0  0  0  0  0  0  0  0  0  0  0  0
   12.0536  -16.7091   20.4985 C   0  0  0  0  0  0  0  0  0  0  0  0
   12.9270  -16.6532   21.3935 O   0  0  0  0  0  0  0  0  0  0  0  0
    8.8088  -16.6578   22.2026 C   0  0  0  0  0  0  0  0  0  0  0  0
    8.1939  -15.5856   21.9540 O   0  0  0  0  0  0  0  0  0  0  0  0
   12.3651  -17.3440   19.3086 O   0  0  0  0  0  0  0  0  0  0  0  0
    7.1781  -17.9075   25.2821 C   0  0  0  0  0  0  0  0  0  0  0  0
    7.6077  -16.7828   24.3565 C   0  0  2  0  0  0  0  0  0  0  0  0
    8.5646  -17.3159   23.4395 N   0  0  0  0  0  0  0  0  0  0  0  0
    8.1305  -15.6213   25.1206 C   0  0  0  0  0  0  0  0  0  0  0  0
    9.3705  -15.4679   25.2678 O   0  0  0  0  0  0  0  0  0  0  0  0
    6.4967  -11.7528   25.2438 C   0  0  0  0  0  0  0  0  0  0  0  0
    6.7609  -12.3995   26.5597 C   0  0  1  0  0  0  0  0  0  0  0  0
    5.5701  -12.9373   27.0495 O   0  0  0  0  0  0  0  0  0  0  0  0
    7.7562  -13.5332   26.4789 C   0  0  2  0  0  0  0  0  0  0  0  0
    7.2823  -14.6463   25.7112 N   0  0  0  0  0  0  0  0  0  0  0  0
    8.2521  -13.9001   27.8111 C   0  0  0  0  0  0  0  0  0  0  0  0
    8.1748  -15.0743   28.2250 O   0  0  0  0  0  0  0  0  0  0  0  0
    8.8121  -12.9347   28.6192 O   0  0  0  0  0  0  0  0  0  0  0  0
  2  1  1  6
  2  3  1  0
  3  4  1  0
  4  8  1  0
  5  4  2  0
  6  2  1  0
  7  6  2  0
 10  9  1  1
 10 12  1  0
 10 11  1  0
 11  6  1  0
 12 13  2  0
 15 16  1  0
 15 14  1  6
 17 15  1  0
 18 12  1  0
 17 18  1  1
 19 17  1  0
 19 21  1  0
 20 19  2  0
M  END
$$$$
