DAT.pdb
     RDKit          3D

 21 20  0  0  1  0  0  0  0  0999 V2000
   -1.3215  -26.2862   30.5569 N   0  0  0  0  0  0  0  0  0  0  0  0
   -2.7410  -26.5073   30.3946 C   0  0  1  0  0  0  0  0  0  0  0  0
   -3.3124  -27.2868   31.5597 C   0  0  0  0  0  0  0  0  0  0  0  0
   -2.6992  -28.6317   31.6063 C   0  0  0  0  0  0  0  0  0  0  0  0
   -3.0525  -29.5022   30.7791 O   0  0  0  0  0  0  0  0  0  0  0  0
   -3.4165  -25.2060   30.2173 C   0  0  0  0  0  0  0  0  0  0  0  0
   -3.8664  -24.6274   31.2431 O   0  0  0  0  0  0  0  0  0  0  0  0
   -1.7369  -28.9623   32.5448 O   0  0  0  0  0  0  0  0  0  0  0  0
   -3.7268  -22.6433   27.5744 C   0  0  0  0  0  0  0  0  0  0  0  0
   -4.1969  -23.2941   28.8635 C   0  0  2  0  0  0  0  0  0  0  0  0
   -3.5814  -24.5802   28.9509 N   0  0  0  0  0  0  0  0  0  0  0  0
   -5.6793  -23.3619   28.9276 C   0  0  0  0  0  0  0  0  0  0  0  0
   -6.3236  -23.9685   28.0333 O   0  0  0  0  0  0  0  0  0  0  0  0
   -7.9842  -25.2029   30.7537 C   0  0  0  0  0  0  0  0  0  0  0  0
   -8.3735  -23.7989   31.0646 C   0  0  1  0  0  0  0  0  0  0  0  0
   -7.8352  -23.4407   32.3011 O   0  0  0  0  0  0  0  0  0  0  0  0
   -7.8608  -22.7993   30.0544 C   0  0  2  0  0  0  0  0  0  0  0  0
   -6.4309  -22.7618   29.9736 N   0  0  0  0  0  0  0  0  0  0  0  0
   -8.4782  -21.4819   30.2510 C   0  0  0  0  0  0  0  0  0  0  0  0
   -7.8002  -20.5034   30.6242 O   0  0  0  0  0  0  0  0  0  0  0  0
   -9.8270  -21.3204   30.0206 O   0  0  0  0  0  0  0  0  0  0  0  0
  2  1  1  1
  2  3  1  0
  3  4  1  0
  4  8  1  0
  5  4  2  0
  6  2  1  0
  7  6  2  0
 10  9  1  6
 10 12  1  0
 10 11  1  0
 11  6  1  0
 12 13  2  0
 15 16  1  0
 15 14  1  6
 17 15  1  0
 18 12  1  0
 17 18  1  1
 19 17  1  0
 19 21  1  0
 20 19  2  0
M  END
$$$$
