DAT.pdb
     RDKit          3D

 21 20  0  0  1  0  0  0  0  0999 V2000
   11.3699  -16.1201   16.1681 N   0  0  0  0  0  0  0  0  0  0  0  0
   10.1081  -16.0294   16.8682 C   0  0  1  0  0  0  0  0  0  0  0  0
    9.7737  -17.3290   17.5689 C   0  0  0  0  0  0  0  0  0  0  0  0
    9.3440  -18.3341   16.5730 C   0  0  0  0  0  0  0  0  0  0  0  0
   10.0488  -18.5423   15.5596 O   0  0  0  0  0  0  0  0  0  0  0  0
   10.1573  -14.8922   17.8092 C   0  0  0  0  0  0  0  0  0  0  0  0
   11.2179  -14.7131   18.4670 O   0  0  0  0  0  0  0  0  0  0  0  0
    8.1755  -19.0600   16.7268 O   0  0  0  0  0  0  0  0  0  0  0  0
    7.9813  -12.0314   18.7936 C   0  0  0  0  0  0  0  0  0  0  0  0
    9.1628  -12.9651   18.9901 C   0  0  2  0  0  0  0  0  0  0  0  0
    9.0705  -13.9962   18.0058 N   0  0  0  0  0  0  0  0  0  0  0  0
    9.2089  -13.4972   20.3761 C   0  0  0  0  0  0  0  0  0  0  0  0
    9.3759  -12.7159   21.3479 O   0  0  0  0  0  0  0  0  0  0  0  0
    6.7006  -15.3346   22.4694 C   0  0  0  0  0  0  0  0  0  0  0  0
    7.9208  -16.1872   22.4071 C   0  0  1  0  0  0  0  0  0  0  0  0
    7.7249  -17.1932   21.4602 O   0  0  0  0  0  0  0  0  0  0  0  0
    9.1595  -15.4277   21.9935 C   0  0  2  0  0  0  0  0  0  0  0  0
    9.0707  -14.8799   20.6726 N   0  0  0  0  0  0  0  0  0  0  0  0
   10.3717  -16.2229   22.2252 C   0  0  0  0  0  0  0  0  0  0  0  0
   11.1474  -16.5003   21.2885 O   0  0  0  0  0  0  0  0  0  0  0  0
   10.6597  -16.6712   23.4959 O   0  0  0  0  0  0  0  0  0  0  0  0
  2  1  1  1
  2  3  1  0
  3  4  1  0
  4  8  1  0
  5  4  2  0
  6  2  1  0
  7  6  2  0
 10  9  1  1
 10 12  1  0
 10 11  1  0
 11  6  1  0
 12 13  2  0
 15 16  1  0
 15 14  1  6
 17 15  1  0
 18 12  1  0
 17 18  1  6
 19 17  1  0
 19 21  1  0
 20 19  2  0
M  END
$$$$
