RVF.pdb
     RDKit          3D

 30 30  0  0  1  0  0  0  0  0999 V2000
    8.3299  -12.3789   18.3787 N   0  0  0  0  0  0  0  0  0  0  0  0
    8.7831  -13.7323   18.1996 C   0  0  0  0  0  0  0  0  0  0  0  0
    9.0998  -14.1981   17.0644 N   0  0  0  0  0  0  0  0  0  0  0  0
    8.8675  -14.5515   19.3523 N   0  0  0  0  0  0  0  0  0  0  0  0
    7.7835  -15.3205   19.8945 C   0  0  0  0  0  0  0  0  0  0  0  0
    7.1704  -14.6701   21.0779 C   0  0  0  0  0  0  0  0  0  0  0  0
    6.1190  -15.4220   21.7721 C   0  0  0  0  0  0  0  0  0  0  0  0
    6.2067  -16.8698   22.0316 C   0  0  2  0  0  0  0  0  0  0  0  0
    5.0177  -17.6208   21.8119 N   0  0  0  0  0  0  0  0  0  0  0  0
    6.6949  -17.0840   23.4449 C   0  0  0  0  0  0  0  0  0  0  0  0
    5.8890  -16.8847   24.3909 O   0  0  0  0  0  0  0  0  0  0  0  0
    9.4883  -15.1485   16.9669 C   0  0  0  0  0  0  0  0  0  0  0  0
    8.5620  -20.2096   24.5411 C   0  0  2  0  0  0  0  0  0  0  0  0
    9.2679  -19.0440   25.1636 C   0  0  0  0  0  0  0  0  0  0  0  0
    9.7243  -19.3314   26.5771 C   0  0  2  0  0  0  0  0  0  0  0  0
    8.4120  -17.7662   25.1170 N   0  0  0  0  0  0  0  0  0  0  0  0
    8.0081  -17.4967   23.7664 C   0  0  0  0  0  0  0  0  0  0  0  0
    9.2016  -16.7024   25.7336 O   0  0  0  0  0  0  0  0  0  0  0  0
   10.1625  -16.1086   25.1814 N   0  0  0  0  0  0  0  0  0  0  0  0
    8.8638  -16.3042   27.0559 C   0  0  1  0  0  0  0  0  0  0  0  0
    9.6536  -15.3202   27.7775 C   0  0  0  0  0  0  0  0  0  0  0  0
    8.8149  -14.2927   28.4528 C   0  0  0  0  0  0  0  0  0  0  0  0
    7.9103  -13.6480   27.4779 C   0  0  0  0  0  0  0  0  0  0  0  0
    6.5526  -13.8597   27.4148 C   0  0  0  0  0  0  0  0  0  0  0  0
    5.7750  -13.2054   26.4658 C   0  0  0  0  0  0  0  0  0  0  0  0
    6.3304  -12.3332   25.5661 C   0  0  0  0  0  0  0  0  0  0  0  0
    7.6902  -12.1257   25.6344 C   0  0  0  0  0  0  0  0  0  0  0  0
    8.4869  -12.7586   26.5629 C   0  0  0  0  0  0  0  0  0  0  0  0
   10.6554  -15.9741   28.6484 O   0  0  0  0  0  0  0  0  0  0  0  0
   11.6036  -15.4024   29.2288 O   0  0  0  0  0  0  0  0  0  0  0  0
  2  3  2  0
  2  1  1  0
  4  2  1  0
  5  4  1  0
  6  5  1  0
  7  6  1  0
  8  9  1  1
  8  7  1  0
 10 16  1  0
 10  8  1  0
 11 10  2  0
 13 12  1  6
 13 15  1  0
 14 13  1  0
 15 17  1  0
 15 16  1  1
 17 18  2  0
 19 20  1  0
 19 17  1  0
 20 28  1  0
 21 22  1  0
 20 21  1  1
 22 23  2  0
 23 24  1  0
 25 24  2  0
 26 25  1  0
 27 26  2  0
 27 22  1  0
 28 29  2  0
 28 30  1  0
M  END
$$$$
