RVF.pdb
     RDKit          3D

 30 30  0  0  1  0  0  0  0  0999 V2000
   13.5602  -21.0598   17.4618 N   0  0  0  0  0  0  0  0  0  0  0  0
   14.7662  -21.1017   18.2448 C   0  0  0  0  0  0  0  0  0  0  0  0
   15.8866  -21.4267   17.7497 N   0  0  0  0  0  0  0  0  0  0  0  0
   14.6671  -20.7634   19.6168 N   0  0  0  0  0  0  0  0  0  0  0  0
   13.4592  -20.3568   20.2774 C   0  0  0  0  0  0  0  0  0  0  0  0
   12.6831  -19.3792   19.4766 C   0  0  0  0  0  0  0  0  0  0  0  0
   11.3975  -18.9441   20.0338 C   0  0  0  0  0  0  0  0  0  0  0  0
   10.5117  -17.9840   19.3520 C   0  0  2  0  0  0  0  0  0  0  0  0
   10.9972  -17.4393   18.1300 N   0  0  0  0  0  0  0  0  0  0  0  0
   10.1704  -16.8681   20.3112 C   0  0  0  0  0  0  0  0  0  0  0  0
   11.0257  -15.9651   20.5041 O   0  0  0  0  0  0  0  0  0  0  0  0
   16.7508  -21.3839   18.3111 C   0  0  0  0  0  0  0  0  0  0  0  0
    7.3541  -14.4664   20.1400 C   0  0  1  0  0  0  0  0  0  0  0  0
    7.3155  -15.0422   21.5225 C   0  0  0  0  0  0  0  0  0  0  0  0
    6.9024  -14.0239   22.5623 C   0  0  2  0  0  0  0  0  0  0  0  0
    8.6530  -15.6996   21.9053 N   0  0  0  0  0  0  0  0  0  0  0  0
    8.9426  -16.7798   21.0059 C   0  0  0  0  0  0  0  0  0  0  0  0
    8.5465  -16.0952   23.3080 O   0  0  0  0  0  0  0  0  0  0  0  0
    8.1768  -17.2281   23.7089 N   0  0  0  0  0  0  0  0  0  0  0  0
    8.8846  -15.1328   24.2982 C   0  0  2  0  0  0  0  0  0  0  0  0
    8.9841  -15.4919   25.7032 C   0  0  0  0  0  0  0  0  0  0  0  0
    9.4036  -14.3498   26.5604 C   0  0  0  0  0  0  0  0  0  0  0  0
    8.4226  -13.2487   26.4633 C   0  0  0  0  0  0  0  0  0  0  0  0
    8.3961  -12.3140   25.4545 C   0  0  0  0  0  0  0  0  0  0  0  0
    7.4318  -11.3123   25.4393 C   0  0  0  0  0  0  0  0  0  0  0  0
    6.4810  -11.2218   26.4224 C   0  0  0  0  0  0  0  0  0  0  0  0
    6.5130  -12.1606   27.4296 C   0  0  0  0  0  0  0  0  0  0  0  0
    7.4552  -13.1645   27.4721 C   0  0  0  0  0  0  0  0  0  0  0  0
    7.7670  -16.1978   26.1614 O   0  0  0  0  0  0  0  0  0  0  0  0
    7.6595  -16.8594   27.2166 O   0  0  0  0  0  0  0  0  0  0  0  0
  2  3  2  0
  2  1  1  0
  4  2  1  0
  5  4  1  0
  6  5  1  0
  7  6  1  0
  8  9  1  6
  8  7  1  0
 10 16  1  0
 10  8  1  0
 11 10  2  0
 13 12  1  6
 13 15  1  0
 14 13  1  0
 15 17  1  0
 15 16  1  1
 17 18  2  0
 19 20  1  0
 19 17  1  0
 20 28  1  0
 21 22  1  0
 20 21  1  6
 22 23  2  0
 23 24  1  0
 25 24  2  0
 26 25  1  0
 27 26  2  0
 27 22  1  0
 28 29  2  0
 28 30  1  0
M  END
$$$$
