RVF.pdb
     RDKit          3D

 30 30  0  0  1  0  0  0  0  0999 V2000
   14.9615  -20.2175   19.1469 N   0  0  0  0  0  0  0  0  0  0  0  0
   13.9547  -20.4112   20.1558 C   0  0  0  0  0  0  0  0  0  0  0  0
   14.0825  -21.2588   21.0893 N   0  0  0  0  0  0  0  0  0  0  0  0
   12.7877  -19.6120   20.0769 N   0  0  0  0  0  0  0  0  0  0  0  0
   11.6444  -19.9062   19.2603 C   0  0  0  0  0  0  0  0  0  0  0  0
   10.4690  -20.3163   20.0663 C   0  0  0  0  0  0  0  0  0  0  0  0
    9.7221  -19.2448   20.7345 C   0  0  0  0  0  0  0  0  0  0  0  0
    8.8773  -18.2816   20.0065 C   0  0  2  0  0  0  0  0  0  0  0  0
    8.9846  -18.2986   18.5874 N   0  0  0  0  0  0  0  0  0  0  0  0
    9.1620  -16.8921   20.5260 C   0  0  0  0  0  0  0  0  0  0  0  0
   10.2595  -16.3555   20.2231 O   0  0  0  0  0  0  0  0  0  0  0  0
   14.9624  -21.7810   21.2192 C   0  0  0  0  0  0  0  0  0  0  0  0
    6.9009  -13.8630   20.1694 C   0  0  1  0  0  0  0  0  0  0  0  0
    7.3337  -13.9232   21.6024 C   0  0  0  0  0  0  0  0  0  0  0  0
    7.5863  -12.5516   22.1888 C   0  0  2  0  0  0  0  0  0  0  0  0
    8.5620  -14.8306   21.7907 N   0  0  0  0  0  0  0  0  0  0  0  0
    8.2642  -16.1583   21.3344 C   0  0  0  0  0  0  0  0  0  0  0  0
    8.9399  -14.7481   23.1998 O   0  0  0  0  0  0  0  0  0  0  0  0
    9.3618  -13.7105   23.7711 N   0  0  0  0  0  0  0  0  0  0  0  0
    8.8243  -15.9245   23.9897 C   0  0  1  0  0  0  0  0  0  0  0  0
    9.0948  -15.9098   25.4177 C   0  0  0  0  0  0  0  0  0  0  0  0
    7.8575  -15.7900   26.2363 C   0  0  0  0  0  0  0  0  0  0  0  0
    7.4991  -14.3678   26.4182 C   0  0  0  0  0  0  0  0  0  0  0  0
    8.3874  -13.3779   26.7691 C   0  0  0  0  0  0  0  0  0  0  0  0
    7.9634  -12.0616   26.9140 C   0  0  0  0  0  0  0  0  0  0  0  0
    6.6545  -11.7072   26.7142 C   0  0  0  0  0  0  0  0  0  0  0  0
    5.7701  -12.7028   26.3631 C   0  0  0  0  0  0  0  0  0  0  0  0
    6.1597  -14.0153   26.2117 C   0  0  0  0  0  0  0  0  0  0  0  0
    9.9888  -17.0241   25.8034 O   0  0  0  0  0  0  0  0  0  0  0  0
   10.4094  -17.9210   25.0409 O   0  0  0  0  0  0  0  0  0  0  0  0
  2  3  2  0
  2  1  1  0
  4  2  1  0
  5  4  1  0
  6  5  1  0
  7  6  1  0
  8  9  1  6
  8  7  1  0
 10 16  1  0
 10  8  1  0
 11 10  2  0
 13 12  1  1
 13 15  1  0
 14 13  1  0
 15 17  1  0
 15 16  1  6
 17 18  2  0
 19 20  1  0
 19 17  1  0
 20 28  1  0
 21 22  1  0
 20 21  1  1
 22 23  2  0
 23 24  1  0
 25 24  2  0
 26 25  1  0
 27 26  2  0
 27 22  1  0
 28 29  2  0
 28 30  1  0
M  END
$$$$
