RVF.pdb
     RDKit          3D

 30 30  0  0  1  0  0  0  0  0999 V2000
    8.6990  -20.5632   15.5700 N   0  0  0  0  0  0  0  0  0  0  0  0
    7.3660  -21.0246   15.8513 C   0  0  0  0  0  0  0  0  0  0  0  0
    6.8318  -21.9845   15.2194 N   0  0  0  0  0  0  0  0  0  0  0  0
    6.6474  -20.3620   16.8767 N   0  0  0  0  0  0  0  0  0  0  0  0
    7.2209  -19.4460   17.8214 C   0  0  0  0  0  0  0  0  0  0  0  0
    8.6806  -19.6502   17.9865 C   0  0  0  0  0  0  0  0  0  0  0  0
    9.3604  -18.7886   18.9603 C   0  0  0  0  0  0  0  0  0  0  0  0
    9.8464  -17.4366   18.6331 C   0  0  2  0  0  0  0  0  0  0  0  0
   11.0681  -17.3667   17.9063 N   0  0  0  0  0  0  0  0  0  0  0  0
    9.9623  -16.6372   19.9095 C   0  0  0  0  0  0  0  0  0  0  0  0
   11.0390  -16.7020   20.5580 O   0  0  0  0  0  0  0  0  0  0  0  0
    5.8607  -22.2746   15.4106 C   0  0  0  0  0  0  0  0  0  0  0  0
    6.5669  -14.9785   22.0260 C   0  0  1  0  0  0  0  0  0  0  0  0
    7.8394  -14.2016   21.8789 C   0  0  0  0  0  0  0  0  0  0  0  0
    7.7604  -13.1639   20.7809 C   0  0  1  0  0  0  0  0  0  0  0  0
    9.0519  -15.1255   21.6689 N   0  0  0  0  0  0  0  0  0  0  0  0
    8.9284  -15.8184   20.4180 C   0  0  0  0  0  0  0  0  0  0  0  0
    9.1280  -15.9998   22.8373 O   0  0  0  0  0  0  0  0  0  0  0  0
    8.6664  -17.1681   22.8918 N   0  0  0  0  0  0  0  0  0  0  0  0
    9.7704  -15.4988   24.0024 C   0  0  2  0  0  0  0  0  0  0  0  0
   10.1191  -16.3711   25.1115 C   0  0  0  0  0  0  0  0  0  0  0  0
   11.1725  -15.7923   25.9893 C   0  0  0  0  0  0  0  0  0  0  0  0
   10.5864  -14.7835   26.8965 C   0  0  0  0  0  0  0  0  0  0  0  0
    9.9569  -13.6330   26.4816 C   0  0  0  0  0  0  0  0  0  0  0  0
    9.4286  -12.7392   27.4064 C   0  0  0  0  0  0  0  0  0  0  0  0
    9.5165  -12.9715   28.7544 C   0  0  0  0  0  0  0  0  0  0  0  0
   10.1479  -14.1251   29.1633 C   0  0  0  0  0  0  0  0  0  0  0  0
   10.6810  -15.0296   28.2717 C   0  0  0  0  0  0  0  0  0  0  0  0
    8.9091  -16.8419   25.8215 O   0  0  0  0  0  0  0  0  0  0  0  0
    8.8877  -17.6632   26.7636 O   0  0  0  0  0  0  0  0  0  0  0  0
  2  3  2  0
  2  1  1  0
  4  2  1  0
  5  4  1  0
  6  5  1  0
  7  6  1  0
  8  9  1  1
  8  7  1  0
 10 16  1  0
 10  8  1  0
 11 10  2  0
 13 12  1  1
 13 15  1  0
 14 13  1  0
 15 17  1  0
 15 16  1  6
 17 18  2  0
 19 20  1  0
 19 17  1  0
 20 28  1  0
 21 22  1  0
 20 21  1  1
 22 23  2  0
 23 24  1  0
 25 24  2  0
 26 25  1  0
 27 26  2  0
 27 22  1  0
 28 29  2  0
 28 30  1  0
M  END
$$$$
