RVF.pdb
     RDKit          3D

 30 30  0  0  1  0  0  0  0  0999 V2000
    8.0349  -13.0650   16.6249 N   0  0  0  0  0  0  0  0  0  0  0  0
    8.5254  -13.5555   17.8850 C   0  0  0  0  0  0  0  0  0  0  0  0
    8.8855  -12.7814   18.8216 N   0  0  0  0  0  0  0  0  0  0  0  0
    8.5988  -14.9598   18.0563 N   0  0  0  0  0  0  0  0  0  0  0  0
    8.1063  -15.6747   19.1994 C   0  0  0  0  0  0  0  0  0  0  0  0
    6.9040  -15.0350   19.7866 C   0  0  0  0  0  0  0  0  0  0  0  0
    6.3919  -15.6144   21.0334 C   0  0  0  0  0  0  0  0  0  0  0  0
    6.2946  -17.0668   21.2622 C   0  0  2  0  0  0  0  0  0  0  0  0
    5.1204  -17.7032   20.7703 N   0  0  0  0  0  0  0  0  0  0  0  0
    6.4450  -17.3396   22.7402 C   0  0  0  0  0  0  0  0  0  0  0  0
    5.5950  -16.8473   23.5270 O   0  0  0  0  0  0  0  0  0  0  0  0
    9.2753  -13.1532   19.7012 C   0  0  0  0  0  0  0  0  0  0  0  0
    6.5421  -20.4835   24.7647 C   0  0  1  0  0  0  0  0  0  0  0  0
    7.7914  -19.7259   25.0960 C   0  0  0  0  0  0  0  0  0  0  0  0
    8.1885  -19.8716   26.5486 C   0  0  2  0  0  0  0  0  0  0  0  0
    7.6791  -18.2410   24.7085 N   0  0  0  0  0  0  0  0  0  0  0  0
    7.4882  -18.1182   23.2913 C   0  0  0  0  0  0  0  0  0  0  0  0
    8.8784  -17.5773   25.2149 O   0  0  0  0  0  0  0  0  0  0  0  0
   10.0255  -17.6840   24.7113 N   0  0  0  0  0  0  0  0  0  0  0  0
    8.7456  -16.7477   26.3618 C   0  0  1  0  0  0  0  0  0  0  0  0
    9.8931  -16.0779   26.9511 C   0  0  0  0  0  0  0  0  0  0  0  0
   10.0536  -14.6794   26.4678 C   0  0  0  0  0  0  0  0  0  0  0  0
    8.8127  -13.9111   26.7007 C   0  0  0  0  0  0  0  0  0  0  0  0
    7.6927  -13.9780   25.9050 C   0  0  0  0  0  0  0  0  0  0  0  0
    6.5642  -13.2217   26.2019 C   0  0  0  0  0  0  0  0  0  0  0  0
    6.5291  -12.3888   27.2898 C   0  0  0  0  0  0  0  0  0  0  0  0
    7.6536  -12.3263   28.0824 C   0  0  0  0  0  0  0  0  0  0  0  0
    8.7863  -13.0630   27.8146 C   0  0  0  0  0  0  0  0  0  0  0  0
    9.9030  -16.2310   28.4229 O   0  0  0  0  0  0  0  0  0  0  0  0
    8.9903  -16.7369   29.1112 O   0  0  0  0  0  0  0  0  0  0  0  0
  2  3  2  0
  2  1  1  0
  4  2  1  0
  5  4  1  0
  6  5  1  0
  7  6  1  0
  8  9  1  1
  8  7  1  0
 10 16  1  0
 10  8  1  0
 11 10  2  0
 13 12  1  6
 13 15  1  0
 14 13  1  0
 15 17  1  0
 15 16  1  1
 17 18  2  0
 19 20  1  0
 19 17  1  0
 20 28  1  0
 21 22  1  0
 20 21  1  1
 22 23  2  0
 23 24  1  0
 25 24  2  0
 26 25  1  0
 27 26  2  0
 27 22  1  0
 28 29  2  0
 28 30  1  0
M  END
$$$$
