RVF.pdb
     RDKit          3D

 30 30  0  0  1  0  0  0  0  0999 V2000
    8.0639  -23.2625   19.0961 N   0  0  0  0  0  0  0  0  0  0  0  0
    8.7173  -22.6342   17.9792 C   0  0  0  0  0  0  0  0  0  0  0  0
    8.3150  -22.7808   16.7864 N   0  0  0  0  0  0  0  0  0  0  0  0
    9.8500  -21.8287   18.2529 N   0  0  0  0  0  0  0  0  0  0  0  0
   10.3511  -21.5348   19.5656 C   0  0  0  0  0  0  0  0  0  0  0  0
    9.2814  -21.0783   20.4858 C   0  0  0  0  0  0  0  0  0  0  0  0
    9.3796  -19.6996   20.9777 C   0  0  0  0  0  0  0  0  0  0  0  0
    9.2675  -18.5238   20.0967 C   0  0  2  0  0  0  0  0  0  0  0  0
   10.1848  -18.4629   19.0102 N   0  0  0  0  0  0  0  0  0  0  0  0
    9.3815  -17.2726   20.9351 C   0  0  0  0  0  0  0  0  0  0  0  0
   10.3821  -17.1486   21.6883 O   0  0  0  0  0  0  0  0  0  0  0  0
    8.8591  -22.4139   15.9908 C   0  0  0  0  0  0  0  0  0  0  0  0
    7.4499  -13.7611   19.8952 C   0  0  1  0  0  0  0  0  0  0  0  0
    7.4852  -14.0287   21.3688 C   0  0  0  0  0  0  0  0  0  0  0  0
    7.6493  -12.7642   22.1830 C   0  0  2  0  0  0  0  0  0  0  0  0
    8.5684  -15.0577   21.7369 N   0  0  0  0  0  0  0  0  0  0  0  0
    8.4265  -16.2305   20.9218 C   0  0  0  0  0  0  0  0  0  0  0  0
    8.4511  -15.3037   23.1726 O   0  0  0  0  0  0  0  0  0  0  0  0
    8.5772  -16.4278   23.7217 N   0  0  0  0  0  0  0  0  0  0  0  0
    8.1740  -14.1942   24.0172 C   0  0  1  0  0  0  0  0  0  0  0  0
    8.3507  -14.2741   25.4578 C   0  0  0  0  0  0  0  0  0  0  0  0
    9.7490  -14.6017   25.8484 C   0  0  0  0  0  0  0  0  0  0  0  0
    9.8932  -14.5614   27.3188 C   0  0  0  0  0  0  0  0  0  0  0  0
    9.4495  -13.5339   28.1184 C   0  0  0  0  0  0  0  0  0  0  0  0
    9.6231  -13.5810   29.4972 C   0  0  0  0  0  0  0  0  0  0  0  0
   10.2386  -14.6453   30.1032 C   0  0  0  0  0  0  0  0  0  0  0  0
   10.6806  -15.6707   29.2971 C   0  0  0  0  0  0  0  0  0  0  0  0
   10.5231  -15.6531   27.9288 C   0  0  0  0  0  0  0  0  0  0  0  0
    7.7795  -13.0874   26.1324 O   0  0  0  0  0  0  0  0  0  0  0  0
    8.0239  -11.8954   25.8457 O   0  0  0  0  0  0  0  0  0  0  0  0
  2  3  2  0
  2  1  1  0
  4  2  1  0
  5  4  1  0
  6  5  1  0
  7  6  1  0
  8  9  1  6
  8  7  1  0
 10 16  1  0
 10  8  1  0
 11 10  2  0
 13 12  1  1
 13 15  1  0
 14 13  1  0
 15 17  1  0
 15 16  1  6
 17 18  2  0
 19 20  1  0
 19 17  1  0
 20 28  1  0
 21 22  1  0
 20 21  1  1
 22 23  2  0
 23 24  1  0
 25 24  2  0
 26 25  1  0
 27 26  2  0
 27 22  1  0
 28 29  2  0
 28 30  1  0
M  END
$$$$
