RVF.pdb
     RDKit          3D

 30 30  0  0  1  0  0  0  0  0999 V2000
    9.6031  -12.6584   19.9403 N   0  0  0  0  0  0  0  0  0  0  0  0
    8.3932  -12.8792   19.1943 C   0  0  0  0  0  0  0  0  0  0  0  0
    7.6857  -11.9263   18.7498 N   0  0  0  0  0  0  0  0  0  0  0  0
    8.0024  -14.2213   18.9646 N   0  0  0  0  0  0  0  0  0  0  0  0
    7.6620  -15.1649   19.9914 C   0  0  0  0  0  0  0  0  0  0  0  0
    6.2962  -14.9450   20.5257 C   0  0  0  0  0  0  0  0  0  0  0  0
    5.8426  -15.8660   21.5739 C   0  0  0  0  0  0  0  0  0  0  0  0
    6.3828  -17.2276   21.7338 C   0  0  2  0  0  0  0  0  0  0  0  0
    5.6045  -18.2817   21.1782 N   0  0  0  0  0  0  0  0  0  0  0  0
    6.6250  -17.4875   23.2019 C   0  0  0  0  0  0  0  0  0  0  0  0
    5.6345  -17.4904   23.9784 O   0  0  0  0  0  0  0  0  0  0  0  0
    6.8125  -12.1067   18.2314 C   0  0  0  0  0  0  0  0  0  0  0  0
    7.9370  -20.3418   24.9674 C   0  0  1  0  0  0  0  0  0  0  0  0
    8.7502  -19.2018   25.5001 C   0  0  0  0  0  0  0  0  0  0  0  0
    9.0144  -19.3234   26.9848 C   0  0  2  0  0  0  0  0  0  0  0  0
    8.1117  -17.8412   25.1702 N   0  0  0  0  0  0  0  0  0  0  0  0
    7.9035  -17.7286   23.7547 C   0  0  0  0  0  0  0  0  0  0  0  0
    8.9841  -16.8139   25.7348 O   0  0  0  0  0  0  0  0  0  0  0  0
   10.0473  -16.4030   25.2040 N   0  0  0  0  0  0  0  0  0  0  0  0
    8.6090  -16.2311   26.9761 C   0  0  1  0  0  0  0  0  0  0  0  0
    9.4936  -15.3224   27.6863 C   0  0  0  0  0  0  0  0  0  0  0  0
    8.8594  -14.0060   27.9690 C   0  0  0  0  0  0  0  0  0  0  0  0
    8.5076  -13.3247   26.7056 C   0  0  0  0  0  0  0  0  0  0  0  0
    9.4212  -12.8772   25.7797 C   0  0  0  0  0  0  0  0  0  0  0  0
    9.0004  -12.2493   24.6126 C   0  0  0  0  0  0  0  0  0  0  0  0
    7.6700  -12.0553   24.3462 C   0  0  0  0  0  0  0  0  0  0  0  0
    6.7604  -12.5056   25.2770 C   0  0  0  0  0  0  0  0  0  0  0  0
    7.1460  -13.1311   26.4420 C   0  0  0  0  0  0  0  0  0  0  0  0
   10.1053  -15.9819   28.8613 O   0  0  0  0  0  0  0  0  0  0  0  0
    9.7340  -17.0626   29.3683 O   0  0  0  0  0  0  0  0  0  0  0  0
  2  3  2  0
  2  1  1  0
  4  2  1  0
  5  4  1  0
  6  5  1  0
  7  6  1  0
  8  9  1  1
  8  7  1  0
 10 16  1  0
 10  8  1  0
 11 10  2  0
 13 12  1  6
 13 15  1  0
 14 13  1  0
 15 17  1  0
 15 16  1  1
 17 18  2  0
 19 20  1  0
 19 17  1  0
 20 28  1  0
 21 22  1  0
 20 21  1  1
 22 23  2  0
 23 24  1  0
 25 24  2  0
 26 25  1  0
 27 26  2  0
 27 22  1  0
 28 29  2  0
 28 30  1  0
M  END
$$$$
