RVF.pdb
     RDKit          3D

 30 30  0  0  1  0  0  0  0  0999 V2000
    7.2027  -15.6433   13.3967 N   0  0  0  0  0  0  0  0  0  0  0  0
    7.8628  -15.0623   14.5351 C   0  0  0  0  0  0  0  0  0  0  0  0
    8.4643  -13.9484   14.4762 N   0  0  0  0  0  0  0  0  0  0  0  0
    7.8234  -15.7848   15.7529 N   0  0  0  0  0  0  0  0  0  0  0  0
    8.6451  -16.9208   16.0609 C   0  0  0  0  0  0  0  0  0  0  0  0
   10.0692  -16.5502   16.2460 C   0  0  0  0  0  0  0  0  0  0  0  0
   10.5157  -16.3179   17.6241 C   0  0  0  0  0  0  0  0  0  0  0  0
    9.9257  -17.0071   18.7852 C   0  0  2  0  0  0  0  0  0  0  0  0
    8.5828  -17.4541   18.6351 N   0  0  0  0  0  0  0  0  0  0  0  0
   10.0349  -16.1080   19.9941 C   0  0  0  0  0  0  0  0  0  0  0  0
   11.1285  -15.5216   20.2042 O   0  0  0  0  0  0  0  0  0  0  0  0
    8.9664  -13.5691   15.2934 C   0  0  0  0  0  0  0  0  0  0  0  0
    7.3555  -13.4554   21.1063 C   0  0  1  0  0  0  0  0  0  0  0  0
    7.7790  -14.2768   22.2855 C   0  0  0  0  0  0  0  0  0  0  0  0
    7.8498  -13.4656   23.5605 C   0  0  2  0  0  0  0  0  0  0  0  0
    9.1108  -15.0030   22.0274 N   0  0  0  0  0  0  0  0  0  0  0  0
    8.9767  -15.8870   20.9047 C   0  0  0  0  0  0  0  0  0  0  0  0
    9.4827  -15.6658   23.2755 O   0  0  0  0  0  0  0  0  0  0  0  0
    8.7459  -16.4588   23.9152 N   0  0  0  0  0  0  0  0  0  0  0  0
   10.7720  -15.3991   23.8119 C   0  0  2  0  0  0  0  0  0  0  0  0
   11.1525  -15.8579   25.1376 C   0  0  0  0  0  0  0  0  0  0  0  0
   11.7487  -14.7782   25.9707 C   0  0  0  0  0  0  0  0  0  0  0  0
   11.0887  -14.7269   27.2921 C   0  0  0  0  0  0  0  0  0  0  0  0
   11.1692  -15.7172   28.2434 C   0  0  0  0  0  0  0  0  0  0  0  0
   10.5185  -15.5833   29.4650 C   0  0  0  0  0  0  0  0  0  0  0  0
    9.7791  -14.4679   29.7614 C   0  0  0  0  0  0  0  0  0  0  0  0
    9.7025  -13.4801   28.8048 C   0  0  0  0  0  0  0  0  0  0  0  0
   10.3357  -13.5835   27.5859 C   0  0  0  0  0  0  0  0  0  0  0  0
   10.0477  -16.6014   25.7828 O   0  0  0  0  0  0  0  0  0  0  0  0
    8.8720  -16.1967   25.9123 O   0  0  0  0  0  0  0  0  0  0  0  0
  2  3  2  0
  2  1  1  0
  4  2  1  0
  5  4  1  0
  6  5  1  0
  7  6  1  0
  8  9  1  6
  8  7  1  0
 10 16  1  0
 10  8  1  0
 11 10  2  0
 13 12  1  1
 13 15  1  0
 14 13  1  0
 15 17  1  0
 15 16  1  6
 17 18  2  0
 19 20  1  0
 19 17  1  0
 20 28  1  0
 21 22  1  0
 20 21  1  6
 22 23  2  0
 23 24  1  0
 25 24  2  0
 26 25  1  0
 27 26  2  0
 27 22  1  0
 28 29  2  0
 28 30  1  0
M  END
$$$$
