RVF.pdb
     RDKit          3D

 30 30  0  0  1  0  0  0  0  0999 V2000
    7.5351  -12.5334   16.6983 N   0  0  0  0  0  0  0  0  0  0  0  0
    8.2152  -13.8000   16.7455 C   0  0  0  0  0  0  0  0  0  0  0  0
    8.2708  -14.5790   15.7475 N   0  0  0  0  0  0  0  0  0  0  0  0
    8.8355  -14.1640   17.9660 N   0  0  0  0  0  0  0  0  0  0  0  0
    8.6585  -13.4773   19.2141 C   0  0  0  0  0  0  0  0  0  0  0  0
    7.2878  -13.6418   19.7561 C   0  0  0  0  0  0  0  0  0  0  0  0
    7.1276  -14.5869   20.8668 C   0  0  0  0  0  0  0  0  0  0  0  0
    7.5639  -15.9924   20.7931 C   0  0  2  0  0  0  0  0  0  0  0  0
    6.6576  -16.9003   20.1767 N   0  0  0  0  0  0  0  0  0  0  0  0
    7.9035  -16.4719   22.1847 C   0  0  0  0  0  0  0  0  0  0  0  0
    6.9690  -16.8936   22.9147 O   0  0  0  0  0  0  0  0  0  0  0  0
    8.8236  -15.4491   15.7797 C   0  0  0  0  0  0  0  0  0  0  0  0
   10.5894  -18.9901   22.5336 C   0  0  2  0  0  0  0  0  0  0  0  0
   10.7791  -18.0628   23.6949 C   0  0  0  0  0  0  0  0  0  0  0  0
   11.1547  -18.7946   24.9646 C   0  0  2  0  0  0  0  0  0  0  0  0
    9.5444  -17.1736   23.9238 N   0  0  0  0  0  0  0  0  0  0  0  0
    9.2138  -16.4744   22.7148 C   0  0  0  0  0  0  0  0  0  0  0  0
    9.8502  -16.3048   25.0583 O   0  0  0  0  0  0  0  0  0  0  0  0
   10.6540  -15.3384   25.0270 N   0  0  0  0  0  0  0  0  0  0  0  0
    9.1938  -16.5657   26.2921 C   0  0  1  0  0  0  0  0  0  0  0  0
    9.5805  -15.8847   27.5166 C   0  0  0  0  0  0  0  0  0  0  0  0
    8.4465  -15.1637   28.1565 C   0  0  0  0  0  0  0  0  0  0  0  0
    8.0171  -14.0304   27.3107 C   0  0  0  0  0  0  0  0  0  0  0  0
    6.9784  -14.0783   26.4103 C   0  0  0  0  0  0  0  0  0  0  0  0
    6.6388  -12.9599   25.6572 C   0  0  0  0  0  0  0  0  0  0  0  0
    7.3229  -11.7790   25.7846 C   0  0  0  0  0  0  0  0  0  0  0  0
    8.3619  -11.7375   26.6877 C   0  0  0  0  0  0  0  0  0  0  0  0
    8.7219  -12.8282   27.4479 C   0  0  0  0  0  0  0  0  0  0  0  0
   10.3284  -16.7895   28.4175 O   0  0  0  0  0  0  0  0  0  0  0  0
   10.4358  -18.0279   28.2849 O   0  0  0  0  0  0  0  0  0  0  0  0
  2  3  2  0
  2  1  1  0
  4  2  1  0
  5  4  1  0
  6  5  1  0
  7  6  1  0
  8  9  1  1
  8  7  1  0
 10 16  1  0
 10  8  1  0
 11 10  2  0
 13 12  1  6
 13 15  1  0
 14 13  1  0
 15 17  1  0
 15 16  1  1
 17 18  2  0
 19 20  1  0
 19 17  1  0
 20 28  1  0
 21 22  1  0
 20 21  1  1
 22 23  2  0
 23 24  1  0
 25 24  2  0
 26 25  1  0
 27 26  2  0
 27 22  1  0
 28 29  2  0
 28 30  1  0
M  END
$$$$
