RVF.pdb
     RDKit          3D

 30 30  0  0  1  0  0  0  0  0999 V2000
    7.4994  -21.2477   25.5614 N   0  0  0  0  0  0  0  0  0  0  0  0
    6.4485  -22.1254   25.1205 C   0  0  0  0  0  0  0  0  0  0  0  0
    6.3129  -23.3024   25.5702 N   0  0  0  0  0  0  0  0  0  0  0  0
    5.5478  -21.6291   24.1462 N   0  0  0  0  0  0  0  0  0  0  0  0
    5.8797  -20.6640   23.1367 C   0  0  0  0  0  0  0  0  0  0  0  0
    7.3221  -20.3190   23.1422 C   0  0  0  0  0  0  0  0  0  0  0  0
    7.6580  -18.8909   23.1252 C   0  0  0  0  0  0  0  0  0  0  0  0
    8.6272  -18.3062   22.1817 C   0  0  2  0  0  0  0  0  0  0  0  0
    9.8787  -18.9750   22.0714 N   0  0  0  0  0  0  0  0  0  0  0  0
    8.8502  -16.8574   22.5459 C   0  0  0  0  0  0  0  0  0  0  0  0
    9.6201  -16.5956   23.5066 O   0  0  0  0  0  0  0  0  0  0  0  0
    5.5180  -23.8945   25.2850 C   0  0  0  0  0  0  0  0  0  0  0  0
    8.2440  -13.5423   20.0745 C   0  0  1  0  0  0  0  0  0  0  0  0
    7.5745  -13.4782   21.4132 C   0  0  0  0  0  0  0  0  0  0  0  0
    7.5382  -12.0742   21.9756 C   0  0  2  0  0  0  0  0  0  0  0  0
    8.2140  -14.4514   22.4190 N   0  0  0  0  0  0  0  0  0  0  0  0
    8.2424  -15.7763   21.8678 C   0  0  0  0  0  0  0  0  0  0  0  0
    7.4590  -14.3329   23.6645 O   0  0  0  0  0  0  0  0  0  0  0  0
    6.3972  -14.9547   23.9231 N   0  0  0  0  0  0  0  0  0  0  0  0
    7.9561  -13.4508   24.6625 C   0  0  1  0  0  0  0  0  0  0  0  0
    7.2462  -13.2428   25.9137 C   0  0  0  0  0  0  0  0  0  0  0  0
    8.1554  -12.8963   27.0400 C   0  0  0  0  0  0  0  0  0  0  0  0
    8.9610  -14.0727   27.4289 C   0  0  0  0  0  0  0  0  0  0  0  0
   10.2191  -14.0088   27.9813 C   0  0  0  0  0  0  0  0  0  0  0  0
   10.9049  -15.1693   28.3224 C   0  0  0  0  0  0  0  0  0  0  0  0
   10.3553  -16.4086   28.1210 C   0  0  0  0  0  0  0  0  0  0  0  0
    9.0955  -16.4659   27.5675 C   0  0  0  0  0  0  0  0  0  0  0  0
    8.3911  -15.3345   27.2194 C   0  0  0  0  0  0  0  0  0  0  0  0
    6.1032  -12.3207   25.7323 O   0  0  0  0  0  0  0  0  0  0  0  0
    5.9424  -11.5361   24.7724 O   0  0  0  0  0  0  0  0  0  0  0  0
  2  3  2  0
  2  1  1  0
  4  2  1  0
  5  4  1  0
  6  5  1  0
  7  6  1  0
  8  9  1  1
  8  7  1  0
 10 16  1  0
 10  8  1  0
 11 10  2  0
 13 12  1  6
 13 15  1  0
 14 13  1  0
 15 17  1  0
 15 16  1  1
 17 18  2  0
 19 20  1  0
 19 17  1  0
 20 28  1  0
 21 22  1  0
 20 21  1  1
 22 23  2  0
 23 24  1  0
 25 24  2  0
 26 25  1  0
 27 26  2  0
 27 22  1  0
 28 29  2  0
 28 30  1  0
M  END
$$$$
