RVF.pdb
     RDKit          3D

 30 30  0  0  1  0  0  0  0  0999 V2000
   10.8497  -21.1383   23.6689 N   0  0  0  0  0  0  0  0  0  0  0  0
   10.5276  -21.5402   22.3257 C   0  0  0  0  0  0  0  0  0  0  0  0
   11.3339  -21.3895   21.3597 N   0  0  0  0  0  0  0  0  0  0  0  0
    9.2550  -22.1219   22.1047 N   0  0  0  0  0  0  0  0  0  0  0  0
    8.5178  -22.0422   20.8756 C   0  0  0  0  0  0  0  0  0  0  0  0
    7.5402  -20.9269   20.8783 C   0  0  0  0  0  0  0  0  0  0  0  0
    8.0918  -19.5674   20.8741 C   0  0  0  0  0  0  0  0  0  0  0  0
    7.6678  -18.5329   19.9142 C   0  0  2  0  0  0  0  0  0  0  0  0
    7.7690  -18.8747   18.5363 N   0  0  0  0  0  0  0  0  0  0  0  0
    8.4441  -17.2661   20.1869 C   0  0  0  0  0  0  0  0  0  0  0  0
    9.6862  -17.2726   19.9842 O   0  0  0  0  0  0  0  0  0  0  0  0
   11.0724  -21.6595   20.3992 C   0  0  0  0  0  0  0  0  0  0  0  0
    7.0324  -13.5187   19.4390 C   0  0  1  0  0  0  0  0  0  0  0  0
    7.6891  -13.6438   20.7797 C   0  0  0  0  0  0  0  0  0  0  0  0
    8.4317  -12.3880   21.1800 C   0  0  2  0  0  0  0  0  0  0  0  0
    8.6157  -14.8702   20.8499 N   0  0  0  0  0  0  0  0  0  0  0  0
    7.8537  -16.0711   20.6575 C   0  0  0  0  0  0  0  0  0  0  0  0
    9.3177  -14.8003   22.1297 O   0  0  0  0  0  0  0  0  0  0  0  0
   10.3469  -14.1118   22.3481 N   0  0  0  0  0  0  0  0  0  0  0  0
    8.8042  -15.5649   23.2128 C   0  0  1  0  0  0  0  0  0  0  0  0
    9.4194  -15.5249   24.5291 C   0  0  0  0  0  0  0  0  0  0  0  0
    9.6376  -14.1369   25.0201 C   0  0  0  0  0  0  0  0  0  0  0  0
    8.3735  -13.5713   25.5363 C   0  0  0  0  0  0  0  0  0  0  0  0
    8.2288  -12.9827   26.7711 C   0  0  0  0  0  0  0  0  0  0  0  0
    7.0005  -12.4711   27.1746 C   0  0  0  0  0  0  0  0  0  0  0  0
    5.8986  -12.5355   26.3620 C   0  0  0  0  0  0  0  0  0  0  0  0
    6.0500  -13.1261   25.1271 C   0  0  0  0  0  0  0  0  0  0  0  0
    7.2534  -13.6417   24.6989 C   0  0  0  0  0  0  0  0  0  0  0  0
    8.7118  -16.4145   25.4765 O   0  0  0  0  0  0  0  0  0  0  0  0
    8.9925  -16.5664   26.6851 O   0  0  0  0  0  0  0  0  0  0  0  0
  2  3  2  0
  2  1  1  0
  4  2  1  0
  5  4  1  0
  6  5  1  0
  7  6  1  0
  8  9  1  6
  8  7  1  0
 10 16  1  0
 10  8  1  0
 11 10  2  0
 13 12  1  1
 13 15  1  0
 14 13  1  0
 15 17  1  0
 15 16  1  6
 17 18  2  0
 19 20  1  0
 19 17  1  0
 20 28  1  0
 21 22  1  0
 20 21  1  1
 22 23  2  0
 23 24  1  0
 25 24  2  0
 26 25  1  0
 27 26  2  0
 27 22  1  0
 28 29  2  0
 28 30  1  0
M  END
$$$$
