RVF.pdb
     RDKit          3D

 30 30  0  0  1  0  0  0  0  0999 V2000
    8.7565  -20.6138   16.1488 N   0  0  0  0  0  0  0  0  0  0  0  0
    7.3744  -20.8283   16.4850 C   0  0  0  0  0  0  0  0  0  0  0  0
    6.7716  -21.9117   16.2226 N   0  0  0  0  0  0  0  0  0  0  0  0
    6.6872  -19.7716   17.1315 N   0  0  0  0  0  0  0  0  0  0  0  0
    7.3123  -18.7398   17.9095 C   0  0  0  0  0  0  0  0  0  0  0  0
    8.1573  -19.2903   18.9968 C   0  0  0  0  0  0  0  0  0  0  0  0
    8.7862  -18.3188   19.8986 C   0  0  0  0  0  0  0  0  0  0  0  0
    8.3343  -16.9209   20.0124 C   0  0  2  0  0  0  0  0  0  0  0  0
    8.7074  -16.0512   18.9493 N   0  0  0  0  0  0  0  0  0  0  0  0
    8.8155  -16.3577   21.3288 C   0  0  0  0  0  0  0  0  0  0  0  0
   10.0494  -16.3882   21.5751 O   0  0  0  0  0  0  0  0  0  0  0  0
    5.7666  -22.0256   16.4242 C   0  0  0  0  0  0  0  0  0  0  0  0
    7.0024  -13.2177   23.3524 C   0  0  1  0  0  0  0  0  0  0  0  0
    7.3751  -14.3920   24.2048 C   0  0  0  0  0  0  0  0  0  0  0  0
    7.8018  -13.9839   25.5977 C   0  0  2  0  0  0  0  0  0  0  0  0
    8.4542  -15.2627   23.5379 N   0  0  0  0  0  0  0  0  0  0  0  0
    7.9573  -15.7969   22.3019 C   0  0  0  0  0  0  0  0  0  0  0  0
    8.8494  -16.2739   24.5160 O   0  0  0  0  0  0  0  0  0  0  0  0
    8.2238  -17.3417   24.7384 N   0  0  0  0  0  0  0  0  0  0  0  0
   10.0279  -16.0397   25.2760 C   0  0  2  0  0  0  0  0  0  0  0  0
   10.5792  -17.0576   26.1549 C   0  0  0  0  0  0  0  0  0  0  0  0
   11.7995  -16.5983   26.8726 C   0  0  0  0  0  0  0  0  0  0  0  0
   11.4473  -15.5752   27.8794 C   0  0  0  0  0  0  0  0  0  0  0  0
   11.1195  -14.2720   27.5859 C   0  0  0  0  0  0  0  0  0  0  0  0
   10.7957  -13.3756   28.5984 C   0  0  0  0  0  0  0  0  0  0  0  0
   10.7924  -13.7566   29.9150 C   0  0  0  0  0  0  0  0  0  0  0  0
   11.1216  -15.0627   30.2023 C   0  0  0  0  0  0  0  0  0  0  0  0
   11.4466  -15.9739   29.2217 C   0  0  0  0  0  0  0  0  0  0  0  0
    9.5307  -17.6390   27.0223 O   0  0  0  0  0  0  0  0  0  0  0  0
    8.3898  -17.1634   27.2088 O   0  0  0  0  0  0  0  0  0  0  0  0
  2  3  2  0
  2  1  1  0
  4  2  1  0
  5  4  1  0
  6  5  1  0
  7  6  1  0
  8  9  1  6
  8  7  1  0
 10 16  1  0
 10  8  1  0
 11 10  2  0
 13 12  1  1
 13 15  1  0
 14 13  1  0
 15 17  1  0
 15 16  1  6
 17 18  2  0
 19 20  1  0
 19 17  1  0
 20 28  1  0
 21 22  1  0
 20 21  1  1
 22 23  2  0
 23 24  1  0
 25 24  2  0
 26 25  1  0
 27 26  2  0
 27 22  1  0
 28 29  2  0
 28 30  1  0
M  END
$$$$
