RVF.pdb
     RDKit          3D

 30 30  0  0  1  0  0  0  0  0999 V2000
    8.1438  -15.0000   14.3740 N   0  0  0  0  0  0  0  0  0  0  0  0
    8.0734  -13.6569   14.8842 C   0  0  0  0  0  0  0  0  0  0  0  0
    7.8723  -12.6551   14.1345 N   0  0  0  0  0  0  0  0  0  0  0  0
    8.2397  -13.4779   16.2795 N   0  0  0  0  0  0  0  0  0  0  0  0
    8.6096  -14.5134   17.2022 C   0  0  0  0  0  0  0  0  0  0  0  0
    7.4371  -15.2871   17.6777 C   0  0  0  0  0  0  0  0  0  0  0  0
    7.3555  -15.5393   19.1207 C   0  0  0  0  0  0  0  0  0  0  0  0
    8.3631  -16.3237   19.8560 C   0  0  2  0  0  0  0  0  0  0  0  0
    8.6233  -17.6330   19.3622 N   0  0  0  0  0  0  0  0  0  0  0  0
    7.9610  -16.3946   21.3103 C   0  0  0  0  0  0  0  0  0  0  0  0
    7.7142  -15.3181   21.9139 O   0  0  0  0  0  0  0  0  0  0  0  0
    7.8698  -11.6962   14.5142 C   0  0  0  0  0  0  0  0  0  0  0  0
    5.7079  -19.3390   22.8969 C   0  0  1  0  0  0  0  0  0  0  0  0
    6.8710  -18.9976   23.7773 C   0  0  0  0  0  0  0  0  0  0  0  0
    6.5221  -19.0616   25.2480 C   0  0  2  0  0  0  0  0  0  0  0  0
    7.4756  -17.6285   23.4201 N   0  0  0  0  0  0  0  0  0  0  0  0
    7.8454  -17.6035   22.0335 C   0  0  0  0  0  0  0  0  0  0  0  0
    8.5845  -17.3991   24.3438 O   0  0  0  0  0  0  0  0  0  0  0  0
    9.6111  -18.1202   24.4272 N   0  0  0  0  0  0  0  0  0  0  0  0
    8.5031  -16.2792   25.2158 C   0  0  1  0  0  0  0  0  0  0  0  0
    9.6376  -15.8614   26.0227 C   0  0  0  0  0  0  0  0  0  0  0  0
    9.9913  -14.4300   25.8203 C   0  0  0  0  0  0  0  0  0  0  0  0
    8.7835  -13.5843   25.9219 C   0  0  0  0  0  0  0  0  0  0  0  0
    7.8123  -13.4914   24.9523 C   0  0  0  0  0  0  0  0  0  0  0  0
    6.7034  -12.6723   25.1338 C   0  0  0  0  0  0  0  0  0  0  0  0
    6.5409  -11.9338   26.2770 C   0  0  0  0  0  0  0  0  0  0  0  0
    7.5168  -12.0311   27.2438 C   0  0  0  0  0  0  0  0  0  0  0  0
    8.6262  -12.8336   27.0934 C   0  0  0  0  0  0  0  0  0  0  0  0
    9.4649  -16.2644   27.4361 O   0  0  0  0  0  0  0  0  0  0  0  0
   10.3093  -16.1183   28.3461 O   0  0  0  0  0  0  0  0  0  0  0  0
  2  3  2  0
  2  1  1  0
  4  2  1  0
  5  4  1  0
  6  5  1  0
  7  6  1  0
  8  9  1  6
  8  7  1  0
 10 16  1  0
 10  8  1  0
 11 10  2  0
 13 12  1  1
 13 15  1  0
 14 13  1  0
 15 17  1  0
 15 16  1  1
 17 18  2  0
 19 20  1  0
 19 17  1  0
 20 28  1  0
 21 22  1  0
 20 21  1  1
 22 23  2  0
 23 24  1  0
 25 24  2  0
 26 25  1  0
 27 26  2  0
 27 22  1  0
 28 29  2  0
 28 30  1  0
M  END
$$$$
