RVF.pdb
     RDKit          3D

 30 30  0  0  1  0  0  0  0  0999 V2000
   15.0289  -20.9121   19.0406 N   0  0  0  0  0  0  0  0  0  0  0  0
   15.4075  -19.7566   18.2720 C   0  0  0  0  0  0  0  0  0  0  0  0
   16.3318  -19.7900   17.4057 N   0  0  0  0  0  0  0  0  0  0  0  0
   14.7047  -18.5508   18.5149 N   0  0  0  0  0  0  0  0  0  0  0  0
   13.6742  -18.3849   19.5003 C   0  0  0  0  0  0  0  0  0  0  0  0
   12.4939  -19.2407   19.2281 C   0  0  0  0  0  0  0  0  0  0  0  0
   11.3866  -19.1603   20.1872 C   0  0  0  0  0  0  0  0  0  0  0  0
   10.0871  -18.5462   19.8622 C   0  0  2  0  0  0  0  0  0  0  0  0
    9.7830  -18.4143   18.4781 N   0  0  0  0  0  0  0  0  0  0  0  0
   10.0020  -17.1975   20.5370 C   0  0  0  0  0  0  0  0  0  0  0  0
   11.0292  -16.7526   21.1123 O   0  0  0  0  0  0  0  0  0  0  0  0
   16.6407  -18.9333   16.9215 C   0  0  0  0  0  0  0  0  0  0  0  0
    7.6302  -14.0113   19.5101 C   0  0  1  0  0  0  0  0  0  0  0  0
    7.5186  -14.3916   20.9549 C   0  0  0  0  0  0  0  0  0  0  0  0
    7.3531  -13.1897   21.8587 C   0  0  2  0  0  0  0  0  0  0  0  0
    8.7064  -15.2567   21.4114 N   0  0  0  0  0  0  0  0  0  0  0  0
    8.8319  -16.4047   20.5591 C   0  0  0  0  0  0  0  0  0  0  0  0
    8.4851  -15.5737   22.8206 O   0  0  0  0  0  0  0  0  0  0  0  0
    8.2632  -16.7262   23.2717 N   0  0  0  0  0  0  0  0  0  0  0  0
    8.5221  -14.5044   23.7568 C   0  0  2  0  0  0  0  0  0  0  0  0
    8.7673  -14.7407   25.1699 C   0  0  0  0  0  0  0  0  0  0  0  0
    9.2266  -13.5194   25.8860 C   0  0  0  0  0  0  0  0  0  0  0  0
    9.4249  -13.8110   27.3212 C   0  0  0  0  0  0  0  0  0  0  0  0
   10.1009  -14.9051   27.8091 C   0  0  0  0  0  0  0  0  0  0  0  0
   10.2444  -15.0990   29.1785 C   0  0  0  0  0  0  0  0  0  0  0  0
    9.7205  -14.2130   30.0836 C   0  0  0  0  0  0  0  0  0  0  0  0
    9.0447  -13.1197   29.5889 C   0  0  0  0  0  0  0  0  0  0  0  0
    8.8862  -12.9002   28.2383 C   0  0  0  0  0  0  0  0  0  0  0  0
    7.6246  -15.4376   25.8009 O   0  0  0  0  0  0  0  0  0  0  0  0
    6.4212  -15.1185   25.6880 O   0  0  0  0  0  0  0  0  0  0  0  0
  2  3  2  0
  2  1  1  0
  4  2  1  0
  5  4  1  0
  6  5  1  0
  7  6  1  0
  8  9  1  6
  8  7  1  0
 10 16  1  0
 10  8  1  0
 11 10  2  0
 13 12  1  6
 13 15  1  0
 14 13  1  0
 15 17  1  0
 15 16  1  6
 17 18  2  0
 19 20  1  0
 19 17  1  0
 20 28  1  0
 21 22  1  0
 20 21  1  1
 22 23  2  0
 23 24  1  0
 25 24  2  0
 26 25  1  0
 27 26  2  0
 27 22  1  0
 28 29  2  0
 28 30  1  0
M  END
$$$$
