RVF.pdb
     RDKit          3D

 30 30  0  0  1  0  0  0  0  0999 V2000
    1.5591  -21.2182   21.9137 N   0  0  0  0  0  0  0  0  0  0  0  0
    0.7955  -20.1951   22.5765 C   0  0  0  0  0  0  0  0  0  0  0  0
   -0.4695  -20.2288   22.6457 N   0  0  0  0  0  0  0  0  0  0  0  0
    1.5106  -19.1221   23.1631 N   0  0  0  0  0  0  0  0  0  0  0  0
    2.4551  -18.2900   22.4732 C   0  0  0  0  0  0  0  0  0  0  0  0
    3.5571  -19.0753   21.8662 C   0  0  0  0  0  0  0  0  0  0  0  0
    4.8725  -18.4282   21.8073 C   0  0  0  0  0  0  0  0  0  0  0  0
    5.4742  -17.9475   20.5510 C   0  0  2  0  0  0  0  0  0  0  0  0
    5.8307  -18.9467   19.6022 N   0  0  0  0  0  0  0  0  0  0  0  0
    6.6798  -17.0991   20.8802 C   0  0  0  0  0  0  0  0  0  0  0  0
    7.7049  -17.6706   21.3349 O   0  0  0  0  0  0  0  0  0  0  0  0
   -0.9965  -19.4957   23.1442 C   0  0  0  0  0  0  0  0  0  0  0  0
    7.4244  -13.4707   19.1314 C   0  0  2  0  0  0  0  0  0  0  0  0
    7.7199  -13.4771   20.6001 C   0  0  0  0  0  0  0  0  0  0  0  0
    8.9508  -12.6685   20.9464 C   0  0  2  0  0  0  0  0  0  0  0  0
    7.8351  -14.9083   21.1535 N   0  0  0  0  0  0  0  0  0  0  0  0
    6.7227  -15.6970   20.7061 C   0  0  0  0  0  0  0  0  0  0  0  0
    7.9482  -14.7949   22.6060 O   0  0  0  0  0  0  0  0  0  0  0  0
    7.1063  -14.2310   23.3504 N   0  0  0  0  0  0  0  0  0  0  0  0
    9.0925  -15.3621   23.2305 C   0  0  1  0  0  0  0  0  0  0  0  0
    9.3075  -15.2529   24.6640 C   0  0  0  0  0  0  0  0  0  0  0  0
    8.0966  -15.6031   25.4554 C   0  0  0  0  0  0  0  0  0  0  0  0
    7.5645  -14.4038   26.1356 C   0  0  0  0  0  0  0  0  0  0  0  0
    8.3230  -13.5222   26.8701 C   0  0  0  0  0  0  0  0  0  0  0  0
    7.7389  -12.4140   27.4737 C   0  0  0  0  0  0  0  0  0  0  0  0
    6.3963  -12.1636   27.3590 C   0  0  0  0  0  0  0  0  0  0  0  0
    5.6423  -13.0500   26.6225 C   0  0  0  0  0  0  0  0  0  0  0  0
    6.1917  -14.1562   26.0128 C   0  0  0  0  0  0  0  0  0  0  0  0
   10.5423  -15.9577   25.0739 O   0  0  0  0  0  0  0  0  0  0  0  0
   11.4040  -15.5209   25.8673 O   0  0  0  0  0  0  0  0  0  0  0  0
  2  3  2  0
  2  1  1  0
  4  2  1  0
  5  4  1  0
  6  5  1  0
  7  6  1  0
  8  9  1  6
  8  7  1  0
 10 16  1  0
 10  8  1  0
 11 10  2  0
 13 12  1  1
 13 15  1  0
 14 13  1  0
 15 17  1  0
 15 16  1  6
 17 18  2  0
 19 20  1  0
 19 17  1  0
 20 28  1  0
 21 22  1  0
 20 21  1  1
 22 23  2  0
 23 24  1  0
 25 24  2  0
 26 25  1  0
 27 26  2  0
 27 22  1  0
 28 29  2  0
 28 30  1  0
M  END
$$$$
