AEY.pdb
     RDKit          3D

 27 27  0  0  1  0  0  0  0  0999 V2000
   25.0805  -31.2088  -17.3984 C   0  0  0  0  0  0  0  0  0  0  0  0
   25.0388  -31.5500  -18.8555 C   0  0  2  0  0  0  0  0  0  0  0  0
   24.4549  -32.8433  -19.1066 N   0  0  0  0  0  0  0  0  0  0  0  0
   26.3539  -31.3996  -19.5416 C   0  0  0  0  0  0  0  0  0  0  0  0
   26.8777  -32.3824  -20.1278 O   0  0  0  0  0  0  0  0  0  0  0  0
   26.9757  -30.1351  -19.5070 N   0  0  0  0  0  0  0  0  0  0  0  0
   28.1882  -29.9116  -20.2289 C   0  0  1  0  0  0  0  0  0  0  0  0
   28.2974  -28.4742  -20.6519 C   0  0  0  0  0  0  0  0  0  0  0  0
   29.4318  -28.1836  -21.5831 C   0  0  0  0  0  0  0  0  0  0  0  0
   29.4411  -26.7872  -22.0607 C   0  0  0  0  0  0  0  0  0  0  0  0
   28.5958  -25.9461  -21.6961 O   0  0  0  0  0  0  0  0  0  0  0  0
   29.3902  -30.1476  -19.3377 C   0  0  0  0  0  0  0  0  0  0  0  0
   29.2333  -29.9314  -18.1138 O   0  0  0  0  0  0  0  0  0  0  0  0
   30.4355  -26.3926  -22.9562 O   0  0  0  0  0  0  0  0  0  0  0  0
   27.3224  -33.3598  -14.4785 O   0  0  0  0  0  0  0  0  0  0  0  0
   28.2351  -33.1785  -15.5046 C   0  0  0  0  0  0  0  0  0  0  0  0
   29.4961  -32.6462  -15.2635 C   0  0  0  0  0  0  0  0  0  0  0  0
   30.4122  -32.4608  -16.2756 C   0  0  0  0  0  0  0  0  0  0  0  0
   30.0961  -32.8032  -17.5675 C   0  0  0  0  0  0  0  0  0  0  0  0
   30.9675  -32.6568  -18.7193 C   0  0  0  0  0  0  0  0  0  0  0  0
   31.5404  -31.2818  -18.9369 C   0  0  2  0  0  0  0  0  0  0  0  0
   30.6274  -30.5851  -19.8247 N   0  0  0  0  0  0  0  0  0  0  0  0
   32.8723  -31.3178  -19.6238 C   0  0  0  0  0  0  0  0  0  0  0  0
   33.8981  -31.8171  -19.0837 O   0  0  0  0  0  0  0  0  0  0  0  0
   28.8283  -33.3342  -17.7877 C   0  0  0  0  0  0  0  0  0  0  0  0
   27.9133  -33.5223  -16.7935 C   0  0  0  0  0  0  0  0  0  0  0  0
   33.0543  -30.7993  -20.9063 O   0  0  0  0  0  0  0  0  0  0  0  0
  2  1  1  1
  3  2  1  0
  4  2  1  0
  5  4  2  0
  6  4  1  0
  7  6  1  0
  7  8  1  1
  9  8  1  0
 10  9  1  0
 10 11  2  0
 12 22  1  0
 12  7  1  0
 13 12  2  0
 14 10  1  0
 15 16  1  0
 16 17  2  0
 17 18  1  0
 19 20  1  0
 19 18  2  0
 21 20  1  6
 21 23  1  0
 21 22  1  0
 23 27  1  0
 24 23  2  0
 25 19  1  0
 26 25  2  0
 26 16  1  0
M  END
$$$$
