AEY.pdb
     RDKit          3D

 27 27  0  0  1  0  0  0  0  0999 V2000
   28.5008  -26.1273  -16.6901 C   0  0  0  0  0  0  0  0  0  0  0  0
   29.2703  -24.9137  -17.1100 C   0  0  2  0  0  0  0  0  0  0  0  0
   30.6896  -25.0584  -16.9069 N   0  0  0  0  0  0  0  0  0  0  0  0
   28.7577  -23.6465  -16.5149 C   0  0  0  0  0  0  0  0  0  0  0  0
   29.1318  -23.2895  -15.3675 O   0  0  0  0  0  0  0  0  0  0  0  0
   27.8528  -22.8788  -17.2756 N   0  0  0  0  0  0  0  0  0  0  0  0
   27.3526  -21.6425  -16.7629 C   0  0  1  0  0  0  0  0  0  0  0  0
   27.4431  -20.5611  -17.8018 C   0  0  0  0  0  0  0  0  0  0  0  0
   26.9801  -19.2150  -17.3413 C   0  0  0  0  0  0  0  0  0  0  0  0
   27.1227  -18.1723  -18.3760 C   0  0  0  0  0  0  0  0  0  0  0  0
   26.1668  -17.4685  -18.7578 O   0  0  0  0  0  0  0  0  0  0  0  0
   25.8756  -21.7556  -16.4462 C   0  0  0  0  0  0  0  0  0  0  0  0
   25.1806  -22.4300  -17.2408 O   0  0  0  0  0  0  0  0  0  0  0  0
   28.3775  -17.9661  -18.9501 O   0  0  0  0  0  0  0  0  0  0  0  0
   18.2621  -20.8844  -11.9150 O   0  0  0  0  0  0  0  0  0  0  0  0
   19.5795  -20.9379  -12.3396 C   0  0  0  0  0  0  0  0  0  0  0  0
   20.2253  -22.1524  -12.5378 C   0  0  0  0  0  0  0  0  0  0  0  0
   21.5352  -22.2186  -12.9596 C   0  0  0  0  0  0  0  0  0  0  0  0
   22.2452  -21.0674  -13.1981 C   0  0  0  0  0  0  0  0  0  0  0  0
   23.6259  -21.0011  -13.6418 C   0  0  0  0  0  0  0  0  0  0  0  0
   23.8630  -21.3162  -15.0946 C   0  0  2  0  0  0  0  0  0  0  0  0
   25.2856  -21.1501  -15.3307 N   0  0  0  0  0  0  0  0  0  0  0  0
   23.1559  -20.3633  -16.0107 C   0  0  0  0  0  0  0  0  0  0  0  0
   23.6376  -19.2378  -16.3179 O   0  0  0  0  0  0  0  0  0  0  0  0
   21.5803  -19.8617  -12.9934 C   0  0  0  0  0  0  0  0  0  0  0  0
   20.2838  -19.7841  -12.5761 C   0  0  0  0  0  0  0  0  0  0  0  0
   21.9189  -20.6688  -16.5795 O   0  0  0  0  0  0  0  0  0  0  0  0
  2  1  1  1
  3  2  1  0
  4  2  1  0
  5  4  2  0
  6  4  1  0
  7  6  1  0
  7  8  1  6
  9  8  1  0
 10  9  1  0
 10 11  2  0
 12 22  1  0
 12  7  1  0
 13 12  2  0
 14 10  1  0
 15 16  1  0
 16 17  2  0
 17 18  1  0
 19 20  1  0
 19 18  2  0
 21 20  1  1
 21 23  1  0
 21 22  1  0
 23 27  1  0
 24 23  2  0
 25 19  1  0
 26 25  2  0
 26 16  1  0
M  END
$$$$
