AEY.pdb
     RDKit          3D

 27 27  0  0  1  0  0  0  0  0999 V2000
   23.4349  -15.7269  -18.4086 C   0  0  0  0  0  0  0  0  0  0  0  0
   24.1604  -15.8931  -17.1097 C   0  0  2  0  0  0  0  0  0  0  0  0
   24.9905  -14.7600  -16.7882 N   0  0  0  0  0  0  0  0  0  0  0  0
   24.9173  -17.1736  -17.0085 C   0  0  0  0  0  0  0  0  0  0  0  0
   24.3740  -18.2581  -17.3442 O   0  0  0  0  0  0  0  0  0  0  0  0
   26.2419  -17.1212  -16.5295 N   0  0  0  0  0  0  0  0  0  0  0  0
   27.0163  -18.3177  -16.4280 C   0  0  1  0  0  0  0  0  0  0  0  0
   28.4550  -18.0497  -16.7673 C   0  0  0  0  0  0  0  0  0  0  0  0
   28.7274  -17.8708  -18.2275 C   0  0  0  0  0  0  0  0  0  0  0  0
   28.8276  -19.1508  -18.9554 C   0  0  0  0  0  0  0  0  0  0  0  0
   29.1444  -20.2194  -18.3962 O   0  0  0  0  0  0  0  0  0  0  0  0
   27.0400  -18.8174  -14.9981 C   0  0  0  0  0  0  0  0  0  0  0  0
   27.5709  -18.0650  -14.1487 O   0  0  0  0  0  0  0  0  0  0  0  0
   28.5570  -19.1656  -20.3240 O   0  0  0  0  0  0  0  0  0  0  0  0
   25.2536  -20.5284   -6.9286 O   0  0  0  0  0  0  0  0  0  0  0  0
   25.3494  -20.2799   -8.2879 C   0  0  0  0  0  0  0  0  0  0  0  0
   24.3634  -20.7041   -9.1707 C   0  0  0  0  0  0  0  0  0  0  0  0
   24.4476  -20.4632  -10.5246 C   0  0  0  0  0  0  0  0  0  0  0  0
   25.5252  -19.7872  -11.0423 C   0  0  0  0  0  0  0  0  0  0  0  0
   25.7331  -19.4726  -12.4441 C   0  0  0  0  0  0  0  0  0  0  0  0
   26.5693  -20.4557  -13.2192 C   0  0  2  0  0  0  0  0  0  0  0  0
   26.5047  -20.0516  -14.6118 N   0  0  0  0  0  0  0  0  0  0  0  0
   26.0283  -21.8517  -13.1457 C   0  0  0  0  0  0  0  0  0  0  0  0
   25.1789  -22.2917  -13.9692 O   0  0  0  0  0  0  0  0  0  0  0  0
   26.5016  -19.3713  -10.1416 C   0  0  0  0  0  0  0  0  0  0  0  0
   26.4288  -19.6041   -8.7993 C   0  0  0  0  0  0  0  0  0  0  0  0
   26.4360  -22.7490  -12.1580 O   0  0  0  0  0  0  0  0  0  0  0  0
  2  1  1  6
  3  2  1  0
  4  2  1  0
  5  4  2  0
  6  4  1  0
  7  6  1  0
  7  8  1  1
  9  8  1  0
 10  9  1  0
 10 11  2  0
 12 22  1  0
 12  7  1  0
 13 12  2  0
 14 10  1  0
 15 16  1  0
 16 17  2  0
 17 18  1  0
 19 20  1  0
 19 18  2  0
 21 20  1  1
 21 23  1  0
 21 22  1  0
 23 27  1  0
 24 23  2  0
 25 19  1  0
 26 25  2  0
 26 16  1  0
M  END
$$$$
