AEY.pdb
     RDKit          3D

 27 27  0  0  1  0  0  0  0  0999 V2000
   21.9588  -16.5485  -18.7685 C   0  0  0  0  0  0  0  0  0  0  0  0
   21.5993  -15.7771  -17.5369 C   0  0  2  0  0  0  0  0  0  0  0  0
   20.7132  -16.5052  -16.6644 N   0  0  0  0  0  0  0  0  0  0  0  0
   21.0859  -14.4063  -17.8199 C   0  0  0  0  0  0  0  0  0  0  0  0
   21.7743  -13.6004  -18.4985 O   0  0  0  0  0  0  0  0  0  0  0  0
   19.8214  -14.0557  -17.3051 N   0  0  0  0  0  0  0  0  0  0  0  0
   19.2598  -12.7738  -17.5925 C   0  0  1  0  0  0  0  0  0  0  0  0
   17.7599  -12.8481  -17.6338 C   0  0  0  0  0  0  0  0  0  0  0  0
   17.0809  -11.5544  -17.9560 C   0  0  0  0  0  0  0  0  0  0  0  0
   15.6091  -11.6622  -17.9601 C   0  0  0  0  0  0  0  0  0  0  0  0
   14.8896  -11.0162  -18.7475 O   0  0  0  0  0  0  0  0  0  0  0  0
   19.5706  -11.7942  -16.4797 C   0  0  0  0  0  0  0  0  0  0  0  0
   19.3232  -12.1736  -15.3117 O   0  0  0  0  0  0  0  0  0  0  0  0
   14.9982  -12.5215  -17.0463 O   0  0  0  0  0  0  0  0  0  0  0  0
   22.5674   -3.9957  -13.3994 O   0  0  0  0  0  0  0  0  0  0  0  0
   22.3463   -5.2572  -13.9272 C   0  0  0  0  0  0  0  0  0  0  0  0
   22.2994   -6.3824  -13.1128 C   0  0  0  0  0  0  0  0  0  0  0  0
   22.0806   -7.6422  -13.6258 C   0  0  0  0  0  0  0  0  0  0  0  0
   21.9008   -7.8188  -14.9759 C   0  0  0  0  0  0  0  0  0  0  0  0
   21.6653   -9.0883  -15.6395 C   0  0  0  0  0  0  0  0  0  0  0  0
   20.2474   -9.5929  -15.6040 C   0  0  2  0  0  0  0  0  0  0  0  0
   20.1076  -10.5223  -16.7102 N   0  0  0  0  0  0  0  0  0  0  0  0
   19.2445   -8.5008  -15.8240 C   0  0  0  0  0  0  0  0  0  0  0  0
   18.8221   -8.1923  -16.9728 O   0  0  0  0  0  0  0  0  0  0  0  0
   21.9518   -6.6794  -15.7739 C   0  0  0  0  0  0  0  0  0  0  0  0
   22.1676   -5.4273  -15.2771 C   0  0  0  0  0  0  0  0  0  0  0  0
   18.7176   -7.7599  -14.7655 O   0  0  0  0  0  0  0  0  0  0  0  0
  2  1  1  6
  3  2  1  0
  4  2  1  0
  5  4  2  0
  6  4  1  0
  7  6  1  0
  7  8  1  1
  9  8  1  0
 10  9  1  0
 10 11  2  0
 12 22  1  0
 12  7  1  0
 13 12  2  0
 14 10  1  0
 15 16  1  0
 16 17  2  0
 17 18  1  0
 19 20  1  0
 19 18  2  0
 21 20  1  6
 21 23  1  0
 21 22  1  0
 23 27  1  0
 24 23  2  0
 25 19  1  0
 26 25  2  0
 26 16  1  0
M  END
$$$$
