AEY.pdb
     RDKit          3D

 27 27  0  0  1  0  0  0  0  0999 V2000
   27.4133  -19.9220  -18.0923 C   0  0  0  0  0  0  0  0  0  0  0  0
   27.7701  -20.7070  -16.8685 C   0  0  2  0  0  0  0  0  0  0  0  0
   28.3841  -21.9729  -17.1801 N   0  0  0  0  0  0  0  0  0  0  0  0
   26.6383  -20.8675  -15.9113 C   0  0  0  0  0  0  0  0  0  0  0  0
   25.8038  -19.9382  -15.7568 O   0  0  0  0  0  0  0  0  0  0  0  0
   26.5432  -22.0800  -15.1990 N   0  0  0  0  0  0  0  0  0  0  0  0
   25.4482  -22.3057  -14.3093 C   0  0  1  0  0  0  0  0  0  0  0  0
   24.9332  -23.7103  -14.4464 C   0  0  0  0  0  0  0  0  0  0  0  0
   23.9867  -23.9180  -15.5864 C   0  0  0  0  0  0  0  0  0  0  0  0
   22.8405  -24.7781  -15.2335 C   0  0  0  0  0  0  0  0  0  0  0  0
   21.6626  -24.3689  -15.2495 O   0  0  0  0  0  0  0  0  0  0  0  0
   25.9014  -22.1961  -12.8680 C   0  0  0  0  0  0  0  0  0  0  0  0
   26.7328  -23.0464  -12.4742 O   0  0  0  0  0  0  0  0  0  0  0  0
   23.0847  -26.1020  -14.8671 O   0  0  0  0  0  0  0  0  0  0  0  0
   28.8440  -19.3204   -5.2271 O   0  0  0  0  0  0  0  0  0  0  0  0
   28.3562  -19.5197   -6.5081 C   0  0  0  0  0  0  0  0  0  0  0  0
   27.2131  -18.8676   -6.9548 C   0  0  0  0  0  0  0  0  0  0  0  0
   26.7180  -19.0579   -8.2264 C   0  0  0  0  0  0  0  0  0  0  0  0
   27.3526  -19.9100   -9.0966 C   0  0  0  0  0  0  0  0  0  0  0  0
   26.9333  -20.1978  -10.4564 C   0  0  0  0  0  0  0  0  0  0  0  0
   25.8466  -21.2293  -10.6025 C   0  0  2  0  0  0  0  0  0  0  0  0
   25.4349  -21.2072  -11.9943 N   0  0  0  0  0  0  0  0  0  0  0  0
   24.6333  -20.9035   -9.7847 C   0  0  0  0  0  0  0  0  0  0  0  0
   24.5479  -21.1897   -8.5583 O   0  0  0  0  0  0  0  0  0  0  0  0
   28.4953  -20.5533   -8.6297 C   0  0  0  0  0  0  0  0  0  0  0  0
   28.9946  -20.3726   -7.3730 C   0  0  0  0  0  0  0  0  0  0  0  0
   23.5239  -20.2611  -10.3356 O   0  0  0  0  0  0  0  0  0  0  0  0
  2  1  1  6
  3  2  1  0
  4  2  1  0
  5  4  2  0
  6  4  1  0
  7  6  1  0
  7  8  1  1
  9  8  1  0
 10  9  1  0
 10 11  2  0
 12 22  1  0
 12  7  1  0
 13 12  2  0
 14 10  1  0
 15 16  1  0
 16 17  2  0
 17 18  1  0
 19 20  1  0
 19 18  2  0
 21 20  1  6
 21 23  1  0
 21 22  1  0
 23 27  1  0
 24 23  2  0
 25 19  1  0
 26 25  2  0
 26 16  1  0
M  END
$$$$
