AEY.pdb
     RDKit          3D

 27 27  0  0  1  0  0  0  0  0999 V2000
   28.3692  -28.6993  -18.2216 C   0  0  0  0  0  0  0  0  0  0  0  0
   27.3985  -28.5908  -17.0871 C   0  0  2  0  0  0  0  0  0  0  0  0
   26.7875  -29.8533  -16.7564 N   0  0  0  0  0  0  0  0  0  0  0  0
   26.3780  -27.5202  -17.2750 C   0  0  0  0  0  0  0  0  0  0  0  0
   26.7349  -26.3520  -17.5782 O   0  0  0  0  0  0  0  0  0  0  0  0
   25.0219  -27.8633  -17.1016 N   0  0  0  0  0  0  0  0  0  0  0  0
   24.0081  -26.8632  -17.2172 C   0  0  1  0  0  0  0  0  0  0  0  0
   22.8426  -27.3777  -18.0132 C   0  0  0  0  0  0  0  0  0  0  0  0
   21.7523  -26.3781  -18.2381 C   0  0  0  0  0  0  0  0  0  0  0  0
   20.6048  -26.9352  -18.9804 C   0  0  0  0  0  0  0  0  0  0  0  0
   19.4217  -26.6797  -18.6805 O   0  0  0  0  0  0  0  0  0  0  0  0
   23.4328  -26.5279  -15.8567 C   0  0  0  0  0  0  0  0  0  0  0  0
   23.0237  -27.4902  -15.1669 O   0  0  0  0  0  0  0  0  0  0  0  0
   20.8539  -27.7819  -20.0610 O   0  0  0  0  0  0  0  0  0  0  0  0
   21.7808  -18.8267  -15.5707 O   0  0  0  0  0  0  0  0  0  0  0  0
   22.2300  -20.0426  -15.0824 C   0  0  0  0  0  0  0  0  0  0  0  0
   23.1406  -20.8144  -15.7942 C   0  0  0  0  0  0  0  0  0  0  0  0
   23.5945  -22.0254  -15.3193 C   0  0  0  0  0  0  0  0  0  0  0  0
   23.1510  -22.5062  -14.1117 C   0  0  0  0  0  0  0  0  0  0  0  0
   23.5488  -23.7629  -13.5033 C   0  0  0  0  0  0  0  0  0  0  0  0
   22.8497  -24.9916  -14.0209 C   0  0  2  0  0  0  0  0  0  0  0  0
   23.3481  -25.2202  -15.3649 N   0  0  0  0  0  0  0  0  0  0  0  0
   21.3668  -24.8030  -14.1331 C   0  0  0  0  0  0  0  0  0  0  0  0
   20.5932  -24.9237  -13.1430 O   0  0  0  0  0  0  0  0  0  0  0  0
   22.2393  -21.7183  -13.4148 C   0  0  0  0  0  0  0  0  0  0  0  0
   21.7830  -20.5179  -13.8752 C   0  0  0  0  0  0  0  0  0  0  0  0
   20.7545  -24.4807  -15.3448 O   0  0  0  0  0  0  0  0  0  0  0  0
  2  1  1  6
  3  2  1  0
  4  2  1  0
  5  4  2  0
  6  4  1  0
  7  6  1  0
  7  8  1  6
  9  8  1  0
 10  9  1  0
 10 11  2  0
 12 22  1  0
 12  7  1  0
 13 12  2  0
 14 10  1  0
 15 16  1  0
 16 17  2  0
 17 18  1  0
 19 20  1  0
 19 18  2  0
 21 20  1  6
 21 23  1  0
 21 22  1  0
 23 27  1  0
 24 23  2  0
 25 19  1  0
 26 25  2  0
 26 16  1  0
M  END
$$$$
