AEY.pdb
     RDKit          3D

 27 27  0  0  1  0  0  0  0  0999 V2000
   22.1323  -14.5335  -21.2838 C   0  0  0  0  0  0  0  0  0  0  0  0
   21.1571  -13.4851  -20.8469 C   0  0  2  0  0  0  0  0  0  0  0  0
   20.1085  -13.2659  -21.8107 N   0  0  0  0  0  0  0  0  0  0  0  0
   21.8012  -12.2046  -20.4367 C   0  0  0  0  0  0  0  0  0  0  0  0
   22.7218  -12.2059  -19.5785 O   0  0  0  0  0  0  0  0  0  0  0  0
   21.3449  -11.0141  -21.0377 N   0  0  0  0  0  0  0  0  0  0  0  0
   21.8801   -9.7535  -20.6303 C   0  0  1  0  0  0  0  0  0  0  0  0
   21.4343   -8.6614  -21.5605 C   0  0  0  0  0  0  0  0  0  0  0  0
   21.9942   -7.3097  -21.2476 C   0  0  0  0  0  0  0  0  0  0  0  0
   21.5590   -6.2714  -22.2018 C   0  0  0  0  0  0  0  0  0  0  0  0
   20.8675   -6.5291  -23.2070 O   0  0  0  0  0  0  0  0  0  0  0  0
   21.3348   -9.3564  -19.2739 C   0  0  0  0  0  0  0  0  0  0  0  0
   20.1306   -9.6213  -19.0530 O   0  0  0  0  0  0  0  0  0  0  0  0
   21.9366   -4.9484  -21.9700 O   0  0  0  0  0  0  0  0  0  0  0  0
   20.6531   -9.0147  -10.6083 O   0  0  0  0  0  0  0  0  0  0  0  0
   20.9210   -9.1419  -11.9614 C   0  0  0  0  0  0  0  0  0  0  0  0
   19.9442   -8.8904  -12.9175 C   0  0  0  0  0  0  0  0  0  0  0  0
   20.1983   -9.0137  -14.2659 C   0  0  0  0  0  0  0  0  0  0  0  0
   21.4429   -9.3942  -14.7044 C   0  0  0  0  0  0  0  0  0  0  0  0
   21.8370   -9.5619  -16.0915 C   0  0  0  0  0  0  0  0  0  0  0  0
   21.5193   -8.4097  -17.0068 C   0  0  2  0  0  0  0  0  0  0  0  0
   22.1102   -8.7248  -18.2946 N   0  0  0  0  0  0  0  0  0  0  0  0
   22.1386   -7.1245  -16.5467 C   0  0  0  0  0  0  0  0  0  0  0  0
   23.2603   -6.7263  -16.9667 O   0  0  0  0  0  0  0  0  0  0  0  0
   22.4068   -9.6416  -13.7310 C   0  0  0  0  0  0  0  0  0  0  0  0
   22.1666   -9.5226  -12.3934 C   0  0  0  0  0  0  0  0  0  0  0  0
   21.5063   -6.2906  -15.6238 O   0  0  0  0  0  0  0  0  0  0  0  0
  2  1  1  6
  3  2  1  0
  4  2  1  0
  5  4  2  0
  6  4  1  0
  7  6  1  0
  7  8  1  6
  9  8  1  0
 10  9  1  0
 10 11  2  0
 12 22  1  0
 12  7  1  0
 13 12  2  0
 14 10  1  0
 15 16  1  0
 16 17  2  0
 17 18  1  0
 19 20  1  0
 19 18  2  0
 21 20  1  1
 21 23  1  0
 21 22  1  0
 23 27  1  0
 24 23  2  0
 25 19  1  0
 26 25  2  0
 26 16  1  0
M  END
$$$$
