AEY.pdb
     RDKit          3D

 27 27  0  0  1  0  0  0  0  0999 V2000
   22.1260  -13.3873  -20.0535 C   0  0  0  0  0  0  0  0  0  0  0  0
   22.2837  -13.0561  -18.6021 C   0  0  2  0  0  0  0  0  0  0  0  0
   21.8352  -14.1185  -17.7381 N   0  0  0  0  0  0  0  0  0  0  0  0
   21.6812  -11.7470  -18.2197 C   0  0  0  0  0  0  0  0  0  0  0  0
   22.1089  -10.6799  -18.7318 O   0  0  0  0  0  0  0  0  0  0  0  0
   20.6326  -11.7531  -17.2778 N   0  0  0  0  0  0  0  0  0  0  0  0
   19.9245  -10.5474  -16.9843 C   0  0  1  0  0  0  0  0  0  0  0  0
   18.4811  -10.8382  -16.6862 C   0  0  0  0  0  0  0  0  0  0  0  0
   17.6048  -10.9444  -17.8942 C   0  0  0  0  0  0  0  0  0  0  0  0
   16.1924  -11.2107  -17.5592 C   0  0  0  0  0  0  0  0  0  0  0  0
   15.6030  -10.6345  -16.6234 O   0  0  0  0  0  0  0  0  0  0  0  0
   20.4619   -9.9079  -15.7206 C   0  0  0  0  0  0  0  0  0  0  0  0
   20.6380  -10.6654  -14.7386 O   0  0  0  0  0  0  0  0  0  0  0  0
   15.4885  -12.1447  -18.3199 O   0  0  0  0  0  0  0  0  0  0  0  0
   22.2266   -2.2812  -17.1608 O   0  0  0  0  0  0  0  0  0  0  0  0
   22.3165   -3.5369  -16.5832 C   0  0  0  0  0  0  0  0  0  0  0  0
   22.2754   -4.6915  -17.3556 C   0  0  0  0  0  0  0  0  0  0  0  0
   22.3636   -5.9459  -16.7928 C   0  0  0  0  0  0  0  0  0  0  0  0
   22.4963   -6.0874  -15.4332 C   0  0  0  0  0  0  0  0  0  0  0  0
   22.5970   -7.3474  -14.7191 C   0  0  0  0  0  0  0  0  0  0  0  0
   21.2907   -8.0143  -14.3798 C   0  0  2  0  0  0  0  0  0  0  0  0
   20.7574   -8.5433  -15.6219 N   0  0  0  0  0  0  0  0  0  0  0  0
   20.2755   -7.0488  -13.8467 C   0  0  0  0  0  0  0  0  0  0  0  0
   19.3543   -6.5712  -14.5653 O   0  0  0  0  0  0  0  0  0  0  0  0
   22.5351   -4.9190  -14.6776 C   0  0  0  0  0  0  0  0  0  0  0  0
   22.4488   -3.6719  -15.2240 C   0  0  0  0  0  0  0  0  0  0  0  0
   20.2911   -6.6216  -12.5184 O   0  0  0  0  0  0  0  0  0  0  0  0
  2  1  1  6
  3  2  1  0
  4  2  1  0
  5  4  2  0
  6  4  1  0
  7  6  1  0
  7  8  1  1
  9  8  1  0
 10  9  1  0
 10 11  2  0
 12 22  1  0
 12  7  1  0
 13 12  2  0
 14 10  1  0
 15 16  1  0
 16 17  2  0
 17 18  1  0
 19 20  1  0
 19 18  2  0
 21 20  1  6
 21 23  1  0
 21 22  1  0
 23 27  1  0
 24 23  2  0
 25 19  1  0
 26 25  2  0
 26 16  1  0
M  END
$$$$
