AEY.pdb
     RDKit          3D

 27 27  0  0  1  0  0  0  0  0999 V2000
   15.7207  -12.2229  -17.0746 C   0  0  0  0  0  0  0  0  0  0  0  0
   16.8950  -11.9304  -16.1934 C   0  0  2  0  0  0  0  0  0  0  0  0
   16.5231  -11.7556  -14.8122 N   0  0  0  0  0  0  0  0  0  0  0  0
   17.7406  -10.8031  -16.6803 C   0  0  0  0  0  0  0  0  0  0  0  0
   18.3077  -10.8760  -17.8015 O   0  0  0  0  0  0  0  0  0  0  0  0
   17.8771   -9.6733  -15.8487 N   0  0  0  0  0  0  0  0  0  0  0  0
   18.6652   -8.5600  -16.2741 C   0  0  1  0  0  0  0  0  0  0  0  0
   18.1939   -7.2937  -15.6174 C   0  0  0  0  0  0  0  0  0  0  0  0
   18.9280   -6.0613  -16.0425 C   0  0  0  0  0  0  0  0  0  0  0  0
   18.3856   -4.8301  -15.4358 C   0  0  0  0  0  0  0  0  0  0  0  0
   17.5902   -4.0793  -16.0345 O   0  0  0  0  0  0  0  0  0  0  0  0
   20.1023   -8.7210  -15.8230 C   0  0  0  0  0  0  0  0  0  0  0  0
   20.2894   -8.9062  -14.5982 O   0  0  0  0  0  0  0  0  0  0  0  0
   18.7788   -4.4928  -14.1403 O   0  0  0  0  0  0  0  0  0  0  0  0
   28.6009  -10.9622  -15.8957 O   0  0  0  0  0  0  0  0  0  0  0  0
   27.2949  -10.6422  -16.2284 C   0  0  0  0  0  0  0  0  0  0  0  0
   27.0064   -9.5918  -17.0916 C   0  0  0  0  0  0  0  0  0  0  0  0
   25.7118   -9.2637  -17.4298 C   0  0  0  0  0  0  0  0  0  0  0  0
   24.6587   -9.9783  -16.9137 C   0  0  0  0  0  0  0  0  0  0  0  0
   23.2543   -9.7336  -17.1883 C   0  0  0  0  0  0  0  0  0  0  0  0
   22.5340   -8.8637  -16.1930 C   0  0  2  0  0  0  0  0  0  0  0  0
   21.1890   -8.6711  -16.7037 N   0  0  0  0  0  0  0  0  0  0  0  0
   23.1509   -7.5032  -16.0684 C   0  0  0  0  0  0  0  0  0  0  0  0
   22.9164   -6.5766  -16.8928 O   0  0  0  0  0  0  0  0  0  0  0  0
   24.9688  -11.0258  -16.0511 C   0  0  0  0  0  0  0  0  0  0  0  0
   26.2467  -11.3598  -15.7093 C   0  0  0  0  0  0  0  0  0  0  0  0
   24.0234   -7.1822  -15.0279 O   0  0  0  0  0  0  0  0  0  0  0  0
  2  1  1  6
  3  2  1  0
  4  2  1  0
  5  4  2  0
  6  4  1  0
  7  6  1  0
  7  8  1  1
  9  8  1  0
 10  9  1  0
 10 11  2  0
 12 22  1  0
 12  7  1  0
 13 12  2  0
 14 10  1  0
 15 16  1  0
 16 17  2  0
 17 18  1  0
 19 20  1  0
 19 18  2  0
 21 20  1  6
 21 23  1  0
 21 22  1  0
 23 27  1  0
 24 23  2  0
 25 19  1  0
 26 25  2  0
 26 16  1  0
M  END
$$$$
