AEY.pdb
     RDKit          3D

 27 27  0  0  1  0  0  0  0  0999 V2000
   14.6368  -12.0702  -14.2058 C   0  0  0  0  0  0  0  0  0  0  0  0
   15.1056  -10.7053  -14.6038 C   0  0  2  0  0  0  0  0  0  0  0  0
   14.4336  -10.2075  -15.7772 N   0  0  0  0  0  0  0  0  0  0  0  0
   16.5870  -10.5972  -14.7330 C   0  0  0  0  0  0  0  0  0  0  0  0
   17.3335  -10.9774  -13.7938 O   0  0  0  0  0  0  0  0  0  0  0  0
   17.1079  -10.0609  -15.9279 N   0  0  0  0  0  0  0  0  0  0  0  0
   18.5154   -9.8613  -16.0714 C   0  0  1  0  0  0  0  0  0  0  0  0
   18.9882  -10.3546  -17.4092 C   0  0  0  0  0  0  0  0  0  0  0  0
   20.4488  -10.1560  -17.6655 C   0  0  0  0  0  0  0  0  0  0  0  0
   21.2667  -11.3169  -17.2637 C   0  0  0  0  0  0  0  0  0  0  0  0
   21.5947  -11.5310  -16.0798 O   0  0  0  0  0  0  0  0  0  0  0  0
   18.8477   -8.3834  -16.0616 C   0  0  0  0  0  0  0  0  0  0  0  0
   18.1270   -7.6407  -16.7674 O   0  0  0  0  0  0  0  0  0  0  0  0
   21.6900  -12.2105  -18.2480 O   0  0  0  0  0  0  0  0  0  0  0  0
   21.0601   -0.3096  -13.6284 O   0  0  0  0  0  0  0  0  0  0  0  0
   20.8558   -1.6761  -13.7259 C   0  0  0  0  0  0  0  0  0  0  0  0
   21.9125   -2.5730  -13.6243 C   0  0  0  0  0  0  0  0  0  0  0  0
   21.7221   -3.9342  -13.7199 C   0  0  0  0  0  0  0  0  0  0  0  0
   20.4634   -4.4452  -13.9210 C   0  0  0  0  0  0  0  0  0  0  0  0
   20.1306   -5.8532  -14.0408 C   0  0  0  0  0  0  0  0  0  0  0  0
   20.2082   -6.4289  -15.4296 C   0  0  2  0  0  0  0  0  0  0  0  0
   19.8995   -7.8425  -15.3131 N   0  0  0  0  0  0  0  0  0  0  0  0
   21.5849   -6.3310  -16.0146 C   0  0  0  0  0  0  0  0  0  0  0  0
   22.4428   -7.2471  -15.8809 O   0  0  0  0  0  0  0  0  0  0  0  0
   19.4190   -3.5303  -14.0203 C   0  0  0  0  0  0  0  0  0  0  0  0
   19.5956   -2.1807  -13.9271 C   0  0  0  0  0  0  0  0  0  0  0  0
   21.9977   -5.2161  -16.7450 O   0  0  0  0  0  0  0  0  0  0  0  0
  2  1  1  6
  3  2  1  0
  4  2  1  0
  5  4  2  0
  6  4  1  0
  7  6  1  0
  7  8  1  6
  9  8  1  0
 10  9  1  0
 10 11  2  0
 12 22  1  0
 12  7  1  0
 13 12  2  0
 14 10  1  0
 15 16  1  0
 16 17  2  0
 17 18  1  0
 19 20  1  0
 19 18  2  0
 21 20  1  1
 21 23  1  0
 21 22  1  0
 23 27  1  0
 24 23  2  0
 25 19  1  0
 26 25  2  0
 26 16  1  0
M  END
$$$$
