AEY.pdb
     RDKit          3D

 27 27  0  0  1  0  0  0  0  0999 V2000
   17.6308  -16.6501    3.0218 C   0  0  0  0  0  0  0  0  0  0  0  0
   16.6769  -17.3051    3.9717 C   0  0  2  0  0  0  0  0  0  0  0  0
   15.3216  -16.8456    3.8029 N   0  0  0  0  0  0  0  0  0  0  0  0
   17.1078  -17.2299    5.3970 C   0  0  0  0  0  0  0  0  0  0  0  0
   16.5699  -16.4023    6.1779 O   0  0  0  0  0  0  0  0  0  0  0  0
   18.1243  -18.1069    5.8264 N   0  0  0  0  0  0  0  0  0  0  0  0
   18.5132  -18.1368    7.2009 C   0  0  1  0  0  0  0  0  0  0  0  0
   18.7592  -19.5482    7.6529 C   0  0  0  0  0  0  0  0  0  0  0  0
   17.5196  -20.3348    7.9411 C   0  0  0  0  0  0  0  0  0  0  0  0
   17.8036  -21.7003    8.4235 C   0  0  0  0  0  0  0  0  0  0  0  0
   18.8790  -22.2864    8.1888 O   0  0  0  0  0  0  0  0  0  0  0  0
   19.8383  -17.4291    7.3953 C   0  0  0  0  0  0  0  0  0  0  0  0
   20.6728  -17.5339    6.4669 O   0  0  0  0  0  0  0  0  0  0  0  0
   16.8298  -22.3620    9.1721 O   0  0  0  0  0  0  0  0  0  0  0  0
   19.4265  -11.0636    5.0912 O   0  0  0  0  0  0  0  0  0  0  0  0
   19.8798  -11.9313    6.0711 C   0  0  0  0  0  0  0  0  0  0  0  0
   21.2360  -12.0697    6.3416 C   0  0  0  0  0  0  0  0  0  0  0  0
   21.6991  -12.9295    7.3133 C   0  0  0  0  0  0  0  0  0  0  0  0
   20.8175  -13.6824    8.0496 C   0  0  0  0  0  0  0  0  0  0  0  0
   21.1758  -14.6226    9.0960 C   0  0  0  0  0  0  0  0  0  0  0  0
   21.4391  -16.0348    8.6459 C   0  0  2  0  0  0  0  0  0  0  0  0
   20.1466  -16.6872    8.5415 N   0  0  0  0  0  0  0  0  0  0  0  0
   22.2406  -16.8147    9.6441 C   0  0  0  0  0  0  0  0  0  0  0  0
   23.4629  -16.5835    9.8584 O   0  0  0  0  0  0  0  0  0  0  0  0
   19.4640  -13.5294    7.7629 C   0  0  0  0  0  0  0  0  0  0  0  0
   18.9940  -12.6811    6.8033 C   0  0  0  0  0  0  0  0  0  0  0  0
   21.6776  -17.8453   10.3977 O   0  0  0  0  0  0  0  0  0  0  0  0
  2  1  1  6
  3  2  1  0
  4  2  1  0
  5  4  2  0
  6  4  1  0
  7  6  1  0
  7  8  1  6
  9  8  1  0
 10  9  1  0
 10 11  2  0
 12 22  1  0
 12  7  1  0
 13 12  2  0
 14 10  1  0
 15 16  1  0
 16 17  2  0
 17 18  1  0
 19 20  1  0
 19 18  2  0
 21 20  1  1
 21 23  1  0
 21 22  1  0
 23 27  1  0
 24 23  2  0
 25 19  1  0
 26 25  2  0
 26 16  1  0
M  END
$$$$
