AEY.pdb
     RDKit          3D

 27 27  0  0  1  0  0  0  0  0999 V2000
   43.1667  -16.5700   -9.5537 C   0  0  0  0  0  0  0  0  0  0  0  0
   44.3377  -16.3822   -8.6401 C   0  0  2  0  0  0  0  0  0  0  0  0
   44.6651  -17.5770   -7.9040 N   0  0  0  0  0  0  0  0  0  0  0  0
   44.2085  -15.2013   -7.7391 C   0  0  0  0  0  0  0  0  0  0  0  0
   43.7782  -15.3452   -6.5652 O   0  0  0  0  0  0  0  0  0  0  0  0
   44.5802  -13.9400   -8.2468 N   0  0  0  0  0  0  0  0  0  0  0  0
   44.5170  -12.7829   -7.4109 C   0  0  1  0  0  0  0  0  0  0  0  0
   45.7261  -11.9146   -7.6134 C   0  0  0  0  0  0  0  0  0  0  0  0
   45.8333  -10.7647   -6.6623 C   0  0  0  0  0  0  0  0  0  0  0  0
   47.0387   -9.9431   -6.8861 C   0  0  0  0  0  0  0  0  0  0  0  0
   48.1900  -10.3595   -6.6489 O   0  0  0  0  0  0  0  0  0  0  0  0
   43.3413  -11.9096   -7.7978 C   0  0  0  0  0  0  0  0  0  0  0  0
   43.1403  -11.7487   -9.0238 O   0  0  0  0  0  0  0  0  0  0  0  0
   46.8838   -8.6486   -7.3828 O   0  0  0  0  0  0  0  0  0  0  0  0
   35.7163   -7.4143   -6.9706 O   0  0  0  0  0  0  0  0  0  0  0  0
   36.9019   -8.0995   -6.7615 C   0  0  0  0  0  0  0  0  0  0  0  0
   38.1240   -7.4380   -6.7408 C   0  0  0  0  0  0  0  0  0  0  0  0
   39.3097   -8.1083   -6.5341 C   0  0  0  0  0  0  0  0  0  0  0  0
   39.3123   -9.4680   -6.3403 C   0  0  0  0  0  0  0  0  0  0  0  0
   40.4883  -10.2887   -6.1151 C   0  0  0  0  0  0  0  0  0  0  0  0
   41.3712  -10.5114   -7.3139 C   0  0  2  0  0  0  0  0  0  0  0  0
   42.5023  -11.2990   -6.8585 N   0  0  0  0  0  0  0  0  0  0  0  0
   41.9254   -9.2316   -7.8634 C   0  0  0  0  0  0  0  0  0  0  0  0
   42.9756   -8.6993   -7.4086 O   0  0  0  0  0  0  0  0  0  0  0  0
   38.0782  -10.1115   -6.3650 C   0  0  0  0  0  0  0  0  0  0  0  0
   36.8980   -9.4581   -6.5687 C   0  0  0  0  0  0  0  0  0  0  0  0
   41.3087   -8.5530   -8.9152 O   0  0  0  0  0  0  0  0  0  0  0  0
  2  1  1  1
  3  2  1  0
  4  2  1  0
  5  4  2  0
  6  4  1  0
  7  6  1  0
  7  8  1  6
  9  8  1  0
 10  9  1  0
 10 11  2  0
 12 22  1  0
 12  7  1  0
 13 12  2  0
 14 10  1  0
 15 16  1  0
 16 17  2  0
 17 18  1  0
 19 20  1  0
 19 18  2  0
 21 20  1  1
 21 23  1  0
 21 22  1  0
 23 27  1  0
 24 23  2  0
 25 19  1  0
 26 25  2  0
 26 16  1  0
M  END
$$$$
