AEY.pdb
     RDKit          3D

 27 27  0  0  1  0  0  0  0  0999 V2000
   23.5361  -13.1058  -19.0824 C   0  0  0  0  0  0  0  0  0  0  0  0
   23.1142  -12.6987  -17.7049 C   0  0  2  0  0  0  0  0  0  0  0  0
   22.1869  -13.6280  -17.1107 N   0  0  0  0  0  0  0  0  0  0  0  0
   22.6132  -11.2968  -17.6240 C   0  0  0  0  0  0  0  0  0  0  0  0
   23.3333  -10.3437  -18.0200 O   0  0  0  0  0  0  0  0  0  0  0  0
   21.3239  -11.0862  -17.0947 N   0  0  0  0  0  0  0  0  0  0  0  0
   20.7880   -9.7641  -17.0148 C   0  0  1  0  0  0  0  0  0  0  0  0
   19.3801   -9.7291  -17.5378 C   0  0  0  0  0  0  0  0  0  0  0  0
   18.4422  -10.6813  -16.8654 C   0  0  0  0  0  0  0  0  0  0  0  0
   17.0793  -10.1359  -16.7136 C   0  0  0  0  0  0  0  0  0  0  0  0
   16.7725   -9.3346  -15.8087 O   0  0  0  0  0  0  0  0  0  0  0  0
   20.6781   -9.3201  -15.5707 C   0  0  0  0  0  0  0  0  0  0  0  0
   20.3176  -10.1875  -14.7420 O   0  0  0  0  0  0  0  0  0  0  0  0
   16.0946  -10.5330  -17.6187 O   0  0  0  0  0  0  0  0  0  0  0  0
   23.0048   -1.9432  -15.7776 O   0  0  0  0  0  0  0  0  0  0  0  0
   22.7915   -3.1733  -15.1777 C   0  0  0  0  0  0  0  0  0  0  0  0
   21.9938   -3.2961  -14.0463 C   0  0  0  0  0  0  0  0  0  0  0  0
   21.7744   -4.5139  -13.4405 C   0  0  0  0  0  0  0  0  0  0  0  0
   22.3479   -5.6537  -13.9485 C   0  0  0  0  0  0  0  0  0  0  0  0
   22.1977   -6.9914  -13.4050 C   0  0  0  0  0  0  0  0  0  0  0  0
   20.9069   -7.6919  -13.7358 C   0  0  2  0  0  0  0  0  0  0  0  0
   20.9581   -8.0148  -15.1501 N   0  0  0  0  0  0  0  0  0  0  0  0
   19.7095   -6.8130  -13.5334 C   0  0  0  0  0  0  0  0  0  0  0  0
   19.0520   -6.3336  -14.4982 O   0  0  0  0  0  0  0  0  0  0  0  0
   23.1434   -5.5091  -15.0817 C   0  0  0  0  0  0  0  0  0  0  0  0
   23.3675   -4.3087  -15.6899 C   0  0  0  0  0  0  0  0  0  0  0  0
   19.2511   -6.4740  -12.2598 O   0  0  0  0  0  0  0  0  0  0  0  0
  2  1  1  6
  3  2  1  0
  4  2  1  0
  5  4  2  0
  6  4  1  0
  7  6  1  0
  7  8  1  1
  9  8  1  0
 10  9  1  0
 10 11  2  0
 12 22  1  0
 12  7  1  0
 13 12  2  0
 14 10  1  0
 15 16  1  0
 16 17  2  0
 17 18  1  0
 19 20  1  0
 19 18  2  0
 21 20  1  6
 21 23  1  0
 21 22  1  0
 23 27  1  0
 24 23  2  0
 25 19  1  0
 26 25  2  0
 26 16  1  0
M  END
$$$$
