AEY.pdb
     RDKit          3D

 27 27  0  0  1  0  0  0  0  0999 V2000
   30.4752  -22.9237  -19.4415 C   0  0  0  0  0  0  0  0  0  0  0  0
   29.7687  -23.1334  -18.1384 C   0  0  2  0  0  0  0  0  0  0  0  0
   29.1652  -24.4380  -18.0375 N   0  0  0  0  0  0  0  0  0  0  0  0
   28.7971  -22.0526  -17.8056 C   0  0  0  0  0  0  0  0  0  0  0  0
   29.1570  -20.8470  -17.8356 O   0  0  0  0  0  0  0  0  0  0  0  0
   27.4832  -22.4293  -17.4615 N   0  0  0  0  0  0  0  0  0  0  0  0
   26.5334  -21.4387  -17.0640 C   0  0  1  0  0  0  0  0  0  0  0  0
   25.3434  -21.4455  -17.9810 C   0  0  0  0  0  0  0  0  0  0  0  0
   25.5929  -20.8472  -19.3294 C   0  0  0  0  0  0  0  0  0  0  0  0
   25.0249  -19.4926  -19.4720 C   0  0  0  0  0  0  0  0  0  0  0  0
   24.2540  -18.9942  -18.6280 O   0  0  0  0  0  0  0  0  0  0  0  0
   25.9712  -21.7586  -15.6942 C   0  0  0  0  0  0  0  0  0  0  0  0
   25.5402  -22.9221  -15.5215 O   0  0  0  0  0  0  0  0  0  0  0  0
   25.3642  -18.7394  -20.5964 O   0  0  0  0  0  0  0  0  0  0  0  0
   24.3886  -20.8539   -6.9710 O   0  0  0  0  0  0  0  0  0  0  0  0
   24.7721  -20.7218   -8.2955 C   0  0  0  0  0  0  0  0  0  0  0  0
   23.8447  -20.4371   -9.2906 C   0  0  0  0  0  0  0  0  0  0  0  0
   24.2137  -20.3037  -10.6112 C   0  0  0  0  0  0  0  0  0  0  0  0
   25.5280  -20.4513  -10.9816 C   0  0  0  0  0  0  0  0  0  0  0  0
   26.0442  -20.3378  -12.3337 C   0  0  0  0  0  0  0  0  0  0  0  0
   25.3882  -21.2206  -13.3616 C   0  0  2  0  0  0  0  0  0  0  0  0
   25.9214  -20.8251  -14.6525 N   0  0  0  0  0  0  0  0  0  0  0  0
   23.9038  -21.0217  -13.4247 C   0  0  0  0  0  0  0  0  0  0  0  0
   23.3744  -20.0897  -14.0913 O   0  0  0  0  0  0  0  0  0  0  0  0
   26.4408  -20.7364   -9.9701 C   0  0  0  0  0  0  0  0  0  0  0  0
   26.0868  -20.8706   -8.6594 C   0  0  0  0  0  0  0  0  0  0  0  0
   23.0184  -21.8606  -12.7471 O   0  0  0  0  0  0  0  0  0  0  0  0
  2  1  1  6
  3  2  1  0
  4  2  1  0
  5  4  2  0
  6  4  1  0
  7  6  1  0
  7  8  1  6
  9  8  1  0
 10  9  1  0
 10 11  2  0
 12 22  1  0
 12  7  1  0
 13 12  2  0
 14 10  1  0
 15 16  1  0
 16 17  2  0
 17 18  1  0
 19 20  1  0
 19 18  2  0
 21 20  1  1
 21 23  1  0
 21 22  1  0
 23 27  1  0
 24 23  2  0
 25 19  1  0
 26 25  2  0
 26 16  1  0
M  END
$$$$
