TYY.pdb
     RDKit          3D

 32 33  0  0  1  0  0  0  0  0999 V2000
   27.5626  -12.6016  -19.1112 C   0  0  0  0  0  0  0  0  0  0  0  0
   26.7055  -11.4406  -18.6497 C   0  0  1  0  0  0  0  0  0  0  0  0
   25.5578  -11.9679  -18.0596 O   0  0  0  0  0  0  0  0  0  0  0  0
   27.5226  -10.6419  -17.6695 C   0  0  2  0  0  0  0  0  0  0  0  0
   27.9899  -11.4974  -16.6223 N   0  0  0  0  0  0  0  0  0  0  0  0
   26.8438   -9.4367  -17.1768 C   0  0  0  0  0  0  0  0  0  0  0  0
   26.5024   -9.4214  -15.9556 O   0  0  0  0  0  0  0  0  0  0  0  0
   23.3481   -1.2436  -16.7500 O   0  0  0  0  0  0  0  0  0  0  0  0
   23.9783   -2.4278  -17.1680 C   0  0  0  0  0  0  0  0  0  0  0  0
   25.2861   -2.6849  -16.8357 C   0  0  0  0  0  0  0  0  0  0  0  0
   25.9015   -3.8653  -17.2570 C   0  0  0  0  0  0  0  0  0  0  0  0
   25.2097   -4.7876  -18.0096 C   0  0  0  0  0  0  0  0  0  0  0  0
   25.8626   -6.0227  -18.4432 C   0  0  0  0  0  0  0  0  0  0  0  0
   25.8250   -7.1452  -17.4266 C   0  0  2  0  0  0  0  0  0  0  0  0
   26.5406   -8.2999  -17.9428 N   0  0  0  0  0  0  0  0  0  0  0  0
   24.4262   -7.4478  -17.1063 C   0  0  0  0  0  0  0  0  0  0  0  0
   23.7424   -8.0591  -17.9669 O   0  0  0  0  0  0  0  0  0  0  0  0
   23.9009   -4.4970  -18.3240 C   0  0  0  0  0  0  0  0  0  0  0  0
   23.2898   -3.3365  -17.9121 C   0  0  0  0  0  0  0  0  0  0  0  0
   16.9067   -9.9346  -13.4576 O   0  0  0  0  0  0  0  0  0  0  0  0
   18.2267   -9.5948  -13.7344 C   0  0  0  0  0  0  0  0  0  0  0  0
   18.9955   -8.9211  -12.8376 C   0  0  0  0  0  0  0  0  0  0  0  0
   20.3162   -8.5957  -13.1471 C   0  0  0  0  0  0  0  0  0  0  0  0
   20.8733   -8.9452  -14.3595 C   0  0  0  0  0  0  0  0  0  0  0  0
   22.2595   -8.6391  -14.7551 C   0  0  0  0  0  0  0  0  0  0  0  0
   22.3948   -7.3989  -15.5954 C   0  0  2  0  0  0  0  0  0  0  0  0
   23.7853   -7.1021  -15.8962 N   0  0  0  0  0  0  0  0  0  0  0  0
   21.8585   -6.2526  -14.8220 C   0  0  0  0  0  0  0  0  0  0  0  0
   22.6770   -5.4532  -14.0069 O   0  0  0  0  0  0  0  0  0  0  0  0
   20.0760   -9.6304  -15.2596 C   0  0  0  0  0  0  0  0  0  0  0  0
   18.7826   -9.9398  -14.9362 C   0  0  0  0  0  0  0  0  0  0  0  0
   20.6380   -5.9135  -14.8387 O   0  0  0  0  0  0  0  0  0  0  0  0
  2  3  1  0
  2  1  1  1
  4  5  1  1
  4  2  1  0
  6  4  1  0
  7  6  2  0
  9 10  2  0
  9  8  1  0
 11 10  1  0
 12 11  2  0
 13 12  1  0
 14 13  1  6
 14 16  1  0
 14 15  1  0
 15  6  1  0
 16 17  2  0
 18 12  1  0
 18 19  2  0
 19  9  1  0
 21 22  2  0
 21 20  1  0
 23 22  1  0
 24 23  2  0
 26 25  1  1
 25 24  1  0
 27 26  1  0
 27 16  1  0
 28 29  1  0
 28 26  1  0
 30 24  1  0
 30 31  2  0
 31 21  1  0
 32 28  2  0
M  END
$$$$
