TYY.pdb
     RDKit          3D

 32 33  0  0  1  0  0  0  0  0999 V2000
   30.8393  -32.9400  -16.0950 C   0  0  0  0  0  0  0  0  0  0  0  0
   29.9935  -33.0407  -17.3479 C   0  0  1  0  0  0  0  0  0  0  0  0
   29.4167  -34.3097  -17.3705 O   0  0  0  0  0  0  0  0  0  0  0  0
   28.9538  -31.9544  -17.2754 C   0  0  2  0  0  0  0  0  0  0  0  0
   29.5885  -30.6744  -17.3501 N   0  0  0  0  0  0  0  0  0  0  0  0
   28.0401  -32.0849  -16.1333 C   0  0  0  0  0  0  0  0  0  0  0  0
   28.3288  -31.4366  -15.0824 O   0  0  0  0  0  0  0  0  0  0  0  0
   20.7416  -32.9002  -11.2329 O   0  0  0  0  0  0  0  0  0  0  0  0
   21.6867  -32.9180  -12.2723 C   0  0  0  0  0  0  0  0  0  0  0  0
   22.2417  -31.7518  -12.7400 C   0  0  0  0  0  0  0  0  0  0  0  0
   23.1801  -31.7824  -13.7735 C   0  0  0  0  0  0  0  0  0  0  0  0
   23.5630  -32.9782  -14.3386 C   0  0  0  0  0  0  0  0  0  0  0  0
   24.5492  -32.9998  -15.4187 C   0  0  0  0  0  0  0  0  0  0  0  0
   25.9911  -32.9600  -14.9557 C   0  0  2  0  0  0  0  0  0  0  0  0
   26.8742  -32.8665  -16.1060 N   0  0  0  0  0  0  0  0  0  0  0  0
   26.2587  -34.1467  -14.1365 C   0  0  0  0  0  0  0  0  0  0  0  0
   26.4325  -35.2440  -14.7259 O   0  0  0  0  0  0  0  0  0  0  0  0
   22.9862  -34.1271  -13.8450 C   0  0  0  0  0  0  0  0  0  0  0  0
   22.0618  -34.1031  -12.8278 C   0  0  0  0  0  0  0  0  0  0  0  0
   23.3985  -32.0842   -7.5069 O   0  0  0  0  0  0  0  0  0  0  0  0
   24.3636  -32.7377   -8.2657 C   0  0  0  0  0  0  0  0  0  0  0  0
   25.4569  -32.0877   -8.7468 C   0  0  0  0  0  0  0  0  0  0  0  0
   26.4062  -32.7732   -9.5049 C   0  0  0  0  0  0  0  0  0  0  0  0
   26.2636  -34.1163   -9.7845 C   0  0  0  0  0  0  0  0  0  0  0  0
   27.2247  -34.9063  -10.5744 C   0  0  0  0  0  0  0  0  0  0  0  0
   26.7160  -35.3061  -11.9323 C   0  0  2  0  0  0  0  0  0  0  0  0
   26.3363  -34.1497  -12.7264 N   0  0  0  0  0  0  0  0  0  0  0  0
   25.4976  -36.1314  -11.7479 C   0  0  0  0  0  0  0  0  0  0  0  0
   24.2216  -35.6714  -12.1128 O   0  0  0  0  0  0  0  0  0  0  0  0
   25.1448  -34.7613   -9.2867 C   0  0  0  0  0  0  0  0  0  0  0  0
   24.2253  -34.0701   -8.5452 C   0  0  0  0  0  0  0  0  0  0  0  0
   25.5169  -37.2978  -11.2538 O   0  0  0  0  0  0  0  0  0  0  0  0
  2  3  1  0
  2  1  1  1
  4  5  1  1
  4  2  1  0
  6  4  1  0
  7  6  2  0
  9 10  2  0
  9  8  1  0
 11 10  1  0
 12 11  2  0
 13 12  1  0
 14 13  1  6
 14 16  1  0
 14 15  1  0
 15  6  1  0
 16 17  2  0
 18 12  1  0
 18 19  2  0
 19  9  1  0
 21 22  2  0
 21 20  1  0
 23 22  1  0
 24 23  2  0
 26 25  1  1
 25 24  1  0
 27 26  1  0
 27 16  1  0
 28 29  1  0
 28 26  1  0
 30 24  1  0
 30 31  2  0
 31 21  1  0
 32 28  2  0
M  END
$$$$
