TYY.pdb
     RDKit          3D

 32 33  0  0  1  0  0  0  0  0999 V2000
   20.8051  -10.9258  -21.1713 C   0  0  0  0  0  0  0  0  0  0  0  0
   20.2952  -12.2212  -20.5735 C   0  0  1  0  0  0  0  0  0  0  0  0
   20.4686  -13.2255  -21.5247 O   0  0  0  0  0  0  0  0  0  0  0  0
   21.0971  -12.4860  -19.3272 C   0  0  2  0  0  0  0  0  0  0  0  0
   20.8490  -13.8183  -18.8689 N   0  0  0  0  0  0  0  0  0  0  0  0
   20.9205  -11.4691  -18.2827 C   0  0  0  0  0  0  0  0  0  0  0  0
   19.7703  -11.3699  -17.7582 O   0  0  0  0  0  0  0  0  0  0  0  0
   22.3857   -4.6235  -12.7652 O   0  0  0  0  0  0  0  0  0  0  0  0
   22.5218   -5.7257  -13.6258 C   0  0  0  0  0  0  0  0  0  0  0  0
   22.1957   -6.9922  -13.2055 C   0  0  0  0  0  0  0  0  0  0  0  0
   22.3353   -8.0797  -14.0700 C   0  0  0  0  0  0  0  0  0  0  0  0
   22.8004   -7.9008  -15.3535 C   0  0  0  0  0  0  0  0  0  0  0  0
   22.9400   -9.0462  -16.2525 C   0  0  0  0  0  0  0  0  0  0  0  0
   21.6565   -9.4695  -16.9370 C   0  0  2  0  0  0  0  0  0  0  0  0
   21.9170  -10.5974  -17.8155 N   0  0  0  0  0  0  0  0  0  0  0  0
   21.0986   -8.3170  -17.6523 C   0  0  0  0  0  0  0  0  0  0  0  0
   21.6585   -7.9569  -18.7194 O   0  0  0  0  0  0  0  0  0  0  0  0
   23.1176   -6.6178  -15.7408 C   0  0  0  0  0  0  0  0  0  0  0  0
   22.9822   -5.5434  -14.8940 C   0  0  0  0  0  0  0  0  0  0  0  0
   16.1902   -1.9125  -21.0702 O   0  0  0  0  0  0  0  0  0  0  0  0
   16.6317   -3.0405  -20.3867 C   0  0  0  0  0  0  0  0  0  0  0  0
   16.0833   -3.4195  -19.2015 C   0  0  0  0  0  0  0  0  0  0  0  0
   16.5498   -4.5566  -18.5418 C   0  0  0  0  0  0  0  0  0  0  0  0
   17.5702   -5.3206  -19.0687 C   0  0  0  0  0  0  0  0  0  0  0  0
   18.1124   -6.5341  -18.4320 C   0  0  0  0  0  0  0  0  0  0  0  0
   19.5015   -6.3654  -17.8805 C   0  0  2  0  0  0  0  0  0  0  0  0
   19.9727   -7.5765  -17.2299 N   0  0  0  0  0  0  0  0  0  0  0  0
   19.4664   -5.2988  -16.8504 C   0  0  0  0  0  0  0  0  0  0  0  0
   19.4955   -5.5868  -15.4759 O   0  0  0  0  0  0  0  0  0  0  0  0
   18.1161   -4.9197  -20.2756 C   0  0  0  0  0  0  0  0  0  0  0  0
   17.6439   -3.8007  -20.9064 C   0  0  0  0  0  0  0  0  0  0  0  0
   19.4083   -4.0646  -17.1302 O   0  0  0  0  0  0  0  0  0  0  0  0
  2  3  1  0
  2  1  1  6
  4  5  1  1
  4  2  1  0
  6  4  1  0
  7  6  2  0
  9 10  2  0
  9  8  1  0
 11 10  1  0
 12 11  2  0
 13 12  1  0
 14 13  1  6
 14 16  1  0
 14 15  1  0
 15  6  1  0
 16 17  2  0
 18 12  1  0
 18 19  2  0
 19  9  1  0
 21 22  2  0
 21 20  1  0
 23 22  1  0
 24 23  2  0
 26 25  1  1
 25 24  1  0
 27 26  1  0
 27 16  1  0
 28 29  1  0
 28 26  1  0
 30 24  1  0
 30 31  2  0
 31 21  1  0
 32 28  2  0
M  END
$$$$
