TYY.pdb
     RDKit          3D

 32 33  0  0  1  0  0  0  0  0999 V2000
   19.6488  -34.1718  -14.7317 C   0  0  0  0  0  0  0  0  0  0  0  0
   20.9393  -33.7912  -14.0352 C   0  0  1  0  0  0  0  0  0  0  0  0
   21.9920  -34.3600  -14.7505 O   0  0  0  0  0  0  0  0  0  0  0  0
   21.0169  -32.2878  -14.0254 C   0  0  2  0  0  0  0  0  0  0  0  0
   21.4525  -31.8196  -15.3051 N   0  0  0  0  0  0  0  0  0  0  0  0
   21.8000  -31.7429  -12.9091 C   0  0  0  0  0  0  0  0  0  0  0  0
   22.6384  -30.8307  -13.1794 O   0  0  0  0  0  0  0  0  0  0  0  0
   18.8589  -26.2066  -11.7527 O   0  0  0  0  0  0  0  0  0  0  0  0
   19.4615  -27.3551  -11.2123 C   0  0  0  0  0  0  0  0  0  0  0  0
   18.8084  -28.5635  -11.2206 C   0  0  0  0  0  0  0  0  0  0  0  0
   19.4176  -29.6978  -10.6806 C   0  0  0  0  0  0  0  0  0  0  0  0
   20.6787  -29.6238  -10.1330 C   0  0  0  0  0  0  0  0  0  0  0  0
   21.3095  -30.8187   -9.5727 C   0  0  0  0  0  0  0  0  0  0  0  0
   22.3519  -31.4584  -10.4667 C   0  0  2  0  0  0  0  0  0  0  0  0
   21.6994  -32.1461  -11.5681 N   0  0  0  0  0  0  0  0  0  0  0  0
   23.1839  -32.3553   -9.6578 C   0  0  0  0  0  0  0  0  0  0  0  0
   22.8771  -33.5746   -9.6237 O   0  0  0  0  0  0  0  0  0  0  0  0
   21.3035  -28.3966  -10.1418 C   0  0  0  0  0  0  0  0  0  0  0  0
   20.7086  -27.2764  -10.6719 C   0  0  0  0  0  0  0  0  0  0  0  0
   29.4842  -35.4001   -4.1375 O   0  0  0  0  0  0  0  0  0  0  0  0
   28.7049  -34.6041   -4.9703 C   0  0  0  0  0  0  0  0  0  0  0  0
   28.9326  -34.5310   -6.3089 C   0  0  0  0  0  0  0  0  0  0  0  0
   28.1320  -33.7225   -7.1159 C   0  0  0  0  0  0  0  0  0  0  0  0
   27.0973  -32.9822   -6.5833 C   0  0  0  0  0  0  0  0  0  0  0  0
   26.2091  -32.1099   -7.3720 C   0  0  0  0  0  0  0  0  0  0  0  0
   25.1190  -32.8470   -8.1004 C   0  0  2  0  0  0  0  0  0  0  0  0
   24.3110  -31.9501   -8.9095 N   0  0  0  0  0  0  0  0  0  0  0  0
   24.2194  -33.4604   -7.0933 C   0  0  0  0  0  0  0  0  0  0  0  0
   23.1370  -32.7612   -6.5343 O   0  0  0  0  0  0  0  0  0  0  0  0
   26.8804  -33.0689   -5.2192 C   0  0  0  0  0  0  0  0  0  0  0  0
   27.6776  -33.8682   -4.4454 C   0  0  0  0  0  0  0  0  0  0  0  0
   24.3587  -34.6455   -6.6677 O   0  0  0  0  0  0  0  0  0  0  0  0
  2  3  1  0
  2  1  1  6
  4  5  1  6
  4  2  1  0
  6  4  1  0
  7  6  2  0
  9 10  2  0
  9  8  1  0
 11 10  1  0
 12 11  2  0
 13 12  1  0
 14 13  1  1
 14 16  1  0
 14 15  1  0
 15  6  1  0
 16 17  2  0
 18 12  1  0
 18 19  2  0
 19  9  1  0
 21 22  2  0
 21 20  1  0
 23 22  1  0
 24 23  2  0
 26 25  1  1
 25 24  1  0
 27 26  1  0
 27 16  1  0
 28 29  1  0
 28 26  1  0
 30 24  1  0
 30 31  2  0
 31 21  1  0
 32 28  2  0
M  END
$$$$
