TYY.pdb
     RDKit          3D

 32 33  0  0  1  0  0  0  0  0999 V2000
   43.4266   -4.1271   -5.3465 C   0  0  0  0  0  0  0  0  0  0  0  0
   41.9535   -4.0447   -5.6908 C   0  0  1  0  0  0  0  0  0  0  0  0
   41.5602   -5.2907   -6.1766 O   0  0  0  0  0  0  0  0  0  0  0  0
   41.2181   -3.6779   -4.4295 C   0  0  2  0  0  0  0  0  0  0  0  0
   41.4863   -4.6508   -3.4154 N   0  0  0  0  0  0  0  0  0  0  0  0
   39.7853   -3.4278   -4.6313 C   0  0  0  0  0  0  0  0  0  0  0  0
   39.0127   -4.4332   -4.6138 O   0  0  0  0  0  0  0  0  0  0  0  0
   37.8058   -2.0469    1.5096 O   0  0  0  0  0  0  0  0  0  0  0  0
   37.6894   -1.7483    0.1416 C   0  0  0  0  0  0  0  0  0  0  0  0
   36.6126   -2.1913   -0.5870 C   0  0  0  0  0  0  0  0  0  0  0  0
   36.5081   -1.8880   -1.9459 C   0  0  0  0  0  0  0  0  0  0  0  0
   37.4795   -1.1425   -2.5754 C   0  0  0  0  0  0  0  0  0  0  0  0
   37.3591   -0.8275   -3.9988 C   0  0  0  0  0  0  0  0  0  0  0  0
   37.7640   -1.9525   -4.9291 C   0  0  2  0  0  0  0  0  0  0  0  0
   39.1981   -2.1700   -4.8420 N   0  0  0  0  0  0  0  0  0  0  0  0
   37.3270   -1.6227   -6.2897 C   0  0  0  0  0  0  0  0  0  0  0  0
   38.1561   -1.0727   -7.0591 O   0  0  0  0  0  0  0  0  0  0  0  0
   38.5446   -0.7153   -1.8143 C   0  0  0  0  0  0  0  0  0  0  0  0
   38.6529   -1.0108   -0.4761 C   0  0  0  0  0  0  0  0  0  0  0  0
   38.0476   -7.2684   -9.9372 O   0  0  0  0  0  0  0  0  0  0  0  0
   37.2552   -6.1737   -9.6085 C   0  0  0  0  0  0  0  0  0  0  0  0
   36.6363   -6.0747   -8.4017 C   0  0  0  0  0  0  0  0  0  0  0  0
   35.8483   -4.9629   -8.1040 C   0  0  0  0  0  0  0  0  0  0  0  0
   35.6768   -3.9431   -9.0167 C   0  0  0  0  0  0  0  0  0  0  0  0
   34.8634   -2.7387   -8.7726 C   0  0  0  0  0  0  0  0  0  0  0  0
   35.6322   -1.5945   -8.1708 C   0  0  2  0  0  0  0  0  0  0  0  0
   36.0368   -1.8781   -6.8041 N   0  0  0  0  0  0  0  0  0  0  0  0
   34.7429   -0.4083   -8.1284 C   0  0  0  0  0  0  0  0  0  0  0  0
   34.3144    0.2460   -9.2951 O   0  0  0  0  0  0  0  0  0  0  0  0
   36.3141   -4.0610  -10.2396 C   0  0  0  0  0  0  0  0  0  0  0  0
   37.0828   -5.1602  -10.5116 C   0  0  0  0  0  0  0  0  0  0  0  0
   34.3092    0.0966   -7.0504 O   0  0  0  0  0  0  0  0  0  0  0  0
  2  3  1  0
  2  1  1  1
  4  5  1  1
  4  2  1  0
  6  4  1  0
  7  6  2  0
  9 10  2  0
  9  8  1  0
 11 10  1  0
 12 11  2  0
 13 12  1  0
 14 13  1  1
 14 16  1  0
 14 15  1  0
 15  6  1  0
 16 17  2  0
 18 12  1  0
 18 19  2  0
 19  9  1  0
 21 22  2  0
 21 20  1  0
 23 22  1  0
 24 23  2  0
 26 25  1  1
 25 24  1  0
 27 26  1  0
 27 16  1  0
 28 29  1  0
 28 26  1  0
 30 24  1  0
 30 31  2  0
 31 21  1  0
 32 28  2  0
M  END
$$$$
