TYY.pdb
     RDKit          3D

 32 33  0  0  1  0  0  0  0  0999 V2000
   22.4951  -32.3761   -7.1322 C   0  0  0  0  0  0  0  0  0  0  0  0
   23.2630  -33.4076   -7.9333 C   0  0  1  0  0  0  0  0  0  0  0  0
   23.1424  -33.0744   -9.2816 O   0  0  0  0  0  0  0  0  0  0  0  0
   24.6948  -33.3595   -7.4707 C   0  0  2  0  0  0  0  0  0  0  0  0
   25.5074  -34.1589   -8.3352 N   0  0  0  0  0  0  0  0  0  0  0  0
   24.8682  -33.6804   -6.0483 C   0  0  0  0  0  0  0  0  0  0  0  0
   24.8021  -34.9027   -5.7171 O   0  0  0  0  0  0  0  0  0  0  0  0
   30.8598  -36.3259   -3.5050 O   0  0  0  0  0  0  0  0  0  0  0  0
   29.8095  -35.3966   -3.4196 C   0  0  0  0  0  0  0  0  0  0  0  0
   29.5399  -34.5404   -4.4593 C   0  0  0  0  0  0  0  0  0  0  0  0
   28.4934  -33.6212   -4.3625 C   0  0  0  0  0  0  0  0  0  0  0  0
   27.7171  -33.5585   -3.2271 C   0  0  0  0  0  0  0  0  0  0  0  0
   26.6210  -32.5941   -3.1369 C   0  0  0  0  0  0  0  0  0  0  0  0
   25.2849  -33.1116   -3.6288 C   0  0  2  0  0  0  0  0  0  0  0  0
   25.1009  -32.7490   -5.0240 N   0  0  0  0  0  0  0  0  0  0  0  0
   24.2244  -32.5814   -2.7656 C   0  0  0  0  0  0  0  0  0  0  0  0
   23.8944  -31.3762   -2.9082 O   0  0  0  0  0  0  0  0  0  0  0  0
   28.0159  -34.4315   -2.2048 C   0  0  0  0  0  0  0  0  0  0  0  0
   29.0450  -35.3385   -2.2945 C   0  0  0  0  0  0  0  0  0  0  0  0
   19.8638  -38.5446   -1.8850 O   0  0  0  0  0  0  0  0  0  0  0  0
   20.1796  -37.1911   -1.8350 C   0  0  0  0  0  0  0  0  0  0  0  0
   20.4441  -36.4758   -2.9609 C   0  0  0  0  0  0  0  0  0  0  0  0
   20.7575  -35.1192   -2.8754 C   0  0  0  0  0  0  0  0  0  0  0  0
   20.8071  -34.4722   -1.6583 C   0  0  0  0  0  0  0  0  0  0  0  0
   21.1274  -33.0436   -1.4901 C   0  0  0  0  0  0  0  0  0  0  0  0
   22.4977  -32.7876   -0.9250 C   0  0  2  0  0  0  0  0  0  0  0  0
   23.5415  -33.3275   -1.7800 N   0  0  0  0  0  0  0  0  0  0  0  0
   22.5983  -33.4808    0.3823 C   0  0  0  0  0  0  0  0  0  0  0  0
   23.5106  -34.5253    0.6054 O   0  0  0  0  0  0  0  0  0  0  0  0
   20.5351  -35.2160   -0.5234 C   0  0  0  0  0  0  0  0  0  0  0  0
   20.2298  -36.5459   -0.6293 C   0  0  0  0  0  0  0  0  0  0  0  0
   21.8782  -33.1862    1.3821 O   0  0  0  0  0  0  0  0  0  0  0  0
  2  3  1  0
  2  1  1  1
  4  5  1  6
  4  2  1  0
  6  4  1  0
  7  6  2  0
  9 10  2  0
  9  8  1  0
 11 10  1  0
 12 11  2  0
 13 12  1  0
 14 13  1  1
 14 16  1  0
 14 15  1  0
 15  6  1  0
 16 17  2  0
 18 12  1  0
 18 19  2  0
 19  9  1  0
 21 22  2  0
 21 20  1  0
 23 22  1  0
 24 23  2  0
 26 25  1  6
 25 24  1  0
 27 26  1  0
 27 16  1  0
 28 29  1  0
 28 26  1  0
 30 24  1  0
 30 31  2  0
 31 21  1  0
 32 28  2  0
M  END
$$$$
