TYY.pdb
     RDKit          3D

 32 33  0  0  1  0  0  0  0  0999 V2000
   25.5552    4.7323  -12.4693 C   0  0  0  0  0  0  0  0  0  0  0  0
   24.0687    4.9779  -12.6294 C   0  0  1  0  0  0  0  0  0  0  0  0
   23.7852    4.9941  -13.9942 O   0  0  0  0  0  0  0  0  0  0  0  0
   23.3508    3.8599  -11.9216 C   0  0  2  0  0  0  0  0  0  0  0  0
   21.9419    3.9769  -12.1414 N   0  0  0  0  0  0  0  0  0  0  0  0
   23.7096    3.7303  -10.5036 C   0  0  0  0  0  0  0  0  0  0  0  0
   23.2250    4.5851   -9.7021 O   0  0  0  0  0  0  0  0  0  0  0  0
   26.7899    0.6845   -2.7349 O   0  0  0  0  0  0  0  0  0  0  0  0
   26.4048    0.8326   -4.0780 C   0  0  0  0  0  0  0  0  0  0  0  0
   27.3219    0.7028   -5.0923 C   0  0  0  0  0  0  0  0  0  0  0  0
   26.9270    0.8522   -6.4232 C   0  0  0  0  0  0  0  0  0  0  0  0
   25.6162    1.1310   -6.7393 C   0  0  0  0  0  0  0  0  0  0  0  0
   25.2121    1.2825   -8.1370 C   0  0  0  0  0  0  0  0  0  0  0  0
   24.9646    2.7131   -8.5694 C   0  0  2  0  0  0  0  0  0  0  0  0
   24.5436    2.7404   -9.9600 N   0  0  0  0  0  0  0  0  0  0  0  0
   26.1823    3.4963   -8.3353 C   0  0  0  0  0  0  0  0  0  0  0  0
   27.1321    3.3686   -9.1498 O   0  0  0  0  0  0  0  0  0  0  0  0
   24.7243    1.2544   -5.6974 C   0  0  0  0  0  0  0  0  0  0  0  0
   25.1074    1.1084   -4.3852 C   0  0  0  0  0  0  0  0  0  0  0  0
   26.9870    9.0008  -12.1042 O   0  0  0  0  0  0  0  0  0  0  0  0
   27.0264    8.4107  -10.8454 C   0  0  0  0  0  0  0  0  0  0  0  0
   25.8977    7.9790  -10.2217 C   0  0  0  0  0  0  0  0  0  0  0  0
   25.9724    7.3912   -8.9588 C   0  0  0  0  0  0  0  0  0  0  0  0
   27.1815    7.2332   -8.3143 C   0  0  0  0  0  0  0  0  0  0  0  0
   27.3388    6.6200   -6.9835 C   0  0  0  0  0  0  0  0  0  0  0  0
   27.5923    5.1378   -7.0204 C   0  0  2  0  0  0  0  0  0  0  0  0
   26.3696    4.3888   -7.2569 N   0  0  0  0  0  0  0  0  0  0  0  0
   28.1126    4.7221   -5.6951 C   0  0  0  0  0  0  0  0  0  0  0  0
   29.3323    5.1998   -5.1883 O   0  0  0  0  0  0  0  0  0  0  0  0
   28.3195    7.6784   -8.9641 C   0  0  0  0  0  0  0  0  0  0  0  0
   28.2241    8.2524  -10.2029 C   0  0  0  0  0  0  0  0  0  0  0  0
   27.5033    3.9154   -4.9316 O   0  0  0  0  0  0  0  0  0  0  0  0
  2  3  1  0
  2  1  1  6
  4  5  1  1
  4  2  1  0
  6  4  1  0
  7  6  2  0
  9 10  2  0
  9  8  1  0
 11 10  1  0
 12 11  2  0
 13 12  1  0
 14 13  1  6
 14 16  1  0
 14 15  1  0
 15  6  1  0
 16 17  2  0
 18 12  1  0
 18 19  2  0
 19  9  1  0
 21 22  2  0
 21 20  1  0
 23 22  1  0
 24 23  2  0
 26 25  1  1
 25 24  1  0
 27 26  1  0
 27 16  1  0
 28 29  1  0
 28 26  1  0
 30 24  1  0
 30 31  2  0
 31 21  1  0
 32 28  2  0
M  END
$$$$
