TYY.pdb
     RDKit          3D

 32 33  0  0  1  0  0  0  0  0999 V2000
   28.7516  -13.0620  -15.5913 C   0  0  0  0  0  0  0  0  0  0  0  0
   27.6302  -12.1523  -16.0499 C   0  0  1  0  0  0  0  0  0  0  0  0
   28.0746  -11.4660  -17.1791 O   0  0  0  0  0  0  0  0  0  0  0  0
   26.4422  -13.0246  -16.3565 C   0  0  2  0  0  0  0  0  0  0  0  0
   26.7850  -13.9628  -17.3807 N   0  0  0  0  0  0  0  0  0  0  0  0
   25.2142  -12.2725  -16.6438 C   0  0  0  0  0  0  0  0  0  0  0  0
   24.9987  -11.9532  -17.8519 O   0  0  0  0  0  0  0  0  0  0  0  0
   16.9559   -9.1668  -16.5542 O   0  0  0  0  0  0  0  0  0  0  0  0
   18.1805   -9.7699  -16.2213 C   0  0  0  0  0  0  0  0  0  0  0  0
   18.7112   -9.6383  -14.9613 C   0  0  0  0  0  0  0  0  0  0  0  0
   19.9289  -10.2424  -14.6425 C   0  0  0  0  0  0  0  0  0  0  0  0
   20.6152  -10.9775  -15.5830 C   0  0  0  0  0  0  0  0  0  0  0  0
   21.8887  -11.6091  -15.2381 C   0  0  0  0  0  0  0  0  0  0  0  0
   23.0806  -11.0881  -16.0144 C   0  0  2  0  0  0  0  0  0  0  0  0
   24.2584  -11.8769  -15.6946 N   0  0  0  0  0  0  0  0  0  0  0  0
   23.2582   -9.6642  -15.7109 C   0  0  0  0  0  0  0  0  0  0  0  0
   23.7908   -9.3564  -14.6139 O   0  0  0  0  0  0  0  0  0  0  0  0
   20.0536  -11.0883  -16.8355 C   0  0  0  0  0  0  0  0  0  0  0  0
   18.8551  -10.4957  -17.1550 C   0  0  0  0  0  0  0  0  0  0  0  0
   23.7768   -0.8179  -16.6476 O   0  0  0  0  0  0  0  0  0  0  0  0
   23.7137   -2.1942  -16.8381 C   0  0  0  0  0  0  0  0  0  0  0  0
   24.7212   -3.0182  -16.4443 C   0  0  0  0  0  0  0  0  0  0  0  0
   24.6259   -4.3946  -16.6503 C   0  0  0  0  0  0  0  0  0  0  0  0
   23.5178   -4.9522  -17.2532 C   0  0  0  0  0  0  0  0  0  0  0  0
   23.3453   -6.3946  -17.5011 C   0  0  0  0  0  0  0  0  0  0  0  0
   23.0738   -7.1991  -16.2595 C   0  0  2  0  0  0  0  0  0  0  0  0
   22.8736   -8.6061  -16.5634 N   0  0  0  0  0  0  0  0  0  0  0  0
   21.8190   -6.6993  -15.6468 C   0  0  0  0  0  0  0  0  0  0  0  0
   20.5531   -7.0650  -16.1332 O   0  0  0  0  0  0  0  0  0  0  0  0
   22.5025   -4.0983  -17.6474 C   0  0  0  0  0  0  0  0  0  0  0  0
   22.6159   -2.7509  -17.4360 C   0  0  0  0  0  0  0  0  0  0  0  0
   21.7961   -5.9153  -14.6519 O   0  0  0  0  0  0  0  0  0  0  0  0
  2  3  1  0
  2  1  1  6
  4  5  1  6
  4  2  1  0
  6  4  1  0
  7  6  2  0
  9 10  2  0
  9  8  1  0
 11 10  1  0
 12 11  2  0
 13 12  1  0
 14 13  1  1
 14 16  1  0
 14 15  1  0
 15  6  1  0
 16 17  2  0
 18 12  1  0
 18 19  2  0
 19  9  1  0
 21 22  2  0
 21 20  1  0
 23 22  1  0
 24 23  2  0
 26 25  1  6
 25 24  1  0
 27 26  1  0
 27 16  1  0
 28 29  1  0
 28 26  1  0
 30 24  1  0
 30 31  2  0
 31 21  1  0
 32 28  2  0
M  END
$$$$
