TYY.pdb
     RDKit          3D

 32 33  0  0  1  0  0  0  0  0999 V2000
   32.0157  -26.3885   12.1757 C   0  0  0  0  0  0  0  0  0  0  0  0
   30.8712  -25.9239   11.2984 C   0  0  1  0  0  0  0  0  0  0  0  0
   30.2592  -24.8448   11.9344 O   0  0  0  0  0  0  0  0  0  0  0  0
   31.4566  -25.5313    9.9683 C   0  0  2  0  0  0  0  0  0  0  0  0
   32.1120  -26.6583    9.3790 N   0  0  0  0  0  0  0  0  0  0  0  0
   32.3008  -24.3311   10.0243 C   0  0  0  0  0  0  0  0  0  0  0  0
   33.3671  -24.4032   10.7067 O   0  0  0  0  0  0  0  0  0  0  0  0
   36.9847  -24.7351    5.3597 O   0  0  0  0  0  0  0  0  0  0  0  0
   36.0524  -23.9245    6.0289 C   0  0  0  0  0  0  0  0  0  0  0  0
   34.8065  -23.6971    5.4970 C   0  0  0  0  0  0  0  0  0  0  0  0
   33.8886  -22.8896    6.1715 C   0  0  0  0  0  0  0  0  0  0  0  0
   34.2163  -22.3103    7.3769 C   0  0  0  0  0  0  0  0  0  0  0  0
   33.2464  -21.4686    8.0772 C   0  0  0  0  0  0  0  0  0  0  0  0
   32.8902  -21.9442    9.4707 C   0  0  2  0  0  0  0  0  0  0  0  0
   32.0276  -23.1107    9.3864 N   0  0  0  0  0  0  0  0  0  0  0  0
   32.2686  -20.8372   10.2048 C   0  0  0  0  0  0  0  0  0  0  0  0
   31.0422  -20.6241   10.0245 O   0  0  0  0  0  0  0  0  0  0  0  0
   35.4736  -22.5599    7.8802 C   0  0  0  0  0  0  0  0  0  0  0  0
   36.3815  -23.3540    7.2205 C   0  0  0  0  0  0  0  0  0  0  0  0
   27.2894  -22.2742   13.7722 O   0  0  0  0  0  0  0  0  0  0  0  0
   28.4116  -21.4675   13.6162 C   0  0  0  0  0  0  0  0  0  0  0  0
   28.3074  -20.1520   13.2876 C   0  0  0  0  0  0  0  0  0  0  0  0
   29.4534  -19.3709   13.1388 C   0  0  0  0  0  0  0  0  0  0  0  0
   30.7117  -19.9061   13.3192 C   0  0  0  0  0  0  0  0  0  0  0  0
   31.9655  -19.1437   13.1823 C   0  0  0  0  0  0  0  0  0  0  0  0
   32.3423  -18.8390   11.7584 C   0  0  2  0  0  0  0  0  0  0  0  0
   32.9480  -19.9870   11.1049 N   0  0  0  0  0  0  0  0  0  0  0  0
   33.3538  -17.7543   11.7671 C   0  0  0  0  0  0  0  0  0  0  0  0
   33.0714  -16.4738   12.2707 O   0  0  0  0  0  0  0  0  0  0  0  0
   30.7985  -21.2463   13.6532 C   0  0  0  0  0  0  0  0  0  0  0  0
   29.6615  -21.9951   13.7943 C   0  0  0  0  0  0  0  0  0  0  0  0
   34.5326  -17.9002   11.3266 O   0  0  0  0  0  0  0  0  0  0  0  0
  2  3  1  0
  2  1  1  1
  4  5  1  1
  4  2  1  0
  6  4  1  0
  7  6  2  0
  9 10  2  0
  9  8  1  0
 11 10  1  0
 12 11  2  0
 13 12  1  0
 14 13  1  6
 14 16  1  0
 14 15  1  0
 15  6  1  0
 16 17  2  0
 18 12  1  0
 18 19  2  0
 19  9  1  0
 21 22  2  0
 21 20  1  0
 23 22  1  0
 24 23  2  0
 26 25  1  1
 25 24  1  0
 27 26  1  0
 27 16  1  0
 28 29  1  0
 28 26  1  0
 30 24  1  0
 30 31  2  0
 31 21  1  0
 32 28  2  0
M  END
$$$$
