TYY.pdb
     RDKit          3D

 32 33  0  0  1  0  0  0  0  0999 V2000
   27.7971  -34.4577   -9.7781 C   0  0  0  0  0  0  0  0  0  0  0  0
   27.9788  -34.9942   -8.3729 C   0  0  1  0  0  0  0  0  0  0  0  0
   26.7964  -35.6356   -8.0067 O   0  0  0  0  0  0  0  0  0  0  0  0
   29.1453  -35.9453   -8.4034 C   0  0  2  0  0  0  0  0  0  0  0  0
   28.7893  -37.1208   -9.1371 N   0  0  0  0  0  0  0  0  0  0  0  0
   29.7079  -36.2347   -7.0783 C   0  0  0  0  0  0  0  0  0  0  0  0
   29.5681  -37.4139   -6.6337 O   0  0  0  0  0  0  0  0  0  0  0  0
   36.1654  -38.7192   -6.8112 O   0  0  0  0  0  0  0  0  0  0  0  0
   35.2016  -37.8301   -6.3064 C   0  0  0  0  0  0  0  0  0  0  0  0
   34.6251  -36.8821   -7.1161 C   0  0  0  0  0  0  0  0  0  0  0  0
   33.6684  -36.0041   -6.6028 C   0  0  0  0  0  0  0  0  0  0  0  0
   33.2887  -36.0742   -5.2812 C   0  0  0  0  0  0  0  0  0  0  0  0
   32.2833  -35.1519   -4.7540 C   0  0  0  0  0  0  0  0  0  0  0  0
   30.8518  -35.6196   -4.9186 C   0  0  2  0  0  0  0  0  0  0  0  0
   30.3872  -35.3166   -6.2618 N   0  0  0  0  0  0  0  0  0  0  0  0
   30.0257  -34.9907   -3.8828 C   0  0  0  0  0  0  0  0  0  0  0  0
   30.2854  -33.8030   -3.5608 O   0  0  0  0  0  0  0  0  0  0  0  0
   33.8874  -37.0366   -4.4989 C   0  0  0  0  0  0  0  0  0  0  0  0
   34.8298  -37.9037   -4.9988 C   0  0  0  0  0  0  0  0  0  0  0  0
   24.9354  -31.8331   -6.8940 O   0  0  0  0  0  0  0  0  0  0  0  0
   25.3597  -32.5974   -5.8123 C   0  0  0  0  0  0  0  0  0  0  0  0
   25.6713  -32.0325   -4.6152 C   0  0  0  0  0  0  0  0  0  0  0  0
   26.0939  -32.8282   -3.5502 C   0  0  0  0  0  0  0  0  0  0  0  0
   26.2061  -34.1966   -3.6808 C   0  0  0  0  0  0  0  0  0  0  0  0
   26.6420  -35.1005   -2.6016 C   0  0  0  0  0  0  0  0  0  0  0  0
   28.0965  -34.9660   -2.2428 C   0  0  2  0  0  0  0  0  0  0  0  0
   28.9534  -35.6229   -3.2155 N   0  0  0  0  0  0  0  0  0  0  0  0
   28.3177  -35.6369   -0.9387 C   0  0  0  0  0  0  0  0  0  0  0  0
   29.2179  -36.7051   -0.7916 O   0  0  0  0  0  0  0  0  0  0  0  0
   25.8848  -34.7539   -4.9062 C   0  0  0  0  0  0  0  0  0  0  0  0
   25.4723  -33.9553   -5.9382 C   0  0  0  0  0  0  0  0  0  0  0  0
   27.7187  -35.3009    0.1258 O   0  0  0  0  0  0  0  0  0  0  0  0
  2  3  1  0
  2  1  1  6
  4  5  1  1
  4  2  1  0
  6  4  1  0
  7  6  2  0
  9 10  2  0
  9  8  1  0
 11 10  1  0
 12 11  2  0
 13 12  1  0
 14 13  1  6
 14 16  1  0
 14 15  1  0
 15  6  1  0
 16 17  2  0
 18 12  1  0
 18 19  2  0
 19  9  1  0
 21 22  2  0
 21 20  1  0
 23 22  1  0
 24 23  2  0
 26 25  1  6
 25 24  1  0
 27 26  1  0
 27 16  1  0
 28 29  1  0
 28 26  1  0
 30 24  1  0
 30 31  2  0
 31 21  1  0
 32 28  2  0
M  END
$$$$
