TYY.pdb
     RDKit          3D

 32 33  0  0  1  0  0  0  0  0999 V2000
   27.6391  -22.4970  -15.8755 C   0  0  0  0  0  0  0  0  0  0  0  0
   28.3789  -21.6933  -16.9254 C   0  0  1  0  0  0  0  0  0  0  0  0
   29.5707  -22.3590  -17.2084 O   0  0  0  0  0  0  0  0  0  0  0  0
   27.4860  -21.6054  -18.1343 C   0  0  2  0  0  0  0  0  0  0  0  0
   28.1828  -20.9552  -19.2014 N   0  0  0  0  0  0  0  0  0  0  0  0
   26.1694  -21.0179  -17.8560 C   0  0  0  0  0  0  0  0  0  0  0  0
   26.0664  -19.7570  -17.9439 O   0  0  0  0  0  0  0  0  0  0  0  0
   22.5755  -18.5480  -22.9191 O   0  0  0  0  0  0  0  0  0  0  0  0
   22.6028  -19.2914  -21.7272 C   0  0  0  0  0  0  0  0  0  0  0  0
   23.2724  -20.4888  -21.6588 C   0  0  0  0  0  0  0  0  0  0  0  0
   23.2922  -21.2185  -20.4686 C   0  0  0  0  0  0  0  0  0  0  0  0
   22.6431  -20.7511  -19.3479 C   0  0  0  0  0  0  0  0  0  0  0  0
   22.6726  -21.5216  -18.1048 C   0  0  0  0  0  0  0  0  0  0  0  0
   23.7571  -21.1061  -17.1321 C   0  0  2  0  0  0  0  0  0  0  0  0
   25.0149  -21.7335  -17.5009 N   0  0  0  0  0  0  0  0  0  0  0  0
   23.3327  -21.4545  -15.7721 C   0  0  0  0  0  0  0  0  0  0  0  0
   23.2318  -22.6734  -15.4791 O   0  0  0  0  0  0  0  0  0  0  0  0
   21.9822  -19.5476  -19.4527 C   0  0  0  0  0  0  0  0  0  0  0  0
   21.9592  -18.8249  -20.6219 C   0  0  0  0  0  0  0  0  0  0  0  0
   28.9069  -21.9768  -12.4130 O   0  0  0  0  0  0  0  0  0  0  0  0
   27.6001  -21.5017  -12.4376 C   0  0  0  0  0  0  0  0  0  0  0  0
   27.2402  -20.4361  -13.2021 C   0  0  0  0  0  0  0  0  0  0  0  0
   25.9203  -19.9849  -13.2037 C   0  0  0  0  0  0  0  0  0  0  0  0
   24.9531  -20.6012  -12.4375 C   0  0  0  0  0  0  0  0  0  0  0  0
   23.5406  -20.1837  -12.3904 C   0  0  0  0  0  0  0  0  0  0  0  0
   22.6654  -20.8758  -13.3990 C   0  0  2  0  0  0  0  0  0  0  0  0
   23.0268  -20.5178  -14.7603 N   0  0  0  0  0  0  0  0  0  0  0  0
   21.2670  -20.4307  -13.1843 C   0  0  0  0  0  0  0  0  0  0  0  0
   20.5751  -19.6586  -14.1321 O   0  0  0  0  0  0  0  0  0  0  0  0
   25.3376  -21.6839  -11.6659 C   0  0  0  0  0  0  0  0  0  0  0  0
   26.6379  -22.1106  -11.6787 C   0  0  0  0  0  0  0  0  0  0  0  0
   20.6011  -20.7101  -12.1434 O   0  0  0  0  0  0  0  0  0  0  0  0
  2  3  1  0
  2  1  1  1
  4  5  1  6
  4  2  1  0
  6  4  1  0
  7  6  2  0
  9 10  2  0
  9  8  1  0
 11 10  1  0
 12 11  2  0
 13 12  1  0
 14 13  1  6
 14 16  1  0
 14 15  1  0
 15  6  1  0
 16 17  2  0
 18 12  1  0
 18 19  2  0
 19  9  1  0
 21 22  2  0
 21 20  1  0
 23 22  1  0
 24 23  2  0
 26 25  1  1
 25 24  1  0
 27 26  1  0
 27 16  1  0
 28 29  1  0
 28 26  1  0
 30 24  1  0
 30 31  2  0
 31 21  1  0
 32 28  2  0
M  END
$$$$
