EKG.pdb
     RDKit          3D

 23 22  0  0  1  0  0  0  0  0999 V2000
   18.8330  -11.9940  -18.6582 N   0  0  0  0  0  0  0  0  0  0  0  0
   19.7973  -11.5354  -17.7248 C   0  0  1  0  0  0  0  0  0  0  0  0
   21.1852  -11.6512  -18.2451 C   0  0  0  0  0  0  0  0  0  0  0  0
   21.6500  -12.9757  -18.6996 C   0  0  0  0  0  0  0  0  0  0  0  0
   23.0462  -13.1338  -19.0883 C   0  0  0  0  0  0  0  0  0  0  0  0
   23.8534  -13.8628  -18.5087 O   0  0  0  0  0  0  0  0  0  0  0  0
   19.5241  -10.1444  -17.2124 C   0  0  0  0  0  0  0  0  0  0  0  0
   19.5642   -9.1786  -18.0225 O   0  0  0  0  0  0  0  0  0  0  0  0
   23.5772  -12.4298  -20.2000 O   0  0  0  0  0  0  0  0  0  0  0  0
   19.2215   -9.8407  -15.8726 N   0  0  0  0  0  0  0  0  0  0  0  0
   18.8268   -8.4631  -15.4654 C   0  0  1  0  0  0  0  0  0  0  0  0
   17.4430   -8.5379  -14.8781 C   0  0  0  0  0  0  0  0  0  0  0  0
   16.4127   -8.5835  -15.9424 C   0  0  0  0  0  0  0  0  0  0  0  0
   14.9982   -8.5956  -15.3630 C   0  0  0  0  0  0  0  0  0  0  0  0
   13.9609   -8.6417  -16.4598 C   0  0  0  0  0  0  0  0  0  0  0  0
   12.6768   -8.8891  -15.8247 N   0  0  0  0  0  0  0  0  0  0  0  0
   19.8708   -7.9438  -14.5894 C   0  0  0  0  0  0  0  0  0  0  0  0
   20.2265   -8.6608  -13.5924 O   0  0  0  0  0  0  0  0  0  0  0  0
   20.5581   -6.7076  -14.7186 N   0  0  0  0  0  0  0  0  0  0  0  0
   21.5295   -6.2526  -13.7374 C   0  0  0  0  0  0  0  0  0  0  0  0
   22.2286   -5.0298  -14.1786 C   0  0  0  0  0  0  0  0  0  0  0  0
   22.0735   -4.6238  -15.3474 O   0  0  0  0  0  0  0  0  0  0  0  0
   23.0490   -4.3284  -13.3244 O   0  0  0  0  0  0  0  0  0  0  0  0
  2  7  1  0
  2  1  1  6
  3  2  1  0
  4  3  1  0
  5  4  1  0
  6  5  2  0
  7  8  2  0
  9  5  1  0
 10 11  1  0
 10  7  1  0
 11 12  1  1
 12 13  1  0
 14 13  1  0
 14 15  1  0
 16 15  1  0
 17 11  1  0
 18 17  2  0
 19 17  1  0
 20 21  1  0
 20 19  1  0
 21 23  1  0
 22 21  2  0
M  END
$$$$
