EKG.pdb
     RDKit          3D

 23 22  0  0  1  0  0  0  0  0999 V2000
   25.4639  -22.1714  -15.2416 N   0  0  0  0  0  0  0  0  0  0  0  0
   25.0539  -21.0095  -14.5393 C   0  0  1  0  0  0  0  0  0  0  0  0
   25.9150  -19.8354  -14.8402 C   0  0  0  0  0  0  0  0  0  0  0  0
   26.0382  -19.4047  -16.2460 C   0  0  0  0  0  0  0  0  0  0  0  0
   27.2378  -18.6851  -16.6565 C   0  0  0  0  0  0  0  0  0  0  0  0
   28.1793  -18.4146  -15.9086 O   0  0  0  0  0  0  0  0  0  0  0  0
   23.5961  -20.6759  -14.7279 C   0  0  0  0  0  0  0  0  0  0  0  0
   23.1816  -20.3916  -15.8846 O   0  0  0  0  0  0  0  0  0  0  0  0
   27.3968  -18.2368  -17.9934 O   0  0  0  0  0  0  0  0  0  0  0  0
   22.6480  -20.6594  -13.6888 N   0  0  0  0  0  0  0  0  0  0  0  0
   21.1910  -20.5434  -13.9775 C   0  0  1  0  0  0  0  0  0  0  0  0
   20.4669  -21.5031  -13.0719 C   0  0  0  0  0  0  0  0  0  0  0  0
   19.6142  -22.4321  -13.8504 C   0  0  0  0  0  0  0  0  0  0  0  0
   18.8466  -23.3934  -12.9430 C   0  0  0  0  0  0  0  0  0  0  0  0
   18.0205  -24.3643  -13.7530 C   0  0  0  0  0  0  0  0  0  0  0  0
   17.4169  -25.2983  -12.8167 N   0  0  0  0  0  0  0  0  0  0  0  0
   20.8247  -19.1374  -13.8504 C   0  0  0  0  0  0  0  0  0  0  0  0
   21.2784  -18.4895  -12.8459 O   0  0  0  0  0  0  0  0  0  0  0  0
   20.0072  -18.3841  -14.7343 N   0  0  0  0  0  0  0  0  0  0  0  0
   19.7292  -16.9730  -14.5228 C   0  0  0  0  0  0  0  0  0  0  0  0
   18.8909  -16.4081  -15.5982 C   0  0  0  0  0  0  0  0  0  0  0  0
   18.5479  -17.1340  -16.5524 O   0  0  0  0  0  0  0  0  0  0  0  0
   18.4799  -15.0947  -15.5685 O   0  0  0  0  0  0  0  0  0  0  0  0
  2  7  1  0
  2  1  1  6
  3  2  1  0
  4  3  1  0
  5  4  1  0
  6  5  2  0
  7  8  2  0
  9  5  1  0
 10 11  1  0
 10  7  1  0
 11 12  1  1
 12 13  1  0
 14 13  1  0
 14 15  1  0
 16 15  1  0
 17 11  1  0
 18 17  2  0
 19 17  1  0
 20 21  1  0
 20 19  1  0
 21 23  1  0
 22 21  2  0
M  END
$$$$
