EKG.pdb
     RDKit          3D

 23 22  0  0  1  0  0  0  0  0999 V2000
   19.7003  -18.6911  -16.0141 N   0  0  0  0  0  0  0  0  0  0  0  0
   19.5381  -17.4633  -15.3233 C   0  0  1  0  0  0  0  0  0  0  0  0
   19.4232  -17.6542  -13.8533 C   0  0  0  0  0  0  0  0  0  0  0  0
   19.0811  -18.9986  -13.3507 C   0  0  0  0  0  0  0  0  0  0  0  0
   18.8892  -19.1836  -11.9174 C   0  0  0  0  0  0  0  0  0  0  0  0
   19.7274  -18.9013  -11.0591 O   0  0  0  0  0  0  0  0  0  0  0  0
   20.5949  -16.4415  -15.6568 C   0  0  0  0  0  0  0  0  0  0  0  0
   20.8626  -15.5446  -14.8116 O   0  0  0  0  0  0  0  0  0  0  0  0
   17.6785  -19.7205  -11.4078 O   0  0  0  0  0  0  0  0  0  0  0  0
   21.3174  -16.4165  -16.8636 N   0  0  0  0  0  0  0  0  0  0  0  0
   22.4217  -15.4401  -17.0800 C   0  0  1  0  0  0  0  0  0  0  0  0
   23.3580  -16.0268  -18.1020 C   0  0  0  0  0  0  0  0  0  0  0  0
   23.9880  -17.2698  -17.5979 C   0  0  0  0  0  0  0  0  0  0  0  0
   25.3475  -16.9965  -16.9545 C   0  0  0  0  0  0  0  0  0  0  0  0
   25.9748  -18.2721  -16.4443 C   0  0  0  0  0  0  0  0  0  0  0  0
   27.1555  -17.8949  -15.6846 N   0  0  0  0  0  0  0  0  0  0  0  0
   21.8181  -14.1570  -17.4213 C   0  0  0  0  0  0  0  0  0  0  0  0
   20.8775  -14.1499  -18.2873 O   0  0  0  0  0  0  0  0  0  0  0  0
   22.1574  -12.8846  -16.8895 N   0  0  0  0  0  0  0  0  0  0  0  0
   21.4577  -11.6699  -17.2747 C   0  0  0  0  0  0  0  0  0  0  0  0
   20.4590  -11.2647  -16.2663 C   0  0  0  0  0  0  0  0  0  0  0  0
   20.1619  -12.0535  -15.3474 O   0  0  0  0  0  0  0  0  0  0  0  0
   19.8487  -10.0320  -16.3205 O   0  0  0  0  0  0  0  0  0  0  0  0
  2  7  1  0
  2  1  1  6
  3  2  1  0
  4  3  1  0
  5  4  1  0
  6  5  2  0
  7  8  2  0
  9  5  1  0
 10 11  1  0
 10  7  1  0
 11 12  1  6
 12 13  1  0
 14 13  1  0
 14 15  1  0
 16 15  1  0
 17 11  1  0
 18 17  2  0
 19 17  1  0
 20 21  1  0
 20 19  1  0
 21 23  1  0
 22 21  2  0
M  END
$$$$
