EKG.pdb
     RDKit          3D

 23 22  0  0  1  0  0  0  0  0999 V2000
   23.3088  -11.5688  -16.0341 N   0  0  0  0  0  0  0  0  0  0  0  0
   23.2261  -10.5800  -17.0473 C   0  0  1  0  0  0  0  0  0  0  0  0
   22.7974  -11.1457  -18.3537 C   0  0  0  0  0  0  0  0  0  0  0  0
   23.1581  -12.5435  -18.6589 C   0  0  0  0  0  0  0  0  0  0  0  0
   22.6276  -13.1562  -19.8707 C   0  0  0  0  0  0  0  0  0  0  0  0
   22.8439  -14.3192  -20.2167 O   0  0  0  0  0  0  0  0  0  0  0  0
   22.3762   -9.3956  -16.6637 C   0  0  0  0  0  0  0  0  0  0  0  0
   22.3149   -8.4107  -17.4490 O   0  0  0  0  0  0  0  0  0  0  0  0
   21.7988  -12.4200  -20.7566 O   0  0  0  0  0  0  0  0  0  0  0  0
   21.6330   -9.3087  -15.4725 N   0  0  0  0  0  0  0  0  0  0  0  0
   20.7218   -8.1583  -15.2156 C   0  0  1  0  0  0  0  0  0  0  0  0
   19.4281   -8.7098  -14.6792 C   0  0  0  0  0  0  0  0  0  0  0  0
   18.5409   -9.1562  -15.7792 C   0  0  0  0  0  0  0  0  0  0  0  0
   17.2703   -9.8209  -15.2495 C   0  0  0  0  0  0  0  0  0  0  0  0
   16.4640  -10.4274  -16.3732 C   0  0  0  0  0  0  0  0  0  0  0  0
   15.3478  -11.1342  -15.7665 N   0  0  0  0  0  0  0  0  0  0  0  0
   21.4278   -7.2181  -14.3527 C   0  0  0  0  0  0  0  0  0  0  0  0
   22.2198   -7.6952  -13.4697 O   0  0  0  0  0  0  0  0  0  0  0  0
   21.3400   -5.8008  -14.3809 N   0  0  0  0  0  0  0  0  0  0  0  0
   22.0895   -4.9576  -13.4640 C   0  0  0  0  0  0  0  0  0  0  0  0
   21.7935   -3.5255  -13.6637 C   0  0  0  0  0  0  0  0  0  0  0  0
   22.2805   -2.6848  -12.8819 O   0  0  0  0  0  0  0  0  0  0  0  0
   20.9898   -3.0994  -14.6968 O   0  0  0  0  0  0  0  0  0  0  0  0
  2  7  1  0
  2  1  1  1
  3  2  1  0
  4  3  1  0
  5  4  1  0
  6  5  2  0
  7  8  2  0
  9  5  1  0
 10 11  1  0
 10  7  1  0
 11 12  1  1
 12 13  1  0
 14 13  1  0
 14 15  1  0
 16 15  1  0
 17 11  1  0
 18 17  2  0
 19 17  1  0
 20 21  1  0
 20 19  1  0
 21 23  1  0
 22 21  2  0
M  END
$$$$
