EKG.pdb
     RDKit          3D

 23 22  0  0  1  0  0  0  0  0999 V2000
   20.9036  -17.5394  -18.9579 N   0  0  0  0  0  0  0  0  0  0  0  0
   21.4233  -17.2555  -17.6692 C   0  0  1  0  0  0  0  0  0  0  0  0
   20.3897  -16.7050  -16.7531 C   0  0  0  0  0  0  0  0  0  0  0  0
   18.9706  -16.9167  -17.0972 C   0  0  0  0  0  0  0  0  0  0  0  0
   17.9461  -16.3796  -16.2100 C   0  0  0  0  0  0  0  0  0  0  0  0
   18.1775  -15.7047  -15.2050 O   0  0  0  0  0  0  0  0  0  0  0  0
   22.1405  -18.4223  -17.0397 C   0  0  0  0  0  0  0  0  0  0  0  0
   21.6836  -19.5845  -17.2162 O   0  0  0  0  0  0  0  0  0  0  0  0
   16.5691  -16.6118  -16.4623 O   0  0  0  0  0  0  0  0  0  0  0  0
   23.3034  -18.3064  -16.2567 N   0  0  0  0  0  0  0  0  0  0  0  0
   23.9116  -19.4974  -15.6002 C   0  0  1  0  0  0  0  0  0  0  0  0
   25.3072  -19.1244  -15.1773 C   0  0  0  0  0  0  0  0  0  0  0  0
   26.0194  -20.2885  -14.5997 C   0  0  0  0  0  0  0  0  0  0  0  0
   26.9959  -20.9094  -15.5986 C   0  0  0  0  0  0  0  0  0  0  0  0
   27.7029  -22.1020  -14.9996 C   0  0  0  0  0  0  0  0  0  0  0  0
   28.6023  -22.6221  -16.0165 N   0  0  0  0  0  0  0  0  0  0  0  0
   23.0098  -19.9262  -14.5372 C   0  0  0  0  0  0  0  0  0  0  0  0
   22.4460  -19.0224  -13.8301 O   0  0  0  0  0  0  0  0  0  0  0  0
   22.6730  -21.2614  -14.1892 N   0  0  0  0  0  0  0  0  0  0  0  0
   21.8870  -21.5818  -13.0089 C   0  0  0  0  0  0  0  0  0  0  0  0
   20.5211  -22.0192  -13.3573 C   0  0  0  0  0  0  0  0  0  0  0  0
   20.1545  -21.9916  -14.5489 O   0  0  0  0  0  0  0  0  0  0  0  0
   19.6433  -22.4574  -12.3917 O   0  0  0  0  0  0  0  0  0  0  0  0
  2  7  1  0
  2  1  1  6
  3  2  1  0
  4  3  1  0
  5  4  1  0
  6  5  2  0
  7  8  2  0
  9  5  1  0
 10 11  1  0
 10  7  1  0
 11 12  1  1
 12 13  1  0
 14 13  1  0
 14 15  1  0
 16 15  1  0
 17 11  1  0
 18 17  2  0
 19 17  1  0
 20 21  1  0
 20 19  1  0
 21 23  1  0
 22 21  2  0
M  END
$$$$
