EKG.pdb
     RDKit          3D

 23 22  0  0  1  0  0  0  0  0999 V2000
   34.6575  -31.2248  -18.8381 N   0  0  0  0  0  0  0  0  0  0  0  0
   33.3256  -31.6445  -19.0854 C   0  0  1  0  0  0  0  0  0  0  0  0
   33.2194  -33.1188  -19.2452 C   0  0  0  0  0  0  0  0  0  0  0  0
   33.5445  -33.9700  -18.0847 C   0  0  0  0  0  0  0  0  0  0  0  0
   33.4849  -35.4185  -18.2386 C   0  0  0  0  0  0  0  0  0  0  0  0
   34.3780  -36.1941  -17.8923 O   0  0  0  0  0  0  0  0  0  0  0  0
   32.3363  -31.1362  -18.0680 C   0  0  0  0  0  0  0  0  0  0  0  0
   32.7244  -30.9487  -16.8828 O   0  0  0  0  0  0  0  0  0  0  0  0
   32.3507  -36.0435  -18.8188 O   0  0  0  0  0  0  0  0  0  0  0  0
   30.9883  -30.8502  -18.3504 N   0  0  0  0  0  0  0  0  0  0  0  0
   30.1127  -30.1924  -17.3404 C   0  0  1  0  0  0  0  0  0  0  0  0
   29.5601  -28.9375  -17.9613 C   0  0  0  0  0  0  0  0  0  0  0  0
   28.7188  -28.1901  -16.9970 C   0  0  0  0  0  0  0  0  0  0  0  0
   28.2337  -26.8618  -17.5774 C   0  0  0  0  0  0  0  0  0  0  0  0
   27.4128  -26.0941  -16.5685 C   0  0  0  0  0  0  0  0  0  0  0  0
   26.9892  -24.8605  -17.2106 N   0  0  0  0  0  0  0  0  0  0  0  0
   29.1322  -31.1764  -16.8960 C   0  0  0  0  0  0  0  0  0  0  0  0
   28.6342  -31.9628  -17.7725 O   0  0  0  0  0  0  0  0  0  0  0  0
   28.6571  -31.3714  -15.5719 N   0  0  0  0  0  0  0  0  0  0  0  0
   27.6667  -32.3836  -15.2430 C   0  0  0  0  0  0  0  0  0  0  0  0
   26.3359  -32.0515  -15.7881 C   0  0  0  0  0  0  0  0  0  0  0  0
   26.1835  -30.9926  -16.4288 O   0  0  0  0  0  0  0  0  0  0  0  0
   25.2589  -32.8885  -15.6029 O   0  0  0  0  0  0  0  0  0  0  0  0
  2  7  1  0
  2  1  1  1
  3  2  1  0
  4  3  1  0
  5  4  1  0
  6  5  2  0
  7  8  2  0
  9  5  1  0
 10 11  1  0
 10  7  1  0
 11 12  1  6
 12 13  1  0
 14 13  1  0
 14 15  1  0
 16 15  1  0
 17 11  1  0
 18 17  2  0
 19 17  1  0
 20 21  1  0
 20 19  1  0
 21 23  1  0
 22 21  2  0
M  END
$$$$
