EKG.pdb
     RDKit          3D

 23 22  0  0  1  0  0  0  0  0999 V2000
   20.7515  -21.3533  -11.4841 N   0  0  0  0  0  0  0  0  0  0  0  0
   20.6498  -20.7219  -12.7499 C   0  0  1  0  0  0  0  0  0  0  0  0
   19.6687  -19.6048  -12.7456 C   0  0  0  0  0  0  0  0  0  0  0  0
   18.2494  -19.9259  -12.5017 C   0  0  0  0  0  0  0  0  0  0  0  0
   17.5161  -20.6764  -13.5138 C   0  0  0  0  0  0  0  0  0  0  0  0
   16.3397  -21.0281  -13.4056 O   0  0  0  0  0  0  0  0  0  0  0  0
   21.9772  -20.2762  -13.3079 C   0  0  0  0  0  0  0  0  0  0  0  0
   22.6458  -19.4152  -12.6736 O   0  0  0  0  0  0  0  0  0  0  0  0
   18.1388  -21.0605  -14.7296 O   0  0  0  0  0  0  0  0  0  0  0  0
   22.5341  -20.7603  -14.5056 N   0  0  0  0  0  0  0  0  0  0  0  0
   23.8862  -20.3270  -14.9566 C   0  0  1  0  0  0  0  0  0  0  0  0
   24.6450  -21.5573  -15.3763 C   0  0  0  0  0  0  0  0  0  0  0  0
   26.0070  -21.2105  -15.8463 C   0  0  0  0  0  0  0  0  0  0  0  0
   26.7984  -22.4515  -16.2588 C   0  0  0  0  0  0  0  0  0  0  0  0
   28.1715  -22.0784  -16.7651 C   0  0  0  0  0  0  0  0  0  0  0  0
   28.8124  -23.3055  -17.2092 N   0  0  0  0  0  0  0  0  0  0  0  0
   23.7051  -19.3025  -15.9786 C   0  0  0  0  0  0  0  0  0  0  0  0
   22.8631  -19.5318  -16.9130 O   0  0  0  0  0  0  0  0  0  0  0  0
   24.3668  -18.0483  -16.0580 N   0  0  0  0  0  0  0  0  0  0  0  0
   24.2331  -17.1709  -17.2094 C   0  0  0  0  0  0  0  0  0  0  0  0
   23.1617  -16.1733  -17.0218 C   0  0  0  0  0  0  0  0  0  0  0  0
   22.1321  -16.4913  -16.3942 O   0  0  0  0  0  0  0  0  0  0  0  0
   23.2768  -14.8978  -17.5265 O   0  0  0  0  0  0  0  0  0  0  0  0
  2  7  1  0
  2  1  1  1
  3  2  1  0
  4  3  1  0
  5  4  1  0
  6  5  2  0
  7  8  2  0
  9  5  1  0
 10 11  1  0
 10  7  1  0
 11 12  1  6
 12 13  1  0
 14 13  1  0
 14 15  1  0
 16 15  1  0
 17 11  1  0
 18 17  2  0
 19 17  1  0
 20 21  1  0
 20 19  1  0
 21 23  1  0
 22 21  2  0
M  END
$$$$
