EKG.pdb
     RDKit          3D

 23 22  0  0  1  0  0  0  0  0999 V2000
   21.0498  -12.9076  -18.1983 N   0  0  0  0  0  0  0  0  0  0  0  0
   21.5952  -11.6614  -18.5993 C   0  0  1  0  0  0  0  0  0  0  0  0
   20.6227  -10.8420  -19.3696 C   0  0  0  0  0  0  0  0  0  0  0  0
   19.3833  -11.4908  -19.8385 C   0  0  0  0  0  0  0  0  0  0  0  0
   18.4521  -10.7187  -20.6522 C   0  0  0  0  0  0  0  0  0  0  0  0
   18.7396  -10.1864  -21.7261 O   0  0  0  0  0  0  0  0  0  0  0  0
   22.1896  -10.8712  -17.4616 C   0  0  0  0  0  0  0  0  0  0  0  0
   21.7230  -11.0306  -16.3009 O   0  0  0  0  0  0  0  0  0  0  0  0
   17.1081  -10.5280  -20.2387 O   0  0  0  0  0  0  0  0  0  0  0  0
   23.2463   -9.9535  -17.6037 N   0  0  0  0  0  0  0  0  0  0  0  0
   23.8963   -9.3372  -16.4133 C   0  0  1  0  0  0  0  0  0  0  0  0
   25.3859   -9.4661  -16.5868 C   0  0  0  0  0  0  0  0  0  0  0  0
   25.8215  -10.8743  -16.4340 C   0  0  0  0  0  0  0  0  0  0  0  0
   27.3349  -11.0207  -16.5925 C   0  0  0  0  0  0  0  0  0  0  0  0
   27.7625  -12.4602  -16.4319 C   0  0  0  0  0  0  0  0  0  0  0  0
   29.2121  -12.4908  -16.5370 N   0  0  0  0  0  0  0  0  0  0  0  0
   23.3788   -7.9802  -16.2789 C   0  0  0  0  0  0  0  0  0  0  0  0
   23.3845   -7.2324  -17.3159 O   0  0  0  0  0  0  0  0  0  0  0  0
   22.8531   -7.3786  -15.1047 N   0  0  0  0  0  0  0  0  0  0  0  0
   22.4665   -5.9780  -15.0558 C   0  0  0  0  0  0  0  0  0  0  0  0
   22.0437   -5.5690  -13.7022 C   0  0  0  0  0  0  0  0  0  0  0  0
   21.8143   -4.3654  -13.4699 O   0  0  0  0  0  0  0  0  0  0  0  0
   21.8973   -6.4907  -12.6904 O   0  0  0  0  0  0  0  0  0  0  0  0
  2  7  1  0
  2  1  1  1
  3  2  1  0
  4  3  1  0
  5  4  1  0
  6  5  2  0
  7  8  2  0
  9  5  1  0
 10 11  1  0
 10  7  1  0
 11 12  1  6
 12 13  1  0
 14 13  1  0
 14 15  1  0
 16 15  1  0
 17 11  1  0
 18 17  2  0
 19 17  1  0
 20 21  1  0
 20 19  1  0
 21 23  1  0
 22 21  2  0
M  END
$$$$
