EKG.pdb
     RDKit          3D

 23 22  0  0  1  0  0  0  0  0999 V2000
   22.2260  -21.1509  -12.3685 N   0  0  0  0  0  0  0  0  0  0  0  0
   21.6683  -20.9887  -13.6623 C   0  0  1  0  0  0  0  0  0  0  0  0
   20.1925  -21.1692  -13.6669 C   0  0  0  0  0  0  0  0  0  0  0  0
   19.6337  -22.3145  -14.4104 C   0  0  0  0  0  0  0  0  0  0  0  0
   20.2450  -23.6270  -14.2400 C   0  0  0  0  0  0  0  0  0  0  0  0
   21.1838  -23.8657  -13.4779 O   0  0  0  0  0  0  0  0  0  0  0  0
   22.0586  -19.6935  -14.3273 C   0  0  0  0  0  0  0  0  0  0  0  0
   21.8898  -18.6124  -13.7002 O   0  0  0  0  0  0  0  0  0  0  0  0
   19.7759  -24.7497  -14.9702 O   0  0  0  0  0  0  0  0  0  0  0  0
   22.6080  -19.6023  -15.6191 N   0  0  0  0  0  0  0  0  0  0  0  0
   23.0072  -18.2876  -16.1951 C   0  0  1  0  0  0  0  0  0  0  0  0
   24.1142  -18.5380  -17.1838 C   0  0  0  0  0  0  0  0  0  0  0  0
   25.4352  -18.5596  -16.5125 C   0  0  0  0  0  0  0  0  0  0  0  0
   25.8387  -19.9749  -16.0990 C   0  0  0  0  0  0  0  0  0  0  0  0
   27.2128  -19.9881  -15.4722 C   0  0  0  0  0  0  0  0  0  0  0  0
   27.4310  -21.3259  -14.9467 N   0  0  0  0  0  0  0  0  0  0  0  0
   21.8052  -17.6513  -16.7218 C   0  0  0  0  0  0  0  0  0  0  0  0
   20.8743  -18.4066  -17.1662 O   0  0  0  0  0  0  0  0  0  0  0  0
   21.5390  -16.2583  -16.7975 N   0  0  0  0  0  0  0  0  0  0  0  0
   20.3115  -15.7321  -17.3717 C   0  0  0  0  0  0  0  0  0  0  0  0
   19.3222  -15.3821  -16.3338 C   0  0  0  0  0  0  0  0  0  0  0  0
   19.0578  -16.2071  -15.4368 O   0  0  0  0  0  0  0  0  0  0  0  0
   18.6852  -14.1618  -16.3365 O   0  0  0  0  0  0  0  0  0  0  0  0
  2  7  1  0
  2  1  1  1
  3  2  1  0
  4  3  1  0
  5  4  1  0
  6  5  2  0
  7  8  2  0
  9  5  1  0
 10 11  1  0
 10  7  1  0
 11 12  1  6
 12 13  1  0
 14 13  1  0
 14 15  1  0
 16 15  1  0
 17 11  1  0
 18 17  2  0
 19 17  1  0
 20 21  1  0
 20 19  1  0
 21 23  1  0
 22 21  2  0
M  END
$$$$
