EKG.pdb
     RDKit          3D

 23 22  0  0  1  0  0  0  0  0999 V2000
   25.4287  -19.1969  -18.4566 N   0  0  0  0  0  0  0  0  0  0  0  0
   25.1933  -18.7706  -17.1247 C   0  0  1  0  0  0  0  0  0  0  0  0
   24.7497  -17.3531  -17.0563 C   0  0  0  0  0  0  0  0  0  0  0  0
   23.3063  -17.0693  -17.1704 C   0  0  0  0  0  0  0  0  0  0  0  0
   22.8702  -15.6819  -17.2724 C   0  0  0  0  0  0  0  0  0  0  0  0
   23.3404  -14.8590  -18.0603 O   0  0  0  0  0  0  0  0  0  0  0  0
   24.2546  -19.6703  -16.3623 C   0  0  0  0  0  0  0  0  0  0  0  0
   23.0989  -19.8752  -16.8239 O   0  0  0  0  0  0  0  0  0  0  0  0
   21.8387  -15.1791  -16.4377 O   0  0  0  0  0  0  0  0  0  0  0  0
   24.5805  -20.3098  -15.1524 N   0  0  0  0  0  0  0  0  0  0  0  0
   23.6069  -21.2063  -14.4685 C   0  0  1  0  0  0  0  0  0  0  0  0
   24.3929  -22.2283  -13.6918 C   0  0  0  0  0  0  0  0  0  0  0  0
   23.9547  -23.6045  -14.0241 C   0  0  0  0  0  0  0  0  0  0  0  0
   24.6941  -24.1569  -15.2427 C   0  0  0  0  0  0  0  0  0  0  0  0
   24.2878  -25.5838  -15.5253 C   0  0  0  0  0  0  0  0  0  0  0  0
   25.0251  -26.0140  -16.7022 N   0  0  0  0  0  0  0  0  0  0  0  0
   22.7001  -20.3668  -13.6939 C   0  0  0  0  0  0  0  0  0  0  0  0
   23.1955  -19.3642  -13.0743 O   0  0  0  0  0  0  0  0  0  0  0  0
   21.2974  -20.5336  -13.5464 N   0  0  0  0  0  0  0  0  0  0  0  0
   20.4878  -19.6308  -12.7445 C   0  0  0  0  0  0  0  0  0  0  0  0
   19.0714  -20.0443  -12.7080 C   0  0  0  0  0  0  0  0  0  0  0  0
   18.6953  -21.0035  -13.4105 O   0  0  0  0  0  0  0  0  0  0  0  0
   18.1568  -19.3913  -11.9131 O   0  0  0  0  0  0  0  0  0  0  0  0
  2  7  1  0
  2  1  1  6
  3  2  1  0
  4  3  1  0
  5  4  1  0
  6  5  2  0
  7  8  2  0
  9  5  1  0
 10 11  1  0
 10  7  1  0
 11 12  1  1
 12 13  1  0
 14 13  1  0
 14 15  1  0
 16 15  1  0
 17 11  1  0
 18 17  2  0
 19 17  1  0
 20 21  1  0
 20 19  1  0
 21 23  1  0
 22 21  2  0
M  END
$$$$
