EKG.pdb
     RDKit          3D

 23 22  0  0  1  0  0  0  0  0999 V2000
   20.8927  -19.3130  -14.5917 N   0  0  0  0  0  0  0  0  0  0  0  0
   20.3427  -18.6904  -15.7411 C   0  0  1  0  0  0  0  0  0  0  0  0
   18.8752  -18.9030  -15.8498 C   0  0  0  0  0  0  0  0  0  0  0  0
   18.3755  -20.2900  -15.9106 C   0  0  0  0  0  0  0  0  0  0  0  0
   18.1251  -21.0006  -14.6625 C   0  0  0  0  0  0  0  0  0  0  0  0
   18.1820  -22.2250  -14.5333 O   0  0  0  0  0  0  0  0  0  0  0  0
   20.6892  -17.2280  -15.8567 C   0  0  0  0  0  0  0  0  0  0  0  0
   20.3613  -16.4491  -14.9205 O   0  0  0  0  0  0  0  0  0  0  0  0
   17.7883  -20.2959  -13.4778 O   0  0  0  0  0  0  0  0  0  0  0  0
   21.3644  -16.6597  -16.9521 N   0  0  0  0  0  0  0  0  0  0  0  0
   21.8121  -15.2389  -16.9280 C   0  0  1  0  0  0  0  0  0  0  0  0
   22.9220  -15.0915  -17.9340 C   0  0  0  0  0  0  0  0  0  0  0  0
   24.1586  -15.7618  -17.4672 C   0  0  0  0  0  0  0  0  0  0  0  0
   25.2916  -15.6358  -18.4855 C   0  0  0  0  0  0  0  0  0  0  0  0
   26.5463  -16.3155  -17.9910 C   0  0  0  0  0  0  0  0  0  0  0  0
   27.5376  -16.2071  -19.0489 N   0  0  0  0  0  0  0  0  0  0  0  0
   20.6373  -14.4006  -17.1379 C   0  0  0  0  0  0  0  0  0  0  0  0
   19.7248  -14.8347  -17.9212 O   0  0  0  0  0  0  0  0  0  0  0  0
   20.3795  -13.1301  -16.5579 N   0  0  0  0  0  0  0  0  0  0  0  0
   19.1555  -12.3906  -16.8194 C   0  0  0  0  0  0  0  0  0  0  0  0
   19.0992  -11.1285  -16.0563 C   0  0  0  0  0  0  0  0  0  0  0  0
   20.0249  -10.8467  -15.2698 O   0  0  0  0  0  0  0  0  0  0  0  0
   18.0439  -10.2558  -16.1959 O   0  0  0  0  0  0  0  0  0  0  0  0
  2  7  1  0
  2  1  1  1
  3  2  1  0
  4  3  1  0
  5  4  1  0
  6  5  2  0
  7  8  2  0
  9  5  1  0
 10 11  1  0
 10  7  1  0
 11 12  1  6
 12 13  1  0
 14 13  1  0
 14 15  1  0
 16 15  1  0
 17 11  1  0
 18 17  2  0
 19 17  1  0
 20 21  1  0
 20 19  1  0
 21 23  1  0
 22 21  2  0
M  END
$$$$
