EKG.pdb
     RDKit          3D

 23 22  0  0  1  0  0  0  0  0999 V2000
   27.7457  -34.6424  -13.6764 N   0  0  0  0  0  0  0  0  0  0  0  0
   27.2787  -33.3450  -14.0080 C   0  0  1  0  0  0  0  0  0  0  0  0
   26.9650  -33.2115  -15.4552 C   0  0  0  0  0  0  0  0  0  0  0  0
   28.0813  -33.2740  -16.4180 C   0  0  0  0  0  0  0  0  0  0  0  0
   29.2588  -32.4478  -16.1813 C   0  0  0  0  0  0  0  0  0  0  0  0
   30.4095  -32.8812  -16.0965 O   0  0  0  0  0  0  0  0  0  0  0  0
   26.1217  -32.8868  -13.1574 C   0  0  0  0  0  0  0  0  0  0  0  0
   25.3950  -31.9444  -13.5751 O   0  0  0  0  0  0  0  0  0  0  0  0
   29.1436  -31.0417  -16.0288 O   0  0  0  0  0  0  0  0  0  0  0  0
   25.7879  -33.4447  -11.9100 N   0  0  0  0  0  0  0  0  0  0  0  0
   24.6457  -32.9178  -11.1116 C   0  0  1  0  0  0  0  0  0  0  0  0
   23.3964  -33.6086  -11.5886 C   0  0  0  0  0  0  0  0  0  0  0  0
   22.2019  -33.1110  -10.8661 C   0  0  0  0  0  0  0  0  0  0  0  0
   21.8722  -31.6664  -11.2417 C   0  0  0  0  0  0  0  0  0  0  0  0
   20.6085  -31.2009  -10.5581 C   0  0  0  0  0  0  0  0  0  0  0  0
   20.4031  -29.8124  -10.9369 N   0  0  0  0  0  0  0  0  0  0  0  0
   24.9760  -33.0865   -9.7010 C   0  0  0  0  0  0  0  0  0  0  0  0
   24.7654  -34.2302   -9.1699 O   0  0  0  0  0  0  0  0  0  0  0  0
   25.5208  -32.1076   -8.8281 N   0  0  0  0  0  0  0  0  0  0  0  0
   25.7879  -32.3801   -7.4253 C   0  0  0  0  0  0  0  0  0  0  0  0
   26.7812  -33.4578   -7.2516 C   0  0  0  0  0  0  0  0  0  0  0  0
   27.1101  -34.1516   -8.2343 O   0  0  0  0  0  0  0  0  0  0  0  0
   27.3521  -33.7123   -6.0252 O   0  0  0  0  0  0  0  0  0  0  0  0
  2  7  1  0
  2  1  1  6
  3  2  1  0
  4  3  1  0
  5  4  1  0
  6  5  2  0
  7  8  2  0
  9  5  1  0
 10 11  1  0
 10  7  1  0
 11 12  1  6
 12 13  1  0
 14 13  1  0
 14 15  1  0
 16 15  1  0
 17 11  1  0
 18 17  2  0
 19 17  1  0
 20 21  1  0
 20 19  1  0
 21 23  1  0
 22 21  2  0
M  END
$$$$
