DDY.pdb
     RDKit          3D

 29 29  0  0  1  0  0  0  0  0999 V2000
    9.0907  -14.8422   20.7309 N   0  0  0  0  0  0  0  0  0  0  0  0
    7.9293  -15.4993   21.2830 C   0  0  1  0  0  0  0  0  0  0  0  0
    7.1980  -16.3673   20.2912 C   0  0  0  0  0  0  0  0  0  0  0  0
    7.4306  -15.9347   18.8962 C   0  0  0  0  0  0  0  0  0  0  0  0
    8.4291  -15.2160   18.6507 O   0  0  0  0  0  0  0  0  0  0  0  0
    8.3451  -16.2654   22.4811 C   0  0  0  0  0  0  0  0  0  0  0  0
    7.5317  -16.8700   23.2325 O   0  0  0  0  0  0  0  0  0  0  0  0
    6.6063  -16.2792   17.8418 O   0  0  0  0  0  0  0  0  0  0  0  0
    9.7237  -16.3263   22.8061 N   0  0  0  0  0  0  0  0  0  0  0  0
   10.1813  -17.1598   23.8891 C   0  0  1  0  0  0  0  0  0  0  0  0
   11.4415  -17.8523   23.4219 C   0  0  0  0  0  0  0  0  0  0  0  0
   11.8093  -18.8243   24.4970 C   0  0  0  0  0  0  0  0  0  0  0  0
   12.8649  -18.6011   25.1386 O   0  0  0  0  0  0  0  0  0  0  0  0
   10.4096  -16.3109   25.0737 C   0  0  0  0  0  0  0  0  0  0  0  0
   11.1529  -15.2784   24.9875 O   0  0  0  0  0  0  0  0  0  0  0  0
   11.0619  -19.9402   24.8209 O   0  0  0  0  0  0  0  0  0  0  0  0
    6.3893  -11.2595   24.6808 O   0  0  0  0  0  0  0  0  0  0  0  0
    6.9817  -12.2191   25.5075 C   0  0  0  0  0  0  0  0  0  0  0  0
    6.3004  -13.3473   25.9071 C   0  0  0  0  0  0  0  0  0  0  0  0
    6.8982  -14.2852   26.7233 C   0  0  0  0  0  0  0  0  0  0  0  0
    8.1884  -14.1532   27.1803 C   0  0  0  0  0  0  0  0  0  0  0  0
    8.8607  -15.1237   28.0608 C   0  0  0  0  0  0  0  0  0  0  0  0
   10.1301  -15.7146   27.4881 C   0  0  2  0  0  0  0  0  0  0  0  0
    9.8482  -16.5593   26.3463 N   0  0  0  0  0  0  0  0  0  0  0  0
   10.7701  -16.5412   28.5247 C   0  0  0  0  0  0  0  0  0  0  0  0
   11.2689  -15.8832   29.6615 O   0  0  0  0  0  0  0  0  0  0  0  0
    8.8625  -13.0120   26.7690 C   0  0  0  0  0  0  0  0  0  0  0  0
    8.2706  -12.0654   25.9496 C   0  0  0  0  0  0  0  0  0  0  0  0
   10.8886  -17.7940   28.4404 O   0  0  0  0  0  0  0  0  0  0  0  0
  2  1  1  6
  2  3  1  0
  2  6  1  0
  3  4  1  0
  4  5  2  0
  4  8  1  0
  6  7  2  0
  9  6  1  0
  9 10  1  0
 10 11  1  6
 12 11  1  0
 13 12  2  0
 14 10  1  0
 14 15  2  0
 16 12  1  0
 18 19  2  0
 18 17  1  0
 20 19  1  0
 21 20  2  0
 22 21  1  0
 23 24  1  0
 23 22  1  1
 24 14  1  0
 25 23  1  0
 26 25  1  0
 27 21  1  0
 27 28  2  0
 28 18  1  0
 29 25  2  0
M  END
$$$$
