DDY.pdb
     RDKit          3D

 29 29  0  0  1  0  0  0  0  0999 V2000
    9.5282  -15.3967   20.6964 N   0  0  0  0  0  0  0  0  0  0  0  0
    8.2781  -14.8411   21.1587 C   0  0  1  0  0  0  0  0  0  0  0  0
    7.1886  -14.8561   20.1172 C   0  0  0  0  0  0  0  0  0  0  0  0
    7.5498  -15.6850   18.9468 C   0  0  0  0  0  0  0  0  0  0  0  0
    6.9627  -16.7820   18.7859 O   0  0  0  0  0  0  0  0  0  0  0  0
    7.8699  -15.5565   22.3903 C   0  0  0  0  0  0  0  0  0  0  0  0
    6.7865  -15.3297   22.9955 O   0  0  0  0  0  0  0  0  0  0  0  0
    8.5021  -15.3179   18.0151 O   0  0  0  0  0  0  0  0  0  0  0  0
    8.7350  -16.5462   22.9213 N   0  0  0  0  0  0  0  0  0  0  0  0
    8.4310  -17.1815   24.1789 C   0  0  1  0  0  0  0  0  0  0  0  0
    8.6788  -18.6629   24.0056 C   0  0  0  0  0  0  0  0  0  0  0  0
    8.2169  -19.3160   25.2689 C   0  0  0  0  0  0  0  0  0  0  0  0
    7.1741  -18.8649   25.8026 O   0  0  0  0  0  0  0  0  0  0  0  0
    9.2817  -16.5854   25.2262 C   0  0  0  0  0  0  0  0  0  0  0  0
   10.4883  -16.2657   24.9656 O   0  0  0  0  0  0  0  0  0  0  0  0
    8.8645  -20.3757   25.8743 O   0  0  0  0  0  0  0  0  0  0  0  0
    6.4812  -10.7205   25.0789 O   0  0  0  0  0  0  0  0  0  0  0  0
    7.1225  -11.6765   25.8726 C   0  0  0  0  0  0  0  0  0  0  0  0
    8.4892  -11.6743   26.0427 C   0  0  0  0  0  0  0  0  0  0  0  0
    9.1078  -12.6244   26.8287 C   0  0  0  0  0  0  0  0  0  0  0  0
    8.4100  -13.6149   27.4789 C   0  0  0  0  0  0  0  0  0  0  0  0
    9.0307  -14.6541   28.3178 C   0  0  0  0  0  0  0  0  0  0  0  0
    9.7271  -15.7513   27.5433 C   0  0  2  0  0  0  0  0  0  0  0  0
    8.8499  -16.3296   26.5470 N   0  0  0  0  0  0  0  0  0  0  0  0
   10.1166  -16.8136   28.4852 C   0  0  0  0  0  0  0  0  0  0  0  0
   11.0334  -16.4790   29.4960 O   0  0  0  0  0  0  0  0  0  0  0  0
    7.0339  -13.6041   27.2988 C   0  0  0  0  0  0  0  0  0  0  0  0
    6.4043  -12.6542   26.5119 C   0  0  0  0  0  0  0  0  0  0  0  0
    9.6711  -17.9921   28.4275 O   0  0  0  0  0  0  0  0  0  0  0  0
  2  1  1  6
  2  3  1  0
  2  6  1  0
  3  4  1  0
  4  5  2  0
  4  8  1  0
  6  7  2  0
  9  6  1  0
  9 10  1  0
 10 11  1  6
 12 11  1  0
 13 12  2  0
 14 10  1  0
 14 15  2  0
 16 12  1  0
 18 19  2  0
 18 17  1  0
 20 19  1  0
 21 20  2  0
 22 21  1  0
 23 24  1  0
 23 22  1  1
 24 14  1  0
 25 23  1  0
 26 25  1  0
 27 21  1  0
 27 28  2  0
 28 18  1  0
 29 25  2  0
M  END
$$$$
