DDY.pdb
     RDKit          3D

 29 29  0  0  1  0  0  0  0  0999 V2000
    8.8612  -18.2928   17.9179 N   0  0  0  0  0  0  0  0  0  0  0  0
    8.9261  -16.9652   18.4823 C   0  0  1  0  0  0  0  0  0  0  0  0
    8.1911  -15.9279   17.6724 C   0  0  0  0  0  0  0  0  0  0  0  0
    8.5965  -15.9434   16.2501 C   0  0  0  0  0  0  0  0  0  0  0  0
    9.7527  -16.3354   15.9612 O   0  0  0  0  0  0  0  0  0  0  0  0
    8.4340  -17.0210   19.8787 C   0  0  0  0  0  0  0  0  0  0  0  0
    7.3344  -16.5230   20.2454 O   0  0  0  0  0  0  0  0  0  0  0  0
    7.7697  -15.5487   15.2155 O   0  0  0  0  0  0  0  0  0  0  0  0
    9.2334  -17.6640   20.8573 N   0  0  0  0  0  0  0  0  0  0  0  0
    8.7767  -17.7644   22.2206 C   0  0  1  0  0  0  0  0  0  0  0  0
    8.7700  -19.2315   22.5856 C   0  0  0  0  0  0  0  0  0  0  0  0
   10.1693  -19.7196   22.3871 C   0  0  0  0  0  0  0  0  0  0  0  0
   10.7001  -19.5077   21.2694 O   0  0  0  0  0  0  0  0  0  0  0  0
    9.6779  -16.9730   23.0794 C   0  0  0  0  0  0  0  0  0  0  0  0
   10.9123  -16.8608   22.7799 O   0  0  0  0  0  0  0  0  0  0  0  0
   10.9027  -20.3820   23.3526 O   0  0  0  0  0  0  0  0  0  0  0  0
    5.0615  -12.1524   27.0278 O   0  0  0  0  0  0  0  0  0  0  0  0
    6.2666  -12.6239   26.4981 C   0  0  0  0  0  0  0  0  0  0  0  0
    6.3615  -13.0573   25.1942 C   0  0  0  0  0  0  0  0  0  0  0  0
    7.5574  -13.5202   24.6857 C   0  0  0  0  0  0  0  0  0  0  0  0
    8.7080  -13.5768   25.4366 C   0  0  0  0  0  0  0  0  0  0  0  0
   10.0016  -14.0734   24.9375 C   0  0  0  0  0  0  0  0  0  0  0  0
   10.1979  -15.5664   25.0829 C   0  0  2  0  0  0  0  0  0  0  0  0
    9.2670  -16.3022   24.2531 N   0  0  0  0  0  0  0  0  0  0  0  0
    9.9532  -15.9355   26.4870 C   0  0  0  0  0  0  0  0  0  0  0  0
   10.8897  -15.5060   27.4423 O   0  0  0  0  0  0  0  0  0  0  0  0
    8.5974  -13.1364   26.7480 C   0  0  0  0  0  0  0  0  0  0  0  0
    7.4012  -12.6698   27.2669 C   0  0  0  0  0  0  0  0  0  0  0  0
    8.9562  -16.6086   26.8656 O   0  0  0  0  0  0  0  0  0  0  0  0
  2  1  1  6
  2  3  1  0
  2  6  1  0
  3  4  1  0
  4  5  2  0
  4  8  1  0
  6  7  2  0
  9  6  1  0
  9 10  1  0
 10 11  1  1
 12 11  1  0
 13 12  2  0
 14 10  1  0
 14 15  2  0
 16 12  1  0
 18 19  2  0
 18 17  1  0
 20 19  1  0
 21 20  2  0
 22 21  1  0
 23 24  1  0
 23 22  1  1
 24 14  1  0
 25 23  1  0
 26 25  1  0
 27 21  1  0
 27 28  2  0
 28 18  1  0
 29 25  2  0
M  END
$$$$
