DDY.pdb
     RDKit          3D

 29 29  0  0  1  0  0  0  0  0999 V2000
    9.5031  -15.2938   19.1319 N   0  0  0  0  0  0  0  0  0  0  0  0
    8.5458  -14.5387   19.9057 C   0  0  1  0  0  0  0  0  0  0  0  0
    7.3790  -14.0335   19.0962 C   0  0  0  0  0  0  0  0  0  0  0  0
    7.8106  -13.4213   17.8210 C   0  0  0  0  0  0  0  0  0  0  0  0
    9.0282  -13.4577   17.5211 O   0  0  0  0  0  0  0  0  0  0  0  0
    8.1018  -15.3699   21.0490 C   0  0  0  0  0  0  0  0  0  0  0  0
    7.1235  -15.0672   21.7858 O   0  0  0  0  0  0  0  0  0  0  0  0
    6.9442  -12.8082   16.9359 O   0  0  0  0  0  0  0  0  0  0  0  0
    8.8068  -16.5660   21.3358 N   0  0  0  0  0  0  0  0  0  0  0  0
    8.3434  -17.4550   22.3714 C   0  0  1  0  0  0  0  0  0  0  0  0
    8.7623  -18.8547   21.9829 C   0  0  0  0  0  0  0  0  0  0  0  0
    8.2985  -19.0563   20.5758 C   0  0  0  0  0  0  0  0  0  0  0  0
    7.0621  -19.0073   20.3644 O   0  0  0  0  0  0  0  0  0  0  0  0
    8.9273  -17.0269   23.6565 C   0  0  0  0  0  0  0  0  0  0  0  0
   10.1321  -16.6122   23.7056 O   0  0  0  0  0  0  0  0  0  0  0  0
    9.1433  -19.2898   19.5079 O   0  0  0  0  0  0  0  0  0  0  0  0
    6.5619  -10.6708   25.5584 O   0  0  0  0  0  0  0  0  0  0  0  0
    6.9104  -11.9710   25.9366 C   0  0  0  0  0  0  0  0  0  0  0  0
    8.1842  -12.2837   26.3567 C   0  0  0  0  0  0  0  0  0  0  0  0
    8.5132  -13.5714   26.7264 C   0  0  0  0  0  0  0  0  0  0  0  0
    7.6055  -14.6039   26.6980 C   0  0  0  0  0  0  0  0  0  0  0  0
    7.9169  -15.9937   27.0732 C   0  0  0  0  0  0  0  0  0  0  0  0
    8.8754  -16.6957   26.1366 C   0  0  2  0  0  0  0  0  0  0  0  0
    8.2313  -17.0395   24.8861 N   0  0  0  0  0  0  0  0  0  0  0  0
    9.3281  -17.9410   26.7782 C   0  0  0  0  0  0  0  0  0  0  0  0
   10.2327  -17.8272   27.8473 O   0  0  0  0  0  0  0  0  0  0  0  0
    6.3262  -14.2738   26.2732 C   0  0  0  0  0  0  0  0  0  0  0  0
    5.9868  -12.9840   25.9005 C   0  0  0  0  0  0  0  0  0  0  0  0
    8.9461  -19.0877   26.4180 O   0  0  0  0  0  0  0  0  0  0  0  0
  2  1  1  6
  2  3  1  0
  2  6  1  0
  3  4  1  0
  4  5  2  0
  4  8  1  0
  6  7  2  0
  9  6  1  0
  9 10  1  0
 10 11  1  6
 12 11  1  0
 13 12  2  0
 14 10  1  0
 14 15  2  0
 16 12  1  0
 18 19  2  0
 18 17  1  0
 20 19  1  0
 21 20  2  0
 22 21  1  0
 23 24  1  0
 23 22  1  1
 24 14  1  0
 25 23  1  0
 26 25  1  0
 27 21  1  0
 27 28  2  0
 28 18  1  0
 29 25  2  0
M  END
$$$$
