DDY.pdb
     RDKit          3D

 29 29  0  0  1  0  0  0  0  0999 V2000
    8.4686  -19.0766   16.8469 N   0  0  0  0  0  0  0  0  0  0  0  0
    9.0855  -17.9322   17.4754 C   0  0  1  0  0  0  0  0  0  0  0  0
    8.5879  -16.6114   16.9464 C   0  0  0  0  0  0  0  0  0  0  0  0
    9.2198  -16.2550   15.6576 C   0  0  0  0  0  0  0  0  0  0  0  0
   10.0635  -17.0428   15.1662 O   0  0  0  0  0  0  0  0  0  0  0  0
    8.9003  -18.0413   18.9413 C   0  0  0  0  0  0  0  0  0  0  0  0
    7.8289  -17.7268   19.5287 O   0  0  0  0  0  0  0  0  0  0  0  0
    8.9320  -15.0974   14.9597 O   0  0  0  0  0  0  0  0  0  0  0  0
    9.9760  -18.5217   19.7299 N   0  0  0  0  0  0  0  0  0  0  0  0
    9.7977  -18.7566   21.1407 C   0  0  1  0  0  0  0  0  0  0  0  0
   10.6797  -19.9255   21.5168 C   0  0  0  0  0  0  0  0  0  0  0  0
   10.0165  -21.1464   20.9643 C   0  0  0  0  0  0  0  0  0  0  0  0
   10.7322  -21.9457   20.3126 O   0  0  0  0  0  0  0  0  0  0  0  0
   10.1502  -17.5250   21.8721 C   0  0  0  0  0  0  0  0  0  0  0  0
   11.2736  -16.9579   21.6665 O   0  0  0  0  0  0  0  0  0  0  0  0
    8.6769  -21.4416   21.1290 O   0  0  0  0  0  0  0  0  0  0  0  0
    7.0394  -13.0584   18.1243 O   0  0  0  0  0  0  0  0  0  0  0  0
    7.4214  -13.4397   19.4142 C   0  0  0  0  0  0  0  0  0  0  0  0
    8.6891  -13.1949   19.8937 C   0  0  0  0  0  0  0  0  0  0  0  0
    9.0514  -13.5775   21.1687 C   0  0  0  0  0  0  0  0  0  0  0  0
    8.1844  -14.2160   22.0239 C   0  0  0  0  0  0  0  0  0  0  0  0
    8.5327  -14.6510   23.3872 C   0  0  0  0  0  0  0  0  0  0  0  0
    9.6684  -15.6481   23.4557 C   0  0  2  0  0  0  0  0  0  0  0  0
    9.3096  -16.8981   22.8191 N   0  0  0  0  0  0  0  0  0  0  0  0
    9.9653  -15.9218   24.8715 C   0  0  0  0  0  0  0  0  0  0  0  0
   10.5285  -14.8805   25.6283 O   0  0  0  0  0  0  0  0  0  0  0  0
    6.9107  -14.4554   21.5273 C   0  0  0  0  0  0  0  0  0  0  0  0
    6.5380  -14.0747   20.2490 C   0  0  0  0  0  0  0  0  0  0  0  0
    9.7400  -17.0311   25.4275 O   0  0  0  0  0  0  0  0  0  0  0  0
  2  1  1  6
  2  3  1  0
  2  6  1  0
  3  4  1  0
  4  5  2  0
  4  8  1  0
  6  7  2  0
  9  6  1  0
  9 10  1  0
 10 11  1  1
 12 11  1  0
 13 12  2  0
 14 10  1  0
 14 15  2  0
 16 12  1  0
 18 19  2  0
 18 17  1  0
 20 19  1  0
 21 20  2  0
 22 21  1  0
 23 24  1  0
 23 22  1  1
 24 14  1  0
 25 23  1  0
 26 25  1  0
 27 21  1  0
 27 28  2  0
 28 18  1  0
 29 25  2  0
M  END
$$$$
