DDY.pdb
     RDKit          3D

 29 29  0  0  1  0  0  0  0  0999 V2000
    9.4193  -12.7988   19.5881 N   0  0  0  0  0  0  0  0  0  0  0  0
    8.1373  -13.4106   19.8477 C   0  0  1  0  0  0  0  0  0  0  0  0
    7.3163  -13.6432   18.6052 C   0  0  0  0  0  0  0  0  0  0  0  0
    8.0743  -14.3744   17.5669 C   0  0  0  0  0  0  0  0  0  0  0  0
    9.2406  -14.7530   17.8319 O   0  0  0  0  0  0  0  0  0  0  0  0
    8.3573  -14.6660   20.6032 C   0  0  0  0  0  0  0  0  0  0  0  0
    7.4440  -15.5061   20.8302 O   0  0  0  0  0  0  0  0  0  0  0  0
    7.5681  -14.6664   16.3146 O   0  0  0  0  0  0  0  0  0  0  0  0
    9.6561  -14.9437   21.0991 N   0  0  0  0  0  0  0  0  0  0  0  0
    9.9086  -16.1498   21.8467 C   0  0  1  0  0  0  0  0  0  0  0  0
   11.2918  -16.6305   21.4706 C   0  0  0  0  0  0  0  0  0  0  0  0
   11.1656  -17.2549   20.1179 C   0  0  0  0  0  0  0  0  0  0  0  0
   10.3044  -18.1576   19.9783 O   0  0  0  0  0  0  0  0  0  0  0  0
    9.7878  -15.8470   23.2853 C   0  0  0  0  0  0  0  0  0  0  0  0
   10.4009  -14.8455   23.7822 O   0  0  0  0  0  0  0  0  0  0  0  0
   11.9332  -16.8986   19.0258 O   0  0  0  0  0  0  0  0  0  0  0  0
    6.6840  -10.3973   26.9042 O   0  0  0  0  0  0  0  0  0  0  0  0
    6.9015  -11.7604   26.6808 C   0  0  0  0  0  0  0  0  0  0  0  0
    6.5817  -12.3552   25.4805 C   0  0  0  0  0  0  0  0  0  0  0  0
    6.8018  -13.7015   25.2751 C   0  0  0  0  0  0  0  0  0  0  0  0
    7.3441  -14.5180   26.2395 C   0  0  0  0  0  0  0  0  0  0  0  0
    7.5856  -15.9604   26.0664 C   0  0  0  0  0  0  0  0  0  0  0  0
    8.9847  -16.3110   25.6097 C   0  0  2  0  0  0  0  0  0  0  0  0
    9.0164  -16.6073   24.1928 N   0  0  0  0  0  0  0  0  0  0  0  0
    9.4282  -17.5098   26.3402 C   0  0  0  0  0  0  0  0  0  0  0  0
    9.5826  -18.6967   25.6042 O   0  0  0  0  0  0  0  0  0  0  0  0
    7.6619  -13.9047   27.4433 C   0  0  0  0  0  0  0  0  0  0  0  0
    7.4448  -12.5539   27.6583 C   0  0  0  0  0  0  0  0  0  0  0  0
    9.6728  -17.5196   27.5774 O   0  0  0  0  0  0  0  0  0  0  0  0
  2  1  1  6
  2  3  1  0
  2  6  1  0
  3  4  1  0
  4  5  2  0
  4  8  1  0
  6  7  2  0
  9  6  1  0
  9 10  1  0
 10 11  1  1
 12 11  1  0
 13 12  2  0
 14 10  1  0
 14 15  2  0
 16 12  1  0
 18 19  2  0
 18 17  1  0
 20 19  1  0
 21 20  2  0
 22 21  1  0
 23 24  1  0
 23 22  1  1
 24 14  1  0
 25 23  1  0
 26 25  1  0
 27 21  1  0
 27 28  2  0
 28 18  1  0
 29 25  2  0
M  END
$$$$
