DDY.pdb
     RDKit          3D

 29 29  0  0  1  0  0  0  0  0999 V2000
    9.5055  -16.8070   17.8794 N   0  0  0  0  0  0  0  0  0  0  0  0
    8.4804  -17.5287   18.5962 C   0  0  1  0  0  0  0  0  0  0  0  0
    7.8976  -18.6812   17.8190 C   0  0  0  0  0  0  0  0  0  0  0  0
    8.9189  -19.3768   17.0064 C   0  0  0  0  0  0  0  0  0  0  0  0
    8.5586  -20.3406   16.2887 O   0  0  0  0  0  0  0  0  0  0  0  0
    9.0351  -17.9689   19.8977 C   0  0  0  0  0  0  0  0  0  0  0  0
    8.3917  -18.6768   20.7201 O   0  0  0  0  0  0  0  0  0  0  0  0
   10.2548  -19.0234   16.9922 O   0  0  0  0  0  0  0  0  0  0  0  0
   10.3535  -17.5786   20.2431 N   0  0  0  0  0  0  0  0  0  0  0  0
   10.8732  -17.8511   21.5596 C   0  0  1  0  0  0  0  0  0  0  0  0
   12.3698  -18.0188   21.4262 C   0  0  0  0  0  0  0  0  0  0  0  0
   12.8706  -18.4083   22.7802 C   0  0  0  0  0  0  0  0  0  0  0  0
   13.5784  -17.5732   23.3946 O   0  0  0  0  0  0  0  0  0  0  0  0
   10.5073  -16.7347   22.4515 C   0  0  0  0  0  0  0  0  0  0  0  0
   11.1269  -15.6230   22.3726 O   0  0  0  0  0  0  0  0  0  0  0  0
   12.6013  -19.6202   23.3864 O   0  0  0  0  0  0  0  0  0  0  0  0
    7.2346  -13.0590   18.6161 O   0  0  0  0  0  0  0  0  0  0  0  0
    7.3454  -13.5919   19.9041 C   0  0  0  0  0  0  0  0  0  0  0  0
    6.6537  -14.7221   20.2796 C   0  0  0  0  0  0  0  0  0  0  0  0
    6.7729  -15.2360   21.5543 C   0  0  0  0  0  0  0  0  0  0  0  0
    7.5752  -14.6610   22.5117 C   0  0  0  0  0  0  0  0  0  0  0  0
    7.7230  -15.1696   23.8859 C   0  0  0  0  0  0  0  0  0  0  0  0
    9.1147  -15.6544   24.2282 C   0  0  2  0  0  0  0  0  0  0  0  0
    9.4846  -16.8004   23.4243 N   0  0  0  0  0  0  0  0  0  0  0  0
    9.1335  -16.0599   25.6433 C   0  0  0  0  0  0  0  0  0  0  0  0
    9.4472  -17.3993   25.9292 O   0  0  0  0  0  0  0  0  0  0  0  0
    8.2663  -13.5234   22.1188 C   0  0  0  0  0  0  0  0  0  0  0  0
    8.1531  -13.0006   20.8413 C   0  0  0  0  0  0  0  0  0  0  0  0
    8.8853  -15.2718   26.5961 O   0  0  0  0  0  0  0  0  0  0  0  0
  2  1  1  6
  2  3  1  0
  2  6  1  0
  3  4  1  0
  4  5  2  0
  4  8  1  0
  6  7  2  0
  9  6  1  0
  9 10  1  0
 10 11  1  6
 12 11  1  0
 13 12  2  0
 14 10  1  0
 14 15  2  0
 16 12  1  0
 18 19  2  0
 18 17  1  0
 20 19  1  0
 21 20  2  0
 22 21  1  0
 23 24  1  0
 23 22  1  6
 24 14  1  0
 25 23  1  0
 26 25  1  0
 27 21  1  0
 27 28  2  0
 28 18  1  0
 29 25  2  0
M  END
$$$$
