DDY.pdb
     RDKit          3D

 29 29  0  0  1  0  0  0  0  0999 V2000
    6.7092  -18.7510   18.8748 N   0  0  0  0  0  0  0  0  0  0  0  0
    7.6856  -18.0251   19.6525 C   0  0  1  0  0  0  0  0  0  0  0  0
    8.0863  -16.7071   19.0406 C   0  0  0  0  0  0  0  0  0  0  0  0
    8.8395  -16.8854   17.7804 C   0  0  0  0  0  0  0  0  0  0  0  0
    9.4360  -17.9721   17.5879 O   0  0  0  0  0  0  0  0  0  0  0  0
    7.1620  -17.8550   21.0281 C   0  0  0  0  0  0  0  0  0  0  0  0
    6.1821  -17.1115   21.3085 O   0  0  0  0  0  0  0  0  0  0  0  0
    8.9240  -15.9179   16.7972 O   0  0  0  0  0  0  0  0  0  0  0  0
    7.7885  -18.5591   22.0872 N   0  0  0  0  0  0  0  0  0  0  0  0
    7.2442  -18.5056   23.4207 C   0  0  1  0  0  0  0  0  0  0  0  0
    6.9809  -19.9292   23.8562 C   0  0  0  0  0  0  0  0  0  0  0  0
    8.2735  -20.6632   23.6949 C   0  0  0  0  0  0  0  0  0  0  0  0
    9.2600  -20.0078   23.2788 O   0  0  0  0  0  0  0  0  0  0  0  0
    8.2102  -17.8165   24.2970 C   0  0  0  0  0  0  0  0  0  0  0  0
    9.4557  -17.8472   24.0256 O   0  0  0  0  0  0  0  0  0  0  0  0
    8.4420  -22.0056   23.9751 O   0  0  0  0  0  0  0  0  0  0  0  0
    7.2091  -11.3239   22.6810 O   0  0  0  0  0  0  0  0  0  0  0  0
    7.4629  -12.2501   23.6973 C   0  0  0  0  0  0  0  0  0  0  0  0
    6.5564  -12.4785   24.7087 C   0  0  0  0  0  0  0  0  0  0  0  0
    6.8211  -13.3953   25.7049 C   0  0  0  0  0  0  0  0  0  0  0  0
    7.9861  -14.1244   25.7487 C   0  0  0  0  0  0  0  0  0  0  0  0
    8.3135  -15.1042   26.7984 C   0  0  0  0  0  0  0  0  0  0  0  0
    8.8376  -16.4256   26.2806 C   0  0  2  0  0  0  0  0  0  0  0  0
    7.8521  -17.0962   25.4586 N   0  0  0  0  0  0  0  0  0  0  0  0
    9.1420  -17.2912   27.4319 C   0  0  0  0  0  0  0  0  0  0  0  0
   10.2027  -16.9063   28.2692 O   0  0  0  0  0  0  0  0  0  0  0  0
    8.8896  -13.8841   24.7230 C   0  0  0  0  0  0  0  0  0  0  0  0
    8.6323  -12.9660   23.7186 C   0  0  0  0  0  0  0  0  0  0  0  0
    8.5033  -18.3458   27.6971 O   0  0  0  0  0  0  0  0  0  0  0  0
  2  1  1  6
  2  3  1  0
  2  6  1  0
  3  4  1  0
  4  5  2  0
  4  8  1  0
  6  7  2  0
  9  6  1  0
  9 10  1  0
 10 11  1  1
 12 11  1  0
 13 12  2  0
 14 10  1  0
 14 15  2  0
 16 12  1  0
 18 19  2  0
 18 17  1  0
 20 19  1  0
 21 20  2  0
 22 21  1  0
 23 24  1  0
 23 22  1  1
 24 14  1  0
 25 23  1  0
 26 25  1  0
 27 21  1  0
 27 28  2  0
 28 18  1  0
 29 25  2  0
M  END
$$$$
