DDY.pdb
     RDKit          3D

 29 29  0  0  1  0  0  0  0  0999 V2000
   12.8600  -19.3022   17.7746 N   0  0  0  0  0  0  0  0  0  0  0  0
   12.3693  -17.9809   18.0889 C   0  0  1  0  0  0  0  0  0  0  0  0
   11.8904  -17.2121   16.8840 C   0  0  0  0  0  0  0  0  0  0  0  0
   12.9764  -16.9743   15.9086 C   0  0  0  0  0  0  0  0  0  0  0  0
   14.1563  -16.9096   16.3300 O   0  0  0  0  0  0  0  0  0  0  0  0
   11.3109  -18.1027   19.1185 C   0  0  0  0  0  0  0  0  0  0  0  0
   10.0786  -18.0479   18.8539 O   0  0  0  0  0  0  0  0  0  0  0  0
   12.7644  -16.8189   14.5519 O   0  0  0  0  0  0  0  0  0  0  0  0
   11.6943  -18.2899   20.4705 N   0  0  0  0  0  0  0  0  0  0  0  0
   10.6951  -18.4734   21.4929 C   0  0  1  0  0  0  0  0  0  0  0  0
   10.5933  -19.9578   21.7607 C   0  0  0  0  0  0  0  0  0  0  0  0
    9.1904  -20.2072   22.2139 C   0  0  0  0  0  0  0  0  0  0  0  0
    9.0332  -20.6895   23.3621 O   0  0  0  0  0  0  0  0  0  0  0  0
   11.0986  -17.7101   22.6890 C   0  0  0  0  0  0  0  0  0  0  0  0
   12.3343  -17.5593   22.9652 O   0  0  0  0  0  0  0  0  0  0  0  0
    8.0707  -19.9394   21.4500 O   0  0  0  0  0  0  0  0  0  0  0  0
   10.7699  -13.9080   30.7551 O   0  0  0  0  0  0  0  0  0  0  0  0
   10.4453  -14.4027   29.4882 C   0  0  0  0  0  0  0  0  0  0  0  0
   10.1206  -15.7267   29.2918 C   0  0  0  0  0  0  0  0  0  0  0  0
    9.8028  -16.2003   28.0357 C   0  0  0  0  0  0  0  0  0  0  0  0
    9.7916  -15.3937   26.9220 C   0  0  0  0  0  0  0  0  0  0  0  0
    9.4693  -15.8597   25.5626 C   0  0  0  0  0  0  0  0  0  0  0  0
   10.6250  -16.5075   24.8320 C   0  0  2  0  0  0  0  0  0  0  0  0
   10.1901  -17.1086   23.5886 N   0  0  0  0  0  0  0  0  0  0  0  0
   11.1817  -17.5695   25.6862 C   0  0  0  0  0  0  0  0  0  0  0  0
   12.3088  -17.2521   26.4626 O   0  0  0  0  0  0  0  0  0  0  0  0
   10.1202  -14.0623   27.1354 C   0  0  0  0  0  0  0  0  0  0  0  0
   10.4401  -13.5780   28.3927 C   0  0  0  0  0  0  0  0  0  0  0  0
   10.6998  -18.7331   25.7522 O   0  0  0  0  0  0  0  0  0  0  0  0
  2  1  1  6
  2  3  1  0
  2  6  1  0
  3  4  1  0
  4  5  2  0
  4  8  1  0
  6  7  2  0
  9  6  1  0
  9 10  1  0
 10 11  1  1
 12 11  1  0
 13 12  2  0
 14 10  1  0
 14 15  2  0
 16 12  1  0
 18 19  2  0
 18 17  1  0
 20 19  1  0
 21 20  2  0
 22 21  1  0
 23 24  1  0
 23 22  1  1
 24 14  1  0
 25 23  1  0
 26 25  1  0
 27 21  1  0
 27 28  2  0
 28 18  1  0
 29 25  2  0
M  END
$$$$
