DDY.pdb
     RDKit          3D

 29 29  0  0  1  0  0  0  0  0999 V2000
    8.5261  -17.3882   15.6223 N   0  0  0  0  0  0  0  0  0  0  0  0
    9.8045  -17.4820   16.2872 C   0  0  1  0  0  0  0  0  0  0  0  0
   10.6831  -16.2748   16.0802 C   0  0  0  0  0  0  0  0  0  0  0  0
   11.1176  -16.1382   14.6732 C   0  0  0  0  0  0  0  0  0  0  0  0
   10.8519  -17.0659   13.8716 O   0  0  0  0  0  0  0  0  0  0  0  0
    9.5703  -17.7502   17.7254 C   0  0  0  0  0  0  0  0  0  0  0  0
    8.4713  -17.5228   18.3017 O   0  0  0  0  0  0  0  0  0  0  0  0
   11.8031  -15.0405   14.1883 O   0  0  0  0  0  0  0  0  0  0  0  0
   10.6292  -18.2888   18.4991 N   0  0  0  0  0  0  0  0  0  0  0  0
   10.4241  -18.6165   19.8876 C   0  0  1  0  0  0  0  0  0  0  0  0
   11.2703  -19.8317   20.1924 C   0  0  0  0  0  0  0  0  0  0  0  0
   10.5282  -21.0080   19.6433 C   0  0  0  0  0  0  0  0  0  0  0  0
    9.3340  -21.1539   20.0014 O   0  0  0  0  0  0  0  0  0  0  0  0
   10.7972  -17.4486   20.7078 C   0  0  0  0  0  0  0  0  0  0  0  0
   11.8836  -16.8232   20.4743 O   0  0  0  0  0  0  0  0  0  0  0  0
   11.0756  -21.9319   18.7741 O   0  0  0  0  0  0  0  0  0  0  0  0
    6.8776  -13.0488   17.7340 O   0  0  0  0  0  0  0  0  0  0  0  0
    7.4576  -13.4714   18.9340 C   0  0  0  0  0  0  0  0  0  0  0  0
    8.7460  -13.1238   19.2748 C   0  0  0  0  0  0  0  0  0  0  0  0
    9.3049  -13.5487   20.4623 C   0  0  0  0  0  0  0  0  0  0  0  0
    8.6220  -14.3322   21.3627 C   0  0  0  0  0  0  0  0  0  0  0  0
    9.1835  -14.8164   22.6352 C   0  0  0  0  0  0  0  0  0  0  0  0
   10.3742  -15.7375   22.4844 C   0  0  2  0  0  0  0  0  0  0  0  0
   10.0163  -16.9469   21.7733 N   0  0  0  0  0  0  0  0  0  0  0  0
   10.8455  -16.1158   23.8268 C   0  0  0  0  0  0  0  0  0  0  0  0
   10.6788  -17.4548   24.2185 O   0  0  0  0  0  0  0  0  0  0  0  0
    7.3250  -14.6738   21.0062 C   0  0  0  0  0  0  0  0  0  0  0  0
    6.7556  -14.2517   19.8165 C   0  0  0  0  0  0  0  0  0  0  0  0
   11.3845  -15.3052   24.6287 O   0  0  0  0  0  0  0  0  0  0  0  0
  2  1  1  6
  2  3  1  0
  2  6  1  0
  3  4  1  0
  4  5  2  0
  4  8  1  0
  6  7  2  0
  9  6  1  0
  9 10  1  0
 10 11  1  1
 12 11  1  0
 13 12  2  0
 14 10  1  0
 14 15  2  0
 16 12  1  0
 18 19  2  0
 18 17  1  0
 20 19  1  0
 21 20  2  0
 22 21  1  0
 23 24  1  0
 23 22  1  1
 24 14  1  0
 25 23  1  0
 26 25  1  0
 27 21  1  0
 27 28  2  0
 28 18  1  0
 29 25  2  0
M  END
$$$$
