DDY.pdb
     RDKit          3D

 29 29  0  0  1  0  0  0  0  0999 V2000
    8.9445  -14.8224   21.4326 N   0  0  0  0  0  0  0  0  0  0  0  0
    8.2444  -16.0271   21.8119 C   0  0  1  0  0  0  0  0  0  0  0  0
    7.5062  -16.6809   20.6719 C   0  0  0  0  0  0  0  0  0  0  0  0
    8.3839  -16.9207   19.5059 C   0  0  0  0  0  0  0  0  0  0  0  0
    7.9385  -17.6013   18.5509 O   0  0  0  0  0  0  0  0  0  0  0  0
    9.2103  -16.9555   22.4446 C   0  0  0  0  0  0  0  0  0  0  0  0
    9.4288  -18.1227   22.0187 O   0  0  0  0  0  0  0  0  0  0  0  0
    9.6739  -16.4346   19.4079 O   0  0  0  0  0  0  0  0  0  0  0  0
    9.9281  -16.5176   23.5860 N   0  0  0  0  0  0  0  0  0  0  0  0
   10.9867  -17.3264   24.1361 C   0  0  1  0  0  0  0  0  0  0  0  0
   12.0330  -17.4917   23.0573 C   0  0  0  0  0  0  0  0  0  0  0  0
   12.9149  -16.2871   23.1399 C   0  0  0  0  0  0  0  0  0  0  0  0
   13.2642  -15.7538   22.0586 O   0  0  0  0  0  0  0  0  0  0  0  0
   11.5165  -16.6558   25.3384 C   0  0  0  0  0  0  0  0  0  0  0  0
   12.6410  -17.0089   25.8251 O   0  0  0  0  0  0  0  0  0  0  0  0
   13.3611  -15.7339   24.3247 O   0  0  0  0  0  0  0  0  0  0  0  0
    6.3465  -10.9627   25.4398 O   0  0  0  0  0  0  0  0  0  0  0  0
    6.9367  -12.1491   25.8864 C   0  0  0  0  0  0  0  0  0  0  0  0
    7.8493  -12.1576   26.9179 C   0  0  0  0  0  0  0  0  0  0  0  0
    8.4235  -13.3361   27.3473 C   0  0  0  0  0  0  0  0  0  0  0  0
    8.1256  -14.5534   26.7812 C   0  0  0  0  0  0  0  0  0  0  0  0
    8.7227  -15.8326   27.2009 C   0  0  0  0  0  0  0  0  0  0  0  0
   10.2313  -15.8128   27.3134 C   0  0  2  0  0  0  0  0  0  0  0  0
   10.8522  -15.6120   26.0208 N   0  0  0  0  0  0  0  0  0  0  0  0
   10.6778  -17.1126   27.8411 C   0  0  0  0  0  0  0  0  0  0  0  0
   11.1464  -17.1478   29.1652 O   0  0  0  0  0  0  0  0  0  0  0  0
    7.2043  -14.5293   25.7436 C   0  0  0  0  0  0  0  0  0  0  0  0
    6.6225  -13.3511   25.3062 C   0  0  0  0  0  0  0  0  0  0  0  0
   10.6585  -18.1798   27.1692 O   0  0  0  0  0  0  0  0  0  0  0  0
  2  1  1  6
  2  3  1  0
  2  6  1  0
  3  4  1  0
  4  5  2  0
  4  8  1  0
  6  7  2  0
  9  6  1  0
  9 10  1  0
 10 11  1  6
 12 11  1  0
 13 12  2  0
 14 10  1  0
 14 15  2  0
 16 12  1  0
 18 19  2  0
 18 17  1  0
 20 19  1  0
 21 20  2  0
 22 21  1  0
 23 24  1  0
 23 22  1  6
 24 14  1  0
 25 23  1  0
 26 25  1  0
 27 21  1  0
 27 28  2  0
 28 18  1  0
 29 25  2  0
M  END
$$$$
