DDY.pdb
     RDKit          3D

 29 29  0  0  1  0  0  0  0  0999 V2000
    9.7281  -18.7408   20.3310 N   0  0  0  0  0  0  0  0  0  0  0  0
   10.5633  -17.6914   19.7958 C   0  0  1  0  0  0  0  0  0  0  0  0
   10.6648  -17.7081   18.2920 C   0  0  0  0  0  0  0  0  0  0  0  0
   11.3627  -18.9137   17.7952 C   0  0  0  0  0  0  0  0  0  0  0  0
   12.5287  -19.1397   18.1991 O   0  0  0  0  0  0  0  0  0  0  0  0
   10.0658  -16.3893   20.2980 C   0  0  0  0  0  0  0  0  0  0  0  0
   10.5952  -15.2841   19.9983 O   0  0  0  0  0  0  0  0  0  0  0  0
   10.8003  -19.8106   16.9069 O   0  0  0  0  0  0  0  0  0  0  0  0
    8.9395  -16.3768   21.1590 N   0  0  0  0  0  0  0  0  0  0  0  0
    8.4115  -15.1290   21.6505 C   0  0  1  0  0  0  0  0  0  0  0  0
    6.9095  -15.1803   21.4855 C   0  0  0  0  0  0  0  0  0  0  0  0
    6.5035  -16.5898   21.7759 C   0  0  0  0  0  0  0  0  0  0  0  0
    6.8703  -17.4738   20.9636 O   0  0  0  0  0  0  0  0  0  0  0  0
    8.8196  -14.9662   23.0587 C   0  0  0  0  0  0  0  0  0  0  0  0
    8.9697  -13.7995   23.5507 O   0  0  0  0  0  0  0  0  0  0  0  0
    5.7572  -16.9699   22.8747 O   0  0  0  0  0  0  0  0  0  0  0  0
    5.7709  -10.8574   26.7577 O   0  0  0  0  0  0  0  0  0  0  0  0
    6.4290  -12.0856   26.6413 C   0  0  0  0  0  0  0  0  0  0  0  0
    5.7536  -13.2372   26.3031 C   0  0  0  0  0  0  0  0  0  0  0  0
    6.4165  -14.4419   26.1924 C   0  0  0  0  0  0  0  0  0  0  0  0
    7.7688  -14.5648   26.4096 C   0  0  0  0  0  0  0  0  0  0  0  0
    8.5135  -15.8317   26.3130 C   0  0  0  0  0  0  0  0  0  0  0  0
    9.6080  -15.8370   25.2685 C   0  0  2  0  0  0  0  0  0  0  0  0
    9.0668  -16.0416   23.9412 N   0  0  0  0  0  0  0  0  0  0  0  0
   10.5313  -16.9448   25.5645 C   0  0  0  0  0  0  0  0  0  0  0  0
   10.7127  -17.9203   24.5697 O   0  0  0  0  0  0  0  0  0  0  0  0
    8.4361  -13.3962   26.7489 C   0  0  0  0  0  0  0  0  0  0  0  0
    7.7789  -12.1824   26.8621 C   0  0  0  0  0  0  0  0  0  0  0  0
   11.1579  -17.0559   26.6534 O   0  0  0  0  0  0  0  0  0  0  0  0
  2  1  1  6
  2  3  1  0
  2  6  1  0
  3  4  1  0
  4  5  2  0
  4  8  1  0
  6  7  2  0
  9  6  1  0
  9 10  1  0
 10 11  1  1
 12 11  1  0
 13 12  2  0
 14 10  1  0
 14 15  2  0
 16 12  1  0
 18 19  2  0
 18 17  1  0
 20 19  1  0
 21 20  2  0
 22 21  1  0
 23 24  1  0
 23 22  1  1
 24 14  1  0
 25 23  1  0
 26 25  1  0
 27 21  1  0
 27 28  2  0
 28 18  1  0
 29 25  2  0
M  END
$$$$
