DDY.pdb
     RDKit          3D

 29 29  0  0  1  0  0  0  0  0999 V2000
   12.6978  -19.1584   18.8933 N   0  0  0  0  0  0  0  0  0  0  0  0
   11.7693  -18.0759   18.6667 C   0  0  1  0  0  0  0  0  0  0  0  0
   11.1014  -18.1259   17.3163 C   0  0  0  0  0  0  0  0  0  0  0  0
   12.0830  -18.1201   16.2100 C   0  0  0  0  0  0  0  0  0  0  0  0
   13.1355  -17.4512   16.3469 O   0  0  0  0  0  0  0  0  0  0  0  0
   10.7791  -18.0644   19.7687 C   0  0  0  0  0  0  0  0  0  0  0  0
    9.8604  -17.2051   19.8645 O   0  0  0  0  0  0  0  0  0  0  0  0
   11.9061  -18.8135   15.0279 O   0  0  0  0  0  0  0  0  0  0  0  0
   10.8619  -19.0654   20.7692 N   0  0  0  0  0  0  0  0  0  0  0  0
    9.9317  -19.0745   21.8701 C   0  0  1  0  0  0  0  0  0  0  0  0
    9.7521  -20.5143   22.2949 C   0  0  0  0  0  0  0  0  0  0  0  0
    8.7482  -21.1061   21.3581 C   0  0  0  0  0  0  0  0  0  0  0  0
    7.5702  -20.6786   21.4314 O   0  0  0  0  0  0  0  0  0  0  0  0
   10.4728  -18.2300   22.9518 C   0  0  0  0  0  0  0  0  0  0  0  0
   11.7335  -18.1233   23.1107 O   0  0  0  0  0  0  0  0  0  0  0  0
    9.0401  -22.0843   20.4272 O   0  0  0  0  0  0  0  0  0  0  0  0
   10.9592  -13.9381   30.7624 O   0  0  0  0  0  0  0  0  0  0  0  0
   10.5181  -14.4808   29.5516 C   0  0  0  0  0  0  0  0  0  0  0  0
   10.1692  -15.8085   29.4403 C   0  0  0  0  0  0  0  0  0  0  0  0
    9.7361  -16.3298   28.2387 C   0  0  0  0  0  0  0  0  0  0  0  0
    9.6284  -15.5691   27.0982 C   0  0  0  0  0  0  0  0  0  0  0  0
    9.1815  -16.0869   25.7940 C   0  0  0  0  0  0  0  0  0  0  0  0
   10.2367  -16.8567   25.0306 C   0  0  2  0  0  0  0  0  0  0  0  0
    9.6750  -17.5004   23.8615 N   0  0  0  0  0  0  0  0  0  0  0  0
   10.7831  -17.9012   25.9126 C   0  0  0  0  0  0  0  0  0  0  0  0
   12.0670  -17.6936   26.4443 O   0  0  0  0  0  0  0  0  0  0  0  0
    9.9827  -14.2333   27.2258 C   0  0  0  0  0  0  0  0  0  0  0  0
   10.4183  -13.7013   28.4279 C   0  0  0  0  0  0  0  0  0  0  0  0
   10.1604  -18.9572   26.2088 O   0  0  0  0  0  0  0  0  0  0  0  0
  2  1  1  1
  2  3  1  0
  2  6  1  0
  3  4  1  0
  4  5  2  0
  4  8  1  0
  6  7  2  0
  9  6  1  0
  9 10  1  0
 10 11  1  1
 12 11  1  0
 13 12  2  0
 14 10  1  0
 14 15  2  0
 16 12  1  0
 18 19  2  0
 18 17  1  0
 20 19  1  0
 21 20  2  0
 22 21  1  0
 23 24  1  0
 23 22  1  1
 24 14  1  0
 25 23  1  0
 26 25  1  0
 27 21  1  0
 27 28  2  0
 28 18  1  0
 29 25  2  0
M  END
$$$$
