DDY.pdb
     RDKit          3D

 29 29  0  0  1  0  0  0  0  0999 V2000
    9.2429  -15.2328   21.0040 N   0  0  0  0  0  0  0  0  0  0  0  0
    8.1895  -15.4479   21.9681 C   0  0  1  0  0  0  0  0  0  0  0  0
    6.9924  -16.1693   21.4038 C   0  0  0  0  0  0  0  0  0  0  0  0
    7.0653  -16.3009   19.9325 C   0  0  0  0  0  0  0  0  0  0  0  0
    8.1258  -15.9644   19.3530 O   0  0  0  0  0  0  0  0  0  0  0  0
    8.7575  -16.1583   23.1377 C   0  0  0  0  0  0  0  0  0  0  0  0
    8.0504  -16.6431   24.0632 O   0  0  0  0  0  0  0  0  0  0  0  0
    6.0261  -16.7764   19.1555 O   0  0  0  0  0  0  0  0  0  0  0  0
   10.1648  -16.3040   23.2286 N   0  0  0  0  0  0  0  0  0  0  0  0
   10.7568  -16.9746   24.3587 C   0  0  1  0  0  0  0  0  0  0  0  0
   12.1642  -17.3618   23.9649 C   0  0  0  0  0  0  0  0  0  0  0  0
   12.0366  -18.5503   23.0666 C   0  0  0  0  0  0  0  0  0  0  0  0
   13.0778  -18.9527   22.4925 O   0  0  0  0  0  0  0  0  0  0  0  0
   10.7254  -16.0627   25.5177 C   0  0  0  0  0  0  0  0  0  0  0  0
   11.2690  -14.9117   25.4414 O   0  0  0  0  0  0  0  0  0  0  0  0
   10.8521  -19.2230   22.8360 O   0  0  0  0  0  0  0  0  0  0  0  0
    6.4803  -11.4397   24.6630 O   0  0  0  0  0  0  0  0  0  0  0  0
    7.0832  -12.3187   25.5680 C   0  0  0  0  0  0  0  0  0  0  0  0
    6.7668  -13.6590   25.5922 C   0  0  0  0  0  0  0  0  0  0  0  0
    7.3698  -14.5140   26.4913 C   0  0  0  0  0  0  0  0  0  0  0  0
    8.3071  -14.0880   27.4029 C   0  0  0  0  0  0  0  0  0  0  0  0
    8.9667  -14.9637   28.3863 C   0  0  0  0  0  0  0  0  0  0  0  0
   10.2875  -15.5400   27.9256 C   0  0  2  0  0  0  0  0  0  0  0  0
   10.1170  -16.3741   26.7544 N   0  0  0  0  0  0  0  0  0  0  0  0
   10.8367  -16.3735   29.0077 C   0  0  0  0  0  0  0  0  0  0  0  0
   10.9837  -17.7479   28.7558 O   0  0  0  0  0  0  0  0  0  0  0  0
    8.6161  -12.7356   27.3663 C   0  0  0  0  0  0  0  0  0  0  0  0
    8.0162  -11.8698   26.4671 C   0  0  0  0  0  0  0  0  0  0  0  0
   11.1768  -15.9169   30.1331 O   0  0  0  0  0  0  0  0  0  0  0  0
  2  1  1  6
  2  3  1  0
  2  6  1  0
  3  4  1  0
  4  5  2  0
  4  8  1  0
  6  7  2  0
  9  6  1  0
  9 10  1  0
 10 11  1  6
 12 11  1  0
 13 12  2  0
 14 10  1  0
 14 15  2  0
 16 12  1  0
 18 19  2  0
 18 17  1  0
 20 19  1  0
 21 20  2  0
 22 21  1  0
 23 24  1  0
 23 22  1  1
 24 14  1  0
 25 23  1  0
 26 25  1  0
 27 21  1  0
 27 28  2  0
 28 18  1  0
 29 25  2  0
M  END
$$$$
