DDY.pdb
     RDKit          3D

 29 29  0  0  1  0  0  0  0  0999 V2000
    7.7810  -16.6748   20.8978 N   0  0  0  0  0  0  0  0  0  0  0  0
    8.8554  -15.8438   21.3883 C   0  0  1  0  0  0  0  0  0  0  0  0
    8.4917  -14.3845   21.4906 C   0  0  0  0  0  0  0  0  0  0  0  0
    8.1793  -13.7956   20.1705 C   0  0  0  0  0  0  0  0  0  0  0  0
    8.2524  -14.5289   19.1552 O   0  0  0  0  0  0  0  0  0  0  0  0
    9.3172  -16.3867   22.6872 C   0  0  0  0  0  0  0  0  0  0  0  0
    8.5317  -16.8144   23.5770 O   0  0  0  0  0  0  0  0  0  0  0  0
    7.8091  -12.4764   19.9906 O   0  0  0  0  0  0  0  0  0  0  0  0
   10.7095  -16.4306   22.9507 N   0  0  0  0  0  0  0  0  0  0  0  0
   11.2098  -17.1165   24.1155 C   0  0  1  0  0  0  0  0  0  0  0  0
   12.6326  -17.5311   23.8164 C   0  0  0  0  0  0  0  0  0  0  0  0
   12.5490  -18.5869   22.7610 C   0  0  0  0  0  0  0  0  0  0  0  0
   13.1624  -18.3766   21.6862 O   0  0  0  0  0  0  0  0  0  0  0  0
   11.1180  -16.2076   25.2737 C   0  0  0  0  0  0  0  0  0  0  0  0
   11.6700  -15.0589   25.2311 O   0  0  0  0  0  0  0  0  0  0  0  0
   11.8439  -19.7669   22.9002 O   0  0  0  0  0  0  0  0  0  0  0  0
    6.0750  -11.9979   24.6213 O   0  0  0  0  0  0  0  0  0  0  0  0
    6.8119  -12.8268   25.4728 C   0  0  0  0  0  0  0  0  0  0  0  0
    6.6537  -14.1950   25.4632 C   0  0  0  0  0  0  0  0  0  0  0  0
    7.3877  -14.9999   26.3096 C   0  0  0  0  0  0  0  0  0  0  0  0
    8.3060  -14.4944   27.1996 C   0  0  0  0  0  0  0  0  0  0  0  0
    9.1021  -15.3156   28.1275 C   0  0  0  0  0  0  0  0  0  0  0  0
   10.4914  -15.6522   27.6320 C   0  0  2  0  0  0  0  0  0  0  0  0
   10.4405  -16.5195   26.4737 N   0  0  0  0  0  0  0  0  0  0  0  0
   11.2116  -16.3588   28.7042 C   0  0  0  0  0  0  0  0  0  0  0  0
   11.5326  -15.6273   29.8601 O   0  0  0  0  0  0  0  0  0  0  0  0
    8.4550  -13.1146   27.1975 C   0  0  0  0  0  0  0  0  0  0  0  0
    7.7228  -12.2987   26.3513 C   0  0  0  0  0  0  0  0  0  0  0  0
   11.5476  -17.5723   28.6338 O   0  0  0  0  0  0  0  0  0  0  0  0
  2  1  1  1
  2  3  1  0
  2  6  1  0
  3  4  1  0
  4  5  2  0
  4  8  1  0
  6  7  2  0
  9  6  1  0
  9 10  1  0
 10 11  1  6
 12 11  1  0
 13 12  2  0
 14 10  1  0
 14 15  2  0
 16 12  1  0
 18 19  2  0
 18 17  1  0
 20 19  1  0
 21 20  2  0
 22 21  1  0
 23 24  1  0
 23 22  1  1
 24 14  1  0
 25 23  1  0
 26 25  1  0
 27 21  1  0
 27 28  2  0
 28 18  1  0
 29 25  2  0
M  END
$$$$
